0:0
     RDKit          3D

 19 19  0  0  0  0  0  0  0  0999 V2000
   58.3530   27.1090   44.3560 C   0  0  0  0  0  0  0  0  0  0  0  0
   57.7220   27.1890   45.5260 C   0  0  0  0  0  0  0  0  0  0  0  0
   56.2750   27.4730   45.6280 C   0  0  0  0  0  0  0  0  0  0  0  0
   55.4810   26.5710   46.0050 O   0  0  0  0  0  0  0  0  0  0  0  0
   55.7370   28.7410   45.2310 N   0  0  0  0  0  0  0  0  0  0  0  0
   56.4400   29.7850   44.5420 C   0  0  0  0  0  0  0  0  0  0  0  0
   56.2440   30.0260   43.1700 C   0  0  0  0  0  0  0  0  0  0  0  0
   56.9700   31.0300   42.5220 C   0  0  0  0  0  0  0  0  0  0  0  0
   57.9080   31.7860   43.2320 C   0  0  0  0  0  0  0  0  0  0  0  0
   58.1260   31.5320   44.5890 C   0  0  0  0  0  0  0  0  0  0  0  0
   57.4010   30.5290   45.2390 C   0  0  0  0  0  0  0  0  0  0  0  0
   59.4317   26.8955   44.3263 H   0  0  0  0  0  0  0  0  0  0  0  0
   57.7955   27.2564   43.4193 H   0  0  0  0  0  0  0  0  0  0  0  0
   58.2988   27.0382   46.4504 H   0  0  0  0  0  0  0  0  0  0  0  0
   55.5176   29.4230   42.6054 H   0  0  0  0  0  0  0  0  0  0  0  0
   56.8031   31.2254   41.4524 H   0  0  0  0  0  0  0  0  0  0  0  0
   58.4739   32.5801   42.7229 H   0  0  0  0  0  0  0  0  0  0  0  0
   58.8688   32.1219   45.1460 H   0  0  0  0  0  0  0  0  0  0  0  0
   57.5860   30.3228   46.3035 H   0  0  0  0  0  0  0  0  0  0  0  0
  1  2  2  0
  2  3  1  0
  3  4  2  0
  3  5  1  0
  5  6  1  0
  6  7  2  0
  7  8  1  0
  8  9  2  0
  9 10  1  0
 10 11  2  0
 11  6  1  0
  1 12  1  0
  1 13  1  0
  2 14  1  0
  7 15  1  0
  8 16  1  0
  9 17  1  0
 10 18  1  0
 11 19  1  0
M  CHG  1   5  -1
M  END
>  <UniqueID>  (1) 
1

>  <SMILES>  (1) 
C=CC(=O)[N-]c1ccccc1

>  <Energy>  (1) 
20.535152244001516

>  <Genealogy>  (1) 
C=CC(=O)[N-]c1ccccc1 (protonated)
C=CC(=O)[N-]c1ccccc1 (3D coordinates assigned)
C=CC(=O)[N-]c1ccccc1 (optimized conformer: 20.535152244001516 kcal/mol)

>  <smiles>  (1) 
C=CC(=O)Nc1ccccc1

>  <score_type>  (1) 
oracle

>  <origin>  (1) 
adg

>  <m_score__min__energy>  (1) 
-7.46

>  <m_primary>  (1) 
energy

$$$$
1:0
     RDKit          3D

 39 42  0  0  0  0  0  0  0  0999 V2000
   59.9710   35.9650   46.0130 C   0  0  0  0  0  0  0  0  0  0  0  0
   59.1050   35.0520   46.6790 O   0  0  0  0  0  0  0  0  0  0  0  0
   58.6430   33.8490   46.1240 C   0  0  0  0  0  0  0  0  0  0  0  0
   58.5940   32.6490   46.8560 C   0  0  0  0  0  0  0  0  0  0  0  0
   58.1270   31.4760   46.2570 C   0  0  0  0  0  0  0  0  0  0  0  0
   57.6990   31.4740   44.9160 C   0  0  0  0  0  0  0  0  0  0  0  0
   57.2180   30.2540   44.3060 N   0  0  0  0  0  0  0  0  0  0  0  0
   56.6220   30.2600   42.9670 C   0  0  0  0  0  0  0  0  0  0  0  0
   57.5050   28.9860   44.9180 C   0  0  0  0  0  0  0  0  0  0  0  0
   56.4550   28.1120   45.2520 C   0  0  0  0  0  0  0  0  0  0  0  0
   56.7170   26.8590   45.8550 C   0  0  0  0  0  0  0  0  0  0  0  0
   55.6770   25.9710   46.1990 C   0  0  0  0  0  0  0  0  0  0  0  0
   54.4720   26.2700   45.9800 O   0  0  0  0  0  0  0  0  0  0  0  0
   55.9680   24.7760   46.7770 N   0  0  0  0  0  0  0  0  0  0  0  0
   57.2440   24.3920   47.0400 C   0  0  0  0  0  0  0  0  0  0  0  0
   58.3120   25.2290   46.7190 C   0  0  0  0  0  0  0  0  0  0  0  0
   58.0540   26.4720   46.1230 C   0  0  0  0  0  0  0  0  0  0  0  0
   59.0820   27.3580   45.7730 C   0  0  0  0  0  0  0  0  0  0  0  0
   60.7460   27.1700   45.9390 S   0  0  0  0  0  0  0  0  0  0  0  0
   61.1550   28.6540   45.2500 C   0  0  0  0  0  0  0  0  0  0  0  0
   59.9870   29.3150   44.8790 C   0  0  0  0  0  0  0  0  0  0  0  0
   58.8250   28.5880   45.1810 C   0  0  0  0  0  0  0  0  0  0  0  0
   57.7490   32.6800   44.1910 C   0  0  0  0  0  0  0  0  0  0  0  0
   58.2180   33.8520   44.7920 C   0  0  0  0  0  0  0  0  0  0  0  0
   60.5279   36.5521   46.7581 H   0  0  0  0  0  0  0  0  0  0  0  0
   60.6787   35.4061   45.3832 H   0  0  0  0  0  0  0  0  0  0  0  0
   59.3755   36.6422   45.3832 H   0  0  0  0  0  0  0  0  0  0  0  0
   58.9248   32.6338   47.9050 H   0  0  0  0  0  0  0  0  0  0  0  0
   58.0935   30.5438   46.8399 H   0  0  0  0  0  0  0  0  0  0  0  0
   55.5255   30.2710   43.0538 H   0  0  0  0  0  0  0  0  0  0  0  0
   56.9557   31.1548   42.4211 H   0  0  0  0  0  0  0  0  0  0  0  0
   56.9376   29.3586   42.4211 H   0  0  0  0  0  0  0  0  0  0  0  0
   55.4162   28.4064   45.0417 H   0  0  0  0  0  0  0  0  0  0  0  0
   57.4359   23.4155   47.5087 H   0  0  0  0  0  0  0  0  0  0  0  0
   59.3456   24.9178   46.9309 H   0  0  0  0  0  0  0  0  0  0  0  0
   62.1773   29.0371   45.1157 H   0  0  0  0  0  0  0  0  0  0  0  0
   59.9761   30.3046   44.3989 H   0  0  0  0  0  0  0  0  0  0  0  0
   57.4162   32.7002   43.1427 H   0  0  0  0  0  0  0  0  0  0  0  0
   58.2530   34.7855   44.2112 H   0  0  0  0  0  0  0  0  0  0  0  0
  1  2  1  0
  2  3  1  0
  3  4  2  0
  4  5  1  0
  5  6  2  0
  6  7  1  0
  7  8  1  0
  7  9  1  0
  9 10  2  0
 10 11  1  0
 11 12  1  0
 12 13  2  0
 12 14  1  0
 14 15  1  0
 15 16  2  0
 16 17  1  0
 17 18  1  0
 18 19  1  0
 19 20  1  0
 20 21  2  0
 21 22  1  0
  6 23  1  0
 23 24  2  0
 24  3  1  0
 22  9  1  0
 17 11  2  0
 22 18  2  0
  1 25  1  0
  1 26  1  0
  1 27  1  0
  4 28  1  0
  5 29  1  0
  8 30  1  0
  8 31  1  0
  8 32  1  0
 10 33  1  0
 15 34  1  0
 16 35  1  0
 20 36  1  0
 21 37  1  0
 23 38  1  0
 24 39  1  0
M  CHG  1  14  -1
M  END
>  <UniqueID>  (2) 
2

>  <SMILES>  (2) 
COc1ccc(N(C)c2cc3c(=O)[n-]ccc3c3sccc23)cc1

>  <Energy>  (2) 
87.90268999881386

>  <Genealogy>  (2) 
COc1ccc(N(C)c2cc3c(=O)[n-]ccc3c3sccc23)cc1 (protonated)
COc1ccc(N(C)c2cc3c(=O)[n-]ccc3c3sccc23)cc1 (3D coordinates assigned)
COc1ccc(N(C)c2cc3c(=O)[n-]ccc3c3sccc23)cc1 (optimized conformer: 87.90268999881386 kcal/mol)

>  <smiles>  (2) 
COc1ccc(N(C)c2cc3c(=O)[nH]ccc3c3sccc23)cc1

>  <score_type>  (2) 
oracle

>  <origin>  (2) 
adg

>  <m_score__min__energy>  (2) 
-9.7599999999999998

>  <m_primary>  (2) 
energy

$$$$
2:0
     RDKit          3D

 50 52  0  0  0  0  0  0  0  0999 V2000
   56.2680   20.4600   44.4500 C   0  0  0  0  0  0  0  0  0  0  0  0
   56.8620   21.8060   44.7380 C   0  0  0  0  0  0  0  0  0  0  0  0
   58.2470   21.9980   44.6530 C   0  0  0  0  0  0  0  0  0  0  0  0
   58.8060   23.2420   44.9580 C   0  0  0  0  0  0  0  0  0  0  0  0
   57.9910   24.3100   45.3740 C   0  0  0  0  0  0  0  0  0  0  0  0
   58.5670   25.5980   45.6580 N   0  0  0  0  0  0  0  0  0  0  0  0
   58.2360   26.7810   44.9030 C   0  0  0  0  0  0  0  0  0  0  0  0
   57.7820   26.6510   43.7320 O   0  0  0  0  0  0  0  0  0  0  0  0
   58.3730   28.1900   45.4810 C   0  0  0  0  0  0  0  0  0  0  0  0
   57.1270   28.9980   45.0120 C   0  0  0  0  0  0  0  0  0  0  0  0
   55.9410   28.2790   45.2380 O   0  0  0  0  0  0  0  0  0  0  0  0
   59.6750   28.8470   44.8980 C   0  0  0  0  0  0  0  0  0  0  0  0
   60.4380   29.7460   45.8890 C   0  0  0  0  0  0  0  0  0  0  0  0
   59.5140   30.4090   46.8100 N   0  0  0  0  0  0  0  0  0  0  0  0
   59.2730   31.8210   46.6730 C   0  0  0  0  0  0  0  0  0  0  0  0
   58.1680   32.2280   45.9900 N   0  0  0  0  0  0  0  0  0  0  0  0
   57.8440   33.5370   45.8420 C   0  0  0  0  0  0  0  0  0  0  0  0
   58.6500   34.5210   46.4090 C   0  0  0  0  0  0  0  0  0  0  0  0
   59.7990   34.1450   47.1030 C   0  0  0  0  0  0  0  0  0  0  0  0
   60.1520   32.7880   47.2220 C   0  0  0  0  0  0  0  0  0  0  0  0
   61.4220   32.4080   47.9530 C   0  0  0  0  0  0  0  0  0  0  0  0
   61.1480   31.5290   48.9850 F   0  0  0  0  0  0  0  0  0  0  0  0
   62.0190   33.5460   48.4610 F   0  0  0  0  0  0  0  0  0  0  0  0
   62.3170   31.7860   47.0990 F   0  0  0  0  0  0  0  0  0  0  0  0
   58.6140   29.5870   47.6310 C   0  0  0  0  0  0  0  0  0  0  0  0
   58.4480   28.1770   47.0390 C   0  0  0  0  0  0  0  0  0  0  0  0
   56.5980   24.1140   45.4630 C   0  0  0  0  0  0  0  0  0  0  0  0
   55.5230   25.4010   45.9950 Cl  0  0  0  0  0  0  0  0  0  0  0  0
   56.0440   22.8650   45.1570 C   0  0  0  0  0  0  0  0  0  0  0  0
   56.0423   19.9485   45.3973 H   0  0  0  0  0  0  0  0  0  0  0  0
   55.3412   20.5845   43.8707 H   0  0  0  0  0  0  0  0  0  0  0  0
   56.9846   19.8593   43.8707 H   0  0  0  0  0  0  0  0  0  0  0  0
   58.8973   21.1661   44.3449 H   0  0  0  0  0  0  0  0  0  0  0  0
   59.8930   23.3871   44.8719 H   0  0  0  0  0  0  0  0  0  0  0  0
   59.3040   25.6470   46.3910 H   0  0  0  0  0  0  0  0  0  0  0  0
   57.0836   29.9458   45.5685 H   0  0  0  0  0  0  0  0  0  0  0  0
   57.2200   29.1863   43.9322 H   0  0  0  0  0  0  0  0  0  0  0  0
   55.9750   27.4740   44.6600 H   0  0  0  0  0  0  0  0  0  0  0  0
   60.3508   28.0414   44.5750 H   0  0  0  0  0  0  0  0  0  0  0  0
   59.3530   29.4972   44.0712 H   0  0  0  0  0  0  0  0  0  0  0  0
   61.1417   29.1289   46.4669 H   0  0  0  0  0  0  0  0  0  0  0  0
   60.9800   30.5157   45.3200 H   0  0  0  0  0  0  0  0  0  0  0  0
   56.9454   33.8209   45.2746 H   0  0  0  0  0  0  0  0  0  0  0  0
   58.3828   35.5835   46.3103 H   0  0  0  0  0  0  0  0  0  0  0  0
   60.4355   34.9160   47.5618 H   0  0  0  0  0  0  0  0  0  0  0  0
   59.0313   29.5028   48.6453 H   0  0  0  0  0  0  0  0  0  0  0  0
   57.6268   30.0716   47.6549 H   0  0  0  0  0  0  0  0  0  0  0  0
   59.3067   27.5619   47.3460 H   0  0  0  0  0  0  0  0  0  0  0  0
   57.5006   27.7647   47.4165 H   0  0  0  0  0  0  0  0  0  0  0  0
   54.9582   22.7133   45.2460 H   0  0  0  0  0  0  0  0  0  0  0  0
  1  2  1  0
  2  3  2  0
  3  4  1  0
  4  5  2  0
  5  6  1  0
  6  7  1  0
  7  8  2  0
  7  9  1  0
  9 10  1  0
 10 11  1  0
  9 12  1  0
 12 13  1  0
 13 14  1  0
 14 15  1  0
 15 16  2  0
 16 17  1  0
 17 18  2  0
 18 19  1  0
 19 20  2  0
 20 21  1  0
 21 22  1  0
 21 23  1  0
 21 24  1  0
 14 25  1  0
 25 26  1  0
  5 27  1  0
 27 28  1  0
 27 29  2  0
 29  2  1  0
 26  9  1  0
 20 15  1  0
  1 30  1  0
  1 31  1  0
  1 32  1  0
  3 33  1  0
  4 34  1  0
  6 35  1  0
 10 36  1  0
 10 37  1  0
 11 38  1  0
 12 39  1  0
 12 40  1  0
 13 41  1  0
 13 42  1  0
 17 43  1  0
 18 44  1  0
 19 45  1  0
 25 46  1  0
 25 47  1  0
 26 48  1  0
 26 49  1  0
 29 50  1  0
M  END
>  <UniqueID>  (3) 
3

>  <SMILES>  (3) 
Cc1ccc(NC(=O)C2(CO)CCN(c3ncccc3C(F)(F)F)CC2)c(Cl)c1

>  <Energy>  (3) 
71.50983869373512

>  <Genealogy>  (3) 
Cc1ccc(NC(=O)C2(CO)CCN(c3ncccc3C(F)(F)F)CC2)c(Cl)c1 (3D coordinates assigned)
Cc1ccc(NC(=O)C2(CO)CCN(c3ncccc3C(F)(F)F)CC2)c(Cl)c1 (nonaromatic ring conformer: 71.50983869373512 kcal/mol)

>  <smiles>  (3) 
Cc1ccc(NC(=O)C2(CO)CCN(c3ncccc3C(F)(F)F)CC2)c(Cl)c1

>  <score_type>  (3) 
oracle

>  <origin>  (3) 
adg

>  <m_score__min__energy>  (3) 
-8.4900000000000002

>  <m_primary>  (3) 
energy

$$$$
3:0
     RDKit          3D

 34 35  0  0  0  0  0  0  0  0999 V2000
   60.4670   28.6180   44.8210 C   0  0  0  0  0  0  0  0  0  0  0  0
   59.5840   29.0810   45.9750 C   0  0  0  0  0  0  0  0  0  0  0  0
   58.3050   29.5810   45.4710 N   0  0  0  0  0  0  0  0  0  0  0  0
   57.9630   30.8670   45.2700 C   0  0  0  0  0  0  0  0  0  0  0  0
   56.6810   30.9710   44.8700 N   0  0  0  0  0  0  0  0  0  0  0  0
   56.1850   29.7420   44.8180 N   0  0  0  0  0  0  0  0  0  0  0  0
   57.1730   28.9040   45.1860 C   0  0  0  0  0  0  0  0  0  0  0  0
   57.0030   27.4200   45.2780 C   0  0  0  0  0  0  0  0  0  0  0  0
   55.7770   27.1200   46.0010 N   0  0  0  0  0  0  0  0  0  0  0  0
   55.1400   25.8400   45.9830 C   0  0  0  0  0  0  0  0  0  0  0  0
   53.9330   25.7370   45.6360 O   0  0  0  0  0  0  0  0  0  0  0  0
   55.8780   24.6590   46.3130 N   0  0  0  0  0  0  0  0  0  0  0  0
   56.3170   23.6740   45.3670 C   0  0  0  0  0  0  0  0  0  0  0  0
   57.6860   23.5560   45.1020 C   0  0  0  0  0  0  0  0  0  0  0  0
   58.1470   22.5910   44.2070 C   0  0  0  0  0  0  0  0  0  0  0  0
   57.2280   21.7580   43.5680 C   0  0  0  0  0  0  0  0  0  0  0  0
   55.8980   21.9070   43.8030 N   0  0  0  0  0  0  0  0  0  0  0  0
   55.4160   22.8440   44.6690 C   0  0  0  0  0  0  0  0  0  0  0  0
   54.0370   22.9960   44.8450 O   0  0  0  0  0  0  0  0  0  0  0  0
   53.3940   22.8180   46.1010 C   0  0  0  0  0  0  0  0  0  0  0  0
   61.3743   28.1423   45.2216 H   0  0  0  0  0  0  0  0  0  0  0  0
   59.9147   27.8935   44.2045 H   0  0  0  0  0  0  0  0  0  0  0  0
   60.7489   29.4843   44.2045 H   0  0  0  0  0  0  0  0  0  0  0  0
   59.4002   28.2344   46.6528 H   0  0  0  0  0  0  0  0  0  0  0  0
   60.0967   29.8921   46.5128 H   0  0  0  0  0  0  0  0  0  0  0  0
   58.6413   31.7210   45.4135 H   0  0  0  0  0  0  0  0  0  0  0  0
   56.9463   26.9933   44.2657 H   0  0  0  0  0  0  0  0  0  0  0  0
   57.8608   26.9834   45.8105 H   0  0  0  0  0  0  0  0  0  0  0  0
   58.4008   24.2266   45.6013 H   0  0  0  0  0  0  0  0  0  0  0  0
   59.2237   22.4876   44.0069 H   0  0  0  0  0  0  0  0  0  0  0  0
   57.5802   20.9806   42.8740 H   0  0  0  0  0  0  0  0  0  0  0  0
   54.1109   23.0165   46.9113 H   0  0  0  0  0  0  0  0  0  0  0  0
   52.5473   23.5155   46.1816 H   0  0  0  0  0  0  0  0  0  0  0  0
   53.0265   21.7843   46.1816 H   0  0  0  0  0  0  0  0  0  0  0  0
  1  2  1  0
  2  3  1  0
  3  4  1  0
  4  5  2  0
  5  6  1  0
  6  7  2  0
  7  8  1  0
  8  9  1  0
  9 10  1  0
 10 11  2  0
 10 12  1  0
 12 13  1  0
 13 14  2  0
 14 15  1  0
 15 16  2  0
 16 17  1  0
 17 18  2  0
 18 19  1  0
 19 20  1  0
  7  3  1  0
 18 13  1  0
  1 21  1  0
  1 22  1  0
  1 23  1  0
  2 24  1  0
  2 25  1  0
  4 26  1  0
  8 27  1  0
  8 28  1  0
 14 29  1  0
 15 30  1  0
 16 31  1  0
 20 32  1  0
 20 33  1  0
 20 34  1  0
M  CHG  2   9  -1  12  -1
M  END
>  <UniqueID>  (4) 
4

>  <SMILES>  (4) 
CCn1cnnc1C[N-]C(=O)[N-]c1cccnc1OC

>  <Energy>  (4) 
63.302089514165225

>  <Genealogy>  (4) 
CCn1cnnc1C[N-]C(=O)[N-]c1cccnc1OC (protonated)
CCn1cnnc1C[N-]C(=O)[N-]c1cccnc1OC (3D coordinates assigned)
CCn1cnnc1C[N-]C(=O)[N-]c1cccnc1OC (optimized conformer: 63.302089514165225 kcal/mol)

>  <smiles>  (4) 
CCn1cnnc1CNC(=O)Nc1cccnc1OC

>  <score_type>  (4) 
oracle

>  <origin>  (4) 
adg

>  <m_score__min__energy>  (4) 
-10.51

>  <m_primary>  (4) 
energy

$$$$
4:0
     RDKit          3D

 33 34  0  0  0  0  0  0  0  0999 V2000
   58.9650   28.4010   47.2730 C   0  0  0  0  0  0  0  0  0  0  0  0
   57.7890   28.0610   46.5470 O   0  0  0  0  0  0  0  0  0  0  0  0
   57.7730   27.2810   45.3780 C   0  0  0  0  0  0  0  0  0  0  0  0
   57.4200   25.9170   45.3980 C   0  0  0  0  0  0  0  0  0  0  0  0
   57.4140   25.1720   44.2160 C   0  0  0  0  0  0  0  0  0  0  0  0
   57.7640   25.7750   43.0080 C   0  0  0  0  0  0  0  0  0  0  0  0
   58.1160   27.1250   42.9740 C   0  0  0  0  0  0  0  0  0  0  0  0
   58.1070   27.8920   44.1540 C   0  0  0  0  0  0  0  0  0  0  0  0
   58.4950   29.2760   44.1340 N   0  0  0  0  0  0  0  0  0  0  0  0
   57.6260   30.3550   44.5180 C   0  0  0  0  0  0  0  0  0  0  0  0
   56.4410   30.1210   44.8760 O   0  0  0  0  0  0  0  0  0  0  0  0
   58.1150   31.7490   44.5130 C   0  0  0  0  0  0  0  0  0  0  0  0
   58.5430   32.4830   45.6060 C   0  0  0  0  0  0  0  0  0  0  0  0
   58.5320   32.0200   47.3020 Cl  0  0  0  0  0  0  0  0  0  0  0  0
   58.8410   33.7330   45.0960 C   0  0  0  0  0  0  0  0  0  0  0  0
   59.2560   34.9310   45.8840 C   0  0  0  0  0  0  0  0  0  0  0  0
   58.5910   33.7570   43.7720 N   0  0  0  0  0  0  0  0  0  0  0  0
   58.1630   32.5530   43.4240 N   0  0  0  0  0  0  0  0  0  0  0  0
   57.7760   32.2090   42.0610 C   0  0  0  0  0  0  0  0  0  0  0  0
   58.7598   28.3417   48.3521 H   0  0  0  0  0  0  0  0  0  0  0  0
   59.7715   27.6992   47.0140 H   0  0  0  0  0  0  0  0  0  0  0  0
   59.2726   29.4249   47.0140 H   0  0  0  0  0  0  0  0  0  0  0  0
   57.1477   25.4362   46.3492 H   0  0  0  0  0  0  0  0  0  0  0  0
   57.1329   24.1087   44.2382 H   0  0  0  0  0  0  0  0  0  0  0  0
   57.7626   25.1849   42.0797 H   0  0  0  0  0  0  0  0  0  0  0  0
   58.4020   27.5920   42.0200 H   0  0  0  0  0  0  0  0  0  0  0  0
   59.4810   29.4980   43.8710 H   0  0  0  0  0  0  0  0  0  0  0  0
   59.1787   34.7080   46.9584 H   0  0  0  0  0  0  0  0  0  0  0  0
   60.2962   35.1899   45.6371 H   0  0  0  0  0  0  0  0  0  0  0  0
   58.5989   35.7779   45.6371 H   0  0  0  0  0  0  0  0  0  0  0  0
   56.9541   31.4784   42.0865 H   0  0  0  0  0  0  0  0  0  0  0  0
   57.4443   33.1158   41.5341 H   0  0  0  0  0  0  0  0  0  0  0  0
   58.6377   31.7733   41.5341 H   0  0  0  0  0  0  0  0  0  0  0  0
  1  2  1  0
  2  3  1  0
  3  4  2  0
  4  5  1  0
  5  6  2  0
  6  7  1  0
  7  8  2  0
  8  9  1  0
  9 10  1  0
 10 11  2  0
 10 12  1  0
 12 13  2  0
 13 14  1  0
 13 15  1  0
 15 16  1  0
 15 17  2  0
 17 18  1  0
 18 19  1  0
  8  3  1  0
 18 12  1  0
  1 20  1  0
  1 21  1  0
  1 22  1  0
  4 23  1  0
  5 24  1  0
  6 25  1  0
  7 26  1  0
  9 27  1  0
 16 28  1  0
 16 29  1  0
 16 30  1  0
 19 31  1  0
 19 32  1  0
 19 33  1  0
M  END
>  <UniqueID>  (5) 
5

>  <SMILES>  (5) 
COc1ccccc1NC(=O)c1c(Cl)c(C)nn1C

>  <Energy>  (5) 
69.11807296124648

>  <Genealogy>  (5) 
COc1ccccc1NC(=O)c1c(Cl)c(C)nn1C (3D coordinates assigned)
COc1ccccc1NC(=O)c1c(Cl)c(C)nn1C (optimized conformer: 69.11807296124648 kcal/mol)

>  <smiles>  (5) 
COc1ccccc1NC(=O)c1c(Cl)c(C)nn1C

>  <score_type>  (5) 
oracle

>  <origin>  (5) 
adg

>  <m_score__min__energy>  (5) 
-6.4900000000000002

>  <m_primary>  (5) 
energy

$$$$
5:0
     RDKit          3D

 46 49  0  0  0  0  0  0  0  0999 V2000
   60.4570   29.6250   47.2120 C   0  0  0  0  0  0  0  0  0  0  0  0
   60.7880   29.2290   45.9150 C   0  0  0  0  0  0  0  0  0  0  0  0
   59.8430   29.3270   44.8880 C   0  0  0  0  0  0  0  0  0  0  0  0
   58.5510   29.8150   45.1550 C   0  0  0  0  0  0  0  0  0  0  0  0
   57.5670   29.9380   44.1130 N   0  0  0  0  0  0  0  0  0  0  0  0
   56.7450   28.9660   43.7550 N   0  0  0  0  0  0  0  0  0  0  0  0
   56.0500   29.3720   42.7050 N   0  0  0  0  0  0  0  0  0  0  0  0
   56.4130   30.5930   42.3410 N   0  0  0  0  0  0  0  0  0  0  0  0
   57.3580   30.9440   43.2330 C   0  0  0  0  0  0  0  0  0  0  0  0
   58.2950   32.4730   43.1240 S   0  0  0  0  0  0  0  0  0  0  0  0
   57.4180   33.2910   44.5010 C   0  0  0  0  0  0  0  0  0  0  0  0
   58.3940   33.9000   45.4550 C   0  0  0  0  0  0  0  0  0  0  0  0
   58.7560   33.4100   46.6900 C   0  0  0  0  0  0  0  0  0  0  0  0
   59.6980   34.2470   47.1550 N   0  0  0  0  0  0  0  0  0  0  0  0
   60.4220   34.1280   48.4160 C   0  0  0  0  0  0  0  0  0  0  0  0
   61.1580   32.8470   48.4570 N   0  0  0  0  0  0  0  0  0  0  0  0
   62.1120   32.7910   49.5830 C   0  0  0  0  0  0  0  0  0  0  0  0
   63.3120   33.7390   49.3840 C   0  0  0  0  0  0  0  0  0  0  0  0
   63.7820   33.8100   47.9210 C   0  0  0  0  0  0  0  0  0  0  0  0
   63.3060   32.6030   47.1150 C   0  0  0  0  0  0  0  0  0  0  0  0
   61.7680   32.4900   47.1480 C   0  0  0  0  0  0  0  0  0  0  0  0
   59.9030   35.1970   46.2560 N   0  0  0  0  0  0  0  0  0  0  0  0
   59.1200   35.0090   45.2040 N   0  0  0  0  0  0  0  0  0  0  0  0
   58.2350   30.2280   46.4610 C   0  0  0  0  0  0  0  0  0  0  0  0
   59.1820   30.1270   47.4850 C   0  0  0  0  0  0  0  0  0  0  0  0
   61.1999   29.5418   48.0190 H   0  0  0  0  0  0  0  0  0  0  0  0
   61.7939   28.8391   45.7000 H   0  0  0  0  0  0  0  0  0  0  0  0
   60.1118   29.0208   43.8662 H   0  0  0  0  0  0  0  0  0  0  0  0
   55.3280   28.8000   42.2160 H   0  0  0  0  0  0  0  0  0  0  0  0
   56.7661   34.0797   44.0973 H   0  0  0  0  0  0  0  0  0  0  0  0
   56.8181   32.5404   45.0365 H   0  0  0  0  0  0  0  0  0  0  0  0
   58.3560   32.5169   47.1923 H   0  0  0  0  0  0  0  0  0  0  0  0
   61.1349   34.9608   48.5068 H   0  0  0  0  0  0  0  0  0  0  0  0
   59.7042   34.1590   49.2490 H   0  0  0  0  0  0  0  0  0  0  0  0
   61.5861   33.0758   50.5062 H   0  0  0  0  0  0  0  0  0  0  0  0
   62.5018   31.7641   49.6418 H   0  0  0  0  0  0  0  0  0  0  0  0
   63.0193   34.7486   49.7081 H   0  0  0  0  0  0  0  0  0  0  0  0
   64.1475   33.3439   49.9805 H   0  0  0  0  0  0  0  0  0  0  0  0
   63.3811   34.7257   47.4619 H   0  0  0  0  0  0  0  0  0  0  0  0
   64.8820   33.8144   47.9143 H   0  0  0  0  0  0  0  0  0  0  0  0
   63.6365   32.7137   46.0717 H   0  0  0  0  0  0  0  0  0  0  0  0
   63.7346   31.6927   47.5596 H   0  0  0  0  0  0  0  0  0  0  0  0
   61.3562   33.1622   46.3808 H   0  0  0  0  0  0  0  0  0  0  0  0
   61.5248   31.4332   46.9638 H   0  0  0  0  0  0  0  0  0  0  0  0
   57.2359   30.6334   46.6790 H   0  0  0  0  0  0  0  0  0  0  0  0
   58.9229   30.4430   48.5063 H   0  0  0  0  0  0  0  0  0  0  0  0
  1  2  2  0
  2  3  1  0
  3  4  2  0
  4  5  1  0
  5  6  1  0
  6  7  2  0
  7  8  1  0
  8  9  2  0
  9 10  1  0
 10 11  1  0
 11 12  1  0
 12 13  2  0
 13 14  1  0
 14 15  1  0
 15 16  1  0
 16 17  1  0
 17 18  1  0
 18 19  1  0
 19 20  1  0
 20 21  1  0
 14 22  1  0
 22 23  2  0
  4 24  1  0
 24 25  2  0
 25  1  1  0
  9  5  1  0
 23 12  1  0
 21 16  1  0
  1 26  1  0
  2 27  1  0
  3 28  1  0
  7 29  1  0
 11 30  1  0
 11 31  1  0
 13 32  1  0
 15 33  1  0
 15 34  1  0
 17 35  1  0
 17 36  1  0
 18 37  1  0
 18 38  1  0
 19 39  1  0
 19 40  1  0
 20 41  1  0
 20 42  1  0
 21 43  1  0
 21 44  1  0
 24 45  1  0
 25 46  1  0
M  CHG  1   7   1
M  END
>  <UniqueID>  (6) 
6

>  <SMILES>  (6) 
c1ccc(-n2n[nH+]nc2SCc2cn(CN3CCCCC3)nn2)cc1

>  <Energy>  (6) 
131.95804707161759

>  <Genealogy>  (6) 
c1ccc(-n2n[nH+]nc2SCc2cn(CN3CCCCC3)nn2)cc1 (protonated)
c1ccc(-n2n[nH+]nc2SCc2cn(CN3CCCCC3)nn2)cc1 (3D coordinates assigned)
c1ccc(-n2n[nH+]nc2SCc2cn(CN3CCCCC3)nn2)cc1 (nonaromatic ring conformer: 131.95804707161759 kcal/mol)

>  <smiles>  (6) 
c1ccc(-n2nnnc2SCc2cn(CN3CCCCC3)nn2)cc1

>  <score_type>  (6) 
oracle

>  <origin>  (6) 
adg

>  <m_score__min__energy>  (6) 
-7.7400000000000002

>  <m_primary>  (6) 
energy

$$$$
6:0
     RDKit          3D

 49 52  0  0  0  0  0  0  0  0999 V2000
   55.7640   29.5380   44.6520 O   0  0  0  0  0  0  0  0  0  0  0  0
   56.7930   30.2370   44.8670 C   0  0  0  0  0  0  0  0  0  0  0  0
   58.0500   29.6060   45.1300 N   0  0  0  0  0  0  0  0  0  0  0  0
   58.2020   28.1480   45.1840 C   0  0  2  0  0  0  0  0  0  0  0  0
   57.7770   27.5230   43.8530 C   0  0  0  0  0  0  0  0  0  0  0  0
   57.9800   25.9990   43.8550 C   0  0  0  0  0  0  0  0  0  0  0  0
   58.0400   25.3930   45.2810 C   0  0  2  0  0  0  0  0  0  0  0  0
   57.7640   23.9040   45.2280 C   0  0  0  0  0  0  0  0  0  0  0  0
   58.7370   23.0360   44.7040 C   0  0  0  0  0  0  0  0  0  0  0  0
   58.4770   21.6700   44.5870 C   0  0  0  0  0  0  0  0  0  0  0  0
   57.2440   21.1560   44.9900 C   0  0  0  0  0  0  0  0  0  0  0  0
   56.2660   22.0070   45.5130 C   0  0  0  0  0  0  0  0  0  0  0  0
   56.5110   23.3850   45.6220 C   0  0  0  0  0  0  0  0  0  0  0  0
   55.4700   24.2670   46.2610 C   0  0  0  0  0  0  0  0  0  0  0  0
   55.7110   25.7490   45.9680 C   0  0  0  0  0  0  0  0  0  0  0  0
   57.1260   26.0840   46.2240 N   0  0  0  0  0  0  0  0  0  0  0  0
   57.3640   27.5490   46.3390 C   0  0  0  0  0  0  0  0  0  0  0  0
   56.7200   31.6340   44.8470 O   0  0  0  0  0  0  0  0  0  0  0  0
   57.7170   32.4610   44.2490 C   0  0  0  0  0  0  0  0  0  0  0  0
   58.3490   33.3480   45.2870 C   0  0  0  0  0  0  0  0  0  0  0  0
   59.0540   34.5010   44.9090 C   0  0  0  0  0  0  0  0  0  0  0  0
   59.6720   35.2970   45.8790 C   0  0  0  0  0  0  0  0  0  0  0  0
   59.5890   34.9460   47.2300 C   0  0  0  0  0  0  0  0  0  0  0  0
   58.8900   33.7980   47.6130 C   0  0  0  0  0  0  0  0  0  0  0  0
   58.2740   32.9980   46.6460 C   0  0  0  0  0  0  0  0  0  0  0  0
   58.8790   30.2270   45.2720 H   0  0  0  0  0  0  0  0  0  0  0  0
   59.2622   27.9199   45.3679 H   0  0  0  0  0  0  0  0  0  0  0  0
   56.7130   27.7415   43.6792 H   0  0  0  0  0  0  0  0  0  0  0  0
   58.4008   27.9529   43.0554 H   0  0  0  0  0  0  0  0  0  0  0  0
   57.1436   25.5341   43.3124 H   0  0  0  0  0  0  0  0  0  0  0  0
   58.9480   25.7974   43.3730 H   0  0  0  0  0  0  0  0  0  0  0  0
   59.0577   25.5465   45.6692 H   0  0  0  0  0  0  0  0  0  0  0  0
   59.7103   23.4361   44.3838 H   0  0  0  0  0  0  0  0  0  0  0  0
   59.2449   20.9977   44.1766 H   0  0  0  0  0  0  0  0  0  0  0  0
   57.0411   20.0790   44.8960 H   0  0  0  0  0  0  0  0  0  0  0  0
   55.3001   21.5950   45.8406 H   0  0  0  0  0  0  0  0  0  0  0  0
   54.4801   23.9853   45.8728 H   0  0  0  0  0  0  0  0  0  0  0  0
   55.5278   24.1239   47.3501 H   0  0  0  0  0  0  0  0  0  0  0  0
   55.4709   25.9571   44.9149 H   0  0  0  0  0  0  0  0  0  0  0  0
   55.0689   26.3582   46.6211 H   0  0  0  0  0  0  0  0  0  0  0  0
   56.3883   28.0567   46.3567 H   0  0  0  0  0  0  0  0  0  0  0  0
   57.9417   27.7039   47.2622 H   0  0  0  0  0  0  0  0  0  0  0  0
   58.4912   31.8254   43.7944 H   0  0  0  0  0  0  0  0  0  0  0  0
   57.2464   33.0897   43.4787 H   0  0  0  0  0  0  0  0  0  0  0  0
   59.1208   34.7795   43.8470 H   0  0  0  0  0  0  0  0  0  0  0  0
   60.2238   36.2000   45.5788 H   0  0  0  0  0  0  0  0  0  0  0  0
   60.0742   35.5739   47.9918 H   0  0  0  0  0  0  0  0  0  0  0  0
   58.8244   33.5236   48.6762 H   0  0  0  0  0  0  0  0  0  0  0  0
   57.7291   32.0920   46.9497 H   0  0  0  0  0  0  0  0  0  0  0  0
  1  2  2  0
  2  3  1  0
  3  4  1  0
  4  5  1  0
  5  6  1  0
  6  7  1  0
  7  8  1  0
  8  9  2  0
  9 10  1  0
 10 11  2  0
 11 12  1  0
 12 13  2  0
 13 14  1  0
 14 15  1  0
 15 16  1  0
 16 17  1  0
  2 18  1  0
 18 19  1  0
 19 20  1  0
 20 21  2  0
 21 22  1  0
 22 23  2  0
 23 24  1  0
 24 25  2  0
 17  4  1  0
 25 20  1  0
 16  7  1  0
 13  8  1  0
  3 26  1  0
  4 27  1  1
  5 28  1  0
  5 29  1  0
  6 30  1  0
  6 31  1  0
  7 32  1  1
  9 33  1  0
 10 34  1  0
 11 35  1  0
 12 36  1  0
 14 37  1  0
 14 38  1  0
 15 39  1  0
 15 40  1  0
 17 41  1  0
 17 42  1  0
 19 43  1  0
 19 44  1  0
 21 45  1  0
 22 46  1  0
 23 47  1  0
 24 48  1  0
 25 49  1  0
M  END
>  <UniqueID>  (7) 
7

>  <SMILES>  (7) 
O=C(N[C@@H]1CC[C@@H]2c3ccccc3CCN2C1)OCc1ccccc1

>  <Energy>  (7) 
60.61667791586755

>  <Genealogy>  (7) 
O=C(N[C@@H]1CC[C@@H]2c3ccccc3CCN2C1)OCc1ccccc1 (chirality)
O=C(N[C@@H]1CC[C@@H]2c3ccccc3CCN2C1)OCc1ccccc1 (3D coordinates assigned)
O=C(N[C@@H]1CC[C@@H]2c3ccccc3CCN2C1)OCc1ccccc1 (nonaromatic ring conformer: 60.61667791586755 kcal/mol)

>  <smiles>  (7) 
O=C(NC1CCC2c3ccccc3CCN2C1)OCc1ccccc1

>  <score_type>  (7) 
oracle

>  <origin>  (7) 
adg

>  <m_score__min__energy>  (7) 
-8.25

>  <m_primary>  (7) 
energy

$$$$
7:0
     RDKit          3D

 47 51  0  0  1  0  0  0  0  0999 V2000
   59.5370   26.1960   46.6560 C   0  0  0  0  0  0  0  0  0  0  0  0
   60.3310   27.3060   46.3710 C   0  0  0  0  0  0  0  0  0  0  0  0
   59.7600   28.4710   45.9010 C   0  0  0  0  0  0  0  0  0  0  0  0
   58.3920   28.5770   45.6980 C   0  0  0  0  0  0  0  0  0  0  0  0
   57.7680   29.8050   45.2000 C   0  0  0  0  0  0  0  0  0  0  0  0
   58.4580   30.9640   45.0070 N   0  0  0  0  0  0  0  0  0  0  0  0
   57.5570   31.8480   44.5500 C   0  0  0  0  0  0  0  0  0  0  0  0
   57.8770   33.2770   44.1980 C   0  0  0  0  0  0  0  0  0  0  0  0
   57.6720   34.0180   45.4280 N   0  0  0  0  0  0  0  0  0  0  0  0
   58.3000   33.6120   46.4800 C   0  0  0  0  0  0  0  0  0  0  0  0
   57.5560   33.1510   47.5000 N   0  0  0  0  0  0  0  0  0  0  0  0
   58.1410   32.7070   48.6380 C   0  0  0  0  0  0  0  0  0  0  0  0
   59.4820   32.7060   48.8020 N   0  0  0  0  0  0  0  0  0  0  0  0
   60.2430   33.1710   47.7730 C   0  0  0  0  0  0  0  0  0  0  0  0
   59.6740   33.6310   46.6000 C   0  0  0  0  0  0  0  0  0  0  0  0
   60.6400   34.0270   45.7610 N   0  0  0  0  0  0  0  0  0  0  0  0
   61.8170   33.8190   46.4050 C   0  0  0  0  0  0  0  0  0  0  0  0
   61.5800   33.2970   47.6300 N   0  0  0  0  0  0  0  0  0  0  0  0
   62.5320   32.9170   48.6590 C   0  0  0  0  0  0  0  0  0  0  0  0
   63.9550   32.9210   48.1190 C   0  0  0  0  0  0  0  0  0  0  0  0
   64.7790   33.0070   49.3620 C   0  0  0  0  0  0  0  0  0  0  0  0
   63.8910   33.5430   50.4660 C   0  0  0  0  0  0  0  0  0  0  0  0
   62.5800   33.9220   49.7630 C   0  0  0  0  0  0  0  0  0  0  0  0
   56.3340   31.2100   44.4710 C   0  0  0  0  0  0  0  0  0  0  0  0
   56.5110   29.9730   44.8740 O   0  0  0  0  0  0  0  0  0  0  0  0
   57.6210   27.4780   45.9810 C   0  0  0  0  0  0  0  0  0  0  0  0
   58.1670   26.2920   46.4560 C   0  0  0  0  0  0  0  0  0  0  0  0
   59.9865   25.2647   47.0311 H   0  0  0  0  0  0  0  0  0  0  0  0
   61.4193   27.2528   46.5217 H   0  0  0  0  0  0  0  0  0  0  0  0
   60.4044   29.3353   45.6824 H   0  0  0  0  0  0  0  0  0  0  0  0
   58.9198   33.3684   43.8601 H   0  0  0  0  0  0  0  0  0  0  0  0
   57.2477   33.6528   43.3778 H   0  0  0  0  0  0  0  0  0  0  0  0
   56.5260   33.1330   47.4210 H   0  0  0  0  0  0  0  0  0  0  0  0
   57.5042   32.3355   49.4544 H   0  0  0  0  0  0  0  0  0  0  0  0
   62.8124   34.0413   45.9930 H   0  0  0  0  0  0  0  0  0  0  0  0
   62.2022   31.9253   49.0021 H   0  0  0  0  0  0  0  0  0  0  0  0
   64.1708   31.9964   47.5635 H   0  0  0  0  0  0  0  0  0  0  0  0
   64.1498   33.7386   47.4093 H   0  0  0  0  0  0  0  0  0  0  0  0
   65.1533   32.0089   49.6334 H   0  0  0  0  0  0  0  0  0  0  0  0
   65.6434   33.6693   49.2066 H   0  0  0  0  0  0  0  0  0  0  0  0
   63.7127   32.7713   51.2293 H   0  0  0  0  0  0  0  0  0  0  0  0
   64.3458   34.3982   50.9873 H   0  0  0  0  0  0  0  0  0  0  0  0
   61.7177   33.8186   50.4381 H   0  0  0  0  0  0  0  0  0  0  0  0
   62.5409   34.9665   49.4203 H   0  0  0  0  0  0  0  0  0  0  0  0
   55.3870   31.6560   44.1329 H   0  0  0  0  0  0  0  0  0  0  0  0
   56.5335   27.5379   45.8266 H   0  0  0  0  0  0  0  0  0  0  0  0
   57.5159   25.4323   46.6727 H   0  0  0  0  0  0  0  0  0  0  0  0
  1  2  2  0
  2  3  1  0
  3  4  2  0
  4  5  1  0
  5  6  2  0
  6  7  1  0
  7  8  1  0
  8  9  1  0
  9 10  2  0
 10 11  1  0
 11 12  1  0
 12 13  2  0
 13 14  1  0
 14 15  2  0
 15 16  1  0
 16 17  2  0
 17 18  1  0
 18 19  1  0
 19 20  1  0
 20 21  1  0
 21 22  1  0
 22 23  1  0
  7 24  2  0
 24 25  1  0
  4 26  1  0
 26 27  2  0
 27  1  1  0
 25  5  1  0
 15 10  1  0
 23 19  1  0
 18 14  1  0
  1 28  1  0
  2 29  1  0
  3 30  1  0
  8 31  1  0
  8 32  1  0
 11 33  1  0
 12 34  1  0
 17 35  1  0
 19 36  1  0
 20 37  1  0
 20 38  1  0
 21 39  1  0
 21 40  1  0
 22 41  1  0
 22 42  1  0
 23 43  1  0
 23 44  1  0
 24 45  1  0
 26 46  1  0
 27 47  1  0
M  END
>  <smiles>  (8) 
c1ccc(-c2nc(CN=c3[nH]cnc4c3ncn4C3CCCC3)co2)cc1

>  <score_type>  (8) 
oracle

>  <origin>  (8) 
adg

>  <m_score__min__energy>  (8) 
-8.4100000000000001

>  <m_primary>  (8) 
energy

$$$$
8:0
     RDKit          3D

 33 35  0  0  0  0  0  0  0  0999 V2000
   59.7179   35.3695   44.4719 H   0  0  0  0  0  0  0  0  0  0  0  0
   59.2810   34.5690   45.0870 C   0  0  0  0  0  0  0  0  0  0  0  0
   59.6690   34.4230   46.4200 C   0  0  0  0  0  0  0  0  0  0  0  0
   60.4188   35.1022   46.8520 H   0  0  0  0  0  0  0  0  0  0  0  0
   59.1050   33.4140   47.2060 C   0  0  0  0  0  0  0  0  0  0  0  0
   59.6120   33.2370   49.0390 Br  0  0  0  0  0  0  0  0  0  0  0  0
   58.1610   32.5410   46.6550 C   0  0  0  0  0  0  0  0  0  0  0  0
   57.7086   31.7570   47.2800 H   0  0  0  0  0  0  0  0  0  0  0  0
   57.7880   32.6630   45.3020 C   0  0  0  0  0  0  0  0  0  0  0  0
   56.8020   31.8070   44.6990 N   0  0  0  0  0  0  0  0  0  0  0  0
   56.6890   30.5220   44.8610 C   0  0  0  0  0  0  0  0  0  0  0  0
   57.7230   29.6780   45.0460 N   0  0  0  0  0  0  0  0  0  0  0  0
   57.0940   28.4820   45.1130 C   0  0  0  0  0  0  0  0  0  0  0  0
   57.7960   27.1970   45.3210 C   0  0  0  0  0  0  0  0  0  0  0  0
   59.1070   27.1760   45.8230 C   0  0  0  0  0  0  0  0  0  0  0  0
   59.6155   28.1216   46.0623 H   0  0  0  0  0  0  0  0  0  0  0  0
   59.7710   25.9610   46.0210 C   0  0  0  0  0  0  0  0  0  0  0  0
   60.7978   25.9565   46.4155 H   0  0  0  0  0  0  0  0  0  0  0  0
   59.1320   24.7440   45.7180 C   0  0  0  0  0  0  0  0  0  0  0  0
   59.7550   23.5000   45.8990 O   0  0  0  0  0  0  0  0  0  0  0  0
   59.6560   22.4120   44.9870 C   0  0  0  0  0  0  0  0  0  0  0  0
   59.5703   21.4698   45.5482 H   0  0  0  0  0  0  0  0  0  0  0  0
   58.7662   22.5440   44.3539 H   0  0  0  0  0  0  0  0  0  0  0  0
   60.5551   22.3812   44.3539 H   0  0  0  0  0  0  0  0  0  0  0  0
   57.8260   24.7670   45.2180 C   0  0  0  0  0  0  0  0  0  0  0  0
   57.3178   23.8214   44.9782 H   0  0  0  0  0  0  0  0  0  0  0  0
   57.1600   25.9810   45.0200 C   0  0  0  0  0  0  0  0  0  0  0  0
   56.1328   25.9836   44.6265 H   0  0  0  0  0  0  0  0  0  0  0  0
   55.7550   28.5930   44.9670 N   0  0  0  0  0  0  0  0  0  0  0  0
   55.5130   29.8800   44.8050 N   0  0  0  0  0  0  0  0  0  0  0  0
   54.5660   30.2970   44.6570 H   0  0  0  0  0  0  0  0  0  0  0  0
   58.3370   33.6980   44.5330 C   0  0  0  0  0  0  0  0  0  0  0  0
   58.0234   33.8263   43.4865 H   0  0  0  0  0  0  0  0  0  0  0  0
  1  2  1  0
  2  3  2  0
  3  4  1  0
  3  5  1  0
  5  6  1  0
  5  7  2  0
  7  8  1  0
  7  9  1  0
  9 10  1  0
 10 11  2  0
 11 12  1  0
 12 13  2  0
 13 14  1  0
 14 15  2  0
 15 16  1  0
 15 17  1  0
 17 18  1  0
 17 19  2  0
 19 20  1  0
 20 21  1  0
 21 22  1  0
 21 23  1  0
 21 24  1  0
 19 25  1  0
 25 26  1  0
 25 27  2  0
 27 28  1  0
 13 29  1  0
 29 30  1  0
 30 31  1  0
  9 32  2  0
 32 33  1  0
 32  2  1  0
 30 11  1  0
 27 14  1  0
M  CHG  1  29  -1
M  END
>  <UniqueID>  (9) 
8

>  <SMILES>  (9) 
COc1ccc(-c2n/c(=N\c3cccc(Br)c3)[nH][n-]2)cc1

>  <Energy>  (9) 
74.03567423010463

>  <Genealogy>  (9) 
COc1ccc(-c2nc(=Nc3cccc(Br)c3)[nH][n-]2)cc1 (protonated)
COc1ccc(-c2n/c(=N\c3cccc(Br)c3)[nH][n-]2)cc1 (cis-trans isomerization)
COc1ccc(-c2n/c(=N\c3cccc(Br)c3)[nH][n-]2)cc1 (3D coordinates assigned)
COc1ccc(-c2n/c(=N\c3cccc(Br)c3)[nH][n-]2)cc1 (optimized conformer: 74.03567423010463 kcal/mol)

>  <smiles>  (9) 
COc1ccc(-c2nc(=Nc3cccc(Br)c3)[nH][nH]2)cc1

>  <score_type>  (9) 
oracle

>  <origin>  (9) 
adg

>  <m_score__min__energy>  (9) 
-9.2899999999999991

>  <m_primary>  (9) 
energy

$$$$
9:0
     RDKit          3D

 46 49  0  0  0  0  0  0  0  0999 V2000
   55.4890   23.5710   47.8970 C   0  0  0  0  0  0  0  0  0  0  0  0
   56.1340   23.9790   46.6470 N   0  0  0  0  0  0  0  0  0  0  0  0
   56.8560   25.2260   46.6310 C   0  0  0  0  0  0  0  0  0  0  0  0
   58.1750   25.2830   47.1560 C   0  0  0  0  0  0  0  0  0  0  0  0
   58.9000   26.4880   47.1450 C   0  0  0  0  0  0  0  0  0  0  0  0
   58.2820   27.6100   46.6020 C   0  0  0  0  0  0  0  0  0  0  0  0
   58.7850   28.8450   46.4780 N   0  0  0  0  0  0  0  0  0  0  0  0
   57.7720   29.5220   45.8720 C   0  0  0  0  0  0  0  0  0  0  0  0
   57.8590   30.9570   45.5210 C   0  0  0  0  0  0  0  0  0  0  0  0
   57.6720   31.3790   44.1920 C   0  0  0  0  0  0  0  0  0  0  0  0
   57.7540   32.7360   43.8630 C   0  0  0  0  0  0  0  0  0  0  0  0
   58.0220   33.6830   44.8550 C   0  0  0  0  0  0  0  0  0  0  0  0
   58.1010   34.9980   44.5330 F   0  0  0  0  0  0  0  0  0  0  0  0
   58.2110   33.2750   46.1770 C   0  0  0  0  0  0  0  0  0  0  0  0
   58.1300   31.9190   46.5120 C   0  0  0  0  0  0  0  0  0  0  0  0
   56.6700   28.7640   45.6170 N   0  0  0  0  0  0  0  0  0  0  0  0
   57.0230   27.5620   46.0910 C   0  0  0  0  0  0  0  0  0  0  0  0
   56.2730   26.3890   46.0800 C   0  0  0  0  0  0  0  0  0  0  0  0
   55.8940   23.1960   45.4160 C   0  0  1  0  0  0  0  0  0  0  0  0
   56.5670   23.8450   44.1830 C   0  0  0  0  0  0  0  0  0  0  0  0
   56.4630   22.9120   42.9700 C   0  0  0  0  0  0  0  0  0  0  0  0
   57.1410   21.5390   43.2110 C   0  0  2  0  0  0  0  0  0  0  0  0
   56.3210   20.5260   42.6890 O   0  0  0  0  0  0  0  0  0  0  0  0
   57.4320   21.2590   44.7040 C   0  0  0  0  0  0  0  0  0  0  0  0
   56.2730   21.7040   45.6080 C   0  0  0  0  0  0  0  0  0  0  0  0
   56.0756   23.9420   48.7504 H   0  0  0  0  0  0  0  0  0  0  0  0
   54.4734   23.9913   47.9397 H   0  0  0  0  0  0  0  0  0  0  0  0
   55.4336   22.4732   47.9397 H   0  0  0  0  0  0  0  0  0  0  0  0
   58.6338   24.3754   47.5753 H   0  0  0  0  0  0  0  0  0  0  0  0
   59.9206   26.5416   47.5517 H   0  0  0  0  0  0  0  0  0  0  0  0
   57.4602   30.6377   43.4074 H   0  0  0  0  0  0  0  0  0  0  0  0
   57.6073   33.0583   42.8216 H   0  0  0  0  0  0  0  0  0  0  0  0
   58.4240   34.0212   46.9566 H   0  0  0  0  0  0  0  0  0  0  0  0
   58.2789   31.6032   47.5551 H   0  0  0  0  0  0  0  0  0  0  0  0
   55.2584   26.3684   45.6556 H   0  0  0  0  0  0  0  0  0  0  0  0
   54.8134   23.2124   45.2112 H   0  0  0  0  0  0  0  0  0  0  0  0
   57.6274   24.0346   44.4057 H   0  0  0  0  0  0  0  0  0  0  0  0
   56.0565   24.7917   43.9523 H   0  0  0  0  0  0  0  0  0  0  0  0
   56.9475   23.3976   42.1101 H   0  0  0  0  0  0  0  0  0  0  0  0
   55.3948   22.7268   42.7841 H   0  0  0  0  0  0  0  0  0  0  0  0
   58.1145   21.5587   42.6993 H   0  0  0  0  0  0  0  0  0  0  0  0
   56.7010   19.6590   42.9930 H   0  0  0  0  0  0  0  0  0  0  0  0
   58.3411   21.8045   44.9973 H   0  0  0  0  0  0  0  0  0  0  0  0
   57.5627   20.1738   44.8276 H   0  0  0  0  0  0  0  0  0  0  0  0
   56.5667   21.5489   46.6567 H   0  0  0  0  0  0  0  0  0  0  0  0
   55.3930   21.1029   45.3353 H   0  0  0  0  0  0  0  0  0  0  0  0
  1  2  1  0
  2  3  1  0
  3  4  2  0
  4  5  1  0
  5  6  2  0
  6  7  1  0
  7  8  1  0
  8  9  1  0
  9 10  2  0
 10 11  1  0
 11 12  2  0
 12 13  1  0
 12 14  1  0
 14 15  2  0
  8 16  2  0
 16 17  1  0
 17 18  2  0
  2 19  1  0
 19 20  1  0
 20 21  1  0
 21 22  1  0
 22 23  1  0
 22 24  1  0
 24 25  1  0
 18  3  1  0
 25 19  1  0
 17  6  1  0
 15  9  1  0
  1 26  1  0
  1 27  1  0
  1 28  1  0
  4 29  1  0
  5 30  1  0
 10 31  1  0
 11 32  1  0
 14 33  1  0
 15 34  1  0
 18 35  1  0
 19 36  1  6
 20 37  1  0
 20 38  1  0
 21 39  1  0
 21 40  1  0
 22 41  1  6
 23 42  1  0
 24 43  1  0
 24 44  1  0
 25 45  1  0
 25 46  1  0
M  CHG  1   7  -1
M  END
>  <UniqueID>  (10) 
9

>  <SMILES>  (10) 
CN(c1ccc2[n-]c(-c3ccc(F)cc3)nc2c1)C1CCC(O)CC1

>  <Energy>  (10) 
93.42105743963833

>  <Genealogy>  (10) 
CN(c1ccc2[n-]c(-c3ccc(F)cc3)nc2c1)C1CCC(O)CC1 (protonated)
CN(c1ccc2[n-]c(-c3ccc(F)cc3)nc2c1)C1CCC(O)CC1 (3D coordinates assigned)
CN(c1ccc2[n-]c(-c3ccc(F)cc3)nc2c1)C1CCC(O)CC1 (nonaromatic ring conformer: 93.42105743963833 kcal/mol)

>  <smiles>  (10) 
CN(c1ccc2[nH]c(-c3ccc(F)cc3)nc2c1)C1CCC(O)CC1

>  <score_type>  (10) 
oracle

>  <origin>  (10) 
adg

>  <m_score__min__energy>  (10) 
-9.3200000000000003

>  <m_primary>  (10) 
energy

$$$$
10:0
     RDKit          3D

 60 63  0  0  0  0  0  0  0  0999 V2000
   55.1580   30.2830   44.1550 O   0  0  0  0  0  0  0  0  0  0  0  0
   56.4170   30.3190   44.1360 C   0  0  0  0  0  0  0  0  0  0  0  0
   57.0650   31.5210   43.6960 N   0  0  0  0  0  0  0  0  0  0  0  0
   57.7250   32.4690   44.5460 C   0  0  0  0  0  0  0  0  0  0  0  0
   57.4510   32.4570   45.9180 C   0  0  0  0  0  0  0  0  0  0  0  0
   58.0670   33.3780   46.7690 C   0  0  0  0  0  0  0  0  0  0  0  0
   58.9460   34.3430   46.2540 C   0  0  0  0  0  0  0  0  0  0  0  0
   59.6240   35.3190   47.1880 C   0  0  0  0  0  0  0  0  0  0  0  0
   59.5700   34.8580   48.5950 N   0  0  0  0  0  0  0  0  0  0  0  0
   60.7720   34.1140   49.0080 C   0  0  0  0  0  0  0  0  0  0  0  0
   60.7310   32.6700   48.5680 C   0  0  0  0  0  0  0  0  0  0  0  0
   59.8430   31.7650   49.1750 C   0  0  0  0  0  0  0  0  0  0  0  0
   59.8160   30.4260   48.7700 C   0  0  0  0  0  0  0  0  0  0  0  0
   60.6640   29.9850   47.7500 C   0  0  0  0  0  0  0  0  0  0  0  0
   60.6340   28.6870   47.3590 F   0  0  0  0  0  0  0  0  0  0  0  0
   61.5360   30.8830   47.1300 C   0  0  0  0  0  0  0  0  0  0  0  0
   61.5760   32.2190   47.5390 C   0  0  0  0  0  0  0  0  0  0  0  0
   59.2000   34.3730   44.8740 C   0  0  0  0  0  0  0  0  0  0  0  0
   58.5970   33.4410   44.0250 C   0  0  0  0  0  0  0  0  0  0  0  0
   57.1880   29.1500   44.6180 C   0  0  0  0  0  0  0  0  0  0  0  0
   57.7050   28.2190   43.7020 C   0  0  0  0  0  0  0  0  0  0  0  0
   58.4170   27.1030   44.1510 C   0  0  0  0  0  0  0  0  0  0  0  0
   58.6110   26.8930   45.5240 C   0  0  0  0  0  0  0  0  0  0  0  0
   59.3450   25.6720   46.0180 C   0  0  0  0  0  0  0  0  0  0  0  0
   58.4000   24.5900   46.3690 N   0  0  0  0  0  0  0  0  0  0  0  0
   57.4690   24.2970   45.2520 C   0  0  0  0  0  0  0  0  0  0  0  0
   56.0630   24.8730   45.5050 C   0  0  0  0  0  0  0  0  0  0  0  0
   55.4540   24.3780   46.6890 O   0  0  0  0  0  0  0  0  0  0  0  0
   56.3800   24.0820   47.7260 C   0  0  0  0  0  0  0  0  0  0  0  0
   57.6900   24.8810   47.6370 C   0  0  0  0  0  0  0  0  0  0  0  0
   58.0770   27.8110   46.4420 C   0  0  0  0  0  0  0  0  0  0  0  0
   57.3760   28.9320   45.9940 C   0  0  0  0  0  0  0  0  0  0  0  0
   56.7468   31.7185   46.3288 H   0  0  0  0  0  0  0  0  0  0  0  0
   57.8617   33.3465   47.8492 H   0  0  0  0  0  0  0  0  0  0  0  0
   60.6769   35.4267   46.8882 H   0  0  0  0  0  0  0  0  0  0  0  0
   59.0951   36.2812   47.1217 H   0  0  0  0  0  0  0  0  0  0  0  0
   58.7160   34.2810   48.7840 H   0  0  0  0  0  0  0  0  0  0  0  0
   59.5010   35.7000   49.2140 H   0  0  0  0  0  0  0  0  0  0  0  0
   61.6558   34.5945   48.5631 H   0  0  0  0  0  0  0  0  0  0  0  0
   60.8169   34.1300   50.1070 H   0  0  0  0  0  0  0  0  0  0  0  0
   59.1671   32.1107   49.9710 H   0  0  0  0  0  0  0  0  0  0  0  0
   59.1265   29.7193   49.2550 H   0  0  0  0  0  0  0  0  0  0  0  0
   62.1928   30.5379   46.3179 H   0  0  0  0  0  0  0  0  0  0  0  0
   62.2712   32.9200   47.0539 H   0  0  0  0  0  0  0  0  0  0  0  0
   59.8771   35.1339   44.4586 H   0  0  0  0  0  0  0  0  0  0  0  0
   58.8054   33.4680   42.9453 H   0  0  0  0  0  0  0  0  0  0  0  0
   57.5485   28.3692   42.6236 H   0  0  0  0  0  0  0  0  0  0  0  0
   58.8270   26.3863   43.4242 H   0  0  0  0  0  0  0  0  0  0  0  0
   60.0223   25.3155   45.2279 H   0  0  0  0  0  0  0  0  0  0  0  0
   59.9134   25.9461   46.9190 H   0  0  0  0  0  0  0  0  0  0  0  0
   57.8724   24.7382   44.3287 H   0  0  0  0  0  0  0  0  0  0  0  0
   57.3773   23.2043   45.1645 H   0  0  0  0  0  0  0  0  0  0  0  0
   56.1440   25.9670   45.5860 H   0  0  0  0  0  0  0  0  0  0  0  0
   55.4292   24.5637   44.6608 H   0  0  0  0  0  0  0  0  0  0  0  0
   55.9025   24.3060   48.6913 H   0  0  0  0  0  0  0  0  0  0  0  0
   56.6460   23.0196   47.6233 H   0  0  0  0  0  0  0  0  0  0  0  0
   57.4605   25.9558   47.6831 H   0  0  0  0  0  0  0  0  0  0  0  0
   58.3373   24.5908   48.4777 H   0  0  0  0  0  0  0  0  0  0  0  0
   58.2118   27.6460   47.5212 H   0  0  0  0  0  0  0  0  0  0  0  0
   56.9684   29.6489   46.7219 H   0  0  0  0  0  0  0  0  0  0  0  0
  1  2  2  0
  2  3  1  0
  3  4  1  0
  4  5  2  0
  5  6  1  0
  6  7  2  0
  7  8  1  0
  8  9  1  0
  9 10  1  0
 10 11  1  0
 11 12  2  0
 12 13  1  0
 13 14  2  0
 14 15  1  0
 14 16  1  0
 16 17  2  0
  7 18  1  0
 18 19  2  0
  2 20  1  0
 20 21  2  0
 21 22  1  0
 22 23  2  0
 23 24  1  0
 24 25  1  0
 25 26  1  0
 26 27  1  0
 27 28  1  0
 28 29  1  0
 29 30  1  0
 23 31  1  0
 31 32  2  0
 19  4  1  0
 32 20  1  0
 17 11  1  0
 30 25  1  0
  5 33  1  0
  6 34  1  0
  8 35  1  0
  8 36  1  0
  9 37  1  0
  9 38  1  0
 10 39  1  0
 10 40  1  0
 12 41  1  0
 13 42  1  0
 16 43  1  0
 17 44  1  0
 18 45  1  0
 19 46  1  0
 21 47  1  0
 22 48  1  0
 24 49  1  0
 24 50  1  0
 26 51  1  0
 26 52  1  0
 27 53  1  0
 27 54  1  0
 29 55  1  0
 29 56  1  0
 30 57  1  0
 30 58  1  0
 31 59  1  0
 32 60  1  0
M  CHG  2   3  -1   9   1
M  END
>  <UniqueID>  (11) 
10

>  <SMILES>  (11) 
O=C([N-]c1ccc(C[NH2+]Cc2ccc(F)cc2)cc1)c1ccc(CN2CCOCC2)cc1

>  <Energy>  (11) 
82.2109147228753

>  <Genealogy>  (11) 
O=C([N-]c1ccc(C[NH2+]Cc2ccc(F)cc2)cc1)c1ccc(CN2CCOCC2)cc1 (protonated)
O=C([N-]c1ccc(C[NH2+]Cc2ccc(F)cc2)cc1)c1ccc(CN2CCOCC2)cc1 (3D coordinates assigned)
O=C([N-]c1ccc(C[NH2+]Cc2ccc(F)cc2)cc1)c1ccc(CN2CCOCC2)cc1 (nonaromatic ring conformer: 82.2109147228753 kcal/mol)

>  <smiles>  (11) 
O=C(Nc1ccc(CNCc2ccc(F)cc2)cc1)c1ccc(CN2CCOCC2)cc1

>  <score_type>  (11) 
oracle

>  <origin>  (11) 
adg

>  <m_score__min__energy>  (11) 
-9.2400000000000002

>  <m_primary>  (11) 
energy

$$$$
11:0
     RDKit          3D

 38 40  0  0  0  0  0  0  0  0999 V2000
   59.6500   35.9850   46.1100 O   0  0  0  0  0  0  0  0  0  0  0  0
   59.7350   34.8670   46.6820 C   0  0  0  0  0  0  0  0  0  0  0  0
   60.5410   34.7580   47.8640 N   0  0  0  0  0  0  0  0  0  0  0  0
   61.6230   33.8380   48.0640 C   0  0  0  0  0  0  0  0  0  0  0  0
   62.7600   33.8330   47.2380 C   0  0  0  0  0  0  0  0  0  0  0  0
   63.7910   32.9230   47.4770 C   0  0  0  0  0  0  0  0  0  0  0  0
   63.6880   32.0400   48.5540 C   0  0  0  0  0  0  0  0  0  0  0  0
   62.5940   32.0720   49.3590 N   0  0  0  0  0  0  0  0  0  0  0  0
   61.5740   32.9480   49.1440 C   0  0  0  0  0  0  0  0  0  0  0  0
   58.9630   33.7200   46.1520 C   0  0  0  0  0  0  0  0  0  0  0  0
   59.5630   32.4520   46.0530 C   0  0  0  0  0  0  0  0  0  0  0  0
   58.8360   31.3630   45.5630 C   0  0  0  0  0  0  0  0  0  0  0  0
   57.5080   31.5310   45.1510 C   0  0  0  0  0  0  0  0  0  0  0  0
   56.5880   30.1700   44.5150 S   0  0  0  0  0  0  0  0  0  0  0  0
   57.1290   29.8080   43.1610 O   0  0  0  0  0  0  0  0  0  0  0  0
   55.1320   30.5230   44.3810 O   0  0  0  0  0  0  0  0  0  0  0  0
   56.7470   28.8060   45.5740 N   0  0  0  0  0  0  0  0  0  0  0  0
   57.9840   28.3030   46.1000 C   0  0  0  0  0  0  0  0  0  0  0  0
   58.4140   28.6080   47.4070 C   0  0  0  0  0  0  0  0  0  0  0  0
   59.6320   28.1130   47.8820 C   0  0  0  0  0  0  0  0  0  0  0  0
   60.4300   27.3080   47.0650 C   0  0  0  0  0  0  0  0  0  0  0  0
   60.0070   26.9920   45.7710 C   0  0  0  0  0  0  0  0  0  0  0  0
   58.7910   27.4860   45.2860 C   0  0  0  0  0  0  0  0  0  0  0  0
   58.2930   27.0750   43.6490 Cl  0  0  0  0  0  0  0  0  0  0  0  0
   56.9120   32.7950   45.2310 C   0  0  0  0  0  0  0  0  0  0  0  0
   57.6360   33.8840   45.7230 C   0  0  0  0  0  0  0  0  0  0  0  0
   62.8374   34.5457   46.4037 H   0  0  0  0  0  0  0  0  0  0  0  0
   64.6757   32.9016   46.8236 H   0  0  0  0  0  0  0  0  0  0  0  0
   64.4938   31.3175   48.7509 H   0  0  0  0  0  0  0  0  0  0  0  0
   60.7076   32.9566   49.8217 H   0  0  0  0  0  0  0  0  0  0  0  0
   60.6097   32.3163   46.3627 H   0  0  0  0  0  0  0  0  0  0  0  0
   59.3083   30.3715   45.5009 H   0  0  0  0  0  0  0  0  0  0  0  0
   57.7885   29.2383   48.0562 H   0  0  0  0  0  0  0  0  0  0  0  0
   59.9632   28.3580   48.9020 H   0  0  0  0  0  0  0  0  0  0  0  0
   61.3900   26.9234   47.4398 H   0  0  0  0  0  0  0  0  0  0  0  0
   60.6326   26.3523   45.1312 H   0  0  0  0  0  0  0  0  0  0  0  0
   55.8702   32.9314   44.9054 H   0  0  0  0  0  0  0  0  0  0  0  0
   57.1635   34.8760   45.7746 H   0  0  0  0  0  0  0  0  0  0  0  0
  1  2  2  0
  2  3  1  0
  3  4  1  0
  4  5  2  0
  5  6  1  0
  6  7  2  0
  7  8  1  0
  8  9  2  0
  2 10  1  0
 10 11  2  0
 11 12  1  0
 12 13  2  0
 13 14  1  0
 14 15  2  0
 14 16  2  0
 14 17  1  0
 17 18  1  0
 18 19  2  0
 19 20  1  0
 20 21  2  0
 21 22  1  0
 22 23  2  0
 23 24  1  0
 13 25  1  0
 25 26  2  0
  9  4  1  0
 26 10  1  0
 23 18  1  0
  5 27  1  0
  6 28  1  0
  7 29  1  0
  9 30  1  0
 11 31  1  0
 12 32  1  0
 19 33  1  0
 20 34  1  0
 21 35  1  0
 22 36  1  0
 25 37  1  0
 26 38  1  0
M  CHG  2   3  -1  17  -1
M  END
>  <UniqueID>  (12) 
11

>  <SMILES>  (12) 
O=C([N-]c1cccnc1)c1ccc(S(=O)(=O)[N-]c2ccccc2Cl)cc1

>  <Energy>  (12) 
52.22039072227324

>  <Genealogy>  (12) 
O=C([N-]c1cccnc1)c1ccc(S(=O)(=O)[N-]c2ccccc2Cl)cc1 (protonated)
O=C([N-]c1cccnc1)c1ccc(S(=O)(=O)[N-]c2ccccc2Cl)cc1 (3D coordinates assigned)
O=C([N-]c1cccnc1)c1ccc(S(=O)(=O)[N-]c2ccccc2Cl)cc1 (optimized conformer: 52.22039072227324 kcal/mol)

>  <smiles>  (12) 
O=C(Nc1cccnc1)c1ccc(S(=O)(=O)Nc2ccccc2Cl)cc1

>  <score_type>  (12) 
oracle

>  <origin>  (12) 
adg

>  <m_score__min__energy>  (12) 
-11

>  <m_primary>  (12) 
energy

$$$$
12:0
     RDKit          3D

 27 29  0  0  0  0  0  0  0  0999 V2000
   56.2920   29.1540   42.2530 O   0  0  0  0  0  0  0  0  0  0  0  0
   56.6560   29.7740   43.4250 N   0  0  0  0  0  0  0  0  0  0  0  0
   56.4860   29.2920   44.6270 O   0  0  0  0  0  0  0  0  0  0  0  0
   56.9310   30.0950   45.5640 N   0  0  0  0  0  0  0  0  0  0  0  0
   57.4150   31.1630   44.8970 C   0  0  0  0  0  0  0  0  0  0  0  0
   58.0110   32.3130   45.4010 C   0  0  0  0  0  0  0  0  0  0  0  0
   58.4360   33.2910   44.4700 C   0  0  0  0  0  0  0  0  0  0  0  0
   59.1240   34.5390   44.9520 C   0  0  0  0  0  0  0  0  0  0  0  0
   59.7520   34.2980   46.2970 C   0  0  0  0  0  0  0  0  0  0  0  0
   61.0640   33.8090   46.3950 C   0  0  0  0  0  0  0  0  0  0  0  0
   61.6470   33.6230   47.6500 C   0  0  0  0  0  0  0  0  0  0  0  0
   60.9170   33.9380   48.7970 C   0  0  0  0  0  0  0  0  0  0  0  0
   59.6520   34.4250   48.6870 N   0  0  0  0  0  0  0  0  0  0  0  0
   59.0610   34.6130   47.4770 C   0  0  0  0  0  0  0  0  0  0  0  0
   58.2620   33.0670   43.0750 C   0  0  0  0  0  0  0  0  0  0  0  0
   57.6530   31.8860   42.6070 C   0  0  0  0  0  0  0  0  0  0  0  0
   57.2450   30.9640   43.5630 C   0  0  0  0  0  0  0  0  0  0  0  0
   55.4860   28.5420   42.2270 H   0  0  0  0  0  0  0  0  0  0  0  0
   58.1473   32.4578   46.4829 H   0  0  0  0  0  0  0  0  0  0  0  0
   59.9050   34.8247   44.2320 H   0  0  0  0  0  0  0  0  0  0  0  0
   58.3825   35.3466   45.0411 H   0  0  0  0  0  0  0  0  0  0  0  0
   61.6326   33.5724   45.4836 H   0  0  0  0  0  0  0  0  0  0  0  0
   62.6717   33.2320   47.7339 H   0  0  0  0  0  0  0  0  0  0  0  0
   61.3652   33.7922   49.7909 H   0  0  0  0  0  0  0  0  0  0  0  0
   58.0379   35.0133   47.4229 H   0  0  0  0  0  0  0  0  0  0  0  0
   58.6066   33.8239   42.3550 H   0  0  0  0  0  0  0  0  0  0  0  0
   57.5070   31.7020   41.5324 H   0  0  0  0  0  0  0  0  0  0  0  0
  1  2  1  0
  2  3  1  0
  3  4  1  0
  4  5  2  0
  5  6  1  0
  6  7  2  0
  7  8  1  0
  8  9  1  0
  9 10  2  0
 10 11  1  0
 11 12  2  0
 12 13  1  0
 13 14  2  0
  7 15  1  0
 15 16  2  0
 16 17  1  0
 17  2  2  0
 17  5  1  0
 14  9  1  0
  1 18  1  0
  6 19  1  0
  8 20  1  0
  8 21  1  0
 10 22  1  0
 11 23  1  0
 12 24  1  0
 14 25  1  0
 15 26  1  0
 16 27  1  0
M  CHG  1   2   1
M  END
>  <UniqueID>  (13) 
12

>  <SMILES>  (13) 
O[n+]1onc2cc(Cc3cccnc3)ccc21

>  <Energy>  (13) 
74.85072782806125

>  <Genealogy>  (13) 
O[n+]1onc2cc(Cc3cccnc3)ccc21 (protonated)
O[n+]1onc2cc(Cc3cccnc3)ccc21 (3D coordinates assigned)
O[n+]1onc2cc(Cc3cccnc3)ccc21 (optimized conformer: 74.85072782806125 kcal/mol)

>  <smiles>  (13) 
[O-][n+]1onc2cc(Cc3cccnc3)ccc21

>  <score_type>  (13) 
oracle

>  <origin>  (13) 
adg

>  <m_score__min__energy>  (13) 
-5.79

>  <m_primary>  (13) 
energy

$$$$
13:0
     RDKit          3D

 69 68  0  0  0  0  0  0  0  0999 V2000
   64.3467   32.7156   51.6926 H   0  0  0  0  0  0  0  0  0  0  0  0
   63.7840   32.5680   50.7590 C   0  0  0  0  0  0  0  0  0  0  0  0
   63.3930   33.6660   50.0800 C   0  0  0  0  0  0  0  0  0  0  0  0
   64.1482   34.1856   49.4720 H   0  0  0  0  0  0  0  0  0  0  0  0
   61.9930   34.2340   50.0940 C   0  0  0  0  0  0  0  0  0  0  0  0
   61.9062   34.9466   50.9275 H   0  0  0  0  0  0  0  0  0  0  0  0
   61.8161   34.7310   49.1288 H   0  0  0  0  0  0  0  0  0  0  0  0
   60.9800   33.1840   50.2590 N   0  0  0  0  0  0  0  0  0  0  0  0
   60.9720   32.6110   49.3800 H   0  0  0  0  0  0  0  0  0  0  0  0
   59.6350   33.7250   50.5230 C   0  0  0  0  0  0  0  0  0  0  0  0
   59.6501   34.2505   51.4892 H   0  0  0  0  0  0  0  0  0  0  0  0
   59.3807   34.4040   49.6958 H   0  0  0  0  0  0  0  0  0  0  0  0
   58.5520   32.6250   50.5750 C   0  0  0  0  0  0  0  0  0  0  0  0
   58.1523   32.5701   51.5984 H   0  0  0  0  0  0  0  0  0  0  0  0
   57.7674   32.8905   49.8512 H   0  0  0  0  0  0  0  0  0  0  0  0
   59.1070   31.2370   50.1830 C   0  0  0  0  0  0  0  0  0  0  0  0
   59.9436   30.9916   50.8537 H   0  0  0  0  0  0  0  0  0  0  0  0
   58.2826   30.5145   50.2746 H   0  0  0  0  0  0  0  0  0  0  0  0
   59.5890   31.1830   48.7910 N   0  0  0  0  0  0  0  0  0  0  0  0
   60.4170   31.8030   48.6090 H   0  0  0  0  0  0  0  0  0  0  0  0
   59.7470   29.8300   48.2300 C   0  0  0  0  0  0  0  0  0  0  0  0
   60.7332   29.7746   47.7460 H   0  0  0  0  0  0  0  0  0  0  0  0
   59.6338   29.1330   49.0734 H   0  0  0  0  0  0  0  0  0  0  0  0
   58.6810   29.4250   47.1910 C   0  0  0  0  0  0  0  0  0  0  0  0
   59.1026   28.6294   46.5591 H   0  0  0  0  0  0  0  0  0  0  0  0
   57.7976   29.1009   47.7608 H   0  0  0  0  0  0  0  0  0  0  0  0
   58.2130   30.5690   46.2740 C   0  0  0  0  0  0  0  0  0  0  0  0
   57.8890   30.1536   45.3084 H   0  0  0  0  0  0  0  0  0  0  0  0
   57.3739   31.0965   46.7511 H   0  0  0  0  0  0  0  0  0  0  0  0
   59.3160   31.5130   46.0530 N   0  0  0  0  0  0  0  0  0  0  0  0
   59.5790   31.9110   46.9860 H   0  0  0  0  0  0  0  0  0  0  0  0
   58.8720   32.6360   45.2140 C   0  0  0  0  0  0  0  0  0  0  0  0
   59.7346   33.2779   44.9818 H   0  0  0  0  0  0  0  0  0  0  0  0
   58.4364   32.2372   44.2860 H   0  0  0  0  0  0  0  0  0  0  0  0
   57.8050   33.4670   45.9490 C   0  0  0  0  0  0  0  0  0  0  0  0
   57.6387   34.3984   45.3878 H   0  0  0  0  0  0  0  0  0  0  0  0
   56.8940   32.8533   46.0075 H   0  0  0  0  0  0  0  0  0  0  0  0
   58.2090   33.8290   47.3920 C   0  0  0  0  0  0  0  0  0  0  0  0
   57.4101   34.4441   47.8319 H   0  0  0  0  0  0  0  0  0  0  0  0
   58.3558   32.8814   47.9310 H   0  0  0  0  0  0  0  0  0  0  0  0
   59.5290   34.6080   47.4890 C   0  0  0  0  0  0  0  0  0  0  0  0
   59.6373   35.2416   46.5963 H   0  0  0  0  0  0  0  0  0  0  0  0
   59.5031   35.2214   48.4017 H   0  0  0  0  0  0  0  0  0  0  0  0
   60.6830   33.6990   47.5740 N   0  0  0  0  0  0  0  0  0  0  0  0
   60.3260   32.7140   47.5540 H   0  0  0  0  0  0  0  0  0  0  0  0
   61.6020   33.8910   46.4400 C   0  0  0  0  0  0  0  0  0  0  0  0
   61.2537   33.2895   45.5874 H   0  0  0  0  0  0  0  0  0  0  0  0
   61.6168   34.9583   46.1743 H   0  0  0  0  0  0  0  0  0  0  0  0
   63.0250   33.4570   46.8140 C   0  0  0  0  0  0  0  0  0  0  0  0
   63.6932   33.6873   45.9711 H   0  0  0  0  0  0  0  0  0  0  0  0
   63.3040   34.0054   47.7258 H   0  0  0  0  0  0  0  0  0  0  0  0
   63.1390   31.9600   47.1310 C   0  0  0  0  0  0  0  0  0  0  0  0
   63.2698   31.4018   46.1922 H   0  0  0  0  0  0  0  0  0  0  0  0
   64.0038   31.8054   47.7930 H   0  0  0  0  0  0  0  0  0  0  0  0
   61.9410   31.4800   47.8090 N   0  0  0  0  0  0  0  0  0  0  0  0
   61.1290   31.6160   47.1620 H   0  0  0  0  0  0  0  0  0  0  0  0
   61.7680   32.0940   48.6380 H   0  0  0  0  0  0  0  0  0  0  0  0
   63.5020   31.1530   50.3250 C   0  0  0  0  0  0  0  0  0  0  0  0
   64.0486   30.4574   50.9788 H   0  0  0  0  0  0  0  0  0  0  0  0
   63.8292   31.0272   49.2824 H   0  0  0  0  0  0  0  0  0  0  0  0
   62.0630   30.8690   50.4110 N   0  0  0  0  0  0  0  0  0  0  0  0
   61.5920   31.2090   49.5390 H   0  0  0  0  0  0  0  0  0  0  0  0
   61.7840   29.4340   50.5930 C   0  0  0  0  0  0  0  0  0  0  0  0
   61.9653   28.9162   49.6396 H   0  0  0  0  0  0  0  0  0  0  0  0
   60.7367   29.3364   50.9149 H   0  0  0  0  0  0  0  0  0  0  0  0
   62.6620   28.7960   51.6720 C   0  0  0  0  0  0  0  0  0  0  0  0
   62.2808   29.0730   52.6660 H   0  0  0  0  0  0  0  0  0  0  0  0
   62.6401   27.7017   51.5628 H   0  0  0  0  0  0  0  0  0  0  0  0
   63.6961   29.1548   51.5628 H   0  0  0  0  0  0  0  0  0  0  0  0
  1  2  1  0
  2  3  2  0
  3  4  1  0
  3  5  1  0
  5  6  1  0
  5  7  1  0
  5  8  1  0
  8  9  1  0
  8 10  1  0
 10 11  1  0
 10 12  1  0
 10 13  1  0
 13 14  1  0
 13 15  1  0
 13 16  1  0
 16 17  1  0
 16 18  1  0
 16 19  1  0
 19 20  1  0
 19 21  1  0
 21 22  1  0
 21 23  1  0
 21 24  1  0
 24 25  1  0
 24 26  1  0
 24 27  1  0
 27 28  1  0
 27 29  1  0
 27 30  1  0
 30 31  1  0
 30 32  1  0
 32 33  1  0
 32 34  1  0
 32 35  1  0
 35 36  1  0
 35 37  1  0
 35 38  1  0
 38 39  1  0
 38 40  1  0
 38 41  1  0
 41 42  1  0
 41 43  1  0
 41 44  1  0
 44 45  1  0
 44 46  1  0
 46 47  1  0
 46 48  1  0
 46 49  1  0
 49 50  1  0
 49 51  1  0
 49 52  1  0
 52 53  1  0
 52 54  1  0
 52 55  1  0
 55 56  1  0
 55 57  1  0
  2 58  1  0
 58 59  1  0
 58 60  1  0
 58 61  1  0
 61 62  1  0
 61 63  1  0
 63 64  1  0
 63 65  1  0
 63 66  1  0
 66 67  1  0
 66 68  1  0
 66 69  1  0
M  END
>  <UniqueID>  (14) 
13

>  <SMILES>  (14) 
CCNC/C=C\CNCCCNCCCNCCCCNCCCN

>  <Energy>  (14) 
51.70755346839054

>  <Genealogy>  (14) 
CCNC/C=C\CNCCCNCCCNCCCCNCCCN (cis-trans isomerization)
CCNC/C=C\CNCCCNCCCNCCCCNCCCN (3D coordinates assigned)
CCNC/C=C\CNCCCNCCCNCCCCNCCCN (optimized conformer: 51.70755346839054 kcal/mol)

>  <smiles>  (14) 
CCNCC=CCNCCCNCCCNCCCCNCCCN

>  <score_type>  (14) 
oracle

>  <origin>  (14) 
adg

>  <m_score__min__energy>  (14) 
-1.74

>  <m_primary>  (14) 
energy

$$$$
14:0
     RDKit          3D

 39 40  0  0  0  0  0  0  0  0999 V2000
   55.1360   29.3260   44.7040 O   0  0  0  0  0  0  0  0  0  0  0  0
   56.1630   28.8050   45.2160 C   0  0  0  0  0  0  0  0  0  0  0  0
   56.1210   27.4730   45.6090 O   0  0  0  0  0  0  0  0  0  0  0  0
   57.4230   29.6240   45.3710 C   0  0  2  0  0  0  0  0  0  0  0  0
   57.9780   30.1750   44.0300 C   0  0  0  0  0  0  0  0  0  0  0  0
   57.1550   31.3080   43.3840 C   0  0  0  0  0  0  0  0  0  0  0  0
   57.9580   32.6120   43.2630 C   0  0  0  0  0  0  0  0  0  0  0  0
   58.2340   33.2330   44.6080 C   0  0  0  0  0  0  0  0  0  0  0  0
   57.4480   32.8990   45.7230 C   0  0  0  0  0  0  0  0  0  0  0  0
   57.7210   33.4640   46.9730 C   0  0  0  0  0  0  0  0  0  0  0  0
   58.7770   34.3690   47.1170 C   0  0  0  0  0  0  0  0  0  0  0  0
   59.5620   34.7080   46.0110 C   0  0  0  0  0  0  0  0  0  0  0  0
   59.2970   34.1380   44.7620 C   0  0  0  0  0  0  0  0  0  0  0  0
   58.4820   28.9450   46.2760 C   0  0  0  0  0  0  0  0  0  0  0  0
   59.4010   29.8840   47.0180 C   0  0  0  0  0  0  0  0  0  0  0  0
   60.6930   30.1520   46.5320 C   0  0  0  0  0  0  0  0  0  0  0  0
   61.5500   31.0030   47.2340 C   0  0  0  0  0  0  0  0  0  0  0  0
   61.1360   31.5780   48.4370 C   0  0  0  0  0  0  0  0  0  0  0  0
   59.8650   31.2980   48.9430 C   0  0  0  0  0  0  0  0  0  0  0  0
   58.9990   30.4570   48.2390 C   0  0  0  0  0  0  0  0  0  0  0  0
   57.1242   30.5271   45.9233 H   0  0  0  0  0  0  0  0  0  0  0  0
   58.9928   30.5569   44.2151 H   0  0  0  0  0  0  0  0  0  0  0  0
   57.9417   29.3346   43.3211 H   0  0  0  0  0  0  0  0  0  0  0  0
   56.8424   30.9898   42.3785 H   0  0  0  0  0  0  0  0  0  0  0  0
   56.2864   31.5049   44.0296 H   0  0  0  0  0  0  0  0  0  0  0  0
   58.9165   32.3941   42.7692 H   0  0  0  0  0  0  0  0  0  0  0  0
   57.3606   33.3252   42.6761 H   0  0  0  0  0  0  0  0  0  0  0  0
   56.6142   32.1901   45.6127 H   0  0  0  0  0  0  0  0  0  0  0  0
   57.1043   33.1961   47.8436 H   0  0  0  0  0  0  0  0  0  0  0  0
   58.9900   34.8141   48.1001 H   0  0  0  0  0  0  0  0  0  0  0  0
   60.3893   35.4242   46.1235 H   0  0  0  0  0  0  0  0  0  0  0  0
   59.9236   34.3994   43.8965 H   0  0  0  0  0  0  0  0  0  0  0  0
   57.9501   28.3334   47.0197 H   0  0  0  0  0  0  0  0  0  0  0  0
   59.1265   28.3622   45.6015 H   0  0  0  0  0  0  0  0  0  0  0  0
   61.0309   29.6887   45.5933 H   0  0  0  0  0  0  0  0  0  0  0  0
   62.5530   31.2205   46.8382 H   0  0  0  0  0  0  0  0  0  0  0  0
   61.8108   32.2513   48.9860 H   0  0  0  0  0  0  0  0  0  0  0  0
   59.5447   31.7404   49.8978 H   0  0  0  0  0  0  0  0  0  0  0  0
   57.9980   30.2418   48.6412 H   0  0  0  0  0  0  0  0  0  0  0  0
  1  2  2  0
  2  3  1  0
  2  4  1  0
  4  5  1  0
  5  6  1  0
  6  7  1  0
  7  8  1  0
  8  9  2  0
  9 10  1  0
 10 11  2  0
 11 12  1  0
 12 13  2  0
  4 14  1  0
 14 15  1  0
 15 16  2  0
 16 17  1  0
 17 18  2  0
 18 19  1  0
 19 20  2  0
 13  8  1  0
 20 15  1  0
  4 21  1  1
  5 22  1  0
  5 23  1  0
  6 24  1  0
  6 25  1  0
  7 26  1  0
  7 27  1  0
  9 28  1  0
 10 29  1  0
 11 30  1  0
 12 31  1  0
 13 32  1  0
 14 33  1  0
 14 34  1  0
 16 35  1  0
 17 36  1  0
 18 37  1  0
 19 38  1  0
 20 39  1  0
M  CHG  1   3  -1
M  END
>  <UniqueID>  (15) 
14

>  <SMILES>  (15) 
O=C([O-])[C@H](CCCc1ccccc1)Cc1ccccc1

>  <Energy>  (15) 
35.87074800154671

>  <Genealogy>  (15) 
O=C([O-])C(CCCc1ccccc1)Cc1ccccc1 (protonated)
O=C([O-])[C@H](CCCc1ccccc1)Cc1ccccc1 (chirality)
O=C([O-])[C@H](CCCc1ccccc1)Cc1ccccc1 (3D coordinates assigned)
O=C([O-])[C@H](CCCc1ccccc1)Cc1ccccc1 (optimized conformer: 35.87074800154671 kcal/mol)

>  <smiles>  (15) 
O=C(O)C(CCCc1ccccc1)Cc1ccccc1

>  <score_type>  (15) 
oracle

>  <origin>  (15) 
adg

>  <m_score__min__energy>  (15) 
-10.07

>  <m_primary>  (15) 
energy

$$$$
15:0
     RDKit          3D

 56 59  0  0  0  0  0  0  0  0999 V2000
   57.9300   28.6280   54.4510 O   0  0  0  0  0  0  0  0  0  0  0  0
   57.1680   29.4610   53.8870 C   0  0  0  0  0  0  0  0  0  0  0  0
   55.8880   29.7250   54.4710 N   0  0  0  0  0  0  0  0  0  0  0  0
   54.7950   28.7580   54.5120 C   0  0  0  0  0  0  0  0  0  0  0  0
   54.2220   28.5440   53.1110 C   0  0  0  0  0  0  0  0  0  0  0  0
   53.2810   29.6550   52.7150 C   0  0  0  0  0  0  0  0  0  0  0  0
   52.2400   30.0430   53.5770 C   0  0  0  0  0  0  0  0  0  0  0  0
   51.3690   31.0750   53.2120 C   0  0  0  0  0  0  0  0  0  0  0  0
   51.5290   31.7260   51.9880 C   0  0  0  0  0  0  0  0  0  0  0  0
   50.6520   32.7400   51.6200 O   0  0  0  0  0  0  0  0  0  0  0  0
   52.5760   31.3590   51.1340 C   0  0  0  0  0  0  0  0  0  0  0  0
   53.4560   30.3350   51.5000 C   0  0  0  0  0  0  0  0  0  0  0  0
   57.6340   30.1720   52.6750 C   0  0  0  0  0  0  0  0  0  0  0  0
   58.8290   29.7850   52.0420 C   0  0  0  0  0  0  0  0  0  0  0  0
   59.2940   30.4770   50.9170 C   0  0  0  0  0  0  0  0  0  0  0  0
   58.5740   31.5760   50.4090 C   0  0  0  0  0  0  0  0  0  0  0  0
   59.0240   32.3080   49.2530 N   0  0  0  0  0  0  0  0  0  0  0  0
   59.6300   33.6370   49.3330 C   0  0  0  0  0  0  0  0  0  0  0  0
   60.9550   33.6650   48.6070 C   0  0  0  0  0  0  0  0  0  0  0  0
   62.1380   33.7560   49.3570 C   0  0  0  0  0  0  0  0  0  0  0  0
   63.3840   33.7670   48.7230 C   0  0  0  0  0  0  0  0  0  0  0  0
   63.4630   33.6980   47.3330 C   0  0  0  0  0  0  0  0  0  0  0  0
   62.2960   33.6310   46.5700 C   0  0  0  0  0  0  0  0  0  0  0  0
   61.0360   33.6260   47.1940 C   0  0  0  0  0  0  0  0  0  0  0  0
   59.8300   33.5390   46.3490 C   0  0  0  0  0  0  0  0  0  0  0  0
   59.2640   34.6990   45.7910 C   0  0  0  0  0  0  0  0  0  0  0  0
   58.1080   34.6100   45.0060 C   0  0  0  0  0  0  0  0  0  0  0  0
   57.5170   33.3640   44.7710 C   0  0  0  0  0  0  0  0  0  0  0  0
   58.0820   32.2070   45.3170 C   0  0  0  0  0  0  0  0  0  0  0  0
   59.2380   32.2910   46.1010 C   0  0  0  0  0  0  0  0  0  0  0  0
   57.3910   31.9690   51.0520 C   0  0  0  0  0  0  0  0  0  0  0  0
   56.9280   31.2800   52.1770 C   0  0  0  0  0  0  0  0  0  0  0  0
   55.1724   27.8003   54.8997 H   0  0  0  0  0  0  0  0  0  0  0  0
   54.0007   29.1439   55.1679 H   0  0  0  0  0  0  0  0  0  0  0  0
   55.0512   28.5054   52.3892 H   0  0  0  0  0  0  0  0  0  0  0  0
   53.6559   27.6009   53.1134 H   0  0  0  0  0  0  0  0  0  0  0  0
   52.1100   29.5327   54.5427 H   0  0  0  0  0  0  0  0  0  0  0  0
   50.5567   31.3739   53.8909 H   0  0  0  0  0  0  0  0  0  0  0  0
   52.7070   31.8773   50.1726 H   0  0  0  0  0  0  0  0  0  0  0  0
   54.2875   30.0621   50.8335 H   0  0  0  0  0  0  0  0  0  0  0  0
   59.4027   28.9321   52.4338 H   0  0  0  0  0  0  0  0  0  0  0  0
   60.2267   30.1606   50.4272 H   0  0  0  0  0  0  0  0  0  0  0  0
   58.9290   31.8580   48.3160 H   0  0  0  0  0  0  0  0  0  0  0  0
   58.9515   34.3714   48.8744 H   0  0  0  0  0  0  0  0  0  0  0  0
   59.8014   33.8842   50.3911 H   0  0  0  0  0  0  0  0  0  0  0  0
   62.0842   33.8193   50.4539 H   0  0  0  0  0  0  0  0  0  0  0  0
   64.3041   33.8302   49.3224 H   0  0  0  0  0  0  0  0  0  0  0  0
   64.4450   33.6964   46.8374 H   0  0  0  0  0  0  0  0  0  0  0  0
   62.3626   33.5818   45.4731 H   0  0  0  0  0  0  0  0  0  0  0  0
   59.7305   35.6787   45.9716 H   0  0  0  0  0  0  0  0  0  0  0  0
   57.6647   35.5194   44.5743 H   0  0  0  0  0  0  0  0  0  0  0  0
   56.6074   33.2942   44.1564 H   0  0  0  0  0  0  0  0  0  0  0  0
   57.6163   31.2282   45.1296 H   0  0  0  0  0  0  0  0  0  0  0  0
   59.6831   31.3780   46.5233 H   0  0  0  0  0  0  0  0  0  0  0  0
   56.8217   32.8280   50.6672 H   0  0  0  0  0  0  0  0  0  0  0  0
   56.0041   31.6078   52.6760 H   0  0  0  0  0  0  0  0  0  0  0  0
  1  2  2  0
  2  3  1  0
  3  4  1  0
  4  5  1  0
  5  6  1  0
  6  7  2  0
  7  8  1  0
  8  9  2  0
  9 10  1  0
  9 11  1  0
 11 12  2  0
  2 13  1  0
 13 14  2  0
 14 15  1  0
 15 16  2  0
 16 17  1  0
 17 18  1  0
 18 19  1  0
 19 20  2  0
 20 21  1  0
 21 22  2  0
 22 23  1  0
 23 24  2  0
 24 25  1  0
 25 26  2  0
 26 27  1  0
 27 28  2  0
 28 29  1  0
 29 30  2  0
 16 31  1  0
 31 32  2  0
 12  6  1  0
 32 13  1  0
 24 19  1  0
 30 25  1  0
  4 33  1  0
  4 34  1  0
  5 35  1  0
  5 36  1  0
  7 37  1  0
  8 38  1  0
 11 39  1  0
 12 40  1  0
 14 41  1  0
 15 42  1  0
 17 43  1  0
 18 44  1  0
 18 45  1  0
 20 46  1  0
 21 47  1  0
 22 48  1  0
 23 49  1  0
 26 50  1  0
 27 51  1  0
 28 52  1  0
 29 53  1  0
 30 54  1  0
 31 55  1  0
 32 56  1  0
M  CHG  2   3  -1  10  -1
M  END
>  <UniqueID>  (16) 
15

>  <SMILES>  (16) 
O=C([N-]CCc1ccc([O-])cc1)c1ccc(NCc2ccccc2-c2ccccc2)cc1

>  <Energy>  (16) 
71.07375956229386

>  <Genealogy>  (16) 
O=C([N-]CCc1ccc([O-])cc1)c1ccc(NCc2ccccc2-c2ccccc2)cc1 (protonated)
O=C([N-]CCc1ccc([O-])cc1)c1ccc(NCc2ccccc2-c2ccccc2)cc1 (3D coordinates assigned)
O=C([N-]CCc1ccc([O-])cc1)c1ccc(NCc2ccccc2-c2ccccc2)cc1 (optimized conformer: 71.07375956229386 kcal/mol)

>  <smiles>  (16) 
O=C(NCCc1ccc(O)cc1)c1ccc(NCc2ccccc2-c2ccccc2)cc1

>  <score_type>  (16) 
oracle

>  <origin>  (16) 
adg

>  <m_score__min__energy>  (16) 
-14.41

>  <m_primary>  (16) 
energy

$$$$
16:0
     RDKit          3D

 57 62  0  0  0  0  0  0  0  0999 V2000
   63.7000   33.2220   47.1840 C   0  0  0  0  0  0  0  0  0  0  0  0
   62.7160   33.7880   46.3670 C   0  0  0  0  0  0  0  0  0  0  0  0
   61.4930   34.1850   46.9150 C   0  0  0  0  0  0  0  0  0  0  0  0
   61.2400   34.0030   48.2850 C   0  0  0  0  0  0  0  0  0  0  0  0
   59.9420   34.4620   48.8830 C   0  0  0  0  0  0  0  0  0  0  0  0
   58.9540   33.4550   48.6850 O   0  0  0  0  0  0  0  0  0  0  0  0
   58.6020   32.9330   47.4330 C   0  0  0  0  0  0  0  0  0  0  0  0
   57.6920   33.5700   46.5550 C   0  0  0  0  0  0  0  0  0  0  0  0
   57.3820   32.9940   45.3020 C   0  0  0  0  0  0  0  0  0  0  0  0
   57.9710   31.7800   44.9080 C   0  0  0  0  0  0  0  0  0  0  0  0
   58.8620   31.1770   45.7970 C   0  0  0  0  0  0  0  0  0  0  0  0
   59.1640   31.7290   47.0080 C   0  0  0  0  0  0  0  0  0  0  0  0
   60.0590   30.9670   47.6630 N   0  0  0  0  0  0  0  0  0  0  0  0
   60.2800   29.9390   46.8030 C   0  0  0  0  0  0  0  0  0  0  0  0
   59.5570   30.0350   45.6590 N   0  0  0  0  0  0  0  0  0  0  0  0
   59.6400   29.1510   44.4960 C   0  0  0  0  0  0  0  0  0  0  0  0
   58.8640   27.8890   44.7560 C   0  0  0  0  0  0  0  0  0  0  0  0
   58.4250   27.5760   46.0520 C   0  0  0  0  0  0  0  0  0  0  0  0
   57.6540   26.4340   46.2790 C   0  0  0  0  0  0  0  0  0  0  0  0
   57.2990   25.5940   45.2100 C   0  0  0  0  0  0  0  0  0  0  0  0
   56.4660   24.3920   45.4450 C   0  0  0  0  0  0  0  0  0  0  0  0
   55.0740   24.5550   45.5540 C   0  0  0  0  0  0  0  0  0  0  0  0
   54.2350   23.4470   45.6760 C   0  0  0  0  0  0  0  0  0  0  0  0
   54.7740   22.1610   45.6830 C   0  0  0  0  0  0  0  0  0  0  0  0
   56.1540   21.9790   45.5880 C   0  0  0  0  0  0  0  0  0  0  0  0
   57.0180   23.0830   45.4910 C   0  0  0  0  0  0  0  0  0  0  0  0
   58.4790   22.8320   45.4760 C   0  0  0  0  0  0  0  0  0  0  0  0
   59.4150   23.7860   45.6440 N   0  0  0  0  0  0  0  0  0  0  0  0
   60.5740   23.1560   45.5170 N   0  0  0  0  0  0  0  0  0  0  0  0
   60.3670   21.8710   45.2690 N   0  0  0  0  0  0  0  0  0  0  0  0
   59.0660   21.6470   45.2360 N   0  0  0  0  0  0  0  0  0  0  0  0
   57.7500   25.9000   43.9170 C   0  0  0  0  0  0  0  0  0  0  0  0
   58.5200   27.0440   43.6900 C   0  0  0  0  0  0  0  0  0  0  0  0
   62.2390   33.4510   49.1030 C   0  0  0  0  0  0  0  0  0  0  0  0
   63.4620   33.0560   48.5510 C   0  0  0  0  0  0  0  0  0  0  0  0
   64.6609   32.9076   46.7507 H   0  0  0  0  0  0  0  0  0  0  0  0
   62.9049   33.9209   45.2915 H   0  0  0  0  0  0  0  0  0  0  0  0
   60.7262   34.6413   46.2717 H   0  0  0  0  0  0  0  0  0  0  0  0
   60.0756   34.6399   49.9603 H   0  0  0  0  0  0  0  0  0  0  0  0
   59.6210   35.3957   48.3981 H   0  0  0  0  0  0  0  0  0  0  0  0
   57.2228   34.5201   46.8502 H   0  0  0  0  0  0  0  0  0  0  0  0
   56.6738   33.5001   44.6294 H   0  0  0  0  0  0  0  0  0  0  0  0
   57.7383   31.3223   43.9352 H   0  0  0  0  0  0  0  0  0  0  0  0
   60.9748   29.1124   47.0129 H   0  0  0  0  0  0  0  0  0  0  0  0
   59.2199   29.6631   43.6178 H   0  0  0  0  0  0  0  0  0  0  0  0
   60.6937   28.8963   44.3091 H   0  0  0  0  0  0  0  0  0  0  0  0
   58.6896   28.2336   46.8931 H   0  0  0  0  0  0  0  0  0  0  0  0
   57.3230   26.1909   47.2995 H   0  0  0  0  0  0  0  0  0  0  0  0
   54.6418   25.5665   45.5430 H   0  0  0  0  0  0  0  0  0  0  0  0
   53.1478   23.5880   45.7667 H   0  0  0  0  0  0  0  0  0  0  0  0
   54.1096   21.2880   45.7636 H   0  0  0  0  0  0  0  0  0  0  0  0
   56.5700   20.9607   45.5890 H   0  0  0  0  0  0  0  0  0  0  0  0
   58.6210   20.7270   45.0220 H   0  0  0  0  0  0  0  0  0  0  0  0
   57.4962   25.2359   43.0776 H   0  0  0  0  0  0  0  0  0  0  0  0
   58.8579   27.2831   42.6709 H   0  0  0  0  0  0  0  0  0  0  0  0
   62.0592   33.3288   50.1813 H   0  0  0  0  0  0  0  0  0  0  0  0
   64.2376   32.6141   49.1938 H   0  0  0  0  0  0  0  0  0  0  0  0
  1  2  2  0
  2  3  1  0
  3  4  2  0
  4  5  1  0
  5  6  1  0
  6  7  1  0
  7  8  2  0
  8  9  1  0
  9 10  2  0
 10 11  1  0
 11 12  2  0
 12 13  1  0
 13 14  2  0
 14 15  1  0
 15 16  1  0
 16 17  1  0
 17 18  2  0
 18 19  1  0
 19 20  2  0
 20 21  1  0
 21 22  2  0
 22 23  1  0
 23 24  2  0
 24 25  1  0
 25 26  2  0
 26 27  1  0
 27 28  2  0
 28 29  1  0
 29 30  1  0
 30 31  2  0
 20 32  1  0
 32 33  2  0
  4 34  1  0
 34 35  2  0
 35  1  1  0
 12  7  1  0
 33 17  1  0
 15 11  1  0
 26 21  1  0
 31 27  1  0
  1 36  1  0
  2 37  1  0
  3 38  1  0
  5 39  1  0
  5 40  1  0
  8 41  1  0
  9 42  1  0
 10 43  1  0
 14 44  1  0
 16 45  1  0
 16 46  1  0
 18 47  1  0
 19 48  1  0
 22 49  1  0
 23 50  1  0
 24 51  1  0
 25 52  1  0
 31 53  1  0
 32 54  1  0
 33 55  1  0
 34 56  1  0
 35 57  1  0
M  CHG  2  29  -1  31   1
M  END
>  <UniqueID>  (17) 
16

>  <SMILES>  (17) 
c1ccc(COc2cccc3c2ncn3Cc2ccc(-c3ccccc3-c3n[n-]n[nH+]3)cc2)cc1

>  <Energy>  (17) 
150.19308638474237

>  <Genealogy>  (17) 
c1ccc(COc2cccc3c2ncn3Cc2ccc(-c3ccccc3-c3n[n-]n[nH+]3)cc2)cc1 (protonated)
c1ccc(COc2cccc3c2ncn3Cc2ccc(-c3ccccc3-c3n[n-]n[nH+]3)cc2)cc1 (3D coordinates assigned)
c1ccc(COc2cccc3c2ncn3Cc2ccc(-c3ccccc3-c3n[n-]n[nH+]3)cc2)cc1 (optimized conformer: 150.19308638474237 kcal/mol)

>  <smiles>  (17) 
c1ccc(COc2cccc3c2ncn3Cc2ccc(-c3ccccc3-c3nn[nH]n3)cc2)cc1

>  <score_type>  (17) 
oracle

>  <origin>  (17) 
adg

>  <m_score__min__energy>  (17) 
-10.449999999999999

>  <m_primary>  (17) 
energy

$$$$
17:0
     RDKit          3D

 38 40  0  0  1  0  0  0  0  0999 V2000
   58.1610   33.0190   47.8570 C   0  0  0  0  0  0  0  0  0  0  0  0
   58.1400   32.9780   46.3680 C   0  0  0  0  0  0  0  0  0  0  0  0
   58.8030   33.9060   45.5940 C   0  0  0  0  0  0  0  0  0  0  0  0
   58.7450   33.7990   44.2520 N   0  0  0  0  0  0  0  0  0  0  0  0
   58.0380   32.7820   43.6860 C   0  0  0  0  0  0  0  0  0  0  0  0
   57.9710   32.6440   42.3370 N   0  0  0  0  0  0  0  0  0  0  0  0
   57.2850   31.6450   41.7820 C   0  0  0  0  0  0  0  0  0  0  0  0
   56.6480   30.7570   42.5700 N   0  0  0  0  0  0  0  0  0  0  0  0
   56.6690   30.8290   43.9210 C   0  0  0  0  0  0  0  0  0  0  0  0
   56.0570   29.9770   44.6720 N   0  0  0  0  0  0  0  0  0  0  0  0
   56.6460   28.8070   45.2150 C   0  0  0  0  0  0  0  0  0  0  0  0
   58.0120   28.5930   44.5880 C   0  0  0  0  0  0  0  0  0  0  0  0
   58.9820   27.9330   45.3780 N   0  0  0  0  0  0  0  0  0  0  0  0
   58.6670   28.0860   46.8200 C   0  0  0  0  0  0  0  0  0  0  0  0
   58.9900   29.4030   47.3950 C   0  0  0  0  0  0  0  0  0  0  0  0
   59.5370   30.2390   46.4330 O   0  0  0  0  0  0  0  0  0  0  0  0
   60.6940   29.6210   45.9790 C   0  0  0  0  0  0  0  0  0  0  0  0
   60.3520   28.3480   45.2190 C   0  0  0  0  0  0  0  0  0  0  0  0
   57.3870   31.8730   44.4880 C   0  0  0  0  0  0  0  0  0  0  0  0
   57.4460   31.9830   45.7950 N   0  0  0  0  0  0  0  0  0  0  0  0
   57.6936   32.1065   48.2556 H   0  0  0  0  0  0  0  0  0  0  0  0
   59.2018   33.0810   48.2075 H   0  0  0  0  0  0  0  0  0  0  0  0
   57.6031   33.8998   48.2075 H   0  0  0  0  0  0  0  0  0  0  0  0
   59.3711   34.7219   46.0648 H   0  0  0  0  0  0  0  0  0  0  0  0
   57.2392   31.5462   40.6874 H   0  0  0  0  0  0  0  0  0  0  0  0
   56.1020   29.9610   42.1460 H   0  0  0  0  0  0  0  0  0  0  0  0
   56.7557   28.9225   46.3034 H   0  0  0  0  0  0  0  0  0  0  0  0
   56.0039   27.9395   45.0023 H   0  0  0  0  0  0  0  0  0  0  0  0
   57.8685   27.9994   43.6731 H   0  0  0  0  0  0  0  0  0  0  0  0
   58.4143   29.6037   44.4247 H   0  0  0  0  0  0  0  0  0  0  0  0
   57.5892   27.9112   46.9535 H   0  0  0  0  0  0  0  0  0  0  0  0
   59.2986   27.3578   47.3499 H   0  0  0  0  0  0  0  0  0  0  0  0
   58.0703   29.8599   47.7892 H   0  0  0  0  0  0  0  0  0  0  0  0
   59.7249   29.2651   48.2018 H   0  0  0  0  0  0  0  0  0  0  0  0
   61.2337   30.3082   45.3108 H   0  0  0  0  0  0  0  0  0  0  0  0
   61.3232   29.3624   46.8434 H   0  0  0  0  0  0  0  0  0  0  0  0
   60.5415   28.5199   44.1492 H   0  0  0  0  0  0  0  0  0  0  0  0
   60.9823   27.5464   45.6315 H   0  0  0  0  0  0  0  0  0  0  0  0
  1  2  1  0
  2  3  2  0
  3  4  1  0
  4  5  2  0
  5  6  1  0
  6  7  2  0
  7  8  1  0
  8  9  1  0
  9 10  2  0
 10 11  1  0
 11 12  1  0
 12 13  1  0
 13 14  1  0
 14 15  1  0
 15 16  1  0
 16 17  1  0
 17 18  1  0
  9 19  1  0
 19 20  2  0
 20  2  1  0
 19  5  1  0
 18 13  1  0
  1 21  1  0
  1 22  1  0
  1 23  1  0
  3 24  1  0
  7 25  1  0
  8 26  1  0
 11 27  1  0
 11 28  1  0
 12 29  1  0
 12 30  1  0
 14 31  1  0
 14 32  1  0
 15 33  1  0
 15 34  1  0
 17 35  1  0
 17 36  1  0
 18 37  1  0
 18 38  1  0
M  END
>  <smiles>  (18) 
Cc1cnc2nc[nH]c(=NCCN3CCOCC3)c2n1

>  <score_type>  (18) 
oracle

>  <origin>  (18) 
adg

>  <m_score__min__energy>  (18) 
-6.1500000000000004

>  <m_primary>  (18) 
energy

$$$$
18:0
     RDKit          3D

 38 40  0  0  0  0  0  0  0  0999 V2000
   53.5520   25.1000   45.6370 O   0  0  0  0  0  0  0  0  0  0  0  0
   54.7740   25.4040   45.6450 C   0  0  0  0  0  0  0  0  0  0  0  0
   55.1400   26.7150   45.9280 O   0  0  0  0  0  0  0  0  0  0  0  0
   55.7980   24.3900   45.2970 C   0  0  0  0  0  0  0  0  0  0  0  0
   55.3640   23.1080   44.9070 C   0  0  0  0  0  0  0  0  0  0  0  0
   56.2780   22.1440   44.4810 C   0  0  0  0  0  0  0  0  0  0  0  0
   57.6390   22.4410   44.4390 C   0  0  0  0  0  0  0  0  0  0  0  0
   58.0930   23.6970   44.8400 C   0  0  0  0  0  0  0  0  0  0  0  0
   57.1900   24.6790   45.2860 C   0  0  0  0  0  0  0  0  0  0  0  0
   57.7430   25.9510   45.8010 C   0  0  0  0  0  0  0  0  0  0  0  0
   58.4830   25.9440   46.8220 O   0  0  0  0  0  0  0  0  0  0  0  0
   57.4720   27.1860   45.1200 N   0  0  0  0  0  0  0  0  0  0  0  0
   58.0320   28.4310   45.5580 C   0  0  0  0  0  0  0  0  0  0  0  0
   58.9850   28.4170   46.5860 C   0  0  0  0  0  0  0  0  0  0  0  0
   59.5680   29.6060   47.0280 C   0  0  0  0  0  0  0  0  0  0  0  0
   59.2020   30.8240   46.4520 C   0  0  0  0  0  0  0  0  0  0  0  0
   58.2430   30.8560   45.4290 C   0  0  0  0  0  0  0  0  0  0  0  0
   57.6400   29.6640   44.9870 C   0  0  0  0  0  0  0  0  0  0  0  0
   56.5060   29.7890   43.9950 C   0  0  0  0  0  0  0  0  0  0  0  0
   56.8700   30.7540   42.8530 C   0  0  0  0  0  0  0  0  0  0  0  0
   57.6520   32.0180   43.3000 C   0  0  0  0  0  0  0  0  0  0  0  0
   57.7990   32.1610   44.8230 C   0  0  0  0  0  0  0  0  0  0  0  0
   54.2919   22.8641   44.9387 H   0  0  0  0  0  0  0  0  0  0  0  0
   55.9238   21.1477   44.1777 H   0  0  0  0  0  0  0  0  0  0  0  0
   58.3560   21.6837   44.0891 H   0  0  0  0  0  0  0  0  0  0  0  0
   59.1692   23.9224   44.8072 H   0  0  0  0  0  0  0  0  0  0  0  0
   56.6750   27.2190   44.4450 H   0  0  0  0  0  0  0  0  0  0  0  0
   59.2756   27.4619   47.0479 H   0  0  0  0  0  0  0  0  0  0  0  0
   60.3179   29.5832   47.8324 H   0  0  0  0  0  0  0  0  0  0  0  0
   59.6658   31.7586   46.8005 H   0  0  0  0  0  0  0  0  0  0  0  0
   56.2888   28.7973   43.5714 H   0  0  0  0  0  0  0  0  0  0  0  0
   55.6256   30.1873   44.5205 H   0  0  0  0  0  0  0  0  0  0  0  0
   57.4883   30.2073   42.1258 H   0  0  0  0  0  0  0  0  0  0  0  0
   55.9188   31.1092   42.4298 H   0  0  0  0  0  0  0  0  0  0  0  0
   58.6587   31.9751   42.8586 H   0  0  0  0  0  0  0  0  0  0  0  0
   57.0726   32.8870   42.9550 H   0  0  0  0  0  0  0  0  0  0  0  0
   58.5465   32.9370   45.0443 H   0  0  0  0  0  0  0  0  0  0  0  0
   56.8260   32.4425   45.2520 H   0  0  0  0  0  0  0  0  0  0  0  0
  1  2  2  0
  2  3  1  0
  2  4  1  0
  4  5  2  0
  5  6  1  0
  6  7  2  0
  7  8  1  0
  8  9  2  0
  9 10  1  0
 10 11  2  0
 10 12  1  0
 12 13  1  0
 13 14  2  0
 14 15  1  0
 15 16  2  0
 16 17  1  0
 17 18  2  0
 18 19  1  0
 19 20  1  0
 20 21  1  0
 21 22  1  0
  9  4  1  0
 18 13  1  0
 22 17  1  0
  5 23  1  0
  6 24  1  0
  7 25  1  0
  8 26  1  0
 12 27  1  0
 14 28  1  0
 15 29  1  0
 16 30  1  0
 19 31  1  0
 19 32  1  0
 20 33  1  0
 20 34  1  0
 21 35  1  0
 21 36  1  0
 22 37  1  0
 22 38  1  0
M  CHG  1   3  -1
M  END
>  <UniqueID>  (19) 
17

>  <SMILES>  (19) 
O=C([O-])c1ccccc1C(=O)Nc1cccc2c1CCCC2

>  <Energy>  (19) 
60.0027772420688

>  <Genealogy>  (19) 
O=C([O-])c1ccccc1C(=O)Nc1cccc2c1CCCC2 (protonated)
O=C([O-])c1ccccc1C(=O)Nc1cccc2c1CCCC2 (3D coordinates assigned)
O=C([O-])c1ccccc1C(=O)Nc1cccc2c1CCCC2 (nonaromatic ring conformer: 60.0027772420688 kcal/mol)

>  <smiles>  (19) 
O=C(O)c1ccccc1C(=O)Nc1cccc2c1CCCC2

>  <score_type>  (19) 
oracle

>  <origin>  (19) 
adg

>  <m_score__min__energy>  (19) 
-11.07

>  <m_primary>  (19) 
energy

$$$$
19:0
     RDKit          3D

 21 22  0  0  0  0  0  0  0  0999 V2000
   55.1400   26.3360   46.8890 H   0  0  0  0  0  0  0  0  0  0  0  0
   55.2540   26.7050   45.9530 O   0  0  0  0  0  0  0  0  0  0  0  0
   56.3440   27.5060   45.6250 C   0  0  0  0  0  0  0  0  0  0  0  0
   56.1780   28.7540   45.1100 N   0  0  0  0  0  0  0  0  0  0  0  0
   57.3710   29.3420   44.8700 C   0  0  0  0  0  0  0  0  0  0  0  0
   57.5110   30.6540   44.3300 N   0  0  0  0  0  0  0  0  0  0  0  0
   57.0010   31.6610   44.9150 N   0  0  0  0  0  0  0  0  0  0  0  0
   57.7990   32.7530   45.3870 C   0  0  0  0  0  0  0  0  0  0  0  0
   58.4160   33.6570   44.5000 C   0  0  0  0  0  0  0  0  0  0  0  0
   58.2909   33.5325   43.4143 H   0  0  0  0  0  0  0  0  0  0  0  0
   59.1870   34.7120   44.9970 C   0  0  0  0  0  0  0  0  0  0  0  0
   59.6666   35.4164   44.3014 H   0  0  0  0  0  0  0  0  0  0  0  0
   59.3500   34.8740   46.3770 C   0  0  0  0  0  0  0  0  0  0  0  0
   59.9582   35.7039   46.7660 H   0  0  0  0  0  0  0  0  0  0  0  0
   58.7390   33.9800   47.2610 C   0  0  0  0  0  0  0  0  0  0  0  0
   58.8658   34.1083   48.3461 H   0  0  0  0  0  0  0  0  0  0  0  0
   57.9670   32.9230   46.7690 C   0  0  0  0  0  0  0  0  0  0  0  0
   57.4893   32.2217   47.4690 H   0  0  0  0  0  0  0  0  0  0  0  0
   58.6610   28.3510   45.2810 S   0  0  0  0  0  0  0  0  0  0  0  0
   57.6630   27.0960   45.7960 C   0  0  0  0  0  0  0  0  0  0  0  0
   57.9942   26.1262   46.1958 H   0  0  0  0  0  0  0  0  0  0  0  0
  1  2  1  0
  2  3  1  0
  3  4  1  0
  4  5  2  0
  5  6  1  0
  6  7  2  0
  7  8  1  0
  8  9  2  0
  9 10  1  0
  9 11  1  0
 11 12  1  0
 11 13  2  0
 13 14  1  0
 13 15  1  0
 15 16  1  0
 15 17  2  0
 17 18  1  0
  5 19  1  0
 19 20  1  0
 20 21  1  0
 20  3  2  0
 17  8  1  0
M  END
>  <UniqueID>  (20) 
18

>  <SMILES>  (20) 
Oc1csc(/N=N/c2ccccc2)n1

>  <Energy>  (20) 
50.197408791584024

>  <Genealogy>  (20) 
Oc1csc(/N=N/c2ccccc2)n1 (cis-trans isomerization)
Oc1csc(/N=N/c2ccccc2)n1 (3D coordinates assigned)
Oc1csc(/N=N/c2ccccc2)n1 (optimized conformer: 50.197408791584024 kcal/mol)

>  <smiles>  (20) 
Oc1csc(N=Nc2ccccc2)n1

>  <score_type>  (20) 
oracle

>  <origin>  (20) 
adg

>  <m_score__min__energy>  (20) 
-7.2300000000000004

>  <m_primary>  (20) 
energy

$$$$
20:0
     RDKit          3D

 52 54  0  0  0  0  0  0  0  0999 V2000
   64.4330   31.7560   49.1810 O   0  0  0  0  0  0  0  0  0  0  0  0
   63.2920   32.0480   48.7330 C   0  0  0  0  0  0  0  0  0  0  0  0
   63.1490   33.0450   47.7750 C   0  0  0  0  0  0  0  0  0  0  0  0
   61.8710   33.3400   47.3060 C   0  0  0  0  0  0  0  0  0  0  0  0
   60.7760   32.6740   47.7900 N   0  0  0  0  0  0  0  0  0  0  0  0
   59.4340   32.9720   47.2490 C   0  0  1  0  0  0  0  0  0  0  0  0
   59.2670   34.3610   47.0540 O   0  0  0  0  0  0  0  0  0  0  0  0
   58.5490   34.5520   45.8500 C   0  0  1  0  0  0  0  0  0  0  0  0
   59.3780   35.4360   44.9050 C   0  0  0  0  0  0  0  0  0  0  0  0
   60.0250   36.4500   45.6280 O   0  0  0  0  0  0  0  0  0  0  0  0
   58.2350   33.1840   45.2160 C   0  0  2  0  0  0  0  0  0  0  0  0
   56.7480   32.8030   45.3980 C   0  0  0  0  0  0  0  0  0  0  0  0
   56.4540   31.5880   44.7680 O   0  0  0  0  0  0  0  0  0  0  0  0
   59.2180   32.2650   45.9200 C   0  0  2  0  0  0  0  0  0  0  0  0
   58.7110   30.9580   46.1370 O   0  0  0  0  0  0  0  0  0  0  0  0
   59.4420   29.9570   45.4390 C   0  0  2  0  0  0  0  0  0  0  0  0
   58.9030   29.7740   44.1400 O   0  0  0  0  0  0  0  0  0  0  0  0
   57.6610   29.0710   44.0730 C   0  0  1  0  0  0  0  0  0  0  0  0
   57.8170   27.8740   43.1190 C   0  0  0  0  0  0  0  0  0  0  0  0
   57.9270   26.6740   43.8320 O   0  0  0  0  0  0  0  0  0  0  0  0
   57.0050   28.7030   45.4400 C   0  0  1  0  0  0  0  0  0  0  0  0
   55.9030   27.8500   45.2470 O   0  0  0  0  0  0  0  0  0  0  0  0
   58.0100   28.0960   46.4480 C   0  0  1  0  0  0  0  0  0  0  0  0
   58.0110   26.6930   46.3480 O   0  0  0  0  0  0  0  0  0  0  0  0
   59.4430   28.6440   46.2460 C   0  0  2  0  0  0  0  0  0  0  0  0
   60.0480   28.8450   47.4990 O   0  0  0  0  0  0  0  0  0  0  0  0
   60.9550   31.6780   48.7200 C   0  0  0  0  0  0  0  0  0  0  0  0
   59.9730   31.0180   49.1550 O   0  0  0  0  0  0  0  0  0  0  0  0
   62.1990   31.3840   49.1810 N   0  0  0  0  0  0  0  0  0  0  0  0
   64.0263   33.5893   47.3954 H   0  0  0  0  0  0  0  0  0  0  0  0
   61.7395   34.1166   46.5382 H   0  0  0  0  0  0  0  0  0  0  0  0
   58.6976   32.6122   47.9827 H   0  0  0  0  0  0  0  0  0  0  0  0
   57.5937   35.0597   46.0489 H   0  0  0  0  0  0  0  0  0  0  0  0
   60.1310   34.8164   44.3960 H   0  0  0  0  0  0  0  0  0  0  0  0
   58.7065   35.8969   44.1656 H   0  0  0  0  0  0  0  0  0  0  0  0
   59.6900   36.3940   46.5600 H   0  0  0  0  0  0  0  0  0  0  0  0
   58.3569   33.1437   44.1235 H   0  0  0  0  0  0  0  0  0  0  0  0
   56.5303   32.7115   46.4724 H   0  0  0  0  0  0  0  0  0  0  0  0
   56.1294   33.5897   44.9415 H   0  0  0  0  0  0  0  0  0  0  0  0
   57.3260   31.1960   44.5060 H   0  0  0  0  0  0  0  0  0  0  0  0
   60.1296   32.1079   45.3247 H   0  0  0  0  0  0  0  0  0  0  0  0
   60.4868   30.2813   45.3239 H   0  0  0  0  0  0  0  0  0  0  0  0
   56.9198   29.7739   43.6649 H   0  0  0  0  0  0  0  0  0  0  0  0
   56.9372   27.8218   42.4608 H   0  0  0  0  0  0  0  0  0  0  0  0
   58.7336   28.0150   42.5275 H   0  0  0  0  0  0  0  0  0  0  0  0
   57.0010   26.4050   44.0700 H   0  0  0  0  0  0  0  0  0  0  0  0
   56.6514   29.6441   45.8865 H   0  0  0  0  0  0  0  0  0  0  0  0
   56.2680   26.9430   45.0730 H   0  0  0  0  0  0  0  0  0  0  0  0
   57.6825   28.3925   47.4554 H   0  0  0  0  0  0  0  0  0  0  0  0
   57.5960   26.4690   45.4740 H   0  0  0  0  0  0  0  0  0  0  0  0
   60.0169   27.9031   45.6700 H   0  0  0  0  0  0  0  0  0  0  0  0
   59.9270   29.8030   47.7310 H   0  0  0  0  0  0  0  0  0  0  0  0
  1  2  2  0
  2  3  1  0
  3  4  2  0
  4  5  1  0
  5  6  1  0
  6  7  1  0
  7  8  1  0
  8  9  1  0
  9 10  1  0
  8 11  1  0
 11 12  1  0
 12 13  1  0
 11 14  1  0
 14 15  1  0
 15 16  1  0
 16 17  1  0
 17 18  1  0
 18 19  1  0
 19 20  1  0
 18 21  1  0
 21 22  1  0
 21 23  1  0
 23 24  1  0
 23 25  1  0
 25 26  1  0
  5 27  1  0
 27 28  2  0
 27 29  1  0
 29  2  1  0
 14  6  1  0
 25 16  1  0
  3 30  1  0
  4 31  1  0
  6 32  1  1
  8 33  1  1
  9 34  1  0
  9 35  1  0
 10 36  1  0
 11 37  1  6
 12 38  1  0
 12 39  1  0
 13 40  1  0
 14 41  1  6
 16 42  1  6
 18 43  1  6
 19 44  1  0
 19 45  1  0
 20 46  1  0
 21 47  1  1
 22 48  1  0
 23 49  1  1
 24 50  1  0
 25 51  1  6
 26 52  1  0
M  CHG  1  29  -1
M  END
>  <UniqueID>  (21) 
19

>  <SMILES>  (21) 
O=c1ccn([C@H]2O[C@@H](CO)C(CO)C2OC2OC(CO)C(O)C(O)C2O)c(=O)[n-]1

>  <Energy>  (21) 
74.28515843511852

>  <Genealogy>  (21) 
O=c1ccn(C2OC(CO)C(CO)C2OC2OC(CO)C(O)C(O)C2O)c(=O)[n-]1 (protonated)
O=c1ccn([C@H]2O[C@@H](CO)C(CO)C2OC2OC(CO)C(O)C(O)C2O)c(=O)[n-]1 (chirality)
O=c1ccn([C@H]2O[C@@H](CO)C(CO)C2OC2OC(CO)C(O)C(O)C2O)c(=O)[n-]1 (3D coordinates assigned)
O=c1ccn([C@H]2O[C@@H](CO)C(CO)C2OC2OC(CO)C(O)C(O)C2O)c(=O)[n-]1 (nonaromatic ring conformer: 74.28515843511852 kcal/mol)

>  <smiles>  (21) 
O=c1ccn(C2OC(CO)C(CO)C2OC2OC(CO)C(O)C(O)C2O)c(=O)[nH]1

>  <score_type>  (21) 
oracle

>  <origin>  (21) 
adg

>  <m_score__min__energy>  (21) 
-6.1500000000000004

>  <m_primary>  (21) 
energy

$$$$
21:0
     RDKit          3D

 42 45  0  0  0  0  0  0  0  0999 V2000
   59.1160   26.6050   45.9620 Br  0  0  0  0  0  0  0  0  0  0  0  0
   58.3080   28.1580   45.2040 C   0  0  0  0  0  0  0  0  0  0  0  0
   57.4750   28.1120   44.0940 C   0  0  0  0  0  0  0  0  0  0  0  0
   56.9760   29.6820   43.7500 S   0  0  0  0  0  0  0  0  0  0  0  0
   57.8140   30.4210   45.0050 C   0  0  0  0  0  0  0  0  0  0  0  0
   57.8100   31.8590   45.2940 C   0  0  0  0  0  0  0  0  0  0  0  0
   58.9150   32.5530   45.6380 N   0  0  0  0  0  0  0  0  0  0  0  0
   58.4440   33.8040   45.8080 C   0  0  0  0  0  0  0  0  0  0  0  0
   59.2950   34.9790   46.2160 C   0  0  0  0  0  0  0  0  0  0  0  0
   60.4540   34.6020   47.0520 N   0  0  0  0  0  0  0  0  0  0  0  0
   61.4460   33.7800   46.3410 C   0  0  0  0  0  0  0  0  0  0  0  0
   62.7540   33.8170   47.1270 C   0  0  0  0  0  0  0  0  0  0  0  0
   62.5170   33.5790   48.5580 N   0  0  0  0  0  0  0  0  0  0  0  0
   63.6510   33.4670   49.4430 C   0  0  0  0  0  0  0  0  0  0  0  0
   63.5880   33.9750   50.7530 C   0  0  0  0  0  0  0  0  0  0  0  0
   64.6910   33.8470   51.5970 C   0  0  0  0  0  0  0  0  0  0  0  0
   65.8460   33.2150   51.1380 C   0  0  0  0  0  0  0  0  0  0  0  0
   65.8800   32.7200   49.8340 C   0  0  0  0  0  0  0  0  0  0  0  0
   64.7960   32.8510   49.0200 N   0  0  0  0  0  0  0  0  0  0  0  0
   61.1760   33.1910   49.0250 C   0  0  0  0  0  0  0  0  0  0  0  0
   60.0640   34.0350   48.3630 C   0  0  0  0  0  0  0  0  0  0  0  0
   57.0890   33.8250   45.5610 C   0  0  0  0  0  0  0  0  0  0  0  0
   56.7300   32.6060   45.2460 O   0  0  0  0  0  0  0  0  0  0  0  0
   58.5010   29.4460   45.7180 C   0  0  0  0  0  0  0  0  0  0  0  0
   57.1908   27.2072   43.5367 H   0  0  0  0  0  0  0  0  0  0  0  0
   59.6672   35.4726   45.3062 H   0  0  0  0  0  0  0  0  0  0  0  0
   58.6613   35.6446   46.8205 H   0  0  0  0  0  0  0  0  0  0  0  0
   61.0857   32.7433   46.2678 H   0  0  0  0  0  0  0  0  0  0  0  0
   61.6039   34.1720   45.3254 H   0  0  0  0  0  0  0  0  0  0  0  0
   63.4281   33.0387   46.7399 H   0  0  0  0  0  0  0  0  0  0  0  0
   63.2057   34.8129   47.0080 H   0  0  0  0  0  0  0  0  0  0  0  0
   62.6733   34.4708   51.1102 H   0  0  0  0  0  0  0  0  0  0  0  0
   64.6498   34.2436   52.6222 H   0  0  0  0  0  0  0  0  0  0  0  0
   66.7205   33.1079   51.7966 H   0  0  0  0  0  0  0  0  0  0  0  0
   66.7870   32.2214   49.4615 H   0  0  0  0  0  0  0  0  0  0  0  0
   64.8670   32.4870   48.0450 H   0  0  0  0  0  0  0  0  0  0  0  0
   61.0088   32.1311   48.7827 H   0  0  0  0  0  0  0  0  0  0  0  0
   61.1319   33.3637   50.1105 H   0  0  0  0  0  0  0  0  0  0  0  0
   59.1815   33.3949   48.2168 H   0  0  0  0  0  0  0  0  0  0  0  0
   59.8584   34.8823   49.0336 H   0  0  0  0  0  0  0  0  0  0  0  0
   56.4301   34.7039   45.6179 H   0  0  0  0  0  0  0  0  0  0  0  0
   59.1301   29.6632   46.5938 H   0  0  0  0  0  0  0  0  0  0  0  0
  1  2  1  0
  2  3  2  0
  3  4  1  0
  4  5  1  0
  5  6  1  0
  6  7  2  0
  7  8  1  0
  8  9  1  0
  9 10  1  0
 10 11  1  0
 11 12  1  0
 12 13  1  0
 13 14  1  0
 14 15  2  0
 15 16  1  0
 16 17  2  0
 17 18  1  0
 18 19  2  0
 13 20  1  0
 20 21  1  0
  8 22  2  0
 22 23  1  0
  5 24  2  0
 24  2  1  0
 23  6  1  0
 21 10  1  0
 19 14  1  0
  3 25  1  0
  9 26  1  0
  9 27  1  0
 11 28  1  0
 11 29  1  0
 12 30  1  0
 12 31  1  0
 15 32  1  0
 16 33  1  0
 17 34  1  0
 18 35  1  0
 19 36  1  0
 20 37  1  0
 20 38  1  0
 21 39  1  0
 21 40  1  0
 22 41  1  0
 24 42  1  0
M  CHG  1  19   1
M  END
>  <UniqueID>  (22) 
20

>  <SMILES>  (22) 
Brc1csc(-c2nc(CN3CCN(c4cccc[nH+]4)CC3)co2)c1

>  <Energy>  (22) 
110.4052711248214

>  <Genealogy>  (22) 
Brc1csc(-c2nc(CN3CCN(c4cccc[nH+]4)CC3)co2)c1 (protonated)
Brc1csc(-c2nc(CN3CCN(c4cccc[nH+]4)CC3)co2)c1 (3D coordinates assigned)
Brc1csc(-c2nc(CN3CCN(c4cccc[nH+]4)CC3)co2)c1 (nonaromatic ring conformer: 110.4052711248214 kcal/mol)

>  <smiles>  (22) 
Brc1csc(-c2nc(CN3CCN(c4ccccn4)CC3)co2)c1

>  <score_type>  (22) 
oracle

>  <origin>  (22) 
adg

>  <m_score__min__energy>  (22) 
-6.7599999999999998

>  <m_primary>  (22) 
energy

$$$$
22:0
     RDKit          3D

 30 32  0  0  0  0  0  0  0  0999 V2000
   55.7720   27.2000   45.6650 O   0  0  0  0  0  0  0  0  0  0  0  0
   56.2740   28.2650   45.2510 N   0  0  0  0  0  0  0  0  0  0  0  0
   55.4460   29.3390   45.0200 O   0  0  0  0  0  0  0  0  0  0  0  0
   57.7020   28.4280   45.1790 C   0  0  0  0  0  0  0  0  0  0  0  0
   58.5370   27.4690   45.7760 C   0  0  0  0  0  0  0  0  0  0  0  0
   59.9240   27.5950   45.7010 C   0  0  0  0  0  0  0  0  0  0  0  0
   60.4760   28.6850   45.0320 C   0  0  0  0  0  0  0  0  0  0  0  0
   59.6640   29.6200   44.4730 N   0  0  0  0  0  0  0  0  0  0  0  0
   58.3070   29.5300   44.5290 C   0  0  0  0  0  0  0  0  0  0  0  0
   57.3510   30.8760   43.8210 S   0  0  0  0  0  0  0  0  0  0  0  0
   58.0440   32.0840   44.9500 C   0  0  0  0  0  0  0  0  0  0  0  0
   58.1920   33.4190   44.5490 C   0  0  0  0  0  0  0  0  0  0  0  0
   58.7210   34.3650   45.4340 C   0  0  0  0  0  0  0  0  0  0  0  0
   59.1040   33.9750   46.7210 C   0  0  0  0  0  0  0  0  0  0  0  0
   58.9880   32.6350   47.1120 C   0  0  0  0  0  0  0  0  0  0  0  0
   58.4470   31.6910   46.2340 C   0  0  0  0  0  0  0  0  0  0  0  0
   59.4200   32.2590   48.3880 O   0  0  0  0  0  0  0  0  0  0  0  0
   60.2160   33.1400   49.1850 C   0  0  0  0  0  0  0  0  0  0  0  0
   59.7370   34.5880   49.0200 C   0  0  0  0  0  0  0  0  0  0  0  0
   59.6040   34.9090   47.6330 O   0  0  0  0  0  0  0  0  0  0  0  0
   58.0940   26.6130   46.3061 H   0  0  0  0  0  0  0  0  0  0  0  0
   60.5759   26.8407   46.1658 H   0  0  0  0  0  0  0  0  0  0  0  0
   61.5685   28.7887   44.9563 H   0  0  0  0  0  0  0  0  0  0  0  0
   57.8914   33.7238   43.5357 H   0  0  0  0  0  0  0  0  0  0  0  0
   58.8352   35.4125   45.1182 H   0  0  0  0  0  0  0  0  0  0  0  0
   58.3379   30.6430   46.5497 H   0  0  0  0  0  0  0  0  0  0  0  0
   60.1317   32.8484   50.2423 H   0  0  0  0  0  0  0  0  0  0  0  0
   61.2636   33.0705   48.8567 H   0  0  0  0  0  0  0  0  0  0  0  0
   58.7622   34.7070   49.5156 H   0  0  0  0  0  0  0  0  0  0  0  0
   60.4750   35.2644   49.4758 H   0  0  0  0  0  0  0  0  0  0  0  0
  1  2  2  0
  2  3  1  0
  2  4  1  0
  4  5  2  0
  5  6  1  0
  6  7  2  0
  7  8  1  0
  8  9  2  0
  9 10  1  0
 10 11  1  0
 11 12  2  0
 12 13  1  0
 13 14  2  0
 14 15  1  0
 15 16  2  0
 15 17  1  0
 17 18  1  0
 18 19  1  0
 19 20  1  0
  9  4  1  0
 16 11  1  0
 20 14  1  0
  5 21  1  0
  6 22  1  0
  7 23  1  0
 12 24  1  0
 13 25  1  0
 16 26  1  0
 18 27  1  0
 18 28  1  0
 19 29  1  0
 19 30  1  0
M  CHG  2   2   1   3  -1
M  END
>  <UniqueID>  (23) 
21

>  <SMILES>  (23) 
O=[N+]([O-])c1cccnc1Sc1ccc2c(c1)OCCO2

>  <Energy>  (23) 
33.941992978981446

>  <Genealogy>  (23) 
O=[N+]([O-])c1cccnc1Sc1ccc2c(c1)OCCO2 (3D coordinates assigned)
O=[N+]([O-])c1cccnc1Sc1ccc2c(c1)OCCO2 (nonaromatic ring conformer: 33.941992978981446 kcal/mol)

>  <smiles>  (23) 
O=[N+]([O-])c1cccnc1Sc1ccc2c(c1)OCCO2

>  <score_type>  (23) 
oracle

>  <origin>  (23) 
adg

>  <m_score__min__energy>  (23) 
-7.1600000000000001

>  <m_primary>  (23) 
energy

$$$$
23:0
     RDKit          3D

 43 44  0  0  0  0  0  0  0  0999 V2000
   58.9100   29.5500   48.8550 C   0  0  0  0  0  0  0  0  0  0  0  0
   58.7280   30.0920   47.5520 O   0  0  0  0  0  0  0  0  0  0  0  0
   59.2070   31.3430   47.1330 C   0  0  0  0  0  0  0  0  0  0  0  0
   60.3950   31.8900   47.6540 C   0  0  0  0  0  0  0  0  0  0  0  0
   60.8790   33.1080   47.1780 C   0  0  0  0  0  0  0  0  0  0  0  0
   60.1910   33.7960   46.1790 C   0  0  0  0  0  0  0  0  0  0  0  0
   58.9950   33.2740   45.6540 C   0  0  0  0  0  0  0  0  0  0  0  0
   58.2660   33.9380   44.6560 O   0  0  0  0  0  0  0  0  0  0  0  0
   57.0080   34.5730   44.8630 C   0  0  0  0  0  0  0  0  0  0  0  0
   58.4950   32.0570   46.1450 C   0  0  0  0  0  0  0  0  0  0  0  0
   57.3000   31.5620   45.6030 O   0  0  0  0  0  0  0  0  0  0  0  0
   57.2150   30.9000   44.3430 C   0  0  0  0  0  0  0  0  0  0  0  0
   56.5560   29.5580   44.5030 C   0  0  0  0  0  0  0  0  0  0  0  0
   55.3500   29.5150   44.8640 O   0  0  0  0  0  0  0  0  0  0  0  0
   57.2730   28.3270   44.3450 N   0  0  0  0  0  0  0  0  0  0  0  0
   58.0820   27.7040   45.3520 C   0  0  0  0  0  0  0  0  0  0  0  0
   57.5080   26.7240   46.1910 C   0  0  0  0  0  0  0  0  0  0  0  0
   56.0860   26.2730   45.9960 C   0  0  0  0  0  0  0  0  0  0  0  0
   58.2930   26.1110   47.1800 C   0  0  0  0  0  0  0  0  0  0  0  0
   59.6300   26.4680   47.3420 C   0  0  0  0  0  0  0  0  0  0  0  0
   60.2110   27.4120   46.4950 C   0  0  0  0  0  0  0  0  0  0  0  0
   59.4600   28.0120   45.4740 C   0  0  0  0  0  0  0  0  0  0  0  0
   60.1480   28.9690   44.5370 C   0  0  0  0  0  0  0  0  0  0  0  0
   58.6546   30.3106   49.6075 H   0  0  0  0  0  0  0  0  0  0  0  0
   58.2566   28.6743   48.9824 H   0  0  0  0  0  0  0  0  0  0  0  0
   59.9595   29.2461   48.9824 H   0  0  0  0  0  0  0  0  0  0  0  0
   60.9447   31.3533   48.4413 H   0  0  0  0  0  0  0  0  0  0  0  0
   61.8075   33.5279   47.5923 H   0  0  0  0  0  0  0  0  0  0  0  0
   60.5851   34.7505   45.8001 H   0  0  0  0  0  0  0  0  0  0  0  0
   56.8187   34.6686   45.9424 H   0  0  0  0  0  0  0  0  0  0  0  0
   57.0216   35.5722   44.4032 H   0  0  0  0  0  0  0  0  0  0  0  0
   56.2121   33.9686   44.4032 H   0  0  0  0  0  0  0  0  0  0  0  0
   56.6229   31.5148   43.6491 H   0  0  0  0  0  0  0  0  0  0  0  0
   58.2303   30.7553   43.9452 H   0  0  0  0  0  0  0  0  0  0  0  0
   55.6113   26.1224   46.9768 H   0  0  0  0  0  0  0  0  0  0  0  0
   55.5320   27.0395   45.4343 H   0  0  0  0  0  0  0  0  0  0  0  0
   56.0750   25.3273   45.4343 H   0  0  0  0  0  0  0  0  0  0  0  0
   57.8497   25.3436   47.8316 H   0  0  0  0  0  0  0  0  0  0  0  0
   60.2289   26.0044   48.1397 H   0  0  0  0  0  0  0  0  0  0  0  0
   61.2673   27.6881   46.6292 H   0  0  0  0  0  0  0  0  0  0  0  0
   60.6923   29.7261   45.1206 H   0  0  0  0  0  0  0  0  0  0  0  0
   60.8564   28.4158   43.9029 H   0  0  0  0  0  0  0  0  0  0  0  0
   59.3979   29.4643   43.9029 H   0  0  0  0  0  0  0  0  0  0  0  0
  1  2  1  0
  2  3  1  0
  3  4  2  0
  4  5  1  0
  5  6  2  0
  6  7  1  0
  7  8  1  0
  8  9  1  0
  7 10  2  0
 10 11  1  0
 11 12  1  0
 12 13  1  0
 13 14  2  0
 13 15  1  0
 15 16  1  0
 16 17  2  0
 17 18  1  0
 17 19  1  0
 19 20  2  0
 20 21  1  0
 21 22  2  0
 22 23  1  0
 10  3  1  0
 22 16  1  0
  1 24  1  0
  1 25  1  0
  1 26  1  0
  4 27  1  0
  5 28  1  0
  6 29  1  0
  9 30  1  0
  9 31  1  0
  9 32  1  0
 12 33  1  0
 12 34  1  0
 18 35  1  0
 18 36  1  0
 18 37  1  0
 19 38  1  0
 20 39  1  0
 21 40  1  0
 23 41  1  0
 23 42  1  0
 23 43  1  0
M  CHG  1  15  -1
M  END
>  <UniqueID>  (24) 
22

>  <SMILES>  (24) 
COc1cccc(OC)c1OCC(=O)[N-]c1c(C)cccc1C

>  <Energy>  (24) 
49.1958669663593

>  <Genealogy>  (24) 
COc1cccc(OC)c1OCC(=O)[N-]c1c(C)cccc1C (protonated)
COc1cccc(OC)c1OCC(=O)[N-]c1c(C)cccc1C (3D coordinates assigned)
COc1cccc(OC)c1OCC(=O)[N-]c1c(C)cccc1C (optimized conformer: 49.1958669663593 kcal/mol)

>  <smiles>  (24) 
COc1cccc(OC)c1OCC(=O)Nc1c(C)cccc1C

>  <score_type>  (24) 
oracle

>  <origin>  (24) 
adg

>  <m_score__min__energy>  (24) 
-8.4800000000000004

>  <m_primary>  (24) 
energy

$$$$
24:0
     RDKit          3D

 27 28  0  0  0  0  0  0  0  0999 V2000
   55.8710   22.5890   48.2820 C   0  0  0  0  0  0  0  0  0  0  0  0
   57.0230   23.0270   47.5700 O   0  0  0  0  0  0  0  0  0  0  0  0
   57.1350   24.3100   47.0300 C   0  0  0  0  0  0  0  0  0  0  0  0
   58.4020   24.8280   46.7440 C   0  0  0  0  0  0  0  0  0  0  0  0
   58.5160   26.1110   46.2040 C   0  0  0  0  0  0  0  0  0  0  0  0
   57.3650   26.8640   45.9540 C   0  0  0  0  0  0  0  0  0  0  0  0
   57.4660   28.1880   45.3970 C   0  0  0  0  0  0  0  0  0  0  0  0
   57.5500   29.2950   44.9310 C   0  0  0  0  0  0  0  0  0  0  0  0
   57.6510   30.6160   44.3720 C   0  0  0  0  0  0  0  0  0  0  0  0
   57.6410   31.7660   45.1540 C   0  0  0  0  0  0  0  0  0  0  0  0
   57.7980   33.0870   44.1200 S   0  0  0  0  0  0  0  0  0  0  0  0
   57.8530   32.1430   42.7290 C   0  0  0  0  0  0  0  0  0  0  0  0
   58.0690   32.6670   41.3490 C   0  0  0  0  0  0  0  0  0  0  0  0
   57.7760   30.8290   43.0340 N   0  0  0  0  0  0  0  0  0  0  0  0
   56.1120   26.3150   46.2530 C   0  0  0  0  0  0  0  0  0  0  0  0
   56.0270   25.0630   46.7780 N   0  0  0  0  0  0  0  0  0  0  0  0
   56.0592   22.6605   49.3634 H   0  0  0  0  0  0  0  0  0  0  0  0
   55.0126   23.2235   48.0164 H   0  0  0  0  0  0  0  0  0  0  0  0
   55.6510   21.5445   48.0164 H   0  0  0  0  0  0  0  0  0  0  0  0
   59.3029   24.2290   46.9430 H   0  0  0  0  0  0  0  0  0  0  0  0
   59.5082   26.5276   45.9762 H   0  0  0  0  0  0  0  0  0  0  0  0
   57.5475   31.8059   46.2493 H   0  0  0  0  0  0  0  0  0  0  0  0
   58.4877   33.6827   41.4038 H   0  0  0  0  0  0  0  0  0  0  0  0
   58.7696   32.0100   40.8128 H   0  0  0  0  0  0  0  0  0  0  0  0
   57.1089   32.6946   40.8128 H   0  0  0  0  0  0  0  0  0  0  0  0
   57.8160   30.0640   42.3230 H   0  0  0  0  0  0  0  0  0  0  0  0
   55.1972   26.8957   46.0635 H   0  0  0  0  0  0  0  0  0  0  0  0
  1  2  1  0
  2  3  1  0
  3  4  2  0
  4  5  1  0
  5  6  2  0
  6  7  1  0
  7  8  3  0
  8  9  1  0
  9 10  2  0
 10 11  1  0
 11 12  1  0
 12 13  1  0
 12 14  2  0
  6 15  1  0
 15 16  2  0
 16  3  1  0
 14  9  1  0
  1 17  1  0
  1 18  1  0
  1 19  1  0
  4 20  1  0
  5 21  1  0
 10 22  1  0
 13 23  1  0
 13 24  1  0
 13 25  1  0
 14 26  1  0
 15 27  1  0
M  CHG  1  14   1
M  END
>  <UniqueID>  (25) 
23

>  <SMILES>  (25) 
COc1ccc(C#Cc2csc(C)[nH+]2)cn1

>  <Energy>  (25) 
49.40501099020925

>  <Genealogy>  (25) 
COc1ccc(C#Cc2csc(C)[nH+]2)cn1 (protonated)
COc1ccc(C#Cc2csc(C)[nH+]2)cn1 (3D coordinates assigned)
COc1ccc(C#Cc2csc(C)[nH+]2)cn1 (optimized conformer: 49.40501099020925 kcal/mol)

>  <smiles>  (25) 
COc1ccc(C#Cc2csc(C)n2)cn1

>  <score_type>  (25) 
oracle

>  <origin>  (25) 
adg

>  <m_score__min__energy>  (25) 
-3.8900000000000001

>  <m_primary>  (25) 
energy

$$$$
25:0
     RDKit          3D

 28 30  0  0  0  0  0  0  0  0999 V2000
   55.8460   29.7050   44.8610 O   0  0  0  0  0  0  0  0  0  0  0  0
   57.0730   29.9930   44.8660 C   0  0  0  0  0  0  0  0  0  0  0  0
   58.0610   28.9490   44.9190 N   0  0  0  0  0  0  0  0  0  0  0  0
   57.7860   27.5710   44.6120 C   0  0  0  0  0  0  0  0  0  0  0  0
   57.2030   26.7110   45.5570 C   0  0  0  0  0  0  0  0  0  0  0  0
   56.9220   25.3810   45.2280 C   0  0  0  0  0  0  0  0  0  0  0  0
   57.2080   24.8870   43.9410 C   0  0  0  0  0  0  0  0  0  0  0  0
   56.9270   23.5180   43.5850 N   0  0  0  0  0  0  0  0  0  0  0  0
   57.4420   22.3850   44.0980 C   0  0  0  0  0  0  0  0  0  0  0  0
   56.9080   21.3190   43.4750 N   0  0  0  0  0  0  0  0  0  0  0  0
   56.0670   21.8200   42.5810 N   0  0  0  0  0  0  0  0  0  0  0  0
   56.0770   23.1410   42.6450 N   0  0  0  0  0  0  0  0  0  0  0  0
   57.7700   25.7580   42.9920 C   0  0  0  0  0  0  0  0  0  0  0  0
   58.0480   27.0880   43.3230 C   0  0  0  0  0  0  0  0  0  0  0  0
   57.4700   31.4100   44.8620 C   0  0  0  0  0  0  0  0  0  0  0  0
   57.9600   32.1290   43.7870 C   0  0  0  0  0  0  0  0  0  0  0  0
   58.1800   33.4040   44.2610 C   0  0  0  0  0  0  0  0  0  0  0  0
   57.8120   33.3880   45.5910 C   0  0  0  0  0  0  0  0  0  0  0  0
   57.3920   32.1870   45.9180 O   0  0  0  0  0  0  0  0  0  0  0  0
   59.0060   29.1820   45.2980 H   0  0  0  0  0  0  0  0  0  0  0  0
   56.9656   27.0863   46.5634 H   0  0  0  0  0  0  0  0  0  0  0  0
   56.4740   24.7157   45.9807 H   0  0  0  0  0  0  0  0  0  0  0  0
   58.1876   22.3379   44.9054 H   0  0  0  0  0  0  0  0  0  0  0  0
   57.9933   25.3902   41.9796 H   0  0  0  0  0  0  0  0  0  0  0  0
   58.4759   27.7606   42.5651 H   0  0  0  0  0  0  0  0  0  0  0  0
   58.1372   31.7599   42.7661 H   0  0  0  0  0  0  0  0  0  0  0  0
   58.5703   34.2618   43.6936 H   0  0  0  0  0  0  0  0  0  0  0  0
   57.8626   34.2494   46.2732 H   0  0  0  0  0  0  0  0  0  0  0  0
  1  2  2  0
  2  3  1  0
  3  4  1  0
  4  5  2  0
  5  6  1  0
  6  7  2  0
  7  8  1  0
  8  9  1  0
  9 10  2  0
 10 11  1  0
 11 12  2  0
  7 13  1  0
 13 14  2  0
  2 15  1  0
 15 16  2  0
 16 17  1  0
 17 18  2  0
 18 19  1  0
 14  4  1  0
 19 15  1  0
 12  8  1  0
  3 20  1  0
  5 21  1  0
  6 22  1  0
  9 23  1  0
 13 24  1  0
 14 25  1  0
 16 26  1  0
 17 27  1  0
 18 28  1  0
M  END
>  <UniqueID>  (26) 
24

>  <SMILES>  (26) 
O=C(Nc1ccc(-n2cnnn2)cc1)c1ccco1

>  <Energy>  (26) 
101.26533569364197

>  <Genealogy>  (26) 
O=C(Nc1ccc(-n2cnnn2)cc1)c1ccco1 (3D coordinates assigned)
O=C(Nc1ccc(-n2cnnn2)cc1)c1ccco1 (optimized conformer: 101.26533569364197 kcal/mol)

>  <smiles>  (26) 
O=C(Nc1ccc(-n2cnnn2)cc1)c1ccco1

>  <score_type>  (26) 
oracle

>  <origin>  (26) 
adg

>  <m_score__min__energy>  (26) 
-7.3499999999999996

>  <m_primary>  (26) 
energy

$$$$
26:0
     RDKit          3D

 49 50  0  0  0  0  0  0  0  0999 V2000
   56.5380   22.9250   43.0020 C   0  0  0  0  0  0  0  0  0  0  0  0
   56.2580   24.0760   43.9630 C   0  0  0  0  0  0  0  0  0  0  0  0
   57.3660   24.2130   44.9310 N   0  0  0  0  0  0  0  0  0  0  0  0
   57.8660   22.9140   45.4320 C   0  0  0  0  0  0  0  0  0  0  0  0
   59.2500   22.5230   44.8980 C   0  0  0  0  0  0  0  0  0  0  0  0
   56.9760   25.3280   46.2260 S   0  0  0  0  0  0  0  0  0  0  0  0
   57.2480   24.6860   47.5600 O   0  0  0  0  0  0  0  0  0  0  0  0
   55.5160   25.6820   46.1740 O   0  0  0  0  0  0  0  0  0  0  0  0
   57.9210   26.8210   46.0630 C   0  0  0  0  0  0  0  0  0  0  0  0
   57.2420   28.0400   45.8920 C   0  0  0  0  0  0  0  0  0  0  0  0
   57.9530   29.2450   45.7550 C   0  0  0  0  0  0  0  0  0  0  0  0
   57.2930   30.5130   45.6250 N   0  0  0  0  0  0  0  0  0  0  0  0
   56.9420   31.1860   44.4100 C   0  0  0  0  0  0  0  0  0  0  0  0
   55.9430   30.8220   43.7310 O   0  0  0  0  0  0  0  0  0  0  0  0
   57.7730   32.3390   43.9470 C   0  0  0  0  0  0  0  0  0  0  0  0
   57.3510   33.8560   44.8730 S   0  0  0  0  0  0  0  0  0  0  0  0
   58.6100   33.6290   46.1340 C   0  0  0  0  0  0  0  0  0  0  0  0
   59.4140   34.7090   46.5150 C   0  0  0  0  0  0  0  0  0  0  0  0
   60.3760   34.5280   47.5120 C   0  0  0  0  0  0  0  0  0  0  0  0
   60.5340   33.2740   48.1010 C   0  0  0  0  0  0  0  0  0  0  0  0
   59.7230   32.2150   47.6850 C   0  0  0  0  0  0  0  0  0  0  0  0
   58.7840   32.4100   46.7190 N   0  0  0  0  0  0  0  0  0  0  0  0
   59.3470   29.2270   45.8300 C   0  0  0  0  0  0  0  0  0  0  0  0
   60.0330   28.0280   46.0100 C   0  0  0  0  0  0  0  0  0  0  0  0
   59.3350   26.8150   46.1330 C   0  0  0  0  0  0  0  0  0  0  0  0
   60.1150   25.5420   46.3340 C   0  0  0  0  0  0  0  0  0  0  0  0
   56.7597   22.0135   43.5764 H   0  0  0  0  0  0  0  0  0  0  0  0
   55.6554   22.7535   42.3683 H   0  0  0  0  0  0  0  0  0  0  0  0
   57.4008   23.1781   42.3683 H   0  0  0  0  0  0  0  0  0  0  0  0
   56.1572   25.0104   43.3914 H   0  0  0  0  0  0  0  0  0  0  0  0
   55.3266   23.8684   44.5102 H   0  0  0  0  0  0  0  0  0  0  0  0
   57.9221   22.9663   46.5293 H   0  0  0  0  0  0  0  0  0  0  0  0
   57.1624   22.1468   45.0765 H   0  0  0  0  0  0  0  0  0  0  0  0
   59.9282   22.3314   45.7426 H   0  0  0  0  0  0  0  0  0  0  0  0
   59.1629   21.6143   44.2842 H   0  0  0  0  0  0  0  0  0  0  0  0
   59.6513   23.3429   44.2842 H   0  0  0  0  0  0  0  0  0  0  0  0
   56.1424   28.0511   45.8651 H   0  0  0  0  0  0  0  0  0  0  0  0
   58.8359   32.1039   44.1051 H   0  0  0  0  0  0  0  0  0  0  0  0
   57.5736   32.5109   42.8790 H   0  0  0  0  0  0  0  0  0  0  0  0
   59.2899   35.6907   46.0344 H   0  0  0  0  0  0  0  0  0  0  0  0
   61.0062   35.3713   47.8310 H   0  0  0  0  0  0  0  0  0  0  0  0
   61.2897   33.1200   48.8854 H   0  0  0  0  0  0  0  0  0  0  0  0
   59.8437   31.2206   48.1395 H   0  0  0  0  0  0  0  0  0  0  0  0
   58.1820   31.6070   46.4280 H   0  0  0  0  0  0  0  0  0  0  0  0
   59.9091   30.1688   45.7461 H   0  0  0  0  0  0  0  0  0  0  0  0
   61.1320   28.0310   46.0563 H   0  0  0  0  0  0  0  0  0  0  0  0
   60.2326   25.3501   47.4107 H   0  0  0  0  0  0  0  0  0  0  0  0
   59.5752   24.7039   45.8690 H   0  0  0  0  0  0  0  0  0  0  0  0
   61.1068   25.6424   45.8690 H   0  0  0  0  0  0  0  0  0  0  0  0
  1  2  1  0
  2  3  1  0
  3  4  1  0
  4  5  1  0
  3  6  1  0
  6  7  2  0
  6  8  2  0
  6  9  1  0
  9 10  2  0
 10 11  1  0
 11 12  1  0
 12 13  1  0
 13 14  2  0
 13 15  1  0
 15 16  1  0
 16 17  1  0
 17 18  2  0
 18 19  1  0
 19 20  2  0
 20 21  1  0
 21 22  2  0
 11 23  2  0
 23 24  1  0
 24 25  2  0
 25 26  1  0
 25  9  1  0
 22 17  1  0
  1 27  1  0
  1 28  1  0
  1 29  1  0
  2 30  1  0
  2 31  1  0
  4 32  1  0
  4 33  1  0
  5 34  1  0
  5 35  1  0
  5 36  1  0
 10 37  1  0
 15 38  1  0
 15 39  1  0
 18 40  1  0
 19 41  1  0
 20 42  1  0
 21 43  1  0
 22 44  1  0
 23 45  1  0
 24 46  1  0
 26 47  1  0
 26 48  1  0
 26 49  1  0
M  CHG  2  12  -1  22   1
M  END
>  <UniqueID>  (27) 
25

>  <SMILES>  (27) 
CCN(CC)S(=O)(=O)c1cc([N-]C(=O)CSc2cccc[nH+]2)ccc1C

>  <Energy>  (27) 
44.12097742320382

>  <Genealogy>  (27) 
CCN(CC)S(=O)(=O)c1cc([N-]C(=O)CSc2cccc[nH+]2)ccc1C (protonated)
CCN(CC)S(=O)(=O)c1cc([N-]C(=O)CSc2cccc[nH+]2)ccc1C (3D coordinates assigned)
CCN(CC)S(=O)(=O)c1cc([N-]C(=O)CSc2cccc[nH+]2)ccc1C (optimized conformer: 44.12097742320382 kcal/mol)

>  <smiles>  (27) 
CCN(CC)S(=O)(=O)c1cc(NC(=O)CSc2ccccn2)ccc1C

>  <score_type>  (27) 
oracle

>  <origin>  (27) 
adg

>  <m_score__min__energy>  (27) 
-8.7300000000000004

>  <m_primary>  (27) 
energy

$$$$
27:0
     RDKit          3D

 23 24  0  0  0  0  0  0  0  0999 V2000
   55.6600   26.7240   45.8550 N   0  0  0  0  0  0  0  0  0  0  0  0
   57.0560   27.1310   45.9960 C   0  0  0  0  0  0  0  0  0  0  0  0
   57.2170   28.5960   45.7310 C   0  0  0  0  0  0  0  0  0  0  0  0
   56.3310   29.3310   45.0260 N   0  0  0  0  0  0  0  0  0  0  0  0
   56.6440   30.6250   44.9690 N   0  0  0  0  0  0  0  0  0  0  0  0
   57.7780   30.9390   45.6380 C   0  0  0  0  0  0  0  0  0  0  0  0
   58.3260   32.3130   45.7220 C   0  0  0  0  0  0  0  0  0  0  0  0
   58.4600   33.1110   44.5700 C   0  0  0  0  0  0  0  0  0  0  0  0
   58.9780   34.4050   44.6620 C   0  0  0  0  0  0  0  0  0  0  0  0
   59.3710   34.9230   45.9020 C   0  0  0  0  0  0  0  0  0  0  0  0
   59.8880   36.2120   46.0020 O   0  0  0  0  0  0  0  0  0  0  0  0
   59.2410   34.1370   47.0520 C   0  0  0  0  0  0  0  0  0  0  0  0
   59.6180   34.6300   48.2580 F   0  0  0  0  0  0  0  0  0  0  0  0
   58.7230   32.8410   46.9640 C   0  0  0  0  0  0  0  0  0  0  0  0
   58.4480   29.5620   46.3520 S   0  0  0  0  0  0  0  0  0  0  0  0
   55.1430   27.4690   45.3330 H   0  0  0  0  0  0  0  0  0  0  0  0
   55.2320   26.6480   46.8070 H   0  0  0  0  0  0  0  0  0  0  0  0
   57.3931   26.9114   47.0198 H   0  0  0  0  0  0  0  0  0  0  0  0
   57.6592   26.5740   45.2640 H   0  0  0  0  0  0  0  0  0  0  0  0
   58.1548   32.7129   43.5910 H   0  0  0  0  0  0  0  0  0  0  0  0
   59.0777   35.0202   43.7556 H   0  0  0  0  0  0  0  0  0  0  0  0
   59.6270   36.8310   46.7620 H   0  0  0  0  0  0  0  0  0  0  0  0
   58.6252   32.2296   47.8732 H   0  0  0  0  0  0  0  0  0  0  0  0
  1  2  1  0
  2  3  1  0
  3  4  2  0
  4  5  1  0
  5  6  2  0
  6  7  1  0
  7  8  2  0
  8  9  1  0
  9 10  2  0
 10 11  1  0
 10 12  1  0
 12 13  1  0
 12 14  2  0
  6 15  1  0
 15  3  1  0
 14  7  1  0
  1 16  1  0
  1 17  1  0
  2 18  1  0
  2 19  1  0
  8 20  1  0
  9 21  1  0
 11 22  1  0
 14 23  1  0
M  END
>  <UniqueID>  (28) 
26

>  <SMILES>  (28) 
NCc1nnc(-c2ccc(O)c(F)c2)s1

>  <Energy>  (28) 
55.93789672361157

>  <Genealogy>  (28) 
NCc1nnc(-c2ccc(O)c(F)c2)s1 (3D coordinates assigned)
NCc1nnc(-c2ccc(O)c(F)c2)s1 (optimized conformer: 55.93789672361157 kcal/mol)

>  <smiles>  (28) 
NCc1nnc(-c2ccc(O)c(F)c2)s1

>  <score_type>  (28) 
oracle

>  <origin>  (28) 
adg

>  <m_score__min__energy>  (28) 
-6.6299999999999999

>  <m_primary>  (28) 
energy

$$$$
28:0
     RDKit          3D

 44 47  0  0  0  0  0  0  0  0999 V2000
   58.8970   34.9680   46.8160 C   0  0  0  0  0  0  0  0  0  0  0  0
   58.5370   33.6150   46.2550 C   0  0  0  0  0  0  0  0  0  0  0  0
   59.3120   32.4800   46.5630 C   0  0  0  0  0  0  0  0  0  0  0  0
   60.4780   32.6050   47.3930 N   0  0  0  0  0  0  0  0  0  0  0  0
   61.7630   32.9510   46.7730 C   0  0  0  0  0  0  0  0  0  0  0  0
   62.7820   33.4140   47.8190 C   0  0  0  0  0  0  0  0  0  0  0  0
   62.8250   32.4830   48.9570 N   0  0  0  0  0  0  0  0  0  0  0  0
   64.0630   32.2680   49.6710 C   0  0  0  0  0  0  0  0  0  0  0  0
   64.1780   31.2210   50.6070 C   0  0  0  0  0  0  0  0  0  0  0  0
   65.3790   31.0130   51.2930 C   0  0  0  0  0  0  0  0  0  0  0  0
   66.4770   31.8430   51.0530 C   0  0  0  0  0  0  0  0  0  0  0  0
   66.3760   32.8810   50.1240 C   0  0  0  0  0  0  0  0  0  0  0  0
   65.1780   33.0930   49.4360 C   0  0  0  0  0  0  0  0  0  0  0  0
   61.5830   31.8760   49.4640 C   0  0  0  0  0  0  0  0  0  0  0  0
   60.3410   32.5280   48.8490 C   0  0  0  0  0  0  0  0  0  0  0  0
   58.9290   31.2240   46.0520 C   0  0  0  0  0  0  0  0  0  0  0  0
   59.6560   30.0470   46.3170 C   0  0  0  0  0  0  0  0  0  0  0  0
   59.2360   28.8260   45.7830 C   0  0  0  0  0  0  0  0  0  0  0  0
   58.0910   28.7640   44.9850 C   0  0  0  0  0  0  0  0  0  0  0  0
   57.3580   29.9230   44.7190 C   0  0  0  0  0  0  0  0  0  0  0  0
   57.7690   31.1520   45.2490 C   0  0  0  0  0  0  0  0  0  0  0  0
   57.0570   32.2430   44.9960 O   0  0  0  0  0  0  0  0  0  0  0  0
   57.3840   33.4430   45.4620 C   0  0  0  0  0  0  0  0  0  0  0  0
   56.6440   34.4250   45.1850 O   0  0  0  0  0  0  0  0  0  0  0  0
   58.8853   34.9241   47.9151 H   0  0  0  0  0  0  0  0  0  0  0  0
   59.9021   35.2524   46.4710 H   0  0  0  0  0  0  0  0  0  0  0  0
   58.1662   35.7142   46.4710 H   0  0  0  0  0  0  0  0  0  0  0  0
   62.1598   32.0659   46.2541 H   0  0  0  0  0  0  0  0  0  0  0  0
   61.5947   33.7759   46.0650 H   0  0  0  0  0  0  0  0  0  0  0  0
   63.7782   33.4620   47.3549 H   0  0  0  0  0  0  0  0  0  0  0  0
   62.4819   34.4061   48.1873 H   0  0  0  0  0  0  0  0  0  0  0  0
   63.3177   30.5630   50.7994 H   0  0  0  0  0  0  0  0  0  0  0  0
   65.4593   30.1941   52.0231 H   0  0  0  0  0  0  0  0  0  0  0  0
   67.4200   31.6791   51.5951 H   0  0  0  0  0  0  0  0  0  0  0  0
   67.2412   33.5331   49.9334 H   0  0  0  0  0  0  0  0  0  0  0  0
   65.1064   33.9116   48.7048 H   0  0  0  0  0  0  0  0  0  0  0  0
   61.5829   30.8044   49.2157 H   0  0  0  0  0  0  0  0  0  0  0  0
   61.5466   32.0287   50.5527 H   0  0  0  0  0  0  0  0  0  0  0  0
   59.4540   31.9275   49.0991 H   0  0  0  0  0  0  0  0  0  0  0  0
   60.2325   33.5452   49.2533 H   0  0  0  0  0  0  0  0  0  0  0  0
   60.5572   30.0892   46.9463 H   0  0  0  0  0  0  0  0  0  0  0  0
   59.8089   27.9104   45.9917 H   0  0  0  0  0  0  0  0  0  0  0  0
   57.7660   27.8006   44.5653 H   0  0  0  0  0  0  0  0  0  0  0  0
   56.4559   29.8700   44.0918 H   0  0  0  0  0  0  0  0  0  0  0  0
  1  2  1  0
  2  3  2  0
  3  4  1  0
  4  5  1  0
  5  6  1  0
  6  7  1  0
  7  8  1  0
  8  9  2  0
  9 10  1  0
 10 11  2  0
 11 12  1  0
 12 13  2  0
  7 14  1  0
 14 15  1  0
  3 16  1  0
 16 17  2  0
 17 18  1  0
 18 19  2  0
 19 20  1  0
 20 21  2  0
 21 22  1  0
 22 23  1  0
 23 24  2  0
 23  2  1  0
 15  4  1  0
 21 16  1  0
 13  8  1  0
  1 25  1  0
  1 26  1  0
  1 27  1  0
  5 28  1  0
  5 29  1  0
  6 30  1  0
  6 31  1  0
  9 32  1  0
 10 33  1  0
 11 34  1  0
 12 35  1  0
 13 36  1  0
 14 37  1  0
 14 38  1  0
 15 39  1  0
 15 40  1  0
 17 41  1  0
 18 42  1  0
 19 43  1  0
 20 44  1  0
M  END
>  <UniqueID>  (29) 
27

>  <SMILES>  (29) 
Cc1c(N2CCN(c3ccccc3)CC2)c2ccccc2oc1=O

>  <Energy>  (29) 
61.861744836071786

>  <Genealogy>  (29) 
Cc1c(N2CCN(c3ccccc3)CC2)c2ccccc2oc1=O (3D coordinates assigned)
Cc1c(N2CCN(c3ccccc3)CC2)c2ccccc2oc1=O (nonaromatic ring conformer: 61.861744836071786 kcal/mol)

>  <smiles>  (29) 
Cc1c(N2CCN(c3ccccc3)CC2)c2ccccc2oc1=O

>  <score_type>  (29) 
oracle

>  <origin>  (29) 
adg

>  <m_score__min__energy>  (29) 
-7.3799999999999999

>  <m_primary>  (29) 
energy

$$$$
29:0
     RDKit          3D

 27 29  0  0  0  0  0  0  0  0999 V2000
   62.9380   33.5900   51.2460 C   0  0  0  0  0  0  0  0  0  0  0  0
   62.1930   33.2570   49.9990 C   0  0  0  0  0  0  0  0  0  0  0  0
   62.4840   32.1880   49.2230 N   0  0  0  0  0  0  0  0  0  0  0  0
   61.6990   32.1610   48.1140 C   0  0  0  0  0  0  0  0  0  0  0  0
   60.7930   33.1960   48.0100 C   0  0  0  0  0  0  0  0  0  0  0  0
   60.9750   34.2180   49.3280 S   0  0  0  0  0  0  0  0  0  0  0  0
   59.8200   33.5030   46.5480 S   0  0  0  0  0  0  0  0  0  0  0  0
   59.5260   31.7520   46.2060 C   0  0  0  0  0  0  0  0  0  0  0  0
   58.3080   31.3850   45.6240 C   0  0  0  0  0  0  0  0  0  0  0  0
   58.0800   30.0640   45.2050 C   0  0  0  0  0  0  0  0  0  0  0  0
   56.5360   29.6220   44.4570 S   0  0  0  0  0  0  0  0  0  0  0  0
   56.7290   29.1250   42.8110 N   0  0  0  0  0  0  0  0  0  0  0  0
   55.6140   30.8090   44.4900 O   0  0  0  0  0  0  0  0  0  0  0  0
   55.9190   28.4900   45.2300 O   0  0  0  0  0  0  0  0  0  0  0  0
   59.1000   29.1050   45.3730 C   0  0  0  0  0  0  0  0  0  0  0  0
   58.8970   27.4320   44.8640 Cl  0  0  0  0  0  0  0  0  0  0  0  0
   60.3090   29.4660   45.9780 C   0  0  0  0  0  0  0  0  0  0  0  0
   60.5280   30.7770   46.4140 C   0  0  0  0  0  0  0  0  0  0  0  0
   61.7080   31.0770   47.1830 N   0  0  0  0  0  0  0  0  0  0  0  0
   62.3290   33.3178   52.1207 H   0  0  0  0  0  0  0  0  0  0  0  0
   63.8839   33.0290   51.2689 H   0  0  0  0  0  0  0  0  0  0  0  0
   63.1509   34.6690   51.2689 H   0  0  0  0  0  0  0  0  0  0  0  0
   57.5191   32.1403   45.4929 H   0  0  0  0  0  0  0  0  0  0  0  0
   56.6410   28.0850   42.7830 H   0  0  0  0  0  0  0  0  0  0  0  0
   57.7000   29.3720   42.5180 H   0  0  0  0  0  0  0  0  0  0  0  0
   61.0965   28.7099   46.1123 H   0  0  0  0  0  0  0  0  0  0  0  0
   62.4720   30.3680   47.2550 H   0  0  0  0  0  0  0  0  0  0  0  0
  1  2  1  0
  2  3  2  0
  3  4  1  0
  4  5  2  0
  5  6  1  0
  5  7  1  0
  7  8  1  0
  8  9  2  0
  9 10  1  0
 10 11  1  0
 11 12  1  0
 11 13  2  0
 11 14  2  0
 10 15  2  0
 15 16  1  0
 15 17  1  0
 17 18  2  0
 18 19  1  0
  6  2  1  0
 18  8  1  0
 19  4  1  0
  1 20  1  0
  1 21  1  0
  1 22  1  0
  9 23  1  0
 12 24  1  0
 12 25  1  0
 17 26  1  0
 19 27  1  0
M  END
>  <UniqueID>  (30) 
28

>  <SMILES>  (30) 
Cc1nc2c(s1)Sc1cc(S(N)(=O)=O)c(Cl)cc1N2

>  <Energy>  (30) 
74.02525220397301

>  <Genealogy>  (30) 
Cc1nc2c(s1)Sc1cc(S(N)(=O)=O)c(Cl)cc1N2 (3D coordinates assigned)
Cc1nc2c(s1)Sc1cc(S(N)(=O)=O)c(Cl)cc1N2 (nonaromatic ring conformer: 74.02525220397301 kcal/mol)

>  <smiles>  (30) 
Cc1nc2c(s1)Sc1cc(S(N)(=O)=O)c(Cl)cc1N2

>  <score_type>  (30) 
oracle

>  <origin>  (30) 
adg

>  <m_score__min__energy>  (30) 
-8.1799999999999997

>  <m_primary>  (30) 
energy

$$$$
30:0
     RDKit          3D

 38 39  0  0  0  0  0  0  0  0999 V2000
   55.0730   23.6770   44.4480 C   0  0  0  0  0  0  0  0  0  0  0  0
   55.1720   23.8460   45.9610 C   0  0  0  0  0  0  0  0  0  0  0  0
   56.2770   24.8110   46.3210 C   0  0  0  0  0  0  0  0  0  0  0  0
   57.5490   24.3330   46.6960 C   0  0  0  0  0  0  0  0  0  0  0  0
   57.8160   22.9680   46.7140 O   0  0  0  0  0  0  0  0  0  0  0  0
   58.5610   25.2280   47.0550 C   0  0  0  0  0  0  0  0  0  0  0  0
   58.3170   26.6090   47.0680 C   0  0  0  0  0  0  0  0  0  0  0  0
   59.4200   27.5710   47.4220 C   0  0  0  0  0  0  0  0  0  0  0  0
   60.0710   28.1320   46.1550 C   0  0  0  0  0  0  0  0  0  0  0  0
   59.0210   28.6080   45.1870 C   0  0  0  0  0  0  0  0  0  0  0  0
   58.5930   27.7760   44.1430 C   0  0  0  0  0  0  0  0  0  0  0  0
   57.6440   28.2270   43.2270 C   0  0  0  0  0  0  0  0  0  0  0  0
   57.1120   29.5180   43.3290 C   0  0  0  0  0  0  0  0  0  0  0  0
   56.1640   29.9210   42.3860 O   0  0  0  0  0  0  0  0  0  0  0  0
   57.5450   30.3730   44.3690 C   0  0  0  0  0  0  0  0  0  0  0  0
   57.0010   31.7680   44.5040 C   0  0  0  0  0  0  0  0  0  0  0  0
   58.5030   29.9080   45.2880 C   0  0  0  0  0  0  0  0  0  0  0  0
   57.0520   27.0880   46.6990 C   0  0  0  0  0  0  0  0  0  0  0  0
   56.0340   26.1990   46.3390 C   0  0  0  0  0  0  0  0  0  0  0  0
   54.7840   26.7060   45.9990 O   0  0  0  0  0  0  0  0  0  0  0  0
   54.5293   22.7489   44.2175 H   0  0  0  0  0  0  0  0  0  0  0  0
   54.5342   24.5341   44.0178 H   0  0  0  0  0  0  0  0  0  0  0  0
   56.0841   23.6261   44.0178 H   0  0  0  0  0  0  0  0  0  0  0  0
   54.2162   24.2328   46.3441 H   0  0  0  0  0  0  0  0  0  0  0  0
   55.3969   22.8680   46.4114 H   0  0  0  0  0  0  0  0  0  0  0  0
   59.5556   24.8465   47.3292 H   0  0  0  0  0  0  0  0  0  0  0  0
   59.0015   28.4002   48.0113 H   0  0  0  0  0  0  0  0  0  0  0  0
   60.1832   27.0367   48.0068 H   0  0  0  0  0  0  0  0  0  0  0  0
   60.7221   28.9761   46.4263 H   0  0  0  0  0  0  0  0  0  0  0  0
   60.6603   27.3360   45.6764 H   0  0  0  0  0  0  0  0  0  0  0  0
   59.0082   26.7620   44.0462 H   0  0  0  0  0  0  0  0  0  0  0  0
   57.3100   27.5624   42.4165 H   0  0  0  0  0  0  0  0  0  0  0  0
   55.5940   29.2690   41.8640 H   0  0  0  0  0  0  0  0  0  0  0  0
   56.9022   32.0215   45.5698 H   0  0  0  0  0  0  0  0  0  0  0  0
   57.6882   32.4779   44.0205 H   0  0  0  0  0  0  0  0  0  0  0  0
   56.0146   31.8253   44.0205 H   0  0  0  0  0  0  0  0  0  0  0  0
   58.8498   30.5707   46.0946 H   0  0  0  0  0  0  0  0  0  0  0  0
   56.8588   28.1709   46.6926 H   0  0  0  0  0  0  0  0  0  0  0  0
  1  2  1  0
  2  3  1  0
  3  4  2  0
  4  5  1  0
  4  6  1  0
  6  7  2  0
  7  8  1  0
  8  9  1  0
  9 10  1  0
 10 11  2  0
 11 12  1  0
 12 13  2  0
 13 14  1  0
 13 15  1  0
 15 16  1  0
 15 17  2  0
  7 18  1  0
 18 19  2  0
 19 20  1  0
 19  3  1  0
 17 10  1  0
  1 21  1  0
  1 22  1  0
  1 23  1  0
  2 24  1  0
  2 25  1  0
  6 26  1  0
  8 27  1  0
  8 28  1  0
  9 29  1  0
  9 30  1  0
 11 31  1  0
 12 32  1  0
 14 33  1  0
 16 34  1  0
 16 35  1  0
 16 36  1  0
 17 37  1  0
 18 38  1  0
M  CHG  2   5  -1  20  -1
M  END
>  <UniqueID>  (31) 
29

>  <SMILES>  (31) 
CCc1c([O-])cc(CCc2ccc(O)c(C)c2)cc1[O-]

>  <Energy>  (31) 
33.41322194544301

>  <Genealogy>  (31) 
CCc1c([O-])cc(CCc2ccc(O)c(C)c2)cc1[O-] (protonated)
CCc1c([O-])cc(CCc2ccc(O)c(C)c2)cc1[O-] (3D coordinates assigned)
CCc1c([O-])cc(CCc2ccc(O)c(C)c2)cc1[O-] (optimized conformer: 33.41322194544301 kcal/mol)

>  <smiles>  (31) 
CCc1c(O)cc(CCc2ccc(O)c(C)c2)cc1O

>  <score_type>  (31) 
oracle

>  <origin>  (31) 
adg

>  <m_score__min__energy>  (31) 
-12.039999999999999

>  <m_primary>  (31) 
energy

$$$$
31:0
     RDKit          3D

 28 30  0  0  0  0  0  0  0  0999 V2000
   60.1860   28.7890   45.6280 O   0  0  0  0  0  0  0  0  0  0  0  0
   59.1210   28.1110   45.6730 C   0  0  0  0  0  0  0  0  0  0  0  0
   59.2000   26.7510   45.9740 C   0  0  0  0  0  0  0  0  0  0  0  0
   58.0330   25.9870   46.0450 C   0  0  0  0  0  0  0  0  0  0  0  0
   58.0930   24.6180   46.3510 C   0  0  0  0  0  0  0  0  0  0  0  0
   56.9200   23.8630   46.4200 C   0  0  0  0  0  0  0  0  0  0  0  0
   55.6830   24.4670   46.1840 C   0  0  0  0  0  0  0  0  0  0  0  0
   55.6110   25.8290   45.8800 C   0  0  0  0  0  0  0  0  0  0  0  0
   56.7850   26.6020   45.8090 C   0  0  0  0  0  0  0  0  0  0  0  0
   56.7460   27.9740   45.5020 C   0  0  0  0  0  0  0  0  0  0  0  0
   55.5200   28.5900   45.2470 O   0  0  0  0  0  0  0  0  0  0  0  0
   57.9050   28.7050   45.4410 N   0  0  0  0  0  0  0  0  0  0  0  0
   57.8410   30.1110   45.1290 C   0  0  0  0  0  0  0  0  0  0  0  0
   57.4580   30.5350   43.8460 C   0  0  0  0  0  0  0  0  0  0  0  0
   57.3940   31.8980   43.5450 C   0  0  0  0  0  0  0  0  0  0  0  0
   57.7130   32.8480   44.5210 C   0  0  0  0  0  0  0  0  0  0  0  0
   57.6490   34.1690   44.2190 F   0  0  0  0  0  0  0  0  0  0  0  0
   58.0950   32.4330   45.8040 C   0  0  0  0  0  0  0  0  0  0  0  0
   58.5330   33.7210   47.1470 Br  0  0  0  0  0  0  0  0  0  0  0  0
   58.1580   31.0680   46.1060 C   0  0  0  0  0  0  0  0  0  0  0  0
   60.1784   26.2819   46.1548 H   0  0  0  0  0  0  0  0  0  0  0  0
   59.0657   24.1392   46.5368 H   0  0  0  0  0  0  0  0  0  0  0  0
   56.9705   22.7908   46.6606 H   0  0  0  0  0  0  0  0  0  0  0  0
   54.7618   23.8682   46.2376 H   0  0  0  0  0  0  0  0  0  0  0  0
   54.6335   26.2986   45.6956 H   0  0  0  0  0  0  0  0  0  0  0  0
   57.2075   29.7913   43.0752 H   0  0  0  0  0  0  0  0  0  0  0  0
   57.0923   32.2245   42.5388 H   0  0  0  0  0  0  0  0  0  0  0  0
   58.4573   30.7434   47.1135 H   0  0  0  0  0  0  0  0  0  0  0  0
  1  2  2  0
  2  3  1  0
  3  4  2  0
  4  5  1  0
  5  6  2  0
  6  7  1  0
  7  8  2  0
  8  9  1  0
  9 10  2  0
 10 11  1  0
 10 12  1  0
 12 13  1  0
 13 14  2  0
 14 15  1  0
 15 16  2  0
 16 17  1  0
 16 18  1  0
 18 19  1  0
 18 20  2  0
 12  2  1  0
 20 13  1  0
  9  4  1  0
  3 21  1  0
  5 22  1  0
  6 23  1  0
  7 24  1  0
  8 25  1  0
 14 26  1  0
 15 27  1  0
 20 28  1  0
M  CHG  1  11  -1
M  END
>  <UniqueID>  (32) 
30

>  <SMILES>  (32) 
O=c1cc2ccccc2c([O-])n1-c1ccc(F)c(Br)c1

>  <Energy>  (32) 
45.35029910282476

>  <Genealogy>  (32) 
O=c1cc2ccccc2c([O-])n1-c1ccc(F)c(Br)c1 (protonated)
O=c1cc2ccccc2c([O-])n1-c1ccc(F)c(Br)c1 (3D coordinates assigned)
O=c1cc2ccccc2c([O-])n1-c1ccc(F)c(Br)c1 (optimized conformer: 45.35029910282476 kcal/mol)

>  <smiles>  (32) 
O=c1cc2ccccc2c(O)n1-c1ccc(F)c(Br)c1

>  <score_type>  (32) 
oracle

>  <origin>  (32) 
adg

>  <m_score__min__energy>  (32) 
-10.359999999999999

>  <m_primary>  (32) 
energy

$$$$
32:0
     RDKit          3D

 49 51  0  0  1  0  0  0  0  0999 V2000
   55.6840   30.4300   52.8560 C   0  0  0  0  0  0  0  0  0  0  0  0
   56.8540   30.6320   51.9310 C   0  0  0  0  0  0  0  0  0  0  0  0
   57.5880   29.6500   51.6310 O   0  0  0  0  0  0  0  0  0  0  0  0
   57.1680   31.8940   51.3740 N   0  0  0  0  0  0  0  0  0  0  0  0
   58.2860   32.0280   50.5040 C   0  0  0  0  0  0  0  0  0  0  0  0
   58.6600   31.0680   49.5930 C   0  0  0  0  0  0  0  0  0  0  0  0
   59.7670   31.2960   48.7940 C   0  0  0  0  0  0  0  0  0  0  0  0
   60.5130   32.4420   48.8660 C   0  0  0  0  0  0  0  0  0  0  0  0
   61.6660   32.7620   48.0690 C   0  0  0  0  0  0  0  0  0  0  0  0
   62.9610   32.4400   48.4360 C   0  0  0  0  0  0  0  0  0  0  0  0
   63.8280   32.8630   47.5040 N   0  0  0  0  0  0  0  0  0  0  0  0
   63.1090   33.4370   46.5730 N   0  0  0  0  0  0  0  0  0  0  0  0
   61.7890   33.4060   46.8590 C   0  0  0  0  0  0  0  0  0  0  0  0
   60.7290   33.9720   45.9980 C   0  0  0  0  0  0  0  0  0  0  0  0
   59.3940   33.6230   46.3580 N   0  0  0  0  0  0  0  0  0  0  0  0
   58.5110   34.5890   45.7520 C   0  0  0  0  0  0  0  0  0  0  0  0
   57.5730   33.7910   44.8510 C   0  0  0  0  0  0  0  0  0  0  0  0
   57.5520   32.4740   45.5950 C   0  0  1  0  0  0  0  0  0  0  0  0
   57.0220   31.3780   44.8240 N   0  0  0  0  0  0  0  0  0  0  0  0
   57.4470   30.0750   45.2870 C   0  0  0  0  0  0  0  0  0  0  0  0
   57.4110   31.5650   43.4450 C   0  0  0  0  0  0  0  0  0  0  0  0
   59.0000   32.3070   45.9490 C   0  0  0  0  0  0  0  0  0  0  0  0
   60.1070   33.3960   49.8020 C   0  0  0  0  0  0  0  0  0  0  0  0
   59.0120   33.2090   50.6170 C   0  0  0  0  0  0  0  0  0  0  0  0
   56.0270   30.4892   53.8995 H   0  0  0  0  0  0  0  0  0  0  0  0
   54.9321   31.2116   52.6723 H   0  0  0  0  0  0  0  0  0  0  0  0
   55.2377   29.4415   52.6723 H   0  0  0  0  0  0  0  0  0  0  0  0
   56.5860   32.7260   51.5960 H   0  0  0  0  0  0  0  0  0  0  0  0
   58.0880   30.1330   49.5007 H   0  0  0  0  0  0  0  0  0  0  0  0
   60.0604   30.5224   48.0691 H   0  0  0  0  0  0  0  0  0  0  0  0
   63.2395   31.9124   49.3602 H   0  0  0  0  0  0  0  0  0  0  0  0
   64.8690   32.7890   47.4580 H   0  0  0  0  0  0  0  0  0  0  0  0
   60.8137   35.0682   46.0325 H   0  0  0  0  0  0  0  0  0  0  0  0
   60.8931   33.5458   44.9973 H   0  0  0  0  0  0  0  0  0  0  0  0
   57.9377   35.1213   46.5253 H   0  0  0  0  0  0  0  0  0  0  0  0
   59.0703   35.3462   45.1829 H   0  0  0  0  0  0  0  0  0  0  0  0
   56.5729   34.2459   44.7978 H   0  0  0  0  0  0  0  0  0  0  0  0
   57.8868   33.7239   43.7988 H   0  0  0  0  0  0  0  0  0  0  0  0
   56.8792   32.4754   46.4652 H   0  0  0  0  0  0  0  0  0  0  0  0
   57.4518   30.0603   46.3869 H   0  0  0  0  0  0  0  0  0  0  0  0
   56.7523   29.3085   44.9131 H   0  0  0  0  0  0  0  0  0  0  0  0
   58.4601   29.8655   44.9131 H   0  0  0  0  0  0  0  0  0  0  0  0
   58.4017   32.0413   43.4049 H   0  0  0  0  0  0  0  0  0  0  0  0
   57.4528   30.5886   42.9402 H   0  0  0  0  0  0  0  0  0  0  0  0
   56.6746   32.2075   42.9402 H   0  0  0  0  0  0  0  0  0  0  0  0
   59.1241   31.5856   46.7701 H   0  0  0  0  0  0  0  0  0  0  0  0
   59.6040   31.9162   45.1168 H   0  0  0  0  0  0  0  0  0  0  0  0
   60.6818   34.3296   49.8916 H   0  0  0  0  0  0  0  0  0  0  0  0
   58.7172   33.9800   51.3441 H   0  0  0  0  0  0  0  0  0  0  0  0
  1  2  1  0
  2  3  2  0
  2  4  1  0
  4  5  1  0
  5  6  2  0
  6  7  1  0
  7  8  2  0
  8  9  1  0
  9 10  2  0
 10 11  1  0
 11 12  1  0
 12 13  2  0
 13 14  1  0
 14 15  1  0
 15 16  1  0
 16 17  1  0
 17 18  1  0
 18 19  1  0
 19 20  1  0
 19 21  1  0
 18 22  1  0
  8 23  1  0
 23 24  2  0
 24  5  1  0
 13  9  1  0
 22 15  1  0
  1 25  1  0
  1 26  1  0
  1 27  1  0
  4 28  1  0
  6 29  1  0
  7 30  1  0
 10 31  1  0
 11 32  1  0
 14 33  1  0
 14 34  1  0
 16 35  1  0
 16 36  1  0
 17 37  1  0
 17 38  1  0
 18 39  1  1
 20 40  1  0
 20 41  1  0
 20 42  1  0
 21 43  1  0
 21 44  1  0
 21 45  1  0
 22 46  1  0
 22 47  1  0
 23 48  1  0
 24 49  1  0
M  END
>  <smiles>  (33) 
CC(=O)Nc1ccc(-c2c[nH]nc2CN2CCC(N(C)C)C2)cc1

>  <score_type>  (33) 
oracle

>  <origin>  (33) 
adg

>  <m_score__min__energy>  (33) 
-8.4000000000000004

>  <m_primary>  (33) 
energy

$$$$
33:0
     RDKit          3D

 42 44  0  0  0  0  0  0  0  0999 V2000
   56.6830   20.7610   42.9990 C   0  0  0  0  0  0  0  0  0  0  0  0
   55.9000   21.9020   43.3340 O   0  0  0  0  0  0  0  0  0  0  0  0
   56.3910   23.0270   44.0140 C   0  0  0  0  0  0  0  0  0  0  0  0
   56.3730   23.1240   45.4320 C   0  0  0  0  0  0  0  0  0  0  0  0
   56.8750   24.2670   46.0790 C   0  0  0  0  0  0  0  0  0  0  0  0
   57.3910   25.2990   45.2890 C   0  0  0  0  0  0  0  0  0  0  0  0
   57.4010   25.2060   43.9240 C   0  0  0  0  0  0  0  0  0  0  0  0
   56.9150   24.0870   43.2520 C   0  0  0  0  0  0  0  0  0  0  0  0
   57.9480   26.3660   43.4300 C   0  0  0  0  0  0  0  0  0  0  0  0
   58.2270   27.1520   44.5470 C   0  0  0  0  0  0  0  0  0  0  0  0
   58.8620   28.5230   44.4640 C   0  0  0  0  0  0  0  0  0  0  0  0
   58.1330   29.5890   45.1930 N   0  0  1  0  0  0  0  0  0  0  0  0
   59.0500   30.5950   45.8040 C   0  0  0  0  0  0  0  0  0  0  0  0
   59.2460   30.6000   47.3120 C   0  0  0  0  0  0  0  0  0  0  0  0
   60.3650   30.1040   46.4070 C   0  0  0  0  0  0  0  0  0  0  0  0
   56.6380   30.0860   44.3970 S   0  0  0  0  0  0  0  0  0  0  0  0
   56.6320   30.0220   42.6110 C   0  0  0  0  0  0  0  0  0  0  0  0
   55.5230   29.2020   44.8790 O   0  0  0  0  0  0  0  0  0  0  0  0
   56.3030   31.4890   44.8180 O   0  0  0  0  0  0  0  0  0  0  0  0
   57.9250   26.4730   45.6910 N   0  0  0  0  0  0  0  0  0  0  0  0
   58.0940   26.9020   47.0820 C   0  0  0  0  0  0  0  0  0  0  0  0
   57.0227   20.2660   43.9207 H   0  0  0  0  0  0  0  0  0  0  0  0
   56.0751   20.0596   42.4087 H   0  0  0  0  0  0  0  0  0  0  0  0
   57.5562   21.0759   42.4087 H   0  0  0  0  0  0  0  0  0  0  0  0
   55.9622   22.2966   46.0292 H   0  0  0  0  0  0  0  0  0  0  0  0
   56.8622   24.3471   47.1760 H   0  0  0  0  0  0  0  0  0  0  0  0
   56.9403   24.0335   42.1536 H   0  0  0  0  0  0  0  0  0  0  0  0
   58.1278   26.6207   42.3751 H   0  0  0  0  0  0  0  0  0  0  0  0
   59.8777   28.4559   44.8809 H   0  0  0  0  0  0  0  0  0  0  0  0
   58.8480   28.8079   43.4016 H   0  0  0  0  0  0  0  0  0  0  0  0
   57.7640   29.0930   46.0370 H   0  0  0  0  0  0  0  0  0  0  0  0
   58.7639   31.3519   45.0589 H   0  0  0  0  0  0  0  0  0  0  0  0
   59.3556   31.5540   47.8485 H   0  0  0  0  0  0  0  0  0  0  0  0
   58.6962   30.1808   48.1676 H   0  0  0  0  0  0  0  0  0  0  0  0
   61.2818   30.7001   46.2879 H   0  0  0  0  0  0  0  0  0  0  0  0
   60.9575   29.1799   46.3359 H   0  0  0  0  0  0  0  0  0  0  0  0
   56.5340   28.9770   42.2819 H   0  0  0  0  0  0  0  0  0  0  0  0
   55.7849   30.6087   42.2259 H   0  0  0  0  0  0  0  0  0  0  0  0
   57.5734   30.4410   42.2259 H   0  0  0  0  0  0  0  0  0  0  0  0
   57.7755   26.0934   47.7564 H   0  0  0  0  0  0  0  0  0  0  0  0
   59.1523   27.1381   47.2669 H   0  0  0  0  0  0  0  0  0  0  0  0
   57.4811   27.7965   47.2669 H   0  0  0  0  0  0  0  0  0  0  0  0
  1  2  1  0
  2  3  1  0
  3  4  2  0
  4  5  1  0
  5  6  2  0
  6  7  1  0
  7  8  2  0
  7  9  1  0
  9 10  2  0
 10 11  1  0
 11 12  1  0
 12 13  1  0
 13 14  1  0
 14 15  1  0
 12 16  1  0
 16 17  1  0
 16 18  2  0
 16 19  2  0
 10 20  1  0
 20 21  1  0
  8  3  1  0
 15 13  1  0
 20  6  1  0
  1 22  1  0
  1 23  1  0
  1 24  1  0
  4 25  1  0
  5 26  1  0
  8 27  1  0
  9 28  1  0
 11 29  1  0
 11 30  1  0
 12 31  1  1
 13 32  1  0
 14 33  1  0
 14 34  1  0
 15 35  1  0
 15 36  1  0
 17 37  1  0
 17 38  1  0
 17 39  1  0
 21 40  1  0
 21 41  1  0
 21 42  1  0
M  CHG  1  12   1
M  END
>  <UniqueID>  (34) 
31

>  <SMILES>  (34) 
COc1ccc2c(c1)cc(C[N@@H+](C1CC1)S(C)(=O)=O)n2C

>  <Energy>  (34) 
355.47385527074374

>  <Genealogy>  (34) 
COc1ccc2c(c1)cc(C[NH+](C1CC1)S(C)(=O)=O)n2C (protonated)
COc1ccc2c(c1)cc(C[N@@H+](C1CC1)S(C)(=O)=O)n2C (chirality)
COc1ccc2c(c1)cc(C[N@@H+](C1CC1)S(C)(=O)=O)n2C (3D coordinates assigned)
COc1ccc2c(c1)cc(C[N@@H+](C1CC1)S(C)(=O)=O)n2C (nonaromatic ring conformer: 355.47385527074374 kcal/mol)

>  <smiles>  (34) 
COc1ccc2c(c1)cc(CN(C1CC1)S(C)(=O)=O)n2C

>  <score_type>  (34) 
oracle

>  <origin>  (34) 
adg

>  <m_score__min__energy>  (34) 
-5.7000000000000002

>  <m_primary>  (34) 
energy

$$$$
34:0
     RDKit          3D

 35 36  0  0  0  0  0  0  0  0999 V2000
   59.8510   27.8380   44.9010 C   0  0  0  0  0  0  0  0  0  0  0  0
   58.5850   27.1090   44.7600 N   0  0  0  0  0  0  0  0  0  0  0  0
   58.1390   27.1380   43.3610 C   0  0  0  0  0  0  0  0  0  0  0  0
   57.3670   27.8370   45.7800 S   0  0  0  0  0  0  0  0  0  0  0  0
   56.0670   27.1020   45.6150 O   0  0  0  0  0  0  0  0  0  0  0  0
   57.7860   27.7410   47.2200 O   0  0  0  0  0  0  0  0  0  0  0  0
   57.1250   29.5260   45.3710 C   0  0  0  0  0  0  0  0  0  0  0  0
   56.1200   29.9830   44.6030 N   0  0  0  0  0  0  0  0  0  0  0  0
   56.3010   31.2910   44.5010 N   0  0  0  0  0  0  0  0  0  0  0  0
   57.4120   31.5730   45.2070 C   0  0  0  0  0  0  0  0  0  0  0  0
   57.9930   32.9440   45.3540 C   0  0  0  0  0  0  0  0  0  0  0  0
   59.1730   32.9050   46.2140 N   0  0  0  0  0  0  0  0  0  0  0  0
   59.9950   34.0640   46.4400 C   0  0  0  0  0  0  0  0  0  0  0  0
   59.6860   35.1610   45.8980 O   0  0  0  0  0  0  0  0  0  0  0  0
   61.2190   33.9880   47.2710 C   0  0  0  0  0  0  0  0  0  0  0  0
   61.1720   34.2070   48.6610 C   0  0  0  0  0  0  0  0  0  0  0  0
   62.3390   34.1320   49.4290 C   0  0  0  0  0  0  0  0  0  0  0  0
   63.5610   33.8420   48.8200 C   0  0  0  0  0  0  0  0  0  0  0  0
   63.6220   33.6330   47.4400 C   0  0  0  0  0  0  0  0  0  0  0  0
   62.4600   33.7080   46.6680 C   0  0  0  0  0  0  0  0  0  0  0  0
   57.9180   30.4940   45.7540 O   0  0  0  0  0  0  0  0  0  0  0  0
   60.0809   27.9704   45.9685 H   0  0  0  0  0  0  0  0  0  0  0  0
   60.6586   27.2667   44.4201 H   0  0  0  0  0  0  0  0  0  0  0  0
   59.7623   28.8233   44.4201 H   0  0  0  0  0  0  0  0  0  0  0  0
   57.0418   27.2093   43.3273 H   0  0  0  0  0  0  0  0  0  0  0  0
   58.5788   28.0094   42.8539 H   0  0  0  0  0  0  0  0  0  0  0  0
   58.4623   26.2169   42.8539 H   0  0  0  0  0  0  0  0  0  0  0  0
   58.2790   33.3251   44.3626 H   0  0  0  0  0  0  0  0  0  0  0  0
   57.2403   33.6047   45.8090 H   0  0  0  0  0  0  0  0  0  0  0  0
   59.4640   31.9760   46.5950 H   0  0  0  0  0  0  0  0  0  0  0  0
   60.2122   34.4384   49.1460 H   0  0  0  0  0  0  0  0  0  0  0  0
   62.2934   34.3019   50.5148 H   0  0  0  0  0  0  0  0  0  0  0  0
   64.4763   33.7780   49.4268 H   0  0  0  0  0  0  0  0  0  0  0  0
   64.5864   33.4091   46.9606 H   0  0  0  0  0  0  0  0  0  0  0  0
   62.5151   33.5471   45.5812 H   0  0  0  0  0  0  0  0  0  0  0  0
  1  2  1  0
  2  3  1  0
  2  4  1  0
  4  5  2  0
  4  6  2  0
  4  7  1  0
  7  8  2  0
  8  9  1  0
  9 10  2  0
 10 11  1  0
 11 12  1  0
 12 13  1  0
 13 14  2  0
 13 15  1  0
 15 16  2  0
 16 17  1  0
 17 18  2  0
 18 19  1  0
 19 20  2  0
 10 21  1  0
 21  7  1  0
 20 15  1  0
  1 22  1  0
  1 23  1  0
  1 24  1  0
  3 25  1  0
  3 26  1  0
  3 27  1  0
 11 28  1  0
 11 29  1  0
 12 30  1  0
 16 31  1  0
 17 32  1  0
 18 33  1  0
 19 34  1  0
 20 35  1  0
M  END
>  <UniqueID>  (35) 
32

>  <SMILES>  (35) 
CN(C)S(=O)(=O)c1nnc(CNC(=O)c2ccccc2)o1

>  <Energy>  (35) 
66.1966945015117

>  <Genealogy>  (35) 
CN(C)S(=O)(=O)c1nnc(CNC(=O)c2ccccc2)o1 (3D coordinates assigned)
CN(C)S(=O)(=O)c1nnc(CNC(=O)c2ccccc2)o1 (optimized conformer: 66.1966945015117 kcal/mol)

>  <smiles>  (35) 
CN(C)S(=O)(=O)c1nnc(CNC(=O)c2ccccc2)o1

>  <score_type>  (35) 
oracle

>  <origin>  (35) 
adg

>  <m_score__min__energy>  (35) 
-7.9100000000000001

>  <m_primary>  (35) 
energy

$$$$
35:0
     RDKit          3D

 64 65  0  0  0  0  0  0  0  0999 V2000
   60.3510   27.4280   47.6580 C   0  0  0  0  0  0  0  0  0  0  0  0
   59.5900   28.5090   48.4230 C   0  0  0  0  0  0  0  0  0  0  0  0
   59.3470   29.7040   47.5790 N   0  0  0  0  0  0  0  0  0  0  0  0
   60.1650   30.8670   48.0140 C   0  0  0  0  0  0  0  0  0  0  0  0
   61.4230   31.0080   47.1280 C   0  0  0  0  0  0  0  0  0  0  0  0
   62.2630   32.1550   47.5320 N   0  0  0  0  0  0  0  0  0  0  0  0
   63.6600   31.8830   47.9340 C   0  0  0  0  0  0  0  0  0  0  0  0
   64.2990   33.0740   48.6980 C   0  0  0  0  0  0  0  0  0  0  0  0
   64.5360   32.8660   50.1610 N   0  0  0  0  0  0  0  0  0  0  0  0
   64.0370   31.5410   50.6020 C   0  0  0  0  0  0  0  0  0  0  0  0
   65.9700   33.0010   50.5070 C   0  0  0  0  0  0  0  0  0  0  0  0
   63.7770   33.9080   50.9000 C   0  0  0  0  0  0  0  0  0  0  0  0
   61.8500   33.5180   47.2440 C   0  0  0  0  0  0  0  0  0  0  0  0
   62.4720   34.1910   46.3750 O   0  0  0  0  0  0  0  0  0  0  0  0
   60.6580   34.1700   47.9030 C   0  0  0  0  0  0  0  0  0  0  0  0
   59.4510   34.0950   47.0060 C   0  0  0  0  0  0  0  0  0  0  0  0
   59.4890   34.6460   45.7150 C   0  0  0  0  0  0  0  0  0  0  0  0
   58.3600   34.5890   44.8910 C   0  0  0  0  0  0  0  0  0  0  0  0
   57.1840   33.9890   45.3520 C   0  0  0  0  0  0  0  0  0  0  0  0
   57.1340   33.4510   46.6410 C   0  0  0  0  0  0  0  0  0  0  0  0
   58.2610   33.5060   47.4680 C   0  0  0  0  0  0  0  0  0  0  0  0
   59.5840   29.3770   46.1530 C   0  0  0  0  0  0  0  0  0  0  0  0
   58.4220   29.8000   45.2740 C   0  0  0  0  0  0  0  0  0  0  0  0
   58.4990   30.9940   44.5250 C   0  0  0  0  0  0  0  0  0  0  0  0
   57.4640   31.3600   43.6620 C   0  0  0  0  0  0  0  0  0  0  0  0
   56.3480   30.5370   43.5180 C   0  0  0  0  0  0  0  0  0  0  0  0
   56.2680   29.3400   44.2300 C   0  0  0  0  0  0  0  0  0  0  0  0
   57.3000   28.9590   45.0980 C   0  0  0  0  0  0  0  0  0  0  0  0
   57.1330   27.2630   45.9820 Br  0  0  0  0  0  0  0  0  0  0  0  0
   60.8327   26.7438   48.3720 H   0  0  0  0  0  0  0  0  0  0  0  0
   59.6498   26.8639   47.0255 H   0  0  0  0  0  0  0  0  0  0  0  0
   61.1186   27.8979   47.0255 H   0  0  0  0  0  0  0  0  0  0  0  0
   58.6228   28.1007   48.7512 H   0  0  0  0  0  0  0  0  0  0  0  0
   60.1996   28.8146   49.2861 H   0  0  0  0  0  0  0  0  0  0  0  0
   59.5619   31.7834   47.9341 H   0  0  0  0  0  0  0  0  0  0  0  0
   60.4806   30.7091   49.0559 H   0  0  0  0  0  0  0  0  0  0  0  0
   62.0185   30.0867   47.2087 H   0  0  0  0  0  0  0  0  0  0  0  0
   61.0907   31.1798   46.0935 H   0  0  0  0  0  0  0  0  0  0  0  0
   63.6738   30.9970   48.5858 H   0  0  0  0  0  0  0  0  0  0  0  0
   64.2465   31.7189   47.0180 H   0  0  0  0  0  0  0  0  0  0  0  0
   65.2691   33.2932   48.2281 H   0  0  0  0  0  0  0  0  0  0  0  0
   63.5693   33.8944   48.6304 H   0  0  0  0  0  0  0  0  0  0  0  0
   64.0223   31.5020   51.7012 H   0  0  0  0  0  0  0  0  0  0  0  0
   63.0188   31.3856   50.2160 H   0  0  0  0  0  0  0  0  0  0  0  0
   64.6998   30.7525   50.2160 H   0  0  0  0  0  0  0  0  0  0  0  0
   66.0838   33.0117   51.6010 H   0  0  0  0  0  0  0  0  0  0  0  0
   66.5297   32.1516   50.0884 H   0  0  0  0  0  0  0  0  0  0  0  0
   66.3614   33.9400   50.0884 H   0  0  0  0  0  0  0  0  0  0  0  0
   63.8934   33.7482   51.9821 H   0  0  0  0  0  0  0  0  0  0  0  0
   64.1638   34.9024   50.6325 H   0  0  0  0  0  0  0  0  0  0  0  0
   62.7119   33.8448   50.6325 H   0  0  0  0  0  0  0  0  0  0  0  0
   60.4389   33.6518   48.8482 H   0  0  0  0  0  0  0  0  0  0  0  0
   60.8926   35.2274   48.0948 H   0  0  0  0  0  0  0  0  0  0  0  0
   60.4100   35.1242   45.3502 H   0  0  0  0  0  0  0  0  0  0  0  0
   58.3974   35.0170   43.8784 H   0  0  0  0  0  0  0  0  0  0  0  0
   56.2989   33.9405   44.7006 H   0  0  0  0  0  0  0  0  0  0  0  0
   56.2073   32.9838   47.0057 H   0  0  0  0  0  0  0  0  0  0  0  0
   58.2159   33.0867   48.4839 H   0  0  0  0  0  0  0  0  0  0  0  0
   60.4927   29.8968   45.8154 H   0  0  0  0  0  0  0  0  0  0  0  0
   59.6959   28.2860   46.0678 H   0  0  0  0  0  0  0  0  0  0  0  0
   59.3825   31.6421   44.6220 H   0  0  0  0  0  0  0  0  0  0  0  0
   57.5294   32.3000   43.0944 H   0  0  0  0  0  0  0  0  0  0  0  0
   55.5307   30.8314   42.8432 H   0  0  0  0  0  0  0  0  0  0  0  0
   55.3885   28.6905   44.1092 H   0  0  0  0  0  0  0  0  0  0  0  0
  1  2  1  0
  2  3  1  0
  3  4  1  0
  4  5  1  0
  5  6  1  0
  6  7  1  0
  7  8  1  0
  8  9  1  0
  9 10  1  0
  9 11  1  0
  9 12  1  0
  6 13  1  0
 13 14  2  0
 13 15  1  0
 15 16  1  0
 16 17  2  0
 17 18  1  0
 18 19  2  0
 19 20  1  0
 20 21  2  0
  3 22  1  0
 22 23  1  0
 23 24  2  0
 24 25  1  0
 25 26  2  0
 26 27  1  0
 27 28  2  0
 28 29  1  0
 21 16  1  0
 28 23  1  0
  1 30  1  0
  1 31  1  0
  1 32  1  0
  2 33  1  0
  2 34  1  0
  4 35  1  0
  4 36  1  0
  5 37  1  0
  5 38  1  0
  7 39  1  0
  7 40  1  0
  8 41  1  0
  8 42  1  0
 10 43  1  0
 10 44  1  0
 10 45  1  0
 11 46  1  0
 11 47  1  0
 11 48  1  0
 12 49  1  0
 12 50  1  0
 12 51  1  0
 15 52  1  0
 15 53  1  0
 17 54  1  0
 18 55  1  0
 19 56  1  0
 20 57  1  0
 21 58  1  0
 22 59  1  0
 22 60  1  0
 24 61  1  0
 25 62  1  0
 26 63  1  0
 27 64  1  0
M  CHG  1   9   1
M  END
>  <UniqueID>  (36) 
33

>  <SMILES>  (36) 
CCN(CCN(CC[N+](C)(C)C)C(=O)Cc1ccccc1)Cc1ccccc1Br

>  <Energy>  (36) 
73.37628646301305

>  <Genealogy>  (36) 
CCN(CCN(CC[N+](C)(C)C)C(=O)Cc1ccccc1)Cc1ccccc1Br (3D coordinates assigned)
CCN(CCN(CC[N+](C)(C)C)C(=O)Cc1ccccc1)Cc1ccccc1Br (optimized conformer: 73.37628646301305 kcal/mol)

>  <smiles>  (36) 
CCN(CCN(CC[N+](C)(C)C)C(=O)Cc1ccccc1)Cc1ccccc1Br

>  <score_type>  (36) 
oracle

>  <origin>  (36) 
adg

>  <m_score__min__energy>  (36) 
-6.6799999999999997

>  <m_primary>  (36) 
energy

$$$$
36:0
     RDKit          3D

 38 40  0  0  0  0  0  0  0  0999 V2000
   56.6430   30.5790   45.6220 H   0  0  0  0  0  0  0  0  0  0  0  0
   56.8300   31.4090   45.0190 N   0  0  0  0  0  0  0  0  0  0  0  0
   57.6600   32.3500   45.3460 C   0  0  0  0  0  0  0  0  0  0  0  0
   57.4350   33.9580   44.9260 S   0  0  0  0  0  0  0  0  0  0  0  0
   58.8050   34.4770   45.7510 C   0  0  0  0  0  0  0  0  0  0  0  0
   59.1587   35.5163   45.8206 H   0  0  0  0  0  0  0  0  0  0  0  0
   59.4180   33.3650   46.3330 C   0  0  0  0  0  0  0  0  0  0  0  0
   60.6750   33.4880   47.1070 C   0  0  0  0  0  0  0  0  0  0  0  0
   61.9170   33.4760   46.4580 C   0  0  0  0  0  0  0  0  0  0  0  0
   61.9604   33.3776   45.3633 H   0  0  0  0  0  0  0  0  0  0  0  0
   63.0990   33.5880   47.1910 C   0  0  0  0  0  0  0  0  0  0  0  0
   64.0681   33.5691   46.6709 H   0  0  0  0  0  0  0  0  0  0  0  0
   63.0600   33.7250   48.5910 C   0  0  0  0  0  0  0  0  0  0  0  0
   64.2270   33.8370   49.3620 O   0  0  0  0  0  0  0  0  0  0  0  0
   65.0480   32.7390   49.7460 C   0  0  0  0  0  0  0  0  0  0  0  0
   65.0919   32.6802   50.8435 H   0  0  0  0  0  0  0  0  0  0  0  0
   64.6239   31.8064   49.3456 H   0  0  0  0  0  0  0  0  0  0  0  0
   66.0625   32.8821   49.3456 H   0  0  0  0  0  0  0  0  0  0  0  0
   61.8200   33.7540   49.2490 C   0  0  0  0  0  0  0  0  0  0  0  0
   61.8110   33.8950   50.6460 O   0  0  0  0  0  0  0  0  0  0  0  0
   60.7590   33.4470   51.4960 C   0  0  0  0  0  0  0  0  0  0  0  0
   61.0575   33.5741   52.5471 H   0  0  0  0  0  0  0  0  0  0  0  0
   59.8517   34.0368   51.2986 H   0  0  0  0  0  0  0  0  0  0  0  0
   60.5555   32.3842   51.2986 H   0  0  0  0  0  0  0  0  0  0  0  0
   60.6310   33.6390   48.5020 C   0  0  0  0  0  0  0  0  0  0  0  0
   59.6592   33.6678   49.0166 H   0  0  0  0  0  0  0  0  0  0  0  0
   58.7730   32.1750   46.1070 N   0  0  0  0  0  0  0  0  0  0  0  0
   59.1820   30.9130   46.6680 C   0  0  0  0  0  0  0  0  0  0  0  0
   59.0340   30.6700   48.0430 C   0  0  0  0  0  0  0  0  0  0  0  0
   58.5823   31.4365   48.6899 H   0  0  0  0  0  0  0  0  0  0  0  0
   59.4590   29.4570   48.5920 C   0  0  0  0  0  0  0  0  0  0  0  0
   59.3396   29.2697   49.6693 H   0  0  0  0  0  0  0  0  0  0  0  0
   60.0360   28.4810   47.7730 C   0  0  0  0  0  0  0  0  0  0  0  0
   60.4500   27.3070   48.3070 F   0  0  0  0  0  0  0  0  0  0  0  0
   60.1890   28.7190   46.4040 C   0  0  0  0  0  0  0  0  0  0  0  0
   60.6438   27.9513   45.7607 H   0  0  0  0  0  0  0  0  0  0  0  0
   59.7650   29.9310   45.8510 C   0  0  0  0  0  0  0  0  0  0  0  0
   59.8884   30.1157   44.7737 H   0  0  0  0  0  0  0  0  0  0  0  0
  1  2  1  0
  2  3  2  0
  3  4  1  0
  4  5  1  0
  5  6  1  0
  5  7  2  0
  7  8  1  0
  8  9  2  0
  9 10  1  0
  9 11  1  0
 11 12  1  0
 11 13  2  0
 13 14  1  0
 14 15  1  0
 15 16  1  0
 15 17  1  0
 15 18  1  0
 13 19  1  0
 19 20  1  0
 20 21  1  0
 21 22  1  0
 21 23  1  0
 21 24  1  0
 19 25  2  0
 25 26  1  0
  7 27  1  0
 27 28  1  0
 28 29  2  0
 29 30  1  0
 29 31  1  0
 31 32  1  0
 31 33  2  0
 33 34  1  0
 33 35  1  0
 35 36  1  0
 35 37  2  0
 37 38  1  0
 27  3  1  0
 37 28  1  0
 25  8  1  0
M  END
>  <UniqueID>  (37) 
34

>  <SMILES>  (37) 
[H]/N=c1/scc(-c2ccc(OC)c(OC)c2)n1-c1ccc(F)cc1

>  <Energy>  (37) 
82.44434394563706

>  <Genealogy>  (37) 
[H]/N=c1/scc(-c2ccc(OC)c(OC)c2)n1-c1ccc(F)cc1 (cis-trans isomerization)
[H]/N=c1/scc(-c2ccc(OC)c(OC)c2)n1-c1ccc(F)cc1 (3D coordinates assigned)
[H]/N=c1/scc(-c2ccc(OC)c(OC)c2)n1-c1ccc(F)cc1 (optimized conformer: 82.44434394563706 kcal/mol)

>  <smiles>  (37) 
COc1ccc(-c2csc(=N)n2-c2ccc(F)cc2)cc1OC

>  <score_type>  (37) 
oracle

>  <origin>  (37) 
adg

>  <m_score__min__energy>  (37) 
-6.25

>  <m_primary>  (37) 
energy

$$$$
37:0
     RDKit          3D

 28 30  0  0  0  0  0  0  0  0999 V2000
   55.7480   26.7150   45.9750 N   0  0  0  0  0  0  0  0  0  0  0  0
   56.8130   27.3740   45.7250 C   0  0  0  0  0  0  0  0  0  0  0  0
   58.0640   26.8960   45.9830 N   0  0  0  0  0  0  0  0  0  0  0  0
   59.1530   27.6480   45.6920 C   0  0  0  0  0  0  0  0  0  0  0  0
   59.0400   28.8790   45.1440 N   0  0  0  0  0  0  0  0  0  0  0  0
   57.8200   29.3810   44.8770 C   0  0  0  0  0  0  0  0  0  0  0  0
   56.6780   28.6270   45.1670 C   0  0  0  0  0  0  0  0  0  0  0  0
   55.5910   29.3610   44.8020 N   0  0  0  0  0  0  0  0  0  0  0  0
   56.0300   30.5400   44.2980 C   0  0  0  0  0  0  0  0  0  0  0  0
   57.3860   30.5530   44.3430 N   0  0  0  0  0  0  0  0  0  0  0  0
   58.2290   31.6430   43.8940 C   0  0  0  0  0  0  0  0  0  0  0  0
   57.7090   32.9700   44.3590 C   0  0  0  0  0  0  0  0  0  0  0  0
   58.7620   34.0400   44.5540 C   0  0  0  0  0  0  0  0  0  0  0  0
   58.8190   33.6510   46.0170 C   0  0  0  0  0  0  0  0  0  0  0  0
   57.4250   33.0520   45.8430 C   0  0  0  0  0  0  0  0  0  0  0  0
   54.7790   27.0950   45.9820 H   0  0  0  0  0  0  0  0  0  0  0  0
   58.1530   25.9330   46.4110 H   0  0  0  0  0  0  0  0  0  0  0  0
   60.1544   27.2469   45.9070 H   0  0  0  0  0  0  0  0  0  0  0  0
   55.3930   31.3514   43.9160 H   0  0  0  0  0  0  0  0  0  0  0  0
   59.2437   31.4974   44.2931 H   0  0  0  0  0  0  0  0  0  0  0  0
   58.2358   31.6423   42.7940 H   0  0  0  0  0  0  0  0  0  0  0  0
   56.9101   33.0860   43.6118 H   0  0  0  0  0  0  0  0  0  0  0  0
   59.6961   33.8669   43.9994 H   0  0  0  0  0  0  0  0  0  0  0  0
   58.5845   35.0807   44.2450 H   0  0  0  0  0  0  0  0  0  0  0  0
   59.6036   32.9219   46.2676 H   0  0  0  0  0  0  0  0  0  0  0  0
   59.0380   34.3881   46.8036 H   0  0  0  0  0  0  0  0  0  0  0  0
   57.2802   32.0792   46.3356 H   0  0  0  0  0  0  0  0  0  0  0  0
   56.5283   33.5576   46.2307 H   0  0  0  0  0  0  0  0  0  0  0  0
  1  2  2  3
  2  3  1  0
  3  4  1  0
  4  5  2  0
  5  6  1  0
  6  7  2  0
  7  8  1  0
  8  9  2  0
  9 10  1  0
 10 11  1  0
 11 12  1  0
 12 13  1  0
 13 14  1  0
 14 15  1  0
  7  2  1  0
 15 12  1  0
 10  6  1  0
  1 16  1  0
  3 17  1  0
  4 18  1  0
  9 19  1  0
 11 20  1  0
 11 21  1  0
 12 22  1  0
 13 23  1  0
 13 24  1  0
 14 25  1  0
 14 26  1  0
 15 27  1  0
 15 28  1  0
M  END
>  <smiles>  (38) 
N=c1[nH]cnc2c1ncn2CC1CCC1

>  <score_type>  (38) 
oracle

>  <origin>  (38) 
adg

>  <m_score__min__energy>  (38) 
-5.96

>  <m_primary>  (38) 
energy

$$$$
38:0
     RDKit          3D

 37 38  0  0  0  0  0  0  0  0999 V2000
   57.9276   32.3665   45.4442 H   0  0  0  0  0  0  0  0  0  0  0  0
   57.5810   31.5260   44.8250 C   0  0  0  0  0  0  0  0  0  0  0  0
   57.0370   30.4270   45.4060 N   0  0  0  0  0  0  0  0  0  0  0  0
   56.5930   29.3710   44.6730 C   0  0  0  0  0  0  0  0  0  0  0  0
   56.0920   28.3460   45.3050 N   0  0  0  0  0  0  0  0  0  0  0  0
   56.7070   27.0830   45.6050 C   0  0  0  0  0  0  0  0  0  0  0  0
   57.8320   26.7420   45.0510 N   0  0  0  0  0  0  0  0  0  0  0  0
   58.4630   25.4430   45.2950 C   0  0  0  0  0  0  0  0  0  0  0  0
   59.1203   25.5252   46.1732 H   0  0  0  0  0  0  0  0  0  0  0  0
   59.0367   25.1663   44.3982 H   0  0  0  0  0  0  0  0  0  0  0  0
   57.4580   24.3850   45.5450 N   0  0  0  0  0  0  0  0  0  0  0  0
   56.7070   24.0260   44.3180 C   0  0  0  0  0  0  0  0  0  0  0  0
   57.4132   23.7036   43.5387 H   0  0  0  0  0  0  0  0  0  0  0  0
   56.1434   24.9031   43.9673 H   0  0  0  0  0  0  0  0  0  0  0  0
   55.7230   22.8770   44.6250 C   0  0  0  0  0  0  0  0  0  0  0  0
   54.7017   23.2391   44.4358 H   0  0  0  0  0  0  0  0  0  0  0  0
   55.8901   22.5930   45.6745 H   0  0  0  0  0  0  0  0  0  0  0  0
   55.9380   21.6540   43.8170 N   0  0  0  0  0  0  0  0  0  0  0  0
   56.8970   21.8470   42.7180 C   0  0  0  0  0  0  0  0  0  0  0  0
   57.8954   22.0479   43.1336 H   0  0  0  0  0  0  0  0  0  0  0  0
   56.9335   20.9382   42.0993 H   0  0  0  0  0  0  0  0  0  0  0  0
   56.5791   22.6992   42.0993 H   0  0  0  0  0  0  0  0  0  0  0  0
   56.2890   20.4810   44.6320 C   0  0  0  0  0  0  0  0  0  0  0  0
   56.2118   20.7391   45.6985 H   0  0  0  0  0  0  0  0  0  0  0  0
   55.5984   19.6558   44.4035 H   0  0  0  0  0  0  0  0  0  0  0  0
   57.3193   20.1708   44.4035 H   0  0  0  0  0  0  0  0  0  0  0  0
   56.5630   24.8070   46.6420 C   0  0  0  0  0  0  0  0  0  0  0  0
   57.1412   24.8690   47.5757 H   0  0  0  0  0  0  0  0  0  0  0  0
   55.7540   24.0684   46.7414 H   0  0  0  0  0  0  0  0  0  0  0  0
   55.9730   26.1130   46.3560 N   0  0  0  0  0  0  0  0  0  0  0  0
   55.0240   26.3450   46.7250 H   0  0  0  0  0  0  0  0  0  0  0  0
   56.7330   29.4230   43.2700 C   0  0  0  0  0  0  0  0  0  0  0  0
   56.4051   28.5762   42.6492 H   0  0  0  0  0  0  0  0  0  0  0  0
   57.2760   30.5270   42.6900 N   0  0  0  0  0  0  0  0  0  0  0  0
   57.3810   30.5620   41.6510 H   0  0  0  0  0  0  0  0  0  0  0  0
   57.6970   31.5810   43.4370 C   0  0  0  0  0  0  0  0  0  0  0  0
   58.1255   32.4698   42.9508 H   0  0  0  0  0  0  0  0  0  0  0  0
  1  2  1  0
  2  3  1  0
  3  4  1  0
  4  5  2  0
  5  6  1  0
  6  7  2  0
  7  8  1  0
  8  9  1  0
  8 10  1  0
  8 11  1  0
 11 12  1  0
 12 13  1  0
 12 14  1  0
 12 15  1  0
 15 16  1  0
 15 17  1  0
 15 18  1  0
 18 19  1  0
 19 20  1  0
 19 21  1  0
 19 22  1  0
 18 23  1  0
 23 24  1  0
 23 25  1  0
 23 26  1  0
 11 27  1  0
 27 28  1  0
 27 29  1  0
 27 30  1  0
 30 31  1  0
  4 32  1  0
 32 33  1  0
 32 34  2  0
 34 35  1  0
 34 36  1  0
 36 37  1  0
 36  2  2  0
 30  6  1  0
M  CHG  2   3  -1  34   1
M  END
>  <UniqueID>  (39) 
35

>  <SMILES>  (39) 
CN(C)CCN1CN=C(/N=c2\c[nH+]cc[n-]2)NC1

>  <Energy>  (39) 
50.979840610536385

>  <Genealogy>  (39) 
CN(C)CCN1CN=C(N=c2c[nH+]cc[n-]2)NC1 (protonated)
CN(C)CCN1CN=C(/N=c2\c[nH+]cc[n-]2)NC1 (cis-trans isomerization)
CN(C)CCN1CN=C(/N=c2\c[nH+]cc[n-]2)NC1 (3D coordinates assigned)
CN(C)CCN1CN=C(/N=c2\c[nH+]cc[n-]2)NC1 (nonaromatic ring conformer: 50.979840610536385 kcal/mol)

>  <smiles>  (39) 
CN(C)CCN1CN=C(N=c2cncc[nH]2)NC1

>  <score_type>  (39) 
oracle

>  <origin>  (39) 
adg

>  <m_score__min__energy>  (39) 
-6.2300000000000004

>  <m_primary>  (39) 
energy

$$$$
39:0
     RDKit          3D

 50 53  0  0  0  0  0  0  0  0999 V2000
   56.9880   30.6940   43.0200 C   0  0  0  0  0  0  0  0  0  0  0  0
   55.9810   30.1220   44.0120 C   0  0  0  0  0  0  0  0  0  0  0  0
   56.6320   29.7080   45.2140 O   0  0  0  0  0  0  0  0  0  0  0  0
   57.8000   30.2740   45.7520 C   0  0  0  0  0  0  0  0  0  0  0  0
   58.8620   29.4200   46.0490 C   0  0  0  0  0  0  0  0  0  0  0  0
   60.0480   29.9150   46.5880 C   0  0  0  0  0  0  0  0  0  0  0  0
   60.1930   31.2840   46.8900 C   0  0  0  0  0  0  0  0  0  0  0  0
   59.1270   32.1720   46.5410 C   0  0  0  0  0  0  0  0  0  0  0  0
   57.9440   31.6540   45.9780 C   0  0  0  0  0  0  0  0  0  0  0  0
   59.3710   33.6770   46.6810 C   0  0  2  0  0  0  0  0  0  0  0  0
   58.1240   34.5790   46.6070 C   0  0  0  0  0  0  0  0  0  0  0  0
   60.3940   34.0550   45.6480 C   0  0  0  0  0  0  0  0  0  0  0  0
   61.6160   33.8440   46.1300 C   0  0  0  0  0  0  0  0  0  0  0  0
   61.5230   33.2820   47.5250 C   0  0  1  0  0  0  0  0  0  0  0  0
   60.1820   33.9120   47.9610 C   0  0  2  0  0  0  0  0  0  0  0  0
   59.5300   33.4170   49.2640 C   0  0  0  0  0  0  0  0  0  0  0  0
   61.4680   31.7830   47.4340 N   0  0  1  0  0  0  0  0  0  0  0  0
   61.8220   31.1220   48.7220 C   0  0  0  0  0  0  0  0  0  0  0  0
   62.8490   31.9030   49.5090 C   0  0  0  0  0  0  0  0  0  0  0  0
   64.1590   32.0450   49.0180 C   0  0  0  0  0  0  0  0  0  0  0  0
   65.1070   32.7770   49.7400 C   0  0  0  0  0  0  0  0  0  0  0  0
   64.7570   33.3720   50.9540 C   0  0  0  0  0  0  0  0  0  0  0  0
   63.4570   33.2340   51.4510 C   0  0  0  0  0  0  0  0  0  0  0  0
   62.5060   32.5030   50.7340 C   0  0  0  0  0  0  0  0  0  0  0  0
   57.8168   31.1648   43.5691 H   0  0  0  0  0  0  0  0  0  0  0  0
   57.3804   29.8840   42.3876 H   0  0  0  0  0  0  0  0  0  0  0  0
   56.4932   31.4459   42.3876 H   0  0  0  0  0  0  0  0  0  0  0  0
   55.2346   30.8932   44.2533 H   0  0  0  0  0  0  0  0  0  0  0  0
   55.4943   29.2475   43.5555 H   0  0  0  0  0  0  0  0  0  0  0  0
   58.7621   28.3418   45.8553 H   0  0  0  0  0  0  0  0  0  0  0  0
   60.8840   29.2265   46.7807 H   0  0  0  0  0  0  0  0  0  0  0  0
   57.1238   32.3371   45.7123 H   0  0  0  0  0  0  0  0  0  0  0  0
   57.7869   34.8228   47.6253 H   0  0  0  0  0  0  0  0  0  0  0  0
   58.3738   35.5068   46.0714 H   0  0  0  0  0  0  0  0  0  0  0  0
   57.3210   34.0513   46.0714 H   0  0  0  0  0  0  0  0  0  0  0  0
   60.1673   34.4467   44.6454 H   0  0  0  0  0  0  0  0  0  0  0  0
   62.5529   34.0489   45.5914 H   0  0  0  0  0  0  0  0  0  0  0  0
   62.3514   33.4948   48.2167 H   0  0  0  0  0  0  0  0  0  0  0  0
   60.2820   34.9595   48.2817 H   0  0  0  0  0  0  0  0  0  0  0  0
   60.0741   33.8301   50.1262 H   0  0  0  0  0  0  0  0  0  0  0  0
   58.4818   33.7489   49.2986 H   0  0  0  0  0  0  0  0  0  0  0  0
   59.5680   32.3182   49.2986 H   0  0  0  0  0  0  0  0  0  0  0  0
   62.2020   31.4880   46.7460 H   0  0  0  0  0  0  0  0  0  0  0  0
   60.9109   31.0239   49.3305 H   0  0  0  0  0  0  0  0  0  0  0  0
   62.2575   30.1399   48.4856 H   0  0  0  0  0  0  0  0  0  0  0  0
   64.4393   31.5784   48.0621 H   0  0  0  0  0  0  0  0  0  0  0  0
   66.1303   32.8843   49.3509 H   0  0  0  0  0  0  0  0  0  0  0  0
   65.5036   33.9491   51.5192 H   0  0  0  0  0  0  0  0  0  0  0  0
   63.1826   33.7017   52.4080 H   0  0  0  0  0  0  0  0  0  0  0  0
   61.4850   32.3964   51.1293 H   0  0  0  0  0  0  0  0  0  0  0  0
  1  2  1  0
  2  3  1  0
  3  4  1  0
  4  5  2  0
  5  6  1  0
  6  7  2  0
  7  8  1  0
  8  9  2  0
  8 10  1  0
 10 11  1  1
 10 12  1  0
 12 13  2  0
 13 14  1  0
 14 15  1  0
 15 16  1  0
 14 17  1  0
 17 18  1  0
 18 19  1  0
 19 20  2  0
 20 21  1  0
 21 22  2  0
 22 23  1  0
 23 24  2  0
  9  4  1  0
 15 10  1  0
 24 19  1  0
 17  7  1  0
  1 25  1  0
  1 26  1  0
  1 27  1  0
  2 28  1  0
  2 29  1  0
  5 30  1  0
  6 31  1  0
  9 32  1  0
 11 33  1  0
 11 34  1  0
 11 35  1  0
 12 36  1  0
 13 37  1  0
 14 38  1  1
 15 39  1  1
 16 40  1  0
 16 41  1  0
 16 42  1  0
 17 43  1  6
 18 44  1  0
 18 45  1  0
 20 46  1  0
 21 47  1  0
 22 48  1  0
 23 49  1  0
 24 50  1  0
M  CHG  1  17   1
M  END
>  <UniqueID>  (40) 
36

>  <SMILES>  (40) 
CCOc1ccc2c(c1)[C@]1(C)C=C[C@@H](C1C)[NH+]2Cc1ccccc1

>  <Energy>  (40) 
88.3718527561839

>  <Genealogy>  (40) 
CCOc1ccc2c(c1)C1(C)C=CC(C1C)[NH+]2Cc1ccccc1 (protonated)
CCOc1ccc2c(c1)[C@]1(C)C=C[C@@H](C1C)[NH+]2Cc1ccccc1 (chirality)
CCOc1ccc2c(c1)[C@]1(C)C=C[C@@H](C1C)[NH+]2Cc1ccccc1 (3D coordinates assigned)
CCOc1ccc2c(c1)[C@]1(C)C=C[C@@H](C1C)[NH+]2Cc1ccccc1 (nonaromatic ring conformer: 88.3718527561839 kcal/mol)

>  <smiles>  (40) 
CCOc1ccc2c(c1)C1(C)C=CC(C1C)N2Cc1ccccc1

>  <score_type>  (40) 
oracle

>  <origin>  (40) 
adg

>  <m_score__min__energy>  (40) 
-6.3300000000000001

>  <m_primary>  (40) 
energy

$$$$
40:0
     RDKit          3D

 38 40  0  0  0  0  0  0  0  0999 V2000
   59.2610   35.2130   44.8680 C   0  0  0  0  0  0  0  0  0  0  0  0
   59.2760   34.5090   46.2000 C   0  0  0  0  0  0  0  0  0  0  0  0
   59.8420   35.1760   47.3040 C   0  0  0  0  0  0  0  0  0  0  0  0
   59.8530   34.5820   48.5660 C   0  0  0  0  0  0  0  0  0  0  0  0
   59.3010   33.3160   48.7460 C   0  0  0  0  0  0  0  0  0  0  0  0
   58.7420   32.6350   47.6640 C   0  0  0  0  0  0  0  0  0  0  0  0
   58.7290   33.2090   46.3780 C   0  0  0  0  0  0  0  0  0  0  0  0
   58.1200   32.4340   45.2660 C   0  0  0  0  0  0  0  0  0  0  0  0
   57.3540   31.3380   45.4610 N   0  0  0  0  0  0  0  0  0  0  0  0
   56.9900   30.9890   44.2130 C   0  0  0  0  0  0  0  0  0  0  0  0
   56.0530   29.8650   43.8960 C   0  0  0  0  0  0  0  0  0  0  0  0
   55.7460   29.0790   45.1030 N   0  0  0  0  0  0  0  0  0  0  0  0
   56.6550   27.9320   45.2810 C   0  0  0  0  0  0  0  0  0  0  0  0
   58.0490   28.3990   45.6140 C   0  0  0  0  0  0  0  0  0  0  0  0
   58.3700   28.8300   46.9090 C   0  0  0  0  0  0  0  0  0  0  0  0
   59.6540   29.3130   47.1750 C   0  0  0  0  0  0  0  0  0  0  0  0
   60.5840   29.3600   46.1850 N   0  0  0  0  0  0  0  0  0  0  0  0
   60.3040   28.9390   44.9240 C   0  0  0  0  0  0  0  0  0  0  0  0
   59.0330   28.4470   44.6150 C   0  0  0  0  0  0  0  0  0  0  0  0
   57.5550   31.8560   43.3080 C   0  0  0  0  0  0  0  0  0  0  0  0
   58.2450   32.7340   43.9910 O   0  0  0  0  0  0  0  0  0  0  0  0
   59.2378   36.3010   45.0285 H   0  0  0  0  0  0  0  0  0  0  0  0
   60.1651   34.9451   44.3015 H   0  0  0  0  0  0  0  0  0  0  0  0
   58.3692   34.9069   44.3015 H   0  0  0  0  0  0  0  0  0  0  0  0
   60.2800   36.1760   47.1695 H   0  0  0  0  0  0  0  0  0  0  0  0
   60.2980   35.1139   49.4198 H   0  0  0  0  0  0  0  0  0  0  0  0
   59.3057   32.8520   49.7433 H   0  0  0  0  0  0  0  0  0  0  0  0
   58.3058   31.6369   47.8174 H   0  0  0  0  0  0  0  0  0  0  0  0
   55.1188   30.2791   43.4889 H   0  0  0  0  0  0  0  0  0  0  0  0
   56.5340   29.2042   43.1598 H   0  0  0  0  0  0  0  0  0  0  0  0
   55.8840   29.7140   45.9250 H   0  0  0  0  0  0  0  0  0  0  0  0
   56.2814   27.2998   46.1000 H   0  0  0  0  0  0  0  0  0  0  0  0
   56.6899   27.3613   44.3413 H   0  0  0  0  0  0  0  0  0  0  0  0
   57.6168   28.7882   47.7096 H   0  0  0  0  0  0  0  0  0  0  0  0
   59.9126   29.6559   48.1877 H   0  0  0  0  0  0  0  0  0  0  0  0
   61.0791   28.9855   44.1449 H   0  0  0  0  0  0  0  0  0  0  0  0
   58.8057   28.1000   43.5962 H   0  0  0  0  0  0  0  0  0  0  0  0
   57.4473   31.8188   42.2139 H   0  0  0  0  0  0  0  0  0  0  0  0
  1  2  1  0
  2  3  2  0
  3  4  1  0
  4  5  2  0
  5  6  1  0
  6  7  2  0
  7  8  1  0
  8  9  2  0
  9 10  1  0
 10 11  1  0
 11 12  1  0
 12 13  1  0
 13 14  1  0
 14 15  2  0
 15 16  1  0
 16 17  2  0
 17 18  1  0
 18 19  2  0
 10 20  2  0
 20 21  1  0
  7  2  1  0
 21  8  1  0
 19 14  1  0
  1 22  1  0
  1 23  1  0
  1 24  1  0
  3 25  1  0
  4 26  1  0
  5 27  1  0
  6 28  1  0
 11 29  1  0
 11 30  1  0
 12 31  1  0
 13 32  1  0
 13 33  1  0
 15 34  1  0
 16 35  1  0
 18 36  1  0
 19 37  1  0
 20 38  1  0
M  END
>  <UniqueID>  (41) 
37

>  <SMILES>  (41) 
Cc1ccccc1-c1nc(CNCc2ccncc2)co1

>  <Energy>  (41) 
69.73025279483419

>  <Genealogy>  (41) 
Cc1ccccc1-c1nc(CNCc2ccncc2)co1 (3D coordinates assigned)
Cc1ccccc1-c1nc(CNCc2ccncc2)co1 (optimized conformer: 69.73025279483419 kcal/mol)

>  <smiles>  (41) 
Cc1ccccc1-c1nc(CNCc2ccncc2)co1

>  <score_type>  (41) 
oracle

>  <origin>  (41) 
adg

>  <m_score__min__energy>  (41) 
-7.2000000000000002

>  <m_primary>  (41) 
energy

$$$$
41:0
     RDKit          3D

 36 38  0  0  0  0  0  0  0  0999 V2000
   56.7030   30.7890   42.4330 C   0  0  0  0  0  0  0  0  0  0  0  0
   55.9860   29.5780   43.0200 C   0  0  0  0  0  0  0  0  0  0  0  0
   55.9380   29.6600   44.4440 O   0  0  0  0  0  0  0  0  0  0  0  0
   57.0200   30.0720   45.2310 C   0  0  0  0  0  0  0  0  0  0  0  0
   57.7000   29.1320   46.0070 C   0  0  0  0  0  0  0  0  0  0  0  0
   58.7820   29.5570   46.7940 C   0  0  0  0  0  0  0  0  0  0  0  0
   59.5600   28.6220   47.6460 C   0  0  0  0  0  0  0  0  0  0  0  0
   60.0700   27.3760   47.2250 C   0  0  0  0  0  0  0  0  0  0  0  0
   60.7570   26.6900   48.2150 C   0  0  0  0  0  0  0  0  0  0  0  0
   60.7350   27.6170   49.6120 S   0  0  0  0  0  0  0  0  0  0  0  0
   59.8550   28.9010   48.9810 C   0  0  0  0  0  0  0  0  0  0  0  0
   59.1340   30.8720   46.7680 N   0  0  0  0  0  0  0  0  0  0  0  0
   58.4640   31.7800   46.0090 C   0  0  0  0  0  0  0  0  0  0  0  0
   58.8660   33.1570   46.0060 N   0  0  0  0  0  0  0  0  0  0  0  0
   58.6010   34.0660   44.9040 C   0  0  0  0  0  0  0  0  0  0  0  0
   59.3290   35.3560   45.2580 C   0  0  0  0  0  0  0  0  0  0  0  0
   59.6460   35.2660   46.7490 C   0  0  0  0  0  0  0  0  0  0  0  0
   59.5730   33.7870   47.1060 C   0  0  0  0  0  0  0  0  0  0  0  0
   57.4130   31.3730   45.2500 N   0  0  0  0  0  0  0  0  0  0  0  0
   57.0788   31.4237   43.2490 H   0  0  0  0  0  0  0  0  0  0  0  0
   57.5466   30.4509   41.8133 H   0  0  0  0  0  0  0  0  0  0  0  0
   56.0009   31.3660   41.8133 H   0  0  0  0  0  0  0  0  0  0  0  0
   54.9597   29.5402   42.6259 H   0  0  0  0  0  0  0  0  0  0  0  0
   56.5378   28.6695   42.7370 H   0  0  0  0  0  0  0  0  0  0  0  0
   57.3932   28.0757   46.0020 H   0  0  0  0  0  0  0  0  0  0  0  0
   59.9352   26.9848   46.2058 H   0  0  0  0  0  0  0  0  0  0  0  0
   61.2349   25.7056   48.1030 H   0  0  0  0  0  0  0  0  0  0  0  0
   59.5608   29.8089   49.5280 H   0  0  0  0  0  0  0  0  0  0  0  0
   58.9889   33.6516   43.9618 H   0  0  0  0  0  0  0  0  0  0  0  0
   57.5229   34.2313   44.7610 H   0  0  0  0  0  0  0  0  0  0  0  0
   60.2575   35.4431   44.6746 H   0  0  0  0  0  0  0  0  0  0  0  0
   58.7156   36.2401   45.0296 H   0  0  0  0  0  0  0  0  0  0  0  0
   60.6539   35.6582   46.9497 H   0  0  0  0  0  0  0  0  0  0  0  0
   58.9395   35.8599   47.3474 H   0  0  0  0  0  0  0  0  0  0  0  0
   60.5840   33.3651   47.2051 H   0  0  0  0  0  0  0  0  0  0  0  0
   59.0621   33.6237   48.0664 H   0  0  0  0  0  0  0  0  0  0  0  0
  1  2  1  0
  2  3  1  0
  3  4  1  0
  4  5  2  0
  5  6  1  0
  6  7  1  0
  7  8  1  0
  8  9  2  0
  9 10  1  0
 10 11  1  0
  6 12  2  0
 12 13  1  0
 13 14  1  0
 14 15  1  0
 15 16  1  0
 16 17  1  0
 17 18  1  0
 13 19  2  0
 19  4  1  0
 11  7  2  0
 18 14  1  0
  1 20  1  0
  1 21  1  0
  1 22  1  0
  2 23  1  0
  2 24  1  0
  5 25  1  0
  8 26  1  0
  9 27  1  0
 11 28  1  0
 15 29  1  0
 15 30  1  0
 16 31  1  0
 16 32  1  0
 17 33  1  0
 17 34  1  0
 18 35  1  0
 18 36  1  0
M  END
>  <UniqueID>  (42) 
38

>  <SMILES>  (42) 
CCOc1cc(-c2ccsc2)nc(N2CCCC2)n1

>  <Energy>  (42) 
59.326483635597235

>  <Genealogy>  (42) 
CCOc1cc(-c2ccsc2)nc(N2CCCC2)n1 (3D coordinates assigned)
CCOc1cc(-c2ccsc2)nc(N2CCCC2)n1 (nonaromatic ring conformer: 59.326483635597235 kcal/mol)

>  <smiles>  (42) 
CCOc1cc(-c2ccsc2)nc(N2CCCC2)n1

>  <score_type>  (42) 
oracle

>  <origin>  (42) 
adg

>  <m_score__min__energy>  (42) 
-6.1500000000000004

>  <m_primary>  (42) 
energy

$$$$
42:0
     RDKit          3D

 49 51  0  0  0  0  0  0  0  0999 V2000
   54.8360   26.2680   45.9990 N   0  0  0  0  0  0  0  0  0  0  0  0
   56.1140   25.9890   46.5690 C   0  0  0  0  0  0  0  0  0  0  0  0
   56.2830   24.9100   47.1990 O   0  0  0  0  0  0  0  0  0  0  0  0
   57.2310   26.9520   46.4210 C   0  0  0  0  0  0  0  0  0  0  0  0
   57.1340   28.0300   45.5240 C   0  0  0  0  0  0  0  0  0  0  0  0
   58.1900   28.9360   45.3850 C   0  0  0  0  0  0  0  0  0  0  0  0
   59.3760   28.7680   46.1190 C   0  0  0  0  0  0  0  0  0  0  0  0
   60.5110   29.7620   46.0010 C   0  0  0  0  0  0  0  0  0  0  0  0
   60.7670   30.5680   47.2900 C   0  0  0  0  0  0  0  0  0  0  0  0
   62.2400   30.9840   47.4960 C   0  0  0  0  0  0  0  0  0  0  0  0
   62.4860   32.4430   47.9680 C   0  0  1  0  0  0  0  0  0  0  0  0
   61.3340   33.3680   47.6290 C   0  0  0  0  0  0  0  0  0  0  0  0
   61.1610   33.8210   46.3110 C   0  0  0  0  0  0  0  0  0  0  0  0
   60.0860   34.6510   45.9830 C   0  0  0  0  0  0  0  0  0  0  0  0
   59.1680   35.0270   46.9660 C   0  0  0  0  0  0  0  0  0  0  0  0
   59.3240   34.5740   48.2780 C   0  0  0  0  0  0  0  0  0  0  0  0
   60.4110   33.7540   48.6190 C   0  0  0  0  0  0  0  0  0  0  0  0
   60.5420   33.2120   50.0110 C   0  0  0  0  0  0  0  0  0  0  0  0
   62.0090   33.1120   50.4300 C   0  0  0  0  0  0  0  0  0  0  0  0
   62.8750   32.5230   49.3920 N   0  0  0  0  0  0  0  0  0  0  0  0
   64.2740   32.4160   49.7080 C   0  0  0  0  0  0  0  0  0  0  0  0
   64.7090   31.5580   50.7660 N   0  0  0  0  0  0  0  0  0  0  0  0
   65.1490   33.0800   49.0160 N   0  0  0  0  0  0  0  0  0  0  0  0
   59.4540   27.7190   47.0490 C   0  0  0  0  0  0  0  0  0  0  0  0
   58.4000   26.8120   47.1890 C   0  0  0  0  0  0  0  0  0  0  0  0
   54.7540   26.7120   45.0580 H   0  0  0  0  0  0  0  0  0  0  0  0
   56.2199   28.1619   44.9265 H   0  0  0  0  0  0  0  0  0  0  0  0
   58.0913   29.7872   44.6953 H   0  0  0  0  0  0  0  0  0  0  0  0
   61.4292   29.2118   45.7476 H   0  0  0  0  0  0  0  0  0  0  0  0
   60.2253   30.4844   45.2222 H   0  0  0  0  0  0  0  0  0  0  0  0
   60.1530   31.4800   47.2540 H   0  0  0  0  0  0  0  0  0  0  0  0
   60.5045   29.9096   48.1312 H   0  0  0  0  0  0  0  0  0  0  0  0
   62.6757   30.3107   48.2489 H   0  0  0  0  0  0  0  0  0  0  0  0
   62.7045   30.9165   46.5012 H   0  0  0  0  0  0  0  0  0  0  0  0
   63.3507   32.8060   47.3931 H   0  0  0  0  0  0  0  0  0  0  0  0
   61.8767   33.5203   45.5316 H   0  0  0  0  0  0  0  0  0  0  0  0
   59.9627   35.0085   44.9500 H   0  0  0  0  0  0  0  0  0  0  0  0
   58.3217   35.6802   46.7069 H   0  0  0  0  0  0  0  0  0  0  0  0
   58.5920   34.8610   49.0472 H   0  0  0  0  0  0  0  0  0  0  0  0
   60.0148   33.8806   50.7074 H   0  0  0  0  0  0  0  0  0  0  0  0
   60.1036   32.2034   50.0346 H   0  0  0  0  0  0  0  0  0  0  0  0
   62.3763   34.1235   50.6580 H   0  0  0  0  0  0  0  0  0  0  0  0
   62.0524   32.4471   51.3052 H   0  0  0  0  0  0  0  0  0  0  0  0
   65.7220   31.4570   50.9930 H   0  0  0  0  0  0  0  0  0  0  0  0
   64.0170   31.0300   51.3350 H   0  0  0  0  0  0  0  0  0  0  0  0
   65.2310   32.9450   47.9840 H   0  0  0  0  0  0  0  0  0  0  0  0
   65.8030   33.7510   49.4770 H   0  0  0  0  0  0  0  0  0  0  0  0
   60.3531   27.6100   47.6733 H   0  0  0  0  0  0  0  0  0  0  0  0
   58.4859   25.9820   47.9058 H   0  0  0  0  0  0  0  0  0  0  0  0
  1  2  1  0
  2  3  2  0
  2  4  1  0
  4  5  2  0
  5  6  1  0
  6  7  2  0
  7  8  1  0
  8  9  1  0
  9 10  1  0
 10 11  1  0
 11 12  1  0
 12 13  2  0
 13 14  1  0
 14 15  2  0
 15 16  1  0
 16 17  2  0
 17 18  1  0
 18 19  1  0
 19 20  1  0
 20 21  1  0
 21 22  1  0
 21 23  2  0
  7 24  1  0
 24 25  2  0
 25  4  1  0
 20 11  1  0
 17 12  1  0
  1 26  1  0
  5 27  1  0
  6 28  1  0
  8 29  1  0
  8 30  1  0
  9 31  1  0
  9 32  1  0
 10 33  1  0
 10 34  1  0
 11 35  1  6
 13 36  1  0
 14 37  1  0
 15 38  1  0
 16 39  1  0
 18 40  1  0
 18 41  1  0
 19 42  1  0
 19 43  1  0
 22 44  1  0
 22 45  1  0
 23 46  1  0
 23 47  1  0
 24 48  1  0
 25 49  1  0
M  CHG  2   1  -1  23   1
M  END
>  <UniqueID>  (43) 
39

>  <SMILES>  (43) 
[NH-]C(=O)c1ccc(CCC[C@H]2c3ccccc3CCN2C(N)=[NH2+])cc1

>  <Energy>  (43) 
57.62797503776809

>  <Genealogy>  (43) 
[NH-]C(=O)c1ccc(CCCC2c3ccccc3CCN2C(N)=[NH2+])cc1 (protonated)
[NH-]C(=O)c1ccc(CCC[C@H]2c3ccccc3CCN2C(N)=[NH2+])cc1 (chirality)
[NH-]C(=O)c1ccc(CCC[C@H]2c3ccccc3CCN2C(N)=[NH2+])cc1 (3D coordinates assigned)
[NH-]C(=O)c1ccc(CCC[C@H]2c3ccccc3CCN2C(N)=[NH2+])cc1 (nonaromatic ring conformer: 57.62797503776809 kcal/mol)

>  <smiles>  (43) 
N=C(N)N1CCc2ccccc2C1CCCc1ccc(C(N)=O)cc1

>  <score_type>  (43) 
oracle

>  <origin>  (43) 
adg

>  <m_score__min__energy>  (43) 
-10.539999999999999

>  <m_primary>  (43) 
energy

$$$$
43:0
     RDKit          3D

 31 32  0  0  0  0  0  0  0  0999 V2000
   55.1450   27.5250   45.3870 H   0  0  0  0  0  0  0  0  0  0  0  0
   55.4650   26.7150   45.9640 N   0  0  0  0  0  0  0  0  0  0  0  0
   56.7210   26.4250   46.0740 C   0  0  0  0  0  0  0  0  0  0  0  0
   57.3590   25.3780   47.2240 S   0  0  0  0  0  0  0  0  0  0  0  0
   58.9420   25.5930   46.6870 C   0  0  0  0  0  0  0  0  0  0  0  0
   59.8361   25.1113   47.1094 H   0  0  0  0  0  0  0  0  0  0  0  0
   58.9250   26.4840   45.6180 C   0  0  0  0  0  0  0  0  0  0  0  0
   59.8393   26.7968   45.0924 H   0  0  0  0  0  0  0  0  0  0  0  0
   57.6870   26.9390   45.2730 N   0  0  0  0  0  0  0  0  0  0  0  0
   57.4570   27.9170   44.2070 C   0  0  0  0  0  0  0  0  0  0  0  0
   58.3486   27.9725   43.5651 H   0  0  0  0  0  0  0  0  0  0  0  0
   56.5870   27.6036   43.6112 H   0  0  0  0  0  0  0  0  0  0  0  0
   57.1870   29.2670   44.7990 C   0  0  0  0  0  0  0  0  0  0  0  0
   56.0160   29.5550   45.1680 O   0  0  0  0  0  0  0  0  0  0  0  0
   58.2710   30.1800   45.0250 N   0  0  0  0  0  0  0  0  0  0  0  0
   59.2450   29.8030   44.9600 H   0  0  0  0  0  0  0  0  0  0  0  0
   58.1040   31.5410   45.4570 C   0  0  0  0  0  0  0  0  0  0  0  0
   57.2730   32.4360   44.7580 C   0  0  0  0  0  0  0  0  0  0  0  0
   56.7204   32.0918   43.8714 H   0  0  0  0  0  0  0  0  0  0  0  0
   57.1470   33.7610   45.1860 C   0  0  0  0  0  0  0  0  0  0  0  0
   56.4893   34.4535   44.6402 H   0  0  0  0  0  0  0  0  0  0  0  0
   57.8540   34.2080   46.3050 C   0  0  0  0  0  0  0  0  0  0  0  0
   57.7482   35.2495   46.6428 H   0  0  0  0  0  0  0  0  0  0  0  0
   58.6970   33.3300   46.9960 C   0  0  0  0  0  0  0  0  0  0  0  0
   59.6180   33.9080   48.4220 S   0  0  0  0  0  0  0  0  0  0  0  0
   61.2200   33.8590   47.5590 C   0  0  0  0  0  0  0  0  0  0  0  0
   62.0341   33.8341   48.2983 H   0  0  0  0  0  0  0  0  0  0  0  0
   61.2695   32.9589   46.9286 H   0  0  0  0  0  0  0  0  0  0  0  0
   61.3244   34.7544   46.9286 H   0  0  0  0  0  0  0  0  0  0  0  0
   58.8300   32.0050   46.5650 C   0  0  0  0  0  0  0  0  0  0  0  0
   59.5082   31.3226   47.0983 H   0  0  0  0  0  0  0  0  0  0  0  0
  1  2  1  0
  2  3  2  0
  3  4  1  0
  4  5  1  0
  5  6  1  0
  5  7  2  0
  7  8  1  0
  7  9  1  0
  9 10  1  0
 10 11  1  0
 10 12  1  0
 10 13  1  0
 13 14  2  0
 13 15  1  0
 15 16  1  0
 15 17  1  0
 17 18  2  0
 18 19  1  0
 18 20  1  0
 20 21  1  0
 20 22  2  0
 22 23  1  0
 22 24  1  0
 24 25  1  0
 25 26  1  0
 26 27  1  0
 26 28  1  0
 26 29  1  0
 24 30  2  0
 30 31  1  0
  9  3  1  0
 30 17  1  0
M  END
>  <UniqueID>  (44) 
40

>  <SMILES>  (44) 
[H]/N=c1\sccn1CC(=O)Nc1cccc(SC)c1

>  <Energy>  (44) 
58.699355862390895

>  <Genealogy>  (44) 
[H]/N=c1\sccn1CC(=O)Nc1cccc(SC)c1 (cis-trans isomerization)
[H]/N=c1\sccn1CC(=O)Nc1cccc(SC)c1 (3D coordinates assigned)
[H]/N=c1\sccn1CC(=O)Nc1cccc(SC)c1 (optimized conformer: 58.699355862390895 kcal/mol)

>  <smiles>  (44) 
CSc1cccc(NC(=O)Cn2ccsc2=N)c1

>  <score_type>  (44) 
oracle

>  <origin>  (44) 
adg

>  <m_score__min__energy>  (44) 
-6.9400000000000004

>  <m_primary>  (44) 
energy

$$$$
44:0
     RDKit          3D

 82 85  0  0  0  0  0  0  0  0999 V2000
   63.7590   32.4290   48.2710 C   0  0  0  0  0  0  0  0  0  0  0  0
   62.8040   33.2830   47.5530 N   0  0  0  0  0  0  0  0  0  0  0  0
   63.4770   33.9040   46.3980 C   0  0  0  0  0  0  0  0  0  0  0  0
   61.6230   32.4990   47.1250 C   0  0  0  0  0  0  0  0  0  0  0  0
   61.7320   31.0520   47.6240 C   0  0  0  0  0  0  0  0  0  0  0  0
   61.1150   30.0540   46.6430 C   0  0  0  0  0  0  0  0  0  0  0  0
   60.4140   28.9960   47.3630 N   0  0  0  0  0  0  0  0  0  0  0  0
   59.2680   29.1950   48.2060 C   0  0  0  0  0  0  0  0  0  0  0  0
   58.1270   29.2580   47.6750 O   0  0  0  0  0  0  0  0  0  0  0  0
   59.3900   29.3820   49.6680 C   0  0  0  0  0  0  0  0  0  0  0  0
   60.5730   29.0040   50.3230 C   0  0  0  0  0  0  0  0  0  0  0  0
   60.6870   29.1480   51.7070 C   0  0  0  0  0  0  0  0  0  0  0  0
   59.6250   29.6710   52.4490 C   0  0  0  0  0  0  0  0  0  0  0  0
   58.4510   30.0970   51.8040 C   0  0  0  0  0  0  0  0  0  0  0  0
   57.2740   30.6080   52.6010 C   0  0  0  0  0  0  0  0  0  0  0  0
   57.2920   32.1270   52.8320 C   0  0  0  0  0  0  0  0  0  0  0  0
   58.5690   32.5890   53.4000 N   0  0  0  0  0  0  0  0  0  0  0  0
   59.4620   32.9790   52.3320 C   0  0  0  0  0  0  0  0  0  0  0  0
   58.9400   33.1880   51.0410 C   0  0  0  0  0  0  0  0  0  0  0  0
   59.7790   33.5180   49.9700 C   0  0  0  0  0  0  0  0  0  0  0  0
   59.2420   33.6970   48.6570 N   0  0  0  0  0  0  0  0  0  0  0  0
   59.4900   34.9440   47.9300 C   0  0  0  0  0  0  0  0  0  0  0  0
   59.6660   34.6830   46.4170 C   0  0  0  0  0  0  0  0  0  0  0  0
   59.0340   33.4190   45.9510 N   0  0  0  0  0  0  0  0  0  0  0  0
   58.7280   33.4620   44.5020 C   0  0  0  0  0  0  0  0  0  0  0  0
   57.3710   32.8160   44.1940 C   0  0  0  0  0  0  0  0  0  0  0  0
   57.4180   31.3260   44.3990 C   0  0  0  0  0  0  0  0  0  0  0  0
   58.6390   30.6370   44.3480 C   0  0  0  0  0  0  0  0  0  0  0  0
   58.6490   29.2500   44.5120 C   0  0  0  0  0  0  0  0  0  0  0  0
   57.4500   28.5660   44.7130 C   0  0  0  0  0  0  0  0  0  0  0  0
   56.2520   29.2820   44.7480 C   0  0  0  0  0  0  0  0  0  0  0  0
   56.2600   30.6340   44.5880 N   0  0  0  0  0  0  0  0  0  0  0  0
   57.8320   33.0850   46.7350 C   0  0  0  0  0  0  0  0  0  0  0  0
   58.2550   32.7350   48.1620 C   0  0  0  0  0  0  0  0  0  0  0  0
   61.1510   33.6600   50.1840 C   0  0  0  0  0  0  0  0  0  0  0  0
   61.6880   33.4570   51.4560 C   0  0  0  0  0  0  0  0  0  0  0  0
   60.8650   33.0970   52.5340 C   0  0  0  0  0  0  0  0  0  0  0  0
   61.4730   32.8280   53.8030 N   0  0  0  0  0  0  0  0  0  0  0  0
   58.3450   29.9570   50.4100 C   0  0  0  0  0  0  0  0  0  0  0  0
   63.6195   32.5538   49.3550 H   0  0  0  0  0  0  0  0  0  0  0  0
   63.5877   31.3773   47.9979 H   0  0  0  0  0  0  0  0  0  0  0  0
   64.7851   32.7163   47.9979 H   0  0  0  0  0  0  0  0  0  0  0  0
   64.2417   34.6096   46.7550 H   0  0  0  0  0  0  0  0  0  0  0  0
   63.9549   33.1229   45.7885 H   0  0  0  0  0  0  0  0  0  0  0  0
   62.7367   34.4430   45.7885 H   0  0  0  0  0  0  0  0  0  0  0  0
   60.7135   32.9580   47.5400 H   0  0  0  0  0  0  0  0  0  0  0  0
   61.5767   32.4949   46.0260 H   0  0  0  0  0  0  0  0  0  0  0  0
   62.7949   30.8035   47.7604 H   0  0  0  0  0  0  0  0  0  0  0  0
   61.1787   30.9794   48.5720 H   0  0  0  0  0  0  0  0  0  0  0  0
   60.4031   30.5808   45.9905 H   0  0  0  0  0  0  0  0  0  0  0  0
   61.9184   29.6031   46.0420 H   0  0  0  0  0  0  0  0  0  0  0  0
   61.4129   28.5930   49.7437 H   0  0  0  0  0  0  0  0  0  0  0  0
   61.6158   28.8488   52.2148 H   0  0  0  0  0  0  0  0  0  0  0  0
   59.7080   29.7498   53.5430 H   0  0  0  0  0  0  0  0  0  0  0  0
   56.3514   30.3507   52.0602 H   0  0  0  0  0  0  0  0  0  0  0  0
   57.3286   30.1333   53.5918 H   0  0  0  0  0  0  0  0  0  0  0  0
   57.1289   32.6335   51.8693 H   0  0  0  0  0  0  0  0  0  0  0  0
   56.4959   32.3681   53.5518 H   0  0  0  0  0  0  0  0  0  0  0  0
   58.3900   33.4120   54.0230 H   0  0  0  0  0  0  0  0  0  0  0  0
   59.0070   31.8520   53.9970 H   0  0  0  0  0  0  0  0  0  0  0  0
   57.8575   33.0906   50.8716 H   0  0  0  0  0  0  0  0  0  0  0  0
   58.6374   35.6226   48.0803 H   0  0  0  0  0  0  0  0  0  0  0  0
   60.4165   35.3940   48.3160 H   0  0  0  0  0  0  0  0  0  0  0  0
   59.2150   35.5209   45.8652 H   0  0  0  0  0  0  0  0  0  0  0  0
   60.7460   34.5906   46.2300 H   0  0  0  0  0  0  0  0  0  0  0  0
   58.7074   34.5112   44.1721 H   0  0  0  0  0  0  0  0  0  0  0  0
   59.5074   32.8986   43.9680 H   0  0  0  0  0  0  0  0  0  0  0  0
   56.6094   33.2460   44.8611 H   0  0  0  0  0  0  0  0  0  0  0  0
   57.1218   33.0148   43.1412 H   0  0  0  0  0  0  0  0  0  0  0  0
   59.5788   31.1835   44.1806 H   0  0  0  0  0  0  0  0  0  0  0  0
   59.6002   28.6983   44.4827 H   0  0  0  0  0  0  0  0  0  0  0  0
   57.4484   27.4737   44.8426 H   0  0  0  0  0  0  0  0  0  0  0  0
   55.3004   28.7531   44.9051 H   0  0  0  0  0  0  0  0  0  0  0  0
   57.1507   33.9484   46.7528 H   0  0  0  0  0  0  0  0  0  0  0  0
   57.3144   32.2286   46.2783 H   0  0  0  0  0  0  0  0  0  0  0  0
   57.3710   32.7548   48.8163 H   0  0  0  0  0  0  0  0  0  0  0  0
   58.7060   31.7317   48.1625 H   0  0  0  0  0  0  0  0  0  0  0  0
   61.8110   33.9328   49.3474 H   0  0  0  0  0  0  0  0  0  0  0  0
   62.7693   33.5807   51.6155 H   0  0  0  0  0  0  0  0  0  0  0  0
   61.7720   31.8740   54.0910 H   0  0  0  0  0  0  0  0  0  0  0  0
   61.7200   33.6150   54.4470 H   0  0  0  0  0  0  0  0  0  0  0  0
   57.4357   30.3007   49.8951 H   0  0  0  0  0  0  0  0  0  0  0  0
  1  2  1  0
  2  3  1  0
  2  4  1  0
  4  5  1  0
  5  6  1  0
  6  7  1  0
  7  8  1  0
  8  9  2  0
  8 10  1  0
 10 11  2  0
 11 12  1  0
 12 13  2  0
 13 14  1  0
 14 15  1  0
 15 16  1  0
 16 17  1  0
 17 18  1  0
 18 19  2  0
 19 20  1  0
 20 21  1  0
 21 22  1  0
 22 23  1  0
 23 24  1  0
 24 25  1  0
 25 26  1  0
 26 27  1  0
 27 28  2  0
 28 29  1  0
 29 30  2  0
 30 31  1  0
 31 32  2  0
 24 33  1  0
 33 34  1  0
 20 35  2  0
 35 36  1  0
 36 37  2  0
 37 38  1  0
 14 39  2  0
 39 10  1  0
 37 18  1  0
 34 21  1  0
 32 27  1  0
  1 40  1  0
  1 41  1  0
  1 42  1  0
  3 43  1  0
  3 44  1  0
  3 45  1  0
  4 46  1  0
  4 47  1  0
  5 48  1  0
  5 49  1  0
  6 50  1  0
  6 51  1  0
 11 52  1  0
 12 53  1  0
 13 54  1  0
 15 55  1  0
 15 56  1  0
 16 57  1  0
 16 58  1  0
 17 59  1  0
 17 60  1  0
 19 61  1  0
 22 62  1  0
 22 63  1  0
 23 64  1  0
 23 65  1  0
 25 66  1  0
 25 67  1  0
 26 68  1  0
 26 69  1  0
 28 70  1  0
 29 71  1  0
 30 72  1  0
 31 73  1  0
 33 74  1  0
 33 75  1  0
 34 76  1  0
 34 77  1  0
 35 78  1  0
 36 79  1  0
 38 80  1  0
 38 81  1  0
 39 82  1  0
M  CHG  2   7  -1  17   1
M  END
>  <UniqueID>  (45) 
41

>  <SMILES>  (45) 
CN(C)CCC[N-]C(=O)c1cccc(CC[NH2+]c2cc(N3CCN(CCc4ccccn4)CC3)ccc2N)c1

>  <Energy>  (45) 
95.30333099051732

>  <Genealogy>  (45) 
CN(C)CCC[N-]C(=O)c1cccc(CC[NH2+]c2cc(N3CCN(CCc4ccccn4)CC3)ccc2N)c1 (protonated)
CN(C)CCC[N-]C(=O)c1cccc(CC[NH2+]c2cc(N3CCN(CCc4ccccn4)CC3)ccc2N)c1 (3D coordinates assigned)
CN(C)CCC[N-]C(=O)c1cccc(CC[NH2+]c2cc(N3CCN(CCc4ccccn4)CC3)ccc2N)c1 (nonaromatic ring conformer: 95.30333099051732 kcal/mol)

>  <smiles>  (45) 
CN(C)CCCNC(=O)c1cccc(CCNc2cc(N3CCN(CCc4ccccn4)CC3)ccc2N)c1

>  <score_type>  (45) 
oracle

>  <origin>  (45) 
adg

>  <m_score__min__energy>  (45) 
-9.9800000000000004

>  <m_primary>  (45) 
energy

$$$$
45:0
     RDKit          3D

 41 42  0  0  0  0  0  0  0  0999 V2000
   60.7290   27.3000   49.2640 C   0  0  0  0  0  0  0  0  0  0  0  0
   60.4530   26.9470   47.9130 O   0  0  0  0  0  0  0  0  0  0  0  0
   59.5620   27.6390   47.0770 C   0  0  0  0  0  0  0  0  0  0  0  0
   59.8820   28.8910   46.5190 C   0  0  0  0  0  0  0  0  0  0  0  0
   58.9640   29.5570   45.7050 C   0  0  0  0  0  0  0  0  0  0  0  0
   57.7160   28.9850   45.4370 C   0  0  0  0  0  0  0  0  0  0  0  0
   56.5260   29.8470   44.4660 S   0  0  0  0  0  0  0  0  0  0  0  0
   55.1500   29.3510   44.8130 O   0  0  0  0  0  0  0  0  0  0  0  0
   56.7690   29.6030   43.0020 O   0  0  0  0  0  0  0  0  0  0  0  0
   56.6330   31.5460   44.8150 N   0  0  0  0  0  0  0  0  0  0  0  0
   57.7230   32.1720   44.0560 C   0  0  0  0  0  0  0  0  0  0  0  0
   57.9120   33.6180   44.5140 C   0  0  0  0  0  0  0  0  0  0  0  0
   58.5890   33.6770   45.8600 C   0  0  0  0  0  0  0  0  0  0  0  0
   59.6970   34.5160   46.0640 C   0  0  0  0  0  0  0  0  0  0  0  0
   60.3040   34.5880   47.3220 C   0  0  0  0  0  0  0  0  0  0  0  0
   59.8030   33.8340   48.3870 C   0  0  0  0  0  0  0  0  0  0  0  0
   58.6910   33.0090   48.1960 C   0  0  0  0  0  0  0  0  0  0  0  0
   58.0820   32.9320   46.9390 C   0  0  0  0  0  0  0  0  0  0  0  0
   57.3920   27.7400   45.9880 C   0  0  0  0  0  0  0  0  0  0  0  0
   58.3140   27.0580   46.8060 C   0  0  0  0  0  0  0  0  0  0  0  0
   58.0210   25.8090   47.3790 O   0  0  0  0  0  0  0  0  0  0  0  0
   57.4320   24.7190   46.6770 C   0  0  0  0  0  0  0  0  0  0  0  0
   60.1938   26.6155   49.9385 H   0  0  0  0  0  0  0  0  0  0  0  0
   61.8108   27.2255   49.4488 H   0  0  0  0  0  0  0  0  0  0  0  0
   60.3957   28.3319   49.4488 H   0  0  0  0  0  0  0  0  0  0  0  0
   60.8613   29.3474   46.7256 H   0  0  0  0  0  0  0  0  0  0  0  0
   59.2230   30.5349   45.2729 H   0  0  0  0  0  0  0  0  0  0  0  0
   55.7270   31.9830   44.5270 H   0  0  0  0  0  0  0  0  0  0  0  0
   58.6541   31.6112   44.2249 H   0  0  0  0  0  0  0  0  0  0  0  0
   57.4716   32.1611   42.9852 H   0  0  0  0  0  0  0  0  0  0  0  0
   58.5311   34.1503   43.7768 H   0  0  0  0  0  0  0  0  0  0  0  0
   56.9219   34.0895   44.5999 H   0  0  0  0  0  0  0  0  0  0  0  0
   60.0887   35.1186   45.2313 H   0  0  0  0  0  0  0  0  0  0  0  0
   61.1774   35.2393   47.4736 H   0  0  0  0  0  0  0  0  0  0  0  0
   60.2836   33.8899   49.3749 H   0  0  0  0  0  0  0  0  0  0  0  0
   58.2941   32.4193   49.0355 H   0  0  0  0  0  0  0  0  0  0  0  0
   57.2033   32.2862   46.7943 H   0  0  0  0  0  0  0  0  0  0  0  0
   56.4097   27.2905   45.7807 H   0  0  0  0  0  0  0  0  0  0  0  0
   57.0373   23.9886   47.3986 H   0  0  0  0  0  0  0  0  0  0  0  0
   56.6117   25.0902   46.0451 H   0  0  0  0  0  0  0  0  0  0  0  0
   58.1920   24.2363   46.0451 H   0  0  0  0  0  0  0  0  0  0  0  0
  1  2  1  0
  2  3  1  0
  3  4  2  0
  4  5  1  0
  5  6  2  0
  6  7  1  0
  7  8  2  0
  7  9  2  0
  7 10  1  0
 10 11  1  0
 11 12  1  0
 12 13  1  0
 13 14  2  0
 14 15  1  0
 15 16  2  0
 16 17  1  0
 17 18  2  0
  6 19  1  0
 19 20  2  0
 20 21  1  0
 21 22  1  0
 20  3  1  0
 18 13  1  0
  1 23  1  0
  1 24  1  0
  1 25  1  0
  4 26  1  0
  5 27  1  0
 10 28  1  0
 11 29  1  0
 11 30  1  0
 12 31  1  0
 12 32  1  0
 14 33  1  0
 15 34  1  0
 16 35  1  0
 17 36  1  0
 18 37  1  0
 19 38  1  0
 22 39  1  0
 22 40  1  0
 22 41  1  0
M  END
>  <UniqueID>  (46) 
42

>  <SMILES>  (46) 
COc1ccc(S(=O)(=O)NCCc2ccccc2)cc1OC

>  <Energy>  (46) 
31.143683082691304

>  <Genealogy>  (46) 
COc1ccc(S(=O)(=O)NCCc2ccccc2)cc1OC (3D coordinates assigned)
COc1ccc(S(=O)(=O)NCCc2ccccc2)cc1OC (optimized conformer: 31.143683082691304 kcal/mol)

>  <smiles>  (46) 
COc1ccc(S(=O)(=O)NCCc2ccccc2)cc1OC

>  <score_type>  (46) 
oracle

>  <origin>  (46) 
adg

>  <m_score__min__energy>  (46) 
-7.4400000000000004

>  <m_primary>  (46) 
energy

$$$$
46:0
     RDKit          3D

 28 30  0  0  0  0  0  0  0  0999 V2000
   56.8930   30.4850   43.9120 C   0  0  0  0  0  0  0  0  0  0  0  0
   57.0170   31.0650   45.2070 O   0  0  0  0  0  0  0  0  0  0  0  0
   57.6790   32.2730   45.4740 C   0  0  0  0  0  0  0  0  0  0  0  0
   57.4140   33.3710   44.6500 C   0  0  0  0  0  0  0  0  0  0  0  0
   58.0520   34.5920   44.8720 C   0  0  0  0  0  0  0  0  0  0  0  0
   58.9600   34.7300   45.9230 C   0  0  0  0  0  0  0  0  0  0  0  0
   59.2360   33.6440   46.7690 C   0  0  0  0  0  0  0  0  0  0  0  0
   60.1750   33.7920   47.8520 N   0  0  0  0  0  0  0  0  0  0  0  0
   59.8740   34.1830   49.0890 N   0  0  0  0  0  0  0  0  0  0  0  0
   60.9470   34.2110   49.8810 N   0  0  0  0  0  0  0  0  0  0  0  0
   61.9690   33.8150   49.1020 C   0  0  0  0  0  0  0  0  0  0  0  0
   63.3060   33.6240   49.4220 C   0  0  0  0  0  0  0  0  0  0  0  0
   64.1460   33.1480   48.3960 C   0  0  0  0  0  0  0  0  0  0  0  0
   63.6080   32.8770   47.1120 C   0  0  0  0  0  0  0  0  0  0  0  0
   62.2790   33.0800   46.8570 N   0  0  0  0  0  0  0  0  0  0  0  0
   61.4970   33.5590   47.8560 C   0  0  0  0  0  0  0  0  0  0  0  0
   58.5960   32.4130   46.5350 C   0  0  0  0  0  0  0  0  0  0  0  0
   56.6640   29.4136   44.0105 H   0  0  0  0  0  0  0  0  0  0  0  0
   56.0813   30.9845   43.3627 H   0  0  0  0  0  0  0  0  0  0  0  0
   57.8379   30.6090   43.3627 H   0  0  0  0  0  0  0  0  0  0  0  0
   56.6977   33.2717   43.8211 H   0  0  0  0  0  0  0  0  0  0  0  0
   57.8385   35.4490   44.2162 H   0  0  0  0  0  0  0  0  0  0  0  0
   59.4619   35.6946   46.0893 H   0  0  0  0  0  0  0  0  0  0  0  0
   58.9180   34.4550   49.4090 H   0  0  0  0  0  0  0  0  0  0  0  0
   63.6920   33.8346   50.4303 H   0  0  0  0  0  0  0  0  0  0  0  0
   65.2167   32.9869   48.5903 H   0  0  0  0  0  0  0  0  0  0  0  0
   64.2649   32.5003   46.3141 H   0  0  0  0  0  0  0  0  0  0  0  0
   58.8131   31.5529   47.1855 H   0  0  0  0  0  0  0  0  0  0  0  0
  1  2  1  0
  2  3  1  0
  3  4  2  0
  4  5  1  0
  5  6  2  0
  6  7  1  0
  7  8  1  0
  8  9  1  0
  9 10  2  0
 10 11  1  0
 11 12  2  0
 12 13  1  0
 13 14  2  0
 14 15  1  0
 15 16  2  0
  7 17  2  0
 17  3  1  0
 16  8  1  0
 16 11  1  0
  1 18  1  0
  1 19  1  0
  1 20  1  0
  4 21  1  0
  5 22  1  0
  6 23  1  0
  9 24  1  0
 12 25  1  0
 13 26  1  0
 14 27  1  0
 17 28  1  0
M  CHG  1   9   1
M  END
>  <UniqueID>  (47) 
43

>  <SMILES>  (47) 
COc1cccc(-n2[nH+]nc3cccnc32)c1

>  <Energy>  (47) 
81.54917887704586

>  <Genealogy>  (47) 
COc1cccc(-n2[nH+]nc3cccnc32)c1 (protonated)
COc1cccc(-n2[nH+]nc3cccnc32)c1 (3D coordinates assigned)
COc1cccc(-n2[nH+]nc3cccnc32)c1 (optimized conformer: 81.54917887704586 kcal/mol)

>  <smiles>  (47) 
COc1cccc(-n2nnc3cccnc32)c1

>  <score_type>  (47) 
oracle

>  <origin>  (47) 
adg

>  <m_score__min__energy>  (47) 
-6.0300000000000002

>  <m_primary>  (47) 
energy

$$$$
