0:0
     RDKit          3D

 47 49  0  0  0  0  0  0  0  0999 V2000
   61.5970   30.4890   50.0850 C   0  0  0  0  0  0  0  0  0  0  0  0
   61.0280   31.1740   48.9740 O   0  0  0  0  0  0  0  0  0  0  0  0
   61.7250   32.0650   48.1410 C   0  0  0  0  0  0  0  0  0  0  0  0
   63.0940   31.8900   47.8540 C   0  0  0  0  0  0  0  0  0  0  0  0
   63.7600   32.7800   47.0080 C   0  0  0  0  0  0  0  0  0  0  0  0
   63.0720   33.8460   46.4320 C   0  0  0  0  0  0  0  0  0  0  0  0
   61.7170   34.0330   46.7060 C   0  0  0  0  0  0  0  0  0  0  0  0
   61.0320   33.1590   47.5740 C   0  0  0  0  0  0  0  0  0  0  0  0
   59.5440   33.3450   47.8310 C   0  0  1  0  0  0  0  0  0  0  0  0
   58.8130   32.2150   47.4270 O   0  0  0  0  0  0  0  0  0  0  0  0
   59.2740   33.6410   49.3160 C   0  0  0  0  0  0  0  0  0  0  0  0
   58.8240   32.4490   50.0320 N   0  0  0  0  0  0  0  0  0  0  0  0
   58.1860   32.5040   51.3170 C   0  0  0  0  0  0  0  0  0  0  0  0
   58.1810   33.5800   51.9760 O   0  0  0  0  0  0  0  0  0  0  0  0
   57.5270   31.3110   51.8690 C   0  0  0  0  0  0  0  0  0  0  0  0
   56.8390   31.2430   53.0640 C   0  0  0  0  0  0  0  0  0  0  0  0
   56.3940   29.9390   53.1000 C   0  0  0  0  0  0  0  0  0  0  0  0
   55.5860   29.3080   54.1900 C   0  0  0  0  0  0  0  0  0  0  0  0
   54.2820   28.9720   53.7180 O   0  0  0  0  0  0  0  0  0  0  0  0
   53.4370   29.8300   52.9940 C   0  0  0  0  0  0  0  0  0  0  0  0
   52.5130   30.6930   53.6180 C   0  0  0  0  0  0  0  0  0  0  0  0
   51.7030   31.5330   52.8470 C   0  0  0  0  0  0  0  0  0  0  0  0
   51.8030   31.5180   51.4530 C   0  0  0  0  0  0  0  0  0  0  0  0
   51.0160   32.3330   50.7080 F   0  0  0  0  0  0  0  0  0  0  0  0
   52.7120   30.6610   50.8280 C   0  0  0  0  0  0  0  0  0  0  0  0
   53.5260   29.8210   51.5960 C   0  0  0  0  0  0  0  0  0  0  0  0
   56.8050   29.3150   52.0200 O   0  0  0  0  0  0  0  0  0  0  0  0
   57.4880   30.1130   51.2520 N   0  0  0  0  0  0  0  0  0  0  0  0
   61.2265   30.9351   51.0197 H   0  0  0  0  0  0  0  0  0  0  0  0
   61.3112   29.4275   50.0468 H   0  0  0  0  0  0  0  0  0  0  0  0
   62.6929   30.5752   50.0468 H   0  0  0  0  0  0  0  0  0  0  0  0
   63.6418   31.0465   48.2995 H   0  0  0  0  0  0  0  0  0  0  0  0
   64.8301   32.6389   46.7960 H   0  0  0  0  0  0  0  0  0  0  0  0
   63.5978   34.5408   45.7606 H   0  0  0  0  0  0  0  0  0  0  0  0
   61.1778   34.8709   46.2400 H   0  0  0  0  0  0  0  0  0  0  0  0
   59.2126   34.2069   47.2333 H   0  0  0  0  0  0  0  0  0  0  0  0
   59.3360   31.4190   47.7100 H   0  0  0  0  0  0  0  0  0  0  0  0
   60.2013   34.0071   49.7808 H   0  0  0  0  0  0  0  0  0  0  0  0
   58.4777   34.3976   49.3754 H   0  0  0  0  0  0  0  0  0  0  0  0
   58.9680   31.5200   49.5740 H   0  0  0  0  0  0  0  0  0  0  0  0
   56.6834   32.0380   53.8082 H   0  0  0  0  0  0  0  0  0  0  0  0
   56.0930   28.3941   54.5331 H   0  0  0  0  0  0  0  0  0  0  0  0
   55.4894   30.0237   55.0197 H   0  0  0  0  0  0  0  0  0  0  0  0
   52.4289   30.7057   54.7147 H   0  0  0  0  0  0  0  0  0  0  0  0
   50.9859   32.2068   53.3387 H   0  0  0  0  0  0  0  0  0  0  0  0
   52.7880   30.6465   49.7307 H   0  0  0  0  0  0  0  0  0  0  0  0
   54.2407   29.1489   51.0985 H   0  0  0  0  0  0  0  0  0  0  0  0
  1  2  1  0
  2  3  1  0
  3  4  2  0
  4  5  1  0
  5  6  2  0
  6  7  1  0
  7  8  2  0
  8  9  1  0
  9 10  1  0
  9 11  1  0
 11 12  1  0
 12 13  1  0
 13 14  2  0
 13 15  1  0
 15 16  1  0
 16 17  2  0
 17 18  1  0
 18 19  1  0
 19 20  1  0
 20 21  2  0
 21 22  1  0
 22 23  2  0
 23 24  1  0
 23 25  1  0
 25 26  2  0
 17 27  1  0
 27 28  1  0
  8  3  1  0
 28 15  2  0
 26 20  1  0
  1 29  1  0
  1 30  1  0
  1 31  1  0
  4 32  1  0
  5 33  1  0
  6 34  1  0
  7 35  1  0
  9 36  1  6
 10 37  1  0
 11 38  1  0
 11 39  1  0
 12 40  1  0
 16 41  1  0
 18 42  1  0
 18 43  1  0
 21 44  1  0
 22 45  1  0
 25 46  1  0
 26 47  1  0
M  END
>  <UniqueID>  (1) 
1

>  <SMILES>  (1) 
COc1ccccc1[C@@H](O)CNC(=O)c1cc(COc2ccc(F)cc2)on1

>  <Energy>  (1) 
74.86839661029961

>  <Genealogy>  (1) 
COc1ccccc1[C@@H](O)CNC(=O)c1cc(COc2ccc(F)cc2)on1 (chirality)
COc1ccccc1[C@@H](O)CNC(=O)c1cc(COc2ccc(F)cc2)on1 (3D coordinates assigned)
COc1ccccc1[C@@H](O)CNC(=O)c1cc(COc2ccc(F)cc2)on1 (optimized conformer: 74.86839661029961 kcal/mol)

>  <smiles>  (1) 
COc1ccccc1C(O)CNC(=O)c1cc(COc2ccc(F)cc2)on1

>  <score_type>  (1) 
oracle

>  <origin>  (1) 
adg

>  <m_score__min__energy>  (1) 
-8.3200000000000003

>  <m_primary>  (1) 
energy

$$$$
1:0
     RDKit          3D

 32 34  0  0  0  0  0  0  0  0999 V2000
   60.2300   29.9530   48.7540 O   0  0  0  0  0  0  0  0  0  0  0  0
   60.3190   31.0640   48.1660 C   0  0  0  0  0  0  0  0  0  0  0  0
   59.1520   31.7110   47.6430 N   0  0  0  0  0  0  0  0  0  0  0  0
   59.1160   32.7990   46.7050 C   0  0  0  0  0  0  0  0  0  0  0  0
   59.4880   34.1020   47.0910 C   0  0  0  0  0  0  0  0  0  0  0  0
   59.3880   35.1630   46.1890 C   0  0  0  0  0  0  0  0  0  0  0  0
   58.9000   34.9430   44.9010 C   0  0  0  0  0  0  0  0  0  0  0  0
   58.5060   33.6620   44.5110 C   0  0  0  0  0  0  0  0  0  0  0  0
   58.6090   32.5800   45.4040 C   0  0  0  0  0  0  0  0  0  0  0  0
   58.1880   31.2300   44.9570 C   0  0  0  0  0  0  0  0  0  0  0  0
   59.0660   30.1390   45.0790 C   0  0  0  0  0  0  0  0  0  0  0  0
   58.6700   28.8630   44.6610 C   0  0  0  0  0  0  0  0  0  0  0  0
   57.3960   28.6660   44.1240 C   0  0  0  0  0  0  0  0  0  0  0  0
   56.5120   29.7420   44.0070 C   0  0  0  0  0  0  0  0  0  0  0  0
   56.9030   31.0180   44.4250 C   0  0  0  0  0  0  0  0  0  0  0  0
   61.6220   31.7310   48.0670 C   0  0  0  0  0  0  0  0  0  0  0  0
   62.6670   31.3730   47.2230 C   0  0  0  0  0  0  0  0  0  0  0  0
   63.7680   32.1630   47.3280 N   0  0  0  0  0  0  0  0  0  0  0  0
   63.6270   33.1480   48.2420 C   0  0  0  0  0  0  0  0  0  0  0  0
   62.1080   33.0750   48.9620 S   0  0  0  0  0  0  0  0  0  0  0  0
   59.8598   34.2846   48.1100 H   0  0  0  0  0  0  0  0  0  0  0  0
   59.6946   36.1742   46.4947 H   0  0  0  0  0  0  0  0  0  0  0  0
   58.8255   35.7803   44.1915 H   0  0  0  0  0  0  0  0  0  0  0  0
   58.1118   33.4973   43.4973 H   0  0  0  0  0  0  0  0  0  0  0  0
   60.0691   30.2886   45.5050 H   0  0  0  0  0  0  0  0  0  0  0  0
   59.3633   28.0143   44.7557 H   0  0  0  0  0  0  0  0  0  0  0  0
   57.0881   27.6632   43.7929 H   0  0  0  0  0  0  0  0  0  0  0  0
   55.5080   29.5852   43.5859 H   0  0  0  0  0  0  0  0  0  0  0  0
   56.2017   31.8609   44.3373 H   0  0  0  0  0  0  0  0  0  0  0  0
   62.6078   30.5219   46.5286 H   0  0  0  0  0  0  0  0  0  0  0  0
   64.6340   32.0240   46.7620 H   0  0  0  0  0  0  0  0  0  0  0  0
   64.3985   33.8944   48.4822 H   0  0  0  0  0  0  0  0  0  0  0  0
  1  2  2  0
  2  3  1  0
  3  4  1  0
  4  5  2  0
  5  6  1  0
  6  7  2  0
  7  8  1  0
  8  9  2  0
  9 10  1  0
 10 11  2  0
 11 12  1  0
 12 13  2  0
 13 14  1  0
 14 15  2  0
  2 16  1  0
 16 17  2  0
 17 18  1  0
 18 19  2  0
 19 20  1  0
  9  4  1  0
 15 10  1  0
 20 16  1  0
  5 21  1  0
  6 22  1  0
  7 23  1  0
  8 24  1  0
 11 25  1  0
 12 26  1  0
 13 27  1  0
 14 28  1  0
 15 29  1  0
 17 30  1  0
 18 31  1  0
 19 32  1  0
M  CHG  2   3  -1  18   1
M  END
>  <UniqueID>  (2) 
2

>  <SMILES>  (2) 
O=C([N-]c1ccccc1-c1ccccc1)c1c[nH+]cs1

>  <Energy>  (2) 
73.08376084324352

>  <Genealogy>  (2) 
O=C([N-]c1ccccc1-c1ccccc1)c1c[nH+]cs1 (protonated)
O=C([N-]c1ccccc1-c1ccccc1)c1c[nH+]cs1 (3D coordinates assigned)
O=C([N-]c1ccccc1-c1ccccc1)c1c[nH+]cs1 (optimized conformer: 73.08376084324352 kcal/mol)

>  <smiles>  (2) 
O=C(Nc1ccccc1-c1ccccc1)c1cncs1

>  <score_type>  (2) 
oracle

>  <origin>  (2) 
adg

>  <m_score__min__energy>  (2) 
-7.4500000000000002

>  <m_primary>  (2) 
energy

$$$$
2:0
     RDKit          3D

 36 38  0  0  0  0  0  0  0  0999 V2000
   56.2781   32.9905   45.1370 H   0  0  0  0  0  0  0  0  0  0  0  0
   57.3190   32.6350   45.1280 C   0  0  0  0  0  0  0  0  0  0  0  0
   57.6350   31.5730   44.3790 C   0  0  0  0  0  0  0  0  0  0  0  0
   57.6374   31.6828   43.2845 H   0  0  0  0  0  0  0  0  0  0  0  0
   57.9820   30.2550   44.9600 C   0  0  0  0  0  0  0  0  0  0  0  0
   59.3140   30.0340   45.3490 C   0  0  0  0  0  0  0  0  0  0  0  0
   60.0594   30.8326   45.2201 H   0  0  0  0  0  0  0  0  0  0  0  0
   59.6990   28.8110   45.8970 C   0  0  0  0  0  0  0  0  0  0  0  0
   60.7469   28.6457   46.1879 H   0  0  0  0  0  0  0  0  0  0  0  0
   58.7600   27.7980   46.0770 C   0  0  0  0  0  0  0  0  0  0  0  0
   59.0701   26.8308   46.4994 H   0  0  0  0  0  0  0  0  0  0  0  0
   57.4250   28.0080   45.7220 C   0  0  0  0  0  0  0  0  0  0  0  0
   56.6879   27.2050   45.8695 H   0  0  0  0  0  0  0  0  0  0  0  0
   57.0160   29.2420   45.1760 C   0  0  0  0  0  0  0  0  0  0  0  0
   55.6690   29.4960   44.8670 O   0  0  0  0  0  0  0  0  0  0  0  0
   55.1670   29.7210   43.5550 C   0  0  0  0  0  0  0  0  0  0  0  0
   54.1649   30.1702   43.6179 H   0  0  0  0  0  0  0  0  0  0  0  0
   55.8413   30.4030   43.0163 H   0  0  0  0  0  0  0  0  0  0  0  0
   55.1067   28.7638   43.0163 H   0  0  0  0  0  0  0  0  0  0  0  0
   58.3210   33.3420   45.9400 C   0  0  0  0  0  0  0  0  0  0  0  0
   59.4790   32.8010   46.3780 N   0  0  0  0  0  0  0  0  0  0  0  0
   60.0280   33.8300   47.0600 C   0  0  0  0  0  0  0  0  0  0  0  0
   61.3370   33.7490   47.7530 C   0  0  0  0  0  0  0  0  0  0  0  0
   62.5040   33.3470   47.0740 C   0  0  0  0  0  0  0  0  0  0  0  0
   62.4529   33.0865   46.0065 H   0  0  0  0  0  0  0  0  0  0  0  0
   63.7280   33.2770   47.7490 C   0  0  0  0  0  0  0  0  0  0  0  0
   64.6341   32.9620   47.2107 H   0  0  0  0  0  0  0  0  0  0  0  0
   63.8020   33.6060   49.1040 C   0  0  0  0  0  0  0  0  0  0  0  0
   64.7654   33.5507   49.6319 H   0  0  0  0  0  0  0  0  0  0  0  0
   62.6530   34.0050   49.7880 C   0  0  0  0  0  0  0  0  0  0  0  0
   62.7119   34.2642   50.8554 H   0  0  0  0  0  0  0  0  0  0  0  0
   61.4280   34.0760   49.1200 C   0  0  0  0  0  0  0  0  0  0  0  0
   60.5265   34.3901   49.6665 H   0  0  0  0  0  0  0  0  0  0  0  0
   59.2320   34.9190   47.0270 N   0  0  0  0  0  0  0  0  0  0  0  0
   59.3830   35.8570   47.4560 H   0  0  0  0  0  0  0  0  0  0  0  0
   58.1910   34.5870   46.3300 O   0  0  0  0  0  0  0  0  0  0  0  0
  1  2  1  0
  2  3  2  0
  3  4  1  0
  3  5  1  0
  5  6  2  0
  6  7  1  0
  6  8  1  0
  8  9  1  0
  8 10  2  0
 10 11  1  0
 10 12  1  0
 12 13  1  0
 12 14  2  0
 14 15  1  0
 15 16  1  0
 16 17  1  0
 16 18  1  0
 16 19  1  0
  2 20  1  0
 20 21  2  0
 21 22  1  0
 22 23  1  0
 23 24  2  0
 24 25  1  0
 24 26  1  0
 26 27  1  0
 26 28  2  0
 28 29  1  0
 28 30  1  0
 30 31  1  0
 30 32  2  0
 32 33  1  0
 22 34  2  0
 34 35  1  0
 34 36  1  0
 14  5  1  0
 36 20  1  0
 32 23  1  0
M  CHG  1  34   1
M  END
>  <UniqueID>  (3) 
3

>  <SMILES>  (3) 
COc1ccccc1/C=C/c1nc(-c2ccccc2)[nH+]o1

>  <Energy>  (3) 
76.98327011202842

>  <Genealogy>  (3) 
COc1ccccc1C=Cc1nc(-c2ccccc2)[nH+]o1 (protonated)
COc1ccccc1/C=C/c1nc(-c2ccccc2)[nH+]o1 (cis-trans isomerization)
COc1ccccc1/C=C/c1nc(-c2ccccc2)[nH+]o1 (3D coordinates assigned)
COc1ccccc1/C=C/c1nc(-c2ccccc2)[nH+]o1 (optimized conformer: 76.98327011202842 kcal/mol)

>  <smiles>  (3) 
COc1ccccc1C=Cc1nc(-c2ccccc2)no1

>  <score_type>  (3) 
oracle

>  <origin>  (3) 
adg

>  <m_score__min__energy>  (3) 
-6.4800000000000004

>  <m_primary>  (3) 
energy

$$$$
3:0
     RDKit          3D

 41 43  0  0  0  0  0  0  0  0999 V2000
   55.9360   29.4930   45.2360 O   0  0  0  0  0  0  0  0  0  0  0  0
   57.0370   28.8900   45.3530 C   0  0  0  0  0  0  0  0  0  0  0  0
   58.2610   29.6440   45.4530 N   0  0  0  0  0  0  0  0  0  0  0  0
   58.3330   31.0740   45.3270 C   0  0  0  0  0  0  0  0  0  0  0  0
   57.9600   31.7240   44.1370 C   0  0  0  0  0  0  0  0  0  0  0  0
   58.0510   33.1140   44.0360 C   0  0  0  0  0  0  0  0  0  0  0  0
   58.5360   33.8670   45.1080 C   0  0  0  0  0  0  0  0  0  0  0  0
   58.9640   33.2310   46.2860 C   0  0  0  0  0  0  0  0  0  0  0  0
   59.4540   34.0430   47.4580 C   0  0  0  0  0  0  0  0  0  0  0  0
   59.0360   35.3580   47.3510 F   0  0  0  0  0  0  0  0  0  0  0  0
   58.9670   33.5300   48.6480 F   0  0  0  0  0  0  0  0  0  0  0  0
   60.8370   34.0110   47.4870 F   0  0  0  0  0  0  0  0  0  0  0  0
   58.8450   31.8330   46.3910 C   0  0  0  0  0  0  0  0  0  0  0  0
   57.0420   27.4080   45.3920 C   0  0  0  0  0  0  0  0  0  0  0  0
   58.1140   26.6640   44.8660 C   0  0  0  0  0  0  0  0  0  0  0  0
   58.0990   25.2670   44.9160 C   0  0  0  0  0  0  0  0  0  0  0  0
   57.0130   24.5890   45.4870 C   0  0  0  0  0  0  0  0  0  0  0  0
   56.9980   23.1160   45.5620 C   0  0  0  0  0  0  0  0  0  0  0  0
   57.3460   22.5400   46.7470 N   0  0  0  0  0  0  0  0  0  0  0  0
   57.3980   21.1950   46.9150 C   0  0  0  0  0  0  0  0  0  0  0  0
   57.0990   20.3500   45.8510 C   0  0  0  0  0  0  0  0  0  0  0  0
   56.7240   20.8980   44.6260 C   0  0  0  0  0  0  0  0  0  0  0  0
   56.6340   22.2930   44.4630 C   0  0  0  0  0  0  0  0  0  0  0  0
   56.1900   22.8600   43.1280 C   0  0  0  0  0  0  0  0  0  0  0  0
   57.0050   23.9090   42.7420 F   0  0  0  0  0  0  0  0  0  0  0  0
   56.2340   21.8690   42.1660 F   0  0  0  0  0  0  0  0  0  0  0  0
   54.8940   23.3430   43.2010 F   0  0  0  0  0  0  0  0  0  0  0  0
   55.9600   25.3260   46.0450 C   0  0  0  0  0  0  0  0  0  0  0  0
   55.9730   26.7240   45.9970 C   0  0  0  0  0  0  0  0  0  0  0  0
   59.1490   29.1460   45.6810 H   0  0  0  0  0  0  0  0  0  0  0  0
   57.5951   31.1353   43.2824 H   0  0  0  0  0  0  0  0  0  0  0  0
   57.7396   33.6177   43.1090 H   0  0  0  0  0  0  0  0  0  0  0  0
   58.5832   34.9632   45.0298 H   0  0  0  0  0  0  0  0  0  0  0  0
   59.1568   31.3290   47.3177 H   0  0  0  0  0  0  0  0  0  0  0  0
   58.9699   27.1851   44.4123 H   0  0  0  0  0  0  0  0  0  0  0  0
   58.9446   24.6962   44.5047 H   0  0  0  0  0  0  0  0  0  0  0  0
   57.6764   20.7727   47.8918 H   0  0  0  0  0  0  0  0  0  0  0  0
   57.1581   19.2587   45.9757 H   0  0  0  0  0  0  0  0  0  0  0  0
   56.4963   20.2344   43.7788 H   0  0  0  0  0  0  0  0  0  0  0  0
   55.1189   24.8027   46.5232 H   0  0  0  0  0  0  0  0  0  0  0  0
   55.1401   27.2927   46.4362 H   0  0  0  0  0  0  0  0  0  0  0  0
  1  2  2  0
  2  3  1  0
  3  4  1  0
  4  5  2  0
  5  6  1  0
  6  7  2  0
  7  8  1  0
  8  9  1  0
  9 10  1  0
  9 11  1  0
  9 12  1  0
  8 13  2  0
  2 14  1  0
 14 15  2  0
 15 16  1  0
 16 17  2  0
 17 18  1  0
 18 19  2  0
 19 20  1  0
 20 21  2  0
 21 22  1  0
 22 23  2  0
 23 24  1  0
 24 25  1  0
 24 26  1  0
 24 27  1  0
 17 28  1  0
 28 29  2  0
 13  4  1  0
 29 14  1  0
 23 18  1  0
  3 30  1  0
  5 31  1  0
  6 32  1  0
  7 33  1  0
 13 34  1  0
 15 35  1  0
 16 36  1  0
 20 37  1  0
 21 38  1  0
 22 39  1  0
 28 40  1  0
 29 41  1  0
M  END
>  <UniqueID>  (4) 
4

>  <SMILES>  (4) 
O=C(Nc1cccc(C(F)(F)F)c1)c1ccc(-c2ncccc2C(F)(F)F)cc1

>  <Energy>  (4) 
61.51748262627827

>  <Genealogy>  (4) 
O=C(Nc1cccc(C(F)(F)F)c1)c1ccc(-c2ncccc2C(F)(F)F)cc1 (3D coordinates assigned)
O=C(Nc1cccc(C(F)(F)F)c1)c1ccc(-c2ncccc2C(F)(F)F)cc1 (optimized conformer: 61.51748262627827 kcal/mol)

>  <smiles>  (4) 
O=C(Nc1cccc(C(F)(F)F)c1)c1ccc(-c2ncccc2C(F)(F)F)cc1

>  <score_type>  (4) 
oracle

>  <origin>  (4) 
adg

>  <m_score__min__energy>  (4) 
-7.04

>  <m_primary>  (4) 
energy

$$$$
4:0
     RDKit          3D

 40 42  0  0  0  0  0  0  0  0999 V2000
   65.4540   32.3350   50.1160 C   0  0  0  0  0  0  0  0  0  0  0  0
   64.6990   33.5210   49.8870 O   0  0  0  0  0  0  0  0  0  0  0  0
   63.6260   33.6150   48.9890 C   0  0  0  0  0  0  0  0  0  0  0  0
   62.3670   33.9660   49.4920 C   0  0  0  0  0  0  0  0  0  0  0  0
   61.2650   34.0730   48.6380 C   0  0  0  0  0  0  0  0  0  0  0  0
   61.4050   33.8290   47.2630 C   0  0  0  0  0  0  0  0  0  0  0  0
   60.2390   33.9450   46.3650 C   0  0  0  0  0  0  0  0  0  0  0  0
   59.4930   32.8930   45.9650 N   0  0  0  0  0  0  0  0  0  0  0  0
   58.5620   33.4630   45.1770 C   0  0  0  0  0  0  0  0  0  0  0  0
   57.5010   32.6970   44.4380 C   0  0  0  0  0  0  0  0  0  0  0  0
   58.0450   31.4720   43.7990 N   0  0  0  0  0  0  0  0  0  0  0  0
   57.0300   30.7970   42.9540 C   0  0  0  0  0  0  0  0  0  0  0  0
   55.8940   30.1640   43.7730 C   0  0  0  0  0  0  0  0  0  0  0  0
   56.4500   29.3430   44.8990 C   0  0  0  0  0  0  0  0  0  0  0  0
   55.8950   28.3070   45.2320 O   0  0  0  0  0  0  0  0  0  0  0  0
   57.6160   29.8580   45.6890 C   0  0  0  0  0  0  0  0  0  0  0  0
   58.6490   30.5190   44.7630 C   0  0  0  0  0  0  0  0  0  0  0  0
   58.7740   34.8210   45.1150 C   0  0  0  0  0  0  0  0  0  0  0  0
   59.8160   35.0860   45.8630 O   0  0  0  0  0  0  0  0  0  0  0  0
   62.6680   33.4780   46.7560 C   0  0  0  0  0  0  0  0  0  0  0  0
   63.7700   33.3710   47.6100 C   0  0  0  0  0  0  0  0  0  0  0  0
   65.5588   32.1704   51.1985 H   0  0  0  0  0  0  0  0  0  0  0  0
   64.9355   31.4771   49.6631 H   0  0  0  0  0  0  0  0  0  0  0  0
   66.4508   32.4417   49.6631 H   0  0  0  0  0  0  0  0  0  0  0  0
   62.2440   34.1591   50.5679 H   0  0  0  0  0  0  0  0  0  0  0  0
   60.2820   34.3502   49.0465 H   0  0  0  0  0  0  0  0  0  0  0  0
   56.7122   32.4073   45.1479 H   0  0  0  0  0  0  0  0  0  0  0  0
   57.1022   33.3465   43.6448 H   0  0  0  0  0  0  0  0  0  0  0  0
   58.8100   31.7740   43.1480 H   0  0  0  0  0  0  0  0  0  0  0  0
   56.5962   31.5385   42.2670 H   0  0  0  0  0  0  0  0  0  0  0  0
   57.5384   29.9853   42.4130 H   0  0  0  0  0  0  0  0  0  0  0  0
   55.2584   30.9611   44.1861 H   0  0  0  0  0  0  0  0  0  0  0  0
   55.3036   29.5099   43.1146 H   0  0  0  0  0  0  0  0  0  0  0  0
   57.2586   30.5993   46.4189 H   0  0  0  0  0  0  0  0  0  0  0  0
   58.0939   29.0131   46.2064 H   0  0  0  0  0  0  0  0  0  0  0  0
   59.3767   31.0631   45.3830 H   0  0  0  0  0  0  0  0  0  0  0  0
   59.1227   29.7176   44.1770 H   0  0  0  0  0  0  0  0  0  0  0  0
   58.1791   35.5487   44.5436 H   0  0  0  0  0  0  0  0  0  0  0  0
   62.7904   33.2861   45.6798 H   0  0  0  0  0  0  0  0  0  0  0  0
   64.7538   33.0950   47.2025 H   0  0  0  0  0  0  0  0  0  0  0  0
  1  2  1  0
  2  3  1  0
  3  4  2  0
  4  5  1  0
  5  6  2  0
  6  7  1  0
  7  8  2  0
  8  9  1  0
  9 10  1  0
 10 11  1  0
 11 12  1  0
 12 13  1  0
 13 14  1  0
 14 15  2  0
 14 16  1  0
 16 17  1  0
  9 18  2  0
 18 19  1  0
  6 20  1  0
 20 21  2  0
 21  3  1  0
 19  7  1  0
 17 11  1  0
  1 22  1  0
  1 23  1  0
  1 24  1  0
  4 25  1  0
  5 26  1  0
 10 27  1  0
 10 28  1  0
 11 29  1  0
 12 30  1  0
 12 31  1  0
 13 32  1  0
 13 33  1  0
 16 34  1  0
 16 35  1  0
 17 36  1  0
 17 37  1  0
 18 38  1  0
 20 39  1  0
 21 40  1  0
M  CHG  1  11   1
M  END
>  <UniqueID>  (5) 
5

>  <SMILES>  (5) 
COc1ccc(-c2nc(C[NH+]3CCC(=O)CC3)co2)cc1

>  <Energy>  (5) 
72.5854193403971

>  <Genealogy>  (5) 
COc1ccc(-c2nc(C[NH+]3CCC(=O)CC3)co2)cc1 (protonated)
COc1ccc(-c2nc(C[NH+]3CCC(=O)CC3)co2)cc1 (3D coordinates assigned)
COc1ccc(-c2nc(C[NH+]3CCC(=O)CC3)co2)cc1 (nonaromatic ring conformer: 72.5854193403971 kcal/mol)

>  <smiles>  (5) 
COc1ccc(-c2nc(CN3CCC(=O)CC3)co2)cc1

>  <score_type>  (5) 
oracle

>  <origin>  (5) 
adg

>  <m_score__min__energy>  (5) 
-5.4100000000000001

>  <m_primary>  (5) 
energy

$$$$
5:0
     RDKit          3D

 39 42  0  0  0  0  0  0  0  0999 V2000
   55.5990   29.5490   44.8680 O   0  0  0  0  0  0  0  0  0  0  0  0
   56.8380   30.2990   44.4680 S   0  0  0  0  0  0  0  0  0  0  0  0
   57.0050   30.2060   42.9760 O   0  0  0  0  0  0  0  0  0  0  0  0
   56.6680   31.9700   44.9140 N   0  0  0  0  0  0  0  0  0  0  0  0
   57.7790   32.8360   45.2060 C   0  0  0  0  0  0  0  0  0  0  0  0
   57.8260   34.1090   44.6160 C   0  0  0  0  0  0  0  0  0  0  0  0
   58.8810   34.9810   44.8920 C   0  0  0  0  0  0  0  0  0  0  0  0
   59.9020   34.5940   45.7620 C   0  0  0  0  0  0  0  0  0  0  0  0
   59.8810   33.3230   46.3580 C   0  0  0  0  0  0  0  0  0  0  0  0
   60.9570   32.9190   47.2850 C   0  0  0  0  0  0  0  0  0  0  0  0
   62.2150   33.4370   47.2460 N   0  0  0  0  0  0  0  0  0  0  0  0
   62.8230   32.7780   48.2470 C   0  0  0  0  0  0  0  0  0  0  0  0
   64.1420   32.9000   48.6780 C   0  0  0  0  0  0  0  0  0  0  0  0
   64.5530   32.0940   49.7570 C   0  0  0  0  0  0  0  0  0  0  0  0
   63.6440   31.2000   50.3690 C   0  0  0  0  0  0  0  0  0  0  0  0
   62.3170   31.1040   49.9070 C   0  0  0  0  0  0  0  0  0  0  0  0
   61.9500   31.9160   48.8380 C   0  0  0  0  0  0  0  0  0  0  0  0
   60.7960   32.0100   48.2350 O   0  0  0  0  0  0  0  0  0  0  0  0
   58.8210   32.4450   46.0670 C   0  0  0  0  0  0  0  0  0  0  0  0
   58.2210   29.5930   45.2980 C   0  0  0  0  0  0  0  0  0  0  0  0
   58.1580   29.3050   46.6700 C   0  0  0  0  0  0  0  0  0  0  0  0
   59.2520   28.7170   47.3130 C   0  0  0  0  0  0  0  0  0  0  0  0
   60.4120   28.4190   46.5920 C   0  0  0  0  0  0  0  0  0  0  0  0
   60.4800   28.7100   45.2260 C   0  0  0  0  0  0  0  0  0  0  0  0
   59.3880   29.2970   44.5800 C   0  0  0  0  0  0  0  0  0  0  0  0
   55.6960   32.3230   45.0590 H   0  0  0  0  0  0  0  0  0  0  0  0
   57.0248   34.4222   43.9304 H   0  0  0  0  0  0  0  0  0  0  0  0
   58.9078   35.9755   44.4227 H   0  0  0  0  0  0  0  0  0  0  0  0
   60.7267   35.2881   45.9815 H   0  0  0  0  0  0  0  0  0  0  0  0
   64.8375   33.6007   48.1929 H   0  0  0  0  0  0  0  0  0  0  0  0
   65.5871   32.1601   50.1260 H   0  0  0  0  0  0  0  0  0  0  0  0
   63.9756   30.5754   51.2115 H   0  0  0  0  0  0  0  0  0  0  0  0
   61.5984   30.4138   50.3731 H   0  0  0  0  0  0  0  0  0  0  0  0
   58.8066   31.4416   46.5176 H   0  0  0  0  0  0  0  0  0  0  0  0
   57.2476   29.5419   47.2401 H   0  0  0  0  0  0  0  0  0  0  0  0
   59.1996   28.4887   48.3878 H   0  0  0  0  0  0  0  0  0  0  0  0
   61.2711   27.9557   47.0992 H   0  0  0  0  0  0  0  0  0  0  0  0
   61.3935   28.4768   44.6593 H   0  0  0  0  0  0  0  0  0  0  0  0
   59.4446   29.5271   43.5058 H   0  0  0  0  0  0  0  0  0  0  0  0
  1  2  2  0
  2  3  2  0
  2  4  1  0
  4  5  1  0
  5  6  2  0
  6  7  1  0
  7  8  2  0
  8  9  1  0
  9 10  1  0
 10 11  2  0
 11 12  1  0
 12 13  2  0
 13 14  1  0
 14 15  2  0
 15 16  1  0
 16 17  2  0
 17 18  1  0
  9 19  2  0
  2 20  1  0
 20 21  2  0
 21 22  1  0
 22 23  2  0
 23 24  1  0
 24 25  2  0
 19  5  1  0
 25 20  1  0
 18 10  1  0
 17 12  1  0
  4 26  1  0
  6 27  1  0
  7 28  1  0
  8 29  1  0
 13 30  1  0
 14 31  1  0
 15 32  1  0
 16 33  1  0
 19 34  1  0
 21 35  1  0
 22 36  1  0
 23 37  1  0
 24 38  1  0
 25 39  1  0
M  END
>  <UniqueID>  (6) 
6

>  <SMILES>  (6) 
O=S(=O)(Nc1cccc(-c2nc3ccccc3o2)c1)c1ccccc1

>  <Energy>  (6) 
83.59403295162394

>  <Genealogy>  (6) 
O=S(=O)(Nc1cccc(-c2nc3ccccc3o2)c1)c1ccccc1 (3D coordinates assigned)
O=S(=O)(Nc1cccc(-c2nc3ccccc3o2)c1)c1ccccc1 (optimized conformer: 83.59403295162394 kcal/mol)

>  <smiles>  (6) 
O=S(=O)(Nc1cccc(-c2nc3ccccc3o2)c1)c1ccccc1

>  <score_type>  (6) 
oracle

>  <origin>  (6) 
adg

>  <m_score__min__energy>  (6) 
-9.0999999999999996

>  <m_primary>  (6) 
energy

$$$$
6:0
     RDKit          3D

 75 78  0  0  0  0  0  0  0  0999 V2000
   55.2550   26.2910   46.0870 O   0  0  0  0  0  0  0  0  0  0  0  0
   56.2700   26.9410   45.7130 C   0  0  0  0  0  0  0  0  0  0  0  0
   57.6230   26.2780   45.8290 C   0  0  0  0  0  0  0  0  0  0  0  0
   57.5830   24.8810   45.2660 C   0  0  0  0  0  0  0  0  0  0  0  0
   58.4900   23.9010   45.7100 C   0  0  0  0  0  0  0  0  0  0  0  0
   58.4620   22.6140   45.1550 C   0  0  0  0  0  0  0  0  0  0  0  0
   59.3230   21.6640   45.5990 F   0  0  0  0  0  0  0  0  0  0  0  0
   57.5420   22.3030   44.1470 C   0  0  0  0  0  0  0  0  0  0  0  0
   56.6380   23.2720   43.7030 C   0  0  0  0  0  0  0  0  0  0  0  0
   55.7390   22.9700   42.7360 F   0  0  0  0  0  0  0  0  0  0  0  0
   56.6600   24.5590   44.2550 C   0  0  0  0  0  0  0  0  0  0  0  0
   56.0710   28.2890   45.2520 N   0  0  0  0  0  0  0  0  0  0  0  0
   57.0390   29.3220   44.8640 C   0  0  1  0  0  0  0  0  0  0  0  0
   56.3640   30.5430   44.1830 C   0  0  0  0  0  0  0  0  0  0  0  0
   57.0500   31.8700   44.3970 C   0  0  0  0  0  0  0  0  0  0  0  0
   56.6560   32.7230   45.4440 C   0  0  0  0  0  0  0  0  0  0  0  0
   57.3070   33.9430   45.6460 C   0  0  0  0  0  0  0  0  0  0  0  0
   58.3670   34.3160   44.8170 C   0  0  0  0  0  0  0  0  0  0  0  0
   58.7830   33.4650   43.7900 C   0  0  0  0  0  0  0  0  0  0  0  0
   58.1340   32.2440   43.5840 C   0  0  0  0  0  0  0  0  0  0  0  0
   58.0130   29.6420   45.9680 C   0  0  0  0  0  0  0  0  0  0  0  0
   57.7680   29.2460   47.1400 O   0  0  0  0  0  0  0  0  0  0  0  0
   59.2250   30.3460   45.6850 N   0  0  0  0  0  0  0  0  0  0  0  0
   60.0990   30.9620   46.6820 C   0  0  1  0  0  0  0  0  0  0  0  0
   59.4020   32.2180   47.2760 C   0  0  0  0  0  0  0  0  0  0  0  0
   60.2300   33.5040   47.1060 C   0  0  0  0  0  0  0  0  0  0  0  0
   61.7010   33.2010   46.7730 C   0  0  0  0  0  0  0  0  0  0  0  0
   62.5530   33.2790   48.0120 C   0  0  0  0  0  0  0  0  0  0  0  0
   62.2190   34.1750   49.0440 C   0  0  0  0  0  0  0  0  0  0  0  0
   63.0190   34.2610   50.1880 C   0  0  0  0  0  0  0  0  0  0  0  0
   64.1510   33.4470   50.3150 C   0  0  0  0  0  0  0  0  0  0  0  0
   64.4860   32.5560   49.2930 C   0  0  0  0  0  0  0  0  0  0  0  0
   63.6950   32.4730   48.1420 C   0  0  0  0  0  0  0  0  0  0  0  0
   60.3920   29.9000   47.7600 C   0  0  0  0  0  0  0  0  0  0  0  0
   61.0090   30.4910   49.0370 C   0  0  0  0  0  0  0  0  0  0  0  0
   59.9180   30.9500   49.9680 C   0  0  0  0  0  0  0  0  0  0  0  0
   58.8060   30.1290   50.2180 C   0  0  0  0  0  0  0  0  0  0  0  0
   57.7480   30.5960   51.0020 C   0  0  0  0  0  0  0  0  0  0  0  0
   57.7880   31.8870   51.5330 C   0  0  0  0  0  0  0  0  0  0  0  0
   58.8910   32.7100   51.2940 C   0  0  0  0  0  0  0  0  0  0  0  0
   59.9520   32.2460   50.5110 C   0  0  0  0  0  0  0  0  0  0  0  0
   58.3640   26.8703   45.2722 H   0  0  0  0  0  0  0  0  0  0  0  0
   57.8989   26.2224   46.8924 H   0  0  0  0  0  0  0  0  0  0  0  0
   59.2221   24.1452   46.4938 H   0  0  0  0  0  0  0  0  0  0  0  0
   57.5305   21.2961   43.7043 H   0  0  0  0  0  0  0  0  0  0  0  0
   55.9524   25.3210   43.8963 H   0  0  0  0  0  0  0  0  0  0  0  0
   57.6752   28.9027   44.0706 H   0  0  0  0  0  0  0  0  0  0  0  0
   56.3293   30.3505   43.1005 H   0  0  0  0  0  0  0  0  0  0  0  0
   55.3724   30.6379   44.6496 H   0  0  0  0  0  0  0  0  0  0  0  0
   55.8302   32.4278   46.1080 H   0  0  0  0  0  0  0  0  0  0  0  0
   56.9841   34.6101   46.4588 H   0  0  0  0  0  0  0  0  0  0  0  0
   58.8743   35.2796   44.9725 H   0  0  0  0  0  0  0  0  0  0  0  0
   59.6229   33.7563   43.1422 H   0  0  0  0  0  0  0  0  0  0  0  0
   58.4734   31.5725   42.7816 H   0  0  0  0  0  0  0  0  0  0  0  0
   61.0484   31.2973   46.2389 H   0  0  0  0  0  0  0  0  0  0  0  0
   58.4351   32.3544   46.7695 H   0  0  0  0  0  0  0  0  0  0  0  0
   59.2803   32.0462   48.3557 H   0  0  0  0  0  0  0  0  0  0  0  0
   59.7965   34.1005   46.2898 H   0  0  0  0  0  0  0  0  0  0  0  0
   60.2030   34.0545   48.0580 H   0  0  0  0  0  0  0  0  0  0  0  0
   61.7741   32.1893   46.3474 H   0  0  0  0  0  0  0  0  0  0  0  0
   62.0608   33.9463   46.0483 H   0  0  0  0  0  0  0  0  0  0  0  0
   61.3257   34.8100   48.9508 H   0  0  0  0  0  0  0  0  0  0  0  0
   62.7586   34.9688   50.9887 H   0  0  0  0  0  0  0  0  0  0  0  0
   64.7756   33.5091   51.2183 H   0  0  0  0  0  0  0  0  0  0  0  0
   65.3756   31.9168   49.3935 H   0  0  0  0  0  0  0  0  0  0  0  0
   63.9685   31.7747   47.3372 H   0  0  0  0  0  0  0  0  0  0  0  0
   59.4482   29.4013   48.0257 H   0  0  0  0  0  0  0  0  0  0  0  0
   61.1247   29.1970   47.3370 H   0  0  0  0  0  0  0  0  0  0  0  0
   61.6167   29.7229   49.5378 H   0  0  0  0  0  0  0  0  0  0  0  0
   61.6421   31.3498   48.7695 H   0  0  0  0  0  0  0  0  0  0  0  0
   58.7680   29.1144   49.7948 H   0  0  0  0  0  0  0  0  0  0  0  0
   56.8830   29.9463   51.2011 H   0  0  0  0  0  0  0  0  0  0  0  0
   56.9490   32.2566   52.1408 H   0  0  0  0  0  0  0  0  0  0  0  0
   58.9247   33.7229   51.7218 H   0  0  0  0  0  0  0  0  0  0  0  0
   60.8170   32.8978   50.3190 H   0  0  0  0  0  0  0  0  0  0  0  0
  1  2  2  0
  2  3  1  0
  3  4  1  0
  4  5  2  0
  5  6  1  0
  6  7  1  0
  6  8  2  0
  8  9  1  0
  9 10  1  0
  9 11  2  0
  2 12  1  0
 12 13  1  0
 13 14  1  0
 14 15  1  0
 15 16  2  0
 16 17  1  0
 17 18  2  0
 18 19  1  0
 19 20  2  0
 13 21  1  0
 21 22  2  0
 21 23  1  0
 23 24  1  0
 24 25  1  0
 25 26  1  0
 26 27  1  0
 27 28  1  0
 28 29  2  0
 29 30  1  0
 30 31  2  0
 31 32  1  0
 32 33  2  0
 24 34  1  0
 34 35  1  0
 35 36  1  0
 36 37  2  0
 37 38  1  0
 38 39  2  0
 39 40  1  0
 40 41  2  0
 11  4  1  0
 20 15  1  0
 33 28  1  0
 41 36  1  0
  3 42  1  0
  3 43  1  0
  5 44  1  0
  8 45  1  0
 11 46  1  0
 13 47  1  6
 14 48  1  0
 14 49  1  0
 16 50  1  0
 17 51  1  0
 18 52  1  0
 19 53  1  0
 20 54  1  0
 24 55  1  6
 25 56  1  0
 25 57  1  0
 26 58  1  0
 26 59  1  0
 27 60  1  0
 27 61  1  0
 29 62  1  0
 30 63  1  0
 31 64  1  0
 32 65  1  0
 33 66  1  0
 34 67  1  0
 34 68  1  0
 35 69  1  0
 35 70  1  0
 37 71  1  0
 38 72  1  0
 39 73  1  0
 40 74  1  0
 41 75  1  0
M  CHG  2  12  -1  23  -1
M  END
>  <UniqueID>  (7) 
7

>  <SMILES>  (7) 
O=C(Cc1cc(F)cc(F)c1)[N-][C@@H](Cc1ccccc1)C(=O)[N-][C@@H](CCCc1ccccc1)CCc1ccccc1

>  <Energy>  (7) 
73.24350999388611

>  <Genealogy>  (7) 
O=C(Cc1cc(F)cc(F)c1)[N-]C(Cc1ccccc1)C(=O)[N-]C(CCCc1ccccc1)CCc1ccccc1 (protonated)
O=C(Cc1cc(F)cc(F)c1)[N-][C@@H](Cc1ccccc1)C(=O)[N-][C@@H](CCCc1ccccc1)CCc1ccccc1 (chirality)
O=C(Cc1cc(F)cc(F)c1)[N-][C@@H](Cc1ccccc1)C(=O)[N-][C@@H](CCCc1ccccc1)CCc1ccccc1 (3D coordinates assigned)
O=C(Cc1cc(F)cc(F)c1)[N-][C@@H](Cc1ccccc1)C(=O)[N-][C@@H](CCCc1ccccc1)CCc1ccccc1 (optimized conformer: 73.24350999388611 kcal/mol)

>  <smiles>  (7) 
O=C(Cc1cc(F)cc(F)c1)NC(Cc1ccccc1)C(=O)NC(CCCc1ccccc1)CCc1ccccc1

>  <score_type>  (7) 
oracle

>  <origin>  (7) 
adg

>  <m_score__min__energy>  (7) 
-12.99

>  <m_primary>  (7) 
energy

$$$$
7:0
     RDKit          3D

 49 52  0  0  0  0  0  0  0  0999 V2000
   59.2150   30.8610   48.2100 C   0  0  0  0  0  0  0  0  0  0  0  0
   58.5780   32.2340   48.3980 C   0  0  0  0  0  0  0  0  0  0  0  0
   58.7290   33.0810   47.1550 C   0  0  0  0  0  0  0  0  0  0  0  0
   58.0290   32.7330   45.9860 C   0  0  0  0  0  0  0  0  0  0  0  0
   58.1390   33.5200   44.8210 C   0  0  0  0  0  0  0  0  0  0  0  0
   57.4910   33.2060   43.6130 O   0  0  0  0  0  0  0  0  0  0  0  0
   57.9920   32.3660   42.5710 C   0  0  0  0  0  0  0  0  0  0  0  0
   57.0250   31.2180   42.2780 C   0  0  0  0  0  0  0  0  0  0  0  0
   56.9060   30.3200   43.4200 N   0  0  0  0  0  0  0  0  0  0  0  0
   57.5520   29.1720   43.5370 N   0  0  0  0  0  0  0  0  0  0  0  0
   57.1510   28.6970   44.7310 C   0  0  0  0  0  0  0  0  0  0  0  0
   56.2840   29.5420   45.3240 N   0  0  0  0  0  0  0  0  0  0  0  0
   56.1510   30.5510   44.4790 N   0  0  0  0  0  0  0  0  0  0  0  0
   58.9410   34.6650   44.8480 C   0  0  0  0  0  0  0  0  0  0  0  0
   59.6280   35.0260   46.0080 C   0  0  0  0  0  0  0  0  0  0  0  0
   59.5370   34.2370   47.1570 C   0  0  0  0  0  0  0  0  0  0  0  0
   60.2450   34.6220   48.3000 O   0  0  0  0  0  0  0  0  0  0  0  0
   61.4800   34.0750   48.6760 C   0  0  0  0  0  0  0  0  0  0  0  0
   62.3440   33.4620   47.7500 C   0  0  0  0  0  0  0  0  0  0  0  0
   63.5650   32.9260   48.1710 C   0  0  0  0  0  0  0  0  0  0  0  0
   63.9450   32.9960   49.5210 C   0  0  0  0  0  0  0  0  0  0  0  0
   65.2340   32.4300   49.9670 C   0  0  0  0  0  0  0  0  0  0  0  0
   66.4280   33.0470   49.8310 N   0  0  0  0  0  0  0  0  0  0  0  0
   67.3080   32.2120   50.3580 N   0  0  0  0  0  0  0  0  0  0  0  0
   66.6720   31.1340   50.7840 N   0  0  0  0  0  0  0  0  0  0  0  0
   67.3080   30.0290   51.4840 C   0  0  0  0  0  0  0  0  0  0  0  0
   65.3720   31.2320   50.5720 N   0  0  0  0  0  0  0  0  0  0  0  0
   63.0820   33.6130   50.4420 C   0  0  0  0  0  0  0  0  0  0  0  0
   61.8610   34.1480   50.0200 C   0  0  0  0  0  0  0  0  0  0  0  0
   59.4219   30.4150   49.1940 H   0  0  0  0  0  0  0  0  0  0  0  0
   58.5265   30.2109   47.6502 H   0  0  0  0  0  0  0  0  0  0  0  0
   60.1560   30.9669   47.6502 H   0  0  0  0  0  0  0  0  0  0  0  0
   57.5077   32.1061   48.6173 H   0  0  0  0  0  0  0  0  0  0  0  0
   59.0861   32.7429   49.2304 H   0  0  0  0  0  0  0  0  0  0  0  0
   57.3894   31.8381   45.9803 H   0  0  0  0  0  0  0  0  0  0  0  0
   58.1250   32.9657   41.6585 H   0  0  0  0  0  0  0  0  0  0  0  0
   58.9525   31.9400   42.8964 H   0  0  0  0  0  0  0  0  0  0  0  0
   56.0340   31.6350   42.0455 H   0  0  0  0  0  0  0  0  0  0  0  0
   57.4162   30.6442   41.4249 H   0  0  0  0  0  0  0  0  0  0  0  0
   57.4868   27.7441   45.1659 H   0  0  0  0  0  0  0  0  0  0  0  0
   59.0314   35.2877   43.9457 H   0  0  0  0  0  0  0  0  0  0  0  0
   60.2445   35.9369   46.0174 H   0  0  0  0  0  0  0  0  0  0  0  0
   62.0575   33.4041   46.6895 H   0  0  0  0  0  0  0  0  0  0  0  0
   64.2323   32.4463   47.4398 H   0  0  0  0  0  0  0  0  0  0  0  0
   67.2193   30.1830   52.5696 H   0  0  0  0  0  0  0  0  0  0  0  0
   66.8144   29.0861   51.2059 H   0  0  0  0  0  0  0  0  0  0  0  0
   68.3712   29.9822   51.2059 H   0  0  0  0  0  0  0  0  0  0  0  0
   63.3687   33.6756   51.5021 H   0  0  0  0  0  0  0  0  0  0  0  0
   61.1948   34.6301   50.7506 H   0  0  0  0  0  0  0  0  0  0  0  0
  1  2  1  0
  2  3  1  0
  3  4  2  0
  4  5  1  0
  5  6  1  0
  6  7  1  0
  7  8  1  0
  8  9  1  0
  9 10  1  0
 10 11  2  0
 11 12  1  0
 12 13  2  0
  5 14  2  0
 14 15  1  0
 15 16  2  0
 16 17  1  0
 17 18  1  0
 18 19  2  0
 19 20  1  0
 20 21  2  0
 21 22  1  0
 22 23  1  0
 23 24  2  0
 24 25  1  0
 25 26  1  0
 25 27  1  0
 21 28  1  0
 28 29  2  0
 16  3  1  0
 29 18  1  0
 13  9  1  0
 27 22  2  0
  1 30  1  0
  1 31  1  0
  1 32  1  0
  2 33  1  0
  2 34  1  0
  4 35  1  0
  7 36  1  0
  7 37  1  0
  8 38  1  0
  8 39  1  0
 11 40  1  0
 14 41  1  0
 15 42  1  0
 19 43  1  0
 20 44  1  0
 26 45  1  0
 26 46  1  0
 26 47  1  0
 28 48  1  0
 29 49  1  0
M  END
>  <UniqueID>  (8) 
8

>  <SMILES>  (8) 
CCc1cc(OCCn2ncnn2)ccc1Oc1ccc(-c2nnn(C)n2)cc1

>  <Energy>  (8) 
131.99440922832844

>  <Genealogy>  (8) 
CCc1cc(OCCn2ncnn2)ccc1Oc1ccc(-c2nnn(C)n2)cc1 (3D coordinates assigned)
CCc1cc(OCCn2ncnn2)ccc1Oc1ccc(-c2nnn(C)n2)cc1 (optimized conformer: 131.99440922832844 kcal/mol)

>  <smiles>  (8) 
CCc1cc(OCCn2ncnn2)ccc1Oc1ccc(-c2nnn(C)n2)cc1

>  <score_type>  (8) 
oracle

>  <origin>  (8) 
adg

>  <m_score__min__energy>  (8) 
-8.9700000000000006

>  <m_primary>  (8) 
energy

$$$$
8:0
     RDKit          3D

 40 44  0  0  0  0  0  0  0  0999 V2000
   58.3823   23.8589   47.1091 H   0  0  0  0  0  0  0  0  0  0  0  0
   57.8890   24.2700   46.2160 C   0  0  0  0  0  0  0  0  0  0  0  0
   57.6710   25.5840   46.1520 C   0  0  0  0  0  0  0  0  0  0  0  0
   56.5220   26.4770   46.0550 C   0  0  0  0  0  0  0  0  0  0  0  0
   55.2720   26.3450   45.9970 O   0  0  0  0  0  0  0  0  0  0  0  0
   57.4470   27.6040   46.0840 C   0  0  0  0  0  0  0  0  0  0  0  0
   57.5500   28.9810   46.0560 C   0  0  0  0  0  0  0  0  0  0  0  0
   56.6668   29.6303   45.9644 H   0  0  0  0  0  0  0  0  0  0  0  0
   58.8710   29.5100   46.1530 C   0  0  0  0  0  0  0  0  0  0  0  0
   59.0880   30.9770   46.1360 C   0  0  0  0  0  0  0  0  0  0  0  0
   58.1040   31.8360   45.6150 C   0  0  0  0  0  0  0  0  0  0  0  0
   57.1637   31.4224   45.2216 H   0  0  0  0  0  0  0  0  0  0  0  0
   58.3230   33.2150   45.5980 C   0  0  0  0  0  0  0  0  0  0  0  0
   57.0830   34.2700   44.9350 Cl  0  0  0  0  0  0  0  0  0  0  0  0
   59.5240   33.7310   46.1040 C   0  0  0  0  0  0  0  0  0  0  0  0
   59.8530   35.4580   46.1090 Cl  0  0  0  0  0  0  0  0  0  0  0  0
   60.4800   32.8510   46.6150 C   0  0  0  0  0  0  0  0  0  0  0  0
   61.4266   33.2440   47.0144 H   0  0  0  0  0  0  0  0  0  0  0  0
   60.2480   31.5100   46.6220 N   0  0  0  0  0  0  0  0  0  0  0  0
   60.9800   30.8890   47.0340 H   0  0  0  0  0  0  0  0  0  0  0  0
   59.9940   28.6220   46.2730 C   0  0  0  0  0  0  0  0  0  0  0  0
   61.0068   29.0448   46.3473 H   0  0  0  0  0  0  0  0  0  0  0  0
   59.8290   27.2160   46.2980 C   0  0  0  0  0  0  0  0  0  0  0  0
   60.6815   26.5268   46.3893 H   0  0  0  0  0  0  0  0  0  0  0  0
   58.5250   26.7670   46.2000 C   0  0  0  0  0  0  0  0  0  0  0  0
   57.4960   23.3500   45.1400 C   0  0  0  0  0  0  0  0  0  0  0  0
   57.3930   23.6780   43.7930 C   0  0  0  0  0  0  0  0  0  0  0  0
   57.6306   24.6643   43.3678 H   0  0  0  0  0  0  0  0  0  0  0  0
   56.9600   22.6150   43.0790 N   0  0  0  0  0  0  0  0  0  0  0  0
   56.7880   22.5820   42.0490 H   0  0  0  0  0  0  0  0  0  0  0  0
   56.7660   21.6240   43.9670 C   0  0  0  0  0  0  0  0  0  0  0  0
   56.2730   20.3460   43.7070 C   0  0  0  0  0  0  0  0  0  0  0  0
   56.0387   20.0255   42.6811 H   0  0  0  0  0  0  0  0  0  0  0  0
   56.0850   19.4800   44.7990 C   0  0  0  0  0  0  0  0  0  0  0  0
   55.7100   18.4600   44.6287 H   0  0  0  0  0  0  0  0  0  0  0  0
   56.3740   19.9100   46.1120 C   0  0  0  0  0  0  0  0  0  0  0  0
   56.2151   19.2258   46.9585 H   0  0  0  0  0  0  0  0  0  0  0  0
   56.8640   21.2080   46.3450 C   0  0  0  0  0  0  0  0  0  0  0  0
   57.0766   21.5595   47.3654 H   0  0  0  0  0  0  0  0  0  0  0  0
   57.0720   22.0360   45.2400 C   0  0  0  0  0  0  0  0  0  0  0  0
  1  2  1  0
  2  3  2  0
  3  4  1  0
  4  5  2  0
  4  6  1  0
  6  7  2  0
  7  8  1  0
  7  9  1  0
  9 10  1  0
 10 11  2  0
 11 12  1  0
 11 13  1  0
 13 14  1  0
 13 15  2  0
 15 16  1  0
 15 17  1  0
 17 18  1  0
 17 19  2  0
 19 20  1  0
  9 21  2  0
 21 22  1  0
 21 23  1  0
 23 24  1  0
 23 25  2  0
  2 26  1  0
 26 27  2  0
 27 28  1  0
 27 29  1  0
 29 30  1  0
 29 31  1  0
 31 32  2  0
 32 33  1  0
 32 34  1  0
 34 35  1  0
 34 36  2  0
 36 37  1  0
 36 38  1  0
 38 39  1  0
 38 40  2  0
 25  3  1  0
 40 26  1  0
 25  6  1  0
 40 31  1  0
 19 10  1  0
M  CHG  1  19   1
M  END
>  <UniqueID>  (9) 
9

>  <SMILES>  (9) 
O=C1/C(=C\c2c[nH]c3ccccc23)c2ccc(-c3cc(Cl)c(Cl)c[nH+]3)cc21

>  <Energy>  (9) 
99.87697268270077

>  <Genealogy>  (9) 
O=C1C(=Cc2c[nH]c3ccccc23)c2ccc(-c3cc(Cl)c(Cl)c[nH+]3)cc21 (protonated)
O=C1/C(=C\c2c[nH]c3ccccc23)c2ccc(-c3cc(Cl)c(Cl)c[nH+]3)cc21 (cis-trans isomerization)
O=C1/C(=C\c2c[nH]c3ccccc23)c2ccc(-c3cc(Cl)c(Cl)c[nH+]3)cc21 (3D coordinates assigned)
O=C1/C(=C\c2c[nH]c3ccccc23)c2ccc(-c3cc(Cl)c(Cl)c[nH+]3)cc21 (nonaromatic ring conformer: 99.87697268270077 kcal/mol)

>  <smiles>  (9) 
O=C1C(=Cc2c[nH]c3ccccc23)c2ccc(-c3cc(Cl)c(Cl)cn3)cc21

>  <score_type>  (9) 
oracle

>  <origin>  (9) 
adg

>  <m_score__min__energy>  (9) 
-8.3399999999999999

>  <m_primary>  (9) 
energy

$$$$
9:0
     RDKit          3D

 33 35  0  0  0  0  0  0  0  0999 V2000
   54.5240   23.7200   45.0250 C   0  0  0  0  0  0  0  0  0  0  0  0
   54.8160   25.0290   45.6920 C   0  0  0  0  0  0  0  0  0  0  0  0
   53.9630   25.9530   45.6220 O   0  0  0  0  0  0  0  0  0  0  0  0
   56.0540   25.2790   46.3730 N   0  0  0  0  0  0  0  0  0  0  0  0
   57.0350   26.2680   46.0270 C   0  0  0  0  0  0  0  0  0  0  0  0
   58.3670   25.8720   45.8820 C   0  0  0  0  0  0  0  0  0  0  0  0
   59.3430   26.8010   45.5220 C   0  0  0  0  0  0  0  0  0  0  0  0
   58.9930   28.1360   45.2770 C   0  0  0  0  0  0  0  0  0  0  0  0
   57.6520   28.5520   45.4100 C   0  0  0  0  0  0  0  0  0  0  0  0
   56.6780   27.5990   45.7590 C   0  0  0  0  0  0  0  0  0  0  0  0
   57.2100   29.9440   45.1130 C   0  0  0  0  0  0  0  0  0  0  0  0
   56.1380   30.0960   44.4670 O   0  0  0  0  0  0  0  0  0  0  0  0
   57.9060   31.1280   45.5600 N   0  0  0  0  0  0  0  0  0  0  0  0
   59.0350   31.1790   46.4510 C   0  0  0  0  0  0  0  0  0  0  0  0
   59.0120   32.0790   47.5270 C   0  0  0  0  0  0  0  0  0  0  0  0
   60.1080   32.1870   48.3870 C   0  0  0  0  0  0  0  0  0  0  0  0
   61.2460   31.4070   48.1700 C   0  0  0  0  0  0  0  0  0  0  0  0
   61.2930   30.5250   47.0870 C   0  0  0  0  0  0  0  0  0  0  0  0
   60.2000   30.4230   46.2140 C   0  0  0  0  0  0  0  0  0  0  0  0
   60.2240   29.3100   44.8690 S   0  0  0  0  0  0  0  0  0  0  0  0
   61.7400   28.6290   44.5930 O   0  0  0  0  0  0  0  0  0  0  0  0
   54.3520   22.9488   45.7903 H   0  0  0  0  0  0  0  0  0  0  0  0
   53.6262   23.8205   44.3974 H   0  0  0  0  0  0  0  0  0  0  0  0
   55.3794   23.4294   44.3974 H   0  0  0  0  0  0  0  0  0  0  0  0
   58.6474   24.8221   46.0527 H   0  0  0  0  0  0  0  0  0  0  0  0
   60.3925   26.4845   45.4299 H   0  0  0  0  0  0  0  0  0  0  0  0
   55.6221   27.9008   45.8228 H   0  0  0  0  0  0  0  0  0  0  0  0
   57.4260   32.0380   45.3700 H   0  0  0  0  0  0  0  0  0  0  0  0
   58.1234   32.7051   47.6951 H   0  0  0  0  0  0  0  0  0  0  0  0
   60.0745   32.8866   49.2352 H   0  0  0  0  0  0  0  0  0  0  0  0
   62.1056   31.4869   48.8517 H   0  0  0  0  0  0  0  0  0  0  0  0
   62.1890   29.9095   46.9189 H   0  0  0  0  0  0  0  0  0  0  0  0
   61.8430   28.6010   43.6090 H   0  0  0  0  0  0  0  0  0  0  0  0
  1  2  1  0
  2  3  2  0
  2  4  1  0
  4  5  1  0
  5  6  2  0
  6  7  1  0
  7  8  2  0
  8  9  1  0
  9 10  2  0
  9 11  1  0
 11 12  2  0
 11 13  1  0
 13 14  1  0
 14 15  2  0
 15 16  1  0
 16 17  2  0
 17 18  1  0
 18 19  2  0
 19 20  1  0
 20 21  1  1
 10  5  1  0
 19 14  1  0
 20  8  1  0
  1 22  1  0
  1 23  1  0
  1 24  1  0
  6 25  1  0
  7 26  1  0
 10 27  1  0
 13 28  1  0
 15 29  1  0
 16 30  1  0
 17 31  1  0
 18 32  1  0
 21 33  1  0
M  CHG  2   4  -1  20   1
M  END
>  <UniqueID>  (10) 
10

>  <SMILES>  (10) 
CC(=O)[N-]c1ccc2c(c1)C(=O)Nc1ccccc1[S@@+]2O

>  <Energy>  (10) 
60.324708707545355

>  <Genealogy>  (10) 
CC(=O)[N-]c1ccc2c(c1)C(=O)Nc1ccccc1[S+]2O (protonated)
CC(=O)[N-]c1ccc2c(c1)C(=O)Nc1ccccc1[S@@+]2O (chirality)
CC(=O)[N-]c1ccc2c(c1)C(=O)Nc1ccccc1[S@@+]2O (3D coordinates assigned)
CC(=O)[N-]c1ccc2c(c1)C(=O)Nc1ccccc1[S@@+]2O (nonaromatic ring conformer: 60.324708707545355 kcal/mol)

>  <smiles>  (10) 
CC(=O)Nc1ccc2c(c1)C(=O)Nc1ccccc1[S+]2[O-]

>  <score_type>  (10) 
oracle

>  <origin>  (10) 
adg

>  <m_score__min__energy>  (10) 
-8.1400000000000006

>  <m_primary>  (10) 
energy

$$$$
10:0
     RDKit          3D

 38 41  0  0  0  0  0  0  0  0999 V2000
   57.7690   21.1320   45.6190 C   0  0  0  0  0  0  0  0  0  0  0  0
   57.6890   22.1040   46.6530 O   0  0  0  0  0  0  0  0  0  0  0  0
   57.6810   23.4620   46.3920 C   0  0  0  0  0  0  0  0  0  0  0  0
   58.8080   24.0950   45.8930 C   0  0  0  0  0  0  0  0  0  0  0  0
   58.8400   25.4490   45.6200 C   0  0  0  0  0  0  0  0  0  0  0  0
   57.6850   26.1590   45.8690 C   0  0  0  0  0  0  0  0  0  0  0  0
   57.6650   27.5860   45.5990 C   0  0  0  0  0  0  0  0  0  0  0  0
   57.2980   28.2710   44.4640 C   0  0  0  0  0  0  0  0  0  0  0  0
   57.3700   29.6010   44.4670 C   0  0  0  0  0  0  0  0  0  0  0  0
   57.0570   30.5190   43.4480 C   0  0  0  0  0  0  0  0  0  0  0  0
   56.6380   30.1370   42.3260 O   0  0  0  0  0  0  0  0  0  0  0  0
   57.1990   31.8260   43.6500 N   0  0  0  0  0  0  0  0  0  0  0  0
   57.6330   32.3940   44.7850 C   0  0  0  0  0  0  0  0  0  0  0  0
   57.7870   33.8370   44.9990 C   0  0  0  0  0  0  0  0  0  0  0  0
   58.1410   34.2350   46.4140 C   0  0  0  0  0  0  0  0  0  0  0  0
   59.5990   34.1970   46.0150 C   0  0  0  0  0  0  0  0  0  0  0  0
   59.1600   34.3650   44.5750 C   0  0  0  0  0  0  0  0  0  0  0  0
   57.9460   31.5410   45.7930 N   0  0  0  0  0  0  0  0  0  0  0  0
   57.8200   30.2070   45.6390 C   0  0  0  0  0  0  0  0  0  0  0  0
   58.1450   28.8300   46.7620 S   0  0  0  0  0  0  0  0  0  0  0  0
   56.5310   25.5930   46.3650 C   0  0  0  0  0  0  0  0  0  0  0  0
   56.5630   24.2260   46.6190 C   0  0  0  0  0  0  0  0  0  0  0  0
   57.8515   20.1294   46.0639 H   0  0  0  0  0  0  0  0  0  0  0  0
   56.8636   21.1835   44.9965 H   0  0  0  0  0  0  0  0  0  0  0  0
   58.6538   21.3309   44.9965 H   0  0  0  0  0  0  0  0  0  0  0  0
   59.7120   23.4965   45.7071 H   0  0  0  0  0  0  0  0  0  0  0  0
   59.7428   25.9365   45.2234 H   0  0  0  0  0  0  0  0  0  0  0  0
   56.9516   27.7306   43.5707 H   0  0  0  0  0  0  0  0  0  0  0  0
   56.9570   32.4790   42.8710 H   0  0  0  0  0  0  0  0  0  0  0  0
   56.8520   34.1793   44.5315 H   0  0  0  0  0  0  0  0  0  0  0  0
   57.7763   35.2291   46.7121 H   0  0  0  0  0  0  0  0  0  0  0  0
   57.7705   33.6630   47.2774 H   0  0  0  0  0  0  0  0  0  0  0  0
   60.2013   35.0292   46.4082 H   0  0  0  0  0  0  0  0  0  0  0  0
   60.2548   33.3684   46.3206 H   0  0  0  0  0  0  0  0  0  0  0  0
   59.1600   35.4041   44.2141 H   0  0  0  0  0  0  0  0  0  0  0  0
   59.7210   33.9132   43.7437 H   0  0  0  0  0  0  0  0  0  0  0  0
   55.6281   26.1932   46.5511 H   0  0  0  0  0  0  0  0  0  0  0  0
   55.6600   23.7393   47.0161 H   0  0  0  0  0  0  0  0  0  0  0  0
  1  2  1  0
  2  3  1  0
  3  4  2  0
  4  5  1  0
  5  6  2  0
  6  7  1  0
  7  8  2  0
  8  9  1  0
  9 10  1  0
 10 11  2  0
 10 12  1  0
 12 13  1  0
 13 14  1  0
 14 15  1  0
 15 16  1  0
 16 17  1  0
 13 18  2  0
 18 19  1  0
 19 20  1  0
  6 21  1  0
 21 22  2  0
 22  3  1  0
 20  7  1  0
 19  9  2  0
 17 14  1  0
  1 23  1  0
  1 24  1  0
  1 25  1  0
  4 26  1  0
  5 27  1  0
  8 28  1  0
 12 29  1  0
 14 30  1  0
 15 31  1  0
 15 32  1  0
 16 33  1  0
 16 34  1  0
 17 35  1  0
 17 36  1  0
 21 37  1  0
 22 38  1  0
M  END
>  <smiles>  (11) 
COc1ccc(-c2cc3c(=O)[nH]c(C4CCC4)nc3s2)cc1

>  <score_type>  (11) 
oracle

>  <origin>  (11) 
adg

>  <m_score__min__energy>  (11) 
-7.2999999999999998

>  <m_primary>  (11) 
energy

$$$$
11:0
     RDKit          3D

 59 62  0  0  0  0  0  0  0  0999 V2000
   63.5160   31.9750   48.6740 C   0  0  0  0  0  0  0  0  0  0  0  0
   62.5400   31.0260   49.0890 O   0  0  0  0  0  0  0  0  0  0  0  0
   61.2770   31.3570   49.6050 C   0  0  0  0  0  0  0  0  0  0  0  0
   61.1200   32.2400   50.6890 C   0  0  0  0  0  0  0  0  0  0  0  0
   59.8430   32.5060   51.1840 C   0  0  0  0  0  0  0  0  0  0  0  0
   58.7570   31.9160   50.6220 N   0  0  0  0  0  0  0  0  0  0  0  0
   58.8730   31.0630   49.5710 C   0  0  0  0  0  0  0  0  0  0  0  0
   60.1340   30.7710   49.0310 C   0  0  0  0  0  0  0  0  0  0  0  0
   60.2570   29.8710   47.9180 N   0  0  0  0  0  0  0  0  0  0  0  0
   60.8500   30.3490   46.6620 C   0  0  0  0  0  0  0  0  0  0  0  0
   60.5130   29.3980   45.5030 C   0  0  0  0  0  0  0  0  0  0  0  0
   59.1800   28.7950   45.7170 N   0  0  0  0  0  0  0  0  0  0  0  0
   58.5880   28.2110   44.4840 C   0  0  0  0  0  0  0  0  0  0  0  0
   57.4190   28.9850   43.8300 C   0  0  0  0  0  0  0  0  0  0  0  0
   57.6360   30.4300   43.8070 N   0  0  0  0  0  0  0  0  0  0  0  0
   57.6700   31.2510   42.5990 C   0  0  0  0  0  0  0  0  0  0  0  0
   57.7550   32.7190   43.0880 C   0  0  0  0  0  0  0  0  0  0  0  0
   57.6660   32.6550   44.5430 N   0  0  0  0  0  0  0  0  0  0  0  0
   57.5560   33.8060   45.4360 C   0  0  0  0  0  0  0  0  0  0  0  0
   58.8160   33.9520   46.2460 C   0  0  0  0  0  0  0  0  0  0  0  0
   58.7430   34.1970   47.6270 C   0  0  0  0  0  0  0  0  0  0  0  0
   59.9110   34.2920   48.3880 C   0  0  0  0  0  0  0  0  0  0  0  0
   61.1580   34.1330   47.7780 C   0  0  0  0  0  0  0  0  0  0  0  0
   61.2390   33.8780   46.4060 C   0  0  0  0  0  0  0  0  0  0  0  0
   60.0720   33.7840   45.6410 C   0  0  0  0  0  0  0  0  0  0  0  0
   57.5740   31.2980   44.9180 C   0  0  0  0  0  0  0  0  0  0  0  0
   57.4390   30.9070   46.1090 O   0  0  0  0  0  0  0  0  0  0  0  0
   59.1920   27.8670   46.8720 C   0  0  0  0  0  0  0  0  0  0  0  0
   59.9520   28.4440   48.0910 C   0  0  0  0  0  0  0  0  0  0  0  0
   63.9843   32.4303   49.5591 H   0  0  0  0  0  0  0  0  0  0  0  0
   64.2852   31.4702   48.0711 H   0  0  0  0  0  0  0  0  0  0  0  0
   63.0329   32.7580   48.0711 H   0  0  0  0  0  0  0  0  0  0  0  0
   61.9998   32.7184   51.1441 H   0  0  0  0  0  0  0  0  0  0  0  0
   59.7157   33.1954   52.0317 H   0  0  0  0  0  0  0  0  0  0  0  0
   57.9731   30.5989   49.1412 H   0  0  0  0  0  0  0  0  0  0  0  0
   60.4542   31.3497   46.4342 H   0  0  0  0  0  0  0  0  0  0  0  0
   61.9430   30.3874   46.7802 H   0  0  0  0  0  0  0  0  0  0  0  0
   60.5109   29.9612   44.5581 H   0  0  0  0  0  0  0  0  0  0  0  0
   61.2684   28.5996   45.4588 H   0  0  0  0  0  0  0  0  0  0  0  0
   58.5300   29.5800   45.9720 H   0  0  0  0  0  0  0  0  0  0  0  0
   59.3912   28.1300   43.7368 H   0  0  0  0  0  0  0  0  0  0  0  0
   58.1522   27.2528   44.8032 H   0  0  0  0  0  0  0  0  0  0  0  0
   57.2994   28.6315   42.7952 H   0  0  0  0  0  0  0  0  0  0  0  0
   56.5192   28.7959   44.4338 H   0  0  0  0  0  0  0  0  0  0  0  0
   58.5501   30.9989   41.9892 H   0  0  0  0  0  0  0  0  0  0  0  0
   56.7822   31.0843   41.9713 H   0  0  0  0  0  0  0  0  0  0  0  0
   58.7099   33.1709   42.7815 H   0  0  0  0  0  0  0  0  0  0  0  0
   56.9532   33.3376   42.6585 H   0  0  0  0  0  0  0  0  0  0  0  0
   57.3993   34.7165   44.8390 H   0  0  0  0  0  0  0  0  0  0  0  0
   56.7051   33.6548   46.1165 H   0  0  0  0  0  0  0  0  0  0  0  0
   57.7624   34.3146   48.1114 H   0  0  0  0  0  0  0  0  0  0  0  0
   59.8488   34.4921   49.4679 H   0  0  0  0  0  0  0  0  0  0  0  0
   62.0768   34.2086   48.3780 H   0  0  0  0  0  0  0  0  0  0  0  0
   62.2214   33.7512   45.9277 H   0  0  0  0  0  0  0  0  0  0  0  0
   60.1382   33.5779   44.5625 H   0  0  0  0  0  0  0  0  0  0  0  0
   58.1532   27.6613   47.1696 H   0  0  0  0  0  0  0  0  0  0  0  0
   59.7129   26.9505   46.5578 H   0  0  0  0  0  0  0  0  0  0  0  0
   59.3304   28.3191   48.9899 H   0  0  0  0  0  0  0  0  0  0  0  0
   60.9032   27.9004   48.1896 H   0  0  0  0  0  0  0  0  0  0  0  0
  1  2  1  0
  2  3  1  0
  3  4  2  0
  4  5  1  0
  5  6  2  0
  6  7  1  0
  7  8  2  0
  8  9  1  0
  9 10  1  0
 10 11  1  0
 11 12  1  0
 12 13  1  0
 13 14  1  0
 14 15  1  0
 15 16  1  0
 16 17  1  0
 17 18  1  0
 18 19  1  0
 19 20  1  0
 20 21  2  0
 21 22  1  0
 22 23  2  0
 23 24  1  0
 24 25  2  0
 18 26  1  0
 26 27  2  0
 12 28  1  0
 28 29  1  0
  8  3  1  0
 29  9  1  0
 26 15  1  0
 25 20  1  0
  1 30  1  0
  1 31  1  0
  1 32  1  0
  4 33  1  0
  5 34  1  0
  7 35  1  0
 10 36  1  0
 10 37  1  0
 11 38  1  0
 11 39  1  0
 12 40  1  0
 13 41  1  0
 13 42  1  0
 14 43  1  0
 14 44  1  0
 16 45  1  0
 16 46  1  0
 17 47  1  0
 17 48  1  0
 19 49  1  0
 19 50  1  0
 21 51  1  0
 22 52  1  0
 23 53  1  0
 24 54  1  0
 25 55  1  0
 28 56  1  0
 28 57  1  0
 29 58  1  0
 29 59  1  0
M  CHG  1  12   1
M  END
>  <UniqueID>  (12) 
11

>  <SMILES>  (12) 
COc1ccncc1N1CC[NH+](CCN2CCN(Cc3ccccc3)C2=O)CC1

>  <Energy>  (12) 
85.4732638578794

>  <Genealogy>  (12) 
COc1ccncc1N1CC[NH+](CCN2CCN(Cc3ccccc3)C2=O)CC1 (protonated)
COc1ccncc1N1CC[NH+](CCN2CCN(Cc3ccccc3)C2=O)CC1 (3D coordinates assigned)
COc1ccncc1N1CC[NH+](CCN2CCN(Cc3ccccc3)C2=O)CC1 (nonaromatic ring conformer: 85.4732638578794 kcal/mol)

>  <smiles>  (12) 
COc1ccncc1N1CCN(CCN2CCN(Cc3ccccc3)C2=O)CC1

>  <score_type>  (12) 
oracle

>  <origin>  (12) 
adg

>  <m_score__min__energy>  (12) 
-6.3099999999999996

>  <m_primary>  (12) 
energy

$$$$
12:0
     RDKit          3D

 49 52  0  0  0  0  0  0  0  0999 V2000
   58.0090   23.6490   45.5560 C   0  0  0  0  0  0  0  0  0  0  0  0
   57.9280   24.7670   46.4340 O   0  0  0  0  0  0  0  0  0  0  0  0
   58.6430   25.9650   46.2810 C   0  0  0  0  0  0  0  0  0  0  0  0
   60.0500   25.9760   46.3500 C   0  0  0  0  0  0  0  0  0  0  0  0
   60.7600   27.1630   46.1990 C   0  0  0  0  0  0  0  0  0  0  0  0
   60.0870   28.3580   45.9750 C   0  0  0  0  0  0  0  0  0  0  0  0
   58.6850   28.3860   45.8960 C   0  0  0  0  0  0  0  0  0  0  0  0
   57.9920   29.7190   45.6380 C   0  0  1  0  0  0  0  0  0  0  0  0
   58.9470   30.9380   45.8760 C   0  0  2  0  0  0  0  0  0  0  0  0
   59.2370   31.1370   47.3500 C   0  0  0  0  0  0  0  0  0  0  0  0
   59.6690   30.2090   48.0170 O   0  0  0  0  0  0  0  0  0  0  0  0
   59.0520   32.4760   48.0060 C   0  0  0  0  0  0  0  0  0  0  0  0
   59.5150   33.6200   47.0760 C   0  0  0  0  0  0  0  0  0  0  0  0
   59.2870   34.9670   47.7950 C   0  0  0  0  0  0  0  0  0  0  0  0
   61.0250   33.4960   46.7590 C   0  0  0  0  0  0  0  0  0  0  0  0
   58.6840   33.5980   45.7660 C   0  0  0  0  0  0  0  0  0  0  0  0
   58.4110   32.2190   45.2110 C   0  0  0  0  0  0  0  0  0  0  0  0
   57.7180   32.1510   44.1080 N   0  0  0  0  0  0  0  0  0  0  0  0
   57.3230   30.8910   43.5780 C   0  0  0  0  0  0  0  0  0  0  0  0
   56.6150   30.7150   42.4440 N   0  0  0  0  0  0  0  0  0  0  0  0
   56.3410   29.3890   42.4990 C   0  0  0  0  0  0  0  0  0  0  0  0
   56.8330   28.8150   43.6160 N   0  0  0  0  0  0  0  0  0  0  0  0
   57.4670   29.7660   44.2740 N   0  0  0  0  0  0  0  0  0  0  0  0
   57.9490   27.1850   46.0550 C   0  0  0  0  0  0  0  0  0  0  0  0
   56.5440   27.2700   45.9860 O   0  0  0  0  0  0  0  0  0  0  0  0
   55.6190   26.1890   45.9980 C   0  0  0  0  0  0  0  0  0  0  0  0
   58.0761   22.7233   46.1464 H   0  0  0  0  0  0  0  0  0  0  0  0
   57.1110   23.6151   44.9217 H   0  0  0  0  0  0  0  0  0  0  0  0
   58.9025   23.7449   44.9217 H   0  0  0  0  0  0  0  0  0  0  0  0
   60.5933   25.0357   46.5252 H   0  0  0  0  0  0  0  0  0  0  0  0
   61.8584   27.1555   46.2572 H   0  0  0  0  0  0  0  0  0  0  0  0
   60.6578   29.2910   45.8584 H   0  0  0  0  0  0  0  0  0  0  0  0
   57.1630   29.7946   46.3571 H   0  0  0  0  0  0  0  0  0  0  0  0
   59.9059   30.7062   45.3894 H   0  0  0  0  0  0  0  0  0  0  0  0
   57.9872   32.6153   48.2441 H   0  0  0  0  0  0  0  0  0  0  0  0
   59.6599   32.5030   48.9223 H   0  0  0  0  0  0  0  0  0  0  0  0
   59.3135   34.8107   48.8835 H   0  0  0  0  0  0  0  0  0  0  0  0
   60.0781   35.6749   47.5069 H   0  0  0  0  0  0  0  0  0  0  0  0
   58.3070   35.3751   47.5069 H   0  0  0  0  0  0  0  0  0  0  0  0
   61.5944   33.4492   47.6990 H   0  0  0  0  0  0  0  0  0  0  0  0
   61.2033   32.5802   46.1764 H   0  0  0  0  0  0  0  0  0  0  0  0
   61.3504   34.3704   46.1764 H   0  0  0  0  0  0  0  0  0  0  0  0
   57.7175   34.0838   45.9658 H   0  0  0  0  0  0  0  0  0  0  0  0
   59.2856   34.1226   45.0091 H   0  0  0  0  0  0  0  0  0  0  0  0
   55.7826   28.8444   41.7233 H   0  0  0  0  0  0  0  0  0  0  0  0
   56.7090   27.8270   43.9310 H   0  0  0  0  0  0  0  0  0  0  0  0
   55.3863   25.9171   47.0381 H   0  0  0  0  0  0  0  0  0  0  0  0
   54.6954   26.4910   45.4826 H   0  0  0  0  0  0  0  0  0  0  0  0
   56.0602   25.3232   45.4826 H   0  0  0  0  0  0  0  0  0  0  0  0
  1  2  1  0
  2  3  1  0
  3  4  2  0
  4  5  1  0
  5  6  2  0
  6  7  1  0
  7  8  1  0
  8  9  1  0
  9 10  1  0
 10 11  2  0
 10 12  1  0
 12 13  1  0
 13 14  1  0
 13 15  1  0
 13 16  1  0
 16 17  1  0
 17 18  2  0
 18 19  1  0
 19 20  2  0
 20 21  1  0
 21 22  2  0
 22 23  1  0
  7 24  2  0
 24 25  1  0
 25 26  1  0
 24  3  1  0
 23  8  1  0
 17  9  1  0
 23 19  1  0
  1 27  1  0
  1 28  1  0
  1 29  1  0
  4 30  1  0
  5 31  1  0
  6 32  1  0
  8 33  1  1
  9 34  1  6
 12 35  1  0
 12 36  1  0
 14 37  1  0
 14 38  1  0
 14 39  1  0
 15 40  1  0
 15 41  1  0
 15 42  1  0
 16 43  1  0
 16 44  1  0
 21 45  1  0
 22 46  1  0
 26 47  1  0
 26 48  1  0
 26 49  1  0
M  CHG  1  22   1
M  END
>  <UniqueID>  (13) 
12

>  <SMILES>  (13) 
COc1cccc([C@H]2[C@@H]3C(=O)CC(C)(C)CC3=Nc3nc[nH+]n32)c1OC

>  <Energy>  (13) 
94.06220184612664

>  <Genealogy>  (13) 
COc1cccc(C2C3C(=O)CC(C)(C)CC3=Nc3nc[nH+]n32)c1OC (protonated)
COc1cccc([C@H]2[C@@H]3C(=O)CC(C)(C)CC3=Nc3nc[nH+]n32)c1OC (chirality)
COc1cccc([C@H]2[C@@H]3C(=O)CC(C)(C)CC3=Nc3nc[nH+]n32)c1OC (3D coordinates assigned)
COc1cccc([C@H]2[C@@H]3C(=O)CC(C)(C)CC3=Nc3nc[nH+]n32)c1OC (nonaromatic ring conformer: 94.06220184612664 kcal/mol)

>  <smiles>  (13) 
COc1cccc(C2C3C(=O)CC(C)(C)CC3=Nc3ncnn32)c1OC

>  <score_type>  (13) 
oracle

>  <origin>  (13) 
adg

>  <m_score__min__energy>  (13) 
-6.5300000000000002

>  <m_primary>  (13) 
energy

$$$$
13:0
     RDKit          3D

 46 49  0  0  0  0  0  0  0  0999 V2000
   63.2970   29.9380   52.0170 C   0  0  0  0  0  0  0  0  0  0  0  0
   64.3430   30.7590   51.3220 C   0  0  0  0  0  0  0  0  0  0  0  0
   65.6940   30.6070   51.6610 C   0  0  0  0  0  0  0  0  0  0  0  0
   66.6540   31.3930   51.0250 C   0  0  0  0  0  0  0  0  0  0  0  0
   66.2620   32.3330   50.0730 C   0  0  0  0  0  0  0  0  0  0  0  0
   64.9000   32.4890   49.7780 C   0  0  0  0  0  0  0  0  0  0  0  0
   64.4640   33.4710   48.7270 C   0  0  0  0  0  0  0  0  0  0  0  0
   63.0320   33.3320   48.4880 N   0  0  0  0  0  0  0  0  0  0  0  0
   62.4670   32.7560   47.4090 C   0  0  0  0  0  0  0  0  0  0  0  0
   61.1030   32.7350   47.6050 C   0  0  0  0  0  0  0  0  0  0  0  0
   60.0860   32.1320   46.7180 C   0  0  0  0  0  0  0  0  0  0  0  0
   59.1640   32.9280   45.9960 C   0  0  0  0  0  0  0  0  0  0  0  0
   59.1510   34.4320   46.0930 C   0  0  0  0  0  0  0  0  0  0  0  0
   58.5600   34.8250   47.2800 F   0  0  0  0  0  0  0  0  0  0  0  0
   60.4420   34.9270   46.0630 F   0  0  0  0  0  0  0  0  0  0  0  0
   58.4260   34.9630   45.0430 F   0  0  0  0  0  0  0  0  0  0  0  0
   58.2690   32.3470   45.2000 O   0  0  0  0  0  0  0  0  0  0  0  0
   58.1770   31.0320   45.0440 C   0  0  0  0  0  0  0  0  0  0  0  0
   57.2030   30.5040   44.1880 C   0  0  0  0  0  0  0  0  0  0  0  0
   57.0920   29.1220   44.0170 C   0  0  0  0  0  0  0  0  0  0  0  0
   57.9540   28.2580   44.7010 C   0  0  0  0  0  0  0  0  0  0  0  0
   57.7960   26.3700   44.4630 Br  0  0  0  0  0  0  0  0  0  0  0  0
   58.9310   28.7760   45.5590 C   0  0  0  0  0  0  0  0  0  0  0  0
   59.0500   30.1670   45.7370 C   0  0  0  0  0  0  0  0  0  0  0  0
   60.0160   30.7340   46.5820 C   0  0  0  0  0  0  0  0  0  0  0  0
   60.8280   29.9950   47.2070 O   0  0  0  0  0  0  0  0  0  0  0  0
   60.9100   33.3150   48.8470 C   0  0  0  0  0  0  0  0  0  0  0  0
   59.6100   33.4750   49.5670 C   0  0  0  0  0  0  0  0  0  0  0  0
   62.1030   33.6580   49.3730 N   0  0  0  0  0  0  0  0  0  0  0  0
   63.9770   31.6980   50.4010 N   0  0  0  0  0  0  0  0  0  0  0  0
   63.4193   30.0340   53.1060 H   0  0  0  0  0  0  0  0  0  0  0  0
   62.2979   30.2956   51.7273 H   0  0  0  0  0  0  0  0  0  0  0  0
   63.4070   28.8826   51.7273 H   0  0  0  0  0  0  0  0  0  0  0  0
   65.9949   29.8731   52.4231 H   0  0  0  0  0  0  0  0  0  0  0  0
   67.7186   31.2717   51.2739 H   0  0  0  0  0  0  0  0  0  0  0  0
   67.0149   32.9473   49.5575 H   0  0  0  0  0  0  0  0  0  0  0  0
   64.6798   34.4936   49.0701 H   0  0  0  0  0  0  0  0  0  0  0  0
   65.0101   33.2716   47.7932 H   0  0  0  0  0  0  0  0  0  0  0  0
   63.0002   32.3706   46.5274 H   0  0  0  0  0  0  0  0  0  0  0  0
   56.5230   31.1796   43.6484 H   0  0  0  0  0  0  0  0  0  0  0  0
   56.3252   28.7122   43.3431 H   0  0  0  0  0  0  0  0  0  0  0  0
   59.6074   28.0943   46.0954 H   0  0  0  0  0  0  0  0  0  0  0  0
   59.7869   33.4532   50.6525 H   0  0  0  0  0  0  0  0  0  0  0  0
   59.1529   34.4362   49.2892 H   0  0  0  0  0  0  0  0  0  0  0  0
   58.9335   32.6533   49.2892 H   0  0  0  0  0  0  0  0  0  0  0  0
   62.9660   31.8120   50.1630 H   0  0  0  0  0  0  0  0  0  0  0  0
  1  2  1  0
  2  3  2  0
  3  4  1  0
  4  5  2  0
  5  6  1  0
  6  7  1  0
  7  8  1  0
  8  9  1  0
  9 10  2  0
 10 11  1  0
 11 12  2  0
 12 13  1  0
 13 14  1  0
 13 15  1  0
 13 16  1  0
 12 17  1  0
 17 18  1  0
 18 19  2  0
 19 20  1  0
 20 21  2  0
 21 22  1  0
 21 23  1  0
 23 24  2  0
 24 25  1  0
 25 26  2  0
 10 27  1  0
 27 28  1  0
 27 29  2  0
  6 30  2  0
 30  2  1  0
 29  8  1  0
 25 11  1  0
 24 18  1  0
  1 31  1  0
  1 32  1  0
  1 33  1  0
  3 34  1  0
  4 35  1  0
  5 36  1  0
  7 37  1  0
  7 38  1  0
  9 39  1  0
 19 40  1  0
 20 41  1  0
 23 42  1  0
 28 43  1  0
 28 44  1  0
 28 45  1  0
 30 46  1  0
M  CHG  1  30   1
M  END
>  <UniqueID>  (14) 
13

>  <SMILES>  (14) 
Cc1cccc(Cn2cc(-c3c(C(F)(F)F)oc4ccc(Br)cc4c3=O)c(C)n2)[nH+]1

>  <Energy>  (14) 
89.59419695165602

>  <Genealogy>  (14) 
Cc1cccc(Cn2cc(-c3c(C(F)(F)F)oc4ccc(Br)cc4c3=O)c(C)n2)[nH+]1 (protonated)
Cc1cccc(Cn2cc(-c3c(C(F)(F)F)oc4ccc(Br)cc4c3=O)c(C)n2)[nH+]1 (3D coordinates assigned)
Cc1cccc(Cn2cc(-c3c(C(F)(F)F)oc4ccc(Br)cc4c3=O)c(C)n2)[nH+]1 (optimized conformer: 89.59419695165602 kcal/mol)

>  <smiles>  (14) 
Cc1cccc(Cn2cc(-c3c(C(F)(F)F)oc4ccc(Br)cc4c3=O)c(C)n2)n1

>  <score_type>  (14) 
oracle

>  <origin>  (14) 
adg

>  <m_score__min__energy>  (14) 
-6.3499999999999996

>  <m_primary>  (14) 
energy

$$$$
14:0
     RDKit          3D

 43 45  0  0  0  0  0  0  0  0999 V2000
   57.0500   31.1260   42.6820 C   0  0  0  0  0  0  0  0  0  0  0  0
   56.9230   30.0990   43.7690 C   0  0  0  0  0  0  0  0  0  0  0  0
   55.9410   30.1200   44.4990 O   0  0  0  0  0  0  0  0  0  0  0  0
   57.9460   29.0850   43.9440 N   0  0  0  0  0  0  0  0  0  0  0  0
   57.4710   28.0000   44.8440 C   0  0  0  0  0  0  0  0  0  0  0  0
   58.0210   28.1480   46.2720 C   0  0  0  0  0  0  0  0  0  0  0  0
   59.5050   28.1020   46.2920 N   0  0  0  0  0  0  0  0  0  0  0  0
   60.0440   28.7120   47.5260 C   0  0  0  0  0  0  0  0  0  0  0  0
   60.2350   30.1940   47.3530 C   0  0  0  0  0  0  0  0  0  0  0  0
   61.4980   30.7800   47.5060 C   0  0  0  0  0  0  0  0  0  0  0  0
   61.6640   32.1590   47.3090 C   0  0  0  0  0  0  0  0  0  0  0  0
   63.0340   32.7640   47.4800 C   0  0  0  0  0  0  0  0  0  0  0  0
   60.5410   32.9420   46.9490 C   0  0  0  0  0  0  0  0  0  0  0  0
   60.6250   34.3340   46.7320 C   0  0  0  0  0  0  0  0  0  0  0  0
   59.4870   35.0630   46.3750 C   0  0  0  0  0  0  0  0  0  0  0  0
   58.2560   34.4210   46.2290 C   0  0  0  0  0  0  0  0  0  0  0  0
   58.1550   33.0440   46.4410 C   0  0  0  0  0  0  0  0  0  0  0  0
   59.2860   32.3030   46.7990 C   0  0  0  0  0  0  0  0  0  0  0  0
   59.1730   30.9640   47.0000 N   0  0  0  0  0  0  0  0  0  0  0  0
   60.1280   28.6910   45.0780 C   0  0  0  0  0  0  0  0  0  0  0  0
   59.2130   29.7160   44.3920 C   0  0  0  0  0  0  0  0  0  0  0  0
   57.1732   32.1224   43.1315 H   0  0  0  0  0  0  0  0  0  0  0  0
   57.9263   30.8940   42.0589 H   0  0  0  0  0  0  0  0  0  0  0  0
   56.1436   31.1144   42.0589 H   0  0  0  0  0  0  0  0  0  0  0  0
   58.1330   28.6490   43.0100 H   0  0  0  0  0  0  0  0  0  0  0  0
   56.3720   28.0277   44.8830 H   0  0  0  0  0  0  0  0  0  0  0  0
   57.8331   27.0431   44.4400 H   0  0  0  0  0  0  0  0  0  0  0  0
   57.6878   29.1115   46.6851 H   0  0  0  0  0  0  0  0  0  0  0  0
   57.6420   27.3104   46.8760 H   0  0  0  0  0  0  0  0  0  0  0  0
   59.3407   28.5336   48.3528 H   0  0  0  0  0  0  0  0  0  0  0  0
   61.0201   28.2552   47.7465 H   0  0  0  0  0  0  0  0  0  0  0  0
   62.3619   30.1573   47.7813 H   0  0  0  0  0  0  0  0  0  0  0  0
   63.2596   32.8636   48.5520 H   0  0  0  0  0  0  0  0  0  0  0  0
   63.7839   32.1133   47.0064 H   0  0  0  0  0  0  0  0  0  0  0  0
   63.0582   33.7565   47.0064 H   0  0  0  0  0  0  0  0  0  0  0  0
   61.5910   34.8479   46.8444 H   0  0  0  0  0  0  0  0  0  0  0  0
   59.5618   36.1477   46.2083 H   0  0  0  0  0  0  0  0  0  0  0  0
   57.3645   35.0002   45.9467 H   0  0  0  0  0  0  0  0  0  0  0  0
   57.1835   32.5411   46.3261 H   0  0  0  0  0  0  0  0  0  0  0  0
   61.0641   29.1907   45.3678 H   0  0  0  0  0  0  0  0  0  0  0  0
   60.3126   27.8743   44.3646 H   0  0  0  0  0  0  0  0  0  0  0  0
   58.9810   30.5229   45.1027 H   0  0  0  0  0  0  0  0  0  0  0  0
   59.7352   30.1160   43.5104 H   0  0  0  0  0  0  0  0  0  0  0  0
  1  2  1  0
  2  3  2  0
  2  4  1  0
  4  5  1  0
  5  6  1  0
  6  7  1  0
  7  8  1  0
  8  9  1  0
  9 10  2  0
 10 11  1  0
 11 12  1  0
 11 13  2  0
 13 14  1  0
 14 15  2  0
 15 16  1  0
 16 17  2  0
 17 18  1  0
 18 19  2  0
  7 20  1  0
 20 21  1  0
 21  4  1  0
 19  9  1  0
 18 13  1  0
  1 22  1  0
  1 23  1  0
  1 24  1  0
  4 25  1  0
  5 26  1  0
  5 27  1  0
  6 28  1  0
  6 29  1  0
  8 30  1  0
  8 31  1  0
 10 32  1  0
 12 33  1  0
 12 34  1  0
 12 35  1  0
 14 36  1  0
 15 37  1  0
 16 38  1  0
 17 39  1  0
 20 40  1  0
 20 41  1  0
 21 42  1  0
 21 43  1  0
M  CHG  1   4   1
M  END
>  <UniqueID>  (15) 
14

>  <SMILES>  (15) 
CC(=O)[NH+]1CCN(Cc2cc(C)c3ccccc3n2)CC1

>  <Energy>  (15) 
60.29034939736273

>  <Genealogy>  (15) 
CC(=O)[NH+]1CCN(Cc2cc(C)c3ccccc3n2)CC1 (protonated)
CC(=O)[NH+]1CCN(Cc2cc(C)c3ccccc3n2)CC1 (3D coordinates assigned)
CC(=O)[NH+]1CCN(Cc2cc(C)c3ccccc3n2)CC1 (nonaromatic ring conformer: 60.29034939736273 kcal/mol)

>  <smiles>  (15) 
CC(=O)N1CCN(Cc2cc(C)c3ccccc3n2)CC1

>  <score_type>  (15) 
oracle

>  <origin>  (15) 
adg

>  <m_score__min__energy>  (15) 
-6.4100000000000001

>  <m_primary>  (15) 
energy

$$$$
15:0
     RDKit          3D

 56 58  0  0  0  0  0  0  0  0999 V2000
   56.9830   26.8960   45.9380 C   0  0  0  0  0  0  0  0  0  0  0  0
   55.9080   27.7490   45.5630 O   0  0  0  0  0  0  0  0  0  0  0  0
   56.1090   28.9880   44.9470 C   0  0  0  0  0  0  0  0  0  0  0  0
   55.1370   29.6170   44.4490 O   0  0  0  0  0  0  0  0  0  0  0  0
   57.4350   29.5320   44.9020 N   0  0  0  0  0  0  0  0  0  0  0  0
   57.9350   30.6760   45.6730 C   0  0  2  0  0  0  0  0  0  0  0  0
   57.4610   32.0110   45.0610 C   0  0  0  0  0  0  0  0  0  0  0  0
   58.1980   33.1900   45.6430 C   0  0  0  0  0  0  0  0  0  0  0  0
   58.8460   34.1060   44.7970 C   0  0  0  0  0  0  0  0  0  0  0  0
   59.5610   35.1790   45.3380 C   0  0  0  0  0  0  0  0  0  0  0  0
   59.6360   35.3440   46.7240 C   0  0  0  0  0  0  0  0  0  0  0  0
   58.9920   34.4370   47.5720 C   0  0  0  0  0  0  0  0  0  0  0  0
   58.2790   33.3620   47.0370 C   0  0  0  0  0  0  0  0  0  0  0  0
   59.4840   30.6320   45.8040 C   0  0  0  0  0  0  0  0  0  0  0  0
   59.9830   30.6050   47.2010 N   0  0  0  0  0  0  0  0  0  0  0  0
   59.2930   29.6110   48.0500 C   0  0  0  0  0  0  0  0  0  0  0  0
   59.0490   30.2070   49.4090 C   0  0  0  0  0  0  0  0  0  0  0  0
   58.5450   31.5130   49.5400 C   0  0  0  0  0  0  0  0  0  0  0  0
   58.2750   32.0390   50.8090 C   0  0  0  0  0  0  0  0  0  0  0  0
   58.5000   31.2630   51.9520 C   0  0  0  0  0  0  0  0  0  0  0  0
   58.9910   29.9590   51.8270 C   0  0  0  0  0  0  0  0  0  0  0  0
   59.2610   29.4300   50.5610 C   0  0  0  0  0  0  0  0  0  0  0  0
   61.4530   30.5270   47.3250 C   0  0  0  0  0  0  0  0  0  0  0  0
   62.0160   31.8130   47.8740 C   0  0  0  0  0  0  0  0  0  0  0  0
   62.8950   32.5860   47.0950 C   0  0  0  0  0  0  0  0  0  0  0  0
   63.4240   33.7770   47.6030 C   0  0  0  0  0  0  0  0  0  0  0  0
   63.0700   34.2080   48.8870 C   0  0  0  0  0  0  0  0  0  0  0  0
   62.1770   33.4580   49.6560 C   0  0  0  0  0  0  0  0  0  0  0  0
   61.6420   32.2700   49.1490 C   0  0  0  0  0  0  0  0  0  0  0  0
   57.0459   26.8461   47.0351 H   0  0  0  0  0  0  0  0  0  0  0  0
   56.8089   25.8876   45.5344 H   0  0  0  0  0  0  0  0  0  0  0  0
   57.9254   27.2947   45.5344 H   0  0  0  0  0  0  0  0  0  0  0  0
   57.5137   30.6068   46.6868 H   0  0  0  0  0  0  0  0  0  0  0  0
   57.6331   31.9851   43.9749 H   0  0  0  0  0  0  0  0  0  0  0  0
   56.3919   32.1304   45.2907 H   0  0  0  0  0  0  0  0  0  0  0  0
   58.7906   33.9785   43.7058 H   0  0  0  0  0  0  0  0  0  0  0  0
   60.0653   35.8944   44.6718 H   0  0  0  0  0  0  0  0  0  0  0  0
   60.2014   36.1870   47.1478 H   0  0  0  0  0  0  0  0  0  0  0  0
   59.0473   34.5707   48.6624 H   0  0  0  0  0  0  0  0  0  0  0  0
   57.7792   32.6475   47.7076 H   0  0  0  0  0  0  0  0  0  0  0  0
   59.8465   29.7283   45.2922 H   0  0  0  0  0  0  0  0  0  0  0  0
   59.8624   31.5620   45.3547 H   0  0  0  0  0  0  0  0  0  0  0  0
   58.3319   29.3379   47.5899 H   0  0  0  0  0  0  0  0  0  0  0  0
   59.9175   28.7108   48.1476 H   0  0  0  0  0  0  0  0  0  0  0  0
   58.3624   32.1231   48.6431 H   0  0  0  0  0  0  0  0  0  0  0  0
   57.8857   33.0630   50.9079 H   0  0  0  0  0  0  0  0  0  0  0  0
   58.2907   31.6786   52.9487 H   0  0  0  0  0  0  0  0  0  0  0  0
   59.1649   29.3490   52.7257 H   0  0  0  0  0  0  0  0  0  0  0  0
   59.6407   28.4020   50.4663 H   0  0  0  0  0  0  0  0  0  0  0  0
   61.7138   29.7012   48.0033 H   0  0  0  0  0  0  0  0  0  0  0  0
   61.8810   30.3542   46.3265 H   0  0  0  0  0  0  0  0  0  0  0  0
   63.1676   32.2530   46.0827 H   0  0  0  0  0  0  0  0  0  0  0  0
   64.1179   34.3748   46.9938 H   0  0  0  0  0  0  0  0  0  0  0  0
   63.4956   35.1385   49.2909 H   0  0  0  0  0  0  0  0  0  0  0  0
   61.8944   33.8025   50.6617 H   0  0  0  0  0  0  0  0  0  0  0  0
   60.9257   31.6910   49.7504 H   0  0  0  0  0  0  0  0  0  0  0  0
  1  2  1  0
  2  3  1  0
  3  4  2  0
  3  5  1  0
  5  6  1  0
  6  7  1  0
  7  8  1  0
  8  9  2  0
  9 10  1  0
 10 11  2  0
 11 12  1  0
 12 13  2  0
  6 14  1  0
 14 15  1  0
 15 16  1  0
 16 17  1  0
 17 18  2  0
 18 19  1  0
 19 20  2  0
 20 21  1  0
 21 22  2  0
 15 23  1  0
 23 24  1  0
 24 25  2  0
 25 26  1  0
 26 27  2  0
 27 28  1  0
 28 29  2  0
 13  8  1  0
 22 17  1  0
 29 24  1  0
  1 30  1  0
  1 31  1  0
  1 32  1  0
  6 33  1  1
  7 34  1  0
  7 35  1  0
  9 36  1  0
 10 37  1  0
 11 38  1  0
 12 39  1  0
 13 40  1  0
 14 41  1  0
 14 42  1  0
 16 43  1  0
 16 44  1  0
 18 45  1  0
 19 46  1  0
 20 47  1  0
 21 48  1  0
 22 49  1  0
 23 50  1  0
 23 51  1  0
 25 52  1  0
 26 53  1  0
 27 54  1  0
 28 55  1  0
 29 56  1  0
M  CHG  1   5  -1
M  END
>  <UniqueID>  (16) 
15

>  <SMILES>  (16) 
COC(=O)[N-][C@H](Cc1ccccc1)CN(Cc1ccccc1)Cc1ccccc1

>  <Energy>  (16) 
56.906706782518704

>  <Genealogy>  (16) 
COC(=O)[N-]C(Cc1ccccc1)CN(Cc1ccccc1)Cc1ccccc1 (protonated)
COC(=O)[N-][C@H](Cc1ccccc1)CN(Cc1ccccc1)Cc1ccccc1 (chirality)
COC(=O)[N-][C@H](Cc1ccccc1)CN(Cc1ccccc1)Cc1ccccc1 (3D coordinates assigned)
COC(=O)[N-][C@H](Cc1ccccc1)CN(Cc1ccccc1)Cc1ccccc1 (optimized conformer: 56.906706782518704 kcal/mol)

>  <smiles>  (16) 
COC(=O)NC(Cc1ccccc1)CN(Cc1ccccc1)Cc1ccccc1

>  <score_type>  (16) 
oracle

>  <origin>  (16) 
adg

>  <m_score__min__energy>  (16) 
-9.9600000000000009

>  <m_primary>  (16) 
energy

$$$$
16:0
     RDKit          3D

 48 50  0  0  0  0  0  0  0  0999 V2000
   63.0413   34.3069   50.7654 H   0  0  0  0  0  0  0  0  0  0  0  0
   63.4190   33.6130   50.0000 C   0  0  0  0  0  0  0  0  0  0  0  0
   60.2130   34.5690   46.4100 C   0  0  0  0  0  0  0  0  0  0  0  0
   61.5200   34.0900   48.5030 C   0  0  0  0  0  0  0  0  0  0  0  0
   60.6350   34.2550   49.3850 O   0  0  0  0  0  0  0  0  0  0  0  0
   61.3290   34.2080   47.0660 C   0  0  0  0  0  0  0  0  0  0  0  0
   62.8820   33.6720   48.7710 C   0  0  0  0  0  0  0  0  0  0  0  0
   60.0605   35.6402   46.2117 H   0  0  0  0  0  0  0  0  0  0  0  0
   59.1780   33.6300   45.9370 C   0  0  0  0  0  0  0  0  0  0  0  0
   58.3320   33.9680   44.8720 C   0  0  0  0  0  0  0  0  0  0  0  0
   58.4106   34.9605   44.4042 H   0  0  0  0  0  0  0  0  0  0  0  0
   65.1320   30.5150   51.3040 C   0  0  0  0  0  0  0  0  0  0  0  0
   64.8502   29.5577   51.7667 H   0  0  0  0  0  0  0  0  0  0  0  0
   66.4890   30.8060   51.0670 C   0  0  0  0  0  0  0  0  0  0  0  0
   67.5200   29.9160   51.4020 O   0  0  0  0  0  0  0  0  0  0  0  0
   67.5470   28.5420   51.0300 C   0  0  0  0  0  0  0  0  0  0  0  0
   67.5593   27.9172   51.9353 H   0  0  0  0  0  0  0  0  0  0  0  0
   66.6533   28.3060   50.4337 H   0  0  0  0  0  0  0  0  0  0  0  0
   68.4493   28.3412   50.4337 H   0  0  0  0  0  0  0  0  0  0  0  0
   66.8300   32.0250   50.4700 C   0  0  0  0  0  0  0  0  0  0  0  0
   67.8867   32.2592   50.2736 H   0  0  0  0  0  0  0  0  0  0  0  0
   59.1080   32.3460   46.4920 C   0  0  0  0  0  0  0  0  0  0  0  0
   59.7990   32.0620   47.2994 H   0  0  0  0  0  0  0  0  0  0  0  0
   62.5880   33.8040   46.3630 C   0  0  0  0  0  0  0  0  0  0  0  0
   62.9666   34.6353   45.7501 H   0  0  0  0  0  0  0  0  0  0  0  0
   62.4161   32.9521   45.6887 H   0  0  0  0  0  0  0  0  0  0  0  0
   63.6030   33.4500   47.4720 C   0  0  0  0  0  0  0  0  0  0  0  0
   64.4854   34.1036   47.4068 H   0  0  0  0  0  0  0  0  0  0  0  0
   63.9604   32.4139   47.3787 H   0  0  0  0  0  0  0  0  0  0  0  0
   64.4880   32.6690   50.3820 C   0  0  0  0  0  0  0  0  0  0  0  0
   64.1410   31.4370   50.9540 C   0  0  0  0  0  0  0  0  0  0  0  0
   63.0824   31.1942   51.1285 H   0  0  0  0  0  0  0  0  0  0  0  0
   57.3900   33.0510   44.4020 C   0  0  0  0  0  0  0  0  0  0  0  0
   56.7197   33.3306   43.5759 H   0  0  0  0  0  0  0  0  0  0  0  0
   57.2930   31.7710   44.9790 C   0  0  0  0  0  0  0  0  0  0  0  0
   56.3560   30.8230   44.5350 O   0  0  0  0  0  0  0  0  0  0  0  0
   56.5140   30.0150   43.3740 C   0  0  0  0  0  0  0  0  0  0  0  0
   56.7171   28.9766   43.6748 H   0  0  0  0  0  0  0  0  0  0  0  0
   55.5921   30.0496   42.7749 H   0  0  0  0  0  0  0  0  0  0  0  0
   57.3550   30.3943   42.7749 H   0  0  0  0  0  0  0  0  0  0  0  0
   58.1590   31.4150   46.0240 C   0  0  0  0  0  0  0  0  0  0  0  0
   58.0480   30.1270   46.5720 O   0  0  0  0  0  0  0  0  0  0  0  0
   59.0840   29.1500   46.5550 C   0  0  0  0  0  0  0  0  0  0  0  0
   59.3597   28.8900   47.5876 H   0  0  0  0  0  0  0  0  0  0  0  0
   58.7300   28.2493   46.0321 H   0  0  0  0  0  0  0  0  0  0  0  0
   59.9624   29.5561   46.0321 H   0  0  0  0  0  0  0  0  0  0  0  0
   65.8390   32.9480   50.1210 C   0  0  0  0  0  0  0  0  0  0  0  0
   66.1192   33.8967   49.6399 H   0  0  0  0  0  0  0  0  0  0  0  0
  1  2  1  0
  2  3  2  0
  3  4  1  0
  4  5  2  0
  4  6  1  0
  6  7  2  0
  7  8  1  0
  7  9  1  0
  9 10  2  0
 10 11  1  0
 10 12  1  0
 12 13  1  0
 12 14  2  0
 14 15  1  0
 15 16  1  0
 16 17  1  0
 16 18  1  0
 16 19  1  0
 14 20  1  0
 20 21  1  0
 20 22  2  0
 22 23  1  0
  6 24  1  0
 24 25  1  0
 24 26  1  0
 24 27  1  0
 27 28  1  0
 27 29  1  0
  2 30  1  0
 30 31  2  0
 31 32  1  0
 31 33  1  0
 33 34  1  0
 33 35  2  0
 35 36  1  0
 36 37  1  0
 37 38  1  0
 37 39  1  0
 37 40  1  0
 35 41  1  0
 41 42  1  0
 42 43  1  0
 43 44  1  0
 43 45  1  0
 43 46  1  0
 41 47  2  0
 47 48  1  0
 27  3  1  0
 47 30  1  0
 22  9  1  0
M  END
>  <UniqueID>  (17) 
16

>  <SMILES>  (17) 
COc1ccc(/C=C2\CC/C(=C/c3ccc(OC)c(OC)c3)C2=O)cc1

>  <Energy>  (17) 
71.15032592568947

>  <Genealogy>  (17) 
COc1ccc(/C=C2\CC/C(=C/c3ccc(OC)c(OC)c3)C2=O)cc1 (cis-trans isomerization)
COc1ccc(/C=C2\CC/C(=C/c3ccc(OC)c(OC)c3)C2=O)cc1 (3D coordinates assigned)
COc1ccc(/C=C2\CC/C(=C/c3ccc(OC)c(OC)c3)C2=O)cc1 (nonaromatic ring conformer: 71.15032592568947 kcal/mol)

>  <smiles>  (17) 
COc1ccc(C=C2CCC(=Cc3ccc(OC)c(OC)c3)C2=O)cc1

>  <score_type>  (17) 
oracle

>  <origin>  (17) 
adg

>  <m_score__min__energy>  (17) 
-8.3599999999999994

>  <m_primary>  (17) 
energy

$$$$
17:0
     RDKit          3D

 54 57  0  0  0  0  0  0  0  0999 V2000
   64.7780   31.2630   50.8930 C   0  0  0  0  0  0  0  0  0  0  0  0
   64.4380   32.6090   50.5820 O   0  0  0  0  0  0  0  0  0  0  0  0
   63.1690   32.9860   50.1260 C   0  0  0  0  0  0  0  0  0  0  0  0
   62.1050   32.9460   50.9690 N   0  0  0  0  0  0  0  0  0  0  0  0
   60.8570   33.2990   50.5710 C   0  0  0  0  0  0  0  0  0  0  0  0
   59.7480   33.2190   51.5450 C   0  0  0  0  0  0  0  0  0  0  0  0
   59.6880   33.7920   52.8150 C   0  0  0  0  0  0  0  0  0  0  0  0
   58.4900   33.5240   53.4890 C   0  0  0  0  0  0  0  0  0  0  0  0
   57.6000   32.7450   52.7630 C   0  0  0  0  0  0  0  0  0  0  0  0
   58.3070   32.3870   51.2820 S   0  0  0  0  0  0  0  0  0  0  0  0
   60.6550   33.7110   49.2870 N   0  0  0  0  0  0  0  0  0  0  0  0
   61.6840   33.7830   48.3940 C   0  0  0  0  0  0  0  0  0  0  0  0
   61.3910   34.2160   46.9730 C   0  0  0  0  0  0  0  0  0  0  0  0
   60.2800   33.4280   46.4050 N   0  0  0  0  0  0  0  0  0  0  0  0
   60.3370   32.0090   46.8420 C   0  0  0  0  0  0  0  0  0  0  0  0
   58.9830   31.2740   46.7310 C   0  0  0  0  0  0  0  0  0  0  0  0
   58.0830   31.9490   45.7880 N   0  0  0  0  0  0  0  0  0  0  0  0
   57.3510   31.1970   44.8080 C   0  0  0  0  0  0  0  0  0  0  0  0
   56.6000   30.1380   45.2190 N   0  0  0  0  0  0  0  0  0  0  0  0
   55.8730   29.3860   44.3530 C   0  0  0  0  0  0  0  0  0  0  0  0
   55.8740   29.6920   42.9930 C   0  0  0  0  0  0  0  0  0  0  0  0
   56.6410   30.7620   42.5340 C   0  0  0  0  0  0  0  0  0  0  0  0
   57.4090   31.5190   43.4330 C   0  0  0  0  0  0  0  0  0  0  0  0
   58.2580   32.6480   42.9190 C   0  0  0  0  0  0  0  0  0  0  0  0
   57.9070   33.4040   45.8470 C   0  0  0  0  0  0  0  0  0  0  0  0
   58.9800   34.0420   46.7280 C   0  0  0  0  0  0  0  0  0  0  0  0
   62.9870   33.4050   48.7960 C   0  0  0  0  0  0  0  0  0  0  0  0
   64.1520   33.4490   47.8350 C   0  0  0  0  0  0  0  0  0  0  0  0
   64.8101   31.1359   51.9852 H   0  0  0  0  0  0  0  0  0  0  0  0
   64.0226   30.5862   50.4672 H   0  0  0  0  0  0  0  0  0  0  0  0
   65.7642   31.0262   50.4672 H   0  0  0  0  0  0  0  0  0  0  0  0
   60.5014   34.3950   53.2449 H   0  0  0  0  0  0  0  0  0  0  0  0
   58.2742   33.8968   54.5012 H   0  0  0  0  0  0  0  0  0  0  0  0
   56.6047   32.4187   53.0990 H   0  0  0  0  0  0  0  0  0  0  0  0
   59.6960   33.9690   48.9690 H   0  0  0  0  0  0  0  0  0  0  0  0
   61.1166   35.2812   46.9696 H   0  0  0  0  0  0  0  0  0  0  0  0
   62.2900   34.0510   46.3610 H   0  0  0  0  0  0  0  0  0  0  0  0
   61.0717   31.4814   46.2160 H   0  0  0  0  0  0  0  0  0  0  0  0
   60.6180   32.0096   47.9055 H   0  0  0  0  0  0  0  0  0  0  0  0
   59.1613   30.2461   46.3822 H   0  0  0  0  0  0  0  0  0  0  0  0
   58.5074   31.2726   47.7229 H   0  0  0  0  0  0  0  0  0  0  0  0
   55.2832   28.5352   44.7248 H   0  0  0  0  0  0  0  0  0  0  0  0
   55.2756   29.0952   42.2889 H   0  0  0  0  0  0  0  0  0  0  0  0
   56.6444   31.0141   41.4633 H   0  0  0  0  0  0  0  0  0  0  0  0
   58.6782   33.2068   43.7682 H   0  0  0  0  0  0  0  0  0  0  0  0
   59.0764   32.2419   42.3063 H   0  0  0  0  0  0  0  0  0  0  0  0
   57.6407   33.3215   42.3063 H   0  0  0  0  0  0  0  0  0  0  0  0
   57.9809   33.8183   44.8307 H   0  0  0  0  0  0  0  0  0  0  0  0
   56.9189   33.6238   46.2776 H   0  0  0  0  0  0  0  0  0  0  0  0
   59.0230   35.1240   46.5347 H   0  0  0  0  0  0  0  0  0  0  0  0
   58.7407   33.8788   47.7892 H   0  0  0  0  0  0  0  0  0  0  0  0
   65.0939   33.4846   48.4020 H   0  0  0  0  0  0  0  0  0  0  0  0
   64.1390   32.5497   47.2016 H   0  0  0  0  0  0  0  0  0  0  0  0
   64.0712   34.3447   47.2016 H   0  0  0  0  0  0  0  0  0  0  0  0
  1  2  1  0
  2  3  1  0
  3  4  2  0
  4  5  1  0
  5  6  1  0
  6  7  2  0
  7  8  1  0
  8  9  2  0
  9 10  1  0
  5 11  2  0
 11 12  1  0
 12 13  1  0
 13 14  1  0
 14 15  1  0
 15 16  1  0
 16 17  1  0
 17 18  1  0
 18 19  2  0
 19 20  1  0
 20 21  2  0
 21 22  1  0
 22 23  2  0
 23 24  1  0
 17 25  1  0
 25 26  1  0
 12 27  2  0
 27 28  1  0
 27  3  1  0
 10  6  1  0
 26 14  1  0
 23 18  1  0
  1 29  1  0
  1 30  1  0
  1 31  1  0
  7 32  1  0
  8 33  1  0
  9 34  1  0
 11 35  1  0
 13 36  1  0
 13 37  1  0
 15 38  1  0
 15 39  1  0
 16 40  1  0
 16 41  1  0
 20 42  1  0
 21 43  1  0
 22 44  1  0
 24 45  1  0
 24 46  1  0
 24 47  1  0
 25 48  1  0
 25 49  1  0
 26 50  1  0
 26 51  1  0
 28 52  1  0
 28 53  1  0
 28 54  1  0
M  CHG  1  11   1
M  END
>  <UniqueID>  (18) 
17

>  <SMILES>  (18) 
COc1nc(-c2cccs2)[nH+]c(CN2CCN(c3ncccc3C)CC2)c1C

>  <Energy>  (18) 
94.0865861085699

>  <Genealogy>  (18) 
COc1nc(-c2cccs2)[nH+]c(CN2CCN(c3ncccc3C)CC2)c1C (protonated)
COc1nc(-c2cccs2)[nH+]c(CN2CCN(c3ncccc3C)CC2)c1C (3D coordinates assigned)
COc1nc(-c2cccs2)[nH+]c(CN2CCN(c3ncccc3C)CC2)c1C (nonaromatic ring conformer: 94.0865861085699 kcal/mol)

>  <smiles>  (18) 
COc1nc(-c2cccs2)nc(CN2CCN(c3ncccc3C)CC2)c1C

>  <score_type>  (18) 
oracle

>  <origin>  (18) 
adg

>  <m_score__min__energy>  (18) 
-6.6399999999999997

>  <m_primary>  (18) 
energy

$$$$
18:0
     RDKit          3D

 38 40  0  0  0  0  0  0  0  0999 V2000
   63.3950   33.8710   46.2160 C   0  0  0  0  0  0  0  0  0  0  0  0
   63.6580   33.0530   47.4770 C   0  0  0  0  0  0  0  0  0  0  0  0
   62.5080   33.1750   48.4580 C   0  0  0  0  0  0  0  0  0  0  0  0
   62.7780   33.7660   49.7070 C   0  0  0  0  0  0  0  0  0  0  0  0
   61.7960   33.8380   50.6930 C   0  0  0  0  0  0  0  0  0  0  0  0
   60.5370   33.2970   50.4640 C   0  0  0  0  0  0  0  0  0  0  0  0
   60.2460   32.6950   49.2400 C   0  0  0  0  0  0  0  0  0  0  0  0
   61.2020   32.6570   48.1970 C   0  0  0  0  0  0  0  0  0  0  0  0
   60.8880   31.9790   46.9490 N   0  0  0  0  0  0  0  0  0  0  0  0
   59.6240   32.4020   46.3760 C   0  0  0  0  0  0  0  0  0  0  0  0
   59.2900   33.7720   46.4100 C   0  0  0  0  0  0  0  0  0  0  0  0
   58.1190   34.2430   45.8200 C   0  0  0  0  0  0  0  0  0  0  0  0
   57.2530   33.3600   45.1850 C   0  0  0  0  0  0  0  0  0  0  0  0
   57.5420   31.9950   45.1460 C   0  0  0  0  0  0  0  0  0  0  0  0
   58.7250   31.4940   45.7370 C   0  0  0  0  0  0  0  0  0  0  0  0
   58.9620   30.0300   45.6100 C   0  0  0  0  0  0  0  0  0  0  0  0
   59.8110   29.4290   46.3170 O   0  0  0  0  0  0  0  0  0  0  0  0
   58.1620   29.2420   44.6140 C   0  0  0  0  0  0  0  0  0  0  0  0
   56.7110   29.7160   44.6400 C   0  0  0  0  0  0  0  0  0  0  0  0
   56.6460   31.1340   44.4990 O   0  0  0  0  0  0  0  0  0  0  0  0
   63.0695   34.8835   46.4970 H   0  0  0  0  0  0  0  0  0  0  0  0
   64.3180   33.9345   45.6210 H   0  0  0  0  0  0  0  0  0  0  0  0
   62.6079   33.3847   45.6210 H   0  0  0  0  0  0  0  0  0  0  0  0
   63.7828   31.9959   47.1997 H   0  0  0  0  0  0  0  0  0  0  0  0
   64.5694   33.4372   47.9583 H   0  0  0  0  0  0  0  0  0  0  0  0
   63.7785   34.1768   49.9074 H   0  0  0  0  0  0  0  0  0  0  0  0
   62.0180   34.3241   51.6545 H   0  0  0  0  0  0  0  0  0  0  0  0
   59.7683   33.3435   51.2495 H   0  0  0  0  0  0  0  0  0  0  0  0
   59.2561   32.2418   49.0825 H   0  0  0  0  0  0  0  0  0  0  0  0
   61.6200   32.1090   46.2200 H   0  0  0  0  0  0  0  0  0  0  0  0
   60.8690   30.9530   47.1550 H   0  0  0  0  0  0  0  0  0  0  0  0
   59.9657   34.4808   46.9110 H   0  0  0  0  0  0  0  0  0  0  0  0
   57.8791   35.3159   45.8567 H   0  0  0  0  0  0  0  0  0  0  0  0
   56.3355   33.7389   44.7110 H   0  0  0  0  0  0  0  0  0  0  0  0
   58.5791   29.3921   43.6073 H   0  0  0  0  0  0  0  0  0  0  0  0
   58.2041   28.1735   44.8719 H   0  0  0  0  0  0  0  0  0  0  0  0
   56.1612   29.2443   43.8122 H   0  0  0  0  0  0  0  0  0  0  0  0
   56.2616   29.4333   45.6034 H   0  0  0  0  0  0  0  0  0  0  0  0
  1  2  1  0
  2  3  1  0
  3  4  2  0
  4  5  1  0
  5  6  2  0
  6  7  1  0
  7  8  2  0
  8  9  1  0
  9 10  1  0
 10 11  2  0
 11 12  1  0
 12 13  2  0
 13 14  1  0
 14 15  2  0
 15 16  1  0
 16 17  2  0
 16 18  1  0
 18 19  1  0
 19 20  1  0
  8  3  1  0
 15 10  1  0
 20 14  1  0
  1 21  1  0
  1 22  1  0
  1 23  1  0
  2 24  1  0
  2 25  1  0
  4 26  1  0
  5 27  1  0
  6 28  1  0
  7 29  1  0
  9 30  1  0
  9 31  1  0
 11 32  1  0
 12 33  1  0
 13 34  1  0
 18 35  1  0
 18 36  1  0
 19 37  1  0
 19 38  1  0
M  CHG  1   9   1
M  END
>  <UniqueID>  (19) 
18

>  <SMILES>  (19) 
CCc1ccccc1[NH2+]c1cccc2c1C(=O)CCO2

>  <Energy>  (19) 
49.552346536256096

>  <Genealogy>  (19) 
CCc1ccccc1[NH2+]c1cccc2c1C(=O)CCO2 (protonated)
CCc1ccccc1[NH2+]c1cccc2c1C(=O)CCO2 (3D coordinates assigned)
CCc1ccccc1[NH2+]c1cccc2c1C(=O)CCO2 (nonaromatic ring conformer: 49.552346536256096 kcal/mol)

>  <smiles>  (19) 
CCc1ccccc1Nc1cccc2c1C(=O)CCO2

>  <score_type>  (19) 
oracle

>  <origin>  (19) 
adg

>  <m_score__min__energy>  (19) 
-5.3700000000000001

>  <m_primary>  (19) 
energy

$$$$
19:0
     RDKit          3D

 23 24  0  0  0  0  0  0  0  0999 V2000
   57.4330   31.8040   42.0840 C   0  0  0  0  0  0  0  0  0  0  0  0
   57.0090   30.9340   43.1750 N   0  0  0  0  0  0  0  0  0  0  0  0
   56.9610   31.1920   44.5000 C   0  0  0  0  0  0  0  0  0  0  0  0
   57.3480   32.7710   45.2630 S   0  0  0  0  0  0  0  0  0  0  0  0
   58.8870   32.1760   45.9770 C   0  0  0  0  0  0  0  0  0  0  0  0
   59.0840   30.7940   46.1100 C   0  0  0  0  0  0  0  0  0  0  0  0
   60.2730   30.2990   46.6510 C   0  0  0  0  0  0  0  0  0  0  0  0
   61.2690   31.1810   47.0750 C   0  0  0  0  0  0  0  0  0  0  0  0
   61.0730   32.5600   46.9680 C   0  0  0  0  0  0  0  0  0  0  0  0
   59.8840   33.0660   46.4270 C   0  0  0  0  0  0  0  0  0  0  0  0
   59.6410   34.9670   46.3910 Br  0  0  0  0  0  0  0  0  0  0  0  0
   56.5760   30.1080   45.2080 N   0  0  0  0  0  0  0  0  0  0  0  0
   56.3940   29.1360   44.3260 N   0  0  0  0  0  0  0  0  0  0  0  0
   56.6650   29.6360   43.1100 C   0  0  0  0  0  0  0  0  0  0  0  0
   56.6070   28.9660   42.0450 O   0  0  0  0  0  0  0  0  0  0  0  0
   57.8795   32.7201   42.4979 H   0  0  0  0  0  0  0  0  0  0  0  0
   58.1770   31.2806   41.4656 H   0  0  0  0  0  0  0  0  0  0  0  0
   56.5623   32.0675   41.4656 H   0  0  0  0  0  0  0  0  0  0  0  0
   58.2979   30.0958   45.7865 H   0  0  0  0  0  0  0  0  0  0  0  0
   60.4248   29.2134   46.7431 H   0  0  0  0  0  0  0  0  0  0  0  0
   62.2082   30.7899   47.4934 H   0  0  0  0  0  0  0  0  0  0  0  0
   61.8564   33.2522   47.3103 H   0  0  0  0  0  0  0  0  0  0  0  0
   56.1000   28.1620   44.5600 H   0  0  0  0  0  0  0  0  0  0  0  0
  1  2  1  0
  2  3  1  0
  3  4  1  0
  4  5  1  0
  5  6  2  0
  6  7  1  0
  7  8  2  0
  8  9  1  0
  9 10  2  0
 10 11  1  0
  3 12  2  0
 12 13  1  0
 13 14  1  0
 14 15  2  0
 14  2  1  0
 10  5  1  0
  1 16  1  0
  1 17  1  0
  1 18  1  0
  6 19  1  0
  7 20  1  0
  8 21  1  0
  9 22  1  0
 13 23  1  0
M  END
>  <UniqueID>  (20) 
19

>  <SMILES>  (20) 
Cn1c(Sc2ccccc2Br)n[nH]c1=O

>  <Energy>  (20) 
57.4315140259587

>  <Genealogy>  (20) 
Cn1c(Sc2ccccc2Br)n[nH]c1=O (3D coordinates assigned)
Cn1c(Sc2ccccc2Br)n[nH]c1=O (optimized conformer: 57.4315140259587 kcal/mol)

>  <smiles>  (20) 
Cn1c(Sc2ccccc2Br)n[nH]c1=O

>  <score_type>  (20) 
oracle

>  <origin>  (20) 
adg

>  <m_score__min__energy>  (20) 
-6.5

>  <m_primary>  (20) 
energy

$$$$
20:0
     RDKit          3D

 48 50  0  0  0  0  0  0  0  0999 V2000
   58.6215   30.9106   42.5452 H   0  0  0  0  0  0  0  0  0  0  0  0
   57.9880   31.3550   43.3270 C   0  0  0  0  0  0  0  0  0  0  0  0
   57.4290   30.4740   44.3740 C   0  0  0  0  0  0  0  0  0  0  0  0
   56.2650   30.7180   44.7930 O   0  0  0  0  0  0  0  0  0  0  0  0
   58.1780   29.3380   44.9610 C   0  0  0  0  0  0  0  0  0  0  0  0
   59.5830   29.3350   44.9320 C   0  0  0  0  0  0  0  0  0  0  0  0
   60.1223   30.1844   44.4873 H   0  0  0  0  0  0  0  0  0  0  0  0
   60.3000   28.2590   45.4650 C   0  0  0  0  0  0  0  0  0  0  0  0
   61.3998   28.2689   45.4463 H   0  0  0  0  0  0  0  0  0  0  0  0
   59.6220   27.1720   46.0210 C   0  0  0  0  0  0  0  0  0  0  0  0
   60.1881   26.3295   46.4450 H   0  0  0  0  0  0  0  0  0  0  0  0
   58.2240   27.1540   46.0390 C   0  0  0  0  0  0  0  0  0  0  0  0
   57.3730   25.7810   46.7220 Cl  0  0  0  0  0  0  0  0  0  0  0  0
   57.5030   28.2290   45.5060 C   0  0  0  0  0  0  0  0  0  0  0  0
   56.4032   28.2072   45.5130 H   0  0  0  0  0  0  0  0  0  0  0  0
   57.7530   32.6750   43.2930 C   0  0  0  0  0  0  0  0  0  0  0  0
   57.5149   33.1297   42.3201 H   0  0  0  0  0  0  0  0  0  0  0  0
   57.7930   33.5610   44.4800 C   0  0  0  0  0  0  0  0  0  0  0  0
   56.8970   34.4460   44.5760 O   0  0  0  0  0  0  0  0  0  0  0  0
   58.8390   33.4790   45.4830 N   0  0  0  0  0  0  0  0  0  0  0  0
   59.6390   32.9320   45.0900 H   0  0  0  0  0  0  0  0  0  0  0  0
   59.3090   34.8440   45.8300 C   0  0  0  0  0  0  0  0  0  0  0  0
   58.4414   35.5202   45.8323 H   0  0  0  0  0  0  0  0  0  0  0  0
   60.0591   35.1274   45.0770 H   0  0  0  0  0  0  0  0  0  0  0  0
   59.9990   34.9300   47.2110 C   0  0  0  0  0  0  0  0  0  0  0  0
   59.2848   35.3367   47.9421 H   0  0  0  0  0  0  0  0  0  0  0  0
   60.8789   35.5832   47.1156 H   0  0  0  0  0  0  0  0  0  0  0  0
   60.4530   33.6140   47.6710 N   0  0  0  0  0  0  0  0  0  0  0  0
   61.7430   33.4680   48.2840 C   0  0  0  0  0  0  0  0  0  0  0  0
   62.8600   33.2290   47.4700 C   0  0  0  0  0  0  0  0  0  0  0  0
   62.7335   33.1395   46.3810 H   0  0  0  0  0  0  0  0  0  0  0  0
   64.1310   33.1040   48.0330 C   0  0  0  0  0  0  0  0  0  0  0  0
   65.0018   32.9162   47.3877 H   0  0  0  0  0  0  0  0  0  0  0  0
   64.2980   33.2170   49.4130 C   0  0  0  0  0  0  0  0  0  0  0  0
   65.3016   33.1249   49.8538 H   0  0  0  0  0  0  0  0  0  0  0  0
   63.1930   33.4470   50.2370 C   0  0  0  0  0  0  0  0  0  0  0  0
   63.3319   33.5410   51.3241 H   0  0  0  0  0  0  0  0  0  0  0  0
   61.9050   33.5590   49.6850 C   0  0  0  0  0  0  0  0  0  0  0  0
   60.7330   33.8060   50.5950 C   0  0  0  0  0  0  0  0  0  0  0  0
   61.0612   33.7368   51.6426 H   0  0  0  0  0  0  0  0  0  0  0  0
   60.3256   34.8097   50.4039 H   0  0  0  0  0  0  0  0  0  0  0  0
   59.9551   33.0521   50.4039 H   0  0  0  0  0  0  0  0  0  0  0  0
   59.5540   32.4580   47.6100 C   0  0  0  0  0  0  0  0  0  0  0  0
   59.1752   32.2409   48.6196 H   0  0  0  0  0  0  0  0  0  0  0  0
   60.1124   31.5945   47.2194 H   0  0  0  0  0  0  0  0  0  0  0  0
   58.3700   32.7440   46.6780 C   0  0  0  0  0  0  0  0  0  0  0  0
   57.6241   33.3518   47.2111 H   0  0  0  0  0  0  0  0  0  0  0  0
   57.9167   31.7921   46.3642 H   0  0  0  0  0  0  0  0  0  0  0  0
  1  2  1  0
  2  3  1  0
  3  4  2  0
  3  5  1  0
  5  6  2  0
  6  7  1  0
  6  8  1  0
  8  9  1  0
  8 10  2  0
 10 11  1  0
 10 12  1  0
 12 13  1  0
 12 14  2  0
 14 15  1  0
  2 16  2  0
 16 17  1  0
 16 18  1  0
 18 19  2  0
 18 20  1  0
 20 21  1  0
 20 22  1  0
 22 23  1  0
 22 24  1  0
 22 25  1  0
 25 26  1  0
 25 27  1  0
 25 28  1  0
 28 29  1  0
 29 30  2  0
 30 31  1  0
 30 32  1  0
 32 33  1  0
 32 34  2  0
 34 35  1  0
 34 36  1  0
 36 37  1  0
 36 38  2  0
 38 39  1  0
 39 40  1  0
 39 41  1  0
 39 42  1  0
 28 43  1  0
 43 44  1  0
 43 45  1  0
 43 46  1  0
 46 47  1  0
 46 48  1  0
 14  5  1  0
 46 20  1  0
 38 29  1  0
M  CHG  1  20   1
M  END
>  <UniqueID>  (21) 
20

>  <SMILES>  (21) 
Cc1ccccc1N1CC[NH+](C(=O)/C=C/C(=O)c2cccc(Cl)c2)CC1

>  <Energy>  (21) 
67.68018191261514

>  <Genealogy>  (21) 
Cc1ccccc1N1CC[NH+](C(=O)C=CC(=O)c2cccc(Cl)c2)CC1 (protonated)
Cc1ccccc1N1CC[NH+](C(=O)/C=C/C(=O)c2cccc(Cl)c2)CC1 (cis-trans isomerization)
Cc1ccccc1N1CC[NH+](C(=O)/C=C/C(=O)c2cccc(Cl)c2)CC1 (3D coordinates assigned)
Cc1ccccc1N1CC[NH+](C(=O)/C=C/C(=O)c2cccc(Cl)c2)CC1 (nonaromatic ring conformer: 67.68018191261514 kcal/mol)

>  <smiles>  (21) 
Cc1ccccc1N1CCN(C(=O)C=CC(=O)c2cccc(Cl)c2)CC1

>  <score_type>  (21) 
oracle

>  <origin>  (21) 
adg

>  <m_score__min__energy>  (21) 
-7.6399999999999997

>  <m_primary>  (21) 
energy

$$$$
21:0
     RDKit          3D

 32 35  0  0  0  0  0  0  0  0999 V2000
   54.7790   28.4040   44.4920 H   0  0  0  0  0  0  0  0  0  0  0  0
   55.0960   29.3510   44.1880 N   0  0  0  0  0  0  0  0  0  0  0  0
   56.1280   29.9170   44.7270 C   0  0  0  0  0  0  0  0  0  0  0  0
   56.4030   31.2300   44.6040 N   0  0  0  0  0  0  0  0  0  0  0  0
   57.5510   31.3350   45.3170 C   0  0  0  0  0  0  0  0  0  0  0  0
   58.2930   32.6000   45.4990 C   0  0  0  0  0  0  0  0  0  0  0  0
   59.3270   32.6860   46.4450 C   0  0  0  0  0  0  0  0  0  0  0  0
   59.5902   31.8114   47.0580 H   0  0  0  0  0  0  0  0  0  0  0  0
   60.0190   33.8880   46.6030 C   0  0  0  0  0  0  0  0  0  0  0  0
   60.8299   33.9649   47.3423 H   0  0  0  0  0  0  0  0  0  0  0  0
   59.6790   34.9900   45.8210 C   0  0  0  0  0  0  0  0  0  0  0  0
   60.2189   35.9413   45.9373 H   0  0  0  0  0  0  0  0  0  0  0  0
   58.6470   34.8750   44.8890 C   0  0  0  0  0  0  0  0  0  0  0  0
   58.3709   35.7399   44.2680 H   0  0  0  0  0  0  0  0  0  0  0  0
   57.9800   33.6960   44.7450 N   0  0  0  0  0  0  0  0  0  0  0  0
   57.2150   33.6480   44.0360 H   0  0  0  0  0  0  0  0  0  0  0  0
   57.9500   30.1540   45.8370 N   0  0  0  0  0  0  0  0  0  0  0  0
   57.0380   29.2690   45.4760 N   0  0  0  0  0  0  0  0  0  0  0  0
   57.1170   27.8560   45.7340 C   0  0  0  0  0  0  0  0  0  0  0  0
   55.9670   27.1280   45.7440 N   0  0  0  0  0  0  0  0  0  0  0  0
   55.9730   25.7840   45.9280 C   0  0  0  0  0  0  0  0  0  0  0  0
   55.0245   25.2270   45.9345 H   0  0  0  0  0  0  0  0  0  0  0  0
   57.1460   25.1250   46.1040 N   0  0  0  0  0  0  0  0  0  0  0  0
   58.3260   25.7930   46.1170 C   0  0  0  0  0  0  0  0  0  0  0  0
   59.4840   25.1090   46.3150 N   0  0  0  0  0  0  0  0  0  0  0  0
   60.6870   25.7380   46.3670 C   0  0  0  0  0  0  0  0  0  0  0  0
   61.6068   25.1533   46.5157 H   0  0  0  0  0  0  0  0  0  0  0  0
   60.7570   27.1250   46.2320 C   0  0  0  0  0  0  0  0  0  0  0  0
   61.7287   27.6377   46.2860 H   0  0  0  0  0  0  0  0  0  0  0  0
   59.5870   27.8580   46.0280 C   0  0  0  0  0  0  0  0  0  0  0  0
   59.6327   28.9530   45.9338 H   0  0  0  0  0  0  0  0  0  0  0  0
   58.3490   27.1950   45.9430 C   0  0  0  0  0  0  0  0  0  0  0  0
  1  2  1  0
  2  3  2  0
  3  4  1  0
  4  5  2  0
  5  6  1  0
  6  7  2  0
  7  8  1  0
  7  9  1  0
  9 10  1  0
  9 11  2  0
 11 12  1  0
 11 13  1  0
 13 14  1  0
 13 15  2  0
 15 16  1  0
  5 17  1  0
 17 18  1  0
 18 19  1  0
 19 20  2  0
 20 21  1  0
 21 22  1  0
 21 23  2  0
 23 24  1  0
 24 25  2  0
 25 26  1  0
 26 27  1  0
 26 28  2  0
 28 29  1  0
 28 30  1  0
 30 31  1  0
 30 32  2  0
 18  3  1  0
 32 19  1  0
 15  6  1  0
 32 24  1  0
M  CHG  2  15   1  17  -1
M  END
>  <UniqueID>  (22) 
21

>  <SMILES>  (22) 
[H]/N=c1\nc(-c2cccc[nH+]2)[n-]n1-c1ncnc2ncccc12

>  <Energy>  (22) 
82.48251602635266

>  <Genealogy>  (22) 
N=c1nc(-c2cccc[nH+]2)[n-]n1-c1ncnc2ncccc12 (protonated)
[H]/N=c1\nc(-c2cccc[nH+]2)[n-]n1-c1ncnc2ncccc12 (cis-trans isomerization)
[H]/N=c1\nc(-c2cccc[nH+]2)[n-]n1-c1ncnc2ncccc12 (3D coordinates assigned)
[H]/N=c1\nc(-c2cccc[nH+]2)[n-]n1-c1ncnc2ncccc12 (optimized conformer: 82.48251602635266 kcal/mol)

>  <smiles>  (22) 
N=c1nc(-c2ccccn2)[nH]n1-c1ncnc2ncccc12

>  <score_type>  (22) 
oracle

>  <origin>  (22) 
adg

>  <m_score__min__energy>  (22) 
-7.2300000000000004

>  <m_primary>  (22) 
energy

$$$$
22:0
     RDKit          3D

 37 40  0  0  0  0  0  0  0  0999 V2000
   55.1110   26.4880   45.9980 O   0  0  0  0  0  0  0  0  0  0  0  0
   56.3370   26.3310   45.7400 C   0  0  0  0  0  0  0  0  0  0  0  0
   56.9130   25.0500   45.7880 C   0  0  0  0  0  0  0  0  0  0  0  0
   56.1650   23.9030   46.1190 C   0  0  0  0  0  0  0  0  0  0  0  0
   56.7810   22.6490   46.1520 C   0  0  0  0  0  0  0  0  0  0  0  0
   58.1420   22.5250   45.8590 C   0  0  0  0  0  0  0  0  0  0  0  0
   58.8950   23.6550   45.5290 C   0  0  0  0  0  0  0  0  0  0  0  0
   58.2900   24.9170   45.4920 C   0  0  0  0  0  0  0  0  0  0  0  0
   59.0180   25.9830   45.1760 O   0  0  0  0  0  0  0  0  0  0  0  0
   58.5080   27.2100   45.1210 C   0  0  0  0  0  0  0  0  0  0  0  0
   59.3360   28.2830   44.7820 C   0  0  0  0  0  0  0  0  0  0  0  0
   58.8170   29.5790   44.7170 C   0  0  0  0  0  0  0  0  0  0  0  0
   57.4650   29.8210   44.9870 C   0  0  0  0  0  0  0  0  0  0  0  0
   57.0000   31.1430   44.8970 O   0  0  0  0  0  0  0  0  0  0  0  0
   57.6620   32.2080   44.2150 C   0  0  0  0  0  0  0  0  0  0  0  0
   58.2930   33.1620   45.1940 C   0  0  0  0  0  0  0  0  0  0  0  0
   58.9750   34.3050   44.7410 C   0  0  0  0  0  0  0  0  0  0  0  0
   59.5530   35.1890   45.6570 C   0  0  0  0  0  0  0  0  0  0  0  0
   59.4460   34.9460   47.0290 C   0  0  0  0  0  0  0  0  0  0  0  0
   58.7580   33.8200   47.4880 C   0  0  0  0  0  0  0  0  0  0  0  0
   58.1790   32.9320   46.5750 C   0  0  0  0  0  0  0  0  0  0  0  0
   56.6280   28.7420   45.3380 C   0  0  0  0  0  0  0  0  0  0  0  0
   57.1420   27.4340   45.4030 C   0  0  0  0  0  0  0  0  0  0  0  0
   55.0939   23.9946   46.3520 H   0  0  0  0  0  0  0  0  0  0  0  0
   56.1925   21.7561   46.4096 H   0  0  0  0  0  0  0  0  0  0  0  0
   58.6216   21.5355   45.8882 H   0  0  0  0  0  0  0  0  0  0  0  0
   59.9655   23.5527   45.2978 H   0  0  0  0  0  0  0  0  0  0  0  0
   60.4001   28.1072   44.5655 H   0  0  0  0  0  0  0  0  0  0  0  0
   59.4776   30.4173   44.4510 H   0  0  0  0  0  0  0  0  0  0  0  0
   58.4444   31.7886   43.5654 H   0  0  0  0  0  0  0  0  0  0  0  0
   56.9202   32.7575   43.6168 H   0  0  0  0  0  0  0  0  0  0  0  0
   59.0541   34.5044   43.6621 H   0  0  0  0  0  0  0  0  0  0  0  0
   60.0929   36.0773   45.2972 H   0  0  0  0  0  0  0  0  0  0  0  0
   59.9036   35.6416   47.7479 H   0  0  0  0  0  0  0  0  0  0  0  0
   58.6715   33.6315   48.5683 H   0  0  0  0  0  0  0  0  0  0  0  0
   57.6323   32.0501   46.9401 H   0  0  0  0  0  0  0  0  0  0  0  0
   55.5666   28.9240   45.5624 H   0  0  0  0  0  0  0  0  0  0  0  0
  1  2  2  0
  2  3  1  0
  3  4  2  0
  4  5  1  0
  5  6  2  0
  6  7  1  0
  7  8  2  0
  8  9  1  0
  9 10  1  0
 10 11  2  0
 11 12  1  0
 12 13  2  0
 13 14  1  0
 14 15  1  0
 15 16  1  0
 16 17  2  0
 17 18  1  0
 18 19  2  0
 19 20  1  0
 20 21  2  0
 13 22  1  0
 22 23  2  0
 23  2  1  0
  8  3  1  0
 23 10  1  0
 21 16  1  0
  4 24  1  0
  5 25  1  0
  6 26  1  0
  7 27  1  0
 11 28  1  0
 12 29  1  0
 15 30  1  0
 15 31  1  0
 17 32  1  0
 18 33  1  0
 19 34  1  0
 20 35  1  0
 21 36  1  0
 22 37  1  0
M  END
>  <UniqueID>  (23) 
22

>  <SMILES>  (23) 
O=c1c2ccccc2oc2ccc(OCc3ccccc3)cc12

>  <Energy>  (23) 
50.281258887677744

>  <Genealogy>  (23) 
O=c1c2ccccc2oc2ccc(OCc3ccccc3)cc12 (3D coordinates assigned)
O=c1c2ccccc2oc2ccc(OCc3ccccc3)cc12 (optimized conformer: 50.281258887677744 kcal/mol)

>  <smiles>  (23) 
O=c1c2ccccc2oc2ccc(OCc3ccccc3)cc12

>  <score_type>  (23) 
oracle

>  <origin>  (23) 
adg

>  <m_score__min__energy>  (23) 
-8.1899999999999995

>  <m_primary>  (23) 
energy

$$$$
23:0
     RDKit          3D

 36 37  0  0  0  0  0  0  0  0999 V2000
   53.4210   23.0340   46.1350 C   0  0  0  0  0  0  0  0  0  0  0  0
   53.8230   23.9720   45.0020 C   0  0  0  0  0  0  0  0  0  0  0  0
   55.2370   24.4450   45.1810 C   0  0  0  0  0  0  0  0  0  0  0  0
   56.4030   23.7570   44.8840 C   0  0  0  0  0  0  0  0  0  0  0  0
   56.5150   22.3870   44.3650 C   0  0  0  0  0  0  0  0  0  0  0  0
   55.9270   22.0560   43.3020 O   0  0  0  0  0  0  0  0  0  0  0  0
   57.4570   24.6120   45.1650 C   0  0  0  0  0  0  0  0  0  0  0  0
   56.9830   25.7950   45.6070 N   0  0  0  0  0  0  0  0  0  0  0  0
   57.8040   26.9280   46.0550 C   0  0  2  0  0  0  0  0  0  0  0  0
   58.5370   27.5840   44.8680 C   0  0  0  0  0  0  0  0  0  0  0  0
   58.0130   28.9720   44.6030 C   0  0  0  0  0  0  0  0  0  0  0  0
   58.5620   30.0790   45.2730 C   0  0  0  0  0  0  0  0  0  0  0  0
   58.1090   31.3710   44.9880 C   0  0  0  0  0  0  0  0  0  0  0  0
   57.1090   31.5670   44.0310 C   0  0  0  0  0  0  0  0  0  0  0  0
   56.5630   30.4720   43.3560 C   0  0  0  0  0  0  0  0  0  0  0  0
   57.0150   29.1790   43.6360 C   0  0  0  0  0  0  0  0  0  0  0  0
   58.7500   26.4920   47.1410 C   0  0  0  0  0  0  0  0  0  0  0  0
   58.4310   25.5860   47.9570 O   0  0  0  0  0  0  0  0  0  0  0  0
   59.9730   27.1350   47.2830 O   0  0  0  0  0  0  0  0  0  0  0  0
   55.6360   25.6930   45.6140 C   0  0  0  0  0  0  0  0  0  0  0  0
   54.7750   26.7110   46.0130 O   0  0  0  0  0  0  0  0  0  0  0  0
   53.6279   23.5167   47.1015 H   0  0  0  0  0  0  0  0  0  0  0  0
   52.3470   22.8081   46.0604 H   0  0  0  0  0  0  0  0  0  0  0  0
   53.9981   22.1005   46.0604 H   0  0  0  0  0  0  0  0  0  0  0  0
   53.7395   23.4378   44.0441 H   0  0  0  0  0  0  0  0  0  0  0  0
   53.1541   24.8452   45.0116 H   0  0  0  0  0  0  0  0  0  0  0  0
   57.1172   21.6447   44.9094 H   0  0  0  0  0  0  0  0  0  0  0  0
   58.5217   24.3629   45.0454 H   0  0  0  0  0  0  0  0  0  0  0  0
   57.1439   27.6971   46.4825 H   0  0  0  0  0  0  0  0  0  0  0  0
   59.6109   27.6439   45.0984 H   0  0  0  0  0  0  0  0  0  0  0  0
   58.3661   26.9703   43.9712 H   0  0  0  0  0  0  0  0  0  0  0  0
   59.3511   29.9285   46.0245 H   0  0  0  0  0  0  0  0  0  0  0  0
   58.5399   32.2337   45.5173 H   0  0  0  0  0  0  0  0  0  0  0  0
   56.7518   32.5835   43.8092 H   0  0  0  0  0  0  0  0  0  0  0  0
   55.7763   30.6276   42.6031 H   0  0  0  0  0  0  0  0  0  0  0  0
   56.5877   28.3205   43.0972 H   0  0  0  0  0  0  0  0  0  0  0  0
  1  2  1  0
  2  3  1  0
  3  4  1  0
  4  5  1  0
  5  6  2  0
  4  7  2  0
  7  8  1  0
  8  9  1  0
  9 10  1  0
 10 11  1  0
 11 12  2  0
 12 13  1  0
 13 14  2  0
 14 15  1  0
 15 16  2  0
  9 17  1  0
 17 18  2  0
 17 19  1  0
  8 20  1  0
 20 21  1  0
 20  3  2  0
 16 11  1  0
  1 22  1  0
  1 23  1  0
  1 24  1  0
  2 25  1  0
  2 26  1  0
  5 27  1  0
  7 28  1  0
  9 29  1  1
 10 30  1  0
 10 31  1  0
 12 32  1  0
 13 33  1  0
 14 34  1  0
 15 35  1  0
 16 36  1  0
M  CHG  2  19  -1  21  -1
M  END
>  <UniqueID>  (24) 
23

>  <SMILES>  (24) 
CCc1c(C=O)cn([C@H](Cc2ccccc2)C(=O)[O-])c1[O-]

>  <Energy>  (24) 
56.46902539228205

>  <Genealogy>  (24) 
CCc1c(C=O)cn(C(Cc2ccccc2)C(=O)[O-])c1[O-] (protonated)
CCc1c(C=O)cn([C@H](Cc2ccccc2)C(=O)[O-])c1[O-] (chirality)
CCc1c(C=O)cn([C@H](Cc2ccccc2)C(=O)[O-])c1[O-] (3D coordinates assigned)
CCc1c(C=O)cn([C@H](Cc2ccccc2)C(=O)[O-])c1[O-] (optimized conformer: 56.46902539228205 kcal/mol)

>  <smiles>  (24) 
CCc1c(C=O)cn(C(Cc2ccccc2)C(=O)O)c1O

>  <score_type>  (24) 
oracle

>  <origin>  (24) 
adg

>  <m_score__min__energy>  (24) 
-12.380000000000001

>  <m_primary>  (24) 
energy

$$$$
24:0
     RDKit          3D

 39 41  0  0  0  0  0  0  0  0999 V2000
   59.1260   32.9320   49.3080 C   0  0  0  0  0  0  0  0  0  0  0  0
   59.8950   34.2570   49.2160 C   0  0  1  0  0  0  0  0  0  0  0  0
   61.4040   33.9960   49.4290 C   0  0  0  0  0  0  0  0  0  0  0  0
   62.0760   33.1900   48.3050 C   0  0  0  0  0  0  0  0  0  0  0  0
   62.0650   33.8390   46.9000 C   0  0  0  0  0  0  0  0  0  0  0  0
   60.7850   33.6160   46.0710 C   0  0  0  0  0  0  0  0  0  0  0  0
   59.5490   34.0580   46.7470 N   0  0  0  0  0  0  0  0  0  0  0  0
   58.2840   33.7100   46.1590 C   0  0  0  0  0  0  0  0  0  0  0  0
   57.4200   34.6080   45.9710 O   0  0  0  0  0  0  0  0  0  0  0  0
   57.9720   32.3230   45.7720 C   0  0  0  0  0  0  0  0  0  0  0  0
   58.5980   31.1750   46.2190 C   0  0  0  0  0  0  0  0  0  0  0  0
   57.8970   30.1540   45.5990 C   0  0  0  0  0  0  0  0  0  0  0  0
   58.1450   28.7130   45.7280 C   0  0  0  0  0  0  0  0  0  0  0  0
   57.1830   27.7100   45.7710 C   0  0  0  0  0  0  0  0  0  0  0  0
   57.7310   26.4280   45.8990 C   0  0  0  0  0  0  0  0  0  0  0  0
   59.1190   26.4180   45.9570 C   0  0  0  0  0  0  0  0  0  0  0  0
   59.6640   28.0050   45.8490 S   0  0  0  0  0  0  0  0  0  0  0  0
   56.9430   30.6770   44.8630 O   0  0  0  0  0  0  0  0  0  0  0  0
   56.9620   31.9740   44.9520 N   0  0  0  0  0  0  0  0  0  0  0  0
   59.5650   34.9830   47.8930 C   0  0  0  0  0  0  0  0  0  0  0  0
   58.9735   32.6692   50.3652 H   0  0  0  0  0  0  0  0  0  0  0  0
   58.1499   33.0394   48.8124 H   0  0  0  0  0  0  0  0  0  0  0  0
   59.7035   32.1377   48.8124 H   0  0  0  0  0  0  0  0  0  0  0  0
   59.5773   34.9406   50.0171 H   0  0  0  0  0  0  0  0  0  0  0  0
   61.9133   34.9679   49.5067 H   0  0  0  0  0  0  0  0  0  0  0  0
   61.4911   33.3908   50.3434 H   0  0  0  0  0  0  0  0  0  0  0  0
   63.1254   33.0256   48.5908 H   0  0  0  0  0  0  0  0  0  0  0  0
   61.4839   32.2680   48.2086 H   0  0  0  0  0  0  0  0  0  0  0  0
   62.2006   34.9232   47.0274 H   0  0  0  0  0  0  0  0  0  0  0  0
   62.8751   33.3512   46.3380 H   0  0  0  0  0  0  0  0  0  0  0  0
   60.8820   34.1734   45.1277 H   0  0  0  0  0  0  0  0  0  0  0  0
   60.6920   32.5313   45.9134 H   0  0  0  0  0  0  0  0  0  0  0  0
   59.4528   31.0916   46.9063 H   0  0  0  0  0  0  0  0  0  0  0  0
   56.1019   27.9039   45.7106 H   0  0  0  0  0  0  0  0  0  0  0  0
   57.1200   25.5146   45.9489 H   0  0  0  0  0  0  0  0  0  0  0  0
   59.7530   25.5246   46.0566 H   0  0  0  0  0  0  0  0  0  0  0  0
   56.2970   32.6140   44.4640 H   0  0  0  0  0  0  0  0  0  0  0  0
   60.3248   35.7579   47.7137 H   0  0  0  0  0  0  0  0  0  0  0  0
   58.5621   35.4247   47.9880 H   0  0  0  0  0  0  0  0  0  0  0  0
  1  2  1  0
  2  3  1  0
  3  4  1  0
  4  5  1  0
  5  6  1  0
  6  7  1  0
  7  8  1  0
  8  9  2  0
  8 10  1  0
 10 11  1  0
 11 12  2  0
 12 13  1  0
 13 14  2  0
 14 15  1  0
 15 16  2  0
 16 17  1  0
 12 18  1  0
 18 19  1  0
  7 20  1  0
 20  2  1  0
 19 10  2  0
 17 13  1  0
  1 21  1  0
  1 22  1  0
  1 23  1  0
  2 24  1  1
  3 25  1  0
  3 26  1  0
  4 27  1  0
  4 28  1  0
  5 29  1  0
  5 30  1  0
  6 31  1  0
  6 32  1  0
 11 33  1  0
 14 34  1  0
 15 35  1  0
 16 36  1  0
 19 37  1  0
 20 38  1  0
 20 39  1  0
M  CHG  1  19   1
M  END
>  <UniqueID>  (25) 
24

>  <SMILES>  (25) 
C[C@H]1CCCCN(C(=O)c2cc(-c3cccs3)o[nH+]2)C1

>  <Energy>  (25) 
103.39919903948243

>  <Genealogy>  (25) 
CC1CCCCN(C(=O)c2cc(-c3cccs3)o[nH+]2)C1 (protonated)
C[C@H]1CCCCN(C(=O)c2cc(-c3cccs3)o[nH+]2)C1 (chirality)
C[C@H]1CCCCN(C(=O)c2cc(-c3cccs3)o[nH+]2)C1 (3D coordinates assigned)
C[C@H]1CCCCN(C(=O)c2cc(-c3cccs3)o[nH+]2)C1 (nonaromatic ring conformer: 103.39919903948243 kcal/mol)

>  <smiles>  (25) 
CC1CCCCN(C(=O)c2cc(-c3cccs3)on2)C1

>  <score_type>  (25) 
oracle

>  <origin>  (25) 
adg

>  <m_score__min__energy>  (25) 
-3.96

>  <m_primary>  (25) 
energy

$$$$
25:0
     RDKit          3D

 58 62  0  0  0  0  0  0  0  0999 V2000
   61.2486   24.8985   51.0864 H   0  0  0  0  0  0  0  0  0  0  0  0
   60.9830   25.9610   51.1890 C   0  0  0  0  0  0  0  0  0  0  0  0
   60.8700   26.7430   50.0830 N   0  0  0  0  0  0  0  0  0  0  0  0
   60.5520   28.0620   50.1700 C   0  0  0  0  0  0  0  0  0  0  0  0
   60.4651   28.6671   49.2555 H   0  0  0  0  0  0  0  0  0  0  0  0
   60.3340   28.6540   51.4260 C   0  0  0  0  0  0  0  0  0  0  0  0
   59.9910   30.0070   51.5660 O   0  0  0  0  0  0  0  0  0  0  0  0
   59.7780   30.8930   50.5000 C   0  0  0  0  0  0  0  0  0  0  0  0
   58.4820   31.3210   50.1480 C   0  0  0  0  0  0  0  0  0  0  0  0
   57.3850   30.8180   50.8660 O   0  0  0  0  0  0  0  0  0  0  0  0
   56.8930   31.3650   52.0850 C   0  0  0  0  0  0  0  0  0  0  0  0
   57.3601   30.8457   52.9348 H   0  0  0  0  0  0  0  0  0  0  0  0
   57.1372   32.4366   52.1310 H   0  0  0  0  0  0  0  0  0  0  0  0
   55.8016   31.2353   52.1310 H   0  0  0  0  0  0  0  0  0  0  0  0
   58.3170   32.2200   49.0760 C   0  0  0  0  0  0  0  0  0  0  0  0
   57.3083   32.5686   48.8096 H   0  0  0  0  0  0  0  0  0  0  0  0
   59.4280   32.6780   48.3410 C   0  0  0  0  0  0  0  0  0  0  0  0
   59.2840   33.5820   47.2520 C   0  0  0  0  0  0  0  0  0  0  0  0
   58.1060   34.0220   46.9090 N   0  0  0  0  0  0  0  0  0  0  0  0
   57.3830   33.6360   45.7310 C   0  0  0  0  0  0  0  0  0  0  0  0
   57.0330   34.5230   44.9110 O   0  0  0  0  0  0  0  0  0  0  0  0
   57.0430   32.2710   45.4630 N   0  0  0  0  0  0  0  0  0  0  0  0
   57.5100   31.5240   44.2980 C   0  0  0  0  0  0  0  0  0  0  0  0
   57.0184   31.9159   43.3953 H   0  0  0  0  0  0  0  0  0  0  0  0
   58.6008   31.6387   44.2145 H   0  0  0  0  0  0  0  0  0  0  0  0
   57.1760   30.0320   44.4490 C   0  0  0  0  0  0  0  0  0  0  0  0
   56.0836   29.9177   44.5088 H   0  0  0  0  0  0  0  0  0  0  0  0
   57.5862   29.5037   43.5757 H   0  0  0  0  0  0  0  0  0  0  0  0
   57.7850   29.4430   45.6650 N   0  0  0  0  0  0  0  0  0  0  0  0
   57.4730   27.9990   45.7720 C   0  0  0  0  0  0  0  0  0  0  0  0
   57.7640   27.4997   44.8360 H   0  0  0  0  0  0  0  0  0  0  0  0
   56.3934   27.8907   45.9531 H   0  0  0  0  0  0  0  0  0  0  0  0
   58.2100   27.3620   46.9150 C   0  0  0  0  0  0  0  0  0  0  0  0
   57.7780   26.2920   47.4210 O   0  0  0  0  0  0  0  0  0  0  0  0
   59.4410   27.9230   47.3830 N   0  0  0  0  0  0  0  0  0  0  0  0
   59.9520   27.4490   48.1610 H   0  0  0  0  0  0  0  0  0  0  0  0
   59.8610   29.2610   46.9810 C   0  0  0  0  0  0  0  0  0  0  0  0
   60.9577   29.2844   46.8989 H   0  0  0  0  0  0  0  0  0  0  0  0
   59.5160   29.9793   47.7393 H   0  0  0  0  0  0  0  0  0  0  0  0
   59.2500   29.6450   45.6320 C   0  0  0  0  0  0  0  0  0  0  0  0
   59.6868   29.0164   44.8420 H   0  0  0  0  0  0  0  0  0  0  0  0
   59.4642   30.7042   45.4267 H   0  0  0  0  0  0  0  0  0  0  0  0
   60.3990   34.0020   46.5830 N   0  0  0  0  0  0  0  0  0  0  0  0
   61.5970   33.5470   46.9340 N   0  0  0  0  0  0  0  0  0  0  0  0
   62.7760   33.8500   46.3700 C   0  0  0  0  0  0  0  0  0  0  0  0
   62.9275   34.5334   45.5215 H   0  0  0  0  0  0  0  0  0  0  0  0
   63.7710   33.1540   47.0400 C   0  0  0  0  0  0  0  0  0  0  0  0
   64.8484   33.1848   46.8201 H   0  0  0  0  0  0  0  0  0  0  0  0
   63.1560   32.4100   48.0410 C   0  0  0  0  0  0  0  0  0  0  0  0
   63.6439   31.7411   48.7652 H   0  0  0  0  0  0  0  0  0  0  0  0
   61.8020   32.6850   47.9380 C   0  0  0  0  0  0  0  0  0  0  0  0
   60.7220   32.2130   48.6920 C   0  0  0  0  0  0  0  0  0  0  0  0
   60.8820   31.3190   49.7600 C   0  0  0  0  0  0  0  0  0  0  0  0
   61.8860   30.9502   50.0169 H   0  0  0  0  0  0  0  0  0  0  0  0
   60.4290   27.8560   52.5700 C   0  0  0  0  0  0  0  0  0  0  0  0
   60.2410   28.2930   53.5618 H   0  0  0  0  0  0  0  0  0  0  0  0
   60.7620   26.5060   52.4550 C   0  0  0  0  0  0  0  0  0  0  0  0
   60.8495   25.8772   53.3533 H   0  0  0  0  0  0  0  0  0  0  0  0
  1  2  1  0
  2  3  2  0
  3  4  1  0
  4  5  1  0
  4  6  2  0
  6  7  1  0
  7  8  1  0
  8  9  2  0
  9 10  1  0
 10 11  1  0
 11 12  1  0
 11 13  1  0
 11 14  1  0
  9 15  1  0
 15 16  1  0
 15 17  2  0
 17 18  1  0
 18 19  2  0
 19 20  1  0
 20 21  2  0
 20 22  1  0
 22 23  1  0
 23 24  1  0
 23 25  1  0
 23 26  1  0
 26 27  1  0
 26 28  1  0
 26 29  1  0
 29 30  1  0
 30 31  1  0
 30 32  1  0
 30 33  1  0
 33 34  2  0
 33 35  1  0
 35 36  1  0
 35 37  1  0
 37 38  1  0
 37 39  1  0
 37 40  1  0
 40 41  1  0
 40 42  1  0
 18 43  1  0
 43 44  1  0
 44 45  1  0
 45 46  1  0
 45 47  2  0
 47 48  1  0
 47 49  1  0
 49 50  1  0
 49 51  2  0
 51 52  1  0
 52 53  2  0
 53 54  1  0
  6 55  1  0
 55 56  1  0
 55 57  2  0
 57 58  1  0
 57  2  1  0
 53  8  1  0
 52 17  1  0
 40 29  1  0
 51 44  1  0
M  CHG  2  22  -1  43  -1
M  END
>  <UniqueID>  (26) 
25

>  <SMILES>  (26) 
COc1cc2/c(=N/C(=O)[N-]CCN3CCNC(=O)C3)[n-]n3cccc3c2cc1Oc1cccnc1

>  <Energy>  (26) 
115.91978013383346

>  <Genealogy>  (26) 
COc1cc2c(=NC(=O)[N-]CCN3CCNC(=O)C3)[n-]n3cccc3c2cc1Oc1cccnc1 (protonated)
COc1cc2/c(=N/C(=O)[N-]CCN3CCNC(=O)C3)[n-]n3cccc3c2cc1Oc1cccnc1 (cis-trans isomerization)
COc1cc2/c(=N/C(=O)[N-]CCN3CCNC(=O)C3)[n-]n3cccc3c2cc1Oc1cccnc1 (3D coordinates assigned)
COc1cc2/c(=N/C(=O)[N-]CCN3CCNC(=O)C3)[n-]n3cccc3c2cc1Oc1cccnc1 (nonaromatic ring conformer: 115.91978013383346 kcal/mol)

>  <smiles>  (26) 
COc1cc2c(=NC(=O)NCCN3CCNC(=O)C3)[nH]n3cccc3c2cc1Oc1cccnc1

>  <score_type>  (26) 
oracle

>  <origin>  (26) 
adg

>  <m_score__min__energy>  (26) 
-11.470000000000001

>  <m_primary>  (26) 
energy

$$$$
26:0
     RDKit          3D

 49 51  0  0  0  0  0  0  0  0999 V2000
   59.8630   29.8340   45.9940 C   0  0  0  0  0  0  0  0  0  0  0  0
   58.1070   30.0680   46.4110 S   0  0  0  0  0  0  0  0  0  0  0  0
   57.6770   30.6890   44.7770 C   0  0  0  0  0  0  0  0  0  0  0  0
   57.0530   29.8080   43.8810 C   0  0  0  0  0  0  0  0  0  0  0  0
   56.7390   30.2220   42.5850 C   0  0  0  0  0  0  0  0  0  0  0  0
   57.0440   31.5190   42.1720 C   0  0  0  0  0  0  0  0  0  0  0  0
   57.6630   32.4080   43.0550 C   0  0  0  0  0  0  0  0  0  0  0  0
   57.9820   32.0100   44.3660 C   0  0  0  0  0  0  0  0  0  0  0  0
   58.6240   32.9850   45.2770 C   0  0  0  0  0  0  0  0  0  0  0  0
   59.6330   33.6340   44.8890 O   0  0  0  0  0  0  0  0  0  0  0  0
   58.1150   33.1820   46.6030 N   0  0  0  0  0  0  0  0  0  0  0  0
   58.7960   34.0730   47.5530 C   0  0  0  0  0  0  0  0  0  0  0  0
   59.6730   33.3230   48.6200 C   0  0  0  0  0  0  0  0  0  0  0  0
   61.1330   33.1500   48.0970 C   0  0  0  0  0  0  0  0  0  0  0  0
   61.5970   33.9120   46.9990 C   0  0  0  0  0  0  0  0  0  0  0  0
   62.8980   33.7730   46.5080 C   0  0  0  0  0  0  0  0  0  0  0  0
   63.7760   32.8700   47.0970 C   0  0  0  0  0  0  0  0  0  0  0  0
   63.3560   32.1010   48.1770 C   0  0  0  0  0  0  0  0  0  0  0  0
   62.0550   32.2340   48.6740 C   0  0  0  0  0  0  0  0  0  0  0  0
   59.6940   34.2190   49.9150 C   0  0  0  0  0  0  0  0  0  0  0  0
   59.8210   33.4790   51.2540 C   0  0  0  0  0  0  0  0  0  0  0  0
   58.8740   32.2860   51.3440 C   0  0  0  0  0  0  0  0  0  0  0  0
   59.0450   31.6670   52.5700 F   0  0  0  0  0  0  0  0  0  0  0  0
   57.5600   32.7170   51.2510 F   0  0  0  0  0  0  0  0  0  0  0  0
   59.1750   31.2840   50.2340 C   0  0  0  0  0  0  0  0  0  0  0  0
   59.0280   31.9010   48.8350 C   0  0  0  0  0  0  0  0  0  0  0  0
   60.4523   29.7555   46.9195 H   0  0  0  0  0  0  0  0  0  0  0  0
   59.9804   28.9123   45.4052 H   0  0  0  0  0  0  0  0  0  0  0  0
   60.2176   30.6928   45.4052 H   0  0  0  0  0  0  0  0  0  0  0  0
   56.8095   28.7843   44.2016 H   0  0  0  0  0  0  0  0  0  0  0  0
   56.2505   29.5244   41.8888 H   0  0  0  0  0  0  0  0  0  0  0  0
   56.7970   31.8425   41.1501 H   0  0  0  0  0  0  0  0  0  0  0  0
   57.9030   33.4285   42.7217 H   0  0  0  0  0  0  0  0  0  0  0  0
   57.2290   32.6960   46.8670 H   0  0  0  0  0  0  0  0  0  0  0  0
   59.4491   34.7508   46.9837 H   0  0  0  0  0  0  0  0  0  0  0  0
   58.0097   34.6067   48.1070 H   0  0  0  0  0  0  0  0  0  0  0  0
   60.9169   34.6317   46.5199 H   0  0  0  0  0  0  0  0  0  0  0  0
   63.2286   34.3802   45.6524 H   0  0  0  0  0  0  0  0  0  0  0  0
   64.8001   32.7641   46.7098 H   0  0  0  0  0  0  0  0  0  0  0  0
   64.0496   31.3852   48.6424 H   0  0  0  0  0  0  0  0  0  0  0  0
   61.7389   31.6175   49.5284 H   0  0  0  0  0  0  0  0  0  0  0  0
   60.5470   34.9085   49.8313 H   0  0  0  0  0  0  0  0  0  0  0  0
   58.7113   34.7123   49.9454 H   0  0  0  0  0  0  0  0  0  0  0  0
   60.8549   33.1199   51.3639 H   0  0  0  0  0  0  0  0  0  0  0  0
   59.5550   34.1832   52.0561 H   0  0  0  0  0  0  0  0  0  0  0  0
   60.2069   30.9224   50.3543 H   0  0  0  0  0  0  0  0  0  0  0  0
   58.4486   30.4621   50.3170 H   0  0  0  0  0  0  0  0  0  0  0  0
   59.4931   31.2112   48.1154 H   0  0  0  0  0  0  0  0  0  0  0  0
   57.9470   32.0485   48.6950 H   0  0  0  0  0  0  0  0  0  0  0  0
  1  2  1  0
  2  3  1  0
  3  4  2  0
  4  5  1  0
  5  6  2  0
  6  7  1  0
  7  8  2  0
  8  9  1  0
  9 10  2  0
  9 11  1  0
 11 12  1  0
 12 13  1  0
 13 14  1  0
 14 15  2  0
 15 16  1  0
 16 17  2  0
 17 18  1  0
 18 19  2  0
 13 20  1  0
 20 21  1  0
 21 22  1  0
 22 23  1  0
 22 24  1  0
 22 25  1  0
 25 26  1  0
  8  3  1  0
 26 13  1  0
 19 14  1  0
  1 27  1  0
  1 28  1  0
  1 29  1  0
  4 30  1  0
  5 31  1  0
  6 32  1  0
  7 33  1  0
 11 34  1  0
 12 35  1  0
 12 36  1  0
 15 37  1  0
 16 38  1  0
 17 39  1  0
 18 40  1  0
 19 41  1  0
 20 42  1  0
 20 43  1  0
 21 44  1  0
 21 45  1  0
 25 46  1  0
 25 47  1  0
 26 48  1  0
 26 49  1  0
M  END
>  <UniqueID>  (27) 
26

>  <SMILES>  (27) 
CSc1ccccc1C(=O)NCC1(c2ccccc2)CCC(F)(F)CC1

>  <Energy>  (27) 
63.61801170903924

>  <Genealogy>  (27) 
CSc1ccccc1C(=O)NCC1(c2ccccc2)CCC(F)(F)CC1 (3D coordinates assigned)
CSc1ccccc1C(=O)NCC1(c2ccccc2)CCC(F)(F)CC1 (nonaromatic ring conformer: 63.61801170903924 kcal/mol)

>  <smiles>  (27) 
CSc1ccccc1C(=O)NCC1(c2ccccc2)CCC(F)(F)CC1

>  <score_type>  (27) 
oracle

>  <origin>  (27) 
adg

>  <m_score__min__energy>  (27) 
-7.7800000000000002

>  <m_primary>  (27) 
energy

$$$$
27:0
     RDKit          3D

 39 41  0  0  0  0  0  0  0  0999 V2000
   57.8920   32.2330   42.1620 C   0  0  0  0  0  0  0  0  0  0  0  0
   58.0970   32.7130   43.5620 C   0  0  0  0  0  0  0  0  0  0  0  0
   58.9310   33.7090   43.9140 N   0  0  0  0  0  0  0  0  0  0  0  0
   58.8120   33.9300   45.2160 N   0  0  0  0  0  0  0  0  0  0  0  0
   59.5720   34.9610   45.9270 C   0  0  0  0  0  0  0  0  0  0  0  0
   60.5670   34.3230   46.8630 C   0  0  0  0  0  0  0  0  0  0  0  0
   61.6990   33.6720   46.3430 C   0  0  0  0  0  0  0  0  0  0  0  0
   62.6100   33.0470   47.2000 C   0  0  0  0  0  0  0  0  0  0  0  0
   62.3960   33.0590   48.5800 C   0  0  0  0  0  0  0  0  0  0  0  0
   61.2680   33.6950   49.1060 C   0  0  0  0  0  0  0  0  0  0  0  0
   60.3540   34.3230   48.2550 C   0  0  0  0  0  0  0  0  0  0  0  0
   59.2640   34.9300   48.7900 F   0  0  0  0  0  0  0  0  0  0  0  0
   57.8800   33.0870   45.7260 C   0  0  0  0  0  0  0  0  0  0  0  0
   57.4050   33.0730   47.1500 C   0  0  0  0  0  0  0  0  0  0  0  0
   57.4290   32.2790   44.6870 C   0  0  0  0  0  0  0  0  0  0  0  0
   56.4080   31.2750   44.7140 N   0  0  0  0  0  0  0  0  0  0  0  0
   56.6250   29.8950   45.0250 C   0  0  0  0  0  0  0  0  0  0  0  0
   55.7060   29.0500   44.8550 O   0  0  0  0  0  0  0  0  0  0  0  0
   57.9060   29.4640   45.5920 C   0  0  0  0  0  0  0  0  0  0  0  0
   58.7540   28.5130   45.0550 C   0  0  0  0  0  0  0  0  0  0  0  0
   59.8250   28.4360   45.9200 C   0  0  0  0  0  0  0  0  0  0  0  0
   59.5600   29.3410   46.9260 C   0  0  0  0  0  0  0  0  0  0  0  0
   60.6830   29.6910   48.4270 Br  0  0  0  0  0  0  0  0  0  0  0  0
   58.4130   29.9390   46.7070 O   0  0  0  0  0  0  0  0  0  0  0  0
   57.4600   31.2215   42.1807 H   0  0  0  0  0  0  0  0  0  0  0  0
   57.2066   32.9148   41.6373 H   0  0  0  0  0  0  0  0  0  0  0  0
   58.8585   32.2093   41.6373 H   0  0  0  0  0  0  0  0  0  0  0  0
   59.5630   34.2390   43.2720 H   0  0  0  0  0  0  0  0  0  0  0  0
   60.1084   35.5850   45.1971 H   0  0  0  0  0  0  0  0  0  0  0  0
   58.8759   35.5805   46.5116 H   0  0  0  0  0  0  0  0  0  0  0  0
   61.8691   33.6541   45.2564 H   0  0  0  0  0  0  0  0  0  0  0  0
   63.4970   32.5449   46.7864 H   0  0  0  0  0  0  0  0  0  0  0  0
   63.1148   32.5682   49.2526 H   0  0  0  0  0  0  0  0  0  0  0  0
   61.0990   33.7014   50.1929 H   0  0  0  0  0  0  0  0  0  0  0  0
   58.2723   33.0986   47.8261 H   0  0  0  0  0  0  0  0  0  0  0  0
   56.7709   33.9528   47.3337 H   0  0  0  0  0  0  0  0  0  0  0  0
   56.8238   32.1573   47.3337 H   0  0  0  0  0  0  0  0  0  0  0  0
   58.6051   27.9373   44.1296 H   0  0  0  0  0  0  0  0  0  0  0  0
   60.7081   27.7869   45.8268 H   0  0  0  0  0  0  0  0  0  0  0  0
  1  2  1  0
  2  3  2  0
  3  4  1  0
  4  5  1  0
  5  6  1  0
  6  7  2  0
  7  8  1  0
  8  9  2  0
  9 10  1  0
 10 11  2  0
 11 12  1  0
  4 13  1  0
 13 14  1  0
 13 15  2  0
 15 16  1  0
 16 17  1  0
 17 18  2  0
 17 19  1  0
 19 20  2  0
 20 21  1  0
 21 22  2  0
 22 23  1  0
 22 24  1  0
 15  2  1  0
 24 19  1  0
 11  6  1  0
  1 25  1  0
  1 26  1  0
  1 27  1  0
  3 28  1  0
  5 29  1  0
  5 30  1  0
  7 31  1  0
  8 32  1  0
  9 33  1  0
 10 34  1  0
 14 35  1  0
 14 36  1  0
 14 37  1  0
 20 38  1  0
 21 39  1  0
M  CHG  2   3   1  16  -1
M  END
>  <UniqueID>  (28) 
27

>  <SMILES>  (28) 
Cc1[nH+]n(Cc2ccccc2F)c(C)c1[N-]C(=O)c1ccc(Br)o1

>  <Energy>  (28) 
100.6181287822258

>  <Genealogy>  (28) 
Cc1[nH+]n(Cc2ccccc2F)c(C)c1[N-]C(=O)c1ccc(Br)o1 (protonated)
Cc1[nH+]n(Cc2ccccc2F)c(C)c1[N-]C(=O)c1ccc(Br)o1 (3D coordinates assigned)
Cc1[nH+]n(Cc2ccccc2F)c(C)c1[N-]C(=O)c1ccc(Br)o1 (optimized conformer: 100.6181287822258 kcal/mol)

>  <smiles>  (28) 
Cc1nn(Cc2ccccc2F)c(C)c1NC(=O)c1ccc(Br)o1

>  <score_type>  (28) 
oracle

>  <origin>  (28) 
adg

>  <m_score__min__energy>  (28) 
-8.6899999999999995

>  <m_primary>  (28) 
energy

$$$$
28:0
     RDKit          3D

 34 36  0  0  0  0  0  0  0  0999 V2000
   62.2660   33.4800   49.8680 Cl  0  0  0  0  0  0  0  0  0  0  0  0
   61.2520   33.7920   48.4660 C   0  0  0  0  0  0  0  0  0  0  0  0
   59.9330   34.2170   48.6640 C   0  0  0  0  0  0  0  0  0  0  0  0
   59.1030   34.4710   47.5690 C   0  0  0  0  0  0  0  0  0  0  0  0
   59.5870   34.3000   46.2680 C   0  0  0  0  0  0  0  0  0  0  0  0
   58.5190   34.6170   44.8630 S   0  0  0  0  0  0  0  0  0  0  0  0
   58.0970   32.8850   44.6750 C   0  0  0  0  0  0  0  0  0  0  0  0
   57.7830   32.3710   43.4130 C   0  0  0  0  0  0  0  0  0  0  0  0
   57.4620   31.0190   43.2650 C   0  0  0  0  0  0  0  0  0  0  0  0
   57.4330   30.1690   44.3810 C   0  0  0  0  0  0  0  0  0  0  0  0
   57.1220   28.7770   44.1980 N   0  0  0  0  0  0  0  0  0  0  0  0
   57.8400   27.7000   44.8160 C   0  0  0  0  0  0  0  0  0  0  0  0
   58.6860   27.8700   45.7720 N   0  0  0  0  0  0  0  0  0  0  0  0
   59.1930   26.5750   46.2100 C   0  0  0  0  0  0  0  0  0  0  0  0
   58.4540   25.5400   45.3440 C   0  0  0  0  0  0  0  0  0  0  0  0
   57.6120   26.3470   44.4830 N   0  0  0  0  0  0  0  0  0  0  0  0
   57.7680   30.6880   45.6460 C   0  0  0  0  0  0  0  0  0  0  0  0
   58.0890   32.0410   45.7910 C   0  0  0  0  0  0  0  0  0  0  0  0
   60.9070   33.8790   46.0650 C   0  0  0  0  0  0  0  0  0  0  0  0
   61.7420   33.6230   47.1590 C   0  0  0  0  0  0  0  0  0  0  0  0
   63.3910   33.0890   46.8650 Cl  0  0  0  0  0  0  0  0  0  0  0  0
   59.5484   34.3515   49.6857 H   0  0  0  0  0  0  0  0  0  0  0  0
   58.0677   34.8058   47.7304 H   0  0  0  0  0  0  0  0  0  0  0  0
   57.7887   33.0327   42.5343 H   0  0  0  0  0  0  0  0  0  0  0  0
   57.2305   30.6185   42.2670 H   0  0  0  0  0  0  0  0  0  0  0  0
   56.2690   28.5300   43.6470 H   0  0  0  0  0  0  0  0  0  0  0  0
   60.2788   26.5103   46.0465 H   0  0  0  0  0  0  0  0  0  0  0  0
   59.0241   26.4087   47.2842 H   0  0  0  0  0  0  0  0  0  0  0  0
   59.1651   24.9457   44.7513 H   0  0  0  0  0  0  0  0  0  0  0  0
   57.8808   24.8165   45.9423 H   0  0  0  0  0  0  0  0  0  0  0  0
   56.9510   25.9910   43.7570 H   0  0  0  0  0  0  0  0  0  0  0  0
   57.7773   30.0260   46.5244 H   0  0  0  0  0  0  0  0  0  0  0  0
   58.3358   32.4429   46.7847 H   0  0  0  0  0  0  0  0  0  0  0  0
   61.2893   33.7489   45.0418 H   0  0  0  0  0  0  0  0  0  0  0  0
  1  2  1  0
  2  3  2  0
  3  4  1  0
  4  5  2  0
  5  6  1  0
  6  7  1  0
  7  8  2  0
  8  9  1  0
  9 10  2  0
 10 11  1  0
 11 12  1  0
 12 13  2  0
 13 14  1  0
 14 15  1  0
 15 16  1  0
 10 17  1  0
 17 18  2  0
  5 19  1  0
 19 20  2  0
 20 21  1  0
 20  2  1  0
 18  7  1  0
 16 12  1  0
  3 22  1  0
  4 23  1  0
  8 24  1  0
  9 25  1  0
 11 26  1  0
 14 27  1  0
 14 28  1  0
 15 29  1  0
 15 30  1  0
 16 31  1  0
 17 32  1  0
 18 33  1  0
 19 34  1  0
M  END
>  <UniqueID>  (29) 
28

>  <SMILES>  (29) 
Clc1ccc(Sc2ccc(NC3=NCCN3)cc2)cc1Cl

>  <Energy>  (29) 
46.91792147875508

>  <Genealogy>  (29) 
Clc1ccc(Sc2ccc(NC3=NCCN3)cc2)cc1Cl (3D coordinates assigned)
Clc1ccc(Sc2ccc(NC3=NCCN3)cc2)cc1Cl (nonaromatic ring conformer: 46.91792147875508 kcal/mol)

>  <smiles>  (29) 
Clc1ccc(Sc2ccc(NC3=NCCN3)cc2)cc1Cl

>  <score_type>  (29) 
oracle

>  <origin>  (29) 
adg

>  <m_score__min__energy>  (29) 
-8.3300000000000001

>  <m_primary>  (29) 
energy

$$$$
29:0
     RDKit          3D

 35 37  0  0  0  0  0  0  0  0999 V2000
   55.9270   29.6970   45.1020 O   0  0  0  0  0  0  0  0  0  0  0  0
   56.9610   30.1900   44.1260 S   0  0  0  0  0  0  0  0  0  0  0  0
   56.2810   30.4740   42.8150 O   0  0  0  0  0  0  0  0  0  0  0  0
   57.6660   31.6870   44.7320 C   0  0  0  0  0  0  0  0  0  0  0  0
   57.7750   31.9160   46.1110 C   0  0  0  0  0  0  0  0  0  0  0  0
   58.3520   33.1000   46.5830 C   0  0  0  0  0  0  0  0  0  0  0  0
   58.8250   34.0570   45.6810 C   0  0  0  0  0  0  0  0  0  0  0  0
   58.7240   33.8300   44.3050 C   0  0  0  0  0  0  0  0  0  0  0  0
   58.1480   32.6470   43.8300 C   0  0  0  0  0  0  0  0  0  0  0  0
   58.2300   29.0020   43.9020 N   0  0  2  0  0  0  0  0  0  0  0  0
   57.8450   27.6620   44.3910 C   0  0  0  0  0  0  0  0  0  0  0  0
   57.6510   27.6180   45.9140 C   0  0  0  0  0  0  0  0  0  0  0  0
   58.7230   28.3730   46.6540 C   0  0  0  0  0  0  0  0  0  0  0  0
   58.8280   28.2210   48.0470 C   0  0  0  0  0  0  0  0  0  0  0  0
   59.7710   28.9560   48.7680 C   0  0  0  0  0  0  0  0  0  0  0  0
   60.6110   29.8550   48.1090 C   0  0  0  0  0  0  0  0  0  0  0  0
   60.5090   30.0220   46.7250 C   0  0  0  0  0  0  0  0  0  0  0  0
   59.5560   29.2990   45.9910 C   0  0  0  0  0  0  0  0  0  0  0  0
   59.5080   29.4500   44.4890 C   0  0  0  0  0  0  0  0  0  0  0  0
   57.4061   31.1632   46.8232 H   0  0  0  0  0  0  0  0  0  0  0  0
   58.4335   33.2779   47.6655 H   0  0  0  0  0  0  0  0  0  0  0  0
   59.2765   34.9884   46.0534 H   0  0  0  0  0  0  0  0  0  0  0  0
   59.0979   34.5826   43.5952 H   0  0  0  0  0  0  0  0  0  0  0  0
   58.0729   32.4693   42.7471 H   0  0  0  0  0  0  0  0  0  0  0  0
   58.3730   28.9230   42.8680 H   0  0  0  0  0  0  0  0  0  0  0  0
   56.9012   27.3692   43.9078 H   0  0  0  0  0  0  0  0  0  0  0  0
   58.6629   26.9703   44.1409 H   0  0  0  0  0  0  0  0  0  0  0  0
   56.6745   28.0617   46.1582 H   0  0  0  0  0  0  0  0  0  0  0  0
   57.7067   26.5651   46.2277 H   0  0  0  0  0  0  0  0  0  0  0  0
   58.1636   27.5191   48.5723 H   0  0  0  0  0  0  0  0  0  0  0  0
   59.8521   28.8263   49.8573 H   0  0  0  0  0  0  0  0  0  0  0  0
   61.3537   30.4324   48.6791 H   0  0  0  0  0  0  0  0  0  0  0  0
   61.1796   30.7242   46.2081 H   0  0  0  0  0  0  0  0  0  0  0  0
   59.6550   30.5111   44.2391 H   0  0  0  0  0  0  0  0  0  0  0  0
   60.3018   28.8141   44.0701 H   0  0  0  0  0  0  0  0  0  0  0  0
  1  2  2  0
  2  3  2  0
  2  4  1  0
  4  5  2  0
  5  6  1  0
  6  7  2  0
  7  8  1  0
  8  9  2  0
  2 10  1  0
 10 11  1  0
 11 12  1  0
 12 13  1  0
 13 14  2  0
 14 15  1  0
 15 16  2  0
 16 17  1  0
 17 18  2  0
 18 19  1  0
  9  4  1  0
 19 10  1  0
 18 13  1  0
  5 20  1  0
  6 21  1  0
  7 22  1  0
  8 23  1  0
  9 24  1  0
 10 25  1  6
 11 26  1  0
 11 27  1  0
 12 28  1  0
 12 29  1  0
 14 30  1  0
 15 31  1  0
 16 32  1  0
 17 33  1  0
 19 34  1  0
 19 35  1  0
M  CHG  1  10   1
M  END
>  <UniqueID>  (30) 
29

>  <SMILES>  (30) 
O=S(=O)(c1ccccc1)[N@@H+]1CCc2ccccc2C1

>  <Energy>  (30) 
40.81211829456449

>  <Genealogy>  (30) 
O=S(=O)(c1ccccc1)[NH+]1CCc2ccccc2C1 (protonated)
O=S(=O)(c1ccccc1)[N@@H+]1CCc2ccccc2C1 (chirality)
O=S(=O)(c1ccccc1)[N@@H+]1CCc2ccccc2C1 (3D coordinates assigned)
O=S(=O)(c1ccccc1)[N@@H+]1CCc2ccccc2C1 (nonaromatic ring conformer: 40.81211829456449 kcal/mol)

>  <smiles>  (30) 
O=S(=O)(c1ccccc1)N1CCc2ccccc2C1

>  <score_type>  (30) 
oracle

>  <origin>  (30) 
adg

>  <m_score__min__energy>  (30) 
-6.4299999999999997

>  <m_primary>  (30) 
energy

$$$$
30:0
     RDKit          3D

 40 42  0  0  0  0  0  0  0  0999 V2000
   59.9490   29.4970   47.8540 C   0  0  0  0  0  0  0  0  0  0  0  0
   60.1860   30.9020   48.2590 N   0  0  1  0  0  0  0  0  0  0  0  0
   61.2960   31.4670   47.4280 C   0  0  0  0  0  0  0  0  0  0  0  0
   62.5010   31.8780   48.2600 C   0  0  0  0  0  0  0  0  0  0  0  0
   62.7190   31.2700   49.5100 C   0  0  0  0  0  0  0  0  0  0  0  0
   63.8380   31.6010   50.2780 C   0  0  0  0  0  0  0  0  0  0  0  0
   64.7330   32.5700   49.8260 C   0  0  0  0  0  0  0  0  0  0  0  0
   65.8170   32.8930   50.5740 F   0  0  0  0  0  0  0  0  0  0  0  0
   64.4990   33.2280   48.6170 C   0  0  0  0  0  0  0  0  0  0  0  0
   63.3810   32.9030   47.8380 C   0  0  0  0  0  0  0  0  0  0  0  0
   63.0950   33.8410   46.3760 Cl  0  0  0  0  0  0  0  0  0  0  0  0
   58.9210   31.7010   48.1550 C   0  0  1  0  0  0  0  0  0  0  0  0
   58.5140   32.3780   49.4890 C   0  0  0  0  0  0  0  0  0  0  0  0
   59.5670   33.3920   49.9860 C   0  0  0  0  0  0  0  0  0  0  0  0
   60.2660   34.2070   48.8660 C   0  0  0  0  0  0  0  0  0  0  0  0
   59.6580   34.0270   47.4950 C   0  0  0  0  0  0  0  0  0  0  0  0
   59.7360   35.0500   46.5410 C   0  0  0  0  0  0  0  0  0  0  0  0
   59.1370   34.8850   45.2910 C   0  0  0  0  0  0  0  0  0  0  0  0
   58.4670   33.6940   45.0050 C   0  0  0  0  0  0  0  0  0  0  0  0
   58.4270   32.6960   45.9270 N   0  0  0  0  0  0  0  0  0  0  0  0
   59.0250   32.8200   47.1450 C   0  0  0  0  0  0  0  0  0  0  0  0
   59.8432   28.8696   48.7513 H   0  0  0  0  0  0  0  0  0  0  0  0
   59.0283   29.4384   47.2550 H   0  0  0  0  0  0  0  0  0  0  0  0
   60.7996   29.1396   47.2550 H   0  0  0  0  0  0  0  0  0  0  0  0
   60.4840   30.8730   49.2590 H   0  0  0  0  0  0  0  0  0  0  0  0
   61.6138   30.7055   46.7005 H   0  0  0  0  0  0  0  0  0  0  0  0
   60.9122   32.3698   46.9303 H   0  0  0  0  0  0  0  0  0  0  0  0
   62.0010   30.5265   49.8863 H   0  0  0  0  0  0  0  0  0  0  0  0
   64.0132   31.0969   51.2399 H   0  0  0  0  0  0  0  0  0  0  0  0
   65.1967   34.0062   48.2741 H   0  0  0  0  0  0  0  0  0  0  0  0
   58.1701   30.9561   47.8529 H   0  0  0  0  0  0  0  0  0  0  0  0
   57.5602   32.9052   49.3398 H   0  0  0  0  0  0  0  0  0  0  0  0
   58.4266   31.5886   50.2500 H   0  0  0  0  0  0  0  0  0  0  0  0
   59.0670   34.1002   50.6631 H   0  0  0  0  0  0  0  0  0  0  0  0
   60.3552   32.8033   50.4780 H   0  0  0  0  0  0  0  0  0  0  0  0
   60.2107   35.2734   49.1302 H   0  0  0  0  0  0  0  0  0  0  0  0
   61.2994   33.8352   48.8038 H   0  0  0  0  0  0  0  0  0  0  0  0
   60.2690   35.9829   46.7769 H   0  0  0  0  0  0  0  0  0  0  0  0
   59.1923   35.6856   44.5386 H   0  0  0  0  0  0  0  0  0  0  0  0
   57.9707   33.5630   44.0321 H   0  0  0  0  0  0  0  0  0  0  0  0
  1  2  1  0
  2  3  1  0
  3  4  1  0
  4  5  2  0
  5  6  1  0
  6  7  2  0
  7  8  1  0
  7  9  1  0
  9 10  2  0
 10 11  1  0
  2 12  1  0
 12 13  1  0
 13 14  1  0
 14 15  1  0
 15 16  1  0
 16 17  2  0
 17 18  1  0
 18 19  2  0
 19 20  1  0
 20 21  2  0
 10  4  1  0
 21 12  1  0
 21 16  1  0
  1 22  1  0
  1 23  1  0
  1 24  1  0
  2 25  1  1
  3 26  1  0
  3 27  1  0
  5 28  1  0
  6 29  1  0
  9 30  1  0
 12 31  1  6
 13 32  1  0
 13 33  1  0
 14 34  1  0
 14 35  1  0
 15 36  1  0
 15 37  1  0
 17 38  1  0
 18 39  1  0
 19 40  1  0
M  CHG  1   2   1
M  END
>  <UniqueID>  (31) 
30

>  <SMILES>  (31) 
C[N@@H+](Cc1ccc(F)cc1Cl)[C@H]1CCCc2cccnc21

>  <Energy>  (31) 
56.07854300634102

>  <Genealogy>  (31) 
C[NH+](Cc1ccc(F)cc1Cl)C1CCCc2cccnc21 (protonated)
C[N@@H+](Cc1ccc(F)cc1Cl)[C@H]1CCCc2cccnc21 (chirality)
C[N@@H+](Cc1ccc(F)cc1Cl)[C@H]1CCCc2cccnc21 (3D coordinates assigned)
C[N@@H+](Cc1ccc(F)cc1Cl)[C@H]1CCCc2cccnc21 (nonaromatic ring conformer: 56.07854300634102 kcal/mol)

>  <smiles>  (31) 
CN(Cc1ccc(F)cc1Cl)C1CCCc2cccnc21

>  <score_type>  (31) 
oracle

>  <origin>  (31) 
adg

>  <m_score__min__energy>  (31) 
-6.5899999999999999

>  <m_primary>  (31) 
energy

$$$$
31:0
     RDKit          3D

 26 28  0  0  0  0  0  0  0  0999 V2000
   56.2680   30.0900   43.0240 C   0  0  0  0  0  0  0  0  0  0  0  0
   57.4230   30.0470   43.9310 N   0  0  0  0  0  0  0  0  0  0  0  0
   58.0170   31.2550   44.4840 C   0  0  0  0  0  0  0  0  0  0  0  0
   57.6600   32.4750   44.0420 C   0  0  0  0  0  0  0  0  0  0  0  0
   58.2180   33.7150   44.6710 C   0  0  0  0  0  0  0  0  0  0  0  0
   57.9880   33.6890   46.4880 S   0  0  0  0  0  0  0  0  0  0  0  0
   58.5000   31.9530   46.8410 C   0  0  0  0  0  0  0  0  0  0  0  0
   59.0430   31.1920   45.6180 C   0  0  1  0  0  0  0  0  0  0  0  0
   59.4410   29.7860   46.0000 C   0  0  0  0  0  0  0  0  0  0  0  0
   60.2790   29.5890   46.9210 O   0  0  0  0  0  0  0  0  0  0  0  0
   58.9090   28.6830   45.2760 N   0  0  0  0  0  0  0  0  0  0  0  0
   59.2540   27.4120   45.4040 N   0  0  0  0  0  0  0  0  0  0  0  0
   58.5190   26.7510   44.4810 C   0  0  0  0  0  0  0  0  0  0  0  0
   57.7230   27.5840   43.7750 N   0  0  0  0  0  0  0  0  0  0  0  0
   57.9980   28.7870   44.3130 C   0  0  0  0  0  0  0  0  0  0  0  0
   55.3399   30.1246   43.6135 H   0  0  0  0  0  0  0  0  0  0  0  0
   56.3331   30.9863   42.3897 H   0  0  0  0  0  0  0  0  0  0  0  0
   56.2662   29.1913   42.3897 H   0  0  0  0  0  0  0  0  0  0  0  0
   56.9488   32.5629   43.2075 H   0  0  0  0  0  0  0  0  0  0  0  0
   59.2926   33.7807   44.4452 H   0  0  0  0  0  0  0  0  0  0  0  0
   57.6847   34.5860   44.2624 H   0  0  0  0  0  0  0  0  0  0  0  0
   59.2863   31.9752   47.6100 H   0  0  0  0  0  0  0  0  0  0  0  0
   57.5964   31.4184   47.1692 H   0  0  0  0  0  0  0  0  0  0  0  0
   59.9616   31.6702   45.2473 H   0  0  0  0  0  0  0  0  0  0  0  0
   58.5639   25.6633   44.3235 H   0  0  0  0  0  0  0  0  0  0  0  0
   57.0810   27.3340   42.9920 H   0  0  0  0  0  0  0  0  0  0  0  0
  1  2  1  0
  2  3  1  0
  3  4  2  0
  4  5  1  0
  5  6  1  0
  6  7  1  0
  7  8  1  0
  8  9  1  0
  9 10  2  0
  9 11  1  0
 11 12  1  0
 12 13  2  0
 13 14  1  0
 14 15  2  0
 15  2  1  0
  8  3  1  0
 15 11  1  0
  1 16  1  0
  1 17  1  0
  1 18  1  0
  4 19  1  0
  5 20  1  0
  5 21  1  0
  7 22  1  0
  7 23  1  0
  8 24  1  6
 13 25  1  0
 14 26  1  0
M  CHG  1  14   1
M  END
>  <UniqueID>  (32) 
31

>  <SMILES>  (32) 
CN1C2=CCSC[C@H]2C(=O)n2nc[nH+]c21

>  <Energy>  (32) 
70.34228899805133

>  <Genealogy>  (32) 
CN1C2=CCSCC2C(=O)n2nc[nH+]c21 (protonated)
CN1C2=CCSC[C@H]2C(=O)n2nc[nH+]c21 (chirality)
CN1C2=CCSC[C@H]2C(=O)n2nc[nH+]c21 (3D coordinates assigned)
CN1C2=CCSC[C@H]2C(=O)n2nc[nH+]c21 (nonaromatic ring conformer: 70.34228899805133 kcal/mol)

>  <smiles>  (32) 
CN1C2=CCSCC2C(=O)n2ncnc21

>  <score_type>  (32) 
oracle

>  <origin>  (32) 
adg

>  <m_score__min__energy>  (32) 
-4.6900000000000004

>  <m_primary>  (32) 
energy

$$$$
32:0
     RDKit          3D

 25 25  0  0  0  0  0  0  0  0999 V2000
   56.2990   30.2660   43.0480 C   0  0  0  0  0  0  0  0  0  0  0  0
   56.4380   30.5740   44.4290 O   0  0  0  0  0  0  0  0  0  0  0  0
   57.4040   31.4610   44.9120 C   0  0  0  0  0  0  0  0  0  0  0  0
   57.5450   33.0930   44.5170 S   0  0  0  0  0  0  0  0  0  0  0  0
   58.9050   33.3840   45.4650 C   0  0  0  0  0  0  0  0  0  0  0  0
   59.2640   32.2000   46.1000 C   0  0  0  0  0  0  0  0  0  0  0  0
   58.4170   31.1220   45.8010 C   0  0  0  0  0  0  0  0  0  0  0  0
   58.6330   29.7330   46.3290 C   0  0  0  0  0  0  0  0  0  0  0  0
   58.3940   28.6950   45.2310 C   0  0  0  0  0  0  0  0  0  0  0  0
   56.9850   28.2990   45.2170 N   0  0  0  0  0  0  0  0  0  0  0  0
   56.8420   26.6400   45.7130 S   0  0  0  0  0  0  0  0  0  0  0  0
   55.1830   26.2550   46.0080 N   0  0  0  0  0  0  0  0  0  0  0  0
   57.6400   26.4060   46.9650 O   0  0  0  0  0  0  0  0  0  0  0  0
   57.3670   25.7520   44.6200 O   0  0  0  0  0  0  0  0  0  0  0  0
   55.8488   29.2684   42.9383 H   0  0  0  0  0  0  0  0  0  0  0  0
   55.6517   31.0151   42.5686 H   0  0  0  0  0  0  0  0  0  0  0  0
   57.2890   30.2762   42.5686 H   0  0  0  0  0  0  0  0  0  0  0  0
   59.4231   34.3491   45.5655 H   0  0  0  0  0  0  0  0  0  0  0  0
   60.1301   32.1165   46.7730 H   0  0  0  0  0  0  0  0  0  0  0  0
   59.6668   29.6418   46.6935 H   0  0  0  0  0  0  0  0  0  0  0  0
   57.9224   29.5513   47.1487 H   0  0  0  0  0  0  0  0  0  0  0  0
   58.6607   29.1280   44.2556 H   0  0  0  0  0  0  0  0  0  0  0  0
   59.0167   27.8099   45.4281 H   0  0  0  0  0  0  0  0  0  0  0  0
   56.6420   28.3490   44.2300 H   0  0  0  0  0  0  0  0  0  0  0  0
   54.7510   27.0940   46.4550 H   0  0  0  0  0  0  0  0  0  0  0  0
  1  2  1  0
  2  3  1  0
  3  4  1  0
  4  5  1  0
  5  6  2  0
  6  7  1  0
  7  8  1  0
  8  9  1  0
  9 10  1  0
 10 11  1  0
 11 12  1  0
 11 13  2  0
 11 14  2  0
  7  3  2  0
  1 15  1  0
  1 16  1  0
  1 17  1  0
  5 18  1  0
  6 19  1  0
  8 20  1  0
  8 21  1  0
  9 22  1  0
  9 23  1  0
 10 24  1  0
 12 25  1  0
M  CHG  1  12  -1
M  END
>  <UniqueID>  (33) 
32

>  <SMILES>  (33) 
COc1sccc1CCNS([NH-])(=O)=O

>  <Energy>  (33) 
38.97313552393804

>  <Genealogy>  (33) 
COc1sccc1CCNS([NH-])(=O)=O (protonated)
COc1sccc1CCNS([NH-])(=O)=O (3D coordinates assigned)
COc1sccc1CCNS([NH-])(=O)=O (optimized conformer: 38.97313552393804 kcal/mol)

>  <smiles>  (33) 
COc1sccc1CCNS(N)(=O)=O

>  <score_type>  (33) 
oracle

>  <origin>  (33) 
adg

>  <m_score__min__energy>  (33) 
-8.5199999999999996

>  <m_primary>  (33) 
energy

$$$$
33:0
     RDKit          3D

 35 36  0  0  0  0  0  0  0  0999 V2000
   57.7350   28.5200   43.9110 C   0  0  0  0  0  0  0  0  0  0  0  0
   56.7820   30.0090   44.0990 S   0  0  0  0  0  0  0  0  0  0  0  0
   56.3980   30.5350   42.7450 O   0  0  0  0  0  0  0  0  0  0  0  0
   55.5280   29.7090   44.8730 O   0  0  0  0  0  0  0  0  0  0  0  0
   57.7400   31.2100   44.9590 C   0  0  0  0  0  0  0  0  0  0  0  0
   58.8580   30.8180   45.7050 C   0  0  0  0  0  0  0  0  0  0  0  0
   59.6280   31.7740   46.3730 C   0  0  0  0  0  0  0  0  0  0  0  0
   59.3020   33.1380   46.2890 C   0  0  0  0  0  0  0  0  0  0  0  0
   60.1310   34.1780   47.0190 C   0  0  0  0  0  0  0  0  0  0  0  0
   61.3840   33.6550   47.6240 N   0  0  0  0  0  0  0  0  0  0  0  0
   62.5590   33.8440   46.7440 C   0  0  0  0  0  0  0  0  0  0  0  0
   63.7250   32.9050   47.1250 C   0  0  0  0  0  0  0  0  0  0  0  0
   63.7200   32.3800   48.8840 S   0  0  0  0  0  0  0  0  0  0  0  0
   63.0370   33.9420   49.5200 C   0  0  0  0  0  0  0  0  0  0  0  0
   61.6150   34.2000   48.9870 C   0  0  0  0  0  0  0  0  0  0  0  0
   58.1700   33.5240   45.5500 C   0  0  0  0  0  0  0  0  0  0  0  0
   57.4000   32.5670   44.8820 C   0  0  0  0  0  0  0  0  0  0  0  0
   57.9907   28.1205   44.9035 H   0  0  0  0  0  0  0  0  0  0  0  0
   57.1455   27.7749   43.3566 H   0  0  0  0  0  0  0  0  0  0  0  0
   58.6585   28.7432   43.3566 H   0  0  0  0  0  0  0  0  0  0  0  0
   59.1312   29.7542   45.7655 H   0  0  0  0  0  0  0  0  0  0  0  0
   60.4960   31.4561   46.9692 H   0  0  0  0  0  0  0  0  0  0  0  0
   60.3995   34.9681   46.3023 H   0  0  0  0  0  0  0  0  0  0  0  0
   59.5113   34.5438   47.8510 H   0  0  0  0  0  0  0  0  0  0  0  0
   61.2250   32.6240   47.7210 H   0  0  0  0  0  0  0  0  0  0  0  0
   62.2616   33.6373   45.7053 H   0  0  0  0  0  0  0  0  0  0  0  0
   62.9066   34.8812   46.8598 H   0  0  0  0  0  0  0  0  0  0  0  0
   63.6635   32.0049   46.4956 H   0  0  0  0  0  0  0  0  0  0  0  0
   64.6541   33.4720   46.9657 H   0  0  0  0  0  0  0  0  0  0  0  0
   63.0031   33.8953   50.6185 H   0  0  0  0  0  0  0  0  0  0  0  0
   63.6851   34.7634   49.1805 H   0  0  0  0  0  0  0  0  0  0  0  0
   60.8953   33.7327   49.6752 H   0  0  0  0  0  0  0  0  0  0  0  0
   61.4860   35.2907   48.9251 H   0  0  0  0  0  0  0  0  0  0  0  0
   57.8882   34.5860   45.4970 H   0  0  0  0  0  0  0  0  0  0  0  0
   56.5246   32.8805   44.2942 H   0  0  0  0  0  0  0  0  0  0  0  0
  1  2  1  0
  2  3  2  0
  2  4  2  0
  2  5  1  0
  5  6  2  0
  6  7  1  0
  7  8  2  0
  8  9  1  0
  9 10  1  0
 10 11  1  0
 11 12  1  0
 12 13  1  0
 13 14  1  0
 14 15  1  0
  8 16  1  0
 16 17  2  0
 17  5  1  0
 15 10  1  0
  1 18  1  0
  1 19  1  0
  1 20  1  0
  6 21  1  0
  7 22  1  0
  9 23  1  0
  9 24  1  0
 10 25  1  0
 11 26  1  0
 11 27  1  0
 12 28  1  0
 12 29  1  0
 14 30  1  0
 14 31  1  0
 15 32  1  0
 15 33  1  0
 16 34  1  0
 17 35  1  0
M  CHG  1  10   1
M  END
>  <UniqueID>  (34) 
33

>  <SMILES>  (34) 
CS(=O)(=O)c1ccc(C[NH+]2CCSCC2)cc1

>  <Energy>  (34) 
40.25440288239185

>  <Genealogy>  (34) 
CS(=O)(=O)c1ccc(C[NH+]2CCSCC2)cc1 (protonated)
CS(=O)(=O)c1ccc(C[NH+]2CCSCC2)cc1 (3D coordinates assigned)
CS(=O)(=O)c1ccc(C[NH+]2CCSCC2)cc1 (nonaromatic ring conformer: 40.25440288239185 kcal/mol)

>  <smiles>  (34) 
CS(=O)(=O)c1ccc(CN2CCSCC2)cc1

>  <score_type>  (34) 
oracle

>  <origin>  (34) 
adg

>  <m_score__min__energy>  (34) 
-6

>  <m_primary>  (34) 
energy

$$$$
34:0
     RDKit          3D

 51 53  0  0  0  0  0  0  0  0999 V2000
   57.9122   32.9205   42.1580 H   0  0  0  0  0  0  0  0  0  0  0  0
   57.9640   32.6540   43.2240 C   0  0  0  0  0  0  0  0  0  0  0  0
   57.4490   31.4330   43.6610 C   0  0  0  0  0  0  0  0  0  0  0  0
   57.0078   30.7332   42.9361 H   0  0  0  0  0  0  0  0  0  0  0  0
   57.4920   31.0960   45.0180 C   0  0  0  0  0  0  0  0  0  0  0  0
   56.9870   29.8190   45.4380 N   0  0  0  0  0  0  0  0  0  0  0  0
   57.6240   28.6770   45.4660 C   0  0  0  0  0  0  0  0  0  0  0  0
   57.4670   27.7120   44.4510 C   0  0  0  0  0  0  0  0  0  0  0  0
   56.7881   27.9078   43.6079 H   0  0  0  0  0  0  0  0  0  0  0  0
   58.1700   26.5100   44.5130 C   0  0  0  0  0  0  0  0  0  0  0  0
   58.0346   25.7570   43.7227 H   0  0  0  0  0  0  0  0  0  0  0  0
   59.0200   26.2620   45.5410 N   0  0  0  0  0  0  0  0  0  0  0  0
   59.5310   25.3490   45.5510 H   0  0  0  0  0  0  0  0  0  0  0  0
   59.2240   27.1710   46.5350 C   0  0  0  0  0  0  0  0  0  0  0  0
   60.1200   26.8880   47.5770 C   0  0  0  0  0  0  0  0  0  0  0  0
   60.6572   25.9282   47.5904 H   0  0  0  0  0  0  0  0  0  0  0  0
   60.3340   27.8170   48.5970 C   0  0  0  0  0  0  0  0  0  0  0  0
   61.0383   27.5865   49.4100 H   0  0  0  0  0  0  0  0  0  0  0  0
   59.6570   29.0370   48.5880 C   0  0  0  0  0  0  0  0  0  0  0  0
   59.9570   30.3030   49.9870 Br  0  0  0  0  0  0  0  0  0  0  0  0
   58.7600   29.3360   47.5580 C   0  0  0  0  0  0  0  0  0  0  0  0
   58.2300   30.2999   47.5579 H   0  0  0  0  0  0  0  0  0  0  0  0
   58.5300   28.4100   46.5190 C   0  0  0  0  0  0  0  0  0  0  0  0
   58.1170   31.9650   45.9260 C   0  0  0  0  0  0  0  0  0  0  0  0
   58.2059   31.6751   46.9834 H   0  0  0  0  0  0  0  0  0  0  0  0
   58.6310   33.2030   45.4980 C   0  0  0  0  0  0  0  0  0  0  0  0
   59.2290   34.1140   46.4470 N   0  0  0  0  0  0  0  0  0  0  0  0
   59.6610   35.4430   45.9980 C   0  0  0  0  0  0  0  0  0  0  0  0
   59.8670   36.0767   46.8732 H   0  0  0  0  0  0  0  0  0  0  0  0
   60.5740   35.3465   45.3921 H   0  0  0  0  0  0  0  0  0  0  0  0
   58.8657   35.9018   45.3921 H   0  0  0  0  0  0  0  0  0  0  0  0
   59.4560   33.7090   47.8450 C   0  0  0  0  0  0  0  0  0  0  0  0
   59.0755   32.6867   47.9865 H   0  0  0  0  0  0  0  0  0  0  0  0
   58.9282   34.4193   48.4984 H   0  0  0  0  0  0  0  0  0  0  0  0
   60.9480   33.7400   48.2090 C   0  0  0  0  0  0  0  0  0  0  0  0
   61.0465   33.7951   49.3032 H   0  0  0  0  0  0  0  0  0  0  0  0
   61.3995   34.6195   47.7267 H   0  0  0  0  0  0  0  0  0  0  0  0
   61.6880   32.4820   47.7030 C   0  0  0  0  0  0  0  0  0  0  0  0
   61.1746   32.1206   46.7998 H   0  0  0  0  0  0  0  0  0  0  0  0
   61.6691   31.7535   48.5269 H   0  0  0  0  0  0  0  0  0  0  0  0
   63.1130   32.7050   47.3680 N   0  0  0  0  0  0  0  0  0  0  0  0
   63.3120   33.8070   46.4140 C   0  0  0  0  0  0  0  0  0  0  0  0
   63.4811   34.7435   46.9657 H   0  0  0  0  0  0  0  0  0  0  0  0
   64.1857   33.5911   45.7815 H   0  0  0  0  0  0  0  0  0  0  0  0
   62.4180   33.9104   45.7815 H   0  0  0  0  0  0  0  0  0  0  0  0
   63.9630   32.8700   48.5570 C   0  0  0  0  0  0  0  0  0  0  0  0
   63.3519   32.7514   49.4639 H   0  0  0  0  0  0  0  0  0  0  0  0
   64.7575   32.1093   48.5481 H   0  0  0  0  0  0  0  0  0  0  0  0
   64.4152   33.8727   48.5481 H   0  0  0  0  0  0  0  0  0  0  0  0
   58.5450   33.5390   44.1350 C   0  0  0  0  0  0  0  0  0  0  0  0
   58.9378   34.5048   43.7843 H   0  0  0  0  0  0  0  0  0  0  0  0
  1  2  1  0
  2  3  2  0
  3  4  1  0
  3  5  1  0
  5  6  1  0
  6  7  2  0
  7  8  1  0
  8  9  1  0
  8 10  2  0
 10 11  1  0
 10 12  1  0
 12 13  1  0
 12 14  1  0
 14 15  2  0
 15 16  1  0
 15 17  1  0
 17 18  1  0
 17 19  2  0
 19 20  1  0
 19 21  1  0
 21 22  1  0
 21 23  2  0
  5 24  2  0
 24 25  1  0
 24 26  1  0
 26 27  1  0
 27 28  1  0
 28 29  1  0
 28 30  1  0
 28 31  1  0
 27 32  1  0
 32 33  1  0
 32 34  1  0
 32 35  1  0
 35 36  1  0
 35 37  1  0
 35 38  1  0
 38 39  1  0
 38 40  1  0
 38 41  1  0
 41 42  1  0
 42 43  1  0
 42 44  1  0
 42 45  1  0
 41 46  1  0
 46 47  1  0
 46 48  1  0
 46 49  1  0
 26 50  2  0
 50 51  1  0
 50  2  1  0
 23  7  1  0
 23 14  1  0
M  END
>  <UniqueID>  (35) 
34

>  <SMILES>  (35) 
CN(C)CCCN(C)c1cccc(/N=c2\cc[nH]c3ccc(Br)cc23)c1

>  <Energy>  (35) 
67.0806805675868

>  <Genealogy>  (35) 
CN(C)CCCN(C)c1cccc(/N=c2\cc[nH]c3ccc(Br)cc23)c1 (cis-trans isomerization)
CN(C)CCCN(C)c1cccc(/N=c2\cc[nH]c3ccc(Br)cc23)c1 (3D coordinates assigned)
CN(C)CCCN(C)c1cccc(/N=c2\cc[nH]c3ccc(Br)cc23)c1 (optimized conformer: 67.0806805675868 kcal/mol)

>  <smiles>  (35) 
CN(C)CCCN(C)c1cccc(N=c2cc[nH]c3ccc(Br)cc23)c1

>  <score_type>  (35) 
oracle

>  <origin>  (35) 
adg

>  <m_score__min__energy>  (35) 
-8.25

>  <m_primary>  (35) 
energy

$$$$
35:0
     RDKit          3D

 28 31  0  0  0  0  0  0  0  0999 V2000
   61.2800   33.5820   51.3660 C   0  0  0  0  0  0  0  0  0  0  0  0
   60.0990   33.1080   50.7950 C   0  0  0  0  0  0  0  0  0  0  0  0
   59.9930   32.9630   49.4100 C   0  0  0  0  0  0  0  0  0  0  0  0
   61.0740   33.3040   48.5660 C   0  0  0  0  0  0  0  0  0  0  0  0
   61.0030   33.1740   47.1530 C   0  0  0  0  0  0  0  0  0  0  0  0
   59.7600   32.7760   46.4520 C   0  0  0  0  0  0  0  0  0  0  0  0
   58.8980   33.7470   45.8800 C   0  0  0  0  0  0  0  0  0  0  0  0
   57.7430   33.3630   45.2590 N   0  0  0  0  0  0  0  0  0  0  0  0
   57.4570   32.0430   45.2190 C   0  0  0  0  0  0  0  0  0  0  0  0
   56.3780   31.4680   44.6620 N   0  0  0  0  0  0  0  0  0  0  0  0
   56.5250   30.1580   44.8700 N   0  0  0  0  0  0  0  0  0  0  0  0
   57.6850   29.9670   45.5470 C   0  0  0  0  0  0  0  0  0  0  0  0
   58.2700   31.1480   45.7650 N   0  0  0  0  0  0  0  0  0  0  0  0
   59.4040   31.4590   46.3830 N   0  0  0  0  0  0  0  0  0  0  0  0
   62.1380   33.4660   46.3780 C   0  0  0  0  0  0  0  0  0  0  0  0
   63.3190   33.9040   46.9770 C   0  0  0  0  0  0  0  0  0  0  0  0
   63.3910   34.0590   48.3590 C   0  0  0  0  0  0  0  0  0  0  0  0
   62.2820   33.7610   49.1620 C   0  0  0  0  0  0  0  0  0  0  0  0
   62.3700   33.9030   50.5560 C   0  0  0  0  0  0  0  0  0  0  0  0
   61.3523   33.7030   52.4569 H   0  0  0  0  0  0  0  0  0  0  0  0
   59.2464   32.8469   51.4391 H   0  0  0  0  0  0  0  0  0  0  0  0
   59.0595   32.5798   48.9720 H   0  0  0  0  0  0  0  0  0  0  0  0
   59.1607   34.8137   45.9367 H   0  0  0  0  0  0  0  0  0  0  0  0
   58.0818   28.9921   45.8665 H   0  0  0  0  0  0  0  0  0  0  0  0
   62.0947   33.3477   45.2852 H   0  0  0  0  0  0  0  0  0  0  0  0
   64.1979   34.1281   46.3546 H   0  0  0  0  0  0  0  0  0  0  0  0
   64.3223   34.4169   48.8222 H   0  0  0  0  0  0  0  0  0  0  0  0
   63.3020   34.2688   51.0116 H   0  0  0  0  0  0  0  0  0  0  0  0
  1  2  2  0
  2  3  1  0
  3  4  2  0
  4  5  1  0
  5  6  1  0
  6  7  1  0
  7  8  2  0
  8  9  1  0
  9 10  2  0
 10 11  1  0
 11 12  2  0
 12 13  1  0
 13 14  1  0
  5 15  2  0
 15 16  1  0
 16 17  2  0
 17 18  1  0
 18 19  2  0
 19  1  1  0
 18  4  1  0
 14  6  2  0
 13  9  1  0
  1 20  1  0
  2 21  1  0
  3 22  1  0
  7 23  1  0
 12 24  1  0
 15 25  1  0
 16 26  1  0
 17 27  1  0
 19 28  1  0
M  END
>  <UniqueID>  (36) 
35

>  <SMILES>  (36) 
c1ccc2c(-c3cnc4nncn4n3)cccc2c1

>  <Energy>  (36) 
89.71166434016794

>  <Genealogy>  (36) 
c1ccc2c(-c3cnc4nncn4n3)cccc2c1 (3D coordinates assigned)
c1ccc2c(-c3cnc4nncn4n3)cccc2c1 (optimized conformer: 89.71166434016794 kcal/mol)

>  <smiles>  (36) 
c1ccc2c(-c3cnc4nncn4n3)cccc2c1

>  <score_type>  (36) 
oracle

>  <origin>  (36) 
adg

>  <m_score__min__energy>  (36) 
-7

>  <m_primary>  (36) 
energy

$$$$
36:0
     RDKit          3D

 28 30  0  0  0  0  0  0  0  0999 V2000
   56.7420   29.8440   43.9090 Cl  0  0  0  0  0  0  0  0  0  0  0  0
   57.4980   31.3050   44.5190 C   0  0  0  0  0  0  0  0  0  0  0  0
   57.8190   31.4130   45.8760 C   0  0  0  0  0  0  0  0  0  0  0  0
   58.4220   32.5770   46.3620 C   0  0  0  0  0  0  0  0  0  0  0  0
   58.7050   33.6440   45.4940 C   0  0  0  0  0  0  0  0  0  0  0  0
   59.3890   34.8790   46.0160 C   0  0  0  0  0  0  0  0  0  0  0  0
   60.1290   34.5640   47.2370 N   0  0  0  0  0  0  0  0  0  0  0  0
   59.6520   34.5940   48.5060 C   0  0  0  0  0  0  0  0  0  0  0  0
   60.5530   34.1660   49.4290 N   0  0  0  0  0  0  0  0  0  0  0  0
   61.6290   33.8540   48.6820 C   0  0  0  0  0  0  0  0  0  0  0  0
   62.8500   33.3470   49.1200 C   0  0  0  0  0  0  0  0  0  0  0  0
   63.8330   33.0770   48.1510 C   0  0  0  0  0  0  0  0  0  0  0  0
   63.5740   33.3160   46.7820 C   0  0  0  0  0  0  0  0  0  0  0  0
   62.3290   33.8280   46.3710 C   0  0  0  0  0  0  0  0  0  0  0  0
   61.3780   34.0860   47.3600 C   0  0  0  0  0  0  0  0  0  0  0  0
   58.3870   33.5260   44.1310 C   0  0  0  0  0  0  0  0  0  0  0  0
   57.7840   32.3620   43.6470 C   0  0  0  0  0  0  0  0  0  0  0  0
   57.5969   30.5817   46.5613 H   0  0  0  0  0  0  0  0  0  0  0  0
   58.6759   32.6574   47.4293 H   0  0  0  0  0  0  0  0  0  0  0  0
   60.0869   35.2579   45.2548 H   0  0  0  0  0  0  0  0  0  0  0  0
   58.6306   35.6433   46.2411 H   0  0  0  0  0  0  0  0  0  0  0  0
   58.6369   34.9312   48.7627 H   0  0  0  0  0  0  0  0  0  0  0  0
   63.0392   33.1639   50.1880 H   0  0  0  0  0  0  0  0  0  0  0  0
   64.8099   32.6772   48.4605 H   0  0  0  0  0  0  0  0  0  0  0  0
   64.3504   33.1005   46.0332 H   0  0  0  0  0  0  0  0  0  0  0  0
   62.1132   34.0179   45.3092 H   0  0  0  0  0  0  0  0  0  0  0  0
   58.6135   34.3530   43.4419 H   0  0  0  0  0  0  0  0  0  0  0  0
   57.5337   32.2762   42.5793 H   0  0  0  0  0  0  0  0  0  0  0  0
  1  2  1  0
  2  3  2  0
  3  4  1  0
  4  5  2  0
  5  6  1  0
  6  7  1  0
  7  8  1  0
  8  9  2  0
  9 10  1  0
 10 11  2  0
 11 12  1  0
 12 13  2  0
 13 14  1  0
 14 15  2  0
  5 16  1  0
 16 17  2  0
 17  2  1  0
 15  7  1  0
 15 10  1  0
  3 18  1  0
  4 19  1  0
  6 20  1  0
  6 21  1  0
  8 22  1  0
 11 23  1  0
 12 24  1  0
 13 25  1  0
 14 26  1  0
 16 27  1  0
 17 28  1  0
M  END
>  <UniqueID>  (37) 
36

>  <SMILES>  (37) 
Clc1ccc(Cn2cnc3ccccc32)cc1

>  <Energy>  (37) 
66.3101692527225

>  <Genealogy>  (37) 
Clc1ccc(Cn2cnc3ccccc32)cc1 (3D coordinates assigned)
Clc1ccc(Cn2cnc3ccccc32)cc1 (optimized conformer: 66.3101692527225 kcal/mol)

>  <smiles>  (37) 
Clc1ccc(Cn2cnc3ccccc32)cc1

>  <score_type>  (37) 
oracle

>  <origin>  (37) 
adg

>  <m_score__min__energy>  (37) 
-6.8300000000000001

>  <m_primary>  (37) 
energy

$$$$
37:0
     RDKit          3D

 28 30  0  0  0  0  0  0  0  0999 V2000
   60.7680   28.9020   48.3310 C   0  0  0  0  0  0  0  0  0  0  0  0
   60.9650   29.9940   47.4820 C   0  0  0  0  0  0  0  0  0  0  0  0
   59.9610   30.3740   46.5850 C   0  0  0  0  0  0  0  0  0  0  0  0
   58.7570   29.6510   46.5220 C   0  0  0  0  0  0  0  0  0  0  0  0
   57.6780   30.0500   45.5920 C   0  0  0  0  0  0  0  0  0  0  0  0
   56.8470   29.1550   45.0190 N   0  0  0  0  0  0  0  0  0  0  0  0
   55.9860   29.9450   44.3440 C   0  0  0  0  0  0  0  0  0  0  0  0
   56.2690   31.2530   44.4850 N   0  0  0  0  0  0  0  0  0  0  0  0
   57.3330   31.3160   45.2640 N   0  0  0  0  0  0  0  0  0  0  0  0
   58.0060   32.5480   45.5750 C   0  0  0  0  0  0  0  0  0  0  0  0
   58.5390   33.3560   44.5540 C   0  0  0  0  0  0  0  0  0  0  0  0
   59.1750   34.5610   44.8690 C   0  0  0  0  0  0  0  0  0  0  0  0
   59.2700   34.9750   46.2000 C   0  0  0  0  0  0  0  0  0  0  0  0
   58.7240   34.1890   47.2180 C   0  0  0  0  0  0  0  0  0  0  0  0
   58.0880   32.9840   46.9060 C   0  0  0  0  0  0  0  0  0  0  0  0
   58.5600   28.5690   47.3940 C   0  0  0  0  0  0  0  0  0  0  0  0
   59.5660   28.1920   48.2900 C   0  0  0  0  0  0  0  0  0  0  0  0
   61.5603   28.6012   49.0323 H   0  0  0  0  0  0  0  0  0  0  0  0
   61.9103   30.5554   47.5189 H   0  0  0  0  0  0  0  0  0  0  0  0
   60.1142   31.2417   45.9265 H   0  0  0  0  0  0  0  0  0  0  0  0
   55.1463   29.5624   43.7452 H   0  0  0  0  0  0  0  0  0  0  0  0
   58.4552   33.0388   43.5041 H   0  0  0  0  0  0  0  0  0  0  0  0
   59.6008   35.1834   44.0682 H   0  0  0  0  0  0  0  0  0  0  0  0
   59.7751   35.9205   46.4467 H   0  0  0  0  0  0  0  0  0  0  0  0
   58.7947   34.5185   48.2651 H   0  0  0  0  0  0  0  0  0  0  0  0
   57.6490   32.3737   47.7091 H   0  0  0  0  0  0  0  0  0  0  0  0
   57.6100   28.0148   47.3728 H   0  0  0  0  0  0  0  0  0  0  0  0
   59.4102   27.3357   48.9627 H   0  0  0  0  0  0  0  0  0  0  0  0
  1  2  2  0
  2  3  1  0
  3  4  2  0
  4  5  1  0
  5  6  2  0
  6  7  1  0
  7  8  2  0
  8  9  1  0
  9 10  1  0
 10 11  2  0
 11 12  1  0
 12 13  2  0
 13 14  1  0
 14 15  2  0
  4 16  1  0
 16 17  2  0
 17  1  1  0
  9  5  1  0
 15 10  1  0
  1 18  1  0
  2 19  1  0
  3 20  1  0
  7 21  1  0
 11 22  1  0
 12 23  1  0
 13 24  1  0
 14 25  1  0
 15 26  1  0
 16 27  1  0
 17 28  1  0
M  END
>  <UniqueID>  (38) 
37

>  <SMILES>  (38) 
c1ccc(-c2ncnn2-c2ccccc2)cc1

>  <Energy>  (38) 
72.64655498975112

>  <Genealogy>  (38) 
c1ccc(-c2ncnn2-c2ccccc2)cc1 (3D coordinates assigned)
c1ccc(-c2ncnn2-c2ccccc2)cc1 (optimized conformer: 72.64655498975112 kcal/mol)

>  <smiles>  (38) 
c1ccc(-c2ncnn2-c2ccccc2)cc1

>  <score_type>  (38) 
oracle

>  <origin>  (38) 
adg

>  <m_score__min__energy>  (38) 
-6.29

>  <m_primary>  (38) 
energy

$$$$
38:0
     RDKit          3D

 31 33  0  0  0  0  0  0  0  0999 V2000
   60.4050   26.9010   48.3170 C   0  0  0  0  0  0  0  0  0  0  0  0
   60.4320   28.1830   49.0830 C   0  0  0  0  0  0  0  0  0  0  0  0
   60.1800   29.3510   48.2410 N   0  0  0  0  0  0  0  0  0  0  0  0
   61.0040   30.4740   48.4390 C   0  0  0  0  0  0  0  0  0  0  0  0
   61.9030   30.4170   49.3180 O   0  0  0  0  0  0  0  0  0  0  0  0
   60.8810   31.7150   47.6800 C   0  0  0  0  0  0  0  0  0  0  0  0
   61.7640   32.7210   47.9850 C   0  0  0  0  0  0  0  0  0  0  0  0
   61.7880   33.9540   47.3700 C   0  0  0  0  0  0  0  0  0  0  0  0
   60.8240   34.1400   46.3710 C   0  0  0  0  0  0  0  0  0  0  0  0
   59.9330   33.1250   46.0630 C   0  0  0  0  0  0  0  0  0  0  0  0
   58.6200   33.0170   44.8900 S   0  0  0  0  0  0  0  0  0  0  0  0
   58.2010   31.2390   45.4170 C   0  0  0  0  0  0  0  0  0  0  0  0
   57.0870   30.5590   44.7260 C   0  0  0  0  0  0  0  0  0  0  0  0
   56.9960   30.4510   43.3440 C   0  0  0  0  0  0  0  0  0  0  0  0
   55.8330   29.7600   43.1140 C   0  0  0  0  0  0  0  0  0  0  0  0
   55.2560   29.4690   44.2940 N   0  0  0  0  0  0  0  0  0  0  0  0
   56.0270   29.9590   45.2480 N   0  0  0  0  0  0  0  0  0  0  0  0
   59.0010   31.0870   46.2460 N   0  0  0  0  0  0  0  0  0  0  0  0
   59.9260   31.9020   46.6890 C   0  0  0  0  0  0  0  0  0  0  0  0
   60.3872   26.0546   49.0193 H   0  0  0  0  0  0  0  0  0  0  0  0
   59.5060   26.8711   47.6838 H   0  0  0  0  0  0  0  0  0  0  0  0
   61.3019   26.8332   47.6838 H   0  0  0  0  0  0  0  0  0  0  0  0
   59.6604   28.1410   49.8659 H   0  0  0  0  0  0  0  0  0  0  0  0
   61.4401   28.2931   49.5092 H   0  0  0  0  0  0  0  0  0  0  0  0
   59.4290   29.3770   47.5180 H   0  0  0  0  0  0  0  0  0  0  0  0
   62.5043   32.5294   48.7758 H   0  0  0  0  0  0  0  0  0  0  0  0
   62.5119   34.7356   47.6439 H   0  0  0  0  0  0  0  0  0  0  0  0
   60.7743   35.0958   45.8289 H   0  0  0  0  0  0  0  0  0  0  0  0
   57.7038   30.8364   42.5953 H   0  0  0  0  0  0  0  0  0  0  0  0
   55.4365   29.4880   42.1247 H   0  0  0  0  0  0  0  0  0  0  0  0
   54.3590   28.9490   44.4630 H   0  0  0  0  0  0  0  0  0  0  0  0
  1  2  1  0
  2  3  1  0
  3  4  1  0
  4  5  2  0
  4  6  1  0
  6  7  2  0
  7  8  1  0
  8  9  2  0
  9 10  1  0
 10 11  1  0
 11 12  1  0
 12 13  1  0
 13 14  1  0
 14 15  2  0
 15 16  1  0
 16 17  1  0
 12 18  2  0
 18 19  1  0
 19  6  1  0
 19 10  2  0
 17 13  2  0
  1 20  1  0
  1 21  1  0
  1 22  1  0
  2 23  1  0
  2 24  1  0
  3 25  1  0
  7 26  1  0
  8 27  1  0
  9 28  1  0
 14 29  1  0
 15 30  1  0
 16 31  1  0
M  END
>  <smiles>  (39) 
CCNC(=O)c1cccc2sc(-c3cc[nH]n3)nc12

>  <score_type>  (39) 
oracle

>  <origin>  (39) 
adg

>  <m_score__min__energy>  (39) 
-6.6799999999999997

>  <m_primary>  (39) 
energy

$$$$
39:0
     RDKit          3D

 59 62  0  0  0  0  0  0  0  0999 V2000
   57.8100   32.3390   41.5690 C   0  0  0  0  0  0  0  0  0  0  0  0
   58.1140   31.8820   42.9660 C   0  0  0  0  0  0  0  0  0  0  0  0
   57.0530   31.6880   43.8230 N   0  0  0  0  0  0  0  0  0  0  0  0
   56.4040   30.3860   43.7390 C   0  0  0  0  0  0  0  0  0  0  0  0
   57.1660   29.4030   44.5590 C   0  0  0  0  0  0  0  0  0  0  0  0
   58.3110   30.0660   45.2090 N   0  0  0  0  0  0  0  0  0  0  0  0
   58.7220   29.7280   46.5240 C   0  0  0  0  0  0  0  0  0  0  0  0
   58.0460   28.8240   47.1040 O   0  0  0  0  0  0  0  0  0  0  0  0
   59.8520   30.3680   47.1870 C   0  0  0  0  0  0  0  0  0  0  0  0
   60.7670   31.1620   46.5430 C   0  0  0  0  0  0  0  0  0  0  0  0
   61.8240   31.7600   47.1830 C   0  0  0  0  0  0  0  0  0  0  0  0
   62.0020   31.5720   48.5380 C   0  0  0  0  0  0  0  0  0  0  0  0
   63.1260   32.1960   49.2640 C   0  0  0  0  0  0  0  0  0  0  0  0
   62.9570   32.9740   50.3550 N   0  0  0  0  0  0  0  0  0  0  0  0
   64.1880   33.3580   50.7380 C   0  0  0  0  0  0  0  0  0  0  0  0
   64.5220   34.1670   51.8120 C   0  0  0  0  0  0  0  0  0  0  0  0
   65.8810   34.4160   51.9930 C   0  0  0  0  0  0  0  0  0  0  0  0
   66.8300   33.8990   51.1680 C   0  0  0  0  0  0  0  0  0  0  0  0
   68.2590   34.2140   51.4310 C   0  0  0  0  0  0  0  0  0  0  0  0
   68.3470   35.3960   52.1420 F   0  0  0  0  0  0  0  0  0  0  0  0
   68.8830   34.3810   50.2100 F   0  0  0  0  0  0  0  0  0  0  0  0
   68.8490   33.1620   52.1130 F   0  0  0  0  0  0  0  0  0  0  0  0
   66.4590   33.0920   50.1000 C   0  0  0  0  0  0  0  0  0  0  0  0
   65.1350   32.8220   49.8850 C   0  0  0  0  0  0  0  0  0  0  0  0
   64.4250   32.1080   48.9860 N   0  0  0  0  0  0  0  0  0  0  0  0
   61.0900   30.7790   49.1870 C   0  0  0  0  0  0  0  0  0  0  0  0
   60.0190   30.1740   48.5400 C   0  0  0  0  0  0  0  0  0  0  0  0
   56.7790   32.3770   45.0010 C   0  0  0  0  0  0  0  0  0  0  0  0
   57.7960   33.2530   45.5640 C   0  0  0  0  0  0  0  0  0  0  0  0
   58.5560   34.1830   44.9040 C   0  0  0  0  0  0  0  0  0  0  0  0
   59.4840   34.9800   45.5210 C   0  0  0  0  0  0  0  0  0  0  0  0
   59.7040   34.8820   46.8760 C   0  0  0  0  0  0  0  0  0  0  0  0
   58.9580   33.9560   47.5770 C   0  0  0  0  0  0  0  0  0  0  0  0
   58.0270   33.1580   46.9460 C   0  0  0  0  0  0  0  0  0  0  0  0
   57.2011   33.2543   41.6070 H   0  0  0  0  0  0  0  0  0  0  0  0
   58.7509   32.5462   41.0381 H   0  0  0  0  0  0  0  0  0  0  0  0
   57.2552   31.5514   41.0381 H   0  0  0  0  0  0  0  0  0  0  0  0
   58.6525   30.9259   42.8887 H   0  0  0  0  0  0  0  0  0  0  0  0
   58.6823   32.7117   43.4117 H   0  0  0  0  0  0  0  0  0  0  0  0
   55.3749   30.4630   44.1198 H   0  0  0  0  0  0  0  0  0  0  0  0
   56.3806   30.0525   42.6910 H   0  0  0  0  0  0  0  0  0  0  0  0
   56.5041   28.9813   45.3297 H   0  0  0  0  0  0  0  0  0  0  0  0
   57.5380   28.6002   43.9055 H   0  0  0  0  0  0  0  0  0  0  0  0
   58.8210   30.7930   44.6860 H   0  0  0  0  0  0  0  0  0  0  0  0
   60.6479   31.3273   45.4620 H   0  0  0  0  0  0  0  0  0  0  0  0
   62.5276   32.3878   46.6166 H   0  0  0  0  0  0  0  0  0  0  0  0
   63.7587   34.5882   52.4828 H   0  0  0  0  0  0  0  0  0  0  0  0
   66.1969   35.0529   52.8324 H   0  0  0  0  0  0  0  0  0  0  0  0
   67.2250   32.6726   49.4312 H   0  0  0  0  0  0  0  0  0  0  0  0
   64.8660   31.5670   48.1900 H   0  0  0  0  0  0  0  0  0  0  0  0
   61.2118   30.6146   50.2678 H   0  0  0  0  0  0  0  0  0  0  0  0
   59.3121   29.5467   49.1029 H   0  0  0  0  0  0  0  0  0  0  0  0
   55.8901   32.9966   44.8116 H   0  0  0  0  0  0  0  0  0  0  0  0
   56.6750   31.5801   45.7521 H   0  0  0  0  0  0  0  0  0  0  0  0
   58.4131   34.2958   43.8192 H   0  0  0  0  0  0  0  0  0  0  0  0
   60.0592   35.7057   44.9272 H   0  0  0  0  0  0  0  0  0  0  0  0
   60.4462   35.5175   47.3813 H   0  0  0  0  0  0  0  0  0  0  0  0
   59.1093   33.8524   48.6616 H   0  0  0  0  0  0  0  0  0  0  0  0
   57.4524   32.4307   47.5384 H   0  0  0  0  0  0  0  0  0  0  0  0
  1  2  1  0
  2  3  1  0
  3  4  1  0
  4  5  1  0
  5  6  1  0
  6  7  1  0
  7  8  2  0
  7  9  1  0
  9 10  2  0
 10 11  1  0
 11 12  2  0
 12 13  1  0
 13 14  2  0
 14 15  1  0
 15 16  2  0
 16 17  1  0
 17 18  2  0
 18 19  1  0
 19 20  1  0
 19 21  1  0
 19 22  1  0
 18 23  1  0
 23 24  2  0
 24 25  1  0
 12 26  1  0
 26 27  2  0
  3 28  1  0
 28 29  1  0
 29 30  2  0
 30 31  1  0
 31 32  2  0
 32 33  1  0
 33 34  2  0
 27  9  1  0
 34 29  1  0
 25 13  1  0
 24 15  1  0
  1 35  1  0
  1 36  1  0
  1 37  1  0
  2 38  1  0
  2 39  1  0
  4 40  1  0
  4 41  1  0
  5 42  1  0
  5 43  1  0
  6 44  1  0
 10 45  1  0
 11 46  1  0
 16 47  1  0
 17 48  1  0
 23 49  1  0
 25 50  1  0
 26 51  1  0
 27 52  1  0
 28 53  1  0
 28 54  1  0
 30 55  1  0
 31 56  1  0
 32 57  1  0
 33 58  1  0
 34 59  1  0
M  END
>  <smiles>  (40) 
CCN(CCNC(=O)c1ccc(-c2nc3ccc(C(F)(F)F)cc3[nH]2)cc1)Cc1ccccc1

>  <score_type>  (40) 
oracle

>  <origin>  (40) 
adg

>  <m_score__min__energy>  (40) 
-8.3599999999999994

>  <m_primary>  (40) 
energy

$$$$
40:0
     RDKit          3D

 36 37  0  0  0  0  0  0  0  0999 V2000
   57.6805   23.9942   46.5425 H   0  0  0  0  0  0  0  0  0  0  0  0
   57.3140   24.9960   46.2740 C   0  0  0  0  0  0  0  0  0  0  0  0
   55.9440   25.2460   46.1470 C   0  0  0  0  0  0  0  0  0  0  0  0
   54.9500   24.1480   46.3540 C   0  0  0  0  0  0  0  0  0  0  0  0
   54.8026   23.9852   47.4319 H   0  0  0  0  0  0  0  0  0  0  0  0
   53.9923   24.4283   45.8912 H   0  0  0  0  0  0  0  0  0  0  0  0
   55.3240   23.2228   45.8912 H   0  0  0  0  0  0  0  0  0  0  0  0
   55.5170   26.4890   45.8030 N   0  0  0  0  0  0  0  0  0  0  0  0
   56.3970   27.5080   45.5960 C   0  0  0  0  0  0  0  0  0  0  0  0
   55.9890   28.6920   45.2460 N   0  0  0  0  0  0  0  0  0  0  0  0
   56.7690   29.7000   44.5780 C   0  0  0  0  0  0  0  0  0  0  0  0
   56.3480   30.9310   44.5230 N   0  0  0  0  0  0  0  0  0  0  0  0
   57.1270   32.1130   44.7810 C   0  0  0  0  0  0  0  0  0  0  0  0
   57.0560   32.7830   46.0180 C   0  0  0  0  0  0  0  0  0  0  0  0
   56.3733   32.4182   46.7996 H   0  0  0  0  0  0  0  0  0  0  0  0
   57.8480   33.9080   46.2570 C   0  0  0  0  0  0  0  0  0  0  0  0
   57.7761   34.4365   47.2191 H   0  0  0  0  0  0  0  0  0  0  0  0
   58.7300   34.3620   45.2770 C   0  0  0  0  0  0  0  0  0  0  0  0
   59.3470   35.2532   45.4645 H   0  0  0  0  0  0  0  0  0  0  0  0
   58.8320   33.6880   44.0580 C   0  0  0  0  0  0  0  0  0  0  0  0
   59.5352   34.0461   43.2917 H   0  0  0  0  0  0  0  0  0  0  0  0
   58.0380   32.5510   43.8050 C   0  0  0  0  0  0  0  0  0  0  0  0
   58.1210   31.8410   42.5970 O   0  0  0  0  0  0  0  0  0  0  0  0
   57.6900   32.3410   41.3350 C   0  0  0  0  0  0  0  0  0  0  0  0
   56.9790   33.1658   41.4908 H   0  0  0  0  0  0  0  0  0  0  0  0
   58.5593   32.7081   40.7698 H   0  0  0  0  0  0  0  0  0  0  0  0
   57.1988   31.5353   40.7698 H   0  0  0  0  0  0  0  0  0  0  0  0
   57.9310   29.3410   43.8240 N   0  0  0  0  0  0  0  0  0  0  0  0
   58.5070   30.0810   43.3640 H   0  0  0  0  0  0  0  0  0  0  0  0
   58.1660   28.3440   43.6320 H   0  0  0  0  0  0  0  0  0  0  0  0
   57.7310   27.2750   45.7130 N   0  0  0  0  0  0  0  0  0  0  0  0
   58.2070   26.0480   46.0520 C   0  0  0  0  0  0  0  0  0  0  0  0
   59.6810   25.8240   46.1630 C   0  0  0  0  0  0  0  0  0  0  0  0
   59.9664   25.7806   47.2245 H   0  0  0  0  0  0  0  0  0  0  0  0
   59.9456   24.8753   45.6731 H   0  0  0  0  0  0  0  0  0  0  0  0
   60.2155   26.6512   45.6731 H   0  0  0  0  0  0  0  0  0  0  0  0
  1  2  1  0
  2  3  1  0
  3  4  1  0
  4  5  1  0
  4  6  1  0
  4  7  1  0
  3  8  2  0
  8  9  1  0
  9 10  2  0
 10 11  1  0
 11 12  2  0
 12 13  1  0
 13 14  2  0
 14 15  1  0
 14 16  1  0
 16 17  1  0
 16 18  2  0
 18 19  1  0
 18 20  1  0
 20 21  1  0
 20 22  2  0
 22 23  1  0
 23 24  1  0
 24 25  1  0
 24 26  1  0
 24 27  1  0
 11 28  1  0
 28 29  1  0
 28 30  1  0
  9 31  1  0
 31 32  1  0
 32 33  1  0
 33 34  1  0
 33 35  1  0
 33 36  1  0
 32  2  2  0
 22 13  1  0
M  CHG  1  31  -1
M  END
>  <UniqueID>  (41) 
38

>  <SMILES>  (41) 
COc1ccccc1/N=C(/N)N=c1nc(C)cc(C)[n-]1

>  <Energy>  (41) 
43.09768394026195

>  <Genealogy>  (41) 
COc1ccccc1N=C(N)N=c1nc(C)cc(C)[n-]1 (protonated)
COc1ccccc1/N=C(/N)N=c1nc(C)cc(C)[n-]1 (cis-trans isomerization)
COc1ccccc1/N=C(/N)N=c1nc(C)cc(C)[n-]1 (3D coordinates assigned)
COc1ccccc1/N=C(/N)N=c1nc(C)cc(C)[n-]1 (optimized conformer: 43.09768394026195 kcal/mol)

>  <smiles>  (41) 
COc1ccccc1N=C(N)N=c1nc(C)cc(C)[nH]1

>  <score_type>  (41) 
oracle

>  <origin>  (41) 
adg

>  <m_score__min__energy>  (41) 
-9.1300000000000008

>  <m_primary>  (41) 
energy

$$$$
41:0
     RDKit          3D

 43 45  0  0  0  0  0  0  0  0999 V2000
   58.4960   27.3370   44.9300 C   0  0  0  0  0  0  0  0  0  0  0  0
   57.1050   27.3970   45.5400 C   0  0  0  0  0  0  0  0  0  0  0  0
   56.6610   28.7500   45.5770 O   0  0  0  0  0  0  0  0  0  0  0  0
   56.8780   29.6850   44.5530 C   0  0  0  0  0  0  0  0  0  0  0  0
   56.3810   29.5020   43.2490 C   0  0  0  0  0  0  0  0  0  0  0  0
   56.6240   30.4590   42.2590 C   0  0  0  0  0  0  0  0  0  0  0  0
   57.3520   31.6110   42.5580 C   0  0  0  0  0  0  0  0  0  0  0  0
   57.8410   31.8190   43.8540 C   0  0  0  0  0  0  0  0  0  0  0  0
   57.6180   30.8390   44.8480 C   0  0  0  0  0  0  0  0  0  0  0  0
   58.1140   31.0330   46.1450 O   0  0  0  0  0  0  0  0  0  0  0  0
   59.0690   32.0580   46.4130 C   0  0  2  0  0  0  0  0  0  0  0  0
   59.2660   32.2690   47.9210 C   0  0  0  0  0  0  0  0  0  0  0  0
   60.2160   33.3780   48.2400 N   0  0  2  0  0  0  0  0  0  0  0  0
   59.6300   34.3340   49.1980 C   0  0  0  0  0  0  0  0  0  0  0  0
   60.7700   34.0840   47.0540 C   0  0  0  0  0  0  0  0  0  0  0  0
   59.6920   34.5050   46.0310 C   0  0  0  0  0  0  0  0  0  0  0  0
   58.6630   33.3750   45.7000 C   0  0  2  0  0  0  0  0  0  0  0  0
   57.2430   33.8410   46.1300 C   0  0  0  0  0  0  0  0  0  0  0  0
   58.6430   33.0660   44.1750 C   0  0  0  0  0  0  0  0  0  0  0  0
   59.2473   27.3046   45.7328 H   0  0  0  0  0  0  0  0  0  0  0  0
   58.5849   26.4342   44.3079 H   0  0  0  0  0  0  0  0  0  0  0  0
   58.6623   28.2288   44.3079 H   0  0  0  0  0  0  0  0  0  0  0  0
   56.4111   26.7999   44.9302 H   0  0  0  0  0  0  0  0  0  0  0  0
   57.1352   26.9928   46.5626 H   0  0  0  0  0  0  0  0  0  0  0  0
   55.7981   28.6010   43.0073 H   0  0  0  0  0  0  0  0  0  0  0  0
   56.2396   30.3030   41.2402 H   0  0  0  0  0  0  0  0  0  0  0  0
   57.5426   32.3582   41.7736 H   0  0  0  0  0  0  0  0  0  0  0  0
   60.0394   31.7346   46.0084 H   0  0  0  0  0  0  0  0  0  0  0  0
   58.2904   32.5035   48.3718 H   0  0  0  0  0  0  0  0  0  0  0  0
   59.6963   31.3420   48.3279 H   0  0  0  0  0  0  0  0  0  0  0  0
   61.0380   32.9500   48.7310 H   0  0  0  0  0  0  0  0  0  0  0  0
   59.8364   33.9973   50.2247 H   0  0  0  0  0  0  0  0  0  0  0  0
   60.0740   35.3282   49.0419 H   0  0  0  0  0  0  0  0  0  0  0  0
   58.5425   34.3895   49.0419 H   0  0  0  0  0  0  0  0  0  0  0  0
   61.2943   34.9872   47.3995 H   0  0  0  0  0  0  0  0  0  0  0  0
   61.4446   33.3808   46.5436 H   0  0  0  0  0  0  0  0  0  0  0  0
   59.1427   35.3658   46.4400 H   0  0  0  0  0  0  0  0  0  0  0  0
   60.2154   34.7472   45.0943 H   0  0  0  0  0  0  0  0  0  0  0  0
   57.1807   33.8615   47.2280 H   0  0  0  0  0  0  0  0  0  0  0  0
   57.0520   34.8489   45.7331 H   0  0  0  0  0  0  0  0  0  0  0  0
   56.4919   33.1422   45.7331 H   0  0  0  0  0  0  0  0  0  0  0  0
   58.1960   33.9207   43.6461 H   0  0  0  0  0  0  0  0  0  0  0  0
   59.6801   32.8933   43.8516 H   0  0  0  0  0  0  0  0  0  0  0  0
  1  2  1  0
  2  3  1  0
  3  4  1  0
  4  5  2  0
  5  6  1  0
  6  7  2  0
  7  8  1  0
  8  9  2  0
  9 10  1  0
 10 11  1  0
 11 12  1  0
 12 13  1  0
 13 14  1  0
 13 15  1  0
 15 16  1  0
 16 17  1  0
 17 18  1  1
 17 19  1  0
  9  4  1  0
 17 11  1  0
 19  8  1  0
  1 20  1  0
  1 21  1  0
  1 22  1  0
  2 23  1  0
  2 24  1  0
  5 25  1  0
  6 26  1  0
  7 27  1  0
 11 28  1  6
 12 29  1  0
 12 30  1  0
 13 31  1  1
 14 32  1  0
 14 33  1  0
 14 34  1  0
 15 35  1  0
 15 36  1  0
 16 37  1  0
 16 38  1  0
 18 39  1  0
 18 40  1  0
 18 41  1  0
 19 42  1  0
 19 43  1  0
M  CHG  1  13   1
M  END
>  <UniqueID>  (42) 
39

>  <SMILES>  (42) 
CCOc1cccc2c1O[C@@H]1C[N@H+](C)CCC1(C)C2

>  <Energy>  (42) 
55.51506292538119

>  <Genealogy>  (42) 
CCOc1cccc2c1OC1C[NH+](C)CCC1(C)C2 (protonated)
CCOc1cccc2c1O[C@@H]1C[N@H+](C)CCC1(C)C2 (chirality)
CCOc1cccc2c1O[C@@H]1C[N@H+](C)CCC1(C)C2 (3D coordinates assigned)
CCOc1cccc2c1O[C@@H]1C[N@H+](C)CCC1(C)C2 (nonaromatic ring conformer: 55.51506292538119 kcal/mol)

>  <smiles>  (42) 
CCOc1cccc2c1OC1CN(C)CCC1(C)C2

>  <score_type>  (42) 
oracle

>  <origin>  (42) 
adg

>  <m_score__min__energy>  (42) 
-5.8099999999999996

>  <m_primary>  (42) 
energy

$$$$
42:0
     RDKit          3D

 35 36  0  0  0  0  0  0  0  0999 V2000
   56.7607   31.4983   41.1654 H   0  0  0  0  0  0  0  0  0  0  0  0
   57.0240   31.4270   42.2310 C   0  0  0  0  0  0  0  0  0  0  0  0
   57.8920   32.3610   42.7970 C   0  0  0  0  0  0  0  0  0  0  0  0
   58.3157   33.1645   42.1767 H   0  0  0  0  0  0  0  0  0  0  0  0
   58.2230   32.2760   44.1510 C   0  0  0  0  0  0  0  0  0  0  0  0
   58.9200   33.0046   44.5907 H   0  0  0  0  0  0  0  0  0  0  0  0
   57.6700   31.2640   44.9550 C   0  0  0  0  0  0  0  0  0  0  0  0
   58.0470   31.1490   46.3370 N   0  0  0  0  0  0  0  0  0  0  0  0
   57.8370   30.2340   46.7970 H   0  0  0  0  0  0  0  0  0  0  0  0
   58.6200   32.0990   47.0310 C   0  0  0  0  0  0  0  0  0  0  0  0
   59.9520   31.9450   47.5650 N   0  0  0  0  0  0  0  0  0  0  0  0
   60.5570   31.1490   47.2650 H   0  0  0  0  0  0  0  0  0  0  0  0
   60.5630   32.9640   48.4210 C   0  0  0  0  0  0  0  0  0  0  0  0
   61.4953   32.5589   48.8413 H   0  0  0  0  0  0  0  0  0  0  0  0
   59.8393   33.2153   49.2103 H   0  0  0  0  0  0  0  0  0  0  0  0
   60.8890   34.2610   47.6540 C   0  0  0  0  0  0  0  0  0  0  0  0
   61.9451   34.2173   47.3494 H   0  0  0  0  0  0  0  0  0  0  0  0
   60.6582   35.0846   48.3456 H   0  0  0  0  0  0  0  0  0  0  0  0
   60.0450   34.5210   46.3960 C   0  0  0  0  0  0  0  0  0  0  0  0
   60.2189   33.6966   45.6888 H   0  0  0  0  0  0  0  0  0  0  0  0
   60.3616   35.4982   46.0025 H   0  0  0  0  0  0  0  0  0  0  0  0
   58.5280   34.6220   46.6550 C   0  0  0  0  0  0  0  0  0  0  0  0
   58.0320   34.7974   45.6890 H   0  0  0  0  0  0  0  0  0  0  0  0
   58.4032   35.4412   47.3785 H   0  0  0  0  0  0  0  0  0  0  0  0
   57.8710   33.3840   47.3070 C   0  0  0  0  0  0  0  0  0  0  0  0
   56.8480   33.2837   46.9153 H   0  0  0  0  0  0  0  0  0  0  0  0
   57.8822   33.5423   48.3955 H   0  0  0  0  0  0  0  0  0  0  0  0
   56.8130   30.3060   44.3830 C   0  0  0  0  0  0  0  0  0  0  0  0
   56.3020   29.2870   45.2010 O   0  0  0  0  0  0  0  0  0  0  0  0
   57.0000   28.0910   45.5310 C   0  0  0  0  0  0  0  0  0  0  0  0
   57.0586   27.9906   46.6248 H   0  0  0  0  0  0  0  0  0  0  0  0
   56.4647   27.2264   45.1116 H   0  0  0  0  0  0  0  0  0  0  0  0
   58.0161   28.1318   45.1116 H   0  0  0  0  0  0  0  0  0  0  0  0
   56.4880   30.4010   43.0140 C   0  0  0  0  0  0  0  0  0  0  0  0
   55.8092   29.6639   42.5602 H   0  0  0  0  0  0  0  0  0  0  0  0
  1  2  1  0
  2  3  2  0
  3  4  1  0
  3  5  1  0
  5  6  1  0
  5  7  2  0
  7  8  1  0
  8  9  1  0
  8 10  2  0
 10 11  1  0
 11 12  1  0
 11 13  1  0
 13 14  1  0
 13 15  1  0
 13 16  1  0
 16 17  1  0
 16 18  1  0
 16 19  1  0
 19 20  1  0
 19 21  1  0
 19 22  1  0
 22 23  1  0
 22 24  1  0
 22 25  1  0
 25 26  1  0
 25 27  1  0
  7 28  1  0
 28 29  1  0
 29 30  1  0
 30 31  1  0
 30 32  1  0
 30 33  1  0
 28 34  2  0
 34 35  1  0
 34  2  1  0
 25 10  1  0
M  CHG  1   8   1
M  END
>  <UniqueID>  (43) 
40

>  <SMILES>  (43) 
COc1ccccc1/[NH+]=C1/CCCCCN1

>  <Energy>  (43) 
44.21798359573654

>  <Genealogy>  (43) 
COc1ccccc1[NH+]=C1CCCCCN1 (protonated)
COc1ccccc1/[NH+]=C1/CCCCCN1 (cis-trans isomerization)
COc1ccccc1/[NH+]=C1/CCCCCN1 (3D coordinates assigned)
COc1ccccc1/[NH+]=C1/CCCCCN1 (nonaromatic ring conformer: 44.21798359573654 kcal/mol)

>  <smiles>  (43) 
COc1ccccc1N=C1CCCCCN1

>  <score_type>  (43) 
oracle

>  <origin>  (43) 
adg

>  <m_score__min__energy>  (43) 
-2.7000000000000002

>  <m_primary>  (43) 
energy

$$$$
43:0
     RDKit          3D

 55 57  0  0  0  0  0  0  0  0999 V2000
   61.9494   29.8905   45.7205 H   0  0  0  0  0  0  0  0  0  0  0  0
   60.9830   29.7840   46.2350 C   0  0  0  0  0  0  0  0  0  0  0  0
   60.8080   30.3270   47.4690 N   0  0  0  0  0  0  0  0  0  0  0  0
   59.6290   30.2170   48.1340 C   0  0  0  0  0  0  0  0  0  0  0  0
   59.5171   30.6687   49.1307 H   0  0  0  0  0  0  0  0  0  0  0  0
   58.5570   29.5310   47.5550 C   0  0  0  0  0  0  0  0  0  0  0  0
   57.6025   29.4399   48.0942 H   0  0  0  0  0  0  0  0  0  0  0  0
   58.7060   28.9590   46.2810 C   0  0  0  0  0  0  0  0  0  0  0  0
   57.5850   28.2230   45.6450 C   0  0  0  0  0  0  0  0  0  0  0  0
   56.9110   27.1980   46.3940 N   0  0  0  0  0  0  0  0  0  0  0  0
   56.6880   27.3600   47.4000 H   0  0  0  0  0  0  0  0  0  0  0  0
   56.9360   25.8650   45.9630 C   0  0  0  0  0  0  0  0  0  0  0  0
   56.9560   24.7640   45.6090 N   0  0  0  0  0  0  0  0  0  0  0  0
   57.2140   28.5310   44.4270 N   0  0  0  0  0  0  0  0  0  0  0  0
   56.6750   27.8330   43.8660 H   0  0  0  0  0  0  0  0  0  0  0  0
   57.5700   29.7700   43.7240 C   0  0  0  0  0  0  0  0  0  0  0  0
   57.1801   29.7197   42.6967 H   0  0  0  0  0  0  0  0  0  0  0  0
   58.6662   29.8606   43.7302 H   0  0  0  0  0  0  0  0  0  0  0  0
   56.9870   31.0150   44.4160 C   0  0  0  0  0  0  0  0  0  0  0  0
   56.3537   30.6863   45.2532 H   0  0  0  0  0  0  0  0  0  0  0  0
   56.4133   31.5724   43.6609 H   0  0  0  0  0  0  0  0  0  0  0  0
   58.0680   31.9610   44.9620 C   0  0  0  0  0  0  0  0  0  0  0  0
   58.8073   32.1569   44.1714 H   0  0  0  0  0  0  0  0  0  0  0  0
   58.5480   31.4821   45.8282 H   0  0  0  0  0  0  0  0  0  0  0  0
   57.4760   33.2460   45.4010 N   0  0  0  0  0  0  0  0  0  0  0  0
   58.1390   34.4080   44.7730 C   0  0  0  0  0  0  0  0  0  0  0  0
   57.5915   35.3225   45.0448 H   0  0  0  0  0  0  0  0  0  0  0  0
   58.1361   34.2610   43.6829 H   0  0  0  0  0  0  0  0  0  0  0  0
   59.5990   34.5410   45.2400 C   0  0  0  0  0  0  0  0  0  0  0  0
   59.9309   35.5802   45.0988 H   0  0  0  0  0  0  0  0  0  0  0  0
   60.2256   33.8587   44.6469 H   0  0  0  0  0  0  0  0  0  0  0  0
   59.7200   34.1840   46.6580 N   0  0  0  0  0  0  0  0  0  0  0  0
   60.9970   33.7910   47.1990 C   0  0  0  0  0  0  0  0  0  0  0  0
   62.1480   33.8090   46.3940 C   0  0  0  0  0  0  0  0  0  0  0  0
   62.0765   34.1382   45.3469 H   0  0  0  0  0  0  0  0  0  0  0  0
   63.3830   33.4120   46.9130 C   0  0  0  0  0  0  0  0  0  0  0  0
   64.2785   33.4357   46.2746 H   0  0  0  0  0  0  0  0  0  0  0  0
   63.4860   32.9820   48.2490 C   0  0  0  0  0  0  0  0  0  0  0  0
   64.7030   32.5740   48.8170 O   0  0  0  0  0  0  0  0  0  0  0  0
   64.9540   32.5100   50.2170 C   0  0  0  0  0  0  0  0  0  0  0  0
   64.0305   32.7455   50.7662 H   0  0  0  0  0  0  0  0  0  0  0  0
   65.2908   31.4972   50.4832 H   0  0  0  0  0  0  0  0  0  0  0  0
   65.7346   33.2378   50.4832 H   0  0  0  0  0  0  0  0  0  0  0  0
   62.3380   32.9550   49.0470 C   0  0  0  0  0  0  0  0  0  0  0  0
   62.4083   32.6183   50.0918 H   0  0  0  0  0  0  0  0  0  0  0  0
   61.1020   33.3520   48.5290 C   0  0  0  0  0  0  0  0  0  0  0  0
   60.2063   33.3204   49.1667 H   0  0  0  0  0  0  0  0  0  0  0  0
   58.5180   34.2290   47.4960 C   0  0  0  0  0  0  0  0  0  0  0  0
   58.1691   35.2693   47.5732 H   0  0  0  0  0  0  0  0  0  0  0  0
   58.7646   33.8371   48.4938 H   0  0  0  0  0  0  0  0  0  0  0  0
   57.4000   33.3630   46.8820 C   0  0  0  0  0  0  0  0  0  0  0  0
   56.4304   33.8108   47.1452 H   0  0  0  0  0  0  0  0  0  0  0  0
   57.5199   32.3486   47.2901 H   0  0  0  0  0  0  0  0  0  0  0  0
   59.9380   29.0910   45.6190 C   0  0  0  0  0  0  0  0  0  0  0  0
   60.0791   28.6510   44.6208 H   0  0  0  0  0  0  0  0  0  0  0  0
  1  2  1  0
  2  3  2  0
  3  4  1  0
  4  5  1  0
  4  6  2  0
  6  7  1  0
  6  8  1  0
  8  9  1  0
  9 10  1  0
 10 11  1  0
 10 12  1  0
 12 13  3  0
  9 14  2  0
 14 15  1  0
 14 16  1  0
 16 17  1  0
 16 18  1  0
 16 19  1  0
 19 20  1  0
 19 21  1  0
 19 22  1  0
 22 23  1  0
 22 24  1  0
 22 25  1  0
 25 26  1  0
 26 27  1  0
 26 28  1  0
 26 29  1  0
 29 30  1  0
 29 31  1  0
 29 32  1  0
 32 33  1  0
 33 34  2  0
 34 35  1  0
 34 36  1  0
 36 37  1  0
 36 38  2  0
 38 39  1  0
 39 40  1  0
 40 41  1  0
 40 42  1  0
 40 43  1  0
 38 44  1  0
 44 45  1  0
 44 46  2  0
 46 47  1  0
 32 48  1  0
 48 49  1  0
 48 50  1  0
 48 51  1  0
 51 52  1  0
 51 53  1  0
  8 54  2  0
 54 55  1  0
 54  2  1  0
 51 25  1  0
 46 33  1  0
M  CHG  1  14   1
M  END
>  <UniqueID>  (44) 
41

>  <SMILES>  (44) 
COc1ccc(N2CCN(CCC/[NH+]=C(\NC#N)c3ccncc3)CC2)cc1

>  <Energy>  (44) 
74.12773268225033

>  <Genealogy>  (44) 
COc1ccc(N2CCN(CCC[NH+]=C(NC#N)c3ccncc3)CC2)cc1 (protonated)
COc1ccc(N2CCN(CCC/[NH+]=C(\NC#N)c3ccncc3)CC2)cc1 (cis-trans isomerization)
COc1ccc(N2CCN(CCC/[NH+]=C(\NC#N)c3ccncc3)CC2)cc1 (3D coordinates assigned)
COc1ccc(N2CCN(CCC/[NH+]=C(\NC#N)c3ccncc3)CC2)cc1 (nonaromatic ring conformer: 74.12773268225033 kcal/mol)

>  <smiles>  (44) 
COc1ccc(N2CCN(CCCN=C(NC#N)c3ccncc3)CC2)cc1

>  <score_type>  (44) 
oracle

>  <origin>  (44) 
adg

>  <m_score__min__energy>  (44) 
-5.9500000000000002

>  <m_primary>  (44) 
energy

$$$$
44:0
     RDKit          3D

 46 49  0  0  0  0  0  0  0  0999 V2000
   66.1050   32.7270   50.0330 C   0  0  0  0  0  0  0  0  0  0  0  0
   64.6300   32.7540   49.6220 C   0  0  0  0  0  0  0  0  0  0  0  0
   64.4490   33.1560   48.2180 N   0  0  0  0  0  0  0  0  0  0  0  0
   63.1390   32.8010   47.7270 C   0  0  0  0  0  0  0  0  0  0  0  0
   62.3000   33.7870   47.1380 C   0  0  0  0  0  0  0  0  0  0  0  0
   61.0280   33.4470   46.6410 C   0  0  0  0  0  0  0  0  0  0  0  0
   60.6280   32.1180   46.7470 C   0  0  0  0  0  0  0  0  0  0  0  0
   59.4700   31.5700   46.3420 N   0  0  0  0  0  0  0  0  0  0  0  0
   59.6340   30.2650   46.6930 C   0  0  0  0  0  0  0  0  0  0  0  0
   58.6150   29.2230   46.4560 C   0  0  0  0  0  0  0  0  0  0  0  0
   58.6190   28.0330   47.2010 C   0  0  0  0  0  0  0  0  0  0  0  0
   57.6510   27.0510   46.9730 C   0  0  0  0  0  0  0  0  0  0  0  0
   56.6520   27.2530   46.0050 C   0  0  0  0  0  0  0  0  0  0  0  0
   55.6520   26.2590   45.7360 N   0  0  0  0  0  0  0  0  0  0  0  0
   55.7510   24.8570   46.0230 C   0  0  0  0  0  0  0  0  0  0  0  0
   55.5080   24.4640   47.1940 O   0  0  0  0  0  0  0  0  0  0  0  0
   56.1910   23.8770   45.0000 C   0  0  0  0  0  0  0  0  0  0  0  0
   55.4680   23.7280   43.8030 C   0  0  0  0  0  0  0  0  0  0  0  0
   55.8820   22.8080   42.8360 C   0  0  0  0  0  0  0  0  0  0  0  0
   57.0260   22.0350   43.0470 C   0  0  0  0  0  0  0  0  0  0  0  0
   57.7590   22.1830   44.2270 C   0  0  0  0  0  0  0  0  0  0  0  0
   57.3500   23.1020   45.2000 C   0  0  0  0  0  0  0  0  0  0  0  0
   58.0720   23.2110   46.3440 F   0  0  0  0  0  0  0  0  0  0  0  0
   56.6620   28.4260   45.2450 C   0  0  0  0  0  0  0  0  0  0  0  0
   57.6310   29.4090   45.4710 C   0  0  0  0  0  0  0  0  0  0  0  0
   60.8020   30.0230   47.2690 O   0  0  0  0  0  0  0  0  0  0  0  0
   61.4250   31.1700   47.3060 C   0  0  0  0  0  0  0  0  0  0  0  0
   62.6880   31.4610   47.8080 C   0  0  0  0  0  0  0  0  0  0  0  0
   66.1799   32.7256   51.1304 H   0  0  0  0  0  0  0  0  0  0  0  0
   66.5809   31.8200   49.6319 H   0  0  0  0  0  0  0  0  0  0  0  0
   66.6137   33.6160   49.6319 H   0  0  0  0  0  0  0  0  0  0  0  0
   64.2059   31.7484   49.7596 H   0  0  0  0  0  0  0  0  0  0  0  0
   64.1182   33.4955   50.2531 H   0  0  0  0  0  0  0  0  0  0  0  0
   64.5630   34.1950   48.1520 H   0  0  0  0  0  0  0  0  0  0  0  0
   65.1970   32.7280   47.6230 H   0  0  0  0  0  0  0  0  0  0  0  0
   62.6495   34.8278   47.0701 H   0  0  0  0  0  0  0  0  0  0  0  0
   60.3734   34.2044   46.1851 H   0  0  0  0  0  0  0  0  0  0  0  0
   59.3894   27.8724   47.9696 H   0  0  0  0  0  0  0  0  0  0  0  0
   57.6710   26.1167   47.5532 H   0  0  0  0  0  0  0  0  0  0  0  0
   54.5708   24.3396   43.6268 H   0  0  0  0  0  0  0  0  0  0  0  0
   55.3055   22.6923   41.9064 H   0  0  0  0  0  0  0  0  0  0  0  0
   57.3494   21.3106   42.2850 H   0  0  0  0  0  0  0  0  0  0  0  0
   58.6608   21.5751   44.3919 H   0  0  0  0  0  0  0  0  0  0  0  0
   55.9025   28.5771   44.4637 H   0  0  0  0  0  0  0  0  0  0  0  0
   57.6224   30.3329   44.8741 H   0  0  0  0  0  0  0  0  0  0  0  0
   63.3167   30.6761   48.2537 H   0  0  0  0  0  0  0  0  0  0  0  0
  1  2  1  0
  2  3  1  0
  3  4  1  0
  4  5  2  0
  5  6  1  0
  6  7  2  0
  7  8  1  0
  8  9  2  0
  9 10  1  0
 10 11  2  0
 11 12  1  0
 12 13  2  0
 13 14  1  0
 14 15  1  0
 15 16  2  0
 15 17  1  0
 17 18  2  0
 18 19  1  0
 19 20  2  0
 20 21  1  0
 21 22  2  0
 22 23  1  0
 13 24  1  0
 24 25  2  0
  9 26  1  0
 26 27  1  0
 27 28  2  0
 28  4  1  0
 27  7  1  0
 25 10  1  0
 22 17  1  0
  1 29  1  0
  1 30  1  0
  1 31  1  0
  2 32  1  0
  2 33  1  0
  3 34  1  0
  3 35  1  0
  5 36  1  0
  6 37  1  0
 11 38  1  0
 12 39  1  0
 18 40  1  0
 19 41  1  0
 20 42  1  0
 21 43  1  0
 24 44  1  0
 25 45  1  0
 28 46  1  0
M  CHG  2   3   1  14  -1
M  END
>  <UniqueID>  (45) 
42

>  <SMILES>  (45) 
CC[NH2+]c1ccc2nc(-c3ccc([N-]C(=O)c4ccccc4F)cc3)oc2c1

>  <Energy>  (45) 
94.58770774421144

>  <Genealogy>  (45) 
CC[NH2+]c1ccc2nc(-c3ccc([N-]C(=O)c4ccccc4F)cc3)oc2c1 (protonated)
CC[NH2+]c1ccc2nc(-c3ccc([N-]C(=O)c4ccccc4F)cc3)oc2c1 (3D coordinates assigned)
CC[NH2+]c1ccc2nc(-c3ccc([N-]C(=O)c4ccccc4F)cc3)oc2c1 (optimized conformer: 94.58770774421144 kcal/mol)

>  <smiles>  (45) 
CCNc1ccc2nc(-c3ccc(NC(=O)c4ccccc4F)cc3)oc2c1

>  <score_type>  (45) 
oracle

>  <origin>  (45) 
adg

>  <m_score__min__energy>  (45) 
-8.4900000000000002

>  <m_primary>  (45) 
energy

$$$$
45:0
     RDKit          3D

 48 51  0  0  0  0  0  0  0  0999 V2000
   56.9330   31.1190   53.2180 C   0  0  0  0  0  0  0  0  0  0  0  0
   57.6950   32.2890   52.9310 O   0  0  0  0  0  0  0  0  0  0  0  0
   58.3990   32.5060   51.7360 C   0  0  0  0  0  0  0  0  0  0  0  0
   57.9460   32.0150   50.5040 C   0  0  0  0  0  0  0  0  0  0  0  0
   58.6700   32.2530   49.3340 C   0  0  0  0  0  0  0  0  0  0  0  0
   59.8770   32.9830   49.3530 C   0  0  0  0  0  0  0  0  0  0  0  0
   60.6670   33.2820   48.0400 C   0  0  1  0  0  0  0  0  0  0  0  0
   61.7940   34.2200   48.2960 N   0  0  0  0  0  0  0  0  0  0  0  0
   63.1590   33.6760   48.1720 C   0  0  0  0  0  0  0  0  0  0  0  0
   63.2970   32.2400   48.6970 C   0  0  0  0  0  0  0  0  0  0  0  0
   62.1470   31.3190   48.2450 C   0  0  0  0  0  0  0  0  0  0  0  0
   61.1770   32.0300   47.3880 N   0  0  1  0  0  0  0  0  0  0  0  0
   60.1000   31.1180   46.9430 C   0  0  0  0  0  0  0  0  0  0  0  0
   59.1700   31.8150   45.9770 C   0  0  0  0  0  0  0  0  0  0  0  0
   58.4240   31.0640   45.0560 C   0  0  0  0  0  0  0  0  0  0  0  0
   57.5490   31.7020   44.1740 C   0  0  0  0  0  0  0  0  0  0  0  0
   57.4040   33.0900   44.2110 C   0  0  0  0  0  0  0  0  0  0  0  0
   58.1280   33.8460   45.1370 C   0  0  0  0  0  0  0  0  0  0  0  0
   59.0110   33.2140   46.0310 C   0  0  0  0  0  0  0  0  0  0  0  0
   59.7480   33.9930   47.0550 C   0  0  0  0  0  0  0  0  0  0  0  0
   59.5610   35.2370   47.1590 O   0  0  0  0  0  0  0  0  0  0  0  0
   60.3170   33.4730   50.6060 C   0  0  0  0  0  0  0  0  0  0  0  0
   59.5890   33.2400   51.7880 C   0  0  0  0  0  0  0  0  0  0  0  0
   60.0160   33.7270   53.0350 O   0  0  0  0  0  0  0  0  0  0  0  0
   59.2570   34.5970   53.8680 C   0  0  0  0  0  0  0  0  0  0  0  0
   56.8509   30.9930   54.3077 H   0  0  0  0  0  0  0  0  0  0  0  0
   55.9274   31.2207   52.7839 H   0  0  0  0  0  0  0  0  0  0  0  0
   57.4326   30.2404   52.7839 H   0  0  0  0  0  0  0  0  0  0  0  0
   57.0114   31.4367   50.4583 H   0  0  0  0  0  0  0  0  0  0  0  0
   58.2913   31.8632   48.3776 H   0  0  0  0  0  0  0  0  0  0  0  0
   61.6830   34.8000   49.1610 H   0  0  0  0  0  0  0  0  0  0  0  0
   63.4427   33.6867   47.1093 H   0  0  0  0  0  0  0  0  0  0  0  0
   63.8162   34.3091   48.7862 H   0  0  0  0  0  0  0  0  0  0  0  0
   64.2457   31.8222   48.3290 H   0  0  0  0  0  0  0  0  0  0  0  0
   63.2672   32.2877   49.7956 H   0  0  0  0  0  0  0  0  0  0  0  0
   62.5687   30.4745   47.6801 H   0  0  0  0  0  0  0  0  0  0  0  0
   61.6167   30.9696   49.1432 H   0  0  0  0  0  0  0  0  0  0  0  0
   61.6920   32.2990   46.5130 H   0  0  0  0  0  0  0  0  0  0  0  0
   60.5490   30.2458   46.4453 H   0  0  0  0  0  0  0  0  0  0  0  0
   59.5208   30.8013   47.8229 H   0  0  0  0  0  0  0  0  0  0  0  0
   58.5286   29.9693   45.0286 H   0  0  0  0  0  0  0  0  0  0  0  0
   56.9726   31.1093   43.4484 H   0  0  0  0  0  0  0  0  0  0  0  0
   56.7188   33.5894   43.5102 H   0  0  0  0  0  0  0  0  0  0  0  0
   58.0069   34.9389   45.1668 H   0  0  0  0  0  0  0  0  0  0  0  0
   61.2517   34.0506   50.6573 H   0  0  0  0  0  0  0  0  0  0  0  0
   59.4604   34.3638   54.9236 H   0  0  0  0  0  0  0  0  0  0  0  0
   59.5389   35.6401   53.6620 H   0  0  0  0  0  0  0  0  0  0  0  0
   58.1853   34.4593   53.6620 H   0  0  0  0  0  0  0  0  0  0  0  0
  1  2  1  0
  2  3  1  0
  3  4  2  0
  4  5  1  0
  5  6  2  0
  7  6  1  1
  7  8  1  0
  8  9  1  0
  9 10  1  0
 10 11  1  0
 11 12  1  0
 12 13  1  0
 13 14  1  0
 14 15  2  0
 15 16  1  0
 16 17  2  0
 17 18  1  0
 18 19  2  0
 19 20  1  0
 20 21  2  0
  6 22  1  0
 22 23  2  0
 23 24  1  0
 24 25  1  0
 23  3  1  0
 12  7  1  0
 19 14  1  0
 20  7  1  0
  1 26  1  0
  1 27  1  0
  1 28  1  0
  4 29  1  0
  5 30  1  0
  8 31  1  0
  9 32  1  0
  9 33  1  0
 10 34  1  0
 10 35  1  0
 11 36  1  0
 11 37  1  0
 12 38  1  6
 13 39  1  0
 13 40  1  0
 15 41  1  0
 16 42  1  0
 17 43  1  0
 18 44  1  0
 22 45  1  0
 25 46  1  0
 25 47  1  0
 25 48  1  0
M  CHG  1  12   1
M  END
>  <UniqueID>  (46) 
43

>  <SMILES>  (46) 
COc1ccc([C@@]23NCCC[N@H+]2Cc2ccccc2C3=O)cc1OC

>  <Energy>  (46) 
77.14393360049958

>  <Genealogy>  (46) 
COc1ccc(C23NCCC[NH+]2Cc2ccccc2C3=O)cc1OC (protonated)
COc1ccc([C@@]23NCCC[N@H+]2Cc2ccccc2C3=O)cc1OC (chirality)
COc1ccc([C@@]23NCCC[N@H+]2Cc2ccccc2C3=O)cc1OC (3D coordinates assigned)
COc1ccc([C@@]23NCCC[N@H+]2Cc2ccccc2C3=O)cc1OC (nonaromatic ring conformer: 77.14393360049958 kcal/mol)

>  <smiles>  (46) 
COc1ccc(C23NCCCN2Cc2ccccc2C3=O)cc1OC

>  <score_type>  (46) 
oracle

>  <origin>  (46) 
adg

>  <m_score__min__energy>  (46) 
-5.8499999999999996

>  <m_primary>  (46) 
energy

$$$$
46:0
     RDKit          3D

 31 33  0  0  0  0  0  0  0  0999 V2000
   50.3150   32.7050   52.0080 O   0  0  0  0  0  0  0  0  0  0  0  0
   51.1310   32.1330   51.2360 C   0  0  0  0  0  0  0  0  0  0  0  0
   51.0180   32.3400   49.8660 O   0  0  0  0  0  0  0  0  0  0  0  0
   52.1910   31.2550   51.7780 C   0  0  0  0  0  0  0  0  0  0  0  0
   51.8540   30.0680   52.4500 C   0  0  0  0  0  0  0  0  0  0  0  0
   52.8520   29.2350   52.9610 C   0  0  0  0  0  0  0  0  0  0  0  0
   54.2070   29.5660   52.7970 C   0  0  0  0  0  0  0  0  0  0  0  0
   55.2420   28.7250   53.3330 N   0  0  0  0  0  0  0  0  0  0  0  0
   55.0050   27.5400   53.8760 N   0  0  0  0  0  0  0  0  0  0  0  0
   56.1470   26.9570   54.2030 N   0  0  0  0  0  0  0  0  0  0  0  0
   57.1560   27.7810   53.8650 C   0  0  0  0  0  0  0  0  0  0  0  0
   56.5840   28.9130   53.3160 C   0  0  0  0  0  0  0  0  0  0  0  0
   57.3100   30.1350   52.9070 C   0  0  0  0  0  0  0  0  0  0  0  0
   57.4610   31.1990   53.8130 C   0  0  0  0  0  0  0  0  0  0  0  0
   58.1360   32.3620   53.4280 C   0  0  0  0  0  0  0  0  0  0  0  0
   58.6530   32.4770   52.1360 C   0  0  0  0  0  0  0  0  0  0  0  0
   58.4910   31.4320   51.2220 C   0  0  0  0  0  0  0  0  0  0  0  0
   57.8170   30.2680   51.6020 C   0  0  0  0  0  0  0  0  0  0  0  0
   54.5450   30.7610   52.1480 C   0  0  0  0  0  0  0  0  0  0  0  0
   53.5480   31.5950   51.6350 C   0  0  0  0  0  0  0  0  0  0  0  0
   50.7963   29.7927   52.5746 H   0  0  0  0  0  0  0  0  0  0  0  0
   52.5750   28.3141   53.4951 H   0  0  0  0  0  0  0  0  0  0  0  0
   56.2300   26.0200   54.6540 H   0  0  0  0  0  0  0  0  0  0  0  0
   58.2308   27.5899   54.0000 H   0  0  0  0  0  0  0  0  0  0  0  0
   57.0467   31.1167   54.8287 H   0  0  0  0  0  0  0  0  0  0  0  0
   58.2598   33.1875   54.1443 H   0  0  0  0  0  0  0  0  0  0  0  0
   59.1881   33.3905   51.8373 H   0  0  0  0  0  0  0  0  0  0  0  0
   58.8942   31.5257   50.2029 H   0  0  0  0  0  0  0  0  0  0  0  0
   57.6825   29.4520   50.8768 H   0  0  0  0  0  0  0  0  0  0  0  0
   55.6025   31.0446   52.0416 H   0  0  0  0  0  0  0  0  0  0  0  0
   53.8266   32.5239   51.1157 H   0  0  0  0  0  0  0  0  0  0  0  0
  1  2  2  0
  2  3  1  0
  2  4  1  0
  4  5  2  0
  5  6  1  0
  6  7  2  0
  7  8  1  0
  8  9  1  0
  9 10  2  0
 10 11  1  0
 11 12  2  0
 12 13  1  0
 13 14  2  0
 14 15  1  0
 15 16  2  0
 16 17  1  0
 17 18  2  0
  7 19  1  0
 19 20  2  0
 20  4  1  0
 12  8  1  0
 18 13  1  0
  5 21  1  0
  6 22  1  0
 10 23  1  0
 11 24  1  0
 14 25  1  0
 15 26  1  0
 16 27  1  0
 17 28  1  0
 18 29  1  0
 19 30  1  0
 20 31  1  0
M  CHG  2   3  -1  10   1
M  END
>  <UniqueID>  (47) 
44

>  <SMILES>  (47) 
O=C([O-])c1ccc(-n2n[nH+]cc2-c2ccccc2)cc1

>  <Energy>  (47) 
78.92983499285484

>  <Genealogy>  (47) 
O=C([O-])c1ccc(-n2n[nH+]cc2-c2ccccc2)cc1 (protonated)
O=C([O-])c1ccc(-n2n[nH+]cc2-c2ccccc2)cc1 (3D coordinates assigned)
O=C([O-])c1ccc(-n2n[nH+]cc2-c2ccccc2)cc1 (optimized conformer: 78.92983499285484 kcal/mol)

>  <smiles>  (47) 
O=C(O)c1ccc(-n2nncc2-c2ccccc2)cc1

>  <score_type>  (47) 
oracle

>  <origin>  (47) 
adg

>  <m_score__min__energy>  (47) 
-8.75

>  <m_primary>  (47) 
energy

$$$$
47:0
     RDKit          3D

 27 28  0  0  0  0  0  0  0  0999 V2000
   59.9700   36.4530   46.3290 O   0  0  0  0  0  0  0  0  0  0  0  0
   59.5060   35.2900   46.1910 C   0  0  0  0  0  0  0  0  0  0  0  0
   59.2090   34.8170   44.9530 N   0  0  0  0  0  0  0  0  0  0  0  0
   58.7070   33.5630   44.7800 C   0  0  0  0  0  0  0  0  0  0  0  0
   58.4630   33.1570   43.6100 O   0  0  0  0  0  0  0  0  0  0  0  0
   58.4760   32.7510   45.8660 N   0  0  0  0  0  0  0  0  0  0  0  0
   57.9500   31.3790   45.7170 C   0  0  2  0  0  0  0  0  0  0  0  0
   59.0450   30.4080   45.3040 C   0  0  0  0  0  0  0  0  0  0  0  0
   58.2940   29.4010   44.4910 C   0  0  0  0  0  0  0  0  0  0  0  0
   57.1270   30.2140   43.9370 C   0  0  1  0  0  0  0  0  0  0  0  0
   55.8380   29.3900   43.8350 C   0  0  0  0  0  0  0  0  0  0  0  0
   55.1390   29.4060   45.0500 O   0  0  0  0  0  0  0  0  0  0  0  0
   56.9100   31.3390   44.7630 O   0  0  0  0  0  0  0  0  0  0  0  0
   58.7850   33.2040   47.1190 C   0  0  0  0  0  0  0  0  0  0  0  0
   59.3000   34.4840   47.3070 C   0  0  0  0  0  0  0  0  0  0  0  0
   59.5960   34.9290   48.5530 F   0  0  0  0  0  0  0  0  0  0  0  0
   59.3740   35.4250   44.1180 H   0  0  0  0  0  0  0  0  0  0  0  0
   57.5563   31.0752   46.6982 H   0  0  0  0  0  0  0  0  0  0  0  0
   59.8157   30.9107   44.7013 H   0  0  0  0  0  0  0  0  0  0  0  0
   59.5863   29.9692   46.1551 H   0  0  0  0  0  0  0  0  0  0  0  0
   58.9194   29.0019   43.6789 H   0  0  0  0  0  0  0  0  0  0  0  0
   57.9754   28.5231   45.0722 H   0  0  0  0  0  0  0  0  0  0  0  0
   57.3928   30.5305   42.9176 H   0  0  0  0  0  0  0  0  0  0  0  0
   55.1998   29.8150   43.0463 H   0  0  0  0  0  0  0  0  0  0  0  0
   56.1028   28.3498   43.5945 H   0  0  0  0  0  0  0  0  0  0  0  0
   55.5810   30.0870   45.6220 H   0  0  0  0  0  0  0  0  0  0  0  0
   58.6248   32.5495   47.9884 H   0  0  0  0  0  0  0  0  0  0  0  0
  1  2  2  0
  2  3  1  0
  3  4  1  0
  4  5  2  0
  4  6  1  0
  6  7  1  0
  7  8  1  0
  8  9  1  0
  9 10  1  0
 10 11  1  0
 11 12  1  0
 10 13  1  0
  6 14  1  0
 14 15  2  0
 15 16  1  0
 15  2  1  0
 13  7  1  0
  3 17  1  0
  7 18  1  1
  8 19  1  0
  8 20  1  0
  9 21  1  0
  9 22  1  0
 10 23  1  6
 11 24  1  0
 11 25  1  0
 12 26  1  0
 14 27  1  0
M  END
>  <UniqueID>  (48) 
45

>  <SMILES>  (48) 
O=c1[nH]c(=O)n([C@@H]2CC[C@@H](CO)O2)cc1F

>  <Energy>  (48) 
28.858753070905344

>  <Genealogy>  (48) 
O=c1[nH]c(=O)n([C@@H]2CC[C@@H](CO)O2)cc1F (chirality)
O=c1[nH]c(=O)n([C@@H]2CC[C@@H](CO)O2)cc1F (3D coordinates assigned)
O=c1[nH]c(=O)n([C@@H]2CC[C@@H](CO)O2)cc1F (nonaromatic ring conformer: 28.858753070905344 kcal/mol)

>  <smiles>  (48) 
O=c1[nH]c(=O)n(C2CCC(CO)O2)cc1F

>  <score_type>  (48) 
oracle

>  <origin>  (48) 
adg

>  <m_score__min__energy>  (48) 
-6.3600000000000003

>  <m_primary>  (48) 
energy

$$$$
48:0
     RDKit          3D

 66 70  0  0  0  0  0  0  0  0999 V2000
   59.5940   33.6320   52.2530 C   0  0  0  0  0  0  0  0  0  0  0  0
   60.4960   33.8350   51.1670 O   0  0  0  0  0  0  0  0  0  0  0  0
   60.1570   33.6690   49.8150 C   0  0  0  0  0  0  0  0  0  0  0  0
   61.0770   34.0820   48.8440 C   0  0  0  0  0  0  0  0  0  0  0  0
   60.7910   33.9300   47.4840 C   0  0  0  0  0  0  0  0  0  0  0  0
   59.5730   33.3700   47.0760 C   0  0  0  0  0  0  0  0  0  0  0  0
   59.3140   33.1140   45.6140 C   0  0  0  0  0  0  0  0  0  0  0  0
   58.3070   32.0610   45.4670 N   0  0  0  0  0  0  0  0  0  0  0  0
   57.0410   32.2540   45.0410 C   0  0  0  0  0  0  0  0  0  0  0  0
   56.4470   31.1190   44.6100 N   0  0  0  0  0  0  0  0  0  0  0  0
   57.3860   30.1700   44.7910 C   0  0  0  0  0  0  0  0  0  0  0  0
   58.5130   30.7360   45.3300 C   0  0  0  0  0  0  0  0  0  0  0  0
   59.7860   30.0770   45.4550 N   0  0  0  0  0  0  0  0  0  0  0  0
   60.7840   30.6370   46.3750 C   0  0  0  0  0  0  0  0  0  0  0  0
   60.4680   30.2390   47.7920 C   0  0  0  0  0  0  0  0  0  0  0  0
   61.4290   30.4120   48.8020 C   0  0  0  0  0  0  0  0  0  0  0  0
   61.1340   30.0500   50.1210 C   0  0  0  0  0  0  0  0  0  0  0  0
   59.8780   29.5250   50.4420 C   0  0  0  0  0  0  0  0  0  0  0  0
   58.9100   29.3680   49.4450 C   0  0  0  0  0  0  0  0  0  0  0  0
   59.2020   29.7260   48.1240 C   0  0  0  0  0  0  0  0  0  0  0  0
   60.0150   28.7230   44.9160 C   0  0  0  0  0  0  0  0  0  0  0  0
   59.1790   27.6330   45.6060 C   0  0  0  0  0  0  0  0  0  0  0  0
   57.7450   27.7750   45.2610 N   0  0  0  0  0  0  0  0  0  0  0  0
   56.7490   27.0210   45.9810 C   0  0  0  0  0  0  0  0  0  0  0  0
   55.5340   27.0880   45.6460 O   0  0  0  0  0  0  0  0  0  0  0  0
   57.1290   26.2260   47.0720 O   0  0  0  0  0  0  0  0  0  0  0  0
   57.2430   24.8060   47.0050 C   0  0  0  0  0  0  0  0  0  0  0  0
   56.6310   24.2930   45.7310 C   0  0  0  0  0  0  0  0  0  0  0  0
   57.4320   24.1210   44.5880 C   0  0  0  0  0  0  0  0  0  0  0  0
   56.8680   23.6510   43.3950 C   0  0  0  0  0  0  0  0  0  0  0  0
   55.5020   23.3620   43.3340 C   0  0  0  0  0  0  0  0  0  0  0  0
   54.6970   23.5460   44.4630 C   0  0  0  0  0  0  0  0  0  0  0  0
   55.2560   24.0120   45.6570 C   0  0  0  0  0  0  0  0  0  0  0  0
   57.2870   28.7700   44.2710 C   0  0  0  0  0  0  0  0  0  0  0  0
   58.6440   32.9620   48.0480 C   0  0  0  0  0  0  0  0  0  0  0  0
   58.9340   33.1050   49.4060 C   0  0  0  0  0  0  0  0  0  0  0  0
   60.1325   33.7532   53.2045 H   0  0  0  0  0  0  0  0  0  0  0  0
   58.7797   34.3693   52.1960 H   0  0  0  0  0  0  0  0  0  0  0  0
   59.1741   32.6169   52.1960 H   0  0  0  0  0  0  0  0  0  0  0  0
   62.0328   34.5298   49.1537 H   0  0  0  0  0  0  0  0  0  0  0  0
   61.5254   34.2515   46.7308 H   0  0  0  0  0  0  0  0  0  0  0  0
   58.9491   34.0373   45.1404 H   0  0  0  0  0  0  0  0  0  0  0  0
   60.2483   32.7940   45.1296 H   0  0  0  0  0  0  0  0  0  0  0  0
   56.5433   33.2350   45.0442 H   0  0  0  0  0  0  0  0  0  0  0  0
   61.7804   30.2572   46.1048 H   0  0  0  0  0  0  0  0  0  0  0  0
   60.7661   31.7342   46.2985 H   0  0  0  0  0  0  0  0  0  0  0  0
   62.4150   30.8327   48.5555 H   0  0  0  0  0  0  0  0  0  0  0  0
   61.8920   30.1787   50.9077 H   0  0  0  0  0  0  0  0  0  0  0  0
   59.6516   29.2356   51.4788 H   0  0  0  0  0  0  0  0  0  0  0  0
   57.9193   28.9632   49.6991 H   0  0  0  0  0  0  0  0  0  0  0  0
   58.4377   29.6055   47.3422 H   0  0  0  0  0  0  0  0  0  0  0  0
   59.7627   28.7283   43.8453 H   0  0  0  0  0  0  0  0  0  0  0  0
   61.0723   28.4797   45.0972 H   0  0  0  0  0  0  0  0  0  0  0  0
   59.5331   26.6446   45.2778 H   0  0  0  0  0  0  0  0  0  0  0  0
   59.2924   27.7371   46.6952 H   0  0  0  0  0  0  0  0  0  0  0  0
   58.3062   24.5254   47.0355 H   0  0  0  0  0  0  0  0  0  0  0  0
   56.7119   24.3636   47.8607 H   0  0  0  0  0  0  0  0  0  0  0  0
   58.5056   24.3565   44.6309 H   0  0  0  0  0  0  0  0  0  0  0  0
   57.5003   23.5094   42.5061 H   0  0  0  0  0  0  0  0  0  0  0  0
   55.0599   22.9898   42.3981 H   0  0  0  0  0  0  0  0  0  0  0  0
   53.6210   23.3235   44.4114 H   0  0  0  0  0  0  0  0  0  0  0  0
   54.6178   24.1590   46.5408 H   0  0  0  0  0  0  0  0  0  0  0  0
   57.9081   28.6828   43.3673 H   0  0  0  0  0  0  0  0  0  0  0  0
   56.2290   28.5652   44.0502 H   0  0  0  0  0  0  0  0  0  0  0  0
   57.6826   32.5274   47.7370 H   0  0  0  0  0  0  0  0  0  0  0  0
   58.2036   32.7755   50.1596 H   0  0  0  0  0  0  0  0  0  0  0  0
  1  2  1  0
  2  3  1  0
  3  4  2  0
  4  5  1  0
  5  6  2  0
  6  7  1  0
  7  8  1  0
  8  9  1  0
  9 10  2  0
 10 11  1  0
 11 12  2  0
 12 13  1  0
 13 14  1  0
 14 15  1  0
 15 16  2  0
 16 17  1  0
 17 18  2  0
 18 19  1  0
 19 20  2  0
 13 21  1  0
 21 22  1  0
 22 23  1  0
 23 24  1  0
 24 25  2  0
 24 26  1  0
 26 27  1  0
 27 28  1  0
 28 29  2  0
 29 30  1  0
 30 31  2  0
 31 32  1  0
 32 33  2  0
 23 34  1  0
  6 35  1  0
 35 36  2  0
 36  3  1  0
 12  8  1  0
 20 15  1  0
 33 28  1  0
 34 11  1  0
  1 37  1  0
  1 38  1  0
  1 39  1  0
  4 40  1  0
  5 41  1  0
  7 42  1  0
  7 43  1  0
  9 44  1  0
 14 45  1  0
 14 46  1  0
 16 47  1  0
 17 48  1  0
 18 49  1  0
 19 50  1  0
 20 51  1  0
 21 52  1  0
 21 53  1  0
 22 54  1  0
 22 55  1  0
 27 56  1  0
 27 57  1  0
 29 58  1  0
 30 59  1  0
 31 60  1  0
 32 61  1  0
 33 62  1  0
 34 63  1  0
 34 64  1  0
 35 65  1  0
 36 66  1  0
M  END
>  <UniqueID>  (49) 
46

>  <SMILES>  (49) 
COc1ccc(Cn2cnc3c2N(Cc2ccccc2)CCN(C(=O)OCc2ccccc2)C3)cc1

>  <Energy>  (49) 
104.91927113537842

>  <Genealogy>  (49) 
COc1ccc(Cn2cnc3c2N(Cc2ccccc2)CCN(C(=O)OCc2ccccc2)C3)cc1 (3D coordinates assigned)
COc1ccc(Cn2cnc3c2N(Cc2ccccc2)CCN(C(=O)OCc2ccccc2)C3)cc1 (nonaromatic ring conformer: 104.91927113537842 kcal/mol)

>  <smiles>  (49) 
COc1ccc(Cn2cnc3c2N(Cc2ccccc2)CCN(C(=O)OCc2ccccc2)C3)cc1

>  <score_type>  (49) 
oracle

>  <origin>  (49) 
adg

>  <m_score__min__energy>  (49) 
-6.8099999999999996

>  <m_primary>  (49) 
energy

$$$$
