0:0
     RDKit          3D

 57 58  0  0  0  0  0  0  0  0999 V2000
   56.2740   29.3410   42.6500 C   0  0  0  0  0  0  0  0  0  0  0  0
   56.3170   30.4720   43.6060 C   0  0  0  0  0  0  0  0  0  0  0  0
   57.5510   31.3250   43.4690 C   0  0  0  0  0  0  0  0  0  0  0  0
   58.3580   31.4060   44.6510 N   0  0  0  0  0  0  0  0  0  0  0  0
   58.7030   30.2380   45.2440 C   0  0  0  0  0  0  0  0  0  0  0  0
   59.4500   30.1720   46.3950 C   0  0  0  0  0  0  0  0  0  0  0  0
   59.8990   31.3140   47.0210 C   0  0  0  0  0  0  0  0  0  0  0  0
   60.6700   31.2440   48.2110 N   0  0  0  0  0  0  0  0  0  0  0  0
   60.8250   29.9260   48.8130 C   0  0  0  0  0  0  0  0  0  0  0  0
   60.4500   30.0370   50.2670 C   0  0  0  0  0  0  0  0  0  0  0  0
   60.8260   31.2770   50.6920 O   0  0  0  0  0  0  0  0  0  0  0  0
   59.7920   32.2080   50.8240 C   0  0  0  0  0  0  0  0  0  0  0  0
   60.2070   33.6130   50.5780 C   0  0  0  0  0  0  0  0  0  0  0  0
   61.1780   33.6720   49.5990 O   0  0  0  0  0  0  0  0  0  0  0  0
   62.3800   34.2010   49.9750 C   0  0  0  0  0  0  0  0  0  0  0  0
   63.5570   33.5110   49.3000 C   0  0  0  0  0  0  0  0  0  0  0  0
   63.2830   32.1720   48.8820 N   0  0  0  0  0  0  0  0  0  0  0  0
   63.3670   32.0500   47.4620 C   0  0  0  0  0  0  0  0  0  0  0  0
   63.3730   33.4640   46.8880 C   0  0  0  0  0  0  0  0  0  0  0  0
   59.5470   32.5160   46.4140 C   0  0  0  0  0  0  0  0  0  0  0  0
   59.9600   33.7000   46.9710 C   0  0  0  0  0  0  0  0  0  0  0  0
   59.6440   34.9390   46.4000 C   0  0  0  0  0  0  0  0  0  0  0  0
   58.9030   34.9200   45.2610 C   0  0  0  0  0  0  0  0  0  0  0  0
   58.4660   33.7390   44.6710 C   0  0  0  0  0  0  0  0  0  0  0  0
   58.7810   32.5250   45.2390 C   0  0  0  0  0  0  0  0  0  0  0  0
   56.2379   28.3924   43.2057 H   0  0  0  0  0  0  0  0  0  0  0  0
   55.3786   29.4296   42.0173 H   0  0  0  0  0  0  0  0  0  0  0  0
   57.1736   29.3613   42.0173 H   0  0  0  0  0  0  0  0  0  0  0  0
   55.4343   31.1060   43.4359 H   0  0  0  0  0  0  0  0  0  0  0  0
   56.3309   30.0412   44.6180 H   0  0  0  0  0  0  0  0  0  0  0  0
   58.1686   30.9066   42.6606 H   0  0  0  0  0  0  0  0  0  0  0  0
   57.2006   32.3469   43.2617 H   0  0  0  0  0  0  0  0  0  0  0  0
   58.3690   29.2974   44.7818 H   0  0  0  0  0  0  0  0  0  0  0  0
   59.6941   29.1892   46.8246 H   0  0  0  0  0  0  0  0  0  0  0  0
   61.1210   32.0480   48.6700 H   0  0  0  0  0  0  0  0  0  0  0  0
   60.1639   29.2048   48.3101 H   0  0  0  0  0  0  0  0  0  0  0  0
   61.8627   29.5760   48.7095 H   0  0  0  0  0  0  0  0  0  0  0  0
   59.3635   29.9124   50.3856 H   0  0  0  0  0  0  0  0  0  0  0  0
   60.9507   29.2558   50.8578 H   0  0  0  0  0  0  0  0  0  0  0  0
   59.0009   31.9503   50.1044 H   0  0  0  0  0  0  0  0  0  0  0  0
   59.4494   32.1562   51.8680 H   0  0  0  0  0  0  0  0  0  0  0  0
   59.3323   34.1962   50.2542 H   0  0  0  0  0  0  0  0  0  0  0  0
   60.6194   34.0275   51.5097 H   0  0  0  0  0  0  0  0  0  0  0  0
   62.3953   35.2677   49.7069 H   0  0  0  0  0  0  0  0  0  0  0  0
   62.4846   34.0553   51.0603 H   0  0  0  0  0  0  0  0  0  0  0  0
   63.8413   34.0986   48.4146 H   0  0  0  0  0  0  0  0  0  0  0  0
   64.3632   33.4532   50.0462 H   0  0  0  0  0  0  0  0  0  0  0  0
   62.3590   31.8860   49.2780 H   0  0  0  0  0  0  0  0  0  0  0  0
   64.2929   31.5258   47.1827 H   0  0  0  0  0  0  0  0  0  0  0  0
   62.5178   31.4721   47.0685 H   0  0  0  0  0  0  0  0  0  0  0  0
   63.3761   34.1938   47.7110 H   0  0  0  0  0  0  0  0  0  0  0  0
   64.2718   33.6049   46.2696 H   0  0  0  0  0  0  0  0  0  0  0  0
   62.4755   33.6125   46.2696 H   0  0  0  0  0  0  0  0  0  0  0  0
   60.5575   33.6752   47.8942 H   0  0  0  0  0  0  0  0  0  0  0  0
   59.9800   35.8837   46.8524 H   0  0  0  0  0  0  0  0  0  0  0  0
   58.6384   35.8767   44.7870 H   0  0  0  0  0  0  0  0  0  0  0  0
   57.8675   33.7748   43.7488 H   0  0  0  0  0  0  0  0  0  0  0  0
  1  2  1  0
  2  3  1  0
  3  4  1  0
  4  5  2  0
  5  6  1  0
  6  7  2  0
  7  8  1  0
  8  9  1  0
  9 10  1  0
 10 11  1  0
 11 12  1  0
 12 13  1  0
 13 14  1  0
 14 15  1  0
 15 16  1  0
 16 17  1  0
 17 18  1  0
 18 19  1  0
  7 20  1  0
 20 21  2  0
 21 22  1  0
 22 23  2  0
 23 24  1  0
 24 25  2  0
 25  4  1  0
 25 20  1  0
  1 26  1  0
  1 27  1  0
  1 28  1  0
  2 29  1  0
  2 30  1  0
  3 31  1  0
  3 32  1  0
  5 33  1  0
  6 34  1  0
  8 35  1  0
  9 36  1  0
  9 37  1  0
 10 38  1  0
 10 39  1  0
 12 40  1  0
 12 41  1  0
 13 42  1  0
 13 43  1  0
 15 44  1  0
 15 45  1  0
 16 46  1  0
 16 47  1  0
 17 48  1  0
 18 49  1  0
 18 50  1  0
 19 51  1  0
 19 52  1  0
 19 53  1  0
 21 54  1  0
 22 55  1  0
 23 56  1  0
 24 57  1  0
M  CHG  1   4   1
M  END
>  <smiles>  (1) 
CCC[n+]1ccc(NCCOCCOCCNCC)c2ccccc21

>  <score_type>  (1) 
oracle

>  <origin>  (1) 
adg

>  <m_score__min__energy>  (1) 
-4.21

>  <m_primary>  (1) 
energy

$$$$
1:0
     RDKit          3D

 37 38  0  0  0  0  0  0  0  0999 V2000
   58.2050   27.4070   44.9920 C   0  0  0  0  0  0  0  0  0  0  0  0
   57.2100   28.1690   45.8410 C   0  0  0  0  0  0  0  0  0  0  0  0
   55.9260   28.1250   45.2550 O   0  0  0  0  0  0  0  0  0  0  0  0
   55.6250   29.4130   44.9760 N   0  0  0  0  0  0  0  0  0  0  0  0
   56.1080   29.7400   43.6480 C   0  0  0  0  0  0  0  0  0  0  0  0
   56.6900   31.1340   43.5980 C   0  0  0  0  0  0  0  0  0  0  0  0
   56.6680   31.7790   44.8330 O   0  0  0  0  0  0  0  0  0  0  0  0
   57.8680   32.1090   45.4610 C   0  0  0  0  0  0  0  0  0  0  0  0
   58.6500   31.1080   46.0500 C   0  0  0  0  0  0  0  0  0  0  0  0
   59.8420   31.4620   46.6690 C   0  0  0  0  0  0  0  0  0  0  0  0
   60.1600   32.8020   46.6520 C   0  0  0  0  0  0  0  0  0  0  0  0
   61.4540   33.1890   47.3250 C   0  0  0  0  0  0  0  0  0  0  0  0
   62.6490   33.3980   46.7590 C   0  0  0  0  0  0  0  0  0  0  0  0
   63.6980   33.7380   47.5190 C   0  0  0  0  0  0  0  0  0  0  0  0
   63.4330   33.8460   48.8850 C   0  0  0  0  0  0  0  0  0  0  0  0
   61.6340   33.4440   49.0410 S   0  0  0  0  0  0  0  0  0  0  0  0
   59.4370   33.7590   46.1040 N   0  0  0  0  0  0  0  0  0  0  0  0
   58.2630   33.4300   45.4900 C   0  0  0  0  0  0  0  0  0  0  0  0
   57.4920   34.5350   44.8930 C   0  0  0  0  0  0  0  0  0  0  0  0
   58.9078   26.8688   45.6450 H   0  0  0  0  0  0  0  0  0  0  0  0
   57.6690   26.6862   44.3570 H   0  0  0  0  0  0  0  0  0  0  0  0
   58.7612   28.1123   44.3570 H   0  0  0  0  0  0  0  0  0  0  0  0
   57.1668   27.7163   46.8426 H   0  0  0  0  0  0  0  0  0  0  0  0
   57.5330   29.2180   45.9134 H   0  0  0  0  0  0  0  0  0  0  0  0
   56.1720   30.0530   45.6260 H   0  0  0  0  0  0  0  0  0  0  0  0
   56.8866   29.0172   43.3628 H   0  0  0  0  0  0  0  0  0  0  0  0
   55.2582   29.6956   42.9510 H   0  0  0  0  0  0  0  0  0  0  0  0
   57.7336   31.0659   43.2569 H   0  0  0  0  0  0  0  0  0  0  0  0
   56.0695   31.7245   42.9079 H   0  0  0  0  0  0  0  0  0  0  0  0
   58.3254   30.0573   46.0229 H   0  0  0  0  0  0  0  0  0  0  0  0
   60.4943   30.7153   47.1453 H   0  0  0  0  0  0  0  0  0  0  0  0
   62.7692   33.2906   45.6709 H   0  0  0  0  0  0  0  0  0  0  0  0
   64.6974   33.9192   47.0966 H   0  0  0  0  0  0  0  0  0  0  0  0
   64.1360   34.1107   49.6885 H   0  0  0  0  0  0  0  0  0  0  0  0
   57.0598   35.1545   45.6927 H   0  0  0  0  0  0  0  0  0  0  0  0
   58.1569   35.1516   44.2704 H   0  0  0  0  0  0  0  0  0  0  0  0
   56.6838   34.1237   44.2704 H   0  0  0  0  0  0  0  0  0  0  0  0
  1  2  1  0
  2  3  1  0
  3  4  1  0
  4  5  1  0
  5  6  1  0
  6  7  1  0
  7  8  1  0
  8  9  2  0
  9 10  1  0
 10 11  2  0
 11 12  1  0
 12 13  2  0
 13 14  1  0
 14 15  2  0
 15 16  1  0
 11 17  1  0
 17 18  2  0
 18 19  1  0
 18  8  1  0
 16 12  1  0
  1 20  1  0
  1 21  1  0
  1 22  1  0
  2 23  1  0
  2 24  1  0
  4 25  1  0
  5 26  1  0
  5 27  1  0
  6 28  1  0
  6 29  1  0
  9 30  1  0
 10 31  1  0
 13 32  1  0
 14 33  1  0
 15 34  1  0
 19 35  1  0
 19 36  1  0
 19 37  1  0
M  END
>  <smiles>  (2) 
CCONCCOc1ccc(-c2cccs2)nc1C

>  <score_type>  (2) 
oracle

>  <origin>  (2) 
adg

>  <m_score__min__energy>  (2) 
-7.1600000000000001

>  <m_primary>  (2) 
energy

$$$$
2:0
     RDKit          3D

 59 61  0  0  0  0  0  0  0  0999 V2000
   63.7210   33.1100   46.7420 C   0  0  0  0  0  0  0  0  0  0  0  0
   63.7450   32.3080   48.0260 C   0  0  0  0  0  0  0  0  0  0  0  0
   62.8610   32.8280   49.0240 N   0  0  0  0  0  0  0  0  0  0  0  0
   63.5350   33.2530   50.2300 C   0  0  0  0  0  0  0  0  0  0  0  0
   65.0200   33.0530   50.1290 C   0  0  0  0  0  0  0  0  0  0  0  0
   61.9840   33.8550   48.5330 C   0  0  0  0  0  0  0  0  0  0  0  0
   60.6180   33.8090   49.2160 C   0  0  0  0  0  0  0  0  0  0  0  0
   60.3560   32.2670   49.3480 C   0  0  0  0  0  0  0  0  0  0  0  0
   60.6270   31.6280   48.0960 N   0  0  0  0  0  0  0  0  0  0  0  0
   59.7990   31.3290   47.0180 C   0  0  0  0  0  0  0  0  0  0  0  0
   59.2730   32.2380   46.1240 C   0  0  0  0  0  0  0  0  0  0  0  0
   58.4580   31.8100   45.0490 C   0  0  0  0  0  0  0  0  0  0  0  0
   58.1710   30.5160   44.8620 N   0  0  0  0  0  0  0  0  0  0  0  0
   57.3690   30.1740   43.7090 C   0  0  0  0  0  0  0  0  0  0  0  0
   55.9090   30.0570   43.9700 C   0  0  0  0  0  0  0  0  0  0  0  0
   58.6670   29.6050   45.7230 C   0  0  0  0  0  0  0  0  0  0  0  0
   58.3430   28.2720   45.5220 C   0  0  0  0  0  0  0  0  0  0  0  0
   58.7980   27.2580   46.3610 C   0  0  0  0  0  0  0  0  0  0  0  0
   59.5880   27.6270   47.4070 C   0  0  0  0  0  0  0  0  0  0  0  0
   59.9130   28.9720   47.6100 C   0  0  0  0  0  0  0  0  0  0  0  0
   59.4660   29.9810   46.7830 C   0  0  0  0  0  0  0  0  0  0  0  0
   57.8930   32.8440   44.1130 C   0  0  0  0  0  0  0  0  0  0  0  0
   57.3750   34.0140   44.8730 C   0  0  0  0  0  0  0  0  0  0  0  0
   58.0660   34.3310   46.1460 C   0  0  0  0  0  0  0  0  0  0  0  0
   59.4870   33.6880   46.1680 C   0  0  0  0  0  0  0  0  0  0  0  0
   63.6889   34.1833   46.9806 H   0  0  0  0  0  0  0  0  0  0  0  0
   64.6261   32.8915   46.1563 H   0  0  0  0  0  0  0  0  0  0  0  0
   62.8306   32.8378   46.1563 H   0  0  0  0  0  0  0  0  0  0  0  0
   63.4484   31.2733   47.7991 H   0  0  0  0  0  0  0  0  0  0  0  0
   64.7668   32.3618   48.4297 H   0  0  0  0  0  0  0  0  0  0  0  0
   63.3285   34.3203   50.3979 H   0  0  0  0  0  0  0  0  0  0  0  0
   63.1607   32.6458   51.0674 H   0  0  0  0  0  0  0  0  0  0  0  0
   65.4517   32.9949   51.1391 H   0  0  0  0  0  0  0  0  0  0  0  0
   65.2281   32.1187   49.5870 H   0  0  0  0  0  0  0  0  0  0  0  0
   65.4679   33.8989   49.5870 H   0  0  0  0  0  0  0  0  0  0  0  0
   62.4438   34.8362   48.7221 H   0  0  0  0  0  0  0  0  0  0  0  0
   61.8335   33.6899   47.4559 H   0  0  0  0  0  0  0  0  0  0  0  0
   60.6508   34.2926   50.2034 H   0  0  0  0  0  0  0  0  0  0  0  0
   59.8318   34.3414   48.6606 H   0  0  0  0  0  0  0  0  0  0  0  0
   61.0143   31.8483   50.1234 H   0  0  0  0  0  0  0  0  0  0  0  0
   59.3058   32.0961   49.6271 H   0  0  0  0  0  0  0  0  0  0  0  0
   61.6530   31.3380   47.9990 H   0  0  0  0  0  0  0  0  0  0  0  0
   57.5179   30.9530   42.9468 H   0  0  0  0  0  0  0  0  0  0  0  0
   57.7041   29.1771   43.3866 H   0  0  0  0  0  0  0  0  0  0  0  0
   55.7305   30.0427   45.0553 H   0  0  0  0  0  0  0  0  0  0  0  0
   55.3867   30.9162   43.5238 H   0  0  0  0  0  0  0  0  0  0  0  0
   55.5302   29.1256   43.5238 H   0  0  0  0  0  0  0  0  0  0  0  0
   57.7028   28.0055   44.6681 H   0  0  0  0  0  0  0  0  0  0  0  0
   58.5310   26.2053   46.1865 H   0  0  0  0  0  0  0  0  0  0  0  0
   59.9732   26.8619   48.0971 H   0  0  0  0  0  0  0  0  0  0  0  0
   60.5521   29.2362   48.4654 H   0  0  0  0  0  0  0  0  0  0  0  0
   58.6840   33.1806   43.4267 H   0  0  0  0  0  0  0  0  0  0  0  0
   57.0636   32.3940   43.5477 H   0  0  0  0  0  0  0  0  0  0  0  0
   57.4518   34.8970   44.2215 H   0  0  0  0  0  0  0  0  0  0  0  0
   56.3467   33.7460   45.1573 H   0  0  0  0  0  0  0  0  0  0  0  0
   58.1605   35.4224   46.2451 H   0  0  0  0  0  0  0  0  0  0  0  0
   57.4776   33.9251   46.9821 H   0  0  0  0  0  0  0  0  0  0  0  0
   60.0687   34.0156   45.2938 H   0  0  0  0  0  0  0  0  0  0  0  0
   60.0511   33.9859   47.0641 H   0  0  0  0  0  0  0  0  0  0  0  0
  1  2  1  0
  2  3  1  0
  3  4  1  0
  4  5  1  0
  3  6  1  0
  6  7  1  0
  7  8  1  0
  8  9  1  0
  9 10  1  0
 10 11  2  0
 11 12  1  0
 12 13  2  0
 13 14  1  0
 14 15  1  0
 13 16  1  0
 16 17  2  0
 17 18  1  0
 18 19  2  0
 19 20  1  0
 20 21  2  0
 12 22  1  0
 22 23  1  0
 23 24  1  0
 24 25  1  0
 21 10  1  0
 25 11  1  0
 21 16  1  0
  1 26  1  0
  1 27  1  0
  1 28  1  0
  2 29  1  0
  2 30  1  0
  4 31  1  0
  4 32  1  0
  5 33  1  0
  5 34  1  0
  5 35  1  0
  6 36  1  0
  6 37  1  0
  7 38  1  0
  7 39  1  0
  8 40  1  0
  8 41  1  0
  9 42  1  0
 14 43  1  0
 14 44  1  0
 15 45  1  0
 15 46  1  0
 15 47  1  0
 17 48  1  0
 18 49  1  0
 19 50  1  0
 20 51  1  0
 22 52  1  0
 22 53  1  0
 23 54  1  0
 23 55  1  0
 24 56  1  0
 24 57  1  0
 25 58  1  0
 25 59  1  0
M  CHG  1  13   1
M  END
>  <smiles>  (3) 
CCN(CC)CCCNc1c2c([n+](CC)c3ccccc13)CCCC2

>  <score_type>  (3) 
oracle

>  <origin>  (3) 
adg

>  <m_score__min__energy>  (3) 
-6.0099999999999998

>  <m_primary>  (3) 
energy

$$$$
3:0
     RDKit          3D

 66 70  0  0  0  0  0  0  0  0999 V2000
   65.1620   32.3520   50.0670 C   0  0  0  0  0  0  0  0  0  0  0  0
   64.0190   33.2980   49.8440 C   0  0  0  0  0  0  0  0  0  0  0  0
   62.8830   32.6630   49.2050 N   0  0  0  0  0  0  0  0  0  0  0  0
   63.1870   31.9900   47.9840 C   0  0  0  0  0  0  0  0  0  0  0  0
   63.7620   32.9700   47.0040 C   0  0  0  0  0  0  0  0  0  0  0  0
   62.6940   33.8500   46.3860 C   0  0  0  0  0  0  0  0  0  0  0  0
   61.5390   34.0400   47.1860 N   0  0  0  0  0  0  0  0  0  0  0  0
   60.3830   34.5720   46.5580 C   0  0  0  0  0  0  0  0  0  0  0  0
   59.1480   34.6210   47.4520 C   0  0  0  0  0  0  0  0  0  0  0  0
   59.0860   33.4780   48.3160 N   0  0  0  0  0  0  0  0  0  0  0  0
   59.0860   32.1230   47.9250 C   0  0  0  0  0  0  0  0  0  0  0  0
   58.5340   31.6660   46.7410 C   0  0  0  0  0  0  0  0  0  0  0  0
   58.5250   30.3250   46.4200 C   0  0  0  0  0  0  0  0  0  0  0  0
   59.0610   29.4300   47.2670 N   0  0  0  0  0  0  0  0  0  0  0  0
   59.0490   28.0250   47.0320 C   0  0  0  0  0  0  0  0  0  0  0  0
   60.2130   27.5270   46.4190 C   0  0  0  0  0  0  0  0  0  0  0  0
   60.3840   26.2190   46.1080 C   0  0  0  0  0  0  0  0  0  0  0  0
   59.3450   25.3490   46.4220 C   0  0  0  0  0  0  0  0  0  0  0  0
   58.1960   25.8250   47.0250 C   0  0  0  0  0  0  0  0  0  0  0  0
   58.0330   27.1790   47.3390 C   0  0  0  0  0  0  0  0  0  0  0  0
   59.6180   29.8280   48.4440 C   0  0  0  0  0  0  0  0  0  0  0  0
   60.1820   28.9010   49.3110 C   0  0  0  0  0  0  0  0  0  0  0  0
   60.7580   29.2760   50.5000 C   0  0  0  0  0  0  0  0  0  0  0  0
   60.7600   30.6300   50.8100 C   0  0  0  0  0  0  0  0  0  0  0  0
   60.1960   31.5630   49.9420 C   0  0  0  0  0  0  0  0  0  0  0  0
   59.6270   31.1620   48.7600 C   0  0  0  0  0  0  0  0  0  0  0  0
   57.8970   30.1520   45.1180 C   0  0  0  0  0  0  0  0  0  0  0  0
   57.6340   29.0580   44.3170 C   0  0  0  0  0  0  0  0  0  0  0  0
   57.0210   29.1890   43.0880 C   0  0  0  0  0  0  0  0  0  0  0  0
   56.6560   30.4510   42.6430 C   0  0  0  0  0  0  0  0  0  0  0  0
   56.9030   31.5770   43.4210 C   0  0  0  0  0  0  0  0  0  0  0  0
   57.5180   31.4060   44.6420 C   0  0  0  0  0  0  0  0  0  0  0  0
   57.8840   32.4480   45.6480 C   0  0  0  0  0  0  0  0  0  0  0  0
   65.3226   32.2191   51.1471 H   0  0  0  0  0  0  0  0  0  0  0  0
   64.9281   31.3798   49.6087 H   0  0  0  0  0  0  0  0  0  0  0  0
   66.0734   32.7636   49.6087 H   0  0  0  0  0  0  0  0  0  0  0  0
   63.6975   33.6969   50.8174 H   0  0  0  0  0  0  0  0  0  0  0  0
   64.3737   34.0953   49.1744 H   0  0  0  0  0  0  0  0  0  0  0  0
   62.0790   33.3050   49.1510 H   0  0  0  0  0  0  0  0  0  0  0  0
   63.9190   31.1920   48.1773 H   0  0  0  0  0  0  0  0  0  0  0  0
   62.2682   31.5509   47.5681 H   0  0  0  0  0  0  0  0  0  0  0  0
   64.4896   33.6086   47.5262 H   0  0  0  0  0  0  0  0  0  0  0  0
   64.2411   32.3991   46.1949 H   0  0  0  0  0  0  0  0  0  0  0  0
   63.1376   34.8367   46.1870 H   0  0  0  0  0  0  0  0  0  0  0  0
   62.3566   33.3320   45.4761 H   0  0  0  0  0  0  0  0  0  0  0  0
   61.3630   33.1880   47.7440 H   0  0  0  0  0  0  0  0  0  0  0  0
   60.6107   35.5966   46.2289 H   0  0  0  0  0  0  0  0  0  0  0  0
   60.1404   33.8982   45.7231 H   0  0  0  0  0  0  0  0  0  0  0  0
   59.1857   35.5329   48.0660 H   0  0  0  0  0  0  0  0  0  0  0  0
   58.2543   34.6211   46.8107 H   0  0  0  0  0  0  0  0  0  0  0  0
   59.0320   33.6540   49.3640 H   0  0  0  0  0  0  0  0  0  0  0  0
   61.0227   28.2325   46.1808 H   0  0  0  0  0  0  0  0  0  0  0  0
   61.3061   25.8603   45.6273 H   0  0  0  0  0  0  0  0  0  0  0  0
   59.4382   24.2779   46.1895 H   0  0  0  0  0  0  0  0  0  0  0  0
   57.3868   25.1196   47.2649 H   0  0  0  0  0  0  0  0  0  0  0  0
   57.1130   27.5451   47.8182 H   0  0  0  0  0  0  0  0  0  0  0  0
   60.1669   27.8357   49.0374 H   0  0  0  0  0  0  0  0  0  0  0  0
   61.2004   28.5333   51.1801 H   0  0  0  0  0  0  0  0  0  0  0  0
   61.2127   30.9703   51.7530 H   0  0  0  0  0  0  0  0  0  0  0  0
   60.2072   32.6305   50.2071 H   0  0  0  0  0  0  0  0  0  0  0  0
   57.9209   28.0558   44.6682 H   0  0  0  0  0  0  0  0  0  0  0  0
   56.8238   28.3022   42.4677 H   0  0  0  0  0  0  0  0  0  0  0  0
   56.1660   30.5624   41.6645 H   0  0  0  0  0  0  0  0  0  0  0  0
   56.6146   32.5789   43.0704 H   0  0  0  0  0  0  0  0  0  0  0  0
   58.5840   33.1800   45.2187 H   0  0  0  0  0  0  0  0  0  0  0  0
   57.0179   33.0304   45.9953 H   0  0  0  0  0  0  0  0  0  0  0  0
  1  2  1  0
  2  3  1  0
  3  4  1  0
  4  5  1  0
  5  6  1  0
  6  7  1  0
  7  8  1  0
  8  9  1  0
  9 10  1  0
 10 11  1  0
 11 12  2  0
 12 13  1  0
 13 14  2  0
 14 15  1  0
 15 16  2  0
 16 17  1  0
 17 18  2  0
 18 19  1  0
 19 20  2  0
 14 21  1  0
 21 22  2  0
 22 23  1  0
 23 24  2  0
 24 25  1  0
 25 26  2  0
 13 27  1  0
 27 28  2  0
 28 29  1  0
 29 30  2  0
 30 31  1  0
 31 32  2  0
 32 33  1  0
 26 11  1  0
 32 27  1  0
 33 12  1  0
 20 15  1  0
 26 21  1  0
  1 34  1  0
  1 35  1  0
  1 36  1  0
  2 37  1  0
  2 38  1  0
  3 39  1  0
  4 40  1  0
  4 41  1  0
  5 42  1  0
  5 43  1  0
  6 44  1  0
  6 45  1  0
  7 46  1  0
  8 47  1  0
  8 48  1  0
  9 49  1  0
  9 50  1  0
 10 51  1  0
 16 52  1  0
 17 53  1  0
 18 54  1  0
 19 55  1  0
 20 56  1  0
 22 57  1  0
 23 58  1  0
 24 59  1  0
 25 60  1  0
 28 61  1  0
 29 62  1  0
 30 63  1  0
 31 64  1  0
 33 65  1  0
 33 66  1  0
M  CHG  1  14   1
M  END
>  <smiles>  (4) 
CCNCCCNCCNc1c2c([n+](-c3ccccc3)c3ccccc13)-c1ccccc1C2

>  <score_type>  (4) 
oracle

>  <origin>  (4) 
adg

>  <m_score__min__energy>  (4) 
-7.7199999999999998

>  <m_primary>  (4) 
energy

$$$$
4:0
     RDKit          3D

 30 32  0  0  1  0  0  0  0  0999 V2000
   58.0730   32.3380   41.9890 C   0  0  0  0  0  0  0  0  0  0  0  0
   60.0310   34.9550   47.5060 N   0  0  0  0  0  0  0  0  0  0  0  0
   56.9810   30.5200   43.2730 N   0  0  0  0  0  0  0  0  0  0  0  0
   56.5450   30.3500   44.5250 N   0  0  0  0  0  0  0  0  0  0  0  0
   56.7720   31.4530   45.2230 N   0  0  0  0  0  0  0  0  0  0  0  0
   57.3690   32.3300   44.3670 C   0  0  0  0  0  0  0  0  0  0  0  0
   57.8610   33.9800   44.8710 S   0  0  0  0  0  0  0  0  0  0  0  0
   59.6230   34.0320   45.2580 C   0  0  1  0  0  0  0  0  0  0  0  0
   60.0010   35.2360   46.0830 C   0  0  0  0  0  0  0  0  0  0  0  0
   57.4930   31.7460   43.1720 N   0  0  0  0  0  0  0  0  0  0  0  0
   58.8700   34.1790   47.9140 C   0  0  0  0  0  0  0  0  0  0  0  0
   58.8500   32.8210   47.2510 C   0  0  0  0  0  0  0  0  0  0  0  0
   59.8900   32.8210   46.1610 C   0  0  2  0  0  0  0  0  0  0  0  0
   61.2830   33.0150   46.7240 C   0  0  0  0  0  0  0  0  0  0  0  0
   61.1990   34.1110   47.7880 C   0  0  0  0  0  0  0  0  0  0  0  0
   58.8147   33.0950   42.2838 H   0  0  0  0  0  0  0  0  0  0  0  0
   58.5646   31.5564   41.3912 H   0  0  0  0  0  0  0  0  0  0  0  0
   57.2815   32.8135   41.3912 H   0  0  0  0  0  0  0  0  0  0  0  0
   60.1879   34.0521   44.3143 H   0  0  0  0  0  0  0  0  0  0  0  0
   60.9992   35.5767   45.7708 H   0  0  0  0  0  0  0  0  0  0  0  0
   59.2353   36.0074   45.9136 H   0  0  0  0  0  0  0  0  0  0  0  0
   57.9579   34.7266   47.6344 H   0  0  0  0  0  0  0  0  0  0  0  0
   58.9196   34.0306   49.0028 H   0  0  0  0  0  0  0  0  0  0  0  0
   57.8563   32.6308   46.8192 H   0  0  0  0  0  0  0  0  0  0  0  0
   59.0670   32.0327   47.9869 H   0  0  0  0  0  0  0  0  0  0  0  0
   59.8322   31.8593   45.6301 H   0  0  0  0  0  0  0  0  0  0  0  0
   61.9727   33.3205   45.9234 H   0  0  0  0  0  0  0  0  0  0  0  0
   61.6588   32.0781   47.1610 H   0  0  0  0  0  0  0  0  0  0  0  0
   62.1126   34.7231   47.7614 H   0  0  0  0  0  0  0  0  0  0  0  0
   61.1006   33.6573   48.7852 H   0  0  0  0  0  0  0  0  0  0  0  0
  1  2  1  0
  2  3  1  0
  3  4  2  0
  4  5  1  0
  5  6  2  0
  6  7  1  0
  7  8  1  0
  8  9  1  0
  9 10  1  0
 10 11  1  6
 11 12  1  0
 12 13  1  0
 13 14  1  0
 14 15  1  0
  6  2  1  0
 13  8  1  0
 15 10  1  0
  1 16  1  0
  1 17  1  0
  1 18  1  0
  8 19  1  6
  9 20  1  0
  9 21  1  0
 11 22  1  0
 11 23  1  0
 12 24  1  0
 12 25  1  0
 13 26  1  6
 14 27  1  0
 14 28  1  0
 15 29  1  0
 15 30  1  0
M  END
>  <smiles>  (5) 
Cn1nnnc1SC1CN2CCC1CC2

>  <score_type>  (5) 
oracle

>  <origin>  (5) 
adg

>  <m_score__min__energy>  (5) 
-7.3600000000000003

>  <m_primary>  (5) 
energy

$$$$
5:0
     RDKit          3D

 42 43  0  0  0  0  0  0  0  0999 V2000
   59.1860   28.5350   44.6750 C   0  0  0  0  0  0  0  0  0  0  0  0
   57.8470   27.9920   44.2500 C   0  0  0  0  0  0  0  0  0  0  0  0
   56.7710   28.2250   45.2460 C   0  0  0  0  0  0  0  0  0  0  0  0
   55.9550   29.3600   45.1270 N   0  0  0  0  0  0  0  0  0  0  0  0
   56.1040   30.2490   44.0410 C   0  0  0  0  0  0  0  0  0  0  0  0
   57.1540   31.2790   44.4200 C   0  0  0  0  0  0  0  0  0  0  0  0
   57.6630   31.5120   45.6410 N   0  0  0  0  0  0  0  0  0  0  0  0
   58.5620   32.5150   45.5080 C   0  0  0  0  0  0  0  0  0  0  0  0
   59.3840   33.1330   46.5520 C   0  0  0  0  0  0  0  0  0  0  0  0
   60.7460   33.1980   46.3900 C   0  0  0  0  0  0  0  0  0  0  0  0
   61.5970   33.7680   47.3250 C   0  0  0  0  0  0  0  0  0  0  0  0
   61.0520   34.2950   48.4730 C   0  0  0  0  0  0  0  0  0  0  0  0
   61.9270   34.8570   49.3880 O   0  0  0  0  0  0  0  0  0  0  0  0
   62.7550   34.1550   50.2660 C   0  0  0  0  0  0  0  0  0  0  0  0
   63.8950   33.4430   49.6020 C   0  0  0  0  0  0  0  0  0  0  0  0
   59.6940   34.2320   48.6390 C   0  0  0  0  0  0  0  0  0  0  0  0
   58.8570   33.6650   47.7060 C   0  0  0  0  0  0  0  0  0  0  0  0
   58.6230   32.9040   44.2560 O   0  0  0  0  0  0  0  0  0  0  0  0
   57.7840   32.1740   43.5830 C   0  0  0  0  0  0  0  0  0  0  0  0
   57.5030   32.2510   42.1090 C   0  0  0  0  0  0  0  0  0  0  0  0
   59.2408   28.5572   45.7734 H   0  0  0  0  0  0  0  0  0  0  0  0
   59.9851   27.8899   44.2810 H   0  0  0  0  0  0  0  0  0  0  0  0
   59.3101   29.5545   44.2810 H   0  0  0  0  0  0  0  0  0  0  0  0
   57.5584   28.4767   43.3057 H   0  0  0  0  0  0  0  0  0  0  0  0
   57.9585   26.9030   44.1425 H   0  0  0  0  0  0  0  0  0  0  0  0
   56.1073   27.3484   45.2114 H   0  0  0  0  0  0  0  0  0  0  0  0
   57.3193   28.3975   46.1839 H   0  0  0  0  0  0  0  0  0  0  0  0
   55.5290   29.7170   45.9880 H   0  0  0  0  0  0  0  0  0  0  0  0
   56.4288   29.6959   43.1474 H   0  0  0  0  0  0  0  0  0  0  0  0
   55.1470   30.7428   43.8166 H   0  0  0  0  0  0  0  0  0  0  0  0
   61.1839   32.7770   45.4729 H   0  0  0  0  0  0  0  0  0  0  0  0
   62.6830   33.7981   47.1526 H   0  0  0  0  0  0  0  0  0  0  0  0
   63.1708   34.8687   50.9925 H   0  0  0  0  0  0  0  0  0  0  0  0
   62.1311   33.3808   50.7366 H   0  0  0  0  0  0  0  0  0  0  0  0
   64.5634   33.0255   50.3694 H   0  0  0  0  0  0  0  0  0  0  0  0
   63.5033   32.6287   48.9747 H   0  0  0  0  0  0  0  0  0  0  0  0
   64.4548   34.1523   48.9747 H   0  0  0  0  0  0  0  0  0  0  0  0
   59.2546   34.6519   49.5558 H   0  0  0  0  0  0  0  0  0  0  0  0
   57.7715   33.6372   47.8819 H   0  0  0  0  0  0  0  0  0  0  0  0
   56.4532   32.5387   41.9504 H   0  0  0  0  0  0  0  0  0  0  0  0
   58.1624   33.0016   41.6487 H   0  0  0  0  0  0  0  0  0  0  0  0
   57.6877   31.2691   41.6487 H   0  0  0  0  0  0  0  0  0  0  0  0
  1  2  1  0
  2  3  1  0
  3  4  1  0
  4  5  1  0
  5  6  1  0
  6  7  1  0
  7  8  2  0
  8  9  1  0
  9 10  2  0
 10 11  1  0
 11 12  2  0
 12 13  1  0
 13 14  1  0
 14 15  1  0
 12 16  1  0
 16 17  2  0
  8 18  1  0
 18 19  1  0
 19 20  1  0
 19  6  2  0
 17  9  1  0
  1 21  1  0
  1 22  1  0
  1 23  1  0
  2 24  1  0
  2 25  1  0
  3 26  1  0
  3 27  1  0
  4 28  1  0
  5 29  1  0
  5 30  1  0
 10 31  1  0
 11 32  1  0
 14 33  1  0
 14 34  1  0
 15 35  1  0
 15 36  1  0
 15 37  1  0
 16 38  1  0
 17 39  1  0
 20 40  1  0
 20 41  1  0
 20 42  1  0
M  END
>  <smiles>  (6) 
CCCNCc1nc(-c2ccc(OCC)cc2)oc1C

>  <score_type>  (6) 
oracle

>  <origin>  (6) 
adg

>  <m_score__min__energy>  (6) 
-6.9100000000000001

>  <m_primary>  (6) 
energy

$$$$
6:0
     RDKit          3D

 71 74  0  0  1  0  0  0  0  0999 V2000
   56.2490   29.7110   42.6660 C   0  0  0  0  0  0  0  0  0  0  0  0
   56.4940   30.8140   43.6520 C   0  0  0  0  0  0  0  0  0  0  0  0
   57.9320   31.3170   43.5540 C   0  0  0  0  0  0  0  0  0  0  0  0
   58.5050   31.5130   44.8590 N   0  0  0  0  0  0  0  0  0  0  0  0
   59.1900   30.5390   45.6420 C   0  0  0  0  0  0  0  0  0  0  0  0
   59.4140   29.1970   45.0200 C   0  0  1  0  0  0  0  0  0  0  0  0
   60.2520   28.3060   45.9020 C   0  0  0  0  0  0  0  0  0  0  0  0
   59.3300   27.8180   46.9770 C   0  0  0  0  0  0  0  0  0  0  0  0
   57.9500   28.0570   46.4920 C   0  0  2  0  0  0  0  0  0  0  0  0
   57.1410   26.7660   46.3800 C   0  0  0  0  0  0  0  0  0  0  0  0
   57.3920   26.2200   45.1000 N   0  0  0  0  0  0  0  0  0  0  0  0
   58.1150   24.9980   45.0320 C   0  0  0  0  0  0  0  0  0  0  0  0
   57.3150   23.7410   45.0310 C   0  0  0  0  0  0  0  0  0  0  0  0
   56.0080   23.8790   44.2970 C   0  0  0  0  0  0  0  0  0  0  0  0
   56.0030   23.1100   42.9920 C   0  0  0  0  0  0  0  0  0  0  0  0
   56.2070   21.7620   43.1720 O   0  0  0  0  0  0  0  0  0  0  0  0
   57.2470   21.5150   44.0370 C   0  0  0  0  0  0  0  0  0  0  0  0
   58.1310   22.7290   44.2090 C   0  0  0  0  0  0  0  0  0  0  0  0
   58.0610   27.2200   44.2970 C   0  0  0  0  0  0  0  0  0  0  0  0
   58.0510   28.4910   45.0680 C   0  0  2  0  0  0  0  0  0  0  0  0
   58.4060   32.8470   45.4140 C   0  0  0  0  0  0  0  0  0  0  0  0
   58.8250   33.8370   44.7200 O   0  0  0  0  0  0  0  0  0  0  0  0
   57.8380   33.0860   46.7570 C   0  0  0  0  0  0  0  0  0  0  0  0
   58.7300   33.4350   47.7280 O   0  0  0  0  0  0  0  0  0  0  0  0
   59.8110   34.1830   47.3590 C   0  0  0  0  0  0  0  0  0  0  0  0
   61.0810   33.4050   47.3570 C   0  0  0  0  0  0  0  0  0  0  0  0
   62.2390   33.8600   46.7630 C   0  0  0  0  0  0  0  0  0  0  0  0
   63.3460   33.0500   46.8300 C   0  0  0  0  0  0  0  0  0  0  0  0
   63.3700   31.8210   47.4500 C   0  0  0  0  0  0  0  0  0  0  0  0
   62.2020   31.3870   48.0360 C   0  0  0  0  0  0  0  0  0  0  0  0
   61.0410   32.1630   48.0020 C   0  0  0  0  0  0  0  0  0  0  0  0
   56.0412   28.7756   43.2063 H   0  0  0  0  0  0  0  0  0  0  0  0
   55.3862   29.9689   42.0342 H   0  0  0  0  0  0  0  0  0  0  0  0
   57.1398   29.5794   42.0342 H   0  0  0  0  0  0  0  0  0  0  0  0
   55.8056   31.6457   43.4416 H   0  0  0  0  0  0  0  0  0  0  0  0
   56.3242   30.4249   44.6668 H   0  0  0  0  0  0  0  0  0  0  0  0
   58.5340   30.5778   43.0052 H   0  0  0  0  0  0  0  0  0  0  0  0
   57.9280   32.2825   43.0269 H   0  0  0  0  0  0  0  0  0  0  0  0
   60.1760   30.9539   45.8980 H   0  0  0  0  0  0  0  0  0  0  0  0
   58.5280   30.3475   46.4994 H   0  0  0  0  0  0  0  0  0  0  0  0
   59.8750   29.3440   44.0321 H   0  0  0  0  0  0  0  0  0  0  0  0
   60.6499   27.4588   45.3241 H   0  0  0  0  0  0  0  0  0  0  0  0
   61.1150   28.8445   46.3206 H   0  0  0  0  0  0  0  0  0  0  0  0
   59.4891   26.7442   47.1549 H   0  0  0  0  0  0  0  0  0  0  0  0
   59.5136   28.3435   47.9258 H   0  0  0  0  0  0  0  0  0  0  0  0
   57.4832   28.7688   47.1888 H   0  0  0  0  0  0  0  0  0  0  0  0
   57.4551   26.0565   47.1597 H   0  0  0  0  0  0  0  0  0  0  0  0
   56.0678   26.9671   46.5131 H   0  0  0  0  0  0  0  0  0  0  0  0
   58.7093   25.0145   44.1065 H   0  0  0  0  0  0  0  0  0  0  0  0
   58.7051   24.9618   45.9596 H   0  0  0  0  0  0  0  0  0  0  0  0
   57.1115   23.4577   46.0742 H   0  0  0  0  0  0  0  0  0  0  0  0
   55.1996   23.4962   44.9373 H   0  0  0  0  0  0  0  0  0  0  0  0
   55.8619   24.9439   44.0631 H   0  0  0  0  0  0  0  0  0  0  0  0
   55.0299   23.2565   42.5004 H   0  0  0  0  0  0  0  0  0  0  0  0
   56.8302   23.4930   42.3763 H   0  0  0  0  0  0  0  0  0  0  0  0
   56.8359   21.2315   45.0171 H   0  0  0  0  0  0  0  0  0  0  0  0
   57.8578   20.7027   43.6161 H   0  0  0  0  0  0  0  0  0  0  0  0
   59.0523   22.4570   44.7449 H   0  0  0  0  0  0  0  0  0  0  0  0
   58.4285   23.1492   43.2369 H   0  0  0  0  0  0  0  0  0  0  0  0
   59.0973   26.9098   44.0973 H   0  0  0  0  0  0  0  0  0  0  0  0
   57.5494   27.3480   43.3317 H   0  0  0  0  0  0  0  0  0  0  0  0
   57.2589   29.1485   44.6804 H   0  0  0  0  0  0  0  0  0  0  0  0
   57.0993   33.8965   46.6710 H   0  0  0  0  0  0  0  0  0  0  0  0
   57.4129   32.1229   47.0759 H   0  0  0  0  0  0  0  0  0  0  0  0
   59.6376   34.5743   46.3457 H   0  0  0  0  0  0  0  0  0  0  0  0
   59.9204   34.9913   48.0970 H   0  0  0  0  0  0  0  0  0  0  0  0
   62.2749   34.8348   46.2547 H   0  0  0  0  0  0  0  0  0  0  0  0
   64.2734   33.4062   46.3578 H   0  0  0  0  0  0  0  0  0  0  0  0
   64.2848   31.2107   47.4762 H   0  0  0  0  0  0  0  0  0  0  0  0
   62.1828   30.4099   48.5409 H   0  0  0  0  0  0  0  0  0  0  0  0
   60.1134   31.8053   48.4728 H   0  0  0  0  0  0  0  0  0  0  0  0
  1  2  1  0
  2  3  1  0
  3  4  1  0
  4  5  1  0
  5  6  1  0
  6  7  1  0
  7  8  1  0
  8  9  1  0
  9 10  1  0
 10 11  1  0
 11 12  1  0
 12 13  1  0
 13 14  1  0
 14 15  1  0
 15 16  1  0
 16 17  1  0
 17 18  1  0
 11 19  1  0
 19 20  1  0
  4 21  1  0
 21 22  2  0
 21 23  1  0
 23 24  1  0
 24 25  1  0
 25 26  1  0
 26 27  2  0
 27 28  1  0
 28 29  2  0
 29 30  1  0
 30 31  2  0
 20  6  1  0
 31 26  1  0
 20  9  1  0
 18 13  1  0
  1 32  1  0
  1 33  1  0
  1 34  1  0
  2 35  1  0
  2 36  1  0
  3 37  1  0
  3 38  1  0
  5 39  1  0
  5 40  1  0
  6 41  1  6
  7 42  1  0
  7 43  1  0
  8 44  1  0
  8 45  1  0
  9 46  1  1
 10 47  1  0
 10 48  1  0
 12 49  1  0
 12 50  1  0
 13 51  1  0
 14 52  1  0
 14 53  1  0
 15 54  1  0
 15 55  1  0
 17 56  1  0
 17 57  1  0
 18 58  1  0
 18 59  1  0
 19 60  1  0
 19 61  1  0
 20 62  1  6
 23 63  1  0
 23 64  1  0
 25 65  1  0
 25 66  1  0
 27 67  1  0
 28 68  1  0
 29 69  1  0
 30 70  1  0
 31 71  1  0
M  END
>  <smiles>  (7) 
CCCN(CC1CCC2CN(CC3CCOCC3)CC21)C(=O)COCc1ccccc1

>  <score_type>  (7) 
oracle

>  <origin>  (7) 
adg

>  <m_score__min__energy>  (7) 
-9.6400000000000006

>  <m_primary>  (7) 
energy

$$$$
7:0
     RDKit          3D

 54 55  0  0  0  0  0  0  0  0999 V2000
   63.3200   33.8420   46.4960 C   0  0  0  0  0  0  0  0  0  0  0  0
   63.0950   33.0700   47.6760 N   0  0  0  0  0  0  0  0  0  0  0  0
   62.7800   31.6930   47.4230 C   0  0  0  0  0  0  0  0  0  0  0  0
   63.9810   33.2880   48.7570 C   0  0  0  0  0  0  0  0  0  0  0  0
   63.4190   33.7850   50.0340 C   0  0  0  0  0  0  0  0  0  0  0  0
   62.0980   34.0790   49.9810 O   0  0  0  0  0  0  0  0  0  0  0  0
   61.2470   33.5040   50.8770 C   0  0  0  0  0  0  0  0  0  0  0  0
   59.8280   33.8040   50.3550 C   0  0  0  0  0  0  0  0  0  0  0  0
   59.6120   32.9160   49.2980 O   0  0  0  0  0  0  0  0  0  0  0  0
   60.1530   33.4860   48.1780 N   0  0  0  0  0  0  0  0  0  0  0  0
   59.2740   33.8440   47.1250 C   0  0  0  0  0  0  0  0  0  0  0  0
   58.0410   33.6050   47.3170 O   0  0  0  0  0  0  0  0  0  0  0  0
   59.7000   34.4380   45.9040 N   0  0  0  0  0  0  0  0  0  0  0  0
   58.6700   34.7350   44.9310 C   0  0  0  0  0  0  0  0  0  0  0  0
   58.4360   33.4870   44.1070 C   0  0  0  0  0  0  0  0  0  0  0  0
   57.5630   32.5400   44.8130 N   0  0  0  0  0  0  0  0  0  0  0  0
   57.5480   31.1580   44.4620 C   0  0  0  0  0  0  0  0  0  0  0  0
   56.6730   30.7030   43.5150 C   0  0  0  0  0  0  0  0  0  0  0  0
   56.6420   29.3630   43.1610 C   0  0  0  0  0  0  0  0  0  0  0  0
   57.4870   28.4260   43.7420 C   0  0  0  0  0  0  0  0  0  0  0  0
   58.3610   28.8970   44.6940 C   0  0  0  0  0  0  0  0  0  0  0  0
   59.2180   27.9940   45.2940 C   0  0  0  0  0  0  0  0  0  0  0  0
   60.1320   28.3670   46.2580 C   0  0  0  0  0  0  0  0  0  0  0  0
   60.1610   29.7150   46.6120 C   0  0  0  0  0  0  0  0  0  0  0  0
   59.2930   30.6250   46.0030 C   0  0  0  0  0  0  0  0  0  0  0  0
   58.3900   30.2310   45.0450 C   0  0  0  0  0  0  0  0  0  0  0  0
   63.6176   34.8630   46.7770 H   0  0  0  0  0  0  0  0  0  0  0  0
   64.1201   33.3775   45.9010 H   0  0  0  0  0  0  0  0  0  0  0  0
   62.3956   33.8801   45.9010 H   0  0  0  0  0  0  0  0  0  0  0  0
   62.6587   31.1629   48.3792 H   0  0  0  0  0  0  0  0  0  0  0  0
   61.8444   31.6306   46.8479 H   0  0  0  0  0  0  0  0  0  0  0  0
   63.5954   31.2300   46.8479 H   0  0  0  0  0  0  0  0  0  0  0  0
   64.4772   32.3297   48.9702 H   0  0  0  0  0  0  0  0  0  0  0  0
   64.6357   34.1021   48.4125 H   0  0  0  0  0  0  0  0  0  0  0  0
   63.5700   33.0118   50.8017 H   0  0  0  0  0  0  0  0  0  0  0  0
   63.9432   34.7237   50.2665 H   0  0  0  0  0  0  0  0  0  0  0  0
   61.4166   32.4182   50.9249 H   0  0  0  0  0  0  0  0  0  0  0  0
   61.3984   33.8991   51.8924 H   0  0  0  0  0  0  0  0  0  0  0  0
   59.0855   33.6402   51.1499 H   0  0  0  0  0  0  0  0  0  0  0  0
   59.7308   34.8502   50.0293 H   0  0  0  0  0  0  0  0  0  0  0  0
   61.1700   33.6590   48.0760 H   0  0  0  0  0  0  0  0  0  0  0  0
   60.7130   34.6290   45.7680 H   0  0  0  0  0  0  0  0  0  0  0  0
   57.7414   35.0229   45.4456 H   0  0  0  0  0  0  0  0  0  0  0  0
   58.9819   35.5686   44.2846 H   0  0  0  0  0  0  0  0  0  0  0  0
   57.9633   33.7693   43.1547 H   0  0  0  0  0  0  0  0  0  0  0  0
   59.4062   33.0001   43.9292 H   0  0  0  0  0  0  0  0  0  0  0  0
   56.9810   32.9610   45.5630 H   0  0  0  0  0  0  0  0  0  0  0  0
   55.9848   31.4093   43.0277 H   0  0  0  0  0  0  0  0  0  0  0  0
   55.9252   29.0311   42.3954 H   0  0  0  0  0  0  0  0  0  0  0  0
   57.4587   27.3642   43.4561 H   0  0  0  0  0  0  0  0  0  0  0  0
   59.1696   26.9375   44.9915 H   0  0  0  0  0  0  0  0  0  0  0  0
   60.8065   27.6346   46.7255 H   0  0  0  0  0  0  0  0  0  0  0  0
   60.8716   30.0645   47.3755 H   0  0  0  0  0  0  0  0  0  0  0  0
   59.3335   31.6839   46.2980 H   0  0  0  0  0  0  0  0  0  0  0  0
  1  2  1  0
  2  3  1  0
  2  4  1  0
  4  5  1  0
  5  6  1  0
  6  7  1  0
  7  8  1  0
  8  9  1  0
  9 10  1  0
 10 11  1  0
 11 12  2  0
 11 13  1  0
 13 14  1  0
 14 15  1  0
 15 16  1  0
 16 17  1  0
 17 18  2  0
 18 19  1  0
 19 20  2  0
 20 21  1  0
 21 22  2  0
 22 23  1  0
 23 24  2  0
 24 25  1  0
 25 26  2  0
 26 17  1  0
 26 21  1  0
  1 27  1  0
  1 28  1  0
  1 29  1  0
  3 30  1  0
  3 31  1  0
  3 32  1  0
  4 33  1  0
  4 34  1  0
  5 35  1  0
  5 36  1  0
  7 37  1  0
  7 38  1  0
  8 39  1  0
  8 40  1  0
 10 41  1  0
 13 42  1  0
 14 43  1  0
 14 44  1  0
 15 45  1  0
 15 46  1  0
 16 47  1  0
 18 48  1  0
 19 49  1  0
 20 50  1  0
 22 51  1  0
 23 52  1  0
 24 53  1  0
 25 54  1  0
M  END
>  <smiles>  (8) 
CN(C)CCOCCONC(=O)NCCNc1cccc2ccccc12

>  <score_type>  (8) 
oracle

>  <origin>  (8) 
adg

>  <m_score__min__energy>  (8) 
-7.7999999999999998

>  <m_primary>  (8) 
energy

$$$$
8:0
     RDKit          3D

 32 33  0  0  0  0  0  0  0  0999 V2000
   59.6820   28.1740   46.6460 C   0  0  0  0  0  0  0  0  0  0  0  0
   59.6510   27.6180   45.2390 C   0  0  0  0  0  0  0  0  0  0  0  0
   58.2810   27.2960   44.9240 N   0  0  0  0  0  0  0  0  0  0  0  0
   57.4000   27.3440   46.0420 C   0  0  0  0  0  0  0  0  0  0  0  0
   57.7910   27.9490   43.7510 C   0  0  0  0  0  0  0  0  0  0  0  0
   57.4010   29.3330   44.1190 C   0  0  0  0  0  0  0  0  0  0  0  0
   56.1860   29.9520   44.1030 C   0  0  0  0  0  0  0  0  0  0  0  0
   56.3860   31.1780   44.5250 O   0  0  0  0  0  0  0  0  0  0  0  0
   57.6300   31.3940   44.8100 C   0  0  0  0  0  0  0  0  0  0  0  0
   58.2350   32.6230   45.3040 C   0  0  0  0  0  0  0  0  0  0  0  0
   58.3180   33.7370   44.4950 C   0  0  0  0  0  0  0  0  0  0  0  0
   58.9030   34.8870   45.0050 C   0  0  0  0  0  0  0  0  0  0  0  0
   59.4000   34.9600   46.2800 C   0  0  0  0  0  0  0  0  0  0  0  0
   59.3210   33.8510   47.0950 C   0  0  0  0  0  0  0  0  0  0  0  0
   59.9940   33.8650   48.8910 Br  0  0  0  0  0  0  0  0  0  0  0  0
   58.7400   32.7130   46.5820 C   0  0  0  0  0  0  0  0  0  0  0  0
   58.2820   30.2460   44.5610 N   0  0  0  0  0  0  0  0  0  0  0  0
   59.6358   27.3459   47.3686 H   0  0  0  0  0  0  0  0  0  0  0  0
   60.6131   28.7401   46.7961 H   0  0  0  0  0  0  0  0  0  0  0  0
   58.8196   28.8401   46.7961 H   0  0  0  0  0  0  0  0  0  0  0  0
   60.0315   28.3691   44.5311 H   0  0  0  0  0  0  0  0  0  0  0  0
   60.2839   26.7213   45.1654 H   0  0  0  0  0  0  0  0  0  0  0  0
   57.9861   27.3121   46.9723 H   0  0  0  0  0  0  0  0  0  0  0  0
   56.8156   28.2753   46.0086 H   0  0  0  0  0  0  0  0  0  0  0  0
   56.7179   26.4817   46.0086 H   0  0  0  0  0  0  0  0  0  0  0  0
   58.5784   27.9757   42.9833 H   0  0  0  0  0  0  0  0  0  0  0  0
   56.9245   27.4048   43.3473 H   0  0  0  0  0  0  0  0  0  0  0  0
   55.2265   29.5101   43.7964 H   0  0  0  0  0  0  0  0  0  0  0  0
   57.9284   33.7141   43.4666 H   0  0  0  0  0  0  0  0  0  0  0  0
   58.9706   35.7756   44.3602 H   0  0  0  0  0  0  0  0  0  0  0  0
   59.8558   35.8910   46.6481 H   0  0  0  0  0  0  0  0  0  0  0  0
   58.6756   31.8260   47.2293 H   0  0  0  0  0  0  0  0  0  0  0  0
  1  2  1  0
  2  3  1  0
  3  4  1  0
  3  5  1  0
  5  6  1  0
  6  7  2  0
  7  8  1  0
  8  9  1  0
  9 10  1  0
 10 11  2  0
 11 12  1  0
 12 13  2  0
 13 14  1  0
 14 15  1  0
 14 16  2  0
  9 17  2  0
 17  6  1  0
 16 10  1  0
  1 18  1  0
  1 19  1  0
  1 20  1  0
  2 21  1  0
  2 22  1  0
  4 23  1  0
  4 24  1  0
  4 25  1  0
  5 26  1  0
  5 27  1  0
  7 28  1  0
 11 29  1  0
 12 30  1  0
 13 31  1  0
 16 32  1  0
M  END
>  <smiles>  (9) 
CCN(C)Cc1coc(-c2cccc(Br)c2)n1

>  <score_type>  (9) 
oracle

>  <origin>  (9) 
adg

>  <m_score__min__energy>  (9) 
-6.4000000000000004

>  <m_primary>  (9) 
energy

$$$$
9:0
     RDKit          3D

 52 55  0  0  0  0  0  0  0  0999 V2000
   65.9320   32.5250   51.2530 C   0  0  0  0  0  0  0  0  0  0  0  0
   64.8790   32.9750   50.3100 C   0  0  0  0  0  0  0  0  0  0  0  0
   63.5950   33.3230   50.6610 C   0  0  0  0  0  0  0  0  0  0  0  0
   62.9810   33.6730   49.4550 C   0  0  0  0  0  0  0  0  0  0  0  0
   61.5700   34.1020   49.3940 C   0  0  0  0  0  0  0  0  0  0  0  0
   60.6210   33.0710   49.1500 N   0  0  0  0  0  0  0  0  0  0  0  0
   59.2800   33.4640   48.9070 C   0  0  0  0  0  0  0  0  0  0  0  0
   59.1790   33.9680   47.4910 C   0  0  0  0  0  0  0  0  0  0  0  0
   59.5290   32.9020   46.4850 C   0  0  0  0  0  0  0  0  0  0  0  0
   60.8970   32.3760   46.8130 C   0  0  0  0  0  0  0  0  0  0  0  0
   61.1010   32.0390   48.2630 C   0  0  0  0  0  0  0  0  0  0  0  0
   58.4980   31.8030   46.3850 C   0  0  0  0  0  0  0  0  0  0  0  0
   57.5710   32.0290   45.2990 N   0  0  0  0  0  0  0  0  0  0  0  0
   56.9580   30.9850   44.5520 C   0  0  0  0  0  0  0  0  0  0  0  0
   55.6910   30.8400   44.5550 O   0  0  0  0  0  0  0  0  0  0  0  0
   57.7170   30.0090   43.7350 C   0  0  0  0  0  0  0  0  0  0  0  0
   57.4330   28.5570   43.8350 C   0  0  0  0  0  0  0  0  0  0  0  0
   58.6290   29.0470   44.5450 C   0  0  0  0  0  0  0  0  0  0  0  0
   57.2560   33.4020   44.9650 C   0  0  0  0  0  0  0  0  0  0  0  0
   58.5110   34.2160   44.8760 C   0  0  0  0  0  0  0  0  0  0  0  0
   59.6330   33.5030   45.2350 O   0  0  0  0  0  0  0  0  0  0  0  0
   63.8990   33.5180   48.4910 N   0  0  0  0  0  0  0  0  0  0  0  0
   63.6990   33.7540   47.0800 C   0  0  0  0  0  0  0  0  0  0  0  0
   65.0510   33.0980   48.9910 N   0  0  0  0  0  0  0  0  0  0  0  0
   65.5860   32.6728   52.2867 H   0  0  0  0  0  0  0  0  0  0  0  0
   66.1425   31.4583   51.0858 H   0  0  0  0  0  0  0  0  0  0  0  0
   66.8483   33.1101   51.0858 H   0  0  0  0  0  0  0  0  0  0  0  0
   63.1504   33.3253   51.6671 H   0  0  0  0  0  0  0  0  0  0  0  0
   61.3180   34.5723   50.3560 H   0  0  0  0  0  0  0  0  0  0  0  0
   61.5009   34.7825   48.5325 H   0  0  0  0  0  0  0  0  0  0  0  0
   58.6103   32.6020   49.0428 H   0  0  0  0  0  0  0  0  0  0  0  0
   58.9859   34.2563   49.6111 H   0  0  0  0  0  0  0  0  0  0  0  0
   58.1482   34.3051   47.3069 H   0  0  0  0  0  0  0  0  0  0  0  0
   59.8955   34.7943   47.3730 H   0  0  0  0  0  0  0  0  0  0  0  0
   61.0663   31.4646   46.2208 H   0  0  0  0  0  0  0  0  0  0  0  0
   61.6083   33.1805   46.5745 H   0  0  0  0  0  0  0  0  0  0  0  0
   60.5630   31.1058   48.4860 H   0  0  0  0  0  0  0  0  0  0  0  0
   62.1834   31.9360   48.4299 H   0  0  0  0  0  0  0  0  0  0  0  0
   59.0139   30.8458   46.2185 H   0  0  0  0  0  0  0  0  0  0  0  0
   57.9250   31.7874   47.3239 H   0  0  0  0  0  0  0  0  0  0  0  0
   57.8035   30.7065   42.8888 H   0  0  0  0  0  0  0  0  0  0  0  0
   56.5627   28.2152   44.4145 H   0  0  0  0  0  0  0  0  0  0  0  0
   57.2657   27.7649   43.0903 H   0  0  0  0  0  0  0  0  0  0  0  0
   58.6418   29.0901   45.6441 H   0  0  0  0  0  0  0  0  0  0  0  0
   59.6998   28.7951   44.5479 H   0  0  0  0  0  0  0  0  0  0  0  0
   56.7359   33.4297   43.9961 H   0  0  0  0  0  0  0  0  0  0  0  0
   56.6112   33.8228   45.7506 H   0  0  0  0  0  0  0  0  0  0  0  0
   58.6319   34.5642   43.8396 H   0  0  0  0  0  0  0  0  0  0  0  0
   58.4125   35.0567   45.5785 H   0  0  0  0  0  0  0  0  0  0  0  0
   62.9933   34.5867   46.9439 H   0  0  0  0  0  0  0  0  0  0  0  0
   64.6609   34.0082   46.6108 H   0  0  0  0  0  0  0  0  0  0  0  0
   63.2905   32.8468   46.6108 H   0  0  0  0  0  0  0  0  0  0  0  0
  1  2  1  0
  2  3  1  0
  3  4  2  0
  4  5  1  0
  5  6  1  0
  6  7  1  0
  7  8  1  0
  8  9  1  0
  9 10  1  0
 10 11  1  0
  9 12  1  0
 12 13  1  0
 13 14  1  0
 14 15  2  0
 14 16  1  0
 16 17  1  0
 17 18  1  0
 13 19  1  0
 19 20  1  0
 20 21  1  0
  4 22  1  0
 22 23  1  0
 22 24  1  0
 24  2  2  0
 11  6  1  0
 18 16  1  0
 21  9  1  0
  1 25  1  0
  1 26  1  0
  1 27  1  0
  3 28  1  0
  5 29  1  0
  5 30  1  0
  7 31  1  0
  7 32  1  0
  8 33  1  0
  8 34  1  0
 10 35  1  0
 10 36  1  0
 11 37  1  0
 11 38  1  0
 12 39  1  0
 12 40  1  0
 16 41  1  0
 17 42  1  0
 17 43  1  0
 18 44  1  0
 18 45  1  0
 19 46  1  0
 19 47  1  0
 20 48  1  0
 20 49  1  0
 23 50  1  0
 23 51  1  0
 23 52  1  0
M  END
>  <smiles>  (10) 
Cc1cc(CN2CCC3(CC2)CN(C(=O)C2CC2)CCO3)n(C)n1

>  <score_type>  (10) 
oracle

>  <origin>  (10) 
adg

>  <m_score__min__energy>  (10) 
-8.0299999999999994

>  <m_primary>  (10) 
energy

$$$$
10:0
     RDKit          3D

 46 48  0  0  0  0  0  0  0  0999 V2000
   62.5200   31.7590   48.2020 C   0  0  0  0  0  0  0  0  0  0  0  0
   61.4720   32.5490   47.5830 N   0  0  0  0  0  0  0  0  0  0  0  0
   61.6590   33.1330   46.3930 N   0  0  0  0  0  0  0  0  0  0  0  0
   60.5740   33.8000   46.0280 C   0  0  0  0  0  0  0  0  0  0  0  0
   59.6570   33.6150   47.0570 C   0  0  0  0  0  0  0  0  0  0  0  0
   58.2930   34.1840   47.0450 C   0  0  0  0  0  0  0  0  0  0  0  0
   57.4710   33.2870   46.2410 N   0  0  0  0  0  0  0  0  0  0  0  0
   57.4210   33.7980   44.8800 C   0  0  0  0  0  0  0  0  0  0  0  0
   58.1290   32.7870   43.9720 C   0  0  0  0  0  0  0  0  0  0  0  0
   57.3830   31.5470   43.9530 N   0  0  0  0  0  0  0  0  0  0  0  0
   57.0670   30.9000   42.8100 C   0  0  0  0  0  0  0  0  0  0  0  0
   56.3560   29.7540   43.0930 C   0  0  0  0  0  0  0  0  0  0  0  0
   56.2580   29.7410   44.4870 C   0  0  0  0  0  0  0  0  0  0  0  0
   56.8890   30.8340   44.9480 N   0  0  0  0  0  0  0  0  0  0  0  0
   60.2310   32.8280   48.0310 C   0  0  0  0  0  0  0  0  0  0  0  0
   59.6900   32.3570   49.3220 C   0  0  0  0  0  0  0  0  0  0  0  0
   58.9230   31.0580   49.1160 C   0  0  0  0  0  0  0  0  0  0  0  0
   58.5160   30.8880   47.7530 N   0  0  0  0  0  0  0  0  0  0  0  0
   59.0270   30.0640   46.9300 C   0  0  0  0  0  0  0  0  0  0  0  0
   58.3940   28.8540   46.8410 N   0  0  0  0  0  0  0  0  0  0  0  0
   58.8550   27.9200   46.0040 C   0  0  0  0  0  0  0  0  0  0  0  0
   59.9680   28.1010   45.1960 C   0  0  0  0  0  0  0  0  0  0  0  0
   60.5930   29.3310   45.3020 C   0  0  0  0  0  0  0  0  0  0  0  0
   60.0950   30.2520   46.1620 N   0  0  0  0  0  0  0  0  0  0  0  0
   62.4315   31.8257   49.2964 H   0  0  0  0  0  0  0  0  0  0  0  0
   62.4208   30.7090   47.8894 H   0  0  0  0  0  0  0  0  0  0  0  0
   63.5021   32.1434   47.8894 H   0  0  0  0  0  0  0  0  0  0  0  0
   60.4288   34.3791   45.1041 H   0  0  0  0  0  0  0  0  0  0  0  0
   57.8981   34.2433   48.0700 H   0  0  0  0  0  0  0  0  0  0  0  0
   58.2928   35.2015   46.6271 H   0  0  0  0  0  0  0  0  0  0  0  0
   57.8560   32.3160   46.2590 H   0  0  0  0  0  0  0  0  0  0  0  0
   56.3743   33.9162   44.5632 H   0  0  0  0  0  0  0  0  0  0  0  0
   57.9151   34.7790   44.8202 H   0  0  0  0  0  0  0  0  0  0  0  0
   58.1916   33.1924   42.9514 H   0  0  0  0  0  0  0  0  0  0  0  0
   59.1425   32.5981   44.3555 H   0  0  0  0  0  0  0  0  0  0  0  0
   57.3381   31.2390   41.7993 H   0  0  0  0  0  0  0  0  0  0  0  0
   55.9559   29.0160   42.3821 H   0  0  0  0  0  0  0  0  0  0  0  0
   55.7556   28.9751   45.0961 H   0  0  0  0  0  0  0  0  0  0  0  0
   60.5189   32.1844   50.0242 H   0  0  0  0  0  0  0  0  0  0  0  0
   59.0106   33.1192   49.7312 H   0  0  0  0  0  0  0  0  0  0  0  0
   59.5687   30.2146   49.4021 H   0  0  0  0  0  0  0  0  0  0  0  0
   58.0178   31.0941   49.7400 H   0  0  0  0  0  0  0  0  0  0  0  0
   58.3245   26.9577   45.9530 H   0  0  0  0  0  0  0  0  0  0  0  0
   60.3304   27.3171   44.5148 H   0  0  0  0  0  0  0  0  0  0  0  0
   61.4825   29.5581   44.6960 H   0  0  0  0  0  0  0  0  0  0  0  0
   60.6140   31.1560   46.1900 H   0  0  0  0  0  0  0  0  0  0  0  0
  1  2  1  0
  2  3  1  0
  3  4  2  0
  4  5  1  0
  5  6  1  0
  6  7  1  0
  7  8  1  0
  8  9  1  0
  9 10  1  0
 10 11  1  0
 11 12  2  0
 12 13  1  0
 13 14  2  0
  5 15  2  0
 15 16  1  0
 16 17  1  0
 17 18  1  0
 18 19  2  3
 19 20  1  0
 20 21  2  0
 21 22  1  0
 22 23  2  0
 23 24  1  0
 15  2  1  0
 24 19  1  0
 14 10  1  0
  1 25  1  0
  1 26  1  0
  1 27  1  0
  4 28  1  0
  6 29  1  0
  6 30  1  0
  7 31  1  0
  8 32  1  0
  8 33  1  0
  9 34  1  0
  9 35  1  0
 11 36  1  0
 12 37  1  0
 13 38  1  0
 16 39  1  0
 16 40  1  0
 17 41  1  0
 17 42  1  0
 21 43  1  0
 22 44  1  0
 23 45  1  0
 24 46  1  0
M  END
>  <smiles>  (11) 
Cn1ncc(CNCCn2cccn2)c1CCN=c1nccc[nH]1

>  <score_type>  (11) 
oracle

>  <origin>  (11) 
adg

>  <m_score__min__energy>  (11) 
-6.4100000000000001

>  <m_primary>  (11) 
energy

$$$$
11:0
     RDKit          3D

 34 37  0  0  0  0  0  0  0  0999 V2000
   59.3050   35.2960   47.0810 C   0  0  0  0  0  0  0  0  0  0  0  0
   59.5750   33.8510   46.8570 C   0  0  0  0  0  0  0  0  0  0  0  0
   58.7460   33.1590   46.0220 N   0  0  0  0  0  0  0  0  0  0  0  0
   58.9260   31.8500   45.7690 C   0  0  0  0  0  0  0  0  0  0  0  0
   59.9580   31.1360   46.3410 C   0  0  0  0  0  0  0  0  0  0  0  0
   60.7990   31.8320   47.1870 C   0  0  0  0  0  0  0  0  0  0  0  0
   61.8390   31.1350   47.7700 C   0  0  0  0  0  0  0  0  0  0  0  0
   62.6770   31.8470   48.6180 C   0  0  0  0  0  0  0  0  0  0  0  0
   62.4780   33.1560   48.8560 N   0  0  0  0  0  0  0  0  0  0  0  0
   63.3970   33.8470   49.7600 C   0  0  0  0  0  0  0  0  0  0  0  0
   61.4750   33.8640   48.3050 C   0  0  0  0  0  0  0  0  0  0  0  0
   60.6220   33.1770   47.4520 C   0  0  0  0  0  0  0  0  0  0  0  0
   59.8860   29.7190   45.8660 C   0  0  0  0  0  0  0  0  0  0  0  0
   58.7010   29.7300   44.9680 C   0  0  0  0  0  0  0  0  0  0  0  0
   58.1320   28.6980   44.2290 C   0  0  0  0  0  0  0  0  0  0  0  0
   57.0210   28.9610   43.4620 C   0  0  0  0  0  0  0  0  0  0  0  0
   56.4270   30.2010   43.3790 C   0  0  0  0  0  0  0  0  0  0  0  0
   57.0050   31.2180   44.1210 C   0  0  0  0  0  0  0  0  0  0  0  0
   58.1350   30.9760   44.9080 C   0  0  0  0  0  0  0  0  0  0  0  0
   59.2671   35.4987   48.1615 H   0  0  0  0  0  0  0  0  0  0  0  0
   60.1069   35.8941   46.6236 H   0  0  0  0  0  0  0  0  0  0  0  0
   58.3412   35.5641   46.6236 H   0  0  0  0  0  0  0  0  0  0  0  0
   61.9964   30.0645   47.5716 H   0  0  0  0  0  0  0  0  0  0  0  0
   63.5186   31.3315   49.1038 H   0  0  0  0  0  0  0  0  0  0  0  0
   63.1151   33.6350   50.8019 H   0  0  0  0  0  0  0  0  0  0  0  0
   64.4233   33.4950   49.5790 H   0  0  0  0  0  0  0  0  0  0  0  0
   63.3438   34.9307   49.5790 H   0  0  0  0  0  0  0  0  0  0  0  0
   61.3378   34.9341   48.5198 H   0  0  0  0  0  0  0  0  0  0  0  0
   60.7967   29.4391   45.3162 H   0  0  0  0  0  0  0  0  0  0  0  0
   59.8036   28.9897   46.6853 H   0  0  0  0  0  0  0  0  0  0  0  0
   58.5641   27.6868   44.2576 H   0  0  0  0  0  0  0  0  0  0  0  0
   56.5824   28.1352   42.8826 H   0  0  0  0  0  0  0  0  0  0  0  0
   55.5381   30.3750   42.7548 H   0  0  0  0  0  0  0  0  0  0  0  0
   56.5698   32.2278   44.0907 H   0  0  0  0  0  0  0  0  0  0  0  0
  1  2  1  0
  2  3  2  0
  3  4  1  0
  4  5  2  0
  5  6  1  0
  6  7  2  0
  7  8  1  0
  8  9  2  0
  9 10  1  0
  9 11  1  0
 11 12  2  0
  5 13  1  0
 13 14  1  0
 14 15  2  0
 15 16  1  0
 16 17  2  0
 17 18  1  0
 18 19  2  0
 12  2  1  0
 19 14  1  0
 19  4  1  0
 12  6  1  0
  1 20  1  0
  1 21  1  0
  1 22  1  0
  7 23  1  0
  8 24  1  0
 10 25  1  0
 10 26  1  0
 10 27  1  0
 11 28  1  0
 13 29  1  0
 13 30  1  0
 15 31  1  0
 16 32  1  0
 17 33  1  0
 18 34  1  0
M  CHG  1   9   1
M  END
>  <smiles>  (12) 
Cc1nc2c(c3cc[n+](C)cc13)Cc1ccccc1-2

>  <score_type>  (12) 
oracle

>  <origin>  (12) 
adg

>  <m_score__min__energy>  (12) 
-5.7300000000000004

>  <m_primary>  (12) 
energy

$$$$
12:0
     RDKit          3D

 42 43  0  0  0  0  0  0  0  0999 V2000
   62.8060   31.6030   47.5130 C   0  0  0  0  0  0  0  0  0  0  0  0
   61.8150   32.3780   48.3330 C   0  0  0  0  0  0  0  0  0  0  0  0
   61.5480   33.6930   47.8520 N   0  0  0  0  0  0  0  0  0  0  0  0
   61.5230   33.8610   46.4390 C   0  0  0  0  0  0  0  0  0  0  0  0
   60.1570   34.3980   45.9940 C   0  0  0  0  0  0  0  0  0  0  0  0
   59.1210   33.5340   46.5030 N   0  0  0  0  0  0  0  0  0  0  0  0
   57.8120   33.9520   46.1010 C   0  0  0  0  0  0  0  0  0  0  0  0
   57.3940   33.4070   44.7470 C   0  0  0  0  0  0  0  0  0  0  0  0
   57.3680   31.9120   44.8760 C   0  0  0  0  0  0  0  0  0  0  0  0
   56.2910   31.2580   44.7440 O   0  0  0  0  0  0  0  0  0  0  0  0
   58.5870   31.2110   45.1530 N   0  0  0  0  0  0  0  0  0  0  0  0
   58.5950   29.7980   45.2820 C   0  0  0  0  0  0  0  0  0  0  0  0
   58.1740   28.9390   44.2860 C   0  0  0  0  0  0  0  0  0  0  0  0
   58.2250   27.5690   44.5230 C   0  0  0  0  0  0  0  0  0  0  0  0
   58.6770   27.0330   45.7050 C   0  0  0  0  0  0  0  0  0  0  0  0
   58.7460   25.1540   46.0160 Br  0  0  0  0  0  0  0  0  0  0  0  0
   59.0940   27.9140   46.6890 C   0  0  0  0  0  0  0  0  0  0  0  0
   59.0580   29.2830   46.4920 C   0  0  0  0  0  0  0  0  0  0  0  0
   59.1620   33.4280   47.9370 C   0  0  0  0  0  0  0  0  0  0  0  0
   60.3360   34.1880   48.4660 C   0  0  0  0  0  0  0  0  0  0  0  0
   63.4941   31.0649   48.1816 H   0  0  0  0  0  0  0  0  0  0  0  0
   62.2716   30.8807   46.8784 H   0  0  0  0  0  0  0  0  0  0  0  0
   63.3782   32.2957   46.8784 H   0  0  0  0  0  0  0  0  0  0  0  0
   60.8681   31.8184   48.3463 H   0  0  0  0  0  0  0  0  0  0  0  0
   62.2601   32.4953   49.3321 H   0  0  0  0  0  0  0  0  0  0  0  0
   62.3073   34.5735   46.1438 H   0  0  0  0  0  0  0  0  0  0  0  0
   61.7001   32.8875   45.9584 H   0  0  0  0  0  0  0  0  0  0  0  0
   60.0150   35.4150   46.3883 H   0  0  0  0  0  0  0  0  0  0  0  0
   60.1099   34.4252   44.8953 H   0  0  0  0  0  0  0  0  0  0  0  0
   57.0889   33.6062   46.8543 H   0  0  0  0  0  0  0  0  0  0  0  0
   57.8329   35.0486   46.0171 H   0  0  0  0  0  0  0  0  0  0  0  0
   56.3954   33.7822   44.4787 H   0  0  0  0  0  0  0  0  0  0  0  0
   58.0921   33.7251   43.9587 H   0  0  0  0  0  0  0  0  0  0  0  0
   59.4570   31.8030   45.2540 H   0  0  0  0  0  0  0  0  0  0  0  0
   57.8062   29.3296   43.3257 H   0  0  0  0  0  0  0  0  0  0  0  0
   57.8889   26.8850   43.7297 H   0  0  0  0  0  0  0  0  0  0  0  0
   59.4614   27.5171   47.6469 H   0  0  0  0  0  0  0  0  0  0  0  0
   59.3939   29.9635   47.2883 H   0  0  0  0  0  0  0  0  0  0  0  0
   58.2361   33.8441   48.3609 H   0  0  0  0  0  0  0  0  0  0  0  0
   59.2557   32.3695   48.2211 H   0  0  0  0  0  0  0  0  0  0  0  0
   60.2166   35.2562   48.2323 H   0  0  0  0  0  0  0  0  0  0  0  0
   60.3971   34.0554   49.5563 H   0  0  0  0  0  0  0  0  0  0  0  0
  1  2  1  0
  2  3  1  0
  3  4  1  0
  4  5  1  0
  5  6  1  0
  6  7  1  0
  7  8  1  0
  8  9  1  0
  9 10  2  0
  9 11  1  0
 11 12  1  0
 12 13  2  0
 13 14  1  0
 14 15  2  0
 15 16  1  0
 15 17  1  0
 17 18  2  0
  6 19  1  0
 19 20  1  0
 20  3  1  0
 18 12  1  0
  1 21  1  0
  1 22  1  0
  1 23  1  0
  2 24  1  0
  2 25  1  0
  4 26  1  0
  4 27  1  0
  5 28  1  0
  5 29  1  0
  7 30  1  0
  7 31  1  0
  8 32  1  0
  8 33  1  0
 11 34  1  0
 13 35  1  0
 14 36  1  0
 17 37  1  0
 18 38  1  0
 19 39  1  0
 19 40  1  0
 20 41  1  0
 20 42  1  0
M  END
>  <smiles>  (13) 
CCN1CCN(CCC(=O)Nc2ccc(Br)cc2)CC1

>  <score_type>  (13) 
oracle

>  <origin>  (13) 
adg

>  <m_score__min__energy>  (13) 
-7.3399999999999999

>  <m_primary>  (13) 
energy

$$$$
13:0
     RDKit          3D

 36 37  0  0  1  0  0  0  0  0999 V2000
   56.9800   24.2340   43.3820 C   0  0  0  0  0  0  0  0  0  0  0  0
   57.2120   23.6960   44.7380 C   0  0  0  0  0  0  0  0  0  0  0  0
   57.1260   24.3740   45.8600 C   0  0  0  0  0  0  0  0  0  0  0  0
   57.1570   25.8500   45.9520 C   0  0  0  0  0  0  0  0  0  0  0  0
   58.3710   26.3810   45.4250 N   0  0  0  0  0  0  0  0  0  0  0  0
   59.5080   26.1770   46.2490 C   0  0  0  0  0  0  0  0  0  0  0  0
   59.5110   26.9780   47.5150 C   0  0  0  0  0  0  0  0  0  0  0  0
   58.5270   28.1010   47.5620 C   0  0  0  0  0  0  0  0  0  0  0  0
   58.8690   29.2660   46.6670 C   0  0  0  0  0  0  0  0  0  0  0  0
   59.3100   28.6690   45.3520 C   0  0  0  0  0  0  0  0  0  0  0  0
   58.2420   27.7180   44.9110 C   0  0  2  0  0  0  0  0  0  0  0  0
   56.9670   28.3300   45.3220 N   0  0  0  0  0  0  0  0  0  0  0  0
   56.6240   29.3510   44.3640 C   0  0  0  0  0  0  0  0  0  0  0  0
   55.8660   30.3420   44.5280 O   0  0  0  0  0  0  0  0  0  0  0  0
   57.3420   28.9780   43.1850 N   0  0  0  0  0  0  0  0  0  0  0  0
   58.0800   27.7850   43.4340 C   0  0  0  0  0  0  0  0  0  0  0  0
   58.4960   26.9710   42.5530 O   0  0  0  0  0  0  0  0  0  0  0  0
   56.5454   25.2417   43.4568 H   0  0  0  0  0  0  0  0  0  0  0  0
   57.9356   24.2861   42.8397 H   0  0  0  0  0  0  0  0  0  0  0  0
   56.2862   23.5748   42.8397 H   0  0  0  0  0  0  0  0  0  0  0  0
   57.4809   22.6322   44.8153 H   0  0  0  0  0  0  0  0  0  0  0  0
   57.0239   23.8047   46.7957 H   0  0  0  0  0  0  0  0  0  0  0  0
   56.3102   26.2615   45.3831 H   0  0  0  0  0  0  0  0  0  0  0  0
   57.0893   26.1312   47.0133 H   0  0  0  0  0  0  0  0  0  0  0  0
   59.5509   25.1110   46.5171 H   0  0  0  0  0  0  0  0  0  0  0  0
   60.3796   26.5102   45.6666 H   0  0  0  0  0  0  0  0  0  0  0  0
   59.2887   26.2962   48.3491 H   0  0  0  0  0  0  0  0  0  0  0  0
   60.5061   27.4425   47.5788 H   0  0  0  0  0  0  0  0  0  0  0  0
   57.5444   27.7106   47.2584 H   0  0  0  0  0  0  0  0  0  0  0  0
   58.5359   28.4837   48.5932 H   0  0  0  0  0  0  0  0  0  0  0  0
   57.9864   29.9056   46.5189 H   0  0  0  0  0  0  0  0  0  0  0  0
   59.6577   29.8933   47.1080 H   0  0  0  0  0  0  0  0  0  0  0  0
   59.4383   29.4639   44.6026 H   0  0  0  0  0  0  0  0  0  0  0  0
   60.2716   28.1471   45.4657 H   0  0  0  0  0  0  0  0  0  0  0  0
   56.3880   28.0760   46.1700 H   0  0  0  0  0  0  0  0  0  0  0  0
   57.3390   29.4940   42.2660 H   0  0  0  0  0  0  0  0  0  0  0  0
  1  2  1  0
  2  3  2  0
  3  4  1  0
  4  5  1  0
  5  6  1  0
  6  7  1  0
  7  8  1  0
  8  9  1  0
  9 10  1  0
 10 11  1  0
 11 12  1  1
 12 13  1  0
 13 14  2  0
 13 15  1  0
 15 16  1  0
 16 17  2  0
 11  5  1  0
 16 11  1  0
  1 18  1  0
  1 19  1  0
  1 20  1  0
  2 21  1  0
  3 22  1  0
  4 23  1  0
  4 24  1  0
  6 25  1  0
  6 26  1  0
  7 27  1  0
  7 28  1  0
  8 29  1  0
  8 30  1  0
  9 31  1  0
  9 32  1  0
 10 33  1  0
 10 34  1  0
 12 35  1  0
 15 36  1  0
M  END
>  <smiles>  (14) 
CC=CCN1CCCCCC12NC(=O)NC2=O

>  <score_type>  (14) 
oracle

>  <origin>  (14) 
adg

>  <m_score__min__energy>  (14) 
-5.1299999999999999

>  <m_primary>  (14) 
energy

$$$$
14:0
     RDKit          3D

 58 61  0  0  1  0  0  0  0  0999 V2000
   61.5920   29.3330   50.5520 C   0  0  0  0  0  0  0  0  0  0  0  0
   61.7350   30.5060   49.6990 N   0  0  0  0  0  0  0  0  0  0  0  0
   62.9850   31.0270   49.6520 C   0  0  0  0  0  0  0  0  0  0  0  0
   63.1510   32.1020   48.8900 N   0  0  0  0  0  0  0  0  0  0  0  0
   62.1260   32.6430   48.2150 C   0  0  0  0  0  0  0  0  0  0  0  0
   62.1910   34.0950   47.1400 S   0  0  0  0  0  0  0  0  0  0  0  0
   60.4330   33.9890   46.7900 C   0  0  0  0  0  0  0  0  0  0  0  0
   59.9200   32.8680   47.5080 C   0  0  0  0  0  0  0  0  0  0  0  0
   60.8150   32.1890   48.2100 C   0  0  0  0  0  0  0  0  0  0  0  0
   60.7020   31.0450   49.0090 C   0  0  0  0  0  0  0  0  0  0  0  0
   59.7280   30.3370   48.8380 N   0  0  0  0  0  0  0  0  0  0  0  0
   58.9560   29.4170   49.4290 C   0  0  0  0  0  0  0  0  0  0  0  0
   58.8750   28.3160   48.2260 C   0  0  0  0  0  0  0  0  0  0  0  0
   59.6630   28.7970   47.1580 N   0  0  0  0  0  0  0  0  0  0  0  0
   59.7670   27.9330   46.0100 C   0  0  0  0  0  0  0  0  0  0  0  0
   59.6350   28.7850   44.7480 C   0  0  0  0  0  0  0  0  0  0  0  0
   58.4140   29.5530   44.7980 N   0  0  0  0  0  0  0  0  0  0  0  0
   57.2970   28.6980   44.9090 C   0  0  0  0  0  0  0  0  0  0  0  0
   56.0470   29.3260   44.4090 C   0  0  0  0  0  0  0  0  0  0  0  0
   56.1360   30.6900   44.5050 O   0  0  0  0  0  0  0  0  0  0  0  0
   57.0640   31.2070   43.6030 C   0  0  0  0  0  0  0  0  0  0  0  0
   58.4020   30.5160   43.7340 C   0  0  0  0  0  0  0  0  0  0  0  0
   58.3940   32.8930   47.6220 C   0  0  0  0  0  0  0  0  0  0  0  0
   57.7370   32.7040   46.2280 C   0  0  0  0  0  0  0  0  0  0  0  0
   57.6130   34.0490   45.5560 C   0  0  0  0  0  0  0  0  0  0  0  0
   58.9050   34.4350   44.8750 C   0  0  0  0  0  0  0  0  0  0  0  0
   59.8990   34.9610   45.8810 C   0  0  0  0  0  0  0  0  0  0  0  0
   61.6295   29.6404   51.6075 H   0  0  0  0  0  0  0  0  0  0  0  0
   60.6277   28.8453   50.3462 H   0  0  0  0  0  0  0  0  0  0  0  0
   62.4108   28.6279   50.3462 H   0  0  0  0  0  0  0  0  0  0  0  0
   63.8187   30.5828   50.2156 H   0  0  0  0  0  0  0  0  0  0  0  0
   59.4291   29.0036   50.3319 H   0  0  0  0  0  0  0  0  0  0  0  0
   57.9849   29.7851   49.7917 H   0  0  0  0  0  0  0  0  0  0  0  0
   59.2654   27.3487   48.5751 H   0  0  0  0  0  0  0  0  0  0  0  0
   57.8335   28.1693   47.9041 H   0  0  0  0  0  0  0  0  0  0  0  0
   59.2420   29.6950   46.8180 H   0  0  0  0  0  0  0  0  0  0  0  0
   60.7430   27.4256   46.0147 H   0  0  0  0  0  0  0  0  0  0  0  0
   58.9718   27.1735   46.0368 H   0  0  0  0  0  0  0  0  0  0  0  0
   60.4935   29.4693   44.6787 H   0  0  0  0  0  0  0  0  0  0  0  0
   59.6120   28.1261   43.8675 H   0  0  0  0  0  0  0  0  0  0  0  0
   57.4915   27.7862   44.3252 H   0  0  0  0  0  0  0  0  0  0  0  0
   57.1538   28.4727   45.9761 H   0  0  0  0  0  0  0  0  0  0  0  0
   55.8936   29.0443   43.3568 H   0  0  0  0  0  0  0  0  0  0  0  0
   55.1995   28.9762   45.0167 H   0  0  0  0  0  0  0  0  0  0  0  0
   56.6863   31.0652   42.5797 H   0  0  0  0  0  0  0  0  0  0  0  0
   57.2026   32.2760   43.8223 H   0  0  0  0  0  0  0  0  0  0  0  0
   58.6290   30.0018   42.7885 H   0  0  0  0  0  0  0  0  0  0  0  0
   59.1564   31.2827   43.9645 H   0  0  0  0  0  0  0  0  0  0  0  0
   58.0682   32.0804   48.2880 H   0  0  0  0  0  0  0  0  0  0  0  0
   58.0855   33.8670   48.0295 H   0  0  0  0  0  0  0  0  0  0  0  0
   58.3625   32.0407   45.6126 H   0  0  0  0  0  0  0  0  0  0  0  0
   56.7400   32.2543   46.3454 H   0  0  0  0  0  0  0  0  0  0  0  0
   56.8103   34.0034   44.8053 H   0  0  0  0  0  0  0  0  0  0  0  0
   57.3816   34.8036   46.3222 H   0  0  0  0  0  0  0  0  0  0  0  0
   59.3289   33.5510   44.3762 H   0  0  0  0  0  0  0  0  0  0  0  0
   58.6953   35.2240   44.1377 H   0  0  0  0  0  0  0  0  0  0  0  0
   60.7396   35.4039   45.3267 H   0  0  0  0  0  0  0  0  0  0  0  0
   59.3467   35.6821   46.5014 H   0  0  0  0  0  0  0  0  0  0  0  0
  1  2  1  0
  2  3  1  0
  3  4  2  0
  4  5  1  0
  5  6  1  0
  6  7  1  0
  7  8  2  0
  8  9  1  0
  9 10  1  0
 10 11  2  0
 11 12  1  0
 12 13  1  0
 13 14  1  0
 14 15  1  0
 15 16  1  0
 16 17  1  0
 17 18  1  0
 18 19  1  0
 19 20  1  0
 20 21  1  0
 21 22  1  0
  8 23  1  0
 23 24  1  0
 24 25  1  0
 25 26  1  0
 26 27  1  0
 10  2  1  0
 22 17  1  0
  9  5  2  0
 27  7  1  0
  1 28  1  0
  1 29  1  0
  1 30  1  0
  3 31  1  0
 12 32  1  0
 12 33  1  0
 13 34  1  0
 13 35  1  0
 14 36  1  0
 15 37  1  0
 15 38  1  0
 16 39  1  0
 16 40  1  0
 18 41  1  0
 18 42  1  0
 19 43  1  0
 19 44  1  0
 21 45  1  0
 21 46  1  0
 22 47  1  0
 22 48  1  0
 23 49  1  0
 23 50  1  0
 24 51  1  0
 24 52  1  0
 25 53  1  0
 25 54  1  0
 26 55  1  0
 26 56  1  0
 27 57  1  0
 27 58  1  0
M  END
>  <smiles>  (15) 
Cn1cnc2sc3c(c2c1=NCCNCCN1CCOCC1)CCCCC3

>  <score_type>  (15) 
oracle

>  <origin>  (15) 
adg

>  <m_score__min__energy>  (15) 
-5.9199999999999999

>  <m_primary>  (15) 
energy

$$$$
16:0
     RDKit          3D

 67 69  0  0  0  0  0  0  0  0999 V2000
   59.4160   34.5220   47.8970 C   0  0  0  0  0  0  0  0  0  0  0  0
   58.8630   33.1420   48.1590 C   0  0  0  0  0  0  0  0  0  0  0  0
   58.2660   32.5580   47.0450 O   0  0  0  0  0  0  0  0  0  0  0  0
   57.6940   33.5080   46.2110 C   0  0  0  0  0  0  0  0  0  0  0  0
   58.4820   33.5500   44.8920 C   0  0  0  0  0  0  0  0  0  0  0  0
   58.0300   32.3320   44.1230 C   0  0  0  0  0  0  0  0  0  0  0  0
   57.0050   31.6470   44.8680 N   0  0  0  0  0  0  0  0  0  0  0  0
   56.2330   30.8050   44.0270 C   0  0  0  0  0  0  0  0  0  0  0  0
   56.1600   29.3540   44.4690 C   0  0  0  0  0  0  0  0  0  0  0  0
   56.8180   29.0330   45.6010 O   0  0  0  0  0  0  0  0  0  0  0  0
   57.2650   27.7710   45.8010 C   0  0  0  0  0  0  0  0  0  0  0  0
   58.6830   27.4860   45.3450 C   0  0  0  0  0  0  0  0  0  0  0  0
   59.0670   28.4350   44.4520 O   0  0  0  0  0  0  0  0  0  0  0  0
   59.6610   29.5680   44.8790 C   0  0  0  0  0  0  0  0  0  0  0  0
   60.6520   29.4440   46.0010 C   0  0  0  0  0  0  0  0  0  0  0  0
   60.4220   30.5760   46.8970 N   0  0  0  0  0  0  0  0  0  0  0  0
   61.2470   30.8220   48.0100 C   0  0  0  0  0  0  0  0  0  0  0  0
   61.2790   30.0920   49.1680 C   0  0  0  0  0  0  0  0  0  0  0  0
   60.4410   29.0010   49.2630 C   0  0  0  0  0  0  0  0  0  0  0  0
   60.4620   28.2510   50.4280 C   0  0  0  0  0  0  0  0  0  0  0  0
   61.3110   28.6080   51.4580 C   0  0  0  0  0  0  0  0  0  0  0  0
   62.1440   29.7140   51.3360 C   0  0  0  0  0  0  0  0  0  0  0  0
   62.1390   30.4730   50.1850 C   0  0  0  0  0  0  0  0  0  0  0  0
   62.9590   31.5310   50.1080 N   0  0  0  0  0  0  0  0  0  0  0  0
   63.8650   31.9650   51.1190 C   0  0  0  0  0  0  0  0  0  0  0  0
   62.9340   32.2680   48.9550 C   0  0  0  0  0  0  0  0  0  0  0  0
   63.7330   33.3760   48.7830 C   0  0  0  0  0  0  0  0  0  0  0  0
   63.7270   34.1420   47.6320 C   0  0  0  0  0  0  0  0  0  0  0  0
   62.8890   33.8010   46.5950 C   0  0  0  0  0  0  0  0  0  0  0  0
   62.0860   32.7080   46.7410 C   0  0  0  0  0  0  0  0  0  0  0  0
   62.0970   31.9350   47.9090 C   0  0  0  0  0  0  0  0  0  0  0  0
   59.6173   35.0243   48.8547 H   0  0  0  0  0  0  0  0  0  0  0  0
   60.3505   34.4396   47.3227 H   0  0  0  0  0  0  0  0  0  0  0  0
   58.6831   35.1077   47.3227 H   0  0  0  0  0  0  0  0  0  0  0  0
   59.6880   32.4944   48.4905 H   0  0  0  0  0  0  0  0  0  0  0  0
   58.0802   33.2491   48.9244 H   0  0  0  0  0  0  0  0  0  0  0  0
   56.6471   33.2386   46.0075 H   0  0  0  0  0  0  0  0  0  0  0  0
   57.7233   34.4954   46.6948 H   0  0  0  0  0  0  0  0  0  0  0  0
   58.2492   34.4680   44.3325 H   0  0  0  0  0  0  0  0  0  0  0  0
   59.5688   33.5495   45.0618 H   0  0  0  0  0  0  0  0  0  0  0  0
   57.6284   32.6426   43.1472 H   0  0  0  0  0  0  0  0  0  0  0  0
   58.8849   31.6570   43.9696 H   0  0  0  0  0  0  0  0  0  0  0  0
   57.5500   31.0880   45.6030 H   0  0  0  0  0  0  0  0  0  0  0  0
   55.2084   31.2036   43.9920 H   0  0  0  0  0  0  0  0  0  0  0  0
   56.7335   30.8045   43.0474 H   0  0  0  0  0  0  0  0  0  0  0  0
   55.0992   29.1035   44.6174 H   0  0  0  0  0  0  0  0  0  0  0  0
   56.6592   28.7831   43.6722 H   0  0  0  0  0  0  0  0  0  0  0  0
   57.2103   27.5619   46.8796 H   0  0  0  0  0  0  0  0  0  0  0  0
   56.6208   27.1278   45.1835 H   0  0  0  0  0  0  0  0  0  0  0  0
   59.3585   27.5034   46.2129 H   0  0  0  0  0  0  0  0  0  0  0  0
   58.7250   26.4947   44.8700 H   0  0  0  0  0  0  0  0  0  0  0  0
   60.1876   30.0093   44.0200 H   0  0  0  0  0  0  0  0  0  0  0  0
   58.8435   30.1787   45.2897 H   0  0  0  0  0  0  0  0  0  0  0  0
   60.4972   28.4975   46.5397 H   0  0  0  0  0  0  0  0  0  0  0  0
   61.6832   29.4478   45.6181 H   0  0  0  0  0  0  0  0  0  0  0  0
   59.6290   31.2500   46.7420 H   0  0  0  0  0  0  0  0  0  0  0  0
   59.7711   28.7322   48.4329 H   0  0  0  0  0  0  0  0  0  0  0  0
   59.8053   27.3748   50.5324 H   0  0  0  0  0  0  0  0  0  0  0  0
   61.3278   28.0119   52.3823 H   0  0  0  0  0  0  0  0  0  0  0  0
   62.8134   29.9862   52.1654 H   0  0  0  0  0  0  0  0  0  0  0  0
   63.4346   31.7588   52.1101 H   0  0  0  0  0  0  0  0  0  0  0  0
   64.8178   31.4256   51.0136 H   0  0  0  0  0  0  0  0  0  0  0  0
   64.0418   33.0456   51.0136 H   0  0  0  0  0  0  0  0  0  0  0  0
   64.4089   33.6659   49.6010 H   0  0  0  0  0  0  0  0  0  0  0  0
   64.3872   35.0176   47.5458 H   0  0  0  0  0  0  0  0  0  0  0  0
   62.8672   34.3959   45.6700 H   0  0  0  0  0  0  0  0  0  0  0  0
   61.4115   32.4260   45.9191 H   0  0  0  0  0  0  0  0  0  0  0  0
  1  2  1  0
  2  3  1  0
  3  4  1  0
  4  5  1  0
  5  6  1  0
  6  7  1  0
  7  8  1  0
  8  9  1  0
  9 10  1  0
 10 11  1  0
 11 12  1  0
 12 13  1  0
 13 14  1  0
 14 15  1  0
 15 16  1  0
 16 17  1  0
 17 18  2  0
 18 19  1  0
 19 20  2  0
 20 21  1  0
 21 22  2  0
 22 23  1  0
 23 24  2  0
 24 25  1  0
 24 26  1  0
 26 27  2  0
 27 28  1  0
 28 29  2  0
 29 30  1  0
 30 31  2  0
 31 17  1  0
 23 18  1  0
 31 26  1  0
  1 32  1  0
  1 33  1  0
  1 34  1  0
  2 35  1  0
  2 36  1  0
  4 37  1  0
  4 38  1  0
  5 39  1  0
  5 40  1  0
  6 41  1  0
  6 42  1  0
  7 43  1  0
  8 44  1  0
  8 45  1  0
  9 46  1  0
  9 47  1  0
 11 48  1  0
 11 49  1  0
 12 50  1  0
 12 51  1  0
 14 52  1  0
 14 53  1  0
 15 54  1  0
 15 55  1  0
 16 56  1  0
 19 57  1  0
 20 58  1  0
 21 59  1  0
 22 60  1  0
 25 61  1  0
 25 62  1  0
 25 63  1  0
 27 64  1  0
 28 65  1  0
 29 66  1  0
 30 67  1  0
M  CHG  1  24   1
M  END
>  <smiles>  (16) 
CCOCCCNCCOCCOCCNc1c2ccccc2[n+](C)c2ccccc12

>  <score_type>  (16) 
oracle

>  <origin>  (16) 
adg

>  <m_score__min__energy>  (16) 
-6.3899999999999997

>  <m_primary>  (16) 
energy

$$$$
17:0
     RDKit          3D

 56 57  0  0  0  0  0  0  0  0999 V2000
   57.1220   34.3760   44.8780 C   0  0  0  0  0  0  0  0  0  0  0  0
   56.8010   33.1000   45.6490 C   0  0  0  0  0  0  0  0  0  0  0  0
   57.9420   32.1860   45.5560 N   0  0  0  0  0  0  0  0  0  0  0  0
   58.4630   32.2420   44.2340 C   0  0  0  0  0  0  0  0  0  0  0  0
   58.1200   31.0290   43.4590 C   0  0  0  0  0  0  0  0  0  0  0  0
   56.6720   30.8750   43.2090 C   0  0  0  0  0  0  0  0  0  0  0  0
   55.9060   29.9970   44.1350 C   0  0  0  0  0  0  0  0  0  0  0  0
   56.6110   29.5150   45.2060 O   0  0  0  0  0  0  0  0  0  0  0  0
   56.7530   28.1420   45.2660 C   0  0  0  0  0  0  0  0  0  0  0  0
   58.1590   27.6950   45.4640 C   0  0  0  0  0  0  0  0  0  0  0  0
   58.7470   28.1050   46.7970 C   0  0  0  0  0  0  0  0  0  0  0  0
   59.4860   29.3940   46.7070 C   0  0  0  0  0  0  0  0  0  0  0  0
   58.8830   30.4710   47.4030 N   0  0  0  0  0  0  0  0  0  0  0  0
   59.2750   30.7170   48.7450 C   0  0  0  0  0  0  0  0  0  0  0  0
   59.0690   32.1480   49.2120 C   0  0  0  0  0  0  0  0  0  0  0  0
   59.7820   33.0510   48.2220 C   0  0  0  0  0  0  0  0  0  0  0  0
   59.0280   34.0930   47.6350 C   0  0  0  0  0  0  0  0  0  0  0  0
   60.1830   34.9520   46.5220 S   0  0  0  0  0  0  0  0  0  0  0  0
   61.6260   33.8060   46.9510 C   0  0  0  0  0  0  0  0  0  0  0  0
   62.8840   33.8410   46.4780 C   0  0  0  0  0  0  0  0  0  0  0  0
   63.7770   32.8820   46.9490 C   0  0  0  0  0  0  0  0  0  0  0  0
   63.2740   31.9910   47.8570 C   0  0  0  0  0  0  0  0  0  0  0  0
   61.9910   31.9730   48.3260 C   0  0  0  0  0  0  0  0  0  0  0  0
   61.0600   32.9410   47.8600 C   0  0  0  0  0  0  0  0  0  0  0  0
   57.3271   35.1913   45.5874 H   0  0  0  0  0  0  0  0  0  0  0  0
   58.0062   34.2094   44.2452 H   0  0  0  0  0  0  0  0  0  0  0  0
   56.2642   34.6477   44.2452 H   0  0  0  0  0  0  0  0  0  0  0  0
   56.6099   33.3450   46.7042 H   0  0  0  0  0  0  0  0  0  0  0  0
   55.9070   32.6227   45.2213 H   0  0  0  0  0  0  0  0  0  0  0  0
   57.6210   31.2140   45.7750 H   0  0  0  0  0  0  0  0  0  0  0  0
   58.0448   33.1217   43.7229 H   0  0  0  0  0  0  0  0  0  0  0  0
   59.5590   32.3085   44.2998 H   0  0  0  0  0  0  0  0  0  0  0  0
   58.6367   31.0786   42.4892 H   0  0  0  0  0  0  0  0  0  0  0  0
   58.4370   30.1633   44.0590 H   0  0  0  0  0  0  0  0  0  0  0  0
   56.2208   31.8771   43.2558 H   0  0  0  0  0  0  0  0  0  0  0  0
   56.6072   30.3761   42.2308 H   0  0  0  0  0  0  0  0  0  0  0  0
   55.0532   30.5741   44.5221 H   0  0  0  0  0  0  0  0  0  0  0  0
   55.6126   29.1166   43.5444 H   0  0  0  0  0  0  0  0  0  0  0  0
   56.1476   27.7663   46.1041 H   0  0  0  0  0  0  0  0  0  0  0  0
   56.4213   27.7414   44.2967 H   0  0  0  0  0  0  0  0  0  0  0  0
   58.1872   26.5975   45.3951 H   0  0  0  0  0  0  0  0  0  0  0  0
   58.7632   28.1809   44.6837 H   0  0  0  0  0  0  0  0  0  0  0  0
   57.9312   28.2134   47.5269 H   0  0  0  0  0  0  0  0  0  0  0  0
   59.4585   27.3262   47.1088 H   0  0  0  0  0  0  0  0  0  0  0  0
   60.4941   29.2407   47.1196 H   0  0  0  0  0  0  0  0  0  0  0  0
   59.4924   29.6754   45.6436 H   0  0  0  0  0  0  0  0  0  0  0  0
   59.0530   31.3520   46.8530 H   0  0  0  0  0  0  0  0  0  0  0  0
   58.6901   30.0547   49.4002 H   0  0  0  0  0  0  0  0  0  0  0  0
   60.3572   30.5260   48.7936 H   0  0  0  0  0  0  0  0  0  0  0  0
   57.9954   32.3863   49.2338 H   0  0  0  0  0  0  0  0  0  0  0  0
   59.4693   32.2887   50.2269 H   0  0  0  0  0  0  0  0  0  0  0  0
   57.9694   34.3331   47.8131 H   0  0  0  0  0  0  0  0  0  0  0  0
   63.1965   34.5997   45.7454 H   0  0  0  0  0  0  0  0  0  0  0  0
   64.8232   32.8432   46.6115 H   0  0  0  0  0  0  0  0  0  0  0  0
   63.9613   31.2235   48.2424 H   0  0  0  0  0  0  0  0  0  0  0  0
   61.6803   31.2144   49.0595 H   0  0  0  0  0  0  0  0  0  0  0  0
  1  2  1  0
  2  3  1  0
  3  4  1  0
  4  5  1  0
  5  6  1  0
  6  7  1  0
  7  8  1  0
  8  9  1  0
  9 10  1  0
 10 11  1  0
 11 12  1  0
 12 13  1  0
 13 14  1  0
 14 15  1  0
 15 16  1  0
 16 17  2  0
 17 18  1  0
 18 19  1  0
 19 20  2  0
 20 21  1  0
 21 22  2  0
 22 23  1  0
 23 24  2  0
 24 16  1  0
 24 19  1  0
  1 25  1  0
  1 26  1  0
  1 27  1  0
  2 28  1  0
  2 29  1  0
  3 30  1  0
  4 31  1  0
  4 32  1  0
  5 33  1  0
  5 34  1  0
  6 35  1  0
  6 36  1  0
  7 37  1  0
  7 38  1  0
  9 39  1  0
  9 40  1  0
 10 41  1  0
 10 42  1  0
 11 43  1  0
 11 44  1  0
 12 45  1  0
 12 46  1  0
 13 47  1  0
 14 48  1  0
 14 49  1  0
 15 50  1  0
 15 51  1  0
 17 52  1  0
 20 53  1  0
 21 54  1  0
 22 55  1  0
 23 56  1  0
M  END
>  <smiles>  (17) 
CCNCCCCOCCCCNCCc1csc2ccccc12

>  <score_type>  (17) 
oracle

>  <origin>  (17) 
adg

>  <m_score__min__energy>  (17) 
-6.4699999999999998

>  <m_primary>  (17) 
energy

$$$$
18:0
     RDKit          3D

 50 52  0  0  0  0  0  0  0  0999 V2000
   63.3730   33.7670   46.7280 C   0  0  0  0  0  0  0  0  0  0  0  0
   63.5500   32.3130   47.0730 C   0  0  0  0  0  0  0  0  0  0  0  0
   63.0660   32.0910   48.3770 O   0  0  0  0  0  0  0  0  0  0  0  0
   63.7910   32.5860   49.4450 C   0  0  0  0  0  0  0  0  0  0  0  0
   64.9970   32.0810   49.8140 N   0  0  0  0  0  0  0  0  0  0  0  0
   65.6690   32.6060   50.8720 C   0  0  0  0  0  0  0  0  0  0  0  0
   65.1500   33.6650   51.6060 C   0  0  0  0  0  0  0  0  0  0  0  0
   63.9130   34.1920   51.2370 C   0  0  0  0  0  0  0  0  0  0  0  0
   63.2400   33.6500   50.1590 C   0  0  0  0  0  0  0  0  0  0  0  0
   61.9030   34.2220   49.7260 C   0  0  0  0  0  0  0  0  0  0  0  0
   60.8400   33.3800   50.0360 N   0  0  0  0  0  0  0  0  0  0  0  0
   60.9070   32.3390   50.9320 C   0  0  0  0  0  0  0  0  0  0  0  0
   60.1110   31.1090   50.8780 C   0  0  0  0  0  0  0  0  0  0  0  0
   60.6410   29.9940   50.0530 C   0  0  0  0  0  0  0  0  0  0  0  0
   60.9870   30.3780   48.7090 N   0  0  0  0  0  0  0  0  0  0  0  0
   60.1470   30.9940   47.7570 C   0  0  0  0  0  0  0  0  0  0  0  0
   59.1010   30.3880   47.1090 C   0  0  0  0  0  0  0  0  0  0  0  0
   58.3420   31.1390   46.2110 C   0  0  0  0  0  0  0  0  0  0  0  0
   57.3700   30.6110   45.5990 O   0  0  0  0  0  0  0  0  0  0  0  0
   58.5960   32.4560   45.9460 C   0  0  0  0  0  0  0  0  0  0  0  0
   57.8590   33.2260   45.0690 C   0  0  0  0  0  0  0  0  0  0  0  0
   58.1980   34.5720   44.8750 C   0  0  0  0  0  0  0  0  0  0  0  0
   59.2630   35.1360   45.5540 C   0  0  0  0  0  0  0  0  0  0  0  0
   60.0160   34.3650   46.4430 C   0  0  0  0  0  0  0  0  0  0  0  0
   59.6760   33.0290   46.6330 C   0  0  0  0  0  0  0  0  0  0  0  0
   60.4040   32.3050   47.4970 N   0  0  0  0  0  0  0  0  0  0  0  0
   63.3011   34.3573   47.6534 H   0  0  0  0  0  0  0  0  0  0  0  0
   64.2358   34.1118   46.1392 H   0  0  0  0  0  0  0  0  0  0  0  0
   62.4527   33.8947   46.1392 H   0  0  0  0  0  0  0  0  0  0  0  0
   62.9870   31.6931   46.3597 H   0  0  0  0  0  0  0  0  0  0  0  0
   64.6155   32.0446   47.0204 H   0  0  0  0  0  0  0  0  0  0  0  0
   66.6448   32.1833   51.1532 H   0  0  0  0  0  0  0  0  0  0  0  0
   65.7038   34.0795   52.4612 H   0  0  0  0  0  0  0  0  0  0  0  0
   63.4771   35.0313   51.7988 H   0  0  0  0  0  0  0  0  0  0  0  0
   61.7500   35.1856   50.2339 H   0  0  0  0  0  0  0  0  0  0  0  0
   61.9279   34.3417   48.6328 H   0  0  0  0  0  0  0  0  0  0  0  0
   59.9770   33.4780   49.4580 H   0  0  0  0  0  0  0  0  0  0  0  0
   61.9553   32.0064   50.9114 H   0  0  0  0  0  0  0  0  0  0  0  0
   60.4564   32.8181   51.8137 H   0  0  0  0  0  0  0  0  0  0  0  0
   60.0054   30.7375   51.9080 H   0  0  0  0  0  0  0  0  0  0  0  0
   59.1699   31.4012   50.3892 H   0  0  0  0  0  0  0  0  0  0  0  0
   61.5425   29.5980   50.5434 H   0  0  0  0  0  0  0  0  0  0  0  0
   59.8397   29.2444   49.9754 H   0  0  0  0  0  0  0  0  0  0  0  0
   61.9870   30.1930   48.3690 H   0  0  0  0  0  0  0  0  0  0  0  0
   58.8650   29.3297   47.2939 H   0  0  0  0  0  0  0  0  0  0  0  0
   57.0102   32.7856   44.5253 H   0  0  0  0  0  0  0  0  0  0  0  0
   57.6113   35.1860   44.1758 H   0  0  0  0  0  0  0  0  0  0  0  0
   59.5176   36.1940   45.3936 H   0  0  0  0  0  0  0  0  0  0  0  0
   60.8650   34.8074   46.9847 H   0  0  0  0  0  0  0  0  0  0  0  0
   61.2080   32.7930   47.9840 H   0  0  0  0  0  0  0  0  0  0  0  0
  1  2  1  0
  2  3  1  0
  3  4  1  0
  4  5  2  0
  5  6  1  0
  6  7  2  0
  7  8  1  0
  8  9  2  0
  9 10  1  0
 10 11  1  0
 11 12  1  0
 12 13  1  0
 13 14  1  0
 14 15  1  0
 15 16  1  0
 16 17  2  0
 17 18  1  0
 18 19  2  0
 18 20  1  0
 20 21  2  0
 21 22  1  0
 22 23  2  0
 23 24  1  0
 24 25  2  0
 25 26  1  0
  9  4  1  0
 26 16  1  0
 25 20  1  0
  1 27  1  0
  1 28  1  0
  1 29  1  0
  2 30  1  0
  2 31  1  0
  6 32  1  0
  7 33  1  0
  8 34  1  0
 10 35  1  0
 10 36  1  0
 11 37  1  0
 12 38  1  0
 12 39  1  0
 13 40  1  0
 13 41  1  0
 14 42  1  0
 14 43  1  0
 15 44  1  0
 17 45  1  0
 21 46  1  0
 22 47  1  0
 23 48  1  0
 24 49  1  0
 26 50  1  0
M  END
>  <smiles>  (18) 
CCOc1ncccc1CNCCCNc1cc(=O)c2ccccc2[nH]1

>  <score_type>  (18) 
oracle

>  <origin>  (18) 
adg

>  <m_score__min__energy>  (18) 
-7.5700000000000003

>  <m_primary>  (18) 
energy

$$$$
19:0
     RDKit          3D

 68 70  0  0  1  0  0  0  0  0999 V2000
   60.3770   33.8460   49.8270 C   0  0  0  0  0  0  0  0  0  0  0  0
   61.5480   33.8340   50.7680 C   0  0  0  0  0  0  0  0  0  0  0  0
   62.3910   32.6830   50.4820 N   0  0  0  0  0  0  0  0  0  0  0  0
   63.6000   32.8560   51.2950 C   0  0  0  0  0  0  0  0  0  0  0  0
   64.8610   32.7210   50.4570 C   0  0  0  0  0  0  0  0  0  0  0  0
   64.4730   32.4130   49.1130 O   0  0  0  0  0  0  0  0  0  0  0  0
   64.2730   33.4610   48.2490 N   0  0  0  0  0  0  0  0  0  0  0  0
   63.7190   33.1980   47.1150 C   0  0  0  0  0  0  0  0  0  0  0  0
   62.2770   33.4120   46.8330 C   0  0  0  0  0  0  0  0  0  0  0  0
   61.6380   32.0340   46.9510 C   0  0  0  0  0  0  0  0  0  0  0  0
   62.2570   31.2240   47.9840 N   0  0  0  0  0  0  0  0  0  0  0  0
   61.2880   30.5450   48.7800 C   0  0  0  0  0  0  0  0  0  0  0  0
   60.3170   29.6880   48.0670 C   0  0  0  0  0  0  0  0  0  0  0  0
   58.9790   30.1780   47.8660 N   0  0  0  0  0  0  0  0  0  0  0  0
   58.5140   30.6090   46.6130 C   0  0  0  0  0  0  0  0  0  0  0  0
   58.1940   29.5950   45.6940 C   0  0  0  0  0  0  0  0  0  0  0  0
   57.7380   29.8890   44.4250 C   0  0  0  0  0  0  0  0  0  0  0  0
   57.5780   31.1860   44.0110 N   0  0  0  0  0  0  0  0  0  0  0  0
   57.0940   31.4970   42.6850 C   0  0  0  0  0  0  0  0  0  0  0  0
   58.0890   32.2090   41.8220 C   0  0  0  0  0  0  0  0  0  0  0  0
   57.8810   32.1880   44.8900 C   0  0  0  0  0  0  0  0  0  0  0  0
   57.7370   33.5180   44.5560 C   0  0  0  0  0  0  0  0  0  0  0  0
   58.0260   34.5520   45.4350 C   0  0  0  0  0  0  0  0  0  0  0  0
   58.4760   34.2550   46.6980 C   0  0  0  0  0  0  0  0  0  0  0  0
   58.6180   32.9260   47.0210 C   0  0  0  0  0  0  0  0  0  0  0  0
   58.3440   31.8850   46.1750 C   0  0  0  0  0  0  0  0  0  0  0  0
   57.4000   28.8560   43.4140 C   0  0  0  0  0  0  0  0  0  0  0  0
   57.8820   27.4940   43.7720 C   0  0  0  0  0  0  0  0  0  0  0  0
   58.9290   27.4670   44.8680 C   0  0  0  0  0  0  0  0  0  0  0  0
   58.3160   28.1690   46.0600 C   0  0  0  0  0  0  0  0  0  0  0  0
   59.4416   33.8556   50.4058 H   0  0  0  0  0  0  0  0  0  0  0  0
   60.4252   34.7437   49.1931 H   0  0  0  0  0  0  0  0  0  0  0  0
   60.4068   32.9475   49.1931 H   0  0  0  0  0  0  0  0  0  0  0  0
   62.1320   34.7571   50.6378 H   0  0  0  0  0  0  0  0  0  0  0  0
   61.1839   33.7722   51.8042 H   0  0  0  0  0  0  0  0  0  0  0  0
   62.7200   32.7400   49.4820 H   0  0  0  0  0  0  0  0  0  0  0  0
   63.5816   33.8554   51.7541 H   0  0  0  0  0  0  0  0  0  0  0  0
   63.6125   32.0705   52.0650 H   0  0  0  0  0  0  0  0  0  0  0  0
   65.4234   33.6662   50.4751 H   0  0  0  0  0  0  0  0  0  0  0  0
   65.5022   31.9233   50.8602 H   0  0  0  0  0  0  0  0  0  0  0  0
   64.3503   32.7921   46.3108 H   0  0  0  0  0  0  0  0  0  0  0  0
   61.8390   34.1044   47.5670 H   0  0  0  0  0  0  0  0  0  0  0  0
   62.1139   33.8571   45.8404 H   0  0  0  0  0  0  0  0  0  0  0  0
   60.5717   32.1584   47.1911 H   0  0  0  0  0  0  0  0  0  0  0  0
   61.7770   31.5163   45.9904 H   0  0  0  0  0  0  0  0  0  0  0  0
   62.8940   31.7690   48.5720 H   0  0  0  0  0  0  0  0  0  0  0  0
   61.8316   29.9083   49.4936 H   0  0  0  0  0  0  0  0  0  0  0  0
   60.6840   31.3423   49.2378 H   0  0  0  0  0  0  0  0  0  0  0  0
   60.7383   29.4799   47.0724 H   0  0  0  0  0  0  0  0  0  0  0  0
   60.1867   28.8218   48.7324 H   0  0  0  0  0  0  0  0  0  0  0  0
   58.2990   30.2310   48.6650 H   0  0  0  0  0  0  0  0  0  0  0  0
   56.8177   30.5551   42.1885 H   0  0  0  0  0  0  0  0  0  0  0  0
   56.2392   32.1778   42.8111 H   0  0  0  0  0  0  0  0  0  0  0  0
   58.8188   32.7312   42.4581 H   0  0  0  0  0  0  0  0  0  0  0  0
   58.6123   31.4790   41.1869 H   0  0  0  0  0  0  0  0  0  0  0  0
   57.5669   32.9398   41.1869 H   0  0  0  0  0  0  0  0  0  0  0  0
   57.3770   33.7706   43.5478 H   0  0  0  0  0  0  0  0  0  0  0  0
   57.8960   35.5989   45.1234 H   0  0  0  0  0  0  0  0  0  0  0  0
   58.7133   35.0483   47.4221 H   0  0  0  0  0  0  0  0  0  0  0  0
   58.9775   32.6817   48.0315 H   0  0  0  0  0  0  0  0  0  0  0  0
   56.3060   28.8206   43.3049 H   0  0  0  0  0  0  0  0  0  0  0  0
   57.9038   29.1418   42.4788 H   0  0  0  0  0  0  0  0  0  0  0  0
   57.0184   26.9006   44.1068 H   0  0  0  0  0  0  0  0  0  0  0  0
   58.3611   27.0841   42.8707 H   0  0  0  0  0  0  0  0  0  0  0  0
   59.1824   26.4284   45.1268 H   0  0  0  0  0  0  0  0  0  0  0  0
   59.8567   27.9628   44.5463 H   0  0  0  0  0  0  0  0  0  0  0  0
   57.3240   27.7475   46.2798 H   0  0  0  0  0  0  0  0  0  0  0  0
   58.9384   28.0421   46.9580 H   0  0  0  0  0  0  0  0  0  0  0  0
  1  2  1  0
  2  3  1  0
  3  4  1  0
  4  5  1  0
  5  6  1  0
  6  7  1  0
  7  8  2  0
  8  9  1  0
  9 10  1  0
 10 11  1  0
 11 12  1  0
 12 13  1  0
 13 14  1  0
 14 15  1  0
 15 16  2  0
 16 17  1  0
 17 18  2  0
 18 19  1  0
 19 20  1  0
 18 21  1  0
 21 22  2  0
 22 23  1  0
 23 24  2  0
 24 25  1  0
 25 26  2  0
 17 27  1  0
 27 28  1  0
 28 29  1  0
 29 30  1  0
 26 15  1  0
 30 16  1  0
 26 21  1  0
  1 31  1  0
  1 32  1  0
  1 33  1  0
  2 34  1  0
  2 35  1  0
  3 36  1  0
  4 37  1  0
  4 38  1  0
  5 39  1  0
  5 40  1  0
  8 41  1  0
  9 42  1  0
  9 43  1  0
 10 44  1  0
 10 45  1  0
 11 46  1  0
 12 47  1  0
 12 48  1  0
 13 49  1  0
 13 50  1  0
 14 51  1  0
 19 52  1  0
 19 53  1  0
 20 54  1  0
 20 55  1  0
 20 56  1  0
 22 57  1  0
 23 58  1  0
 24 59  1  0
 25 60  1  0
 27 61  1  0
 27 62  1  0
 28 63  1  0
 28 64  1  0
 29 65  1  0
 29 66  1  0
 30 67  1  0
 30 68  1  0
M  CHG  1  18   1
M  END
>  <smiles>  (19) 
CCNCCON=CCCNCCNc1c2c([n+](CC)c3ccccc13)CCCC2

>  <score_type>  (19) 
oracle

>  <origin>  (19) 
adg

>  <m_score__min__energy>  (19) 
-6.3899999999999997

>  <m_primary>  (19) 
energy

$$$$
