0:0
     RDKit          3D

 62 65  0  0  0  0  0  0  0  0999 V2000
   58.9280   27.4600   43.4680 C   0  0  0  0  0  0  0  0  0  0  0  0
   59.6420   28.3890   44.4420 C   0  0  0  0  0  0  0  0  0  0  0  0
   58.9910   28.3860   45.7600 N   0  0  0  0  0  0  0  0  0  0  0  0
   59.1190   29.5360   46.6690 C   0  0  0  0  0  0  0  0  0  0  0  0
   60.5280   30.1200   46.6240 C   0  0  0  0  0  0  0  0  0  0  0  0
   61.0150   30.2940   47.9510 O   0  0  0  0  0  0  0  0  0  0  0  0
   60.2970   30.9010   48.9890 C   0  0  0  0  0  0  0  0  0  0  0  0
   60.5820   32.2020   49.4410 C   0  0  0  0  0  0  0  0  0  0  0  0
   59.8320   32.7750   50.4700 C   0  0  0  0  0  0  0  0  0  0  0  0
   58.7770   32.0590   51.0660 C   0  0  0  0  0  0  0  0  0  0  0  0
   57.9810   32.5960   52.1020 C   0  0  0  0  0  0  0  0  0  0  0  0
   58.2040   33.9820   52.6470 C   0  0  0  0  0  0  0  0  0  0  0  0
   56.9540   31.8060   52.6340 C   0  0  0  0  0  0  0  0  0  0  0  0
   56.7420   30.5210   52.1270 C   0  0  0  0  0  0  0  0  0  0  0  0
   55.8210   29.8060   52.5960 O   0  0  0  0  0  0  0  0  0  0  0  0
   57.5070   30.0470   51.1520 O   0  0  0  0  0  0  0  0  0  0  0  0
   58.4960   30.7480   50.6110 C   0  0  0  0  0  0  0  0  0  0  0  0
   59.2580   30.1820   49.5840 C   0  0  0  0  0  0  0  0  0  0  0  0
   57.9920   27.3880   46.0380 C   0  0  0  0  0  0  0  0  0  0  0  0
   58.3910   26.1410   46.5500 C   0  0  0  0  0  0  0  0  0  0  0  0
   57.4510   25.1340   46.7610 C   0  0  0  0  0  0  0  0  0  0  0  0
   56.0980   25.3680   46.4900 C   0  0  0  0  0  0  0  0  0  0  0  0
   55.6890   26.6070   45.9920 C   0  0  0  0  0  0  0  0  0  0  0  0
   56.6290   27.6270   45.7520 C   0  0  0  0  0  0  0  0  0  0  0  0
   56.2160   28.9140   45.2500 N   0  0  0  0  0  0  0  0  0  0  0  0
   56.3380   29.3280   43.8540 C   0  0  0  0  0  0  0  0  0  0  0  0
   56.8370   30.7680   43.7500 C   0  0  0  0  0  0  0  0  0  0  0  0
   56.7520   31.4020   45.0100 O   0  0  0  0  0  0  0  0  0  0  0  0
   57.6640   32.4710   45.0610 C   0  0  0  0  0  0  0  0  0  0  0  0
   55.1580   24.3510   46.6950 O   0  0  0  0  0  0  0  0  0  0  0  0
   55.4270   23.1710   47.4560 C   0  0  0  0  0  0  0  0  0  0  0  0
   56.8920   22.8230   47.4460 C   0  0  0  0  0  0  0  0  0  0  0  0
   57.2660   21.6530   47.7260 O   0  0  0  0  0  0  0  0  0  0  0  0
   57.8660   23.8380   47.1970 N   0  0  0  0  0  0  0  0  0  0  0  0
   58.3522   26.7108   44.0311 H   0  0  0  0  0  0  0  0  0  0  0  0
   58.2461   28.0466   42.8348 H   0  0  0  0  0  0  0  0  0  0  0  0
   59.6703   26.9519   42.8348 H   0  0  0  0  0  0  0  0  0  0  0  0
   60.6839   28.0553   44.5565 H   0  0  0  0  0  0  0  0  0  0  0  0
   59.6021   29.4114   44.0381 H   0  0  0  0  0  0  0  0  0  0  0  0
   58.3991   30.3120   46.3696 H   0  0  0  0  0  0  0  0  0  0  0  0
   58.9160   29.1940   47.6946 H   0  0  0  0  0  0  0  0  0  0  0  0
   61.1916   29.4337   46.0774 H   0  0  0  0  0  0  0  0  0  0  0  0
   60.5040   31.0937   46.1128 H   0  0  0  0  0  0  0  0  0  0  0  0
   61.4020   32.7725   48.9804 H   0  0  0  0  0  0  0  0  0  0  0  0
   60.0671   33.7921   50.8169 H   0  0  0  0  0  0  0  0  0  0  0  0
   58.1987   33.9489   53.7465 H   0  0  0  0  0  0  0  0  0  0  0  0
   59.1748   34.3621   52.2963 H   0  0  0  0  0  0  0  0  0  0  0  0
   57.4014   34.6474   52.2963 H   0  0  0  0  0  0  0  0  0  0  0  0
   56.3194   32.1939   53.4444 H   0  0  0  0  0  0  0  0  0  0  0  0
   59.0368   29.1604   49.2414 H   0  0  0  0  0  0  0  0  0  0  0  0
   59.4501   25.9593   46.7852 H   0  0  0  0  0  0  0  0  0  0  0  0
   54.6237   26.7873   45.7856 H   0  0  0  0  0  0  0  0  0  0  0  0
   55.8900   29.6360   45.9290 H   0  0  0  0  0  0  0  0  0  0  0  0
   57.0498   28.6631   43.3428 H   0  0  0  0  0  0  0  0  0  0  0  0
   55.3458   29.2668   43.3830 H   0  0  0  0  0  0  0  0  0  0  0  0
   57.8840   30.7671   43.4128 H   0  0  0  0  0  0  0  0  0  0  0  0
   56.2126   31.3149   43.0282 H   0  0  0  0  0  0  0  0  0  0  0  0
   57.8774   32.7211   46.1107 H   0  0  0  0  0  0  0  0  0  0  0  0
   58.5973   32.1811   44.5561 H   0  0  0  0  0  0  0  0  0  0  0  0
   57.2308   33.3470   44.5561 H   0  0  0  0  0  0  0  0  0  0  0  0
   55.1071   23.3366   48.4954 H   0  0  0  0  0  0  0  0  0  0  0  0
   54.8735   22.3363   47.0011 H   0  0  0  0  0  0  0  0  0  0  0  0
  1  2  1  0
  2  3  1  0
  3  4  1  0
  4  5  1  0
  5  6  1  0
  6  7  1  0
  7  8  2  0
  8  9  1  0
  9 10  2  0
 10 11  1  0
 11 12  1  0
 11 13  2  0
 13 14  1  0
 14 15  2  0
 14 16  1  0
 16 17  1  0
 17 18  2  0
  3 19  1  0
 19 20  2  0
 20 21  1  0
 21 22  2  0
 22 23  1  0
 23 24  2  0
 24 25  1  0
 25 26  1  0
 26 27  1  0
 27 28  1  0
 28 29  1  0
 22 30  1  0
 30 31  1  0
 31 32  1  0
 32 33  2  0
 32 34  1  0
 18  7  1  0
 24 19  1  0
 17 10  1  0
 34 21  1  0
  1 35  1  0
  1 36  1  0
  1 37  1  0
  2 38  1  0
  2 39  1  0
  4 40  1  0
  4 41  1  0
  5 42  1  0
  5 43  1  0
  8 44  1  0
  9 45  1  0
 12 46  1  0
 12 47  1  0
 12 48  1  0
 13 49  1  0
 18 50  1  0
 20 51  1  0
 23 52  1  0
 25 53  1  0
 26 54  1  0
 26 55  1  0
 27 56  1  0
 27 57  1  0
 29 58  1  0
 29 59  1  0
 29 60  1  0
 31 61  1  0
 31 62  1  0
M  CHG  1  34  -1
M  END
>  <UniqueID>  (1) 
1

>  <SMILES>  (1) 
CCN(CCOc1ccc2c(C)cc(=O)oc2c1)c1cc2c(cc1NCCOC)OCC(=O)[N-]2

>  <Energy>  (1) 
69.50539306022377

>  <Genealogy>  (1) 
CCN(CCOc1ccc2c(C)cc(=O)oc2c1)c1cc2c(cc1NCCOC)OCC(=O)[N-]2 (protonated)
CCN(CCOc1ccc2c(C)cc(=O)oc2c1)c1cc2c(cc1NCCOC)OCC(=O)[N-]2 (3D coordinates assigned)
CCN(CCOc1ccc2c(C)cc(=O)oc2c1)c1cc2c(cc1NCCOC)OCC(=O)[N-]2 (nonaromatic ring conformer: 69.50539306022377 kcal/mol)

>  <smiles>  (1) 
CCN(CCOc1ccc2c(C)cc(=O)oc2c1)c1cc2c(cc1NCCOC)OCC(=O)N2

>  <score_type>  (1) 
oracle

>  <origin>  (1) 
adg

>  <m_score__min__energy>  (1) 
-10.32

>  <m_primary>  (1) 
energy

$$$$
1:0
     RDKit          3D

 34 35  0  0  0  0  0  0  0  0999 V2000
   57.5880   30.0590   44.1470 C   0  0  0  0  0  0  0  0  0  0  0  0
   58.8390   29.7630   44.9670 C   0  0  0  0  0  0  0  0  0  0  0  0
   58.7680   28.4080   45.5350 N   0  0  0  0  0  0  0  0  0  0  0  0
   60.1000   27.8550   45.8460 C   0  0  0  0  0  0  0  0  0  0  0  0
   60.0310   26.4190   46.4000 C   0  0  0  0  0  0  0  0  0  0  0  0
   58.6450   25.9750   46.5680 N   0  0  0  0  0  0  0  0  0  0  0  0
   58.0680   24.9130   45.7840 C   0  0  0  0  0  0  0  0  0  0  0  0
   56.6850   24.9120   45.4490 C   0  0  0  0  0  0  0  0  0  0  0  0
   55.8500   26.0430   45.7470 N   0  0  0  0  0  0  0  0  0  0  0  0
   54.6080   25.9520   45.6470 O   0  0  0  0  0  0  0  0  0  0  0  0
   56.4080   27.2840   45.9560 O   0  0  0  0  0  0  0  0  0  0  0  0
   56.1230   23.7960   44.7720 C   0  0  0  0  0  0  0  0  0  0  0  0
   56.9110   22.6880   44.3910 C   0  0  0  0  0  0  0  0  0  0  0  0
   56.3210   21.5770   43.6900 N   0  0  0  0  0  0  0  0  0  0  0  0
   55.9270   20.5650   44.3040 O   0  0  0  0  0  0  0  0  0  0  0  0
   56.2700   21.5760   42.3150 O   0  0  0  0  0  0  0  0  0  0  0  0
   58.2700   22.7390   44.7300 C   0  0  0  0  0  0  0  0  0  0  0  0
   59.2400   21.8250   44.5680 N   0  0  0  0  0  0  0  0  0  0  0  0
   60.3090   22.3380   45.1150 O   0  0  0  0  0  0  0  0  0  0  0  0
   60.1130   23.5230   45.6320 N   0  0  0  0  0  0  0  0  0  0  0  0
   58.8180   23.7970   45.3910 C   0  0  0  0  0  0  0  0  0  0  0  0
   56.7444   30.2586   44.8242 H   0  0  0  0  0  0  0  0  0  0  0  0
   57.7653   30.9400   43.5126 H   0  0  0  0  0  0  0  0  0  0  0  0
   57.3517   29.1920   43.5126 H   0  0  0  0  0  0  0  0  0  0  0  0
   59.7243   29.8388   44.3186 H   0  0  0  0  0  0  0  0  0  0  0  0
   58.9097   30.4919   45.7878 H   0  0  0  0  0  0  0  0  0  0  0  0
   58.1800   28.4320   46.3990 H   0  0  0  0  0  0  0  0  0  0  0  0
   60.7025   27.8489   44.9257 H   0  0  0  0  0  0  0  0  0  0  0  0
   60.5513   28.4902   46.6224 H   0  0  0  0  0  0  0  0  0  0  0  0
   60.5414   25.7409   45.7002 H   0  0  0  0  0  0  0  0  0  0  0  0
   60.5200   26.4050   47.3852 H   0  0  0  0  0  0  0  0  0  0  0  0
   58.0140   26.5150   47.2030 H   0  0  0  0  0  0  0  0  0  0  0  0
   55.0479   23.7953   44.5391 H   0  0  0  0  0  0  0  0  0  0  0  0
   59.1900   20.8790   44.1330 H   0  0  0  0  0  0  0  0  0  0  0  0
  1  2  1  0
  2  3  1  0
  3  4  1  0
  4  5  1  0
  5  6  1  0
  6  7  1  0
  7  8  2  0
  8  9  1  0
  9 10  2  0
  9 11  1  0
  8 12  1  0
 12 13  2  0
 13 14  1  0
 14 15  2  0
 14 16  1  0
 13 17  1  0
 17 18  2  0
 18 19  1  0
 19 20  1  0
 20 21  2  0
 21  7  1  0
 21 17  1  0
  1 22  1  0
  1 23  1  0
  1 24  1  0
  2 25  1  0
  2 26  1  0
  3 27  1  0
  4 28  1  0
  4 29  1  0
  5 30  1  0
  5 31  1  0
  6 32  1  0
 12 33  1  0
 18 34  1  0
M  CHG  5   9   1  11  -1  14   1  16  -1  18   1
M  END
>  <UniqueID>  (2) 
2

>  <SMILES>  (2) 
CCNCCNc1c([N+](=O)[O-])cc([N+](=O)[O-])c2[nH+]onc12

>  <Energy>  (2) 
85.23484131970054

>  <Genealogy>  (2) 
CCNCCNc1c([N+](=O)[O-])cc([N+](=O)[O-])c2[nH+]onc12 (protonated)
CCNCCNc1c([N+](=O)[O-])cc([N+](=O)[O-])c2[nH+]onc12 (3D coordinates assigned)
CCNCCNc1c([N+](=O)[O-])cc([N+](=O)[O-])c2[nH+]onc12 (optimized conformer: 85.23484131970054 kcal/mol)

>  <smiles>  (2) 
CCNCCNc1c([N+](=O)[O-])cc([N+](=O)[O-])c2nonc12

>  <score_type>  (2) 
oracle

>  <origin>  (2) 
adg

>  <m_score__min__energy>  (2) 
-6.0099999999999998

>  <m_primary>  (2) 
energy

$$$$
2:0
     RDKit          3D

 39 40  0  0  0  0  0  0  0  0999 V2000
   56.8080   21.4770   42.7600 C   0  0  0  0  0  0  0  0  0  0  0  0
   55.8400   22.2850   43.4240 O   0  0  0  0  0  0  0  0  0  0  0  0
   56.0440   22.9130   44.6610 C   0  0  0  0  0  0  0  0  0  0  0  0
   55.8350   24.2940   44.7440 C   0  0  0  0  0  0  0  0  0  0  0  0
   56.0040   24.9710   45.9560 C   0  0  0  0  0  0  0  0  0  0  0  0
   55.8160   26.3910   45.9920 N   0  0  0  0  0  0  0  0  0  0  0  0
   56.8410   27.3850   45.8810 C   0  0  0  0  0  0  0  0  0  0  0  0
   57.3870   27.8110   46.9340 O   0  0  0  0  0  0  0  0  0  0  0  0
   57.4040   27.7940   44.5450 C   0  0  0  0  0  0  0  0  0  0  0  0
   58.0910   29.0410   44.6380 O   0  0  0  0  0  0  0  0  0  0  0  0
   57.4370   30.2740   44.7650 C   0  0  0  0  0  0  0  0  0  0  0  0
   56.1780   30.3300   44.8160 O   0  0  0  0  0  0  0  0  0  0  0  0
   58.2360   31.5440   44.8480 C   0  0  0  0  0  0  0  0  0  0  0  0
   57.7700   32.4870   45.9560 C   0  0  0  0  0  0  0  0  0  0  0  0
   57.3710   33.5180   44.9070 C   0  0  0  0  0  0  0  0  0  0  0  0
   57.8380   32.5810   43.8000 C   0  0  0  0  0  0  0  0  0  0  0  0
   56.4420   24.2660   47.0870 C   0  0  0  0  0  0  0  0  0  0  0  0
   56.6580   22.8850   47.0260 C   0  0  0  0  0  0  0  0  0  0  0  0
   57.0820   22.2290   48.1920 O   0  0  0  0  0  0  0  0  0  0  0  0
   56.2230   21.8530   49.2630 C   0  0  0  0  0  0  0  0  0  0  0  0
   56.4500   22.2070   45.8100 C   0  0  0  0  0  0  0  0  0  0  0  0
   57.4280   20.9594   43.5068 H   0  0  0  0  0  0  0  0  0  0  0  0
   56.2960   20.7344   42.1303 H   0  0  0  0  0  0  0  0  0  0  0  0
   57.4471   22.1134   42.1303 H   0  0  0  0  0  0  0  0  0  0  0  0
   55.5344   24.8535   43.8459 H   0  0  0  0  0  0  0  0  0  0  0  0
   58.1066   27.0215   44.1993 H   0  0  0  0  0  0  0  0  0  0  0  0
   56.5720   27.9052   43.8341 H   0  0  0  0  0  0  0  0  0  0  0  0
   59.2533   31.1258   44.8631 H   0  0  0  0  0  0  0  0  0  0  0  0
   56.9284   32.1013   46.5500 H   0  0  0  0  0  0  0  0  0  0  0  0
   58.4487   32.7609   46.7772 H   0  0  0  0  0  0  0  0  0  0  0  0
   56.2937   33.7388   44.8826 H   0  0  0  0  0  0  0  0  0  0  0  0
   57.7584   34.5459   44.9639 H   0  0  0  0  0  0  0  0  0  0  0  0
   57.0364   32.2508   43.1229 H   0  0  0  0  0  0  0  0  0  0  0  0
   58.5664   32.9236   43.0503 H   0  0  0  0  0  0  0  0  0  0  0  0
   56.6172   24.8039   48.0304 H   0  0  0  0  0  0  0  0  0  0  0  0
   56.7165   22.0690   50.2220 H   0  0  0  0  0  0  0  0  0  0  0  0
   55.2842   22.4225   49.1973 H   0  0  0  0  0  0  0  0  0  0  0  0
   56.0045   20.7769   49.1973 H   0  0  0  0  0  0  0  0  0  0  0  0
   56.6055   21.1193   45.7569 H   0  0  0  0  0  0  0  0  0  0  0  0
  1  2  1  0
  2  3  1  0
  3  4  2  0
  4  5  1  0
  5  6  1  0
  6  7  1  0
  7  8  2  0
  7  9  1  0
  9 10  1  0
 10 11  1  0
 11 12  2  0
 11 13  1  0
 13 14  1  0
 14 15  1  0
 15 16  1  0
  5 17  2  0
 17 18  1  0
 18 19  1  0
 19 20  1  0
 18 21  2  0
 21  3  1  0
 16 13  1  0
  1 22  1  0
  1 23  1  0
  1 24  1  0
  4 25  1  0
  9 26  1  0
  9 27  1  0
 13 28  1  0
 14 29  1  0
 14 30  1  0
 15 31  1  0
 15 32  1  0
 16 33  1  0
 16 34  1  0
 17 35  1  0
 20 36  1  0
 20 37  1  0
 20 38  1  0
 21 39  1  0
M  CHG  1   6  -1
M  END
>  <UniqueID>  (3) 
3

>  <SMILES>  (3) 
COc1cc([N-]C(=O)COC(=O)C2CCC2)cc(OC)c1

>  <Energy>  (3) 
99.51117911938903

>  <Genealogy>  (3) 
COc1cc([N-]C(=O)COC(=O)C2CCC2)cc(OC)c1 (protonated)
COc1cc([N-]C(=O)COC(=O)C2CCC2)cc(OC)c1 (3D coordinates assigned)
COc1cc([N-]C(=O)COC(=O)C2CCC2)cc(OC)c1 (nonaromatic ring conformer: 99.51117911938903 kcal/mol)

>  <smiles>  (3) 
COc1cc(NC(=O)COC(=O)C2CCC2)cc(OC)c1

>  <score_type>  (3) 
oracle

>  <origin>  (3) 
adg

>  <m_score__min__energy>  (3) 
-8.4199999999999999

>  <m_primary>  (3) 
energy

$$$$
3:0
     RDKit          3D

 53 53  0  0  0  0  0  0  0  0999 V2000
   59.6720   33.4970   49.4200 C   0  0  0  0  0  0  0  0  0  0  0  0
   60.1470   34.4200   48.3030 C   0  0  0  0  0  0  0  0  0  0  0  0
   60.2660   33.6760   47.0320 N   0  0  0  0  0  0  0  0  0  0  0  0
   61.5710   33.8290   46.3470 C   0  0  0  0  0  0  0  0  0  0  0  0
   62.7940   33.3740   47.1650 C   0  0  0  0  0  0  0  0  0  0  0  0
   58.9140   33.9450   45.9450 S   0  0  0  0  0  0  0  0  0  0  0  0
   57.7940   34.5920   46.7110 O   0  0  0  0  0  0  0  0  0  0  0  0
   59.3100   34.8820   44.8390 O   0  0  0  0  0  0  0  0  0  0  0  0
   58.3260   32.4470   45.2290 C   0  0  0  0  0  0  0  0  0  0  0  0
   58.2140   31.2880   46.0100 C   0  0  0  0  0  0  0  0  0  0  0  0
   57.8580   30.0740   45.4180 C   0  0  0  0  0  0  0  0  0  0  0  0
   57.6080   30.0030   44.0360 C   0  0  0  0  0  0  0  0  0  0  0  0
   57.3850   28.7270   43.4020 N   0  0  0  0  0  0  0  0  0  0  0  0
   58.0940   27.6770   44.0930 C   0  0  0  0  0  0  0  0  0  0  0  0
   59.7040   27.8620   44.3810 S   0  0  0  0  0  0  0  0  0  0  0  0
   57.3730   26.5730   44.6800 N   0  0  0  0  0  0  0  0  0  0  0  0
   58.0310   25.4820   45.4030 C   0  0  0  0  0  0  0  0  0  0  0  0
   58.0110   25.7080   46.9250 C   0  0  0  0  0  0  0  0  0  0  0  0
   58.1590   27.1870   47.3240 C   0  0  0  0  0  0  0  0  0  0  0  0
   59.4060   27.4300   48.0840 N   0  0  0  0  0  0  0  0  0  0  0  0
   59.7000   28.8720   48.1390 C   0  0  0  0  0  0  0  0  0  0  0  0
   60.5480   26.7200   47.4780 C   0  0  0  0  0  0  0  0  0  0  0  0
   57.6780   31.1790   43.2670 C   0  0  0  0  0  0  0  0  0  0  0  0
   58.0340   32.3910   43.8610 C   0  0  0  0  0  0  0  0  0  0  0  0
   59.9054   33.9506   50.3946 H   0  0  0  0  0  0  0  0  0  0  0  0
   58.5854   33.3483   49.3356 H   0  0  0  0  0  0  0  0  0  0  0  0
   60.1826   32.5263   49.3356 H   0  0  0  0  0  0  0  0  0  0  0  0
   59.4227   35.2382   48.1770 H   0  0  0  0  0  0  0  0  0  0  0  0
   61.1338   34.8250   48.5718 H   0  0  0  0  0  0  0  0  0  0  0  0
   61.5412   33.2371   45.4203 H   0  0  0  0  0  0  0  0  0  0  0  0
   61.7019   34.9073   46.1732 H   0  0  0  0  0  0  0  0  0  0  0  0
   62.5689   33.4577   48.2385 H   0  0  0  0  0  0  0  0  0  0  0  0
   63.0301   32.3279   46.9204 H   0  0  0  0  0  0  0  0  0  0  0  0
   63.6565   34.0114   46.9204 H   0  0  0  0  0  0  0  0  0  0  0  0
   58.4070   31.3349   47.0919 H   0  0  0  0  0  0  0  0  0  0  0  0
   57.7727   29.1683   46.0364 H   0  0  0  0  0  0  0  0  0  0  0  0
   56.3560   28.5340   43.4070 H   0  0  0  0  0  0  0  0  0  0  0  0
   57.7060   28.7420   42.4070 H   0  0  0  0  0  0  0  0  0  0  0  0
   56.3460   26.5170   44.5170 H   0  0  0  0  0  0  0  0  0  0  0  0
   57.5099   24.5401   45.1765 H   0  0  0  0  0  0  0  0  0  0  0  0
   59.0812   25.4423   45.0780 H   0  0  0  0  0  0  0  0  0  0  0  0
   57.0553   25.3338   47.3208 H   0  0  0  0  0  0  0  0  0  0  0  0
   58.8735   25.1699   47.3451 H   0  0  0  0  0  0  0  0  0  0  0  0
   58.1724   27.8020   46.4121 H   0  0  0  0  0  0  0  0  0  0  0  0
   57.3086   27.4536   47.9687 H   0  0  0  0  0  0  0  0  0  0  0  0
   59.7655   29.1931   49.1891 H   0  0  0  0  0  0  0  0  0  0  0  0
   60.6571   29.0706   47.6345 H   0  0  0  0  0  0  0  0  0  0  0  0
   58.8970   29.4294   47.6345 H   0  0  0  0  0  0  0  0  0  0  0  0
   61.1938   26.3185   48.2729 H   0  0  0  0  0  0  0  0  0  0  0  0
   60.1768   25.8932   46.8546 H   0  0  0  0  0  0  0  0  0  0  0  0
   61.1252   27.4187   46.8546 H   0  0  0  0  0  0  0  0  0  0  0  0
   57.4509   31.1432   42.1913 H   0  0  0  0  0  0  0  0  0  0  0  0
   58.0853   33.3055   43.2519 H   0  0  0  0  0  0  0  0  0  0  0  0
  1  2  1  0
  2  3  1  0
  3  4  1  0
  4  5  1  0
  3  6  1  0
  6  7  2  0
  6  8  2  0
  6  9  1  0
  9 10  2  0
 10 11  1  0
 11 12  2  0
 12 13  1  0
 13 14  1  0
 14 15  2  0
 14 16  1  0
 16 17  1  0
 17 18  1  0
 18 19  1  0
 19 20  1  0
 20 21  1  0
 20 22  1  0
 12 23  1  0
 23 24  2  0
 24  9  1  0
  1 25  1  0
  1 26  1  0
  1 27  1  0
  2 28  1  0
  2 29  1  0
  4 30  1  0
  4 31  1  0
  5 32  1  0
  5 33  1  0
  5 34  1  0
 10 35  1  0
 11 36  1  0
 13 37  1  0
 13 38  1  0
 16 39  1  0
 17 40  1  0
 17 41  1  0
 18 42  1  0
 18 43  1  0
 19 44  1  0
 19 45  1  0
 21 46  1  0
 21 47  1  0
 21 48  1  0
 22 49  1  0
 22 50  1  0
 22 51  1  0
 23 52  1  0
 24 53  1  0
M  CHG  1  13   1
M  END
>  <UniqueID>  (4) 
4

>  <SMILES>  (4) 
CCN(CC)S(=O)(=O)c1ccc([NH2+]C(=S)NCCCN(C)C)cc1

>  <Energy>  (4) 
48.526532862490775

>  <Genealogy>  (4) 
CCN(CC)S(=O)(=O)c1ccc([NH2+]C(=S)NCCCN(C)C)cc1 (protonated)
CCN(CC)S(=O)(=O)c1ccc([NH2+]C(=S)NCCCN(C)C)cc1 (3D coordinates assigned)
CCN(CC)S(=O)(=O)c1ccc([NH2+]C(=S)NCCCN(C)C)cc1 (optimized conformer: 48.526532862490775 kcal/mol)

>  <smiles>  (4) 
CCN(CC)S(=O)(=O)c1ccc(NC(=S)NCCCN(C)C)cc1

>  <score_type>  (4) 
oracle

>  <origin>  (4) 
adg

>  <m_score__min__energy>  (4) 
-5.8300000000000001

>  <m_primary>  (4) 
energy

$$$$
4:0
     RDKit          3D

 62 65  0  0  0  0  0  0  0  0999 V2000
   64.8600   33.0030   50.3540 C   0  0  0  0  0  0  0  0  0  0  0  0
   64.5010   31.5220   50.4950 C   0  0  0  0  0  0  0  0  0  0  0  0
   63.2800   31.3270   51.3130 N   0  0  0  0  0  0  0  0  0  0  0  0
   62.9690   32.5640   52.0730 C   0  0  0  0  0  0  0  0  0  0  0  0
   61.4670   32.8440   52.1720 C   0  0  0  0  0  0  0  0  0  0  0  0
   63.3030   30.0890   52.1330 C   0  0  0  0  0  0  0  0  0  0  0  0
   62.2270   29.0510   51.7850 C   0  0  0  0  0  0  0  0  0  0  0  0
   61.0060   29.6980   51.4400 O   0  0  0  0  0  0  0  0  0  0  0  0
   60.4900   29.7890   50.1390 C   0  0  0  0  0  0  0  0  0  0  0  0
   60.7400   28.7380   49.2470 C   0  0  0  0  0  0  0  0  0  0  0  0
   60.2910   28.8040   47.9230 C   0  0  0  0  0  0  0  0  0  0  0  0
   59.5690   29.9250   47.4770 C   0  0  0  0  0  0  0  0  0  0  0  0
   59.1290   30.0610   46.1490 C   0  0  0  0  0  0  0  0  0  0  0  0
   59.3580   29.1500   45.3050 O   0  0  0  0  0  0  0  0  0  0  0  0
   58.4260   31.2180   45.7660 C   0  0  0  0  0  0  0  0  0  0  0  0
   57.9980   31.4100   44.3670 C   0  0  0  0  0  0  0  0  0  0  0  0
   57.0830   30.5280   43.7750 C   0  0  0  0  0  0  0  0  0  0  0  0
   56.6640   30.7320   42.4580 C   0  0  0  0  0  0  0  0  0  0  0  0
   57.1650   31.8090   41.7230 C   0  0  0  0  0  0  0  0  0  0  0  0
   56.7520   32.0200   40.4490 F   0  0  0  0  0  0  0  0  0  0  0  0
   58.0760   32.6900   42.3080 C   0  0  0  0  0  0  0  0  0  0  0  0
   58.4910   32.4940   43.6270 C   0  0  0  0  0  0  0  0  0  0  0  0
   58.1790   32.2040   46.7420 C   0  0  0  0  0  0  0  0  0  0  0  0
   57.4030   33.7740   46.3310 S   0  0  0  0  0  0  0  0  0  0  0  0
   58.9660   34.5850   45.8190 C   0  0  0  0  0  0  0  0  0  0  0  0
   60.0660   34.3110   46.8130 C   0  0  0  0  0  0  0  0  0  0  0  0
   59.8810   34.6080   48.1730 C   0  0  0  0  0  0  0  0  0  0  0  0
   60.8380   34.2160   49.1180 C   0  0  0  0  0  0  0  0  0  0  0  0
   61.9840   33.5290   48.7110 C   0  0  0  0  0  0  0  0  0  0  0  0
   62.1890   33.2540   47.3560 C   0  0  0  0  0  0  0  0  0  0  0  0
   61.2380   33.6470   46.4100 C   0  0  0  0  0  0  0  0  0  0  0  0
   58.5820   32.0250   47.9950 O   0  0  0  0  0  0  0  0  0  0  0  0
   59.2720   30.9600   48.3880 C   0  0  0  0  0  0  0  0  0  0  0  0
   59.7260   30.8890   49.7080 C   0  0  0  0  0  0  0  0  0  0  0  0
   64.9685   33.4507   51.3529 H   0  0  0  0  0  0  0  0  0  0  0  0
   65.8076   33.0998   49.8039 H   0  0  0  0  0  0  0  0  0  0  0  0
   64.0619   33.5230   49.8039 H   0  0  0  0  0  0  0  0  0  0  0  0
   64.3298   31.1002   49.4936 H   0  0  0  0  0  0  0  0  0  0  0  0
   65.3358   31.0144   51.0004 H   0  0  0  0  0  0  0  0  0  0  0  0
   63.3742   32.4614   53.0905 H   0  0  0  0  0  0  0  0  0  0  0  0
   63.4256   33.4059   51.5320 H   0  0  0  0  0  0  0  0  0  0  0  0
   61.1732   32.8988   53.2306 H   0  0  0  0  0  0  0  0  0  0  0  0
   61.2389   33.8001   51.6782 H   0  0  0  0  0  0  0  0  0  0  0  0
   60.9097   32.0343   51.6782 H   0  0  0  0  0  0  0  0  0  0  0  0
   64.2870   29.6145   52.0043 H   0  0  0  0  0  0  0  0  0  0  0  0
   63.0975   30.4050   53.1664 H   0  0  0  0  0  0  0  0  0  0  0  0
   62.5696   28.4455   50.9330 H   0  0  0  0  0  0  0  0  0  0  0  0
   62.0550   28.4081   52.6608 H   0  0  0  0  0  0  0  0  0  0  0  0
   61.2946   27.8523   49.5905 H   0  0  0  0  0  0  0  0  0  0  0  0
   60.5035   27.9769   47.2297 H   0  0  0  0  0  0  0  0  0  0  0  0
   56.6943   29.6737   44.3486 H   0  0  0  0  0  0  0  0  0  0  0  0
   55.9388   30.0438   41.9993 H   0  0  0  0  0  0  0  0  0  0  0  0
   58.4675   33.5397   41.7294 H   0  0  0  0  0  0  0  0  0  0  0  0
   59.2065   33.1919   44.0865 H   0  0  0  0  0  0  0  0  0  0  0  0
   59.2664   34.1983   44.8340 H   0  0  0  0  0  0  0  0  0  0  0  0
   58.7986   35.6711   45.7711 H   0  0  0  0  0  0  0  0  0  0  0  0
   58.9809   35.1507   48.4976 H   0  0  0  0  0  0  0  0  0  0  0  0
   60.6867   34.4496   50.1822 H   0  0  0  0  0  0  0  0  0  0  0  0
   62.7249   33.2045   49.4565 H   0  0  0  0  0  0  0  0  0  0  0  0
   63.0996   32.7278   47.0338 H   0  0  0  0  0  0  0  0  0  0  0  0
   61.4075   33.4355   45.3439 H   0  0  0  0  0  0  0  0  0  0  0  0
   59.4847   31.6975   50.4137 H   0  0  0  0  0  0  0  0  0  0  0  0
  1  2  1  0
  2  3  1  0
  3  4  1  0
  4  5  1  0
  3  6  1  0
  6  7  1  0
  7  8  1  0
  8  9  1  0
  9 10  2  0
 10 11  1  0
 11 12  2  0
 12 13  1  0
 13 14  2  0
 13 15  1  0
 15 16  1  0
 16 17  2  0
 17 18  1  0
 18 19  2  0
 19 20  1  0
 19 21  1  0
 21 22  2  0
 15 23  2  0
 23 24  1  0
 24 25  1  0
 25 26  1  0
 26 27  2  0
 27 28  1  0
 28 29  2  0
 29 30  1  0
 30 31  2  0
 23 32  1  0
 32 33  1  0
 33 34  2  0
 34  9  1  0
 33 12  1  0
 22 16  1  0
 31 26  1  0
  1 35  1  0
  1 36  1  0
  1 37  1  0
  2 38  1  0
  2 39  1  0
  4 40  1  0
  4 41  1  0
  5 42  1  0
  5 43  1  0
  5 44  1  0
  6 45  1  0
  6 46  1  0
  7 47  1  0
  7 48  1  0
 10 49  1  0
 11 50  1  0
 17 51  1  0
 18 52  1  0
 21 53  1  0
 22 54  1  0
 25 55  1  0
 25 56  1  0
 27 57  1  0
 28 58  1  0
 29 59  1  0
 30 60  1  0
 31 61  1  0
 34 62  1  0
M  END
>  <UniqueID>  (5) 
5

>  <SMILES>  (5) 
CCN(CC)CCOc1ccc2c(=O)c(-c3ccc(F)cc3)c(SCc3ccccc3)oc2c1

>  <Energy>  (5) 
78.41469335961017

>  <Genealogy>  (5) 
CCN(CC)CCOc1ccc2c(=O)c(-c3ccc(F)cc3)c(SCc3ccccc3)oc2c1 (3D coordinates assigned)
CCN(CC)CCOc1ccc2c(=O)c(-c3ccc(F)cc3)c(SCc3ccccc3)oc2c1 (optimized conformer: 78.41469335961017 kcal/mol)

>  <smiles>  (5) 
CCN(CC)CCOc1ccc2c(=O)c(-c3ccc(F)cc3)c(SCc3ccccc3)oc2c1

>  <score_type>  (5) 
oracle

>  <origin>  (5) 
adg

>  <m_score__min__energy>  (5) 
-8.1799999999999997

>  <m_primary>  (5) 
energy

$$$$
5:0
     RDKit          3D

 59 61  0  0  0  0  0  0  0  0999 V2000
   61.9540   30.7560   51.1340 C   0  0  0  0  0  0  0  0  0  0  0  0
   61.5640   32.1990   51.4900 C   0  0  0  0  0  0  0  0  0  0  0  0
   61.3210   33.0580   50.3080 N   0  0  0  0  0  0  0  0  0  0  0  0
   59.9810   33.6850   50.3350 C   0  0  0  0  0  0  0  0  0  0  0  0
   58.8790   32.6350   50.2190 C   0  0  0  0  0  0  0  0  0  0  0  0
   62.4220   34.0220   50.0640 C   0  0  0  0  0  0  0  0  0  0  0  0
   63.5810   33.3470   49.3140 C   0  0  0  0  0  0  0  0  0  0  0  0
   63.7650   33.8480   47.8680 C   0  0  0  0  0  0  0  0  0  0  0  0
   63.1450   32.9320   46.7980 C   0  0  0  0  0  0  0  0  0  0  0  0
   62.5540   31.6240   47.3770 C   0  0  0  0  0  0  0  0  0  0  0  0
   61.2530   31.8380   48.0430 N   0  0  0  0  0  0  0  0  0  0  0  0
   60.1380   31.3960   47.2070 C   0  0  0  0  0  0  0  0  0  0  0  0
   59.8040   30.0140   47.1390 C   0  0  0  0  0  0  0  0  0  0  0  0
   60.3760   29.0640   48.0240 C   0  0  0  0  0  0  0  0  0  0  0  0
   60.0090   27.7210   47.9760 C   0  0  0  0  0  0  0  0  0  0  0  0
   59.0590   27.2900   47.0610 C   0  0  0  0  0  0  0  0  0  0  0  0
   58.4900   28.1940   46.1690 C   0  0  0  0  0  0  0  0  0  0  0  0
   58.8740   29.5610   46.1630 C   0  0  0  0  0  0  0  0  0  0  0  0
   58.3580   30.4420   45.2370 N   0  0  0  0  0  0  0  0  0  0  0  0
   57.6890   29.9280   44.0200 C   0  0  0  0  0  0  0  0  0  0  0  0
   58.4740   31.8010   45.4380 C   0  0  0  0  0  0  0  0  0  0  0  0
   57.6900   32.7160   44.6890 C   0  0  0  0  0  0  0  0  0  0  0  0
   57.8130   34.0900   44.8700 C   0  0  0  0  0  0  0  0  0  0  0  0
   58.6960   34.5900   45.8130 C   0  0  0  0  0  0  0  0  0  0  0  0
   59.4580   33.7200   46.5880 C   0  0  0  0  0  0  0  0  0  0  0  0
   59.3760   32.3120   46.4200 C   0  0  0  0  0  0  0  0  0  0  0  0
   62.1098   30.1797   52.0579 H   0  0  0  0  0  0  0  0  0  0  0  0
   61.1487   30.2933   50.5446 H   0  0  0  0  0  0  0  0  0  0  0  0
   62.8828   30.7620   50.5446 H   0  0  0  0  0  0  0  0  0  0  0  0
   60.6453   32.1716   52.0944 H   0  0  0  0  0  0  0  0  0  0  0  0
   62.4125   32.6362   52.0367 H   0  0  0  0  0  0  0  0  0  0  0  0
   59.8589   34.2305   51.2824 H   0  0  0  0  0  0  0  0  0  0  0  0
   59.8999   34.3717   49.4795 H   0  0  0  0  0  0  0  0  0  0  0  0
   58.5573   32.3284   51.2252 H   0  0  0  0  0  0  0  0  0  0  0  0
   58.0233   33.0602   49.6741 H   0  0  0  0  0  0  0  0  0  0  0  0
   59.2624   31.7597   49.6741 H   0  0  0  0  0  0  0  0  0  0  0  0
   62.0412   34.8595   49.4610 H   0  0  0  0  0  0  0  0  0  0  0  0
   62.7934   34.3863   51.0332 H   0  0  0  0  0  0  0  0  0  0  0  0
   64.5113   33.5398   49.8684 H   0  0  0  0  0  0  0  0  0  0  0  0
   63.3405   32.2754   49.2525 H   0  0  0  0  0  0  0  0  0  0  0  0
   63.2978   34.8404   47.7849 H   0  0  0  0  0  0  0  0  0  0  0  0
   64.8480   33.8687   47.6766 H   0  0  0  0  0  0  0  0  0  0  0  0
   62.3400   33.4837   46.2904 H   0  0  0  0  0  0  0  0  0  0  0  0
   63.9522   32.6462   46.1075 H   0  0  0  0  0  0  0  0  0  0  0  0
   62.4160   30.9053   46.5558 H   0  0  0  0  0  0  0  0  0  0  0  0
   63.2580   31.2444   48.1322 H   0  0  0  0  0  0  0  0  0  0  0  0
   61.2070   32.8310   48.3370 H   0  0  0  0  0  0  0  0  0  0  0  0
   61.2350   31.3290   48.9540 H   0  0  0  0  0  0  0  0  0  0  0  0
   61.1227   29.3938   48.7613 H   0  0  0  0  0  0  0  0  0  0  0  0
   60.4735   27.0004   48.6652 H   0  0  0  0  0  0  0  0  0  0  0  0
   58.7554   26.2329   47.0407 H   0  0  0  0  0  0  0  0  0  0  0  0
   57.7293   27.8434   45.4560 H   0  0  0  0  0  0  0  0  0  0  0  0
   56.8475   29.2815   44.3095 H   0  0  0  0  0  0  0  0  0  0  0  0
   57.3141   30.7726   43.4232 H   0  0  0  0  0  0  0  0  0  0  0  0
   58.4085   29.3482   43.4232 H   0  0  0  0  0  0  0  0  0  0  0  0
   56.9708   32.3316   43.9507 H   0  0  0  0  0  0  0  0  0  0  0  0
   57.2083   34.7802   44.2635 H   0  0  0  0  0  0  0  0  0  0  0  0
   58.7953   35.6769   45.9498 H   0  0  0  0  0  0  0  0  0  0  0  0
   60.1388   34.1322   47.3474 H   0  0  0  0  0  0  0  0  0  0  0  0
  1  2  1  0
  2  3  1  0
  3  4  1  0
  4  5  1  0
  3  6  1  0
  6  7  1  0
  7  8  1  0
  8  9  1  0
  9 10  1  0
 10 11  1  0
 11 12  1  0
 12 13  2  0
 13 14  1  0
 14 15  2  0
 15 16  1  0
 16 17  2  0
 17 18  1  0
 18 19  2  0
 19 20  1  0
 19 21  1  0
 21 22  2  0
 22 23  1  0
 23 24  2  0
 24 25  1  0
 25 26  2  0
 26 12  1  0
 18 13  1  0
 26 21  1  0
  1 27  1  0
  1 28  1  0
  1 29  1  0
  2 30  1  0
  2 31  1  0
  4 32  1  0
  4 33  1  0
  5 34  1  0
  5 35  1  0
  5 36  1  0
  6 37  1  0
  6 38  1  0
  7 39  1  0
  7 40  1  0
  8 41  1  0
  8 42  1  0
  9 43  1  0
  9 44  1  0
 10 45  1  0
 10 46  1  0
 11 47  1  0
 11 48  1  0
 14 49  1  0
 15 50  1  0
 16 51  1  0
 17 52  1  0
 20 53  1  0
 20 54  1  0
 20 55  1  0
 22 56  1  0
 23 57  1  0
 24 58  1  0
 25 59  1  0
M  CHG  2  11   1  19   1
M  END
>  <UniqueID>  (6) 
6

>  <SMILES>  (6) 
CCN(CC)CCCCC[NH2+]c1c2ccccc2[n+](C)c2ccccc12

>  <Energy>  (6) 
89.19963376044292

>  <Genealogy>  (6) 
CCN(CC)CCCCC[NH2+]c1c2ccccc2[n+](C)c2ccccc12 (protonated)
CCN(CC)CCCCC[NH2+]c1c2ccccc2[n+](C)c2ccccc12 (3D coordinates assigned)
CCN(CC)CCCCC[NH2+]c1c2ccccc2[n+](C)c2ccccc12 (optimized conformer: 89.19963376044292 kcal/mol)

>  <smiles>  (6) 
CCN(CC)CCCCCNc1c2ccccc2[n+](C)c2ccccc12

>  <score_type>  (6) 
oracle

>  <origin>  (6) 
adg

>  <m_score__min__energy>  (6) 
-4.6799999999999997

>  <m_primary>  (6) 
energy

$$$$
6:0
     RDKit          3D

 38 40  0  0  0  0  0  0  0  0999 V2000
   59.3800   35.1190   47.6850 O   0  0  0  0  0  0  0  0  0  0  0  0
   59.0930   33.8910   47.7380 C   0  0  0  0  0  0  0  0  0  0  0  0
   59.0610   33.2090   49.0800 C   0  0  0  0  0  0  0  0  0  0  0  0
   60.3790   33.4110   49.8450 C   0  0  0  0  0  0  0  0  0  0  0  0
   61.5790   33.1040   48.9840 C   0  0  0  0  0  0  0  0  0  0  0  0
   62.5610   34.0800   48.7630 C   0  0  0  0  0  0  0  0  0  0  0  0
   63.6480   33.7880   47.9350 C   0  0  0  0  0  0  0  0  0  0  0  0
   63.7470   32.5670   47.3420 N   0  0  0  0  0  0  0  0  0  0  0  0
   62.8010   31.6060   47.5330 C   0  0  0  0  0  0  0  0  0  0  0  0
   61.7020   31.8560   48.3580 C   0  0  0  0  0  0  0  0  0  0  0  0
   58.8940   33.1520   46.5180 N   0  0  0  0  0  0  0  0  0  0  0  0
   59.5410   33.5750   45.2750 C   0  0  0  0  0  0  0  0  0  0  0  0
   58.5480   33.4560   44.1220 C   0  0  0  0  0  0  0  0  0  0  0  0
   57.8790   32.1070   44.1150 C   0  0  0  0  0  0  0  0  0  0  0  0
   57.2970   31.6270   42.9310 C   0  0  0  0  0  0  0  0  0  0  0  0
   56.6410   30.3960   42.9270 C   0  0  0  0  0  0  0  0  0  0  0  0
   56.5520   29.6620   44.1110 C   0  0  0  0  0  0  0  0  0  0  0  0
   57.1010   30.1450   45.2550 N   0  0  0  0  0  0  0  0  0  0  0  0
   57.7510   31.3410   45.2980 C   0  0  0  0  0  0  0  0  0  0  0  0
   58.3850   31.7780   46.5930 C   0  0  0  0  0  0  0  0  0  0  0  0
   58.2350   33.6271   49.6740 H   0  0  0  0  0  0  0  0  0  0  0  0
   58.9182   32.1307   48.9163 H   0  0  0  0  0  0  0  0  0  0  0  0
   60.4395   34.4569   50.1802 H   0  0  0  0  0  0  0  0  0  0  0  0
   60.3868   32.7204   50.7012 H   0  0  0  0  0  0  0  0  0  0  0  0
   62.4763   35.0685   49.2380 H   0  0  0  0  0  0  0  0  0  0  0  0
   64.4255   34.5467   47.7621 H   0  0  0  0  0  0  0  0  0  0  0  0
   64.5640   32.3640   46.7220 H   0  0  0  0  0  0  0  0  0  0  0  0
   62.9028   30.6300   47.0360 H   0  0  0  0  0  0  0  0  0  0  0  0
   60.9389   31.0795   48.5152 H   0  0  0  0  0  0  0  0  0  0  0  0
   59.8702   34.6203   45.3697 H   0  0  0  0  0  0  0  0  0  0  0  0
   60.4128   32.9340   45.0774 H   0  0  0  0  0  0  0  0  0  0  0  0
   57.7802   34.2365   44.2281 H   0  0  0  0  0  0  0  0  0  0  0  0
   59.0968   33.5770   43.1764 H   0  0  0  0  0  0  0  0  0  0  0  0
   57.3583   32.2211   42.0073 H   0  0  0  0  0  0  0  0  0  0  0  0
   56.1975   30.0069   41.9986 H   0  0  0  0  0  0  0  0  0  0  0  0
   56.0361   28.6905   44.1172 H   0  0  0  0  0  0  0  0  0  0  0  0
   57.6331   31.7207   47.3939 H   0  0  0  0  0  0  0  0  0  0  0  0
   59.2352   31.1108   46.7979 H   0  0  0  0  0  0  0  0  0  0  0  0
  1  2  2  0
  2  3  1  0
  3  4  1  0
  4  5  1  0
  5  6  2  0
  6  7  1  0
  7  8  2  0
  8  9  1  0
  9 10  2  0
  2 11  1  0
 11 12  1  0
 12 13  1  0
 13 14  1  0
 14 15  2  0
 15 16  1  0
 16 17  2  0
 17 18  1  0
 18 19  2  0
 19 20  1  0
 10  5  1  0
 20 11  1  0
 19 14  1  0
  3 21  1  0
  3 22  1  0
  4 23  1  0
  4 24  1  0
  6 25  1  0
  7 26  1  0
  8 27  1  0
  9 28  1  0
 10 29  1  0
 12 30  1  0
 12 31  1  0
 13 32  1  0
 13 33  1  0
 15 34  1  0
 16 35  1  0
 17 36  1  0
 20 37  1  0
 20 38  1  0
M  CHG  1   8   1
M  END
>  <UniqueID>  (7) 
7

>  <SMILES>  (7) 
O=C(CCc1cc[nH+]cc1)N1CCc2cccnc2C1

>  <Energy>  (7) 
41.15071740881542

>  <Genealogy>  (7) 
O=C(CCc1cc[nH+]cc1)N1CCc2cccnc2C1 (protonated)
O=C(CCc1cc[nH+]cc1)N1CCc2cccnc2C1 (3D coordinates assigned)
O=C(CCc1cc[nH+]cc1)N1CCc2cccnc2C1 (nonaromatic ring conformer: 41.15071740881542 kcal/mol)

>  <smiles>  (7) 
O=C(CCc1ccncc1)N1CCc2cccnc2C1

>  <score_type>  (7) 
oracle

>  <origin>  (7) 
adg

>  <m_score__min__energy>  (7) 
-6.4699999999999998

>  <m_primary>  (7) 
energy

$$$$
7:0
     RDKit          3D

 59 61  0  0  0  0  0  0  0  0999 V2000
   64.0270   32.6140   49.6830 C   0  0  0  0  0  0  0  0  0  0  0  0
   64.1790   32.2910   48.2610 N   0  0  0  0  0  0  0  0  0  0  0  0
   62.9140   32.4310   47.5830 C   0  0  0  0  0  0  0  0  0  0  0  0
   62.4460   33.6940   47.2100 C   0  0  0  0  0  0  0  0  0  0  0  0
   61.1990   33.8380   46.6020 C   0  0  0  0  0  0  0  0  0  0  0  0
   60.3610   32.7170   46.3710 C   0  0  0  0  0  0  0  0  0  0  0  0
   60.8580   31.4310   46.7110 C   0  0  0  0  0  0  0  0  0  0  0  0
   62.1200   31.3070   47.3270 C   0  0  0  0  0  0  0  0  0  0  0  0
   60.0940   30.2900   46.4080 C   0  0  0  0  0  0  0  0  0  0  0  0
   60.5720   28.9840   46.7760 N   0  0  0  0  0  0  0  0  0  0  0  0
   59.8890   28.2170   47.8140 C   0  0  0  0  0  0  0  0  0  0  0  0
   59.8870   28.9900   49.1360 C   0  0  0  0  0  0  0  0  0  0  0  0
   61.1920   29.4400   49.4480 O   0  0  0  0  0  0  0  0  0  0  0  0
   61.3620   29.6080   50.8470 C   0  0  0  0  0  0  0  0  0  0  0  0
   60.9160   31.0070   51.2920 C   0  0  0  0  0  0  0  0  0  0  0  0
   60.8240   31.9280   50.1450 N   0  0  0  0  0  0  0  0  0  0  0  0
   59.6070   32.7660   50.1680 C   0  0  0  0  0  0  0  0  0  0  0  0
   59.9680   34.1740   49.6880 C   0  0  0  0  0  0  0  0  0  0  0  0
   58.4880   32.1790   49.2900 C   0  0  0  0  0  0  0  0  0  0  0  0
   58.8910   30.4300   45.6960 C   0  0  0  0  0  0  0  0  0  0  0  0
   58.1440   29.2970   45.3090 C   0  0  0  0  0  0  0  0  0  0  0  0
   56.9740   29.4370   44.5660 C   0  0  0  0  0  0  0  0  0  0  0  0
   56.5370   30.7020   44.1880 C   0  0  0  0  0  0  0  0  0  0  0  0
   57.2490   31.8370   44.5760 C   0  0  0  0  0  0  0  0  0  0  0  0
   58.4190   31.7310   45.3720 C   0  0  0  0  0  0  0  0  0  0  0  0
   59.1000   32.8490   45.8180 N   0  0  0  0  0  0  0  0  0  0  0  0
   58.4660   34.1840   45.7310 C   0  0  0  0  0  0  0  0  0  0  0  0
   64.4173   31.7846   50.2911 H   0  0  0  0  0  0  0  0  0  0  0  0
   64.5875   33.5323   49.9124 H   0  0  0  0  0  0  0  0  0  0  0  0
   62.9622   32.7674   49.9124 H   0  0  0  0  0  0  0  0  0  0  0  0
   64.5310   31.3070   48.1690 H   0  0  0  0  0  0  0  0  0  0  0  0
   64.8930   32.9280   47.8340 H   0  0  0  0  0  0  0  0  0  0  0  0
   63.0667   34.5825   47.3976 H   0  0  0  0  0  0  0  0  0  0  0  0
   60.8594   34.8386   46.2962 H   0  0  0  0  0  0  0  0  0  0  0  0
   62.4870   30.3098   47.6114 H   0  0  0  0  0  0  0  0  0  0  0  0
   61.1740   28.4690   46.0960 H   0  0  0  0  0  0  0  0  0  0  0  0
   58.8509   28.0298   47.5022 H   0  0  0  0  0  0  0  0  0  0  0  0
   60.4182   27.2637   47.9593 H   0  0  0  0  0  0  0  0  0  0  0  0
   59.2163   29.8574   49.0473 H   0  0  0  0  0  0  0  0  0  0  0  0
   59.5391   28.3227   49.9383 H   0  0  0  0  0  0  0  0  0  0  0  0
   60.7604   28.8538   51.3754 H   0  0  0  0  0  0  0  0  0  0  0  0
   62.4288   29.4879   51.0869 H   0  0  0  0  0  0  0  0  0  0  0  0
   59.9293   30.9329   51.7725 H   0  0  0  0  0  0  0  0  0  0  0  0
   61.6624   31.4024   51.9967 H   0  0  0  0  0  0  0  0  0  0  0  0
   60.8480   31.3650   49.2620 H   0  0  0  0  0  0  0  0  0  0  0  0
   59.2262   32.7989   51.1995 H   0  0  0  0  0  0  0  0  0  0  0  0
   60.1352   34.8263   50.5578 H   0  0  0  0  0  0  0  0  0  0  0  0
   60.8841   34.1307   49.0806 H   0  0  0  0  0  0  0  0  0  0  0  0
   59.1441   34.5768   49.0806 H   0  0  0  0  0  0  0  0  0  0  0  0
   57.6973   31.7642   49.9325 H   0  0  0  0  0  0  0  0  0  0  0  0
   58.0661   32.9719   48.6549 H   0  0  0  0  0  0  0  0  0  0  0  0
   58.9006   31.3812   48.6549 H   0  0  0  0  0  0  0  0  0  0  0  0
   58.4891   28.2930   45.5970 H   0  0  0  0  0  0  0  0  0  0  0  0
   56.3956   28.5467   44.2782 H   0  0  0  0  0  0  0  0  0  0  0  0
   55.6261   30.8080   43.5805 H   0  0  0  0  0  0  0  0  0  0  0  0
   56.8978   32.8303   44.2598 H   0  0  0  0  0  0  0  0  0  0  0  0
   58.2828   34.5697   46.7448 H   0  0  0  0  0  0  0  0  0  0  0  0
   59.1334   34.8724   45.1918 H   0  0  0  0  0  0  0  0  0  0  0  0
   57.5107   34.1018   45.1918 H   0  0  0  0  0  0  0  0  0  0  0  0
  1  2  1  0
  2  3  1  0
  3  4  2  0
  4  5  1  0
  5  6  2  0
  6  7  1  0
  7  8  2  0
  7  9  1  0
  9 10  1  0
 10 11  1  0
 11 12  1  0
 12 13  1  0
 13 14  1  0
 14 15  1  0
 15 16  1  0
 16 17  1  0
 17 18  1  0
 17 19  1  0
  9 20  2  0
 20 21  1  0
 21 22  2  0
 22 23  1  0
 23 24  2  0
 24 25  1  0
 25 26  2  0
 26 27  1  0
  8  3  1  0
 25 20  1  0
 26  6  1  0
  1 28  1  0
  1 29  1  0
  1 30  1  0
  2 31  1  0
  2 32  1  0
  4 33  1  0
  5 34  1  0
  8 35  1  0
 10 36  1  0
 11 37  1  0
 11 38  1  0
 12 39  1  0
 12 40  1  0
 14 41  1  0
 14 42  1  0
 15 43  1  0
 15 44  1  0
 16 45  1  0
 17 46  1  0
 18 47  1  0
 18 48  1  0
 18 49  1  0
 19 50  1  0
 19 51  1  0
 19 52  1  0
 21 53  1  0
 22 54  1  0
 23 55  1  0
 24 56  1  0
 27 57  1  0
 27 58  1  0
 27 59  1  0
M  CHG  2   2   1  26   1
M  END
>  <UniqueID>  (8) 
8

>  <SMILES>  (8) 
C[NH2+]c1ccc2c(c1)c(NCCOCCNC(C)C)c1ccccc1[n+]2C

>  <Energy>  (8) 
82.47126937534186

>  <Genealogy>  (8) 
C[NH2+]c1ccc2c(c1)c(NCCOCCNC(C)C)c1ccccc1[n+]2C (protonated)
C[NH2+]c1ccc2c(c1)c(NCCOCCNC(C)C)c1ccccc1[n+]2C (3D coordinates assigned)
C[NH2+]c1ccc2c(c1)c(NCCOCCNC(C)C)c1ccccc1[n+]2C (optimized conformer: 82.47126937534186 kcal/mol)

>  <smiles>  (8) 
CNc1ccc2c(c1)c(NCCOCCNC(C)C)c1ccccc1[n+]2C

>  <score_type>  (8) 
oracle

>  <origin>  (8) 
adg

>  <m_score__min__energy>  (8) 
-4.2300000000000004

>  <m_primary>  (8) 
energy

$$$$
8:0
     RDKit          3D

 49 50  0  0  0  0  0  0  0  0999 V2000
   57.2000   29.1060   43.7700 C   0  0  0  0  0  0  0  0  0  0  0  0
   56.8400   30.5800   43.6200 C   0  0  0  0  0  0  0  0  0  0  0  0
   56.8350   31.2320   44.8890 O   0  0  0  0  0  0  0  0  0  0  0  0
   57.6350   32.3230   45.2660 C   0  0  0  0  0  0  0  0  0  0  0  0
   57.7120   33.4880   44.4720 C   0  0  0  0  0  0  0  0  0  0  0  0
   58.4740   34.5820   44.8820 C   0  0  0  0  0  0  0  0  0  0  0  0
   59.1770   34.5320   46.0830 C   0  0  0  0  0  0  0  0  0  0  0  0
   59.1260   33.3850   46.8730 C   0  0  0  0  0  0  0  0  0  0  0  0
   58.3740   32.2700   46.4770 C   0  0  0  0  0  0  0  0  0  0  0  0
   58.3980   31.1580   47.3400 O   0  0  0  0  0  0  0  0  0  0  0  0
   58.7100   29.8040   47.0050 C   0  0  0  0  0  0  0  0  0  0  0  0
   59.6460   29.1480   48.0410 C   0  0  0  0  0  0  0  0  0  0  0  0
   60.0360   30.0530   49.1510 N   0  0  1  0  0  0  0  0  0  0  0  0
   59.5190   29.5640   50.4470 C   0  0  0  0  0  0  0  0  0  0  0  0
   61.5150   30.1760   49.1990 C   0  0  0  0  0  0  0  0  0  0  0  0
   61.9940   31.4870   48.6110 C   0  0  0  0  0  0  0  0  0  0  0  0
   63.0040   31.4870   47.6330 C   0  0  0  0  0  0  0  0  0  0  0  0
   63.4700   32.6890   47.0970 C   0  0  0  0  0  0  0  0  0  0  0  0
   62.9350   33.9020   47.5330 C   0  0  0  0  0  0  0  0  0  0  0  0
   61.9330   33.9190   48.5050 C   0  0  0  0  0  0  0  0  0  0  0  0
   61.4500   32.7130   49.0530 C   0  0  0  0  0  0  0  0  0  0  0  0
   60.4360   32.6960   50.0250 O   0  0  0  0  0  0  0  0  0  0  0  0
   59.6650   33.8290   50.4100 C   0  0  0  0  0  0  0  0  0  0  0  0
   57.2624   28.8507   44.8381 H   0  0  0  0  0  0  0  0  0  0  0  0
   56.4262   28.4889   43.2900 H   0  0  0  0  0  0  0  0  0  0  0  0
   58.1712   28.9151   43.2900 H   0  0  0  0  0  0  0  0  0  0  0  0
   57.5793   31.0672   42.9672 H   0  0  0  0  0  0  0  0  0  0  0  0
   55.8340   30.6544   43.1814 H   0  0  0  0  0  0  0  0  0  0  0  0
   57.1647   33.5334   43.5189 H   0  0  0  0  0  0  0  0  0  0  0  0
   58.5197   35.4853   44.2559 H   0  0  0  0  0  0  0  0  0  0  0  0
   59.7726   35.3978   46.4082 H   0  0  0  0  0  0  0  0  0  0  0  0
   59.6837   33.3541   47.8207 H   0  0  0  0  0  0  0  0  0  0  0  0
   57.7750   29.2266   46.9567 H   0  0  0  0  0  0  0  0  0  0  0  0
   59.2292   29.8072   46.0353 H   0  0  0  0  0  0  0  0  0  0  0  0
   59.1321   28.2748   48.4693 H   0  0  0  0  0  0  0  0  0  0  0  0
   60.5698   28.8734   47.5108 H   0  0  0  0  0  0  0  0  0  0  0  0
   59.6270   31.0000   48.9710 H   0  0  0  0  0  0  0  0  0  0  0  0
   60.0512   30.0674   51.2676 H   0  0  0  0  0  0  0  0  0  0  0  0
   58.4434   29.7829   50.5188 H   0  0  0  0  0  0  0  0  0  0  0  0
   59.6777   28.4779   50.5188 H   0  0  0  0  0  0  0  0  0  0  0  0
   61.8426   30.1161   50.2474 H   0  0  0  0  0  0  0  0  0  0  0  0
   61.9438   29.3583   48.6011 H   0  0  0  0  0  0  0  0  0  0  0  0
   63.4300   30.5334   47.2877 H   0  0  0  0  0  0  0  0  0  0  0  0
   64.2592   32.6799   46.3307 H   0  0  0  0  0  0  0  0  0  0  0  0
   63.3040   34.8477   47.1094 H   0  0  0  0  0  0  0  0  0  0  0  0
   61.5178   34.8791   48.8454 H   0  0  0  0  0  0  0  0  0  0  0  0
   59.6242   33.8889   51.5076 H   0  0  0  0  0  0  0  0  0  0  0  0
   60.1300   34.7421   50.0099 H   0  0  0  0  0  0  0  0  0  0  0  0
   58.6450   33.7315   50.0099 H   0  0  0  0  0  0  0  0  0  0  0  0
  1  2  1  0
  2  3  1  0
  3  4  1  0
  4  5  2  0
  5  6  1  0
  6  7  2  0
  7  8  1  0
  8  9  2  0
  9 10  1  0
 10 11  1  0
 11 12  1  0
 12 13  1  0
 13 14  1  0
 13 15  1  0
 15 16  1  0
 16 17  2  0
 17 18  1  0
 18 19  2  0
 19 20  1  0
 20 21  2  0
 21 22  1  0
 22 23  1  0
  9  4  1  0
 21 16  1  0
  1 24  1  0
  1 25  1  0
  1 26  1  0
  2 27  1  0
  2 28  1  0
  5 29  1  0
  6 30  1  0
  7 31  1  0
  8 32  1  0
 11 33  1  0
 11 34  1  0
 12 35  1  0
 12 36  1  0
 13 37  1  6
 14 38  1  0
 14 39  1  0
 14 40  1  0
 15 41  1  0
 15 42  1  0
 17 43  1  0
 18 44  1  0
 19 45  1  0
 20 46  1  0
 23 47  1  0
 23 48  1  0
 23 49  1  0
M  CHG  1  13   1
M  END
>  <UniqueID>  (9) 
9

>  <SMILES>  (9) 
CCOc1ccccc1OCC[N@@H+](C)Cc1ccccc1OC

>  <Energy>  (9) 
50.208414774437514

>  <Genealogy>  (9) 
CCOc1ccccc1OCC[NH+](C)Cc1ccccc1OC (protonated)
CCOc1ccccc1OCC[N@@H+](C)Cc1ccccc1OC (chirality)
CCOc1ccccc1OCC[N@@H+](C)Cc1ccccc1OC (3D coordinates assigned)
CCOc1ccccc1OCC[N@@H+](C)Cc1ccccc1OC (optimized conformer: 50.208414774437514 kcal/mol)

>  <smiles>  (9) 
CCOc1ccccc1OCCN(C)Cc1ccccc1OC

>  <score_type>  (9) 
oracle

>  <origin>  (9) 
adg

>  <m_score__min__energy>  (9) 
-4.4000000000000004

>  <m_primary>  (9) 
energy

$$$$
9:0
     RDKit          3D

 60 61  0  0  0  0  0  0  0  0999 V2000
   56.4660   25.0870   45.0750 C   0  0  0  0  0  0  0  0  0  0  0  0
   55.8970   26.1500   46.0090 C   0  0  0  0  0  0  0  0  0  0  0  0
   56.3640   27.4480   45.6380 O   0  0  0  0  0  0  0  0  0  0  0  0
   57.7100   27.8330   45.4990 C   0  0  0  0  0  0  0  0  0  0  0  0
   58.7540   27.1150   46.1200 C   0  0  0  0  0  0  0  0  0  0  0  0
   60.0840   27.5100   45.9540 C   0  0  0  0  0  0  0  0  0  0  0  0
   60.3930   28.6150   45.1620 C   0  0  0  0  0  0  0  0  0  0  0  0
   59.3720   29.3370   44.5430 C   0  0  0  0  0  0  0  0  0  0  0  0
   58.0300   28.9580   44.7050 C   0  0  0  0  0  0  0  0  0  0  0  0
   56.7900   29.9230   43.8900 S   0  0  0  0  0  0  0  0  0  0  0  0
   55.6370   30.1100   44.8350 O   0  0  0  0  0  0  0  0  0  0  0  0
   56.2800   29.2410   42.6520 O   0  0  0  0  0  0  0  0  0  0  0  0
   57.4470   31.5330   43.4540 C   0  0  0  0  0  0  0  0  0  0  0  0
   57.3900   32.5420   44.6120 C   0  0  0  0  0  0  0  0  0  0  0  0
   58.4800   33.6330   44.5810 C   0  0  0  0  0  0  0  0  0  0  0  0
   58.5840   34.5170   45.8430 C   0  0  0  0  0  0  0  0  0  0  0  0
   59.2110   33.8420   47.0940 C   0  0  0  0  0  0  0  0  0  0  0  0
   60.6280   34.1990   47.3500 N   0  0  0  0  0  0  0  0  0  0  0  0
   60.8700   34.5890   48.7570 C   0  0  0  0  0  0  0  0  0  0  0  0
   61.3340   33.3980   49.6000 C   0  0  0  0  0  0  0  0  0  0  0  0
   60.4620   32.1420   49.4270 C   0  0  0  0  0  0  0  0  0  0  0  0
   61.0360   31.2060   48.4260 N   0  0  1  0  0  0  0  0  0  0  0  0
   60.3290   29.9380   48.4680 C   0  0  0  0  0  0  0  0  0  0  0  0
   58.8600   29.8740   48.1670 C   0  0  0  0  0  0  0  0  0  0  0  0
   60.9310   28.9030   48.7210 O   0  0  0  0  0  0  0  0  0  0  0  0
   60.9920   31.7380   47.0430 C   0  0  0  0  0  0  0  0  0  0  0  0
   61.5730   33.1570   46.8850 C   0  0  0  0  0  0  0  0  0  0  0  0
   56.9025   24.2715   45.6703 H   0  0  0  0  0  0  0  0  0  0  0  0
   55.6611   24.6876   44.4405 H   0  0  0  0  0  0  0  0  0  0  0  0
   57.2448   25.5353   44.4405 H   0  0  0  0  0  0  0  0  0  0  0  0
   54.7987   26.1310   45.9516 H   0  0  0  0  0  0  0  0  0  0  0  0
   56.2285   25.9341   47.0354 H   0  0  0  0  0  0  0  0  0  0  0  0
   58.5189   26.2372   46.7398 H   0  0  0  0  0  0  0  0  0  0  0  0
   60.8892   26.9477   46.4494 H   0  0  0  0  0  0  0  0  0  0  0  0
   61.4417   28.9176   45.0251 H   0  0  0  0  0  0  0  0  0  0  0  0
   59.6208   30.2107   43.9227 H   0  0  0  0  0  0  0  0  0  0  0  0
   58.4963   31.4114   43.1471 H   0  0  0  0  0  0  0  0  0  0  0  0
   56.8232   31.9321   42.6406 H   0  0  0  0  0  0  0  0  0  0  0  0
   56.4091   33.0389   44.5835 H   0  0  0  0  0  0  0  0  0  0  0  0
   57.5604   31.9636   45.5320 H   0  0  0  0  0  0  0  0  0  0  0  0
   59.4506   33.1360   44.4365 H   0  0  0  0  0  0  0  0  0  0  0  0
   58.1984   34.3127   43.7632 H   0  0  0  0  0  0  0  0  0  0  0  0
   59.1974   35.3944   45.5903 H   0  0  0  0  0  0  0  0  0  0  0  0
   57.5482   34.7594   46.1230 H   0  0  0  0  0  0  0  0  0  0  0  0
   58.6198   34.1361   47.9738 H   0  0  0  0  0  0  0  0  0  0  0  0
   59.1947   32.7590   46.9019 H   0  0  0  0  0  0  0  0  0  0  0  0
   61.6456   35.3686   48.7830 H   0  0  0  0  0  0  0  0  0  0  0  0
   59.9246   34.9614   49.1784 H   0  0  0  0  0  0  0  0  0  0  0  0
   62.3652   33.1478   49.3100 H   0  0  0  0  0  0  0  0  0  0  0  0
   61.2569   33.7006   50.6547 H   0  0  0  0  0  0  0  0  0  0  0  0
   60.3857   31.6253   50.3951 H   0  0  0  0  0  0  0  0  0  0  0  0
   59.4714   32.4598   49.0696 H   0  0  0  0  0  0  0  0  0  0  0  0
   62.0400   31.0110   48.6580 H   0  0  0  0  0  0  0  0  0  0  0  0
   58.2933   29.8493   49.1095 H   0  0  0  0  0  0  0  0  0  0  0  0
   58.5659   30.7602   47.5855 H   0  0  0  0  0  0  0  0  0  0  0  0
   58.6441   28.9656   47.5855 H   0  0  0  0  0  0  0  0  0  0  0  0
   61.5647   31.0582   46.3950 H   0  0  0  0  0  0  0  0  0  0  0  0
   59.9293   31.8026   46.7664 H   0  0  0  0  0  0  0  0  0  0  0  0
   62.4991   33.2291   47.4742 H   0  0  0  0  0  0  0  0  0  0  0  0
   61.7671   33.3274   45.8158 H   0  0  0  0  0  0  0  0  0  0  0  0
  1  2  1  0
  2  3  1  0
  3  4  1  0
  4  5  2  0
  5  6  1  0
  6  7  2  0
  7  8  1  0
  8  9  2  0
  9 10  1  0
 10 11  2  0
 10 12  2  0
 10 13  1  0
 13 14  1  0
 14 15  1  0
 15 16  1  0
 16 17  1  0
 17 18  1  0
 18 19  1  0
 19 20  1  0
 20 21  1  0
 21 22  1  0
 22 23  1  0
 23 24  1  0
 23 25  2  0
 22 26  1  0
 26 27  1  0
  9  4  1  0
 27 18  1  0
  1 28  1  0
  1 29  1  0
  1 30  1  0
  2 31  1  0
  2 32  1  0
  5 33  1  0
  6 34  1  0
  7 35  1  0
  8 36  1  0
 13 37  1  0
 13 38  1  0
 14 39  1  0
 14 40  1  0
 15 41  1  0
 15 42  1  0
 16 43  1  0
 16 44  1  0
 17 45  1  0
 17 46  1  0
 19 47  1  0
 19 48  1  0
 20 49  1  0
 20 50  1  0
 21 51  1  0
 21 52  1  0
 22 53  1  1
 24 54  1  0
 24 55  1  0
 24 56  1  0
 26 57  1  0
 26 58  1  0
 27 59  1  0
 27 60  1  0
M  CHG  1  22   1
M  END
>  <UniqueID>  (10) 
10

>  <SMILES>  (10) 
CCOc1ccccc1S(=O)(=O)CCCCCN1CCC[N@@H+](C(C)=O)CC1

>  <Energy>  (10) 
65.30730560472556

>  <Genealogy>  (10) 
CCOc1ccccc1S(=O)(=O)CCCCCN1CCC[NH+](C(C)=O)CC1 (protonated)
CCOc1ccccc1S(=O)(=O)CCCCCN1CCC[N@@H+](C(C)=O)CC1 (chirality)
CCOc1ccccc1S(=O)(=O)CCCCCN1CCC[N@@H+](C(C)=O)CC1 (3D coordinates assigned)
CCOc1ccccc1S(=O)(=O)CCCCCN1CCC[N@@H+](C(C)=O)CC1 (nonaromatic ring conformer: 65.30730560472556 kcal/mol)

>  <smiles>  (10) 
CCOc1ccccc1S(=O)(=O)CCCCCN1CCCN(C(C)=O)CC1

>  <score_type>  (10) 
oracle

>  <origin>  (10) 
adg

>  <m_score__min__energy>  (10) 
-4.8099999999999996

>  <m_primary>  (10) 
energy

$$$$
10:0
     RDKit          3D

 44 46  0  0  0  0  0  0  0  0999 V2000
   56.5720   30.0550   42.7500 C   0  0  0  0  0  0  0  0  0  0  0  0
   55.5460   29.9270   43.8800 C   0  0  0  0  0  0  0  0  0  0  0  0
   55.9090   28.8950   44.8640 N   0  0  0  0  0  0  0  0  0  0  0  0
   57.1980   28.2630   44.5520 C   0  0  0  0  0  0  0  0  0  0  0  0
   58.2870   28.8300   45.4710 C   0  0  0  0  0  0  0  0  0  0  0  0
   57.7560   29.7830   46.4690 N   0  0  0  0  0  0  0  0  0  0  0  0
   58.7010   30.8490   46.7830 C   0  0  0  0  0  0  0  0  0  0  0  0
   58.6100   32.1040   46.1190 C   0  0  0  0  0  0  0  0  0  0  0  0
   57.5680   32.3880   45.1970 C   0  0  0  0  0  0  0  0  0  0  0  0
   57.4580   33.6380   44.5950 C   0  0  0  0  0  0  0  0  0  0  0  0
   58.3680   34.6380   44.8960 C   0  0  0  0  0  0  0  0  0  0  0  0
   59.4130   34.3870   45.7800 C   0  0  0  0  0  0  0  0  0  0  0  0
   59.5810   33.1100   46.3780 C   0  0  0  0  0  0  0  0  0  0  0  0
   60.6540   32.8460   47.2020 N   0  0  0  0  0  0  0  0  0  0  0  0
   61.8230   33.7560   47.2080 C   0  0  0  0  0  0  0  0  0  0  0  0
   60.6540   31.7220   48.0010 C   0  0  0  0  0  0  0  0  0  0  0  0
   61.5810   31.5820   49.0670 C   0  0  0  0  0  0  0  0  0  0  0  0
   61.6300   30.4260   49.8360 C   0  0  0  0  0  0  0  0  0  0  0  0
   60.7550   29.3830   49.5770 C   0  0  0  0  0  0  0  0  0  0  0  0
   60.8080   28.2550   50.3270 F   0  0  0  0  0  0  0  0  0  0  0  0
   59.8030   29.5030   48.5670 C   0  0  0  0  0  0  0  0  0  0  0  0
   59.7080   30.6790   47.7770 C   0  0  0  0  0  0  0  0  0  0  0  0
   57.5769   30.1804   43.1796 H   0  0  0  0  0  0  0  0  0  0  0  0
   56.5492   29.1470   42.1294 H   0  0  0  0  0  0  0  0  0  0  0  0
   56.3268   30.9295   42.1294 H   0  0  0  0  0  0  0  0  0  0  0  0
   55.4699   30.8948   44.3972 H   0  0  0  0  0  0  0  0  0  0  0  0
   54.5885   29.6309   43.4267 H   0  0  0  0  0  0  0  0  0  0  0  0
   55.1630   28.1600   44.8830 H   0  0  0  0  0  0  0  0  0  0  0  0
   57.1193   27.1766   44.7053 H   0  0  0  0  0  0  0  0  0  0  0  0
   57.4612   28.4699   43.5042 H   0  0  0  0  0  0  0  0  0  0  0  0
   58.7675   27.9956   46.0029 H   0  0  0  0  0  0  0  0  0  0  0  0
   59.0020   29.3769   44.8388 H   0  0  0  0  0  0  0  0  0  0  0  0
   57.5220   29.2630   47.3430 H   0  0  0  0  0  0  0  0  0  0  0  0
   56.8220   30.1380   46.1740 H   0  0  0  0  0  0  0  0  0  0  0  0
   56.8341   31.6055   44.9541 H   0  0  0  0  0  0  0  0  0  0  0  0
   56.6464   33.8323   43.8784 H   0  0  0  0  0  0  0  0  0  0  0  0
   58.2645   35.6317   44.4357 H   0  0  0  0  0  0  0  0  0  0  0  0
   60.1222   35.1929   46.0201 H   0  0  0  0  0  0  0  0  0  0  0  0
   62.1090   33.9786   48.2466 H   0  0  0  0  0  0  0  0  0  0  0  0
   62.6657   33.2738   46.6909 H   0  0  0  0  0  0  0  0  0  0  0  0
   61.5623   34.6912   46.6909 H   0  0  0  0  0  0  0  0  0  0  0  0
   62.2750   32.4061   49.2888 H   0  0  0  0  0  0  0  0  0  0  0  0
   62.3637   30.3385   50.6509 H   0  0  0  0  0  0  0  0  0  0  0  0
   59.1106   28.6695   48.3776 H   0  0  0  0  0  0  0  0  0  0  0  0
  1  2  1  0
  2  3  1  0
  3  4  1  0
  4  5  1  0
  5  6  1  0
  6  7  1  0
  7  8  2  0
  8  9  1  0
  9 10  2  0
 10 11  1  0
 11 12  2  0
 12 13  1  0
 13 14  2  0
 14 15  1  0
 14 16  1  0
 16 17  2  0
 17 18  1  0
 18 19  2  0
 19 20  1  0
 19 21  1  0
 21 22  2  0
 22  7  1  0
 13  8  1  0
 22 16  1  0
  1 23  1  0
  1 24  1  0
  1 25  1  0
  2 26  1  0
  2 27  1  0
  3 28  1  0
  4 29  1  0
  4 30  1  0
  5 31  1  0
  5 32  1  0
  6 33  1  0
  6 34  1  0
  9 35  1  0
 10 36  1  0
 11 37  1  0
 12 38  1  0
 15 39  1  0
 15 40  1  0
 15 41  1  0
 17 42  1  0
 18 43  1  0
 21 44  1  0
M  CHG  2   6   1  14   1
M  END
>  <UniqueID>  (11) 
11

>  <SMILES>  (11) 
CCNCC[NH2+]c1c2ccccc2[n+](C)c2ccc(F)cc12

>  <Energy>  (11) 
71.61227429205556

>  <Genealogy>  (11) 
CCNCC[NH2+]c1c2ccccc2[n+](C)c2ccc(F)cc12 (protonated)
CCNCC[NH2+]c1c2ccccc2[n+](C)c2ccc(F)cc12 (3D coordinates assigned)
CCNCC[NH2+]c1c2ccccc2[n+](C)c2ccc(F)cc12 (optimized conformer: 71.61227429205556 kcal/mol)

>  <smiles>  (11) 
CCNCCNc1c2ccccc2[n+](C)c2ccc(F)cc12

>  <score_type>  (11) 
oracle

>  <origin>  (11) 
adg

>  <m_score__min__energy>  (11) 
-4.0999999999999996

>  <m_primary>  (11) 
energy

$$$$
11:0
     RDKit          3D

 60 62  0  0  0  0  0  0  0  0999 V2000
   57.0360   27.7510   45.5010 C   0  0  0  0  0  0  0  0  0  0  0  0
   56.7890   29.2250   45.1490 C   0  0  0  0  0  0  0  0  0  0  0  0
   57.8830   30.1330   45.5680 N   0  0  0  0  0  0  0  0  0  0  0  0
   58.8830   29.4530   46.4190 C   0  0  0  0  0  0  0  0  0  0  0  0
   60.3040   29.7090   45.9220 C   0  0  0  0  0  0  0  0  0  0  0  0
   58.4820   30.8720   44.4290 C   0  0  0  0  0  0  0  0  0  0  0  0
   57.8820   32.2720   44.3430 C   0  0  0  0  0  0  0  0  0  0  0  0
   57.1530   32.5400   45.5230 O   0  0  0  0  0  0  0  0  0  0  0  0
   57.4290   33.8550   45.9580 C   0  0  0  0  0  0  0  0  0  0  0  0
   58.3030   33.8090   47.2120 C   0  0  0  0  0  0  0  0  0  0  0  0
   58.8280   32.4630   47.4580 N   0  0  0  0  0  0  0  0  0  0  0  0
   59.9710   32.2100   48.2940 C   0  0  0  0  0  0  0  0  0  0  0  0
   61.2490   32.6650   47.9200 C   0  0  0  0  0  0  0  0  0  0  0  0
   61.4580   33.3100   46.6830 C   0  0  0  0  0  0  0  0  0  0  0  0
   62.7040   33.8410   46.3580 C   0  0  0  0  0  0  0  0  0  0  0  0
   63.7600   33.7350   47.2540 C   0  0  0  0  0  0  0  0  0  0  0  0
   63.5920   33.0510   48.4570 C   0  0  0  0  0  0  0  0  0  0  0  0
   62.3500   32.4520   48.7920 C   0  0  0  0  0  0  0  0  0  0  0  0
   62.1980   31.6810   49.9290 N   0  0  0  0  0  0  0  0  0  0  0  0
   63.3920   31.2100   50.6680 C   0  0  0  0  0  0  0  0  0  0  0  0
   60.9340   31.3140   50.3530 C   0  0  0  0  0  0  0  0  0  0  0  0
   60.7150   30.7370   51.6290 C   0  0  0  0  0  0  0  0  0  0  0  0
   59.4440   30.3230   52.0260 C   0  0  0  0  0  0  0  0  0  0  0  0
   58.3460   30.4890   51.1740 C   0  0  0  0  0  0  0  0  0  0  0  0
   57.0510   30.0840   51.5300 O   0  0  0  0  0  0  0  0  0  0  0  0
   56.0530   30.9530   52.0550 C   0  0  0  0  0  0  0  0  0  0  0  0
   58.5340   31.0920   49.9320 C   0  0  0  0  0  0  0  0  0  0  0  0
   59.8080   31.5360   49.5180 C   0  0  0  0  0  0  0  0  0  0  0  0
   57.0557   27.6335   46.5945 H   0  0  0  0  0  0  0  0  0  0  0  0
   56.2288   27.1333   45.0803 H   0  0  0  0  0  0  0  0  0  0  0  0
   58.0004   27.4302   45.0803 H   0  0  0  0  0  0  0  0  0  0  0  0
   56.6703   29.3056   44.0584 H   0  0  0  0  0  0  0  0  0  0  0  0
   55.8871   29.5375   45.6957 H   0  0  0  0  0  0  0  0  0  0  0  0
   58.7910   29.8283   47.4489 H   0  0  0  0  0  0  0  0  0  0  0  0
   58.6923   28.3704   46.3796 H   0  0  0  0  0  0  0  0  0  0  0  0
   60.9774   29.8303   46.7833 H   0  0  0  0  0  0  0  0  0  0  0  0
   60.6384   28.8566   45.3123 H   0  0  0  0  0  0  0  0  0  0  0  0
   60.3199   30.6245   45.3123 H   0  0  0  0  0  0  0  0  0  0  0  0
   59.5693   30.9499   44.5766 H   0  0  0  0  0  0  0  0  0  0  0  0
   58.2705   30.3302   43.4954 H   0  0  0  0  0  0  0  0  0  0  0  0
   58.6888   33.0116   44.2334 H   0  0  0  0  0  0  0  0  0  0  0  0
   57.2113   32.3331   43.4732 H   0  0  0  0  0  0  0  0  0  0  0  0
   57.9587   34.3999   45.1627 H   0  0  0  0  0  0  0  0  0  0  0  0
   56.4842   34.3682   46.1905 H   0  0  0  0  0  0  0  0  0  0  0  0
   59.1469   34.5029   47.0839 H   0  0  0  0  0  0  0  0  0  0  0  0
   57.6824   34.0976   48.0732 H   0  0  0  0  0  0  0  0  0  0  0  0
   58.3040   31.6440   47.0730 H   0  0  0  0  0  0  0  0  0  0  0  0
   60.6274   33.3946   45.9668 H   0  0  0  0  0  0  0  0  0  0  0  0
   62.8518   34.3445   45.3913 H   0  0  0  0  0  0  0  0  0  0  0  0
   64.7313   34.1919   47.0137 H   0  0  0  0  0  0  0  0  0  0  0  0
   64.4361   32.9743   49.1581 H   0  0  0  0  0  0  0  0  0  0  0  0
   63.2062   31.2833   51.7497 H   0  0  0  0  0  0  0  0  0  0  0  0
   63.5987   30.1630   50.4016 H   0  0  0  0  0  0  0  0  0  0  0  0
   64.2579   31.8339   50.4016 H   0  0  0  0  0  0  0  0  0  0  0  0
   61.5631   30.6136   52.3186 H   0  0  0  0  0  0  0  0  0  0  0  0
   59.3034   29.8629   53.0152 H   0  0  0  0  0  0  0  0  0  0  0  0
   56.0844   30.9257   53.1542 H   0  0  0  0  0  0  0  0  0  0  0  0
   56.2415   31.9797   51.7082 H   0  0  0  0  0  0  0  0  0  0  0  0
   55.0619   30.6250   51.7082 H   0  0  0  0  0  0  0  0  0  0  0  0
   57.6725   31.2246   49.2610 H   0  0  0  0  0  0  0  0  0  0  0  0
  1  2  1  0
  2  3  1  0
  3  4  1  0
  4  5  1  0
  3  6  1  0
  6  7  1  0
  7  8  1  0
  8  9  1  0
  9 10  1  0
 10 11  1  0
 11 12  1  0
 12 13  2  0
 13 14  1  0
 14 15  2  0
 15 16  1  0
 16 17  2  0
 17 18  1  0
 18 19  2  0
 19 20  1  0
 19 21  1  0
 21 22  2  0
 22 23  1  0
 23 24  2  0
 24 25  1  0
 25 26  1  0
 24 27  1  0
 27 28  2  0
 28 12  1  0
 18 13  1  0
 28 21  1  0
  1 29  1  0
  1 30  1  0
  1 31  1  0
  2 32  1  0
  2 33  1  0
  4 34  1  0
  4 35  1  0
  5 36  1  0
  5 37  1  0
  5 38  1  0
  6 39  1  0
  6 40  1  0
  7 41  1  0
  7 42  1  0
  9 43  1  0
  9 44  1  0
 10 45  1  0
 10 46  1  0
 11 47  1  0
 14 48  1  0
 15 49  1  0
 16 50  1  0
 17 51  1  0
 20 52  1  0
 20 53  1  0
 20 54  1  0
 22 55  1  0
 23 56  1  0
 26 57  1  0
 26 58  1  0
 26 59  1  0
 27 60  1  0
M  CHG  1  19   1
M  END
>  <UniqueID>  (12) 
12

>  <SMILES>  (12) 
CCN(CC)CCOCCNc1c2ccccc2[n+](C)c2ccc(OC)cc12

>  <Energy>  (12) 
78.47094326116772

>  <Genealogy>  (12) 
CCN(CC)CCOCCNc1c2ccccc2[n+](C)c2ccc(OC)cc12 (3D coordinates assigned)
CCN(CC)CCOCCNc1c2ccccc2[n+](C)c2ccc(OC)cc12 (optimized conformer: 78.47094326116772 kcal/mol)

>  <smiles>  (12) 
CCN(CC)CCOCCNc1c2ccccc2[n+](C)c2ccc(OC)cc12

>  <score_type>  (12) 
oracle

>  <origin>  (12) 
adg

>  <m_score__min__energy>  (12) 
-5.75

>  <m_primary>  (12) 
energy

$$$$
12:0
     RDKit          3D

 54 57  0  0  0  0  0  0  0  0999 V2000
   59.3350   33.8560   51.7210 C   0  0  0  0  0  0  0  0  0  0  0  0
   58.0340   33.0940   52.0250 C   0  0  0  0  0  0  0  0  0  0  0  0
   57.6410   32.1130   50.9830 N   0  0  2  0  0  0  0  0  0  0  0  0
   57.6500   30.7270   51.5060 C   0  0  0  0  0  0  0  0  0  0  0  0
   58.4620   32.2500   49.7500 C   0  0  0  0  0  0  0  0  0  0  0  0
   59.2070   30.9490   49.4000 C   0  0  0  0  0  0  0  0  0  0  0  0
   60.0270   31.1130   48.1960 N   0  0  0  0  0  0  0  0  0  0  0  0
   59.4470   31.0460   46.8790 C   0  0  0  0  0  0  0  0  0  0  0  0
   58.9760   29.8100   46.4090 C   0  0  0  0  0  0  0  0  0  0  0  0
   59.2600   28.6180   47.1180 C   0  0  0  0  0  0  0  0  0  0  0  0
   58.7460   27.3980   46.6940 C   0  0  0  0  0  0  0  0  0  0  0  0
   57.9380   27.3420   45.5600 C   0  0  0  0  0  0  0  0  0  0  0  0
   57.6390   28.5030   44.8490 C   0  0  0  0  0  0  0  0  0  0  0  0
   58.1740   29.7600   45.2370 C   0  0  0  0  0  0  0  0  0  0  0  0
   57.8840   30.9210   44.5460 N   0  0  0  0  0  0  0  0  0  0  0  0
   57.2040   30.8380   43.2360 C   0  0  0  0  0  0  0  0  0  0  0  0
   58.2610   32.1500   45.0560 C   0  0  0  0  0  0  0  0  0  0  0  0
   57.7410   33.3650   44.5380 C   0  0  0  0  0  0  0  0  0  0  0  0
   58.1800   34.6000   45.0040 C   0  0  0  0  0  0  0  0  0  0  0  0
   59.1880   34.6650   45.9520 C   0  0  0  0  0  0  0  0  0  0  0  0
   59.7150   33.4960   46.5160 C   0  0  0  0  0  0  0  0  0  0  0  0
   60.9350   33.6460   47.3410 C   0  0  0  0  0  0  0  0  0  0  0  0
   62.2020   33.1800   46.9450 C   0  0  0  0  0  0  0  0  0  0  0  0
   63.2030   33.4100   47.8850 C   0  0  0  0  0  0  0  0  0  0  0  0
   62.5050   34.1560   49.2200 S   0  0  0  0  0  0  0  0  0  0  0  0
   60.9320   34.2130   48.6120 C   0  0  0  0  0  0  0  0  0  0  0  0
   59.1630   32.2270   46.1580 C   0  0  0  0  0  0  0  0  0  0  0  0
   59.8220   34.1412   52.6652 H   0  0  0  0  0  0  0  0  0  0  0  0
   60.0106   33.2109   51.1402 H   0  0  0  0  0  0  0  0  0  0  0  0
   59.1028   34.7609   51.1402 H   0  0  0  0  0  0  0  0  0  0  0  0
   58.1653   32.5538   52.9742 H   0  0  0  0  0  0  0  0  0  0  0  0
   57.2321   33.8458   52.0672 H   0  0  0  0  0  0  0  0  0  0  0  0
   56.6490   32.3430   50.7440 H   0  0  0  0  0  0  0  0  0  0  0  0
   57.6499   30.7501   52.6058 H   0  0  0  0  0  0  0  0  0  0  0  0
   56.7553   30.1951   51.1503 H   0  0  0  0  0  0  0  0  0  0  0  0
   58.5515   30.2067   51.1503 H   0  0  0  0  0  0  0  0  0  0  0  0
   57.8010   32.5161   48.9120 H   0  0  0  0  0  0  0  0  0  0  0  0
   59.2143   33.0320   49.9303 H   0  0  0  0  0  0  0  0  0  0  0  0
   59.8580   30.6711   50.2420 H   0  0  0  0  0  0  0  0  0  0  0  0
   58.4620   30.1627   49.2086 H   0  0  0  0  0  0  0  0  0  0  0  0
   61.0660   31.1420   48.2990 H   0  0  0  0  0  0  0  0  0  0  0  0
   59.8951   28.6577   48.0153 H   0  0  0  0  0  0  0  0  0  0  0  0
   58.9766   26.4788   47.2524 H   0  0  0  0  0  0  0  0  0  0  0  0
   57.5337   26.3757   45.2240 H   0  0  0  0  0  0  0  0  0  0  0  0
   56.9772   28.4446   43.9723 H   0  0  0  0  0  0  0  0  0  0  0  0
   56.1231   30.7061   43.3917 H   0  0  0  0  0  0  0  0  0  0  0  0
   57.3826   31.7646   42.6708 H   0  0  0  0  0  0  0  0  0  0  0  0
   57.6003   29.9816   42.6708 H   0  0  0  0  0  0  0  0  0  0  0  0
   56.9738   33.3292   43.7505 H   0  0  0  0  0  0  0  0  0  0  0  0
   57.7265   35.5255   44.6195 H   0  0  0  0  0  0  0  0  0  0  0  0
   59.5786   35.6445   46.2651 H   0  0  0  0  0  0  0  0  0  0  0  0
   62.3848   32.6804   45.9822 H   0  0  0  0  0  0  0  0  0  0  0  0
   64.2657   33.1490   47.7735 H   0  0  0  0  0  0  0  0  0  0  0  0
   60.0550   34.6271   49.1310 H   0  0  0  0  0  0  0  0  0  0  0  0
  1  2  1  0
  2  3  1  0
  3  4  1  0
  3  5  1  0
  5  6  1  0
  6  7  1  0
  7  8  1  0
  8  9  2  0
  9 10  1  0
 10 11  2  0
 11 12  1  0
 12 13  2  0
 13 14  1  0
 14 15  2  0
 15 16  1  0
 15 17  1  0
 17 18  2  0
 18 19  1  0
 19 20  2  0
 20 21  1  0
 21 22  1  0
 22 23  1  0
 23 24  2  0
 24 25  1  0
 25 26  1  0
 21 27  2  0
 27  8  1  0
 14  9  1  0
 27 17  1  0
 26 22  2  0
  1 28  1  0
  1 29  1  0
  1 30  1  0
  2 31  1  0
  2 32  1  0
  3 33  1  6
  4 34  1  0
  4 35  1  0
  4 36  1  0
  5 37  1  0
  5 38  1  0
  6 39  1  0
  6 40  1  0
  7 41  1  0
 10 42  1  0
 11 43  1  0
 12 44  1  0
 13 45  1  0
 16 46  1  0
 16 47  1  0
 16 48  1  0
 18 49  1  0
 19 50  1  0
 20 51  1  0
 23 52  1  0
 24 53  1  0
 26 54  1  0
M  CHG  2   3   1  15   1
M  END
>  <UniqueID>  (13) 
13

>  <SMILES>  (13) 
CC[N@H+](C)CCNc1c2ccccc2[n+](C)c2cccc(-c3ccsc3)c12

>  <Energy>  (13) 
122.64138596169505

>  <Genealogy>  (13) 
CC[NH+](C)CCNc1c2ccccc2[n+](C)c2cccc(-c3ccsc3)c12 (protonated)
CC[N@H+](C)CCNc1c2ccccc2[n+](C)c2cccc(-c3ccsc3)c12 (chirality)
CC[N@H+](C)CCNc1c2ccccc2[n+](C)c2cccc(-c3ccsc3)c12 (3D coordinates assigned)
CC[N@H+](C)CCNc1c2ccccc2[n+](C)c2cccc(-c3ccsc3)c12 (optimized conformer: 122.64138596169505 kcal/mol)

>  <smiles>  (13) 
CCN(C)CCNc1c2ccccc2[n+](C)c2cccc(-c3ccsc3)c12

>  <score_type>  (13) 
oracle

>  <origin>  (13) 
adg

>  <m_score__min__energy>  (13) 
-5.4100000000000001

>  <m_primary>  (13) 
energy

$$$$
13:0
     RDKit          3D

 48 50  0  0  0  0  0  0  0  0999 V2000
   59.6260   33.4050   49.4890 C   0  0  0  0  0  0  0  0  0  0  0  0
   60.0430   34.4780   48.4800 C   0  0  0  0  0  0  0  0  0  0  0  0
   58.9440   34.8440   47.5660 N   0  0  0  0  0  0  0  0  0  0  0  0
   59.2320   34.5410   46.1550 C   0  0  0  0  0  0  0  0  0  0  0  0
   58.9860   33.0900   45.8240 C   0  0  0  0  0  0  0  0  0  0  0  0
   57.8920   32.7160   45.0300 C   0  0  0  0  0  0  0  0  0  0  0  0
   57.6470   31.3690   44.7510 C   0  0  0  0  0  0  0  0  0  0  0  0
   58.4920   30.3660   45.2630 C   0  0  0  0  0  0  0  0  0  0  0  0
   58.2410   28.9300   44.9730 C   0  0  0  0  0  0  0  0  0  0  0  0
   58.9510   28.1140   44.0930 C   0  0  0  0  0  0  0  0  0  0  0  0
   58.4740   26.7980   44.0280 C   0  0  0  0  0  0  0  0  0  0  0  0
   57.3780   26.5530   44.8550 C   0  0  0  0  0  0  0  0  0  0  0  0
   56.6450   25.2690   45.0100 C   0  0  0  0  0  0  0  0  0  0  0  0
   55.8930   25.0030   46.1660 C   0  0  0  0  0  0  0  0  0  0  0  0
   55.2050   23.7960   46.3050 C   0  0  0  0  0  0  0  0  0  0  0  0
   55.2520   22.8260   45.2890 C   0  0  0  0  0  0  0  0  0  0  0  0
   54.5740   21.6020   45.3930 O   0  0  0  0  0  0  0  0  0  0  0  0
   54.8650   20.5980   46.3610 C   0  0  0  0  0  0  0  0  0  0  0  0
   55.9960   23.0780   44.1270 C   0  0  0  0  0  0  0  0  0  0  0  0
   56.0250   22.0920   43.1280 O   0  0  0  0  0  0  0  0  0  0  0  0
   57.0540   21.1200   42.9790 C   0  0  0  0  0  0  0  0  0  0  0  0
   56.6880   24.2990   43.9920 C   0  0  0  0  0  0  0  0  0  0  0  0
   57.0180   27.9920   45.6560 S   0  0  0  0  0  0  0  0  0  0  0  0
   59.5900   30.7490   46.0550 C   0  0  0  0  0  0  0  0  0  0  0  0
   59.8320   32.0960   46.3350 C   0  0  0  0  0  0  0  0  0  0  0  0
   59.7737   33.7851   50.5106 H   0  0  0  0  0  0  0  0  0  0  0  0
   58.5652   33.1547   49.3407 H   0  0  0  0  0  0  0  0  0  0  0  0
   60.2395   32.5041   49.3407 H   0  0  0  0  0  0  0  0  0  0  0  0
   60.3601   35.3765   49.0297 H   0  0  0  0  0  0  0  0  0  0  0  0
   60.8636   34.0684   47.8727 H   0  0  0  0  0  0  0  0  0  0  0  0
   58.6690   35.8480   47.6720 H   0  0  0  0  0  0  0  0  0  0  0  0
   58.5857   35.1642   45.5194 H   0  0  0  0  0  0  0  0  0  0  0  0
   60.2958   34.7540   45.9733 H   0  0  0  0  0  0  0  0  0  0  0  0
   57.2222   33.4885   44.6241 H   0  0  0  0  0  0  0  0  0  0  0  0
   56.7862   31.0897   44.1257 H   0  0  0  0  0  0  0  0  0  0  0  0
   59.8081   28.4711   43.5031 H   0  0  0  0  0  0  0  0  0  0  0  0
   58.9231   26.0282   43.3833 H   0  0  0  0  0  0  0  0  0  0  0  0
   55.8456   25.7527   46.9695 H   0  0  0  0  0  0  0  0  0  0  0  0
   54.6214   23.6027   47.2172 H   0  0  0  0  0  0  0  0  0  0  0  0
   54.7437   21.0164   47.3711 H   0  0  0  0  0  0  0  0  0  0  0  0
   54.1753   19.7512   46.2297 H   0  0  0  0  0  0  0  0  0  0  0  0
   55.9006   20.2512   46.2297 H   0  0  0  0  0  0  0  0  0  0  0  0
   57.3980   20.7951   43.9720 H   0  0  0  0  0  0  0  0  0  0  0  0
   56.6629   20.2540   42.4249 H   0  0  0  0  0  0  0  0  0  0  0  0
   57.8964   21.5598   42.4249 H   0  0  0  0  0  0  0  0  0  0  0  0
   57.2690   24.4957   43.0789 H   0  0  0  0  0  0  0  0  0  0  0  0
   60.2650   29.9796   46.4580 H   0  0  0  0  0  0  0  0  0  0  0  0
   60.6918   32.3784   46.9603 H   0  0  0  0  0  0  0  0  0  0  0  0
  1  2  1  0
  2  3  1  0
  3  4  1  0
  4  5  1  0
  5  6  2  0
  6  7  1  0
  7  8  2  0
  8  9  1  0
  9 10  2  0
 10 11  1  0
 11 12  2  0
 12 13  1  0
 13 14  2  0
 14 15  1  0
 15 16  2  0
 16 17  1  0
 17 18  1  0
 16 19  1  0
 19 20  1  0
 20 21  1  0
 19 22  2  0
 12 23  1  0
  8 24  1  0
 24 25  2  0
 25  5  1  0
 23  9  1  0
 22 13  1  0
  1 26  1  0
  1 27  1  0
  1 28  1  0
  2 29  1  0
  2 30  1  0
  3 31  1  0
  4 32  1  0
  4 33  1  0
  6 34  1  0
  7 35  1  0
 10 36  1  0
 11 37  1  0
 14 38  1  0
 15 39  1  0
 18 40  1  0
 18 41  1  0
 18 42  1  0
 21 43  1  0
 21 44  1  0
 21 45  1  0
 22 46  1  0
 24 47  1  0
 25 48  1  0
M  END
>  <UniqueID>  (14) 
14

>  <SMILES>  (14) 
CCNCc1ccc(-c2ccc(-c3ccc(OC)c(OC)c3)s2)cc1

>  <Energy>  (14) 
79.0724265751489

>  <Genealogy>  (14) 
CCNCc1ccc(-c2ccc(-c3ccc(OC)c(OC)c3)s2)cc1 (3D coordinates assigned)
CCNCc1ccc(-c2ccc(-c3ccc(OC)c(OC)c3)s2)cc1 (optimized conformer: 79.0724265751489 kcal/mol)

>  <smiles>  (14) 
CCNCc1ccc(-c2ccc(-c3ccc(OC)c(OC)c3)s2)cc1

>  <score_type>  (14) 
oracle

>  <origin>  (14) 
adg

>  <m_score__min__energy>  (14) 
-7.2199999999999998

>  <m_primary>  (14) 
energy

$$$$
14:0
     RDKit          3D

 54 55  0  0  0  0  0  0  0  0999 V2000
   67.3940   33.2970   50.5250 C   0  0  0  0  0  0  0  0  0  0  0  0
   66.7800   31.8990   50.4990 C   0  0  0  0  0  0  0  0  0  0  0  0
   65.3230   31.9660   50.2530 N   0  0  0  0  0  0  0  0  0  0  0  0
   64.5430   31.3420   51.3360 C   0  0  0  0  0  0  0  0  0  0  0  0
   64.8560   33.3380   49.9470 C   0  0  0  0  0  0  0  0  0  0  0  0
   64.0980   33.4650   48.6030 C   0  0  0  0  0  0  0  0  0  0  0  0
   63.6330   32.1460   48.1040 N   0  0  0  0  0  0  0  0  0  0  0  0
   62.1860   32.0580   47.7820 C   0  0  1  0  0  0  0  0  0  0  0  0
   61.6560   33.3120   47.0630 C   0  0  0  0  0  0  0  0  0  0  0  0
   60.1320   33.2540   46.9540 C   0  0  0  0  0  0  0  0  0  0  0  0
   59.6260   31.9330   46.4080 C   0  0  0  0  0  0  0  0  0  0  0  0
   60.4040   30.7590   46.5080 C   0  0  0  0  0  0  0  0  0  0  0  0
   59.8760   29.5410   46.0650 C   0  0  0  0  0  0  0  0  0  0  0  0
   58.5790   29.4580   45.5290 C   0  0  0  0  0  0  0  0  0  0  0  0
   58.0650   28.2290   45.0830 O   0  0  0  0  0  0  0  0  0  0  0  0
   58.4710   27.5510   43.8990 C   0  0  0  0  0  0  0  0  0  0  0  0
   57.7920   30.6320   45.4360 C   0  0  0  0  0  0  0  0  0  0  0  0
   56.5090   30.6590   44.8580 O   0  0  0  0  0  0  0  0  0  0  0  0
   56.1250   30.1120   43.6010 C   0  0  0  0  0  0  0  0  0  0  0  0
   58.3090   31.8550   45.9160 C   0  0  0  0  0  0  0  0  0  0  0  0
   57.5300   33.0190   45.8960 O   0  0  0  0  0  0  0  0  0  0  0  0
   57.6330   34.0030   44.8700 C   0  0  0  0  0  0  0  0  0  0  0  0
   61.8390   30.7820   46.9840 C   0  0  0  0  0  0  0  0  0  0  0  0
   67.5343   33.6165   51.5682 H   0  0  0  0  0  0  0  0  0  0  0  0
   68.3673   33.2796   50.0128 H   0  0  0  0  0  0  0  0  0  0  0  0
   66.7226   34.0019   50.0128 H   0  0  0  0  0  0  0  0  0  0  0  0
   67.2537   31.3126   49.6979 H   0  0  0  0  0  0  0  0  0  0  0  0
   66.9496   31.4229   51.4760 H   0  0  0  0  0  0  0  0  0  0  0  0
   64.9442   31.6629   52.3087 H   0  0  0  0  0  0  0  0  0  0  0  0
   63.4902   31.6499   51.2540 H   0  0  0  0  0  0  0  0  0  0  0  0
   64.6123   30.2473   51.2540 H   0  0  0  0  0  0  0  0  0  0  0  0
   64.1829   33.6616   50.7546 H   0  0  0  0  0  0  0  0  0  0  0  0
   65.7547   33.9668   49.8639 H   0  0  0  0  0  0  0  0  0  0  0  0
   63.2252   34.1188   48.7471 H   0  0  0  0  0  0  0  0  0  0  0  0
   64.7901   33.8867   47.8593 H   0  0  0  0  0  0  0  0  0  0  0  0
   63.8640   31.3900   48.7910 H   0  0  0  0  0  0  0  0  0  0  0  0
   64.1710   31.9100   47.2370 H   0  0  0  0  0  0  0  0  0  0  0  0
   61.6726   31.9978   48.7530 H   0  0  0  0  0  0  0  0  0  0  0  0
   61.9457   34.2072   47.6328 H   0  0  0  0  0  0  0  0  0  0  0  0
   62.0867   33.3547   46.0517 H   0  0  0  0  0  0  0  0  0  0  0  0
   59.7031   33.4066   47.9554 H   0  0  0  0  0  0  0  0  0  0  0  0
   59.8227   34.0406   46.2501 H   0  0  0  0  0  0  0  0  0  0  0  0
   60.4883   28.6301   46.1377 H   0  0  0  0  0  0  0  0  0  0  0  0
   59.0187   26.6363   44.1698 H   0  0  0  0  0  0  0  0  0  0  0  0
   57.5834   27.2850   43.3061 H   0  0  0  0  0  0  0  0  0  0  0  0
   59.1246   28.2078   43.3061 H   0  0  0  0  0  0  0  0  0  0  0  0
   55.5000   29.2216   43.7641 H   0  0  0  0  0  0  0  0  0  0  0  0
   55.5541   30.8619   43.0338 H   0  0  0  0  0  0  0  0  0  0  0  0
   57.0243   29.8298   43.0338 H   0  0  0  0  0  0  0  0  0  0  0  0
   57.7372   34.9986   45.3259 H   0  0  0  0  0  0  0  0  0  0  0  0
   58.5139   33.7914   44.2461 H   0  0  0  0  0  0  0  0  0  0  0  0
   56.7274   33.9784   44.2461 H   0  0  0  0  0  0  0  0  0  0  0  0
   62.0091   29.9073   47.6290 H   0  0  0  0  0  0  0  0  0  0  0  0
   62.4833   30.7641   46.0926 H   0  0  0  0  0  0  0  0  0  0  0  0
  1  2  1  0
  2  3  1  0
  3  4  1  0
  3  5  1  0
  5  6  1  0
  6  7  1  0
  7  8  1  0
  8  9  1  0
  9 10  1  0
 10 11  1  0
 11 12  2  0
 12 13  1  0
 13 14  2  0
 14 15  1  0
 15 16  1  0
 14 17  1  0
 17 18  1  0
 18 19  1  0
 17 20  2  0
 20 21  1  0
 21 22  1  0
 12 23  1  0
 23  8  1  0
 20 11  1  0
  1 24  1  0
  1 25  1  0
  1 26  1  0
  2 27  1  0
  2 28  1  0
  4 29  1  0
  4 30  1  0
  4 31  1  0
  5 32  1  0
  5 33  1  0
  6 34  1  0
  6 35  1  0
  7 36  1  0
  7 37  1  0
  8 38  1  1
  9 39  1  0
  9 40  1  0
 10 41  1  0
 10 42  1  0
 13 43  1  0
 16 44  1  0
 16 45  1  0
 16 46  1  0
 19 47  1  0
 19 48  1  0
 19 49  1  0
 22 50  1  0
 22 51  1  0
 22 52  1  0
 23 53  1  0
 23 54  1  0
M  CHG  1   7   1
M  END
>  <UniqueID>  (15) 
15

>  <SMILES>  (15) 
CCN(C)CC[NH2+][C@H]1CCc2c(cc(OC)c(OC)c2OC)C1

>  <Energy>  (15) 
67.49552209576372

>  <Genealogy>  (15) 
CCN(C)CC[NH2+]C1CCc2c(cc(OC)c(OC)c2OC)C1 (protonated)
CCN(C)CC[NH2+][C@H]1CCc2c(cc(OC)c(OC)c2OC)C1 (chirality)
CCN(C)CC[NH2+][C@H]1CCc2c(cc(OC)c(OC)c2OC)C1 (3D coordinates assigned)
CCN(C)CC[NH2+][C@H]1CCc2c(cc(OC)c(OC)c2OC)C1 (nonaromatic ring conformer: 67.49552209576372 kcal/mol)

>  <smiles>  (15) 
CCN(C)CCNC1CCc2c(cc(OC)c(OC)c2OC)C1

>  <score_type>  (15) 
oracle

>  <origin>  (15) 
adg

>  <m_score__min__energy>  (15) 
-4.6799999999999997

>  <m_primary>  (15) 
energy

$$$$
15:0
     RDKit          3D

 45 45  0  0  0  0  0  0  0  0999 V2000
   56.3850   29.8760   42.7840 C   0  0  0  0  0  0  0  0  0  0  0  0
   55.8080   30.3300   44.1300 C   0  0  0  0  0  0  0  0  0  0  0  0
   55.8720   29.2730   45.1540 N   0  0  0  0  0  0  0  0  0  0  0  0
   57.0260   28.3760   44.9870 C   0  0  0  0  0  0  0  0  0  0  0  0
   57.6730   28.0870   46.3420 C   0  0  0  0  0  0  0  0  0  0  0  0
   57.8240   29.2890   47.0740 O   0  0  0  0  0  0  0  0  0  0  0  0
   59.1510   29.4490   47.5390 C   0  0  0  0  0  0  0  0  0  0  0  0
   59.9290   30.3910   46.6080 C   0  0  0  0  0  0  0  0  0  0  0  0
   59.0280   31.0980   45.5820 C   0  0  0  0  0  0  0  0  0  0  0  0
   57.7870   31.6050   46.1940 N   0  0  0  0  0  0  0  0  0  0  0  0
   57.4560   32.9380   45.6660 C   0  0  0  0  0  0  0  0  0  0  0  0
   57.8830   34.0550   46.6330 C   0  0  0  0  0  0  0  0  0  0  0  0
   59.3080   33.8860   47.0950 C   0  0  0  0  0  0  0  0  0  0  0  0
   59.5900   33.5830   48.4380 C   0  0  0  0  0  0  0  0  0  0  0  0
   60.9110   33.4030   48.8580 C   0  0  0  0  0  0  0  0  0  0  0  0
   61.9600   33.5220   47.9410 C   0  0  0  0  0  0  0  0  0  0  0  0
   63.7630   33.2790   48.5190 Br  0  0  0  0  0  0  0  0  0  0  0  0
   61.6870   33.8180   46.6020 C   0  0  0  0  0  0  0  0  0  0  0  0
   60.3660   33.9960   46.1780 C   0  0  0  0  0  0  0  0  0  0  0  0
   57.2385   29.2044   42.9587 H   0  0  0  0  0  0  0  0  0  0  0  0
   55.6098   29.3431   42.2138 H   0  0  0  0  0  0  0  0  0  0  0  0
   56.7206   30.7548   42.2138 H   0  0  0  0  0  0  0  0  0  0  0  0
   56.3803   31.2000   44.4842 H   0  0  0  0  0  0  0  0  0  0  0  0
   54.7486   30.5810   43.9731 H   0  0  0  0  0  0  0  0  0  0  0  0
   55.9090   29.7110   46.1050 H   0  0  0  0  0  0  0  0  0  0  0  0
   56.6888   27.4307   44.5367 H   0  0  0  0  0  0  0  0  0  0  0  0
   57.7655   28.8617   44.3333 H   0  0  0  0  0  0  0  0  0  0  0  0
   57.0354   27.3930   46.9092 H   0  0  0  0  0  0  0  0  0  0  0  0
   58.6635   27.6368   46.1799 H   0  0  0  0  0  0  0  0  0  0  0  0
   59.1319   29.8745   48.5532 H   0  0  0  0  0  0  0  0  0  0  0  0
   59.6474   28.4675   47.5531 H   0  0  0  0  0  0  0  0  0  0  0  0
   60.4297   31.1552   47.2207 H   0  0  0  0  0  0  0  0  0  0  0  0
   60.6502   29.7786   46.0469 H   0  0  0  0  0  0  0  0  0  0  0  0
   59.5808   31.9437   45.1471 H   0  0  0  0  0  0  0  0  0  0  0  0
   58.7513   30.3646   44.8103 H   0  0  0  0  0  0  0  0  0  0  0  0
   56.9960   30.9470   45.9960 H   0  0  0  0  0  0  0  0  0  0  0  0
   57.9300   31.6770   47.2280 H   0  0  0  0  0  0  0  0  0  0  0  0
   57.9743   33.0800   44.7062 H   0  0  0  0  0  0  0  0  0  0  0  0
   56.3650   32.9945   45.5371 H   0  0  0  0  0  0  0  0  0  0  0  0
   57.7880   35.0239   46.1210 H   0  0  0  0  0  0  0  0  0  0  0  0
   57.2306   34.0074   47.5174 H   0  0  0  0  0  0  0  0  0  0  0  0
   58.7674   33.4870   49.1620 H   0  0  0  0  0  0  0  0  0  0  0  0
   61.1256   33.1675   49.9109 H   0  0  0  0  0  0  0  0  0  0  0  0
   62.5124   33.9110   45.8809 H   0  0  0  0  0  0  0  0  0  0  0  0
   60.1551   34.2229   45.1225 H   0  0  0  0  0  0  0  0  0  0  0  0
  1  2  1  0
  2  3  1  0
  3  4  1  0
  4  5  1  0
  5  6  1  0
  6  7  1  0
  7  8  1  0
  8  9  1  0
  9 10  1  0
 10 11  1  0
 11 12  1  0
 12 13  1  0
 13 14  2  0
 14 15  1  0
 15 16  2  0
 16 17  1  0
 16 18  1  0
 18 19  2  0
 19 13  1  0
  1 20  1  0
  1 21  1  0
  1 22  1  0
  2 23  1  0
  2 24  1  0
  3 25  1  0
  4 26  1  0
  4 27  1  0
  5 28  1  0
  5 29  1  0
  7 30  1  0
  7 31  1  0
  8 32  1  0
  8 33  1  0
  9 34  1  0
  9 35  1  0
 10 36  1  0
 10 37  1  0
 11 38  1  0
 11 39  1  0
 12 40  1  0
 12 41  1  0
 14 42  1  0
 15 43  1  0
 18 44  1  0
 19 45  1  0
M  CHG  1  10   1
M  END
>  <UniqueID>  (16) 
16

>  <SMILES>  (16) 
CCNCCOCCC[NH2+]CCc1ccc(Br)cc1

>  <Energy>  (16) 
36.37423297306003

>  <Genealogy>  (16) 
CCNCCOCCC[NH2+]CCc1ccc(Br)cc1 (protonated)
CCNCCOCCC[NH2+]CCc1ccc(Br)cc1 (3D coordinates assigned)
CCNCCOCCC[NH2+]CCc1ccc(Br)cc1 (optimized conformer: 36.37423297306003 kcal/mol)

>  <smiles>  (16) 
CCNCCOCCCNCCc1ccc(Br)cc1

>  <score_type>  (16) 
oracle

>  <origin>  (16) 
adg

>  <m_score__min__energy>  (16) 
-4.1100000000000003

>  <m_primary>  (16) 
energy

$$$$
16:0
     RDKit          3D

 50 51  0  0  0  0  0  0  0  0999 V2000
   59.5380   33.4920   50.2050 C   0  0  0  0  0  0  0  0  0  0  0  0
   58.6830   32.2400   49.9740 C   0  0  0  0  0  0  0  0  0  0  0  0
   59.4330   30.9800   50.2020 N   0  0  2  0  0  0  0  0  0  0  0  0
   58.7400   30.1210   51.1850 C   0  0  0  0  0  0  0  0  0  0  0  0
   60.8140   31.2860   50.6660 C   0  0  0  0  0  0  0  0  0  0  0  0
   61.8930   30.4970   49.8970 C   0  0  0  0  0  0  0  0  0  0  0  0
   62.3540   31.2190   48.7070 N   0  0  0  0  0  0  0  0  0  0  0  0
   61.4640   31.8800   47.7880 C   0  0  0  0  0  0  0  0  0  0  0  0
   61.6610   33.2300   47.4340 C   0  0  0  0  0  0  0  0  0  0  0  0
   62.7860   33.9060   47.9340 O   0  0  0  0  0  0  0  0  0  0  0  0
   64.1300   33.4510   47.8090 C   0  0  0  0  0  0  0  0  0  0  0  0
   60.7430   33.8630   46.5780 C   0  0  0  0  0  0  0  0  0  0  0  0
   59.6390   33.1660   46.0720 C   0  0  0  0  0  0  0  0  0  0  0  0
   58.7190   33.8140   45.2340 C   0  0  0  0  0  0  0  0  0  0  0  0
   57.6120   33.1240   44.7400 C   0  0  0  0  0  0  0  0  0  0  0  0
   57.3970   31.7840   45.0750 C   0  0  0  0  0  0  0  0  0  0  0  0
   56.2600   31.1450   44.5570 O   0  0  0  0  0  0  0  0  0  0  0  0
   56.2950   30.0970   43.5950 C   0  0  0  0  0  0  0  0  0  0  0  0
   58.3170   31.1280   45.9140 C   0  0  0  0  0  0  0  0  0  0  0  0
   59.4480   31.8060   46.4080 C   0  0  0  0  0  0  0  0  0  0  0  0
   60.3810   31.1610   47.2460 C   0  0  0  0  0  0  0  0  0  0  0  0
   60.2220   29.8120   47.5760 O   0  0  0  0  0  0  0  0  0  0  0  0
   60.3940   28.7860   46.6050 C   0  0  0  0  0  0  0  0  0  0  0  0
   59.6543   33.6623   51.2855 H   0  0  0  0  0  0  0  0  0  0  0  0
   60.5282   33.3493   49.7476 H   0  0  0  0  0  0  0  0  0  0  0  0
   59.0448   34.3624   49.7476 H   0  0  0  0  0  0  0  0  0  0  0  0
   57.8258   32.2681   50.6628 H   0  0  0  0  0  0  0  0  0  0  0  0
   58.3622   32.2481   48.9218 H   0  0  0  0  0  0  0  0  0  0  0  0
   59.4750   30.4610   49.2940 H   0  0  0  0  0  0  0  0  0  0  0  0
   59.0012   30.4447   52.2033 H   0  0  0  0  0  0  0  0  0  0  0  0
   57.6525   30.2034   51.0416 H   0  0  0  0  0  0  0  0  0  0  0  0
   59.0506   29.0755   51.0416 H   0  0  0  0  0  0  0  0  0  0  0  0
   61.0005   32.3613   50.5286 H   0  0  0  0  0  0  0  0  0  0  0  0
   60.8801   30.9915   51.7238 H   0  0  0  0  0  0  0  0  0  0  0  0
   62.7510   30.3256   50.5636 H   0  0  0  0  0  0  0  0  0  0  0  0
   61.4501   29.5453   49.5682 H   0  0  0  0  0  0  0  0  0  0  0  0
   63.3410   31.0520   48.4060 H   0  0  0  0  0  0  0  0  0  0  0  0
   64.5622   33.3047   48.8099 H   0  0  0  0  0  0  0  0  0  0  0  0
   64.1449   32.4978   47.2603 H   0  0  0  0  0  0  0  0  0  0  0  0
   64.7209   34.1992   47.2603 H   0  0  0  0  0  0  0  0  0  0  0  0
   60.8936   34.9173   46.3027 H   0  0  0  0  0  0  0  0  0  0  0  0
   58.8712   34.8698   44.9657 H   0  0  0  0  0  0  0  0  0  0  0  0
   56.9000   33.6402   44.0792 H   0  0  0  0  0  0  0  0  0  0  0  0
   56.3274   29.1263   44.1113 H   0  0  0  0  0  0  0  0  0  0  0  0
   55.3947   30.1473   42.9650 H   0  0  0  0  0  0  0  0  0  0  0  0
   57.1900   30.2073   42.9650 H   0  0  0  0  0  0  0  0  0  0  0  0
   58.1510   30.0753   46.1865 H   0  0  0  0  0  0  0  0  0  0  0  0
   60.5553   27.8237   47.1130 H   0  0  0  0  0  0  0  0  0  0  0  0
   59.4940   28.7221   45.9757 H   0  0  0  0  0  0  0  0  0  0  0  0
   61.2656   29.0191   45.9757 H   0  0  0  0  0  0  0  0  0  0  0  0
  1  2  1  0
  2  3  1  0
  3  4  1  0
  3  5  1  0
  5  6  1  0
  6  7  1  0
  7  8  1  0
  8  9  2  0
  9 10  1  0
 10 11  1  0
  9 12  1  0
 12 13  2  0
 13 14  1  0
 14 15  2  0
 15 16  1  0
 16 17  1  0
 17 18  1  0
 16 19  2  0
 19 20  1  0
 20 21  2  0
 21 22  1  0
 22 23  1  0
 21  8  1  0
 20 13  1  0
  1 24  1  0
  1 25  1  0
  1 26  1  0
  2 27  1  0
  2 28  1  0
  3 29  1  6
  4 30  1  0
  4 31  1  0
  4 32  1  0
  5 33  1  0
  5 34  1  0
  6 35  1  0
  6 36  1  0
  7 37  1  0
 11 38  1  0
 11 39  1  0
 11 40  1  0
 12 41  1  0
 14 42  1  0
 15 43  1  0
 18 44  1  0
 18 45  1  0
 18 46  1  0
 19 47  1  0
 23 48  1  0
 23 49  1  0
 23 50  1  0
M  CHG  1   3   1
M  END
>  <UniqueID>  (17) 
17

>  <SMILES>  (17) 
CC[N@H+](C)CCNc1c(OC)cc2ccc(OC)cc2c1OC

>  <Energy>  (17) 
61.1114482157957

>  <Genealogy>  (17) 
CC[NH+](C)CCNc1c(OC)cc2ccc(OC)cc2c1OC (protonated)
CC[N@H+](C)CCNc1c(OC)cc2ccc(OC)cc2c1OC (chirality)
CC[N@H+](C)CCNc1c(OC)cc2ccc(OC)cc2c1OC (3D coordinates assigned)
CC[N@H+](C)CCNc1c(OC)cc2ccc(OC)cc2c1OC (optimized conformer: 61.1114482157957 kcal/mol)

>  <smiles>  (17) 
CCN(C)CCNc1c(OC)cc2ccc(OC)cc2c1OC

>  <score_type>  (17) 
oracle

>  <origin>  (17) 
adg

>  <m_score__min__energy>  (17) 
-4.1799999999999997

>  <m_primary>  (17) 
energy

$$$$
17:0
     RDKit          3D

 57 58  0  0  0  0  0  0  0  0999 V2000
   59.7230   33.8420   49.3350 C   0  0  0  0  0  0  0  0  0  0  0  0
   61.0330   34.2480   48.6550 C   0  0  0  0  0  0  0  0  0  0  0  0
   61.1410   33.7910   47.2530 N   0  0  0  0  0  0  0  0  0  0  0  0
   62.5220   33.7920   46.7030 C   0  0  0  0  0  0  0  0  0  0  0  0
   63.4270   32.6630   47.2170 C   0  0  0  0  0  0  0  0  0  0  0  0
   60.0660   34.2880   46.3680 C   0  0  0  0  0  0  0  0  0  0  0  0
   59.0610   33.1740   46.0510 C   0  0  0  0  0  0  0  0  0  0  0  0
   59.4860   31.9090   46.6530 N   0  0  0  0  0  0  0  0  0  0  0  0
   59.1010   30.6020   46.1800 C   0  0  0  0  0  0  0  0  0  0  0  0
   60.0010   29.5230   46.1560 C   0  0  0  0  0  0  0  0  0  0  0  0
   59.5920   28.2690   45.7010 C   0  0  0  0  0  0  0  0  0  0  0  0
   58.2750   28.0670   45.2490 C   0  0  0  0  0  0  0  0  0  0  0  0
   57.8130   26.8220   44.7910 O   0  0  0  0  0  0  0  0  0  0  0  0
   57.8330   25.5910   45.5200 C   0  0  2  0  0  0  0  0  0  0  0  0
   57.7370   24.3830   44.5530 C   0  0  0  0  0  0  0  0  0  0  0  0
   56.3200   24.0930   44.0080 C   0  0  0  0  0  0  0  0  0  0  0  0
   55.2300   23.8540   45.0670 C   0  0  0  0  0  0  0  0  0  0  0  0
   54.5270   25.1330   45.5660 C   0  0  0  0  0  0  0  0  0  0  0  0
   55.4500   26.1680   46.0610 N   0  0  0  0  0  0  0  0  0  0  0  0
   56.7060   25.6130   46.5900 C   0  0  0  0  0  0  0  0  0  0  0  0
   57.3700   29.1390   45.2620 C   0  0  0  0  0  0  0  0  0  0  0  0
   56.0620   28.9090   44.8070 O   0  0  0  0  0  0  0  0  0  0  0  0
   55.4390   29.6210   43.7430 C   0  0  0  0  0  0  0  0  0  0  0  0
   57.7890   30.4010   45.7230 C   0  0  0  0  0  0  0  0  0  0  0  0
   59.8493   33.8811   50.4270 H   0  0  0  0  0  0  0  0  0  0  0  0
   58.9233   34.5344   49.0333 H   0  0  0  0  0  0  0  0  0  0  0  0
   59.4551   32.8187   49.0333 H   0  0  0  0  0  0  0  0  0  0  0  0
   61.1061   35.3455   48.6692 H   0  0  0  0  0  0  0  0  0  0  0  0
   61.8485   33.7659   49.2141 H   0  0  0  0  0  0  0  0  0  0  0  0
   62.4534   33.7027   45.6088 H   0  0  0  0  0  0  0  0  0  0  0  0
   62.9847   34.7325   47.0368 H   0  0  0  0  0  0  0  0  0  0  0  0
   63.4260   32.6643   48.3170 H   0  0  0  0  0  0  0  0  0  0  0  0
   63.0509   31.6962   46.8511 H   0  0  0  0  0  0  0  0  0  0  0  0
   64.4525   32.8197   46.8511 H   0  0  0  0  0  0  0  0  0  0  0  0
   59.5411   35.1153   46.8681 H   0  0  0  0  0  0  0  0  0  0  0  0
   60.5171   34.6335   45.4261 H   0  0  0  0  0  0  0  0  0  0  0  0
   58.0751   33.4518   46.4521 H   0  0  0  0  0  0  0  0  0  0  0  0
   59.0061   33.0463   44.9598 H   0  0  0  0  0  0  0  0  0  0  0  0
   60.1160   31.9700   47.4840 H   0  0  0  0  0  0  0  0  0  0  0  0
   61.0361   29.6682   46.4986 H   0  0  0  0  0  0  0  0  0  0  0  0
   60.3051   27.4314   45.6956 H   0  0  0  0  0  0  0  0  0  0  0  0
   58.7895   25.4772   46.0511 H   0  0  0  0  0  0  0  0  0  0  0  0
   58.3987   24.5784   43.6962 H   0  0  0  0  0  0  0  0  0  0  0  0
   58.0285   23.4978   45.1373 H   0  0  0  0  0  0  0  0  0  0  0  0
   56.0119   24.9528   43.3950 H   0  0  0  0  0  0  0  0  0  0  0  0
   56.4032   23.1501   43.4476 H   0  0  0  0  0  0  0  0  0  0  0  0
   54.4677   23.1915   44.6311 H   0  0  0  0  0  0  0  0  0  0  0  0
   55.7351   23.4154   45.9402 H   0  0  0  0  0  0  0  0  0  0  0  0
   53.9467   25.5565   44.7330 H   0  0  0  0  0  0  0  0  0  0  0  0
   53.8937   24.8379   46.4156 H   0  0  0  0  0  0  0  0  0  0  0  0
   55.6830   26.7950   45.2550 H   0  0  0  0  0  0  0  0  0  0  0  0
   57.0357   26.2290   47.4396 H   0  0  0  0  0  0  0  0  0  0  0  0
   56.5133   24.5753   46.8999 H   0  0  0  0  0  0  0  0  0  0  0  0
   54.7682   30.3876   44.1581 H   0  0  0  0  0  0  0  0  0  0  0  0
   56.2097   30.1042   43.1244 H   0  0  0  0  0  0  0  0  0  0  0  0
   54.8578   28.9213   43.1244 H   0  0  0  0  0  0  0  0  0  0  0  0
   57.0789   31.2411   45.7252 H   0  0  0  0  0  0  0  0  0  0  0  0
  1  2  1  0
  2  3  1  0
  3  4  1  0
  4  5  1  0
  3  6  1  0
  6  7  1  0
  7  8  1  0
  8  9  1  0
  9 10  2  0
 10 11  1  0
 11 12  2  0
 12 13  1  0
 13 14  1  0
 14 15  1  0
 15 16  1  0
 16 17  1  0
 17 18  1  0
 18 19  1  0
 19 20  1  0
 12 21  1  0
 21 22  1  0
 22 23  1  0
 21 24  2  0
 24  9  1  0
 20 14  1  0
  1 25  1  0
  1 26  1  0
  1 27  1  0
  2 28  1  0
  2 29  1  0
  4 30  1  0
  4 31  1  0
  5 32  1  0
  5 33  1  0
  5 34  1  0
  6 35  1  0
  6 36  1  0
  7 37  1  0
  7 38  1  0
  8 39  1  0
 10 40  1  0
 11 41  1  0
 14 42  1  1
 15 43  1  0
 15 44  1  0
 16 45  1  0
 16 46  1  0
 17 47  1  0
 17 48  1  0
 18 49  1  0
 18 50  1  0
 19 51  1  0
 20 52  1  0
 20 53  1  0
 23 54  1  0
 23 55  1  0
 23 56  1  0
 24 57  1  0
M  END
>  <UniqueID>  (18) 
18

>  <SMILES>  (18) 
CCN(CC)CCNc1ccc(O[C@@H]2CCCCNC2)c(OC)c1

>  <Energy>  (18) 
67.81705156776522

>  <Genealogy>  (18) 
CCN(CC)CCNc1ccc(O[C@@H]2CCCCNC2)c(OC)c1 (chirality)
CCN(CC)CCNc1ccc(O[C@@H]2CCCCNC2)c(OC)c1 (3D coordinates assigned)
CCN(CC)CCNc1ccc(O[C@@H]2CCCCNC2)c(OC)c1 (nonaromatic ring conformer: 67.81705156776522 kcal/mol)

>  <smiles>  (18) 
CCN(CC)CCNc1ccc(OC2CCCCNC2)c(OC)c1

>  <score_type>  (18) 
oracle

>  <origin>  (18) 
adg

>  <m_score__min__energy>  (18) 
-4.7000000000000002

>  <m_primary>  (18) 
energy

$$$$
18:0
     RDKit          3D

 44 46  0  0  0  0  0  0  0  0999 V2000
   62.9790   33.8530   46.3740 C   0  0  0  0  0  0  0  0  0  0  0  0
   63.7560   33.2850   47.5650 C   0  0  0  0  0  0  0  0  0  0  0  0
   63.7090   31.8100   47.6200 N   0  0  0  0  0  0  0  0  0  0  0  0
   62.3860   31.2540   47.2780 C   0  0  0  0  0  0  0  0  0  0  0  0
   61.6430   30.6820   48.5070 C   0  0  0  0  0  0  0  0  0  0  0  0
   60.2630   30.3350   48.1650 N   0  0  0  0  0  0  0  0  0  0  0  0
   59.5960   30.9730   47.0650 C   0  0  0  0  0  0  0  0  0  0  0  0
   59.4700   32.3810   46.9640 C   0  0  0  0  0  0  0  0  0  0  0  0
   59.8730   33.2230   48.0190 C   0  0  0  0  0  0  0  0  0  0  0  0
   59.7540   34.6070   47.9070 C   0  0  0  0  0  0  0  0  0  0  0  0
   59.2240   35.1760   46.7520 C   0  0  0  0  0  0  0  0  0  0  0  0
   58.7920   34.3660   45.7010 C   0  0  0  0  0  0  0  0  0  0  0  0
   58.8920   32.9590   45.7810 C   0  0  0  0  0  0  0  0  0  0  0  0
   58.4430   32.1430   44.7550 N   0  0  0  0  0  0  0  0  0  0  0  0
   57.8540   32.6890   43.5200 C   0  0  0  0  0  0  0  0  0  0  0  0
   58.5430   30.7910   44.9100 C   0  0  0  0  0  0  0  0  0  0  0  0
   58.1680   29.8750   44.0490 O   0  0  0  0  0  0  0  0  0  0  0  0
   58.4520   28.6990   44.5770 C   0  0  0  0  0  0  0  0  0  0  0  0
   58.2010   27.3980   43.8940 C   0  0  0  0  0  0  0  0  0  0  0  0
   59.0400   28.8490   45.8270 C   0  0  0  0  0  0  0  0  0  0  0  0
   59.0850   30.2130   46.0210 C   0  0  0  0  0  0  0  0  0  0  0  0
   62.1418   34.4650   46.7407 H   0  0  0  0  0  0  0  0  0  0  0  0
   63.6486   34.4761   45.7629 H   0  0  0  0  0  0  0  0  0  0  0  0
   62.5885   33.0259   45.7629 H   0  0  0  0  0  0  0  0  0  0  0  0
   64.8063   33.6016   47.4842 H   0  0  0  0  0  0  0  0  0  0  0  0
   63.2872   33.6686   48.4832 H   0  0  0  0  0  0  0  0  0  0  0  0
   64.4230   31.4130   46.9650 H   0  0  0  0  0  0  0  0  0  0  0  0
   63.9750   31.4950   48.5830 H   0  0  0  0  0  0  0  0  0  0  0  0
   61.7722   32.0528   46.8361 H   0  0  0  0  0  0  0  0  0  0  0  0
   62.5462   30.4260   46.5718 H   0  0  0  0  0  0  0  0  0  0  0  0
   62.1657   29.7795   48.8566 H   0  0  0  0  0  0  0  0  0  0  0  0
   61.6287   31.4466   49.2976 H   0  0  0  0  0  0  0  0  0  0  0  0
   59.9320   29.3850   48.4470 H   0  0  0  0  0  0  0  0  0  0  0  0
   60.2853   32.7841   48.9395 H   0  0  0  0  0  0  0  0  0  0  0  0
   60.0804   35.2531   48.7352 H   0  0  0  0  0  0  0  0  0  0  0  0
   59.1454   36.2699   46.6675 H   0  0  0  0  0  0  0  0  0  0  0  0
   58.3678   34.8293   44.7980 H   0  0  0  0  0  0  0  0  0  0  0  0
   57.0698   33.4159   43.7780 H   0  0  0  0  0  0  0  0  0  0  0  0
   58.6368   33.1880   42.9299 H   0  0  0  0  0  0  0  0  0  0  0  0
   57.4156   31.8707   42.9299 H   0  0  0  0  0  0  0  0  0  0  0  0
   58.0492   26.6114   44.6478 H   0  0  0  0  0  0  0  0  0  0  0  0
   57.3024   27.4814   43.2651 H   0  0  0  0  0  0  0  0  0  0  0  0
   59.0662   27.1411   43.2651 H   0  0  0  0  0  0  0  0  0  0  0  0
   59.3901   28.0587   46.5073 H   0  0  0  0  0  0  0  0  0  0  0  0
  1  2  1  0
  2  3  1  0
  3  4  1  0
  4  5  1  0
  5  6  1  0
  6  7  1  0
  7  8  2  0
  8  9  1  0
  9 10  2  0
 10 11  1  0
 11 12  2  0
 12 13  1  0
 13 14  2  0
 14 15  1  0
 14 16  1  0
 16 17  1  0
 17 18  1  0
 18 19  1  0
 18 20  2  0
 20 21  1  0
 21  7  1  0
 13  8  1  0
 21 16  2  0
  1 22  1  0
  1 23  1  0
  1 24  1  0
  2 25  1  0
  2 26  1  0
  3 27  1  0
  3 28  1  0
  4 29  1  0
  4 30  1  0
  5 31  1  0
  5 32  1  0
  6 33  1  0
  9 34  1  0
 10 35  1  0
 11 36  1  0
 12 37  1  0
 15 38  1  0
 15 39  1  0
 15 40  1  0
 19 41  1  0
 19 42  1  0
 19 43  1  0
 20 44  1  0
M  CHG  2   3   1  14   1
M  END
>  <UniqueID>  (19) 
19

>  <SMILES>  (19) 
CC[NH2+]CCNc1c2ccccc2[n+](C)c2oc(C)cc12

>  <Energy>  (19) 
88.43798426281903

>  <Genealogy>  (19) 
CC[NH2+]CCNc1c2ccccc2[n+](C)c2oc(C)cc12 (protonated)
CC[NH2+]CCNc1c2ccccc2[n+](C)c2oc(C)cc12 (3D coordinates assigned)
CC[NH2+]CCNc1c2ccccc2[n+](C)c2oc(C)cc12 (optimized conformer: 88.43798426281903 kcal/mol)

>  <smiles>  (19) 
CCNCCNc1c2ccccc2[n+](C)c2oc(C)cc12

>  <score_type>  (19) 
oracle

>  <origin>  (19) 
adg

>  <m_score__min__energy>  (19) 
-3.8799999999999999

>  <m_primary>  (19) 
energy

$$$$
19:0
     RDKit          3D

 83 85  0  0  0  0  0  0  0  0999 V2000
   60.8000   28.6180   44.8820 C   0  0  0  0  0  0  0  0  0  0  0  0
   59.4220   29.1740   44.4870 C   0  0  0  0  0  0  0  0  0  0  0  0
   58.3090   28.1970   44.6210 N   0  0  0  0  0  0  0  0  0  0  0  0
   58.1680   27.3740   43.3920 C   0  0  0  0  0  0  0  0  0  0  0  0
   57.7870   25.9220   43.6960 C   0  0  0  0  0  0  0  0  0  0  0  0
   57.0310   28.8650   45.0130 C   0  0  0  0  0  0  0  0  0  0  0  0
   56.5580   29.8760   43.9540 C   0  0  0  0  0  0  0  0  0  0  0  0
   56.5480   31.1860   44.4900 O   0  0  0  0  0  0  0  0  0  0  0  0
   57.4660   32.0140   43.8060 C   0  0  0  0  0  0  0  0  0  0  0  0
   57.8720   33.1690   44.7110 C   0  0  0  0  0  0  0  0  0  0  0  0
   58.6130   32.6610   45.8000 O   0  0  0  0  0  0  0  0  0  0  0  0
   58.5900   33.5840   46.8670 C   0  0  0  0  0  0  0  0  0  0  0  0
   60.0230   33.9020   47.2860 C   0  0  0  0  0  0  0  0  0  0  0  0
   60.9090   32.7750   46.9950 N   0  0  0  0  0  0  0  0  0  0  0  0
   61.3200   31.8560   48.0210 C   0  0  0  0  0  0  0  0  0  0  0  0
   60.5860   30.6810   48.2580 C   0  0  0  0  0  0  0  0  0  0  0  0
   59.4100   30.4000   47.5280 C   0  0  0  0  0  0  0  0  0  0  0  0
   58.7170   29.2080   47.7200 C   0  0  0  0  0  0  0  0  0  0  0  0
   59.1840   28.2740   48.6360 C   0  0  0  0  0  0  0  0  0  0  0  0
   60.3240   28.5420   49.3950 C   0  0  0  0  0  0  0  0  0  0  0  0
   61.0250   29.7680   49.2550 C   0  0  0  0  0  0  0  0  0  0  0  0
   62.1120   30.0810   50.0510 N   0  0  0  0  0  0  0  0  0  0  0  0
   62.3930   29.2810   51.2660 C   0  0  0  0  0  0  0  0  0  0  0  0
   62.9130   31.1630   49.7360 C   0  0  0  0  0  0  0  0  0  0  0  0
   64.1710   31.3650   50.3580 C   0  0  0  0  0  0  0  0  0  0  0  0
   64.9560   32.4860   50.0810 C   0  0  0  0  0  0  0  0  0  0  0  0
   66.1920   32.5990   50.7370 O   0  0  0  0  0  0  0  0  0  0  0  0
   67.3530   33.2600   50.2300 C   0  0  0  0  0  0  0  0  0  0  0  0
   68.3090   33.7050   51.3630 C   0  0  0  0  0  0  0  0  0  0  0  0
   67.9780   35.0050   52.0290 N   0  0  0  0  0  0  0  0  0  0  0  0
   68.6550   36.1440   51.3650 C   0  0  0  0  0  0  0  0  0  0  0  0
   66.5140   35.2420   52.0570 C   0  0  0  0  0  0  0  0  0  0  0  0
   68.4600   34.9310   53.4300 C   0  0  0  0  0  0  0  0  0  0  0  0
   64.4930   33.4360   49.1610 C   0  0  0  0  0  0  0  0  0  0  0  0
   63.2830   33.2390   48.5000 C   0  0  0  0  0  0  0  0  0  0  0  0
   62.4970   32.0960   48.7530 C   0  0  0  0  0  0  0  0  0  0  0  0
   60.8815   28.5851   45.9785 H   0  0  0  0  0  0  0  0  0  0  0  0
   60.9161   27.6027   44.4751 H   0  0  0  0  0  0  0  0  0  0  0  0
   61.5882   29.2685   44.4751 H   0  0  0  0  0  0  0  0  0  0  0  0
   59.2015   30.0385   45.1305 H   0  0  0  0  0  0  0  0  0  0  0  0
   59.4823   29.4401   43.4214 H   0  0  0  0  0  0  0  0  0  0  0  0
   58.6140   27.5530   45.3910 H   0  0  0  0  0  0  0  0  0  0  0  0
   57.3862   27.8181   42.7584 H   0  0  0  0  0  0  0  0  0  0  0  0
   59.1439   27.3631   42.8845 H   0  0  0  0  0  0  0  0  0  0  0  0
   57.7480   25.7735   44.7852 H   0  0  0  0  0  0  0  0  0  0  0  0
   56.8009   25.7028   43.2605 H   0  0  0  0  0  0  0  0  0  0  0  0
   58.5384   25.2469   43.2605 H   0  0  0  0  0  0  0  0  0  0  0  0
   56.2543   28.0968   45.1420 H   0  0  0  0  0  0  0  0  0  0  0  0
   57.2089   29.4137   45.9496 H   0  0  0  0  0  0  0  0  0  0  0  0
   57.2400   29.8428   43.0915 H   0  0  0  0  0  0  0  0  0  0  0  0
   55.5373   29.6118   43.6402 H   0  0  0  0  0  0  0  0  0  0  0  0
   58.3571   31.4290   43.5345 H   0  0  0  0  0  0  0  0  0  0  0  0
   56.9970   32.4085   42.8925 H   0  0  0  0  0  0  0  0  0  0  0  0
   58.4899   33.8816   44.1449 H   0  0  0  0  0  0  0  0  0  0  0  0
   56.9736   33.6847   45.0810 H   0  0  0  0  0  0  0  0  0  0  0  0
   58.0875   34.5076   46.5438 H   0  0  0  0  0  0  0  0  0  0  0  0
   58.0432   33.1518   47.7180 H   0  0  0  0  0  0  0  0  0  0  0  0
   60.3723   34.7876   46.7348 H   0  0  0  0  0  0  0  0  0  0  0  0
   60.0403   34.0950   48.3688 H   0  0  0  0  0  0  0  0  0  0  0  0
   61.1260   32.5440   45.9980 H   0  0  0  0  0  0  0  0  0  0  0  0
   59.0366   31.1330   46.7978 H   0  0  0  0  0  0  0  0  0  0  0  0
   57.8002   29.0059   47.1467 H   0  0  0  0  0  0  0  0  0  0  0  0
   58.6530   27.3191   48.7636 H   0  0  0  0  0  0  0  0  0  0  0  0
   60.6850   27.7911   50.1132 H   0  0  0  0  0  0  0  0  0  0  0  0
   62.1807   29.8854   52.1602 H   0  0  0  0  0  0  0  0  0  0  0  0
   61.7561   28.3842   51.2699 H   0  0  0  0  0  0  0  0  0  0  0  0
   63.4509   28.9795   51.2699 H   0  0  0  0  0  0  0  0  0  0  0  0
   64.5383   30.6188   51.0779 H   0  0  0  0  0  0  0  0  0  0  0  0
   67.8906   32.5709   49.5621 H   0  0  0  0  0  0  0  0  0  0  0  0
   67.0229   34.1604   49.6912 H   0  0  0  0  0  0  0  0  0  0  0  0
   68.3044   32.9209   52.1345 H   0  0  0  0  0  0  0  0  0  0  0  0
   69.2866   33.8585   50.8827 H   0  0  0  0  0  0  0  0  0  0  0  0
   69.0599   36.8252   52.1279 H   0  0  0  0  0  0  0  0  0  0  0  0
   69.4758   35.7672   50.7371 H   0  0  0  0  0  0  0  0  0  0  0  0
   67.9317   36.6850   50.7371 H   0  0  0  0  0  0  0  0  0  0  0  0
   66.1714   35.2975   53.1008 H   0  0  0  0  0  0  0  0  0  0  0  0
   66.2860   36.1888   51.5455 H   0  0  0  0  0  0  0  0  0  0  0  0
   65.9989   34.4155   51.5455 H   0  0  0  0  0  0  0  0  0  0  0  0
   67.6110   35.0613   54.1172 H   0  0  0  0  0  0  0  0  0  0  0  0
   68.9269   33.9506   53.6058 H   0  0  0  0  0  0  0  0  0  0  0  0
   69.1995   35.7261   53.6058 H   0  0  0  0  0  0  0  0  0  0  0  0
   65.0868   34.3399   48.9602 H   0  0  0  0  0  0  0  0  0  0  0  0
   62.9357   33.9854   47.7705 H   0  0  0  0  0  0  0  0  0  0  0  0
  1  2  1  0
  2  3  1  0
  3  4  1  0
  4  5  1  0
  3  6  1  0
  6  7  1  0
  7  8  1  0
  8  9  1  0
  9 10  1  0
 10 11  1  0
 11 12  1  0
 12 13  1  0
 13 14  1  0
 14 15  1  0
 15 16  2  0
 16 17  1  0
 17 18  2  0
 18 19  1  0
 19 20  2  0
 20 21  1  0
 21 22  2  0
 22 23  1  0
 22 24  1  0
 24 25  2  0
 25 26  1  0
 26 27  1  0
 27 28  1  0
 28 29  1  0
 29 30  1  0
 30 31  1  0
 30 32  1  0
 30 33  1  0
 26 34  2  0
 34 35  1  0
 35 36  2  0
 36 15  1  0
 21 16  1  0
 36 24  1  0
  1 37  1  0
  1 38  1  0
  1 39  1  0
  2 40  1  0
  2 41  1  0
  3 42  1  0
  4 43  1  0
  4 44  1  0
  5 45  1  0
  5 46  1  0
  5 47  1  0
  6 48  1  0
  6 49  1  0
  7 50  1  0
  7 51  1  0
  9 52  1  0
  9 53  1  0
 10 54  1  0
 10 55  1  0
 12 56  1  0
 12 57  1  0
 13 58  1  0
 13 59  1  0
 14 60  1  0
 17 61  1  0
 18 62  1  0
 19 63  1  0
 20 64  1  0
 23 65  1  0
 23 66  1  0
 23 67  1  0
 25 68  1  0
 28 69  1  0
 28 70  1  0
 29 71  1  0
 29 72  1  0
 31 73  1  0
 31 74  1  0
 31 75  1  0
 32 76  1  0
 32 77  1  0
 32 78  1  0
 33 79  1  0
 33 80  1  0
 33 81  1  0
 34 82  1  0
 35 83  1  0
M  CHG  3   3   1  22   1  30   1
M  END
>  <UniqueID>  (20) 
20

>  <SMILES>  (20) 
CC[NH+](CC)CCOCCOCCNc1c2ccccc2[n+](C)c2cc(OCC[N+](C)(C)C)ccc12

>  <Energy>  (20) 
117.48028472106147

>  <Genealogy>  (20) 
CC[NH+](CC)CCOCCOCCNc1c2ccccc2[n+](C)c2cc(OCC[N+](C)(C)C)ccc12 (protonated)
CC[NH+](CC)CCOCCOCCNc1c2ccccc2[n+](C)c2cc(OCC[N+](C)(C)C)ccc12 (3D coordinates assigned)
CC[NH+](CC)CCOCCOCCNc1c2ccccc2[n+](C)c2cc(OCC[N+](C)(C)C)ccc12 (optimized conformer: 117.48028472106147 kcal/mol)

>  <smiles>  (20) 
CCN(CC)CCOCCOCCNc1c2ccccc2[n+](C)c2cc(OCC[N+](C)(C)C)ccc12

>  <score_type>  (20) 
oracle

>  <origin>  (20) 
adg

>  <m_score__min__energy>  (20) 
-2.5299999999999998

>  <m_primary>  (20) 
energy

$$$$
20:0
     RDKit          3D

 38 39  0  0  0  0  0  0  0  0999 V2000
   59.5080   34.9550   46.5550 C   0  0  0  0  0  0  0  0  0  0  0  0
   58.8420   34.5260   45.2560 C   0  0  0  0  0  0  0  0  0  0  0  0
   57.5350   34.0700   45.5340 O   0  0  0  0  0  0  0  0  0  0  0  0
   57.5890   32.7480   46.0210 C   0  0  0  0  0  0  0  0  0  0  0  0
   58.6320   31.9550   45.2360 C   0  0  0  0  0  0  0  0  0  0  0  0
   58.8150   30.6140   45.8030 N   0  0  0  0  0  0  0  0  0  0  0  0
   59.8620   30.1560   46.5440 C   0  0  0  0  0  0  0  0  0  0  0  0
   61.3130   31.1330   46.9550 S   0  0  0  0  0  0  0  0  0  0  0  0
   60.8280   31.4130   48.6940 C   0  0  0  0  0  0  0  0  0  0  0  0
   59.4420   32.0390   48.7630 C   0  0  0  0  0  0  0  0  0  0  0  0
   59.7110   28.8750   46.9660 N   0  0  0  0  0  0  0  0  0  0  0  0
   58.5200   28.5270   46.4440 C   0  0  0  0  0  0  0  0  0  0  0  0
   57.9780   29.5600   45.7500 C   0  0  0  0  0  0  0  0  0  0  0  0
   56.7280   29.4160   45.1530 C   0  0  0  0  0  0  0  0  0  0  0  0
   56.1910   30.3540   44.5060 O   0  0  0  0  0  0  0  0  0  0  0  0
   56.0890   28.2190   45.2920 N   0  0  0  0  0  0  0  0  0  0  0  0
   56.6500   27.1830   45.9970 C   0  0  0  0  0  0  0  0  0  0  0  0
   56.0120   26.1010   46.1160 O   0  0  0  0  0  0  0  0  0  0  0  0
   57.8940   27.3240   46.5730 N   0  0  0  0  0  0  0  0  0  0  0  0
   58.4940   26.2430   47.3650 C   0  0  0  0  0  0  0  0  0  0  0  0
   58.9241   34.5789   47.4080 H   0  0  0  0  0  0  0  0  0  0  0  0
   60.5270   34.5431   46.5981 H   0  0  0  0  0  0  0  0  0  0  0  0
   59.5543   36.0532   46.5981 H   0  0  0  0  0  0  0  0  0  0  0  0
   58.7944   35.3819   44.5666 H   0  0  0  0  0  0  0  0  0  0  0  0
   59.4249   33.7174   44.7909 H   0  0  0  0  0  0  0  0  0  0  0  0
   57.8644   32.7611   47.0859 H   0  0  0  0  0  0  0  0  0  0  0  0
   56.6036   32.2741   45.9013 H   0  0  0  0  0  0  0  0  0  0  0  0
   58.3000   31.8609   44.1915 H   0  0  0  0  0  0  0  0  0  0  0  0
   59.5912   32.4907   45.2908 H   0  0  0  0  0  0  0  0  0  0  0  0
   60.8183   30.4509   49.2272 H   0  0  0  0  0  0  0  0  0  0  0  0
   61.5523   32.0963   49.1614 H   0  0  0  0  0  0  0  0  0  0  0  0
   59.1510   32.1704   49.8156 H   0  0  0  0  0  0  0  0  0  0  0  0
   59.4565   33.0180   48.2616 H   0  0  0  0  0  0  0  0  0  0  0  0
   58.7171   31.3809   48.2616 H   0  0  0  0  0  0  0  0  0  0  0  0
   55.1460   28.0900   44.8570 H   0  0  0  0  0  0  0  0  0  0  0  0
   58.3723   26.4622   48.4361 H   0  0  0  0  0  0  0  0  0  0  0  0
   57.9943   25.2926   47.1261 H   0  0  0  0  0  0  0  0  0  0  0  0
   59.5649   26.1644   47.1261 H   0  0  0  0  0  0  0  0  0  0  0  0
  1  2  1  0
  2  3  1  0
  3  4  1  0
  4  5  1  0
  5  6  1  0
  6  7  1  0
  7  8  1  0
  8  9  1  0
  9 10  1  0
  7 11  2  0
 11 12  1  0
 12 13  2  0
 13 14  1  0
 14 15  2  0
 14 16  1  0
 16 17  1  0
 17 18  2  0
 17 19  1  0
 19 20  1  0
 13  6  1  0
 19 12  1  0
  1 21  1  0
  1 22  1  0
  1 23  1  0
  2 24  1  0
  2 25  1  0
  4 26  1  0
  4 27  1  0
  5 28  1  0
  5 29  1  0
  9 30  1  0
  9 31  1  0
 10 32  1  0
 10 33  1  0
 10 34  1  0
 16 35  1  0
 20 36  1  0
 20 37  1  0
 20 38  1  0
M  END
>  <UniqueID>  (21) 
21

>  <SMILES>  (21) 
CCOCCn1c(SCC)nc2c1c(=O)[nH]c(=O)n2C

>  <Energy>  (21) 
68.96262255323808

>  <Genealogy>  (21) 
CCOCCn1c(SCC)nc2c1c(=O)[nH]c(=O)n2C (3D coordinates assigned)
CCOCCn1c(SCC)nc2c1c(=O)[nH]c(=O)n2C (optimized conformer: 68.96262255323808 kcal/mol)

>  <smiles>  (21) 
CCOCCn1c(SCC)nc2c1c(=O)[nH]c(=O)n2C

>  <score_type>  (21) 
oracle

>  <origin>  (21) 
adg

>  <m_score__min__energy>  (21) 
-5.9000000000000004

>  <m_primary>  (21) 
energy

$$$$
21:0
     RDKit          3D

 50 51  0  0  0  0  0  0  0  0999 V2000
   57.6230   28.7210   44.1410 C   0  0  0  0  0  0  0  0  0  0  0  0
   56.5530   29.7300   43.7150 C   0  0  0  0  0  0  0  0  0  0  0  0
   56.4310   30.8500   44.6650 N   0  0  0  0  0  0  0  0  0  0  0  0
   57.3180   31.9750   44.3330 C   0  0  0  0  0  0  0  0  0  0  0  0
   57.0200   33.1690   45.2460 C   0  0  0  0  0  0  0  0  0  0  0  0
   58.2340   34.1030   45.3540 C   0  0  0  0  0  0  0  0  0  0  0  0
   59.2110   33.5680   46.3270 N   0  0  0  0  0  0  0  0  0  0  0  0
   60.1670   34.6010   46.8040 C   0  0  0  0  0  0  0  0  0  0  0  0
   61.4230   34.0380   47.4370 C   0  0  0  0  0  0  0  0  0  0  0  0
   62.5010   33.6410   46.6270 C   0  0  0  0  0  0  0  0  0  0  0  0
   63.6580   33.1060   47.2020 C   0  0  0  0  0  0  0  0  0  0  0  0
   63.7540   32.9740   48.5890 C   0  0  0  0  0  0  0  0  0  0  0  0
   62.6950   33.3830   49.4040 C   0  0  0  0  0  0  0  0  0  0  0  0
   61.5350   33.9170   48.8330 C   0  0  0  0  0  0  0  0  0  0  0  0
   58.5480   32.8240   47.4270 C   0  0  0  0  0  0  0  0  0  0  0  0
   59.1410   31.4400   47.6240 C   0  0  0  0  0  0  0  0  0  0  0  0
   59.6040   30.7250   46.5010 C   0  0  0  0  0  0  0  0  0  0  0  0
   60.1410   29.4440   46.6430 C   0  0  0  0  0  0  0  0  0  0  0  0
   60.2030   28.8470   47.9010 C   0  0  0  0  0  0  0  0  0  0  0  0
   59.7050   29.5180   49.0180 C   0  0  0  0  0  0  0  0  0  0  0  0
   59.1470   30.8040   48.8940 C   0  0  0  0  0  0  0  0  0  0  0  0
   58.5680   31.4640   50.1180 C   0  0  0  0  0  0  0  0  0  0  0  0
   57.6693   28.6773   45.2392 H   0  0  0  0  0  0  0  0  0  0  0  0
   57.3680   27.7270   43.7449 H   0  0  0  0  0  0  0  0  0  0  0  0
   58.6004   29.0338   43.7449 H   0  0  0  0  0  0  0  0  0  0  0  0
   56.8195   30.1321   42.7264 H   0  0  0  0  0  0  0  0  0  0  0  0
   55.5868   29.2048   43.6879 H   0  0  0  0  0  0  0  0  0  0  0  0
   56.6460   30.5150   45.6340 H   0  0  0  0  0  0  0  0  0  0  0  0
   58.3647   31.6653   44.4693 H   0  0  0  0  0  0  0  0  0  0  0  0
   57.1478   32.2707   43.2872 H   0  0  0  0  0  0  0  0  0  0  0  0
   56.1697   33.7322   44.8339 H   0  0  0  0  0  0  0  0  0  0  0  0
   56.7833   32.7884   46.2505 H   0  0  0  0  0  0  0  0  0  0  0  0
   58.7142   34.1888   44.3681 H   0  0  0  0  0  0  0  0  0  0  0  0
   57.8943   35.0917   45.6962 H   0  0  0  0  0  0  0  0  0  0  0  0
   60.4617   35.2215   45.9449 H   0  0  0  0  0  0  0  0  0  0  0  0
   59.6485   35.1754   47.5858 H   0  0  0  0  0  0  0  0  0  0  0  0
   62.4341   33.7518   45.5346 H   0  0  0  0  0  0  0  0  0  0  0  0
   64.4937   32.7887   46.5609 H   0  0  0  0  0  0  0  0  0  0  0  0
   64.6627   32.5483   49.0397 H   0  0  0  0  0  0  0  0  0  0  0  0
   62.7738   33.2848   50.4968 H   0  0  0  0  0  0  0  0  0  0  0  0
   60.7069   34.2436   49.4792 H   0  0  0  0  0  0  0  0  0  0  0  0
   58.6634   33.3947   48.3603 H   0  0  0  0  0  0  0  0  0  0  0  0
   57.4879   32.7017   47.1602 H   0  0  0  0  0  0  0  0  0  0  0  0
   59.5416   31.1811   45.5020 H   0  0  0  0  0  0  0  0  0  0  0  0
   60.5158   28.9049   45.7604 H   0  0  0  0  0  0  0  0  0  0  0  0
   60.6450   27.8460   48.0131 H   0  0  0  0  0  0  0  0  0  0  0  0
   59.7489   29.0368   50.0062 H   0  0  0  0  0  0  0  0  0  0  0  0
   58.9828   30.9912   51.0204 H   0  0  0  0  0  0  0  0  0  0  0  0
   58.8244   32.5337   50.1137 H   0  0  0  0  0  0  0  0  0  0  0  0
   57.4740   31.3491   50.1137 H   0  0  0  0  0  0  0  0  0  0  0  0
  1  2  1  0
  2  3  1  0
  3  4  1  0
  4  5  1  0
  5  6  1  0
  6  7  1  0
  7  8  1  0
  8  9  1  0
  9 10  2  0
 10 11  1  0
 11 12  2  0
 12 13  1  0
 13 14  2  0
  7 15  1  0
 15 16  1  0
 16 17  2  0
 17 18  1  0
 18 19  2  0
 19 20  1  0
 20 21  2  0
 21 22  1  0
 14  9  1  0
 21 16  1  0
  1 23  1  0
  1 24  1  0
  1 25  1  0
  2 26  1  0
  2 27  1  0
  3 28  1  0
  4 29  1  0
  4 30  1  0
  5 31  1  0
  5 32  1  0
  6 33  1  0
  6 34  1  0
  8 35  1  0
  8 36  1  0
 10 37  1  0
 11 38  1  0
 12 39  1  0
 13 40  1  0
 14 41  1  0
 15 42  1  0
 15 43  1  0
 17 44  1  0
 18 45  1  0
 19 46  1  0
 20 47  1  0
 22 48  1  0
 22 49  1  0
 22 50  1  0
M  END
>  <UniqueID>  (22) 
22

>  <SMILES>  (22) 
CCNCCCN(Cc1ccccc1)Cc1ccccc1C

>  <Energy>  (22) 
51.05572682196306

>  <Genealogy>  (22) 
CCNCCCN(Cc1ccccc1)Cc1ccccc1C (3D coordinates assigned)
CCNCCCN(Cc1ccccc1)Cc1ccccc1C (optimized conformer: 51.05572682196306 kcal/mol)

>  <smiles>  (22) 
CCNCCCN(Cc1ccccc1)Cc1ccccc1C

>  <score_type>  (22) 
oracle

>  <origin>  (22) 
adg

>  <m_score__min__energy>  (22) 
-7.3200000000000003

>  <m_primary>  (22) 
energy

$$$$
22:0
     RDKit          3D

 48 51  0  0  0  0  0  0  0  0999 V2000
   56.3380   26.8860   45.9470 C   0  0  0  0  0  0  0  0  0  0  0  0
   57.2740   28.0090   45.9110 N   0  0  0  0  0  0  0  0  0  0  0  0
   58.4290   28.1340   46.6100 C   0  0  0  0  0  0  0  0  0  0  0  0
   59.0880   29.3180   46.2880 C   0  0  0  0  0  0  0  0  0  0  0  0
   58.3250   29.8930   45.2780 C   0  0  0  0  0  0  0  0  0  0  0  0
   58.5150   31.0390   44.5000 C   0  0  0  0  0  0  0  0  0  0  0  0
   57.5580   31.3460   43.5180 C   0  0  0  0  0  0  0  0  0  0  0  0
   56.4420   30.5080   43.3210 C   0  0  0  0  0  0  0  0  0  0  0  0
   56.2730   29.3540   44.1040 C   0  0  0  0  0  0  0  0  0  0  0  0
   57.2320   29.0740   45.0820 C   0  0  0  0  0  0  0  0  0  0  0  0
   60.4640   29.6910   46.8300 C   0  0  1  0  0  0  0  0  0  0  0  0
   60.5880   31.1460   47.1350 N   0  0  0  0  0  0  0  0  0  0  0  0
   60.0280   31.5240   48.4550 C   0  0  0  0  0  0  0  0  0  0  0  0
   59.6280   33.0090   48.5470 C   0  0  0  0  0  0  0  0  0  0  0  0
   59.0550   33.5520   47.2620 C   0  0  0  0  0  0  0  0  0  0  0  0
   57.7130   33.3070   46.9220 C   0  0  0  0  0  0  0  0  0  0  0  0
   57.1840   33.8150   45.7320 C   0  0  0  0  0  0  0  0  0  0  0  0
   57.9810   34.5850   44.8820 C   0  0  0  0  0  0  0  0  0  0  0  0
   59.3090   34.8540   45.2240 C   0  0  0  0  0  0  0  0  0  0  0  0
   59.8450   34.3440   46.4110 C   0  0  0  0  0  0  0  0  0  0  0  0
   60.7550   28.8450   48.1000 C   0  0  0  0  0  0  0  0  0  0  0  0
   60.4370   27.3580   47.8820 C   0  0  0  0  0  0  0  0  0  0  0  0
   58.9390   27.1460   47.6220 C   0  0  0  0  0  0  0  0  0  0  0  0
   56.1197   26.6240   46.9928 H   0  0  0  0  0  0  0  0  0  0  0  0
   55.4052   27.1697   45.4376 H   0  0  0  0  0  0  0  0  0  0  0  0
   56.7851   26.0196   45.4376 H   0  0  0  0  0  0  0  0  0  0  0  0
   59.3924   31.6846   44.6529 H   0  0  0  0  0  0  0  0  0  0  0  0
   57.6807   32.2467   42.8986 H   0  0  0  0  0  0  0  0  0  0  0  0
   55.6990   30.7591   42.5496 H   0  0  0  0  0  0  0  0  0  0  0  0
   55.4100   28.6891   43.9518 H   0  0  0  0  0  0  0  0  0  0  0  0
   61.2056   29.4724   46.0475 H   0  0  0  0  0  0  0  0  0  0  0  0
   60.1330   31.7280   46.3930 H   0  0  0  0  0  0  0  0  0  0  0  0
   61.5960   31.4320   47.1100 H   0  0  0  0  0  0  0  0  0  0  0  0
   59.1351   30.9100   48.6438 H   0  0  0  0  0  0  0  0  0  0  0  0
   60.8159   31.3528   49.2033 H   0  0  0  0  0  0  0  0  0  0  0  0
   58.8736   33.1191   49.3399 H   0  0  0  0  0  0  0  0  0  0  0  0
   60.5426   33.5805   48.7636 H   0  0  0  0  0  0  0  0  0  0  0  0
   57.0769   32.7133   47.5950 H   0  0  0  0  0  0  0  0  0  0  0  0
   56.1374   33.6078   45.4644 H   0  0  0  0  0  0  0  0  0  0  0  0
   57.5636   34.9795   43.9438 H   0  0  0  0  0  0  0  0  0  0  0  0
   59.9338   35.4678   44.5586 H   0  0  0  0  0  0  0  0  0  0  0  0
   60.8889   34.5636   46.6796 H   0  0  0  0  0  0  0  0  0  0  0  0
   61.8191   28.9470   48.3593 H   0  0  0  0  0  0  0  0  0  0  0  0
   60.1122   29.2160   48.9119 H   0  0  0  0  0  0  0  0  0  0  0  0
   61.0074   26.9918   47.0157 H   0  0  0  0  0  0  0  0  0  0  0  0
   60.7159   26.8040   48.7905 H   0  0  0  0  0  0  0  0  0  0  0  0
   58.7794   26.1259   47.2426 H   0  0  0  0  0  0  0  0  0  0  0  0
   58.3926   27.2929   48.5653 H   0  0  0  0  0  0  0  0  0  0  0  0
  1  2  1  0
  2  3  1  0
  3  4  2  0
  4  5  1  0
  5  6  2  0
  6  7  1  0
  7  8  2  0
  8  9  1  0
  9 10  2  0
  4 11  1  0
 11 12  1  0
 12 13  1  0
 13 14  1  0
 14 15  1  0
 15 16  2  0
 16 17  1  0
 17 18  2  0
 18 19  1  0
 19 20  2  0
 11 21  1  0
 21 22  1  0
 22 23  1  0
 10  2  1  0
 20 15  1  0
 23  3  1  0
 10  5  1  0
  1 24  1  0
  1 25  1  0
  1 26  1  0
  6 27  1  0
  7 28  1  0
  8 29  1  0
  9 30  1  0
 11 31  1  6
 12 32  1  0
 12 33  1  0
 13 34  1  0
 13 35  1  0
 14 36  1  0
 14 37  1  0
 16 38  1  0
 17 39  1  0
 18 40  1  0
 19 41  1  0
 20 42  1  0
 21 43  1  0
 21 44  1  0
 22 45  1  0
 22 46  1  0
 23 47  1  0
 23 48  1  0
M  CHG  1  12   1
M  END
>  <UniqueID>  (23) 
23

>  <SMILES>  (23) 
Cn1c2c(c3ccccc31)[C@@H]([NH2+]CCc1ccccc1)CCC2

>  <Energy>  (23) 
90.71215792534572

>  <Genealogy>  (23) 
Cn1c2c(c3ccccc31)C([NH2+]CCc1ccccc1)CCC2 (protonated)
Cn1c2c(c3ccccc31)[C@@H]([NH2+]CCc1ccccc1)CCC2 (chirality)
Cn1c2c(c3ccccc31)[C@@H]([NH2+]CCc1ccccc1)CCC2 (3D coordinates assigned)
Cn1c2c(c3ccccc31)[C@@H]([NH2+]CCc1ccccc1)CCC2 (nonaromatic ring conformer: 90.71215792534572 kcal/mol)

>  <smiles>  (23) 
Cn1c2c(c3ccccc31)C(NCCc1ccccc1)CCC2

>  <score_type>  (23) 
oracle

>  <origin>  (23) 
adg

>  <m_score__min__energy>  (23) 
-6.1799999999999997

>  <m_primary>  (23) 
energy

$$$$
23:0
     RDKit          3D

 49 51  0  0  0  0  0  0  0  0999 V2000
   55.5390   29.7150   43.4710 C   0  0  0  0  0  0  0  0  0  0  0  0
   56.7040   30.0530   44.3540 C   0  0  0  0  0  0  0  0  0  0  0  0
   57.1470   31.3850   44.4890 C   0  0  0  0  0  0  0  0  0  0  0  0
   58.2170   31.7240   45.3570 C   0  0  0  0  0  0  0  0  0  0  0  0
   58.5230   33.1120   45.5520 N   0  0  0  0  0  0  0  0  0  0  0  0
   57.7670   33.8570   46.5580 C   0  0  0  0  0  0  0  0  0  0  0  0
   59.1710   33.8580   44.4740 C   0  0  0  0  0  0  0  0  0  0  0  0
   58.8760   30.6970   46.0950 C   0  0  0  0  0  0  0  0  0  0  0  0
   59.9900   30.8590   46.9770 C   0  0  0  0  0  0  0  0  0  0  0  0
   60.7080   32.1070   47.0640 N   0  0  0  0  0  0  0  0  0  0  0  0
   60.5370   33.0760   48.1480 C   0  0  0  0  0  0  0  0  0  0  0  0
   61.8490   33.8180   48.4330 C   0  0  0  0  0  0  0  0  0  0  0  0
   62.9800   33.1550   47.7480 N   0  0  0  0  0  0  0  0  0  0  0  0
   64.1650   33.0950   48.6230 C   0  0  0  0  0  0  0  0  0  0  0  0
   63.3220   33.8750   46.5110 C   0  0  0  0  0  0  0  0  0  0  0  0
   60.4550   29.7290   47.7090 C   0  0  0  0  0  0  0  0  0  0  0  0
   59.8670   28.4630   47.5500 C   0  0  0  0  0  0  0  0  0  0  0  0
   58.8190   28.3250   46.6450 C   0  0  0  0  0  0  0  0  0  0  0  0
   58.3610   29.4040   45.9560 C   0  0  0  0  0  0  0  0  0  0  0  0
   57.3290   29.0730   45.1320 C   0  0  0  0  0  0  0  0  0  0  0  0
   57.0230   27.6080   45.2400 C   0  0  0  0  0  0  0  0  0  0  0  0
   58.0460   27.0970   46.2870 C   0  0  0  0  0  0  0  0  0  0  0  0
   54.6681   29.4623   44.0937 H   0  0  0  0  0  0  0  0  0  0  0  0
   55.2971   30.5800   42.8360 H   0  0  0  0  0  0  0  0  0  0  0  0
   55.7976   28.8549   42.8360 H   0  0  0  0  0  0  0  0  0  0  0  0
   56.6525   32.1781   43.9090 H   0  0  0  0  0  0  0  0  0  0  0  0
   58.0856   33.5430   47.5629 H   0  0  0  0  0  0  0  0  0  0  0  0
   57.9538   34.9339   46.4339 H   0  0  0  0  0  0  0  0  0  0  0  0
   56.6930   33.6545   46.4339 H   0  0  0  0  0  0  0  0  0  0  0  0
   59.8348   34.6222   44.9045 H   0  0  0  0  0  0  0  0  0  0  0  0
   59.7609   33.1675   43.8533 H   0  0  0  0  0  0  0  0  0  0  0  0
   58.4047   34.3455   43.8533 H   0  0  0  0  0  0  0  0  0  0  0  0
   61.4740   32.2950   46.3830 H   0  0  0  0  0  0  0  0  0  0  0  0
   59.7660   33.8058   47.8600 H   0  0  0  0  0  0  0  0  0  0  0  0
   60.2350   32.5356   49.0572 H   0  0  0  0  0  0  0  0  0  0  0  0
   61.7646   34.8537   48.0723 H   0  0  0  0  0  0  0  0  0  0  0  0
   62.0348   33.8073   49.5171 H   0  0  0  0  0  0  0  0  0  0  0  0
   63.8450   33.1112   49.6753 H   0  0  0  0  0  0  0  0  0  0  0  0
   64.7217   32.1675   48.4233 H   0  0  0  0  0  0  0  0  0  0  0  0
   64.8125   33.9615   48.4233 H   0  0  0  0  0  0  0  0  0  0  0  0
   63.7813   34.8419   46.7645 H   0  0  0  0  0  0  0  0  0  0  0  0
   64.0315   33.2753   45.9219 H   0  0  0  0  0  0  0  0  0  0  0  0
   62.4089   34.0460   45.9219 H   0  0  0  0  0  0  0  0  0  0  0  0
   61.2915   29.8500   48.4131 H   0  0  0  0  0  0  0  0  0  0  0  0
   60.2273   27.5995   48.1284 H   0  0  0  0  0  0  0  0  0  0  0  0
   55.9919   27.4469   45.5876 H   0  0  0  0  0  0  0  0  0  0  0  0
   57.1002   27.0835   44.2762 H   0  0  0  0  0  0  0  0  0  0  0  0
   57.5338   26.6836   47.1683 H   0  0  0  0  0  0  0  0  0  0  0  0
   58.6825   26.2855   45.9045 H   0  0  0  0  0  0  0  0  0  0  0  0
  1  2  1  0
  2  3  2  0
  3  4  1  0
  4  5  1  0
  5  6  1  0
  5  7  1  0
  4  8  2  0
  8  9  1  0
  9 10  1  0
 10 11  1  0
 11 12  1  0
 12 13  1  0
 13 14  1  0
 13 15  1  0
  9 16  2  0
 16 17  1  0
 17 18  2  0
 18 19  1  0
 19 20  2  0
 20 21  1  0
 21 22  1  0
 20  2  1  0
 19  8  1  0
 22 18  1  0
  1 23  1  0
  1 24  1  0
  1 25  1  0
  3 26  1  0
  6 27  1  0
  6 28  1  0
  6 29  1  0
  7 30  1  0
  7 31  1  0
  7 32  1  0
 10 33  1  0
 11 34  1  0
 11 35  1  0
 12 36  1  0
 12 37  1  0
 14 38  1  0
 14 39  1  0
 14 40  1  0
 15 41  1  0
 15 42  1  0
 15 43  1  0
 16 44  1  0
 17 45  1  0
 21 46  1  0
 21 47  1  0
 22 48  1  0
 22 49  1  0
M  END
>  <UniqueID>  (24) 
24

>  <SMILES>  (24) 
Cc1cc(N(C)C)c2c(NCCN(C)C)ccc3c2c1CC3

>  <Energy>  (24) 
76.08096441183505

>  <Genealogy>  (24) 
Cc1cc(N(C)C)c2c(NCCN(C)C)ccc3c2c1CC3 (3D coordinates assigned)
Cc1cc(N(C)C)c2c(NCCN(C)C)ccc3c2c1CC3 (nonaromatic ring conformer: 76.08096441183505 kcal/mol)

>  <smiles>  (24) 
Cc1cc(N(C)C)c2c(NCCN(C)C)ccc3c2c1CC3

>  <score_type>  (24) 
oracle

>  <origin>  (24) 
adg

>  <m_score__min__energy>  (24) 
-6.3700000000000001

>  <m_primary>  (24) 
energy

$$$$
24:0
     RDKit          3D

 71 73  0  0  0  0  0  0  0  0999 V2000
   57.5340   31.2060   51.7370 C   0  0  0  0  0  0  0  0  0  0  0  0
   57.7990   32.7180   51.6180 C   0  0  0  0  0  0  0  0  0  0  0  0
   59.2310   33.0950   51.6030 N   0  0  0  0  0  0  0  0  0  0  0  0
   59.9070   33.1470   52.9210 C   0  0  0  0  0  0  0  0  0  0  0  0
   59.3590   34.2160   53.8700 C   0  0  0  0  0  0  0  0  0  0  0  0
   59.6110   34.1470   50.6330 C   0  0  0  0  0  0  0  0  0  0  0  0
   60.9760   33.8580   49.9900 C   0  0  0  0  0  0  0  0  0  0  0  0
   61.0500   32.4860   49.2950 C   0  0  0  0  0  0  0  0  0  0  0  0
   59.8660   31.6550   49.5910 N   0  0  0  0  0  0  0  0  0  0  0  0
   59.7500   30.5550   48.6460 C   0  0  0  0  0  0  0  0  0  0  0  0
   60.1260   29.2390   49.0230 C   0  0  0  0  0  0  0  0  0  0  0  0
   60.4250   28.9060   50.3670 C   0  0  0  0  0  0  0  0  0  0  0  0
   60.7620   27.6040   50.7270 C   0  0  0  0  0  0  0  0  0  0  0  0
   60.7980   26.6030   49.7660 C   0  0  0  0  0  0  0  0  0  0  0  0
   60.5100   26.9010   48.4370 C   0  0  0  0  0  0  0  0  0  0  0  0
   60.1950   28.2230   48.0320 C   0  0  0  0  0  0  0  0  0  0  0  0
   59.9450   28.5280   46.7110 N   0  0  0  0  0  0  0  0  0  0  0  0
   60.3600   27.5900   45.6430 C   0  0  0  0  0  0  0  0  0  0  0  0
   59.3210   29.7140   46.3850 C   0  0  0  0  0  0  0  0  0  0  0  0
   58.7500   29.9140   45.1050 C   0  0  0  0  0  0  0  0  0  0  0  0
   58.1420   31.1220   44.7510 C   0  0  0  0  0  0  0  0  0  0  0  0
   57.5860   31.2860   43.4290 N   0  0  0  0  0  0  0  0  0  0  0  0
   58.1070   32.3530   42.5580 C   0  0  0  0  0  0  0  0  0  0  0  0
   57.4280   32.3410   41.1900 C   0  0  0  0  0  0  0  0  0  0  0  0
   56.6000   30.3110   42.9290 C   0  0  0  0  0  0  0  0  0  0  0  0
   55.6470   29.8610   44.0340 C   0  0  0  0  0  0  0  0  0  0  0  0
   58.0670   32.1610   45.6850 C   0  0  0  0  0  0  0  0  0  0  0  0
   57.4180   33.3510   45.3170 O   0  0  0  0  0  0  0  0  0  0  0  0
   58.0690   34.5820   45.0200 C   0  0  0  0  0  0  0  0  0  0  0  0
   58.6130   31.9790   46.9650 C   0  0  0  0  0  0  0  0  0  0  0  0
   59.2300   30.7620   47.3400 C   0  0  0  0  0  0  0  0  0  0  0  0
   57.4847   30.9249   52.7993 H   0  0  0  0  0  0  0  0  0  0  0  0
   56.5793   30.9615   51.2483 H   0  0  0  0  0  0  0  0  0  0  0  0
   58.3486   30.6514   51.2483 H   0  0  0  0  0  0  0  0  0  0  0  0
   57.3410   33.0738   50.6833 H   0  0  0  0  0  0  0  0  0  0  0  0
   57.3646   33.1816   52.5160 H   0  0  0  0  0  0  0  0  0  0  0  0
   59.7932   32.1659   53.4052 H   0  0  0  0  0  0  0  0  0  0  0  0
   60.9573   33.4088   52.7255 H   0  0  0  0  0  0  0  0  0  0  0  0
   59.5210   33.8999   54.9111 H   0  0  0  0  0  0  0  0  0  0  0  0
   59.8804   35.1678   53.6904 H   0  0  0  0  0  0  0  0  0  0  0  0
   58.2819   34.3484   53.6904 H   0  0  0  0  0  0  0  0  0  0  0  0
   58.8475   34.1962   49.8427 H   0  0  0  0  0  0  0  0  0  0  0  0
   59.6807   35.1031   51.1725 H   0  0  0  0  0  0  0  0  0  0  0  0
   61.1808   34.6384   49.2423 H   0  0  0  0  0  0  0  0  0  0  0  0
   61.7200   33.8506   50.8002 H   0  0  0  0  0  0  0  0  0  0  0  0
   61.1131   32.6409   48.2078 H   0  0  0  0  0  0  0  0  0  0  0  0
   61.9392   31.9598   49.6725 H   0  0  0  0  0  0  0  0  0  0  0  0
   59.9060   31.2920   50.5690 H   0  0  0  0  0  0  0  0  0  0  0  0
   58.9930   32.2310   49.5810 H   0  0  0  0  0  0  0  0  0  0  0  0
   60.3904   29.6889   51.1389 H   0  0  0  0  0  0  0  0  0  0  0  0
   61.0001   27.3682   51.7747 H   0  0  0  0  0  0  0  0  0  0  0  0
   61.0544   25.5731   50.0549 H   0  0  0  0  0  0  0  0  0  0  0  0
   60.5271   26.0962   47.6873 H   0  0  0  0  0  0  0  0  0  0  0  0
   60.7654   26.6737   46.0969 H   0  0  0  0  0  0  0  0  0  0  0  0
   59.4901   27.3364   45.0194 H   0  0  0  0  0  0  0  0  0  0  0  0
   61.1328   28.0631   45.0194 H   0  0  0  0  0  0  0  0  0  0  0  0
   58.7857   29.0970   44.3693 H   0  0  0  0  0  0  0  0  0  0  0  0
   57.9265   33.3261   43.0380 H   0  0  0  0  0  0  0  0  0  0  0  0
   59.1836   32.1827   42.4102 H   0  0  0  0  0  0  0  0  0  0  0  0
   56.3362   32.3217   41.3227 H   0  0  0  0  0  0  0  0  0  0  0  0
   57.7135   33.2443   40.6310 H   0  0  0  0  0  0  0  0  0  0  0  0
   57.7453   31.4483   40.6310 H   0  0  0  0  0  0  0  0  0  0  0  0
   56.0161   30.7757   42.1209 H   0  0  0  0  0  0  0  0  0  0  0  0
   57.1437   29.4281   42.5618 H   0  0  0  0  0  0  0  0  0  0  0  0
   56.0968   30.0734   45.0151 H   0  0  0  0  0  0  0  0  0  0  0  0
   54.6954   30.4049   43.9414 H   0  0  0  0  0  0  0  0  0  0  0  0
   55.4623   28.7806   43.9414 H   0  0  0  0  0  0  0  0  0  0  0  0
   58.3378   35.0902   45.9578 H   0  0  0  0  0  0  0  0  0  0  0  0
   58.9800   34.3835   44.4364 H   0  0  0  0  0  0  0  0  0  0  0  0
   57.3921   35.2233   44.4364 H   0  0  0  0  0  0  0  0  0  0  0  0
   58.5601   32.8014   47.6936 H   0  0  0  0  0  0  0  0  0  0  0  0
  1  2  1  0
  2  3  1  0
  3  4  1  0
  4  5  1  0
  3  6  1  0
  6  7  1  0
  7  8  1  0
  8  9  1  0
  9 10  1  0
 10 11  2  0
 11 12  1  0
 12 13  2  0
 13 14  1  0
 14 15  2  0
 15 16  1  0
 16 17  2  0
 17 18  1  0
 17 19  1  0
 19 20  2  0
 20 21  1  0
 21 22  1  0
 22 23  1  0
 23 24  1  0
 22 25  1  0
 25 26  1  0
 21 27  2  0
 27 28  1  0
 28 29  1  0
 27 30  1  0
 30 31  2  0
 31 10  1  0
 16 11  1  0
 31 19  1  0
  1 32  1  0
  1 33  1  0
  1 34  1  0
  2 35  1  0
  2 36  1  0
  4 37  1  0
  4 38  1  0
  5 39  1  0
  5 40  1  0
  5 41  1  0
  6 42  1  0
  6 43  1  0
  7 44  1  0
  7 45  1  0
  8 46  1  0
  8 47  1  0
  9 48  1  0
  9 49  1  0
 12 50  1  0
 13 51  1  0
 14 52  1  0
 15 53  1  0
 18 54  1  0
 18 55  1  0
 18 56  1  0
 20 57  1  0
 23 58  1  0
 23 59  1  0
 24 60  1  0
 24 61  1  0
 24 62  1  0
 25 63  1  0
 25 64  1  0
 26 65  1  0
 26 66  1  0
 26 67  1  0
 29 68  1  0
 29 69  1  0
 29 70  1  0
 30 71  1  0
M  CHG  2   9   1  17   1
M  END
>  <UniqueID>  (25) 
25

>  <SMILES>  (25) 
CCN(CC)CCC[NH2+]c1c2ccccc2[n+](C)c2cc(N(CC)CC)c(OC)cc12

>  <Energy>  (25) 
101.60596376773837

>  <Genealogy>  (25) 
CCN(CC)CCC[NH2+]c1c2ccccc2[n+](C)c2cc(N(CC)CC)c(OC)cc12 (protonated)
CCN(CC)CCC[NH2+]c1c2ccccc2[n+](C)c2cc(N(CC)CC)c(OC)cc12 (3D coordinates assigned)
CCN(CC)CCC[NH2+]c1c2ccccc2[n+](C)c2cc(N(CC)CC)c(OC)cc12 (optimized conformer: 101.60596376773837 kcal/mol)

>  <smiles>  (25) 
CCN(CC)CCCNc1c2ccccc2[n+](C)c2cc(N(CC)CC)c(OC)cc12

>  <score_type>  (25) 
oracle

>  <origin>  (25) 
adg

>  <m_score__min__energy>  (25) 
-4.4800000000000004

>  <m_primary>  (25) 
energy

$$$$
25:0
     RDKit          3D

 50 51  0  0  0  0  0  0  0  0999 V2000
   58.5990   27.3290   46.7850 C   0  0  0  0  0  0  0  0  0  0  0  0
   59.2540   27.3440   45.4660 N   0  0  0  0  0  0  0  0  0  0  0  0
   60.6250   27.8620   45.6110 C   0  0  0  0  0  0  0  0  0  0  0  0
   58.5000   28.1720   44.5010 C   0  0  0  0  0  0  0  0  0  0  0  0
   57.1540   28.6410   45.0900 C   0  0  0  0  0  0  0  0  0  0  0  0
   57.0210   30.1200   45.0570 N   0  0  0  0  0  0  0  0  0  0  0  0
   55.9440   30.4950   44.1200 C   0  0  0  0  0  0  0  0  0  0  0  0
   58.3100   30.7420   44.6620 C   0  0  0  0  0  0  0  0  0  0  0  0
   58.5040   32.1330   45.2540 C   0  0  0  0  0  0  0  0  0  0  0  0
   58.1520   33.2320   44.4470 C   0  0  0  0  0  0  0  0  0  0  0  0
   58.3230   34.5390   44.8970 C   0  0  0  0  0  0  0  0  0  0  0  0
   58.8600   34.7760   46.1580 C   0  0  0  0  0  0  0  0  0  0  0  0
   59.2160   33.7070   46.9790 C   0  0  0  0  0  0  0  0  0  0  0  0
   59.0250   32.3730   46.5620 C   0  0  0  0  0  0  0  0  0  0  0  0
   59.4720   31.2620   47.5010 C   0  0  0  0  0  0  0  0  0  0  0  0
   58.5680   30.2220   47.4880 F   0  0  0  0  0  0  0  0  0  0  0  0
   59.5140   31.7330   48.8060 F   0  0  0  0  0  0  0  0  0  0  0  0
   60.8730   30.7600   47.1100 C   0  0  0  0  0  0  0  0  0  0  0  0
   61.9460   31.7200   47.5560 C   0  0  0  0  0  0  0  0  0  0  0  0
   62.2950   32.8170   46.7500 C   0  0  0  0  0  0  0  0  0  0  0  0
   63.3260   33.6790   47.1390 C   0  0  0  0  0  0  0  0  0  0  0  0
   64.0130   33.4530   48.3340 C   0  0  0  0  0  0  0  0  0  0  0  0
   63.6720   32.3640   49.1420 C   0  0  0  0  0  0  0  0  0  0  0  0
   62.6440   31.4980   48.7550 C   0  0  0  0  0  0  0  0  0  0  0  0
   59.3645   27.3465   47.5747 H   0  0  0  0  0  0  0  0  0  0  0  0
   57.9511   28.2125   46.8827 H   0  0  0  0  0  0  0  0  0  0  0  0
   57.9922   26.4167   46.8827 H   0  0  0  0  0  0  0  0  0  0  0  0
   60.8708   27.9549   46.6792 H   0  0  0  0  0  0  0  0  0  0  0  0
   61.3315   27.1688   45.1311 H   0  0  0  0  0  0  0  0  0  0  0  0
   60.6967   28.8492   45.1311 H   0  0  0  0  0  0  0  0  0  0  0  0
   59.1026   29.0543   44.2395 H   0  0  0  0  0  0  0  0  0  0  0  0
   58.2929   27.5613   43.6098 H   0  0  0  0  0  0  0  0  0  0  0  0
   56.3355   28.1971   44.5044 H   0  0  0  0  0  0  0  0  0  0  0  0
   57.1102   28.3179   46.1405 H   0  0  0  0  0  0  0  0  0  0  0  0
   55.0547   30.8047   44.6885 H   0  0  0  0  0  0  0  0  0  0  0  0
   56.2827   31.3281   43.4866 H   0  0  0  0  0  0  0  0  0  0  0  0
   55.6920   29.6317   43.4866 H   0  0  0  0  0  0  0  0  0  0  0  0
   59.1313   30.0964   45.0065 H   0  0  0  0  0  0  0  0  0  0  0  0
   58.3035   30.8475   43.5671 H   0  0  0  0  0  0  0  0  0  0  0  0
   57.7350   33.0553   43.4445 H   0  0  0  0  0  0  0  0  0  0  0  0
   58.0333   35.3839   44.2550 H   0  0  0  0  0  0  0  0  0  0  0  0
   59.0041   35.8088   46.5081 H   0  0  0  0  0  0  0  0  0  0  0  0
   59.6531   33.9071   47.9684 H   0  0  0  0  0  0  0  0  0  0  0  0
   61.0480   29.7827   47.5835 H   0  0  0  0  0  0  0  0  0  0  0  0
   60.9172   30.6765   46.0141 H   0  0  0  0  0  0  0  0  0  0  0  0
   61.7551   32.9988   45.8090 H   0  0  0  0  0  0  0  0  0  0  0  0
   63.5958   34.5353   46.5034 H   0  0  0  0  0  0  0  0  0  0  0  0
   64.8226   34.1320   48.6396 H   0  0  0  0  0  0  0  0  0  0  0  0
   64.2130   32.1880   50.0835 H   0  0  0  0  0  0  0  0  0  0  0  0
   62.3811   30.6402   49.3915 H   0  0  0  0  0  0  0  0  0  0  0  0
  1  2  1  0
  2  3  1  0
  2  4  1  0
  4  5  1  0
  5  6  1  0
  6  7  1  0
  6  8  1  0
  8  9  1  0
  9 10  2  0
 10 11  1  0
 11 12  2  0
 12 13  1  0
 13 14  2  0
 14 15  1  0
 15 16  1  0
 15 17  1  0
 15 18  1  0
 18 19  1  0
 19 20  2  0
 20 21  1  0
 21 22  2  0
 22 23  1  0
 23 24  2  0
 14  9  1  0
 24 19  1  0
  1 25  1  0
  1 26  1  0
  1 27  1  0
  3 28  1  0
  3 29  1  0
  3 30  1  0
  4 31  1  0
  4 32  1  0
  5 33  1  0
  5 34  1  0
  7 35  1  0
  7 36  1  0
  7 37  1  0
  8 38  1  0
  8 39  1  0
 10 40  1  0
 11 41  1  0
 12 42  1  0
 13 43  1  0
 18 44  1  0
 18 45  1  0
 20 46  1  0
 21 47  1  0
 22 48  1  0
 23 49  1  0
 24 50  1  0
M  END
>  <UniqueID>  (26) 
26

>  <SMILES>  (26) 
CN(C)CCN(C)Cc1ccccc1C(F)(F)Cc1ccccc1

>  <Energy>  (26) 
53.91005322357684

>  <Genealogy>  (26) 
CN(C)CCN(C)Cc1ccccc1C(F)(F)Cc1ccccc1 (3D coordinates assigned)
CN(C)CCN(C)Cc1ccccc1C(F)(F)Cc1ccccc1 (optimized conformer: 53.91005322357684 kcal/mol)

>  <smiles>  (26) 
CN(C)CCN(C)Cc1ccccc1C(F)(F)Cc1ccccc1

>  <score_type>  (26) 
oracle

>  <origin>  (26) 
adg

>  <m_score__min__energy>  (26) 
-7.0599999999999996

>  <m_primary>  (26) 
energy

$$$$
26:0
     RDKit          3D

 37 39  0  0  0  0  0  0  0  0999 V2000
   56.4920   29.8060   42.6940 C   0  0  0  0  0  0  0  0  0  0  0  0
   55.9830   30.3320   44.0390 C   0  0  0  0  0  0  0  0  0  0  0  0
   55.8580   29.2780   45.0600 N   0  0  0  0  0  0  0  0  0  0  0  0
   57.0030   28.3530   45.1210 C   0  0  0  0  0  0  0  0  0  0  0  0
   58.2080   28.9750   45.8480 C   0  0  0  0  0  0  0  0  0  0  0  0
   58.0040   30.4000   46.1250 N   0  0  0  0  0  0  0  0  0  0  0  0
   59.0930   31.3280   46.2970 C   0  0  0  0  0  0  0  0  0  0  0  0
   60.3040   30.9690   46.9370 C   0  0  0  0  0  0  0  0  0  0  0  0
   61.3280   31.8790   47.0900 N   0  0  0  0  0  0  0  0  0  0  0  0
   62.4800   31.4870   47.7150 C   0  0  0  0  0  0  0  0  0  0  0  0
   63.5380   32.3830   47.8870 C   0  0  0  0  0  0  0  0  0  0  0  0
   63.4190   33.6890   47.4160 C   0  0  0  0  0  0  0  0  0  0  0  0
   62.2470   34.0920   46.7790 C   0  0  0  0  0  0  0  0  0  0  0  0
   61.2010   33.1730   46.6200 C   0  0  0  0  0  0  0  0  0  0  0  0
   60.0130   33.5380   45.9890 C   0  0  0  0  0  0  0  0  0  0  0  0
   59.6920   34.7000   45.4730 O   0  0  0  0  0  0  0  0  0  0  0  0
   58.4750   34.5930   44.9760 C   0  0  0  0  0  0  0  0  0  0  0  0
   57.9830   33.3090   45.1760 C   0  0  0  0  0  0  0  0  0  0  0  0
   58.9940   32.6430   45.8360 C   0  0  0  0  0  0  0  0  0  0  0  0
   57.2473   29.0254   42.8677 H   0  0  0  0  0  0  0  0  0  0  0  0
   55.6517   29.3828   42.1241 H   0  0  0  0  0  0  0  0  0  0  0  0
   56.9426   30.6319   42.1241 H   0  0  0  0  0  0  0  0  0  0  0  0
   56.6865   31.0938   44.4062 H   0  0  0  0  0  0  0  0  0  0  0  0
   54.9784   30.7472   43.8706 H   0  0  0  0  0  0  0  0  0  0  0  0
   55.7440   29.7290   45.9980 H   0  0  0  0  0  0  0  0  0  0  0  0
   56.6961   27.4427   45.6568 H   0  0  0  0  0  0  0  0  0  0  0  0
   57.3097   28.1233   44.0899 H   0  0  0  0  0  0  0  0  0  0  0  0
   58.3605   28.4460   46.8003 H   0  0  0  0  0  0  0  0  0  0  0  0
   59.0875   28.8775   45.1946 H   0  0  0  0  0  0  0  0  0  0  0  0
   57.0290   30.7650   46.1940 H   0  0  0  0  0  0  0  0  0  0  0  0
   60.4299   29.9452   47.3191 H   0  0  0  0  0  0  0  0  0  0  0  0
   62.5743   30.4557   48.0859 H   0  0  0  0  0  0  0  0  0  0  0  0
   64.4602   32.0592   48.3916 H   0  0  0  0  0  0  0  0  0  0  0  0
   64.2481   34.4000   47.5467 H   0  0  0  0  0  0  0  0  0  0  0  0
   62.1439   35.1212   46.4047 H   0  0  0  0  0  0  0  0  0  0  0  0
   57.9275   35.4047   44.4746 H   0  0  0  0  0  0  0  0  0  0  0  0
   57.0028   32.9114   44.8742 H   0  0  0  0  0  0  0  0  0  0  0  0
  1  2  1  0
  2  3  1  0
  3  4  1  0
  4  5  1  0
  5  6  1  0
  6  7  1  0
  7  8  2  0
  8  9  1  0
  9 10  2  0
 10 11  1  0
 11 12  2  0
 12 13  1  0
 13 14  2  0
 14 15  1  0
 15 16  1  0
 16 17  1  0
 17 18  2  0
 18 19  1  0
 19  7  1  0
 14  9  1  0
 19 15  2  0
  1 20  1  0
  1 21  1  0
  1 22  1  0
  2 23  1  0
  2 24  1  0
  3 25  1  0
  4 26  1  0
  4 27  1  0
  5 28  1  0
  5 29  1  0
  6 30  1  0
  8 31  1  0
 10 32  1  0
 11 33  1  0
 12 34  1  0
 13 35  1  0
 17 36  1  0
 18 37  1  0
M  CHG  1   9   1
M  END
>  <UniqueID>  (27) 
27

>  <SMILES>  (27) 
CCNCCNc1c[n+]2ccccc2c2occc12

>  <Energy>  (27) 
75.3910175495575

>  <Genealogy>  (27) 
CCNCCNc1c[n+]2ccccc2c2occc12 (3D coordinates assigned)
CCNCCNc1c[n+]2ccccc2c2occc12 (optimized conformer: 75.3910175495575 kcal/mol)

>  <smiles>  (27) 
CCNCCNc1c[n+]2ccccc2c2occc12

>  <score_type>  (27) 
oracle

>  <origin>  (27) 
adg

>  <m_score__min__energy>  (27) 
-5.3200000000000003

>  <m_primary>  (27) 
energy

$$$$
27:0
     RDKit          3D

 69 71  0  0  0  0  0  0  0  0999 V2000
   58.5320   33.4640   44.1010 C   0  0  0  0  0  0  0  0  0  0  0  0
   57.4110   32.4300   43.9940 C   0  0  0  0  0  0  0  0  0  0  0  0
   57.6110   31.5400   42.8260 N   0  0  0  0  0  0  0  0  0  0  0  0
   57.8170   32.3440   41.6100 C   0  0  0  0  0  0  0  0  0  0  0  0
   56.4860   30.5870   42.6470 C   0  0  0  0  0  0  0  0  0  0  0  0
   56.7990   29.2850   43.3910 C   0  0  0  0  0  0  0  0  0  0  0  0
   58.1940   29.2300   43.8420 N   0  0  0  0  0  0  0  0  0  0  0  0
   58.5950   28.6020   45.0730 C   0  0  0  0  0  0  0  0  0  0  0  0
   58.4190   27.2180   45.2620 C   0  0  0  0  0  0  0  0  0  0  0  0
   57.9160   26.4040   44.2250 C   0  0  0  0  0  0  0  0  0  0  0  0
   57.6740   25.0500   44.4390 C   0  0  0  0  0  0  0  0  0  0  0  0
   57.9240   24.4880   45.6840 C   0  0  0  0  0  0  0  0  0  0  0  0
   58.4670   25.2630   46.7090 C   0  0  0  0  0  0  0  0  0  0  0  0
   58.7680   26.6330   46.5080 C   0  0  0  0  0  0  0  0  0  0  0  0
   59.3780   27.3960   47.4870 N   0  0  0  0  0  0  0  0  0  0  0  0
   60.0240   26.7320   48.6440 C   0  0  0  0  0  0  0  0  0  0  0  0
   59.4350   28.7720   47.3590 C   0  0  0  0  0  0  0  0  0  0  0  0
   59.8000   29.6060   48.4440 C   0  0  0  0  0  0  0  0  0  0  0  0
   59.9040   31.0010   48.2990 C   0  0  0  0  0  0  0  0  0  0  0  0
   60.2590   31.8460   49.3650 O   0  0  0  0  0  0  0  0  0  0  0  0
   61.5900   32.2010   49.7410 C   0  0  0  0  0  0  0  0  0  0  0  0
   62.1160   33.3420   48.8400 C   0  0  0  0  0  0  0  0  0  0  0  0
   63.2780   32.9820   47.9710 N   0  0  0  0  0  0  0  0  0  0  0  0
   63.3550   33.8600   46.7790 C   0  0  0  0  0  0  0  0  0  0  0  0
   64.5500   33.0510   48.7260 C   0  0  0  0  0  0  0  0  0  0  0  0
   63.0890   31.5840   47.5120 C   0  0  0  0  0  0  0  0  0  0  0  0
   59.6360   31.5870   47.0610 C   0  0  0  0  0  0  0  0  0  0  0  0
   59.7490   32.9840   46.9460 O   0  0  0  0  0  0  0  0  0  0  0  0
   58.8010   33.9160   47.4590 C   0  0  0  0  0  0  0  0  0  0  0  0
   59.2500   30.7800   45.9810 C   0  0  0  0  0  0  0  0  0  0  0  0
   59.1010   29.3860   46.1270 C   0  0  0  0  0  0  0  0  0  0  0  0
   58.7475   33.6628   45.1612 H   0  0  0  0  0  0  0  0  0  0  0  0
   59.4365   33.0764   43.6094 H   0  0  0  0  0  0  0  0  0  0  0  0
   58.2186   34.3968   43.6094 H   0  0  0  0  0  0  0  0  0  0  0  0
   57.3959   31.8214   44.9102 H   0  0  0  0  0  0  0  0  0  0  0  0
   56.4573   32.9629   43.8659 H   0  0  0  0  0  0  0  0  0  0  0  0
   58.0809   33.3740   41.8918 H   0  0  0  0  0  0  0  0  0  0  0  0
   58.6320   31.9064   41.0148 H   0  0  0  0  0  0  0  0  0  0  0  0
   56.8920   32.3523   41.0148 H   0  0  0  0  0  0  0  0  0  0  0  0
   55.5633   31.0283   43.0517 H   0  0  0  0  0  0  0  0  0  0  0  0
   56.3509   30.3750   41.5761 H   0  0  0  0  0  0  0  0  0  0  0  0
   56.1393   29.2100   44.2680 H   0  0  0  0  0  0  0  0  0  0  0  0
   56.6341   28.4488   42.6955 H   0  0  0  0  0  0  0  0  0  0  0  0
   58.8950   29.8260   43.3480 H   0  0  0  0  0  0  0  0  0  0  0  0
   57.7130   26.8439   43.2374 H   0  0  0  0  0  0  0  0  0  0  0  0
   57.2847   24.4251   43.6217 H   0  0  0  0  0  0  0  0  0  0  0  0
   57.6929   23.4275   45.8627 H   0  0  0  0  0  0  0  0  0  0  0  0
   58.6646   24.8034   47.6886 H   0  0  0  0  0  0  0  0  0  0  0  0
   59.6193   27.1480   49.5784 H   0  0  0  0  0  0  0  0  0  0  0  0
   59.8223   25.6513   48.6061 H   0  0  0  0  0  0  0  0  0  0  0  0
   61.1098   26.9039   48.6061 H   0  0  0  0  0  0  0  0  0  0  0  0
   60.0072   29.1515   49.4241 H   0  0  0  0  0  0  0  0  0  0  0  0
   61.5941   32.5350   50.7890 H   0  0  0  0  0  0  0  0  0  0  0  0
   62.2415   31.3226   49.6228 H   0  0  0  0  0  0  0  0  0  0  0  0
   61.2921   33.6686   48.1885 H   0  0  0  0  0  0  0  0  0  0  0  0
   62.4755   34.1277   49.5207 H   0  0  0  0  0  0  0  0  0  0  0  0
   63.4469   34.9079   47.1008 H   0  0  0  0  0  0  0  0  0  0  0  0
   64.2323   33.5833   46.1759 H   0  0  0  0  0  0  0  0  0  0  0  0
   62.4429   33.7403   46.1759 H   0  0  0  0  0  0  0  0  0  0  0  0
   64.3370   33.0394   49.8051 H   0  0  0  0  0  0  0  0  0  0  0  0
   65.1776   32.1856   48.4669 H   0  0  0  0  0  0  0  0  0  0  0  0
   65.0803   33.9792   48.4669 H   0  0  0  0  0  0  0  0  0  0  0  0
   62.9993   30.9205   48.3848 H   0  0  0  0  0  0  0  0  0  0  0  0
   62.1737   31.5178   46.9055 H   0  0  0  0  0  0  0  0  0  0  0  0
   63.9538   31.2771   46.9055 H   0  0  0  0  0  0  0  0  0  0  0  0
   58.8233   33.8941   48.5586 H   0  0  0  0  0  0  0  0  0  0  0  0
   59.0536   34.9272   47.1072 H   0  0  0  0  0  0  0  0  0  0  0  0
   57.7943   33.6462   47.1072 H   0  0  0  0  0  0  0  0  0  0  0  0
   59.0600   31.2435   45.0017 H   0  0  0  0  0  0  0  0  0  0  0  0
  1  2  1  0
  2  3  1  0
  3  4  1  0
  3  5  1  0
  5  6  1  0
  6  7  1  0
  7  8  1  0
  8  9  2  0
  9 10  1  0
 10 11  2  0
 11 12  1  0
 12 13  2  0
 13 14  1  0
 14 15  2  0
 15 16  1  0
 15 17  1  0
 17 18  2  0
 18 19  1  0
 19 20  1  0
 20 21  1  0
 21 22  1  0
 22 23  1  0
 23 24  1  0
 23 25  1  0
 23 26  1  0
 19 27  2  0
 27 28  1  0
 28 29  1  0
 27 30  1  0
 30 31  2  0
 31  8  1  0
 14  9  1  0
 31 17  1  0
  1 32  1  0
  1 33  1  0
  1 34  1  0
  2 35  1  0
  2 36  1  0
  4 37  1  0
  4 38  1  0
  4 39  1  0
  5 40  1  0
  5 41  1  0
  6 42  1  0
  6 43  1  0
  7 44  1  0
 10 45  1  0
 11 46  1  0
 12 47  1  0
 13 48  1  0
 16 49  1  0
 16 50  1  0
 16 51  1  0
 18 52  1  0
 21 53  1  0
 21 54  1  0
 22 55  1  0
 22 56  1  0
 24 57  1  0
 24 58  1  0
 24 59  1  0
 25 60  1  0
 25 61  1  0
 25 62  1  0
 26 63  1  0
 26 64  1  0
 26 65  1  0
 29 66  1  0
 29 67  1  0
 29 68  1  0
 30 69  1  0
M  CHG  2  15   1  23   1
M  END
>  <UniqueID>  (28) 
28

>  <SMILES>  (28) 
CCN(C)CCNc1c2ccccc2[n+](C)c2cc(OCC[N+](C)(C)C)c(OC)cc12

>  <Energy>  (28) 
100.05053645924392

>  <Genealogy>  (28) 
CCN(C)CCNc1c2ccccc2[n+](C)c2cc(OCC[N+](C)(C)C)c(OC)cc12 (3D coordinates assigned)
CCN(C)CCNc1c2ccccc2[n+](C)c2cc(OCC[N+](C)(C)C)c(OC)cc12 (optimized conformer: 100.05053645924392 kcal/mol)

>  <smiles>  (28) 
CCN(C)CCNc1c2ccccc2[n+](C)c2cc(OCC[N+](C)(C)C)c(OC)cc12

>  <score_type>  (28) 
oracle

>  <origin>  (28) 
adg

>  <m_score__min__energy>  (28) 
-3.7599999999999998

>  <m_primary>  (28) 
energy

$$$$
