0:0
     RDKit          3D

 73 77  0  0  0  0  0  0  0  0999 V2000
   56.6940   30.4330   52.0400 C   0  0  0  0  0  0  0  0  0  0  0  0
   57.0350   31.9340   52.0240 C   0  0  0  0  0  0  0  0  0  0  0  0
   58.2470   32.3370   52.7980 N   0  0  0  0  0  0  0  0  0  0  0  0
   58.1460   32.0260   54.2490 C   0  0  0  0  0  0  0  0  0  0  0  0
   59.3190   32.5240   55.1000 C   0  0  0  0  0  0  0  0  0  0  0  0
   58.7350   33.7180   52.5490 C   0  0  0  0  0  0  0  0  0  0  0  0
   59.2900   33.8920   51.1250 C   0  0  0  0  0  0  0  0  0  0  0  0
   60.4730   33.0540   50.9400 N   0  0  0  0  0  0  0  0  0  0  0  0
   60.3660   31.7280   50.3990 C   0  0  0  0  0  0  0  0  0  0  0  0
   59.8590   31.5340   49.1160 C   0  0  0  0  0  0  0  0  0  0  0  0
   59.7460   30.2660   48.5820 C   0  0  0  0  0  0  0  0  0  0  0  0
   60.2430   29.1610   49.2280 N   0  0  0  0  0  0  0  0  0  0  0  0
   60.4230   27.8950   48.4970 C   0  0  0  0  0  0  0  0  0  0  0  0
   60.6490   29.2920   50.5470 C   0  0  0  0  0  0  0  0  0  0  0  0
   60.9600   28.1640   51.3450 C   0  0  0  0  0  0  0  0  0  0  0  0
   61.4010   28.3140   52.6590 C   0  0  0  0  0  0  0  0  0  0  0  0
   61.5350   29.5820   53.2140 C   0  0  0  0  0  0  0  0  0  0  0  0
   61.2090   30.7130   52.4690 C   0  0  0  0  0  0  0  0  0  0  0  0
   60.7470   30.5900   51.1440 C   0  0  0  0  0  0  0  0  0  0  0  0
   59.1500   30.3960   47.2460 C   0  0  0  0  0  0  0  0  0  0  0  0
   58.5880   29.4350   46.4000 C   0  0  0  0  0  0  0  0  0  0  0  0
   58.0000   29.8450   45.1840 C   0  0  0  0  0  0  0  0  0  0  0  0
   57.4620   28.8920   44.2910 C   0  0  0  0  0  0  0  0  0  0  0  0
   57.5060   27.5290   44.6330 O   0  0  0  0  0  0  0  0  0  0  0  0
   56.7970   26.9420   45.7190 C   0  0  0  0  0  0  0  0  0  0  0  0
   56.8950   29.3270   43.0780 C   0  0  0  0  0  0  0  0  0  0  0  0
   56.8580   30.6830   42.7570 C   0  0  0  0  0  0  0  0  0  0  0  0
   57.3740   31.6320   43.6380 C   0  0  0  0  0  0  0  0  0  0  0  0
   57.9400   31.2350   44.8610 C   0  0  0  0  0  0  0  0  0  0  0  0
   58.4320   32.1930   45.7820 C   0  0  0  0  0  0  0  0  0  0  0  0
   58.3220   33.6020   45.5270 N   0  0  0  0  0  0  0  0  0  0  0  0
   59.5330   34.3790   45.2640 C   0  0  0  0  0  0  0  0  0  0  0  0
   57.0040   34.2130   45.3670 C   0  0  0  0  0  0  0  0  0  0  0  0
   59.0200   31.7450   46.9700 C   0  0  0  0  0  0  0  0  0  0  0  0
   59.4680   32.5890   48.1230 C   0  0  0  0  0  0  0  0  0  0  0  0
   56.6152   30.0860   53.0808 H   0  0  0  0  0  0  0  0  0  0  0  0
   55.7358   30.2692   51.5253 H   0  0  0  0  0  0  0  0  0  0  0  0
   57.4874   29.8712   51.5253 H   0  0  0  0  0  0  0  0  0  0  0  0
   57.1893   32.2332   50.9768 H   0  0  0  0  0  0  0  0  0  0  0  0
   56.1884   32.4363   52.5148 H   0  0  0  0  0  0  0  0  0  0  0  0
   59.0090   31.6990   52.4660 H   0  0  0  0  0  0  0  0  0  0  0  0
   57.2247   32.4877   54.6339 H   0  0  0  0  0  0  0  0  0  0  0  0
   58.1508   30.9290   54.3299 H   0  0  0  0  0  0  0  0  0  0  0  0
   59.0695   32.4181   56.1661 H   0  0  0  0  0  0  0  0  0  0  0  0
   60.2157   31.9290   54.8724 H   0  0  0  0  0  0  0  0  0  0  0  0
   59.5138   33.5824   54.8724 H   0  0  0  0  0  0  0  0  0  0  0  0
   57.8999   34.4196   52.6916 H   0  0  0  0  0  0  0  0  0  0  0  0
   59.5530   33.9190   53.2564 H   0  0  0  0  0  0  0  0  0  0  0  0
   58.5197   33.5996   50.3963 H   0  0  0  0  0  0  0  0  0  0  0  0
   59.5684   34.9454   50.9738 H   0  0  0  0  0  0  0  0  0  0  0  0
   61.3330   33.3000   51.4790 H   0  0  0  0  0  0  0  0  0  0  0  0
   60.5403   27.0703   49.2154 H   0  0  0  0  0  0  0  0  0  0  0  0
   59.5424   27.7082   47.8648 H   0  0  0  0  0  0  0  0  0  0  0  0
   61.3208   27.9611   47.8648 H   0  0  0  0  0  0  0  0  0  0  0  0
   60.8520   27.1545   50.9217 H   0  0  0  0  0  0  0  0  0  0  0  0
   61.6441   27.4251   53.2596 H   0  0  0  0  0  0  0  0  0  0  0  0
   61.9000   29.6924   54.2458 H   0  0  0  0  0  0  0  0  0  0  0  0
   61.3133   31.7111   52.9194 H   0  0  0  0  0  0  0  0  0  0  0  0
   58.6039   28.3711   46.6790 H   0  0  0  0  0  0  0  0  0  0  0  0
   57.2238   27.2953   46.6693 H   0  0  0  0  0  0  0  0  0  0  0  0
   55.7369   27.2304   45.6634 H   0  0  0  0  0  0  0  0  0  0  0  0
   56.8825   25.8467   45.6634 H   0  0  0  0  0  0  0  0  0  0  0  0
   56.4771   28.5897   42.3768 H   0  0  0  0  0  0  0  0  0  0  0  0
   56.4186   31.0064   41.8018 H   0  0  0  0  0  0  0  0  0  0  0  0
   57.3378   32.6992   43.3738 H   0  0  0  0  0  0  0  0  0  0  0  0
   59.9935   34.6745   46.2183 H   0  0  0  0  0  0  0  0  0  0  0  0
   60.2431   33.7675   44.6880 H   0  0  0  0  0  0  0  0  0  0  0  0
   59.2731   35.2794   44.6880 H   0  0  0  0  0  0  0  0  0  0  0  0
   56.5703   34.4140   46.3577 H   0  0  0  0  0  0  0  0  0  0  0  0
   57.1026   35.1573   44.8114 H   0  0  0  0  0  0  0  0  0  0  0  0
   56.3471   33.5276   44.8114 H   0  0  0  0  0  0  0  0  0  0  0  0
   60.3238   33.2239   47.8502 H   0  0  0  0  0  0  0  0  0  0  0  0
   58.7092   33.2965   48.4886 H   0  0  0  0  0  0  0  0  0  0  0  0
  1  2  1  0
  2  3  1  0
  3  4  1  0
  4  5  1  0
  3  6  1  0
  6  7  1  0
  7  8  1  0
  8  9  1  0
  9 10  2  0
 10 11  1  0
 11 12  2  0
 12 13  1  0
 12 14  1  0
 14 15  2  0
 15 16  1  0
 16 17  2  0
 17 18  1  0
 18 19  2  0
 11 20  1  0
 20 21  2  0
 21 22  1  0
 22 23  2  0
 23 24  1  0
 24 25  1  0
 23 26  1  0
 26 27  2  0
 27 28  1  0
 28 29  2  0
 29 30  1  0
 30 31  1  0
 31 32  1  0
 31 33  1  0
 30 34  2  0
 34 35  1  0
 19  9  1  0
 34 20  1  0
 35 10  1  0
 19 14  1  0
 29 22  1  0
  1 36  1  0
  1 37  1  0
  1 38  1  0
  2 39  1  0
  2 40  1  0
  3 41  1  0
  4 42  1  0
  4 43  1  0
  5 44  1  0
  5 45  1  0
  5 46  1  0
  6 47  1  0
  6 48  1  0
  7 49  1  0
  7 50  1  0
  8 51  1  0
 13 52  1  0
 13 53  1  0
 13 54  1  0
 15 55  1  0
 16 56  1  0
 17 57  1  0
 18 58  1  0
 21 59  1  0
 25 60  1  0
 25 61  1  0
 25 62  1  0
 26 63  1  0
 27 64  1  0
 28 65  1  0
 32 66  1  0
 32 67  1  0
 32 68  1  0
 33 69  1  0
 33 70  1  0
 33 71  1  0
 35 72  1  0
 35 73  1  0
M  CHG  2   3   1  12   1
M  END
>  <UniqueID>  (1) 
1

>  <SMILES>  (1) 
CC[NH+](CC)CCNc1c2c([n+](C)c3ccccc13)-c1cc3c(OC)cccc3c(N(C)C)c1C2

>  <Energy>  (1) 
133.31186131389356

>  <Genealogy>  (1) 
CC[NH+](CC)CCNc1c2c([n+](C)c3ccccc13)-c1cc3c(OC)cccc3c(N(C)C)c1C2 (protonated)
CC[NH+](CC)CCNc1c2c([n+](C)c3ccccc13)-c1cc3c(OC)cccc3c(N(C)C)c1C2 (3D coordinates assigned)
CC[NH+](CC)CCNc1c2c([n+](C)c3ccccc13)-c1cc3c(OC)cccc3c(N(C)C)c1C2 (nonaromatic ring conformer: 133.31186131389356 kcal/mol)

>  <smiles>  (1) 
CCN(CC)CCNc1c2c([n+](C)c3ccccc13)-c1cc3c(OC)cccc3c(N(C)C)c1C2

>  <score_type>  (1) 
oracle

>  <origin>  (1) 
adg

>  <m_score__min__energy>  (1) 
-5.4299999999999997

>  <m_primary>  (1) 
energy

$$$$
1:0
     RDKit          3D

 54 57  0  0  0  0  0  0  0  0999 V2000
   57.1470   26.4840   45.6440 C   0  0  0  0  0  0  0  0  0  0  0  0
   58.6270   26.2390   45.9300 C   0  0  0  0  0  0  0  0  0  0  0  0
   59.3010   27.5030   46.4040 C   0  0  0  0  0  0  0  0  0  0  0  0
   59.3010   27.8400   47.7670 C   0  0  0  0  0  0  0  0  0  0  0  0
   59.9500   28.9970   48.2150 C   0  0  0  0  0  0  0  0  0  0  0  0
   60.6030   29.8620   47.3080 C   0  0  0  0  0  0  0  0  0  0  0  0
   61.3080   31.0450   47.7900 N   0  0  0  0  0  0  0  0  0  0  0  0
   62.5620   31.4620   47.1240 C   0  0  0  0  0  0  0  0  0  0  0  0
   63.1430   32.7680   47.7080 C   0  0  0  0  0  0  0  0  0  0  0  0
   62.0880   33.6790   48.2050 N   0  0  0  0  0  0  0  0  0  0  0  0
   61.2420   34.2040   47.0860 C   0  0  0  0  0  0  0  0  0  0  0  0
   59.7050   34.2380   47.3220 C   0  0  0  0  0  0  0  0  0  0  0  0
   58.9750   33.2600   46.4870 N   0  0  0  0  0  0  0  0  0  0  0  0
   58.4000   32.1660   47.0860 C   0  0  0  0  0  0  0  0  0  0  0  0
   57.7670   31.2220   46.3440 N   0  0  0  0  0  0  0  0  0  0  0  0
   57.6580   31.3420   44.9970 C   0  0  0  0  0  0  0  0  0  0  0  0
   57.0100   30.3450   44.2590 C   0  0  0  0  0  0  0  0  0  0  0  0
   56.8740   30.4810   42.8720 C   0  0  0  0  0  0  0  0  0  0  0  0
   57.3800   31.6120   42.2180 C   0  0  0  0  0  0  0  0  0  0  0  0
   58.0310   32.6120   42.9500 C   0  0  0  0  0  0  0  0  0  0  0  0
   58.1700   32.4860   44.3480 C   0  0  0  0  0  0  0  0  0  0  0  0
   58.8010   33.4660   45.1330 C   0  0  0  0  0  0  0  0  0  0  0  0
   59.1850   34.5440   44.5880 O   0  0  0  0  0  0  0  0  0  0  0  0
   61.4020   33.0460   49.3530 C   0  0  0  0  0  0  0  0  0  0  0  0
   60.9630   31.5810   49.1190 C   0  0  0  0  0  0  0  0  0  0  0  0
   60.5540   29.5380   45.9310 C   0  0  0  0  0  0  0  0  0  0  0  0
   59.9130   28.3700   45.4860 C   0  0  0  0  0  0  0  0  0  0  0  0
   56.6000   26.5745   46.5941 H   0  0  0  0  0  0  0  0  0  0  0  0
   57.0341   27.4130   45.0660 H   0  0  0  0  0  0  0  0  0  0  0  0
   56.7408   25.6409   45.0660 H   0  0  0  0  0  0  0  0  0  0  0  0
   58.7203   25.4675   46.7085 H   0  0  0  0  0  0  0  0  0  0  0  0
   59.1142   25.9085   45.0008 H   0  0  0  0  0  0  0  0  0  0  0  0
   58.7865   27.1892   48.4894 H   0  0  0  0  0  0  0  0  0  0  0  0
   59.9516   29.2362   49.2887 H   0  0  0  0  0  0  0  0  0  0  0  0
   63.3068   30.6614   47.2438 H   0  0  0  0  0  0  0  0  0  0  0  0
   62.3293   31.6471   46.0650 H   0  0  0  0  0  0  0  0  0  0  0  0
   63.8136   32.5148   48.5423 H   0  0  0  0  0  0  0  0  0  0  0  0
   63.6828   33.2863   46.9018 H   0  0  0  0  0  0  0  0  0  0  0  0
   62.5840   34.5140   48.6000 H   0  0  0  0  0  0  0  0  0  0  0  0
   61.5689   35.2333   46.8769 H   0  0  0  0  0  0  0  0  0  0  0  0
   61.3894   33.4949   46.2581 H   0  0  0  0  0  0  0  0  0  0  0  0
   59.5070   34.0134   48.3805 H   0  0  0  0  0  0  0  0  0  0  0  0
   59.3495   35.2412   47.0441 H   0  0  0  0  0  0  0  0  0  0  0  0
   58.4530   32.0536   48.1790 H   0  0  0  0  0  0  0  0  0  0  0  0
   56.6083   29.4562   44.7675 H   0  0  0  0  0  0  0  0  0  0  0  0
   56.3670   29.6954   42.2926 H   0  0  0  0  0  0  0  0  0  0  0  0
   57.2657   31.7142   41.1287 H   0  0  0  0  0  0  0  0  0  0  0  0
   58.4343   33.4963   42.4348 H   0  0  0  0  0  0  0  0  0  0  0  0
   62.0868   33.0647   50.2136 H   0  0  0  0  0  0  0  0  0  0  0  0
   60.4802   33.6227   49.5193 H   0  0  0  0  0  0  0  0  0  0  0  0
   61.4474   30.9514   49.8799 H   0  0  0  0  0  0  0  0  0  0  0  0
   59.8651   31.5686   49.1863 H   0  0  0  0  0  0  0  0  0  0  0  0
   61.0247   30.2106   45.1988 H   0  0  0  0  0  0  0  0  0  0  0  0
   59.8907   28.1337   44.4119 H   0  0  0  0  0  0  0  0  0  0  0  0
  1  2  1  0
  2  3  1  0
  3  4  2  0
  4  5  1  0
  5  6  2  0
  6  7  1  0
  7  8  1  0
  8  9  1  0
  9 10  1  0
 10 11  1  0
 11 12  1  0
 12 13  1  0
 13 14  1  0
 14 15  2  0
 15 16  1  0
 16 17  2  0
 17 18  1  0
 18 19  2  0
 19 20  1  0
 20 21  2  0
 21 22  1  0
 22 23  2  0
 10 24  1  0
 24 25  1  0
  6 26  1  0
 26 27  2  0
 27  3  1  0
 25  7  1  0
 22 13  1  0
 21 16  1  0
  1 28  1  0
  1 29  1  0
  1 30  1  0
  2 31  1  0
  2 32  1  0
  4 33  1  0
  5 34  1  0
  8 35  1  0
  8 36  1  0
  9 37  1  0
  9 38  1  0
 10 39  1  0
 11 40  1  0
 11 41  1  0
 12 42  1  0
 12 43  1  0
 14 44  1  0
 17 45  1  0
 18 46  1  0
 19 47  1  0
 20 48  1  0
 24 49  1  0
 24 50  1  0
 25 51  1  0
 25 52  1  0
 26 53  1  0
 27 54  1  0
M  CHG  1  10   1
M  END
>  <UniqueID>  (2) 
2

>  <SMILES>  (2) 
CCc1ccc(N2CC[NH+](CCn3cnc4ccccc4c3=O)CC2)cc1

>  <Energy>  (2) 
78.77857796521316

>  <Genealogy>  (2) 
CCc1ccc(N2CC[NH+](CCn3cnc4ccccc4c3=O)CC2)cc1 (protonated)
CCc1ccc(N2CC[NH+](CCn3cnc4ccccc4c3=O)CC2)cc1 (3D coordinates assigned)
CCc1ccc(N2CC[NH+](CCn3cnc4ccccc4c3=O)CC2)cc1 (nonaromatic ring conformer: 78.77857796521316 kcal/mol)

>  <smiles>  (2) 
CCc1ccc(N2CCN(CCn3cnc4ccccc4c3=O)CC2)cc1

>  <score_type>  (2) 
oracle

>  <origin>  (2) 
adg

>  <m_score__min__energy>  (2) 
-6.5199999999999996

>  <m_primary>  (2) 
energy

$$$$
2:0
     RDKit          3D

 47 49  0  0  0  0  0  0  0  0999 V2000
   57.7870   27.7610   44.2780 C   0  0  0  0  0  0  0  0  0  0  0  0
   57.0420   28.2140   45.5250 C   0  0  0  0  0  0  0  0  0  0  0  0
   55.9140   28.9710   45.1410 O   0  0  0  0  0  0  0  0  0  0  0  0
   56.1250   29.5620   43.8730 C   0  0  0  0  0  0  0  0  0  0  0  0
   56.9210   30.8270   44.0150 C   0  0  0  0  0  0  0  0  0  0  0  0
   57.3310   31.5510   42.8860 C   0  0  0  0  0  0  0  0  0  0  0  0
   58.0960   32.7050   43.0530 C   0  0  0  0  0  0  0  0  0  0  0  0
   58.4600   33.1270   44.3380 C   0  0  0  0  0  0  0  0  0  0  0  0
   58.0130   32.3860   45.4490 C   0  0  0  0  0  0  0  0  0  0  0  0
   57.2790   31.2560   45.2550 N   0  0  0  0  0  0  0  0  0  0  0  0
   58.4210   32.7690   46.8460 C   0  0  0  0  0  0  0  0  0  0  0  0
   58.7930   34.1970   46.9320 N   0  0  0  0  0  0  0  0  0  0  0  0
   59.2600   34.5260   48.2970 C   0  0  0  0  0  0  0  0  0  0  0  0
   59.1550   33.2960   49.2060 C   0  0  0  0  0  0  0  0  0  0  0  0
   60.4540   32.8210   49.5640 O   0  0  0  0  0  0  0  0  0  0  0  0
   61.5800   32.8120   48.7250 C   0  0  0  0  0  0  0  0  0  0  0  0
   62.4560   33.9110   48.6080 C   0  0  0  0  0  0  0  0  0  0  0  0
   63.5620   33.8430   47.7540 C   0  0  0  0  0  0  0  0  0  0  0  0
   63.8030   32.6850   47.0110 C   0  0  0  0  0  0  0  0  0  0  0  0
   62.9390   31.5940   47.1190 C   0  0  0  0  0  0  0  0  0  0  0  0
   61.8330   31.6580   47.9720 C   0  0  0  0  0  0  0  0  0  0  0  0
   59.8320   34.5040   45.9270 C   0  0  0  0  0  0  0  0  0  0  0  0
   59.2360   34.4040   44.5210 C   0  0  0  0  0  0  0  0  0  0  0  0
   58.6927   27.2103   44.5718 H   0  0  0  0  0  0  0  0  0  0  0  0
   57.1368   27.1052   43.6804 H   0  0  0  0  0  0  0  0  0  0  0  0
   58.0700   28.6400   43.6804 H   0  0  0  0  0  0  0  0  0  0  0  0
   56.7167   27.3342   46.0995 H   0  0  0  0  0  0  0  0  0  0  0  0
   57.7059   28.8298   46.1495 H   0  0  0  0  0  0  0  0  0  0  0  0
   56.6742   28.8576   43.2309 H   0  0  0  0  0  0  0  0  0  0  0  0
   55.1504   29.8006   43.4222 H   0  0  0  0  0  0  0  0  0  0  0  0
   57.0516   31.2116   41.8777 H   0  0  0  0  0  0  0  0  0  0  0  0
   58.4141   33.2848   42.1740 H   0  0  0  0  0  0  0  0  0  0  0  0
   57.5800   32.5774   47.5287 H   0  0  0  0  0  0  0  0  0  0  0  0
   59.2986   32.1674   47.1253 H   0  0  0  0  0  0  0  0  0  0  0  0
   60.3085   34.8557   48.2522 H   0  0  0  0  0  0  0  0  0  0  0  0
   58.6297   35.3289   48.7071 H   0  0  0  0  0  0  0  0  0  0  0  0
   58.6054   33.5677   50.1193 H   0  0  0  0  0  0  0  0  0  0  0  0
   58.6239   32.4997   48.6640 H   0  0  0  0  0  0  0  0  0  0  0  0
   62.2689   34.8252   49.1905 H   0  0  0  0  0  0  0  0  0  0  0  0
   64.2428   34.7027   47.6675 H   0  0  0  0  0  0  0  0  0  0  0  0
   64.6737   32.6328   46.3408 H   0  0  0  0  0  0  0  0  0  0  0  0
   63.1285   30.6829   46.5324 H   0  0  0  0  0  0  0  0  0  0  0  0
   61.1558   30.7949   48.0525 H   0  0  0  0  0  0  0  0  0  0  0  0
   60.2102   35.5237   46.0920 H   0  0  0  0  0  0  0  0  0  0  0  0
   60.6572   33.7833   46.0247 H   0  0  0  0  0  0  0  0  0  0  0  0
   58.5621   35.2579   44.3573 H   0  0  0  0  0  0  0  0  0  0  0  0
   60.0627   34.4114   43.7954 H   0  0  0  0  0  0  0  0  0  0  0  0
  1  2  1  0
  2  3  1  0
  3  4  1  0
  4  5  1  0
  5  6  2  0
  6  7  1  0
  7  8  2  0
  8  9  1  0
  9 10  2  0
  9 11  1  0
 11 12  1  0
 12 13  1  0
 13 14  1  0
 14 15  1  0
 15 16  1  0
 16 17  2  0
 17 18  1  0
 18 19  2  0
 19 20  1  0
 20 21  2  0
 12 22  1  0
 22 23  1  0
 10  5  1  0
 21 16  1  0
 23  8  1  0
  1 24  1  0
  1 25  1  0
  1 26  1  0
  2 27  1  0
  2 28  1  0
  4 29  1  0
  4 30  1  0
  6 31  1  0
  7 32  1  0
 11 33  1  0
 11 34  1  0
 13 35  1  0
 13 36  1  0
 14 37  1  0
 14 38  1  0
 17 39  1  0
 18 40  1  0
 19 41  1  0
 20 42  1  0
 21 43  1  0
 22 44  1  0
 22 45  1  0
 23 46  1  0
 23 47  1  0
M  END
>  <UniqueID>  (3) 
3

>  <SMILES>  (3) 
CCOCc1ccc2c(n1)CN(CCOc1ccccc1)CC2

>  <Energy>  (3) 
49.569103717045756

>  <Genealogy>  (3) 
CCOCc1ccc2c(n1)CN(CCOc1ccccc1)CC2 (3D coordinates assigned)
CCOCc1ccc2c(n1)CN(CCOc1ccccc1)CC2 (nonaromatic ring conformer: 49.569103717045756 kcal/mol)

>  <smiles>  (3) 
CCOCc1ccc2c(n1)CN(CCOc1ccccc1)CC2

>  <score_type>  (3) 
oracle

>  <origin>  (3) 
adg

>  <m_score__min__energy>  (3) 
-7.9699999999999998

>  <m_primary>  (3) 
energy

$$$$
3:0
     RDKit          3D

 50 52  0  0  0  0  0  0  0  0999 V2000
   63.7450   33.1290   47.0330 C   0  0  0  0  0  0  0  0  0  0  0  0
   63.3790   32.8530   48.4920 C   0  0  0  0  0  0  0  0  0  0  0  0
   61.9150   32.9010   48.7110 N   0  0  0  0  0  0  0  0  0  0  0  0
   61.4700   34.2040   49.2520 C   0  0  0  0  0  0  0  0  0  0  0  0
   59.9500   34.2180   49.3820 C   0  0  0  0  0  0  0  0  0  0  0  0
   61.3320   31.7270   49.4090 C   0  0  0  0  0  0  0  0  0  0  0  0
   60.7290   30.6260   48.5040 C   0  0  0  0  0  0  0  0  0  0  0  0
   61.1510   30.7440   47.0980 N   0  0  0  0  0  0  0  0  0  0  0  0
   59.9950   30.6870   46.2130 C   0  0  0  0  0  0  0  0  0  0  0  0
   59.3080   31.8750   45.8480 C   0  0  0  0  0  0  0  0  0  0  0  0
   59.7860   33.1550   46.2260 C   0  0  0  0  0  0  0  0  0  0  0  0
   59.0550   34.3070   45.9490 C   0  0  0  0  0  0  0  0  0  0  0  0
   57.8350   34.2160   45.2970 C   0  0  0  0  0  0  0  0  0  0  0  0
   57.3640   32.9790   44.8680 C   0  0  0  0  0  0  0  0  0  0  0  0
   58.1140   31.7920   45.0800 C   0  0  0  0  0  0  0  0  0  0  0  0
   57.6980   30.5800   44.5650 N   0  0  0  0  0  0  0  0  0  0  0  0
   56.6450   30.5450   43.5220 C   0  0  0  0  0  0  0  0  0  0  0  0
   58.3000   29.4070   44.9730 C   0  0  0  0  0  0  0  0  0  0  0  0
   57.7420   28.1420   44.6500 C   0  0  0  0  0  0  0  0  0  0  0  0
   58.4000   26.9580   44.9700 C   0  0  0  0  0  0  0  0  0  0  0  0
   57.8510   25.7630   44.6360 F   0  0  0  0  0  0  0  0  0  0  0  0
   59.6250   27.0000   45.6210 C   0  0  0  0  0  0  0  0  0  0  0  0
   60.1710   28.2210   46.0030 C   0  0  0  0  0  0  0  0  0  0  0  0
   59.5000   29.4420   45.7390 C   0  0  0  0  0  0  0  0  0  0  0  0
   64.6227   33.7909   46.9941 H   0  0  0  0  0  0  0  0  0  0  0  0
   63.9785   32.1802   46.5278 H   0  0  0  0  0  0  0  0  0  0  0  0
   62.8970   33.6144   46.5278 H   0  0  0  0  0  0  0  0  0  0  0  0
   63.7477   31.8542   48.7687 H   0  0  0  0  0  0  0  0  0  0  0  0
   63.8432   33.6325   49.1140 H   0  0  0  0  0  0  0  0  0  0  0  0
   61.9226   34.3621   50.2420 H   0  0  0  0  0  0  0  0  0  0  0  0
   61.7833   35.0070   48.5686 H   0  0  0  0  0  0  0  0  0  0  0  0
   59.6731   34.2205   50.4466 H   0  0  0  0  0  0  0  0  0  0  0  0
   59.5488   35.1199   48.8966 H   0  0  0  0  0  0  0  0  0  0  0  0
   59.5322   33.3237   48.8966 H   0  0  0  0  0  0  0  0  0  0  0  0
   62.1273   31.2666   50.0136 H   0  0  0  0  0  0  0  0  0  0  0  0
   60.4891   32.1212   49.9956 H   0  0  0  0  0  0  0  0  0  0  0  0
   61.0484   29.6448   48.8850 H   0  0  0  0  0  0  0  0  0  0  0  0
   59.6352   30.7397   48.5306 H   0  0  0  0  0  0  0  0  0  0  0  0
   61.8400   30.0000   46.8510 H   0  0  0  0  0  0  0  0  0  0  0  0
   61.6880   31.6220   46.9520 H   0  0  0  0  0  0  0  0  0  0  0  0
   60.7510   33.2394   46.7471 H   0  0  0  0  0  0  0  0  0  0  0  0
   59.4460   35.2908   46.2479 H   0  0  0  0  0  0  0  0  0  0  0  0
   57.2385   35.1229   45.1186 H   0  0  0  0  0  0  0  0  0  0  0  0
   56.3927   32.9195   44.3551 H   0  0  0  0  0  0  0  0  0  0  0  0
   55.6553   30.5121   44.0011 H   0  0  0  0  0  0  0  0  0  0  0  0
   56.7193   31.4461   42.8955 H   0  0  0  0  0  0  0  0  0  0  0  0
   56.7790   29.6508   42.8955 H   0  0  0  0  0  0  0  0  0  0  0  0
   56.7702   28.0968   44.1366 H   0  0  0  0  0  0  0  0  0  0  0  0
   60.1651   26.0660   45.8353 H   0  0  0  0  0  0  0  0  0  0  0  0
   61.1419   28.2398   46.5198 H   0  0  0  0  0  0  0  0  0  0  0  0
  1  2  1  0
  2  3  1  0
  3  4  1  0
  4  5  1  0
  3  6  1  0
  6  7  1  0
  7  8  1  0
  8  9  1  0
  9 10  2  0
 10 11  1  0
 11 12  2  0
 12 13  1  0
 13 14  2  0
 14 15  1  0
 15 16  2  0
 16 17  1  0
 16 18  1  0
 18 19  2  0
 19 20  1  0
 20 21  1  0
 20 22  2  0
 22 23  1  0
 23 24  2  0
 24  9  1  0
 15 10  1  0
 24 18  1  0
  1 25  1  0
  1 26  1  0
  1 27  1  0
  2 28  1  0
  2 29  1  0
  4 30  1  0
  4 31  1  0
  5 32  1  0
  5 33  1  0
  5 34  1  0
  6 35  1  0
  6 36  1  0
  7 37  1  0
  7 38  1  0
  8 39  1  0
  8 40  1  0
 11 41  1  0
 12 42  1  0
 13 43  1  0
 14 44  1  0
 17 45  1  0
 17 46  1  0
 17 47  1  0
 19 48  1  0
 22 49  1  0
 23 50  1  0
M  CHG  2   8   1  16   1
M  END
>  <UniqueID>  (4) 
4

>  <SMILES>  (4) 
CCN(CC)CC[NH2+]c1c2ccccc2[n+](C)c2cc(F)ccc12

>  <Energy>  (4) 
82.84885807679326

>  <Genealogy>  (4) 
CCN(CC)CC[NH2+]c1c2ccccc2[n+](C)c2cc(F)ccc12 (protonated)
CCN(CC)CC[NH2+]c1c2ccccc2[n+](C)c2cc(F)ccc12 (3D coordinates assigned)
CCN(CC)CC[NH2+]c1c2ccccc2[n+](C)c2cc(F)ccc12 (optimized conformer: 82.84885807679326 kcal/mol)

>  <smiles>  (4) 
CCN(CC)CCNc1c2ccccc2[n+](C)c2cc(F)ccc12

>  <score_type>  (4) 
oracle

>  <origin>  (4) 
adg

>  <m_score__min__energy>  (4) 
-3.79

>  <m_primary>  (4) 
energy

$$$$
4:0
     RDKit          3D

 40 41  0  0  0  0  0  0  0  0999 V2000
   60.4230   28.7990   45.1480 C   0  0  0  0  0  0  0  0  0  0  0  0
   60.4040   29.3250   46.5800 C   0  0  0  0  0  0  0  0  0  0  0  0
   61.1300   30.5370   46.6790 O   0  0  0  0  0  0  0  0  0  0  0  0
   61.4140   30.8700   48.0270 C   0  0  0  0  0  0  0  0  0  0  0  0
   62.4520   31.9970   48.0960 C   0  0  0  0  0  0  0  0  0  0  0  0
   62.1770   33.0200   47.0650 N   0  0  0  0  0  0  0  0  0  0  0  0
   63.4010   33.7770   46.7490 C   0  0  0  0  0  0  0  0  0  0  0  0
   61.0910   33.9350   47.4850 C   0  0  0  0  0  0  0  0  0  0  0  0
   59.8460   33.6340   46.7110 C   0  0  0  0  0  0  0  0  0  0  0  0
   58.7640   34.4690   46.5320 C   0  0  0  0  0  0  0  0  0  0  0  0
   57.9260   33.8650   45.7220 O   0  0  0  0  0  0  0  0  0  0  0  0
   58.4500   32.7000   45.4000 C   0  0  0  0  0  0  0  0  0  0  0  0
   57.7990   31.7440   44.4750 C   0  0  0  0  0  0  0  0  0  0  0  0
   57.6220   32.1140   43.1290 C   0  0  0  0  0  0  0  0  0  0  0  0
   57.0200   31.2350   42.2240 C   0  0  0  0  0  0  0  0  0  0  0  0
   56.5810   29.9810   42.6530 C   0  0  0  0  0  0  0  0  0  0  0  0
   56.7370   29.6070   43.9900 C   0  0  0  0  0  0  0  0  0  0  0  0
   57.3390   30.4800   44.9020 C   0  0  0  0  0  0  0  0  0  0  0  0
   57.4210   30.1000   46.2010 F   0  0  0  0  0  0  0  0  0  0  0  0
   59.6510   32.5160   45.9900 N   0  0  0  0  0  0  0  0  0  0  0  0
   60.4627   27.6998   45.1616 H   0  0  0  0  0  0  0  0  0  0  0  0
   59.5124   29.1266   44.6249 H   0  0  0  0  0  0  0  0  0  0  0  0
   61.3076   29.1914   44.6249 H   0  0  0  0  0  0  0  0  0  0  0  0
   59.3623   29.5024   46.8855 H   0  0  0  0  0  0  0  0  0  0  0  0
   60.8731   28.5777   47.2369 H   0  0  0  0  0  0  0  0  0  0  0  0
   60.4882   31.2001   48.5208 H   0  0  0  0  0  0  0  0  0  0  0  0
   61.8194   29.9822   48.5344 H   0  0  0  0  0  0  0  0  0  0  0  0
   62.4116   32.4656   49.0904 H   0  0  0  0  0  0  0  0  0  0  0  0
   63.4505   31.5716   47.9167 H   0  0  0  0  0  0  0  0  0  0  0  0
   63.8947   34.0824   47.6833 H   0  0  0  0  0  0  0  0  0  0  0  0
   64.0834   33.1430   46.1639 H   0  0  0  0  0  0  0  0  0  0  0  0
   63.1386   34.6707   46.1639 H   0  0  0  0  0  0  0  0  0  0  0  0
   60.8948   33.8001   48.5589 H   0  0  0  0  0  0  0  0  0  0  0  0
   61.3965   34.9738   47.2914 H   0  0  0  0  0  0  0  0  0  0  0  0
   58.6275   35.4617   46.9857 H   0  0  0  0  0  0  0  0  0  0  0  0
   57.9601   33.1030   42.7861 H   0  0  0  0  0  0  0  0  0  0  0  0
   56.8920   31.5317   41.1725 H   0  0  0  0  0  0  0  0  0  0  0  0
   56.1126   29.2879   41.9387 H   0  0  0  0  0  0  0  0  0  0  0  0
   56.3846   28.6210   44.3271 H   0  0  0  0  0  0  0  0  0  0  0  0
   60.3160   31.7200   45.8850 H   0  0  0  0  0  0  0  0  0  0  0  0
  1  2  1  0
  2  3  1  0
  3  4  1  0
  4  5  1  0
  5  6  1  0
  6  7  1  0
  6  8  1  0
  8  9  1  0
  9 10  2  0
 10 11  1  0
 11 12  1  0
 12 13  1  0
 13 14  2  0
 14 15  1  0
 15 16  2  0
 16 17  1  0
 17 18  2  0
 18 19  1  0
 12 20  2  0
 20  9  1  0
 18 13  1  0
  1 21  1  0
  1 22  1  0
  1 23  1  0
  2 24  1  0
  2 25  1  0
  4 26  1  0
  4 27  1  0
  5 28  1  0
  5 29  1  0
  7 30  1  0
  7 31  1  0
  7 32  1  0
  8 33  1  0
  8 34  1  0
 10 35  1  0
 14 36  1  0
 15 37  1  0
 16 38  1  0
 17 39  1  0
 20 40  1  0
M  CHG  1  20   1
M  END
>  <UniqueID>  (5) 
5

>  <SMILES>  (5) 
CCOCCN(C)Cc1coc(-c2ccccc2F)[nH+]1

>  <Energy>  (5) 
73.0180483284749

>  <Genealogy>  (5) 
CCOCCN(C)Cc1coc(-c2ccccc2F)[nH+]1 (protonated)
CCOCCN(C)Cc1coc(-c2ccccc2F)[nH+]1 (3D coordinates assigned)
CCOCCN(C)Cc1coc(-c2ccccc2F)[nH+]1 (optimized conformer: 73.0180483284749 kcal/mol)

>  <smiles>  (5) 
CCOCCN(C)Cc1coc(-c2ccccc2F)n1

>  <score_type>  (5) 
oracle

>  <origin>  (5) 
adg

>  <m_score__min__energy>  (5) 
-3.6000000000000001

>  <m_primary>  (5) 
energy

$$$$
5:0
     RDKit          3D

 45 47  0  0  0  0  0  0  0  0999 V2000
   53.9100   23.5170   45.3180 C   0  0  0  0  0  0  0  0  0  0  0  0
   54.8670   22.9290   46.3510 C   0  0  0  0  0  0  0  0  0  0  0  0
   55.4640   23.9630   47.1330 O   0  0  0  0  0  0  0  0  0  0  0  0
   56.4540   24.8560   46.6880 C   0  0  0  0  0  0  0  0  0  0  0  0
   57.8320   24.5920   46.8000 C   0  0  0  0  0  0  0  0  0  0  0  0
   58.7260   25.4740   46.3640 O   0  0  0  0  0  0  0  0  0  0  0  0
   58.3860   26.6320   45.8040 C   0  0  0  0  0  0  0  0  0  0  0  0
   59.4700   27.5790   45.3470 C   0  0  0  0  0  0  0  0  0  0  0  0
   59.1710   28.9990   45.6290 N   0  0  0  0  0  0  0  0  0  0  0  0
   58.6810   29.2340   46.9990 C   0  0  0  0  0  0  0  0  0  0  0  0
   58.8250   30.7240   47.3260 C   0  0  0  0  0  0  0  0  0  0  0  0
   58.5060   31.5490   46.1510 N   0  0  0  0  0  0  0  0  0  0  0  0
   58.9210   32.9280   46.1040 C   0  0  0  0  0  0  0  0  0  0  0  0
   58.8070   33.6700   44.9150 C   0  0  0  0  0  0  0  0  0  0  0  0
   59.2000   35.0110   44.8770 C   0  0  0  0  0  0  0  0  0  0  0  0
   59.7040   35.6260   46.0250 C   0  0  0  0  0  0  0  0  0  0  0  0
   59.8120   34.9020   47.2150 C   0  0  0  0  0  0  0  0  0  0  0  0
   59.4220   33.5600   47.2570 C   0  0  0  0  0  0  0  0  0  0  0  0
   57.7050   30.9640   45.0670 C   0  0  0  0  0  0  0  0  0  0  0  0
   58.3050   29.6220   44.6010 C   0  0  0  0  0  0  0  0  0  0  0  0
   57.0330   26.9600   45.6480 C   0  0  0  0  0  0  0  0  0  0  0  0
   56.0640   26.0610   46.0960 C   0  0  0  0  0  0  0  0  0  0  0  0
   54.8420   26.3410   45.9660 O   0  0  0  0  0  0  0  0  0  0  0  0
   53.0819   24.0258   45.8331 H   0  0  0  0  0  0  0  0  0  0  0  0
   54.4493   24.2398   44.6881 H   0  0  0  0  0  0  0  0  0  0  0  0
   53.5090   22.7093   44.6881 H   0  0  0  0  0  0  0  0  0  0  0  0
   54.3100   22.2508   47.0142 H   0  0  0  0  0  0  0  0  0  0  0  0
   55.6620   22.3807   45.8243 H   0  0  0  0  0  0  0  0  0  0  0  0
   58.1719   23.6484   47.2519 H   0  0  0  0  0  0  0  0  0  0  0  0
   60.4051   27.3116   45.8608 H   0  0  0  0  0  0  0  0  0  0  0  0
   59.5495   27.4762   44.2547 H   0  0  0  0  0  0  0  0  0  0  0  0
   57.6231   28.9407   47.0687 H   0  0  0  0  0  0  0  0  0  0  0  0
   59.2665   28.6363   47.7131 H   0  0  0  0  0  0  0  0  0  0  0  0
   58.1375   30.9817   48.1451 H   0  0  0  0  0  0  0  0  0  0  0  0
   59.8655   30.9210   47.6236 H   0  0  0  0  0  0  0  0  0  0  0  0
   58.4060   33.1922   44.0090 H   0  0  0  0  0  0  0  0  0  0  0  0
   59.1121   35.5827   43.9413 H   0  0  0  0  0  0  0  0  0  0  0  0
   60.0159   36.6803   45.9924 H   0  0  0  0  0  0  0  0  0  0  0  0
   60.2044   35.3885   48.1202 H   0  0  0  0  0  0  0  0  0  0  0  0
   59.5073   32.9950   48.1969 H   0  0  0  0  0  0  0  0  0  0  0  0
   56.6800   30.7940   45.4282 H   0  0  0  0  0  0  0  0  0  0  0  0
   57.7023   31.6616   44.2165 H   0  0  0  0  0  0  0  0  0  0  0  0
   57.4823   28.9304   44.3668 H   0  0  0  0  0  0  0  0  0  0  0  0
   58.9283   29.8240   43.7174 H   0  0  0  0  0  0  0  0  0  0  0  0
   56.7390   27.9110   45.1798 H   0  0  0  0  0  0  0  0  0  0  0  0
  1  2  1  0
  2  3  1  0
  3  4  1  0
  4  5  2  0
  5  6  1  0
  6  7  1  0
  7  8  1  0
  8  9  1  0
  9 10  1  0
 10 11  1  0
 11 12  1  0
 12 13  1  0
 13 14  2  0
 14 15  1  0
 15 16  2  0
 16 17  1  0
 17 18  2  0
 12 19  1  0
 19 20  1  0
  7 21  2  0
 21 22  1  0
 22 23  2  0
 22  4  1  0
 20  9  1  0
 18 13  1  0
  1 24  1  0
  1 25  1  0
  1 26  1  0
  2 27  1  0
  2 28  1  0
  5 29  1  0
  8 30  1  0
  8 31  1  0
 10 32  1  0
 10 33  1  0
 11 34  1  0
 11 35  1  0
 14 36  1  0
 15 37  1  0
 16 38  1  0
 17 39  1  0
 18 40  1  0
 19 41  1  0
 19 42  1  0
 20 43  1  0
 20 44  1  0
 21 45  1  0
M  END
>  <UniqueID>  (6) 
6

>  <SMILES>  (6) 
CCOc1coc(CN2CCN(c3ccccc3)CC2)cc1=O

>  <Energy>  (6) 
57.69280240999732

>  <Genealogy>  (6) 
CCOc1coc(CN2CCN(c3ccccc3)CC2)cc1=O (3D coordinates assigned)
CCOc1coc(CN2CCN(c3ccccc3)CC2)cc1=O (nonaromatic ring conformer: 57.69280240999732 kcal/mol)

>  <smiles>  (6) 
CCOc1coc(CN2CCN(c3ccccc3)CC2)cc1=O

>  <score_type>  (6) 
oracle

>  <origin>  (6) 
adg

>  <m_score__min__energy>  (6) 
-7.2300000000000004

>  <m_primary>  (6) 
energy

$$$$
6:0
     RDKit          3D

 58 60  0  0  0  0  0  0  0  0999 V2000
   60.0260   28.0900   48.6450 C   0  0  0  0  0  0  0  0  0  0  0  0
   60.0140   29.5750   48.8560 C   0  0  0  0  0  0  0  0  0  0  0  0
   60.9840   30.3800   48.2400 C   0  0  0  0  0  0  0  0  0  0  0  0
   60.9960   31.7600   48.4560 C   0  0  0  0  0  0  0  0  0  0  0  0
   60.0490   32.3500   49.3040 C   0  0  0  0  0  0  0  0  0  0  0  0
   60.0640   34.0920   49.5510 S   0  0  0  0  0  0  0  0  0  0  0  0
   59.3090   34.4080   50.8110 O   0  0  0  0  0  0  0  0  0  0  0  0
   61.4710   34.5990   49.6890 O   0  0  0  0  0  0  0  0  0  0  0  0
   59.2980   34.8910   48.2110 N   0  0  0  0  0  0  0  0  0  0  0  0
   58.9070   34.2230   46.9980 C   0  0  0  0  0  0  0  0  0  0  0  0
   59.2690   34.7910   45.7480 C   0  0  0  0  0  0  0  0  0  0  0  0
   58.9200   34.1630   44.5380 C   0  0  0  0  0  0  0  0  0  0  0  0
   58.2050   32.9660   44.6100 C   0  0  0  0  0  0  0  0  0  0  0  0
   57.8590   32.4120   45.8050 C   0  0  0  0  0  0  0  0  0  0  0  0
   58.1840   33.0060   47.0210 C   0  0  0  0  0  0  0  0  0  0  0  0
   57.1990   31.2590   45.6190 N   0  0  0  0  0  0  0  0  0  0  0  0
   57.1470   31.1410   44.2660 C   0  0  0  0  0  0  0  0  0  0  0  0
   56.4830   29.9690   43.5860 C   0  0  0  0  0  0  0  0  0  0  0  0
   56.9720   28.6390   44.1690 C   0  0  0  0  0  0  0  0  0  0  0  0
   56.0720   28.2060   45.2320 N   0  0  0  0  0  0  0  0  0  0  0  0
   56.2620   27.0120   45.9900 C   0  0  0  0  0  0  0  0  0  0  0  0
   57.3620   26.7970   46.5720 O   0  0  0  0  0  0  0  0  0  0  0  0
   55.2280   26.0690   46.0210 O   0  0  0  0  0  0  0  0  0  0  0  0
   55.3520   24.6630   45.7540 C   0  0  0  0  0  0  0  0  0  0  0  0
   55.8870   23.9170   46.9920 C   0  0  0  0  0  0  0  0  0  0  0  0
   56.3680   24.5030   44.6130 C   0  0  0  0  0  0  0  0  0  0  0  0
   53.9980   24.0800   45.3140 C   0  0  0  0  0  0  0  0  0  0  0  0
   57.7620   32.1680   43.6190 N   0  0  0  0  0  0  0  0  0  0  0  0
   57.9160   32.3420   42.1740 C   0  0  0  0  0  0  0  0  0  0  0  0
   59.0930   31.5460   49.9380 C   0  0  0  0  0  0  0  0  0  0  0  0
   59.0790   30.1650   49.7220 C   0  0  0  0  0  0  0  0  0  0  0  0
   60.0301   27.5811   49.6202 H   0  0  0  0  0  0  0  0  0  0  0  0
   59.1302   27.7927   48.0800 H   0  0  0  0  0  0  0  0  0  0  0  0
   60.9265   27.8072   48.0800 H   0  0  0  0  0  0  0  0  0  0  0  0
   61.7388   29.9222   47.5837 H   0  0  0  0  0  0  0  0  0  0  0  0
   61.7515   32.3859   47.9587 H   0  0  0  0  0  0  0  0  0  0  0  0
   59.0730   35.9040   48.3280 H   0  0  0  0  0  0  0  0  0  0  0  0
   59.8309   35.7364   45.7251 H   0  0  0  0  0  0  0  0  0  0  0  0
   59.2009   34.6003   43.5685 H   0  0  0  0  0  0  0  0  0  0  0  0
   57.8873   32.5427   47.9735 H   0  0  0  0  0  0  0  0  0  0  0  0
   55.3944   30.0431   43.7255 H   0  0  0  0  0  0  0  0  0  0  0  0
   56.7402   29.9957   42.5168 H   0  0  0  0  0  0  0  0  0  0  0  0
   56.9928   27.8778   43.3752 H   0  0  0  0  0  0  0  0  0  0  0  0
   57.9833   28.7723   44.5806 H   0  0  0  0  0  0  0  0  0  0  0  0
   55.5288   24.4165   47.9043 H   0  0  0  0  0  0  0  0  0  0  0  0
   55.5272   22.8776   46.9777 H   0  0  0  0  0  0  0  0  0  0  0  0
   56.9869   23.9245   46.9777 H   0  0  0  0  0  0  0  0  0  0  0  0
   57.3715   24.3450   45.0350 H   0  0  0  0  0  0  0  0  0  0  0  0
   56.0903   23.6375   43.9935 H   0  0  0  0  0  0  0  0  0  0  0  0
   56.3698   25.4119   43.9935 H   0  0  0  0  0  0  0  0  0  0  0  0
   53.4029   23.8237   46.2029 H   0  0  0  0  0  0  0  0  0  0  0  0
   53.4563   24.8246   44.7122 H   0  0  0  0  0  0  0  0  0  0  0  0
   54.1667   23.1748   44.7122 H   0  0  0  0  0  0  0  0  0  0  0  0
   58.6332   33.1523   41.9766 H   0  0  0  0  0  0  0  0  0  0  0  0
   58.2878   31.4070   41.7297 H   0  0  0  0  0  0  0  0  0  0  0  0
   56.9427   32.5975   41.7297 H   0  0  0  0  0  0  0  0  0  0  0  0
   58.3504   32.0032   50.6085 H   0  0  0  0  0  0  0  0  0  0  0  0
   58.3329   29.5381   50.2322 H   0  0  0  0  0  0  0  0  0  0  0  0
  1  2  1  0
  2  3  2  0
  3  4  1  0
  4  5  2  0
  5  6  1  0
  6  7  2  0
  6  8  2  0
  6  9  1  0
  9 10  1  0
 10 11  2  0
 11 12  1  0
 12 13  2  0
 13 14  1  0
 14 15  2  0
 14 16  1  0
 16 17  2  0
 17 18  1  0
 18 19  1  0
 19 20  1  0
 20 21  1  0
 21 22  2  0
 21 23  1  0
 23 24  1  0
 24 25  1  0
 24 26  1  0
 24 27  1  0
 17 28  1  0
 28 29  1  0
  5 30  1  0
 30 31  2  0
 31  2  1  0
 15 10  1  0
 28 13  1  0
  1 32  1  0
  1 33  1  0
  1 34  1  0
  3 35  1  0
  4 36  1  0
  9 37  1  0
 11 38  1  0
 12 39  1  0
 15 40  1  0
 18 41  1  0
 18 42  1  0
 19 43  1  0
 19 44  1  0
 25 45  1  0
 25 46  1  0
 25 47  1  0
 26 48  1  0
 26 49  1  0
 26 50  1  0
 27 51  1  0
 27 52  1  0
 27 53  1  0
 29 54  1  0
 29 55  1  0
 29 56  1  0
 30 57  1  0
 31 58  1  0
M  CHG  1  20  -1
M  END
>  <UniqueID>  (7) 
7

>  <SMILES>  (7) 
Cc1ccc(S(=O)(=O)Nc2ccc3c(c2)nc(CC[N-]C(=O)OC(C)(C)C)n3C)cc1

>  <Energy>  (7) 
88.35096581202251

>  <Genealogy>  (7) 
Cc1ccc(S(=O)(=O)Nc2ccc3c(c2)nc(CC[N-]C(=O)OC(C)(C)C)n3C)cc1 (protonated)
Cc1ccc(S(=O)(=O)Nc2ccc3c(c2)nc(CC[N-]C(=O)OC(C)(C)C)n3C)cc1 (3D coordinates assigned)
Cc1ccc(S(=O)(=O)Nc2ccc3c(c2)nc(CC[N-]C(=O)OC(C)(C)C)n3C)cc1 (optimized conformer: 88.35096581202251 kcal/mol)

>  <smiles>  (7) 
Cc1ccc(S(=O)(=O)Nc2ccc3c(c2)nc(CCNC(=O)OC(C)(C)C)n3C)cc1

>  <score_type>  (7) 
oracle

>  <origin>  (7) 
adg

>  <m_score__min__energy>  (7) 
-11.76

>  <m_primary>  (7) 
energy

$$$$
7:0
     RDKit          3D

 48 49  0  0  0  0  0  0  0  0999 V2000
   54.9000   25.0830   45.6220 C   0  0  0  0  0  0  0  0  0  0  0  0
   55.1830   26.4430   45.9340 O   0  0  0  0  0  0  0  0  0  0  0  0
   56.4700   27.0010   45.9620 C   0  0  0  0  0  0  0  0  0  0  0  0
   57.5760   26.3020   46.4830 C   0  0  0  0  0  0  0  0  0  0  0  0
   58.8430   26.8880   46.4940 C   0  0  0  0  0  0  0  0  0  0  0  0
   59.0240   28.1870   46.0010 C   0  0  0  0  0  0  0  0  0  0  0  0
   60.3940   28.8110   45.9730 C   0  0  0  0  0  0  0  0  0  0  0  0
   60.3040   30.3060   46.3370 C   0  0  0  0  0  0  0  0  0  0  0  0
   60.2660   30.5840   47.7950 N   0  0  0  0  0  0  0  0  0  0  0  0
   60.6320   29.4040   48.5920 C   0  0  0  0  0  0  0  0  0  0  0  0
   59.0000   31.1740   48.2820 C   0  0  0  0  0  0  0  0  0  0  0  0
   58.6530   32.4440   47.5520 C   0  0  0  0  0  0  0  0  0  0  0  0
   57.9110   32.5230   46.3860 C   0  0  0  0  0  0  0  0  0  0  0  0
   57.9650   33.8590   46.0360 C   0  0  0  0  0  0  0  0  0  0  0  0
   57.3080   34.4860   44.8510 C   0  0  0  0  0  0  0  0  0  0  0  0
   58.6860   34.5340   46.9510 N   0  0  0  0  0  0  0  0  0  0  0  0
   59.1010   33.6780   47.8710 N   0  0  0  0  0  0  0  0  0  0  0  0
   59.9950   34.0300   48.9710 C   0  0  0  0  0  0  0  0  0  0  0  0
   57.9270   28.8820   45.4710 C   0  0  0  0  0  0  0  0  0  0  0  0
   56.6470   28.2950   45.4490 C   0  0  0  0  0  0  0  0  0  0  0  0
   55.5320   28.9640   44.9230 O   0  0  0  0  0  0  0  0  0  0  0  0
   55.5490   29.7500   43.7350 C   0  0  0  0  0  0  0  0  0  0  0  0
   54.7808   24.5103   46.5535 H   0  0  0  0  0  0  0  0  0  0  0  0
   53.9710   25.0270   45.0357 H   0  0  0  0  0  0  0  0  0  0  0  0
   55.7296   24.6610   45.0357 H   0  0  0  0  0  0  0  0  0  0  0  0
   57.4405   25.2868   46.8842 H   0  0  0  0  0  0  0  0  0  0  0  0
   59.7024   26.3279   46.8912 H   0  0  0  0  0  0  0  0  0  0  0  0
   61.0419   28.2983   46.6992 H   0  0  0  0  0  0  0  0  0  0  0  0
   60.8135   28.7120   44.9610 H   0  0  0  0  0  0  0  0  0  0  0  0
   61.1814   30.8162   45.9128 H   0  0  0  0  0  0  0  0  0  0  0  0
   59.3522   30.6715   45.9241 H   0  0  0  0  0  0  0  0  0  0  0  0
   60.5567   29.6467   49.6623 H   0  0  0  0  0  0  0  0  0  0  0  0
   59.9487   28.5752   48.3550 H   0  0  0  0  0  0  0  0  0  0  0  0
   61.6644   29.1073   48.3550 H   0  0  0  0  0  0  0  0  0  0  0  0
   58.1887   30.4461   48.1339 H   0  0  0  0  0  0  0  0  0  0  0  0
   59.1260   31.4176   49.3473 H   0  0  0  0  0  0  0  0  0  0  0  0
   57.3954   31.7074   45.8578 H   0  0  0  0  0  0  0  0  0  0  0  0
   56.5512   35.2083   45.1908 H   0  0  0  0  0  0  0  0  0  0  0  0
   58.0645   35.0056   44.2445 H   0  0  0  0  0  0  0  0  0  0  0  0
   56.8243   33.7061   44.2445 H   0  0  0  0  0  0  0  0  0  0  0  0
   58.9040   35.5560   46.9400 H   0  0  0  0  0  0  0  0  0  0  0  0
   59.4927   33.8322   49.9294 H   0  0  0  0  0  0  0  0  0  0  0  0
   60.9119   33.4257   48.9060 H   0  0  0  0  0  0  0  0  0  0  0  0
   60.2538   35.0971   48.9060 H   0  0  0  0  0  0  0  0  0  0  0  0
   58.0679   29.8959   45.0684 H   0  0  0  0  0  0  0  0  0  0  0  0
   55.5721   30.8170   44.0016 H   0  0  0  0  0  0  0  0  0  0  0  0
   56.4420   29.5006   43.1431 H   0  0  0  0  0  0  0  0  0  0  0  0
   54.6461   29.5394   43.1431 H   0  0  0  0  0  0  0  0  0  0  0  0
  1  2  1  0
  2  3  1  0
  3  4  2  0
  4  5  1  0
  5  6  2  0
  6  7  1  0
  7  8  1  0
  8  9  1  0
  9 10  1  0
  9 11  1  0
 11 12  1  0
 12 13  2  0
 13 14  1  0
 14 15  1  0
 14 16  2  0
 16 17  1  0
 17 18  1  0
  6 19  1  0
 19 20  2  0
 20 21  1  0
 21 22  1  0
 20  3  1  0
 17 12  1  0
  1 23  1  0
  1 24  1  0
  1 25  1  0
  4 26  1  0
  5 27  1  0
  7 28  1  0
  7 29  1  0
  8 30  1  0
  8 31  1  0
 10 32  1  0
 10 33  1  0
 10 34  1  0
 11 35  1  0
 11 36  1  0
 13 37  1  0
 15 38  1  0
 15 39  1  0
 15 40  1  0
 16 41  1  0
 18 42  1  0
 18 43  1  0
 18 44  1  0
 19 45  1  0
 22 46  1  0
 22 47  1  0
 22 48  1  0
M  CHG  1  16   1
M  END
>  <UniqueID>  (8) 
8

>  <SMILES>  (8) 
COc1ccc(CCN(C)Cc2cc(C)[nH+]n2C)cc1OC

>  <Energy>  (8) 
73.96905766989117

>  <Genealogy>  (8) 
COc1ccc(CCN(C)Cc2cc(C)[nH+]n2C)cc1OC (protonated)
COc1ccc(CCN(C)Cc2cc(C)[nH+]n2C)cc1OC (3D coordinates assigned)
COc1ccc(CCN(C)Cc2cc(C)[nH+]n2C)cc1OC (optimized conformer: 73.96905766989117 kcal/mol)

>  <smiles>  (8) 
COc1ccc(CCN(C)Cc2cc(C)nn2C)cc1OC

>  <score_type>  (8) 
oracle

>  <origin>  (8) 
adg

>  <m_score__min__energy>  (8) 
-6.0300000000000002

>  <m_primary>  (8) 
energy

$$$$
8:0
     RDKit          3D

 44 47  0  0  0  0  0  0  0  0999 V2000
   58.3920   33.4670   44.3030 C   0  0  0  0  0  0  0  0  0  0  0  0
   57.0240   33.7030   44.9480 C   0  0  0  0  0  0  0  0  0  0  0  0
   57.0410   33.4720   46.4030 N   0  0  0  0  0  0  0  0  0  0  0  0
   58.2870   33.9210   47.0430 C   0  0  0  0  0  0  0  0  0  0  0  0
   58.7400   32.9110   48.1060 C   0  0  0  0  0  0  0  0  0  0  0  0
   60.0280   32.2950   47.7320 N   0  0  0  0  0  0  0  0  0  0  0  0
   60.0790   31.1720   46.9460 C   0  0  0  0  0  0  0  0  0  0  0  0
   59.1410   30.4310   46.2330 C   0  0  0  0  0  0  0  0  0  0  0  0
   57.7810   30.6150   45.9460 C   0  0  0  0  0  0  0  0  0  0  0  0
   57.1170   29.6490   45.1520 C   0  0  0  0  0  0  0  0  0  0  0  0
   55.7550   29.7510   44.8310 O   0  0  0  0  0  0  0  0  0  0  0  0
   55.2350   29.7160   43.5060 C   0  0  0  0  0  0  0  0  0  0  0  0
   57.8320   28.5410   44.6540 C   0  0  0  0  0  0  0  0  0  0  0  0
   59.2000   28.3900   44.9160 C   0  0  0  0  0  0  0  0  0  0  0  0
   59.8370   29.3480   45.7010 C   0  0  0  0  0  0  0  0  0  0  0  0
   61.1580   29.3500   45.9970 N   0  0  0  0  0  0  0  0  0  0  0  0
   61.3080   30.4580   46.7450 C   0  0  0  0  0  0  0  0  0  0  0  0
   62.4690   30.9080   47.2530 N   0  0  0  0  0  0  0  0  0  0  0  0
   62.4650   32.0650   47.9700 C   0  0  0  0  0  0  0  0  0  0  0  0
   63.6800   32.5450   48.4720 C   0  0  0  0  0  0  0  0  0  0  0  0
   63.7250   33.7380   49.1900 C   0  0  0  0  0  0  0  0  0  0  0  0
   62.5590   34.4670   49.4090 C   0  0  0  0  0  0  0  0  0  0  0  0
   61.3320   34.0080   48.9240 C   0  0  0  0  0  0  0  0  0  0  0  0
   61.2410   32.7880   48.2070 C   0  0  0  0  0  0  0  0  0  0  0  0
   59.1503   33.3362   45.0890 H   0  0  0  0  0  0  0  0  0  0  0  0
   58.3517   32.5625   43.6782 H   0  0  0  0  0  0  0  0  0  0  0  0
   58.6571   34.3327   43.6782 H   0  0  0  0  0  0  0  0  0  0  0  0
   56.7192   34.7429   44.7591 H   0  0  0  0  0  0  0  0  0  0  0  0
   56.3161   32.9880   44.5034 H   0  0  0  0  0  0  0  0  0  0  0  0
   56.2300   33.9660   46.8450 H   0  0  0  0  0  0  0  0  0  0  0  0
   59.0719   34.0183   46.2785 H   0  0  0  0  0  0  0  0  0  0  0  0
   58.1077   34.8917   47.5284 H   0  0  0  0  0  0  0  0  0  0  0  0
   58.8549   33.4293   49.0694 H   0  0  0  0  0  0  0  0  0  0  0  0
   57.9810   32.1187   48.1841 H   0  0  0  0  0  0  0  0  0  0  0  0
   57.2405   31.4927   46.3302 H   0  0  0  0  0  0  0  0  0  0  0  0
   54.1382   29.6422   43.5444 H   0  0  0  0  0  0  0  0  0  0  0  0
   55.5222   30.6355   42.9750 H   0  0  0  0  0  0  0  0  0  0  0  0
   55.6429   28.8433   42.9750 H   0  0  0  0  0  0  0  0  0  0  0  0
   57.3086   27.7843   44.0512 H   0  0  0  0  0  0  0  0  0  0  0  0
   59.7587   27.5336   44.5106 H   0  0  0  0  0  0  0  0  0  0  0  0
   64.6056   31.9765   48.2985 H   0  0  0  0  0  0  0  0  0  0  0  0
   64.6839   34.1050   49.5848 H   0  0  0  0  0  0  0  0  0  0  0  0
   62.6045   35.4127   49.9689 H   0  0  0  0  0  0  0  0  0  0  0  0
   60.4230   34.6017   49.1009 H   0  0  0  0  0  0  0  0  0  0  0  0
  1  2  1  0
  2  3  1  0
  3  4  1  0
  4  5  1  0
  5  6  1  0
  6  7  1  0
  7  8  2  0
  8  9  1  0
  9 10  2  0
 10 11  1  0
 11 12  1  0
 10 13  1  0
 13 14  2  0
 14 15  1  0
 15 16  2  0
 16 17  1  0
 17 18  2  0
 18 19  1  0
 19 20  2  0
 20 21  1  0
 21 22  2  0
 22 23  1  0
 23 24  2  0
 24  6  1  0
 17  7  1  0
 24 19  1  0
 15  8  1  0
  1 25  1  0
  1 26  1  0
  1 27  1  0
  2 28  1  0
  2 29  1  0
  3 30  1  0
  4 31  1  0
  4 32  1  0
  5 33  1  0
  5 34  1  0
  9 35  1  0
 12 36  1  0
 12 37  1  0
 12 38  1  0
 13 39  1  0
 14 40  1  0
 20 41  1  0
 21 42  1  0
 22 43  1  0
 23 44  1  0
M  END
>  <UniqueID>  (9) 
9

>  <SMILES>  (9) 
CCNCCn1c2c3cc(OC)ccc3nc-2nc2ccccc21

>  <Energy>  (9) 
98.11283464900313

>  <Genealogy>  (9) 
CCNCCn1c2c3cc(OC)ccc3nc-2nc2ccccc21 (3D coordinates assigned)
CCNCCn1c2c3cc(OC)ccc3nc-2nc2ccccc21 (optimized conformer: 98.11283464900313 kcal/mol)

>  <smiles>  (9) 
CCNCCn1c2c3cc(OC)ccc3nc-2nc2ccccc21

>  <score_type>  (9) 
oracle

>  <origin>  (9) 
adg

>  <m_score__min__energy>  (9) 
-7.2199999999999998

>  <m_primary>  (9) 
energy

$$$$
9:0
     RDKit          3D

 42 45  0  0  0  0  0  0  0  0999 V2000
   59.6480   26.2000   46.0210 C   0  0  0  0  0  0  0  0  0  0  0  0
   60.3900   27.5310   46.0080 C   0  0  0  0  0  0  0  0  0  0  0  0
   59.6850   28.5150   46.8340 N   0  0  0  0  0  0  0  0  0  0  0  0
   59.4760   28.2450   48.2560 C   0  0  0  0  0  0  0  0  0  0  0  0
   59.4690   29.8410   46.3240 C   0  0  0  0  0  0  0  0  0  0  0  0
   60.2060   30.8690   46.8340 N   0  0  0  0  0  0  0  0  0  0  0  0
   60.0150   32.1260   46.3710 C   0  0  0  0  0  0  0  0  0  0  0  0
   60.6390   33.2930   46.7760 C   0  0  0  0  0  0  0  0  0  0  0  0
   61.7030   33.4800   47.7920 C   0  0  0  0  0  0  0  0  0  0  0  0
   61.4270   34.0900   49.0300 C   0  0  0  0  0  0  0  0  0  0  0  0
   62.4390   34.2580   49.9790 C   0  0  0  0  0  0  0  0  0  0  0  0
   63.7350   33.8160   49.7080 C   0  0  0  0  0  0  0  0  0  0  0  0
   64.0210   33.2010   48.4880 C   0  0  0  0  0  0  0  0  0  0  0  0
   63.0130   33.0300   47.5350 C   0  0  0  0  0  0  0  0  0  0  0  0
   60.0180   34.2780   46.0080 C   0  0  0  0  0  0  0  0  0  0  0  0
   59.0950   33.7050   45.2030 N   0  0  0  0  0  0  0  0  0  0  0  0
   59.1000   32.3990   45.4320 N   0  0  0  0  0  0  0  0  0  0  0  0
   58.3310   31.4300   44.8600 C   0  0  0  0  0  0  0  0  0  0  0  0
   57.3870   31.7100   43.8550 C   0  0  0  0  0  0  0  0  0  0  0  0
   56.6440   30.6720   43.2850 C   0  0  0  0  0  0  0  0  0  0  0  0
   56.8370   29.3550   43.7020 C   0  0  0  0  0  0  0  0  0  0  0  0
   57.7690   29.0600   44.7020 C   0  0  0  0  0  0  0  0  0  0  0  0
   58.5150   30.0920   45.3010 C   0  0  0  0  0  0  0  0  0  0  0  0
   59.4738   25.8875   47.0612 H   0  0  0  0  0  0  0  0  0  0  0  0
   58.6828   26.3132   45.5056 H   0  0  0  0  0  0  0  0  0  0  0  0
   60.2518   25.4386   45.5056 H   0  0  0  0  0  0  0  0  0  0  0  0
   61.4051   27.3843   46.4055 H   0  0  0  0  0  0  0  0  0  0  0  0
   60.4400   27.9024   44.9738 H   0  0  0  0  0  0  0  0  0  0  0  0
   60.0409   28.9747   48.8547 H   0  0  0  0  0  0  0  0  0  0  0  0
   58.4047   28.3284   48.4915 H   0  0  0  0  0  0  0  0  0  0  0  0
   59.8252   27.2288   48.4915 H   0  0  0  0  0  0  0  0  0  0  0  0
   60.4071   34.4371   49.2522 H   0  0  0  0  0  0  0  0  0  0  0  0
   62.2137   34.7397   50.9419 H   0  0  0  0  0  0  0  0  0  0  0  0
   64.5305   33.9523   50.4554 H   0  0  0  0  0  0  0  0  0  0  0  0
   65.0418   32.8502   48.2762 H   0  0  0  0  0  0  0  0  0  0  0  0
   63.2442   32.5405   46.5774 H   0  0  0  0  0  0  0  0  0  0  0  0
   60.2440   35.3537   46.0506 H   0  0  0  0  0  0  0  0  0  0  0  0
   58.4870   34.2110   44.5240 H   0  0  0  0  0  0  0  0  0  0  0  0
   57.2336   32.7457   43.5177 H   0  0  0  0  0  0  0  0  0  0  0  0
   55.9030   30.8951   42.5032 H   0  0  0  0  0  0  0  0  0  0  0  0
   56.2531   28.5442   43.2419 H   0  0  0  0  0  0  0  0  0  0  0  0
   57.9194   28.0182   45.0213 H   0  0  0  0  0  0  0  0  0  0  0  0
  1  2  1  0
  2  3  1  0
  3  4  1  0
  3  5  1  0
  5  6  2  0
  6  7  1  0
  7  8  2  0
  8  9  1  0
  9 10  2  0
 10 11  1  0
 11 12  2  0
 12 13  1  0
 13 14  2  0
  8 15  1  0
 15 16  2  0
 16 17  1  0
 17 18  1  0
 18 19  2  0
 19 20  1  0
 20 21  2  0
 21 22  1  0
 22 23  2  0
 23  5  1  0
 17  7  1  0
 23 18  1  0
 14  9  1  0
  1 24  1  0
  1 25  1  0
  1 26  1  0
  2 27  1  0
  2 28  1  0
  4 29  1  0
  4 30  1  0
  4 31  1  0
 10 32  1  0
 11 33  1  0
 12 34  1  0
 13 35  1  0
 14 36  1  0
 15 37  1  0
 16 38  1  0
 19 39  1  0
 20 40  1  0
 21 41  1  0
 22 42  1  0
M  CHG  1  16   1
M  END
>  <UniqueID>  (10) 
10

>  <SMILES>  (10) 
CCN(C)c1nc2c(-c3ccccc3)c[nH+]n2c2ccccc12

>  <Energy>  (10) 
92.74217723265241

>  <Genealogy>  (10) 
CCN(C)c1nc2c(-c3ccccc3)c[nH+]n2c2ccccc12 (protonated)
CCN(C)c1nc2c(-c3ccccc3)c[nH+]n2c2ccccc12 (3D coordinates assigned)
CCN(C)c1nc2c(-c3ccccc3)c[nH+]n2c2ccccc12 (optimized conformer: 92.74217723265241 kcal/mol)

>  <smiles>  (10) 
CCN(C)c1nc2c(-c3ccccc3)cnn2c2ccccc12

>  <score_type>  (10) 
oracle

>  <origin>  (10) 
adg

>  <m_score__min__energy>  (10) 
-5.8700000000000001

>  <m_primary>  (10) 
energy

$$$$
10:0
     RDKit          3D

 42 43  0  0  0  0  0  0  0  0999 V2000
   57.0240   34.5970   44.8700 C   0  0  0  0  0  0  0  0  0  0  0  0
   57.7800   33.3630   44.3850 C   0  0  0  0  0  0  0  0  0  0  0  0
   58.0180   32.4140   45.4830 N   0  0  0  0  0  0  0  0  0  0  0  0
   57.4960   31.0400   45.3690 C   0  0  0  0  0  0  0  0  0  0  0  0
   56.7450   30.8110   44.0470 C   0  0  0  0  0  0  0  0  0  0  0  0
   56.2860   29.3590   43.8810 C   0  0  0  0  0  0  0  0  0  0  0  0
   55.9600   28.7730   45.1770 N   0  0  0  0  0  0  0  0  0  0  0  0
   56.2810   27.4460   45.6210 C   0  0  0  0  0  0  0  0  0  0  0  0
   55.3480   26.7180   46.0520 O   0  0  0  0  0  0  0  0  0  0  0  0
   57.6710   26.8710   45.5390 C   0  0  0  0  0  0  0  0  0  0  0  0
   58.6920   27.9160   45.8650 C   0  0  0  0  0  0  0  0  0  0  0  0
   59.6470   28.4230   44.9920 C   0  0  0  0  0  0  0  0  0  0  0  0
   60.5090   29.3460   45.5950 C   0  0  0  0  0  0  0  0  0  0  0  0
   60.2450   29.5600   46.9420 C   0  0  0  0  0  0  0  0  0  0  0  0
   58.9380   28.5970   47.3830 S   0  0  0  0  0  0  0  0  0  0  0  0
   58.8590   32.8000   46.5950 C   0  0  0  0  0  0  0  0  0  0  0  0
   60.0750   33.4690   46.3670 C   0  0  0  0  0  0  0  0  0  0  0  0
   60.8850   33.8520   47.4400 C   0  0  0  0  0  0  0  0  0  0  0  0
   60.4930   33.5700   48.7510 C   0  0  0  0  0  0  0  0  0  0  0  0
   59.2900   32.9020   48.9900 C   0  0  0  0  0  0  0  0  0  0  0  0
   58.4760   32.5180   47.9200 C   0  0  0  0  0  0  0  0  0  0  0  0
   57.0145   34.6124   45.9698 H   0  0  0  0  0  0  0  0  0  0  0  0
   57.5221   35.5031   44.4948 H   0  0  0  0  0  0  0  0  0  0  0  0
   55.9905   34.5648   44.4948 H   0  0  0  0  0  0  0  0  0  0  0  0
   57.1879   32.8647   43.6033 H   0  0  0  0  0  0  0  0  0  0  0  0
   58.7542   33.6868   43.9898 H   0  0  0  0  0  0  0  0  0  0  0  0
   58.3388   30.3353   45.4241 H   0  0  0  0  0  0  0  0  0  0  0  0
   56.7851   30.8798   46.1930 H   0  0  0  0  0  0  0  0  0  0  0  0
   55.8614   31.4657   44.0245 H   0  0  0  0  0  0  0  0  0  0  0  0
   57.4372   31.0405   43.2235 H   0  0  0  0  0  0  0  0  0  0  0  0
   55.3941   29.3329   43.2376 H   0  0  0  0  0  0  0  0  0  0  0  0
   57.1013   28.7789   43.4241 H   0  0  0  0  0  0  0  0  0  0  0  0
   57.7618   26.0407   46.2548 H   0  0  0  0  0  0  0  0  0  0  0  0
   57.8464   26.5103   44.5147 H   0  0  0  0  0  0  0  0  0  0  0  0
   59.7182   28.1287   43.9345 H   0  0  0  0  0  0  0  0  0  0  0  0
   61.3199   29.8546   45.0530 H   0  0  0  0  0  0  0  0  0  0  0  0
   60.7960   30.2421   47.6062 H   0  0  0  0  0  0  0  0  0  0  0  0
   60.3908   33.6924   45.3373 H   0  0  0  0  0  0  0  0  0  0  0  0
   61.8333   34.3767   47.2517 H   0  0  0  0  0  0  0  0  0  0  0  0
   61.1311   33.8737   49.5940 H   0  0  0  0  0  0  0  0  0  0  0  0
   58.9823   32.6776   50.0220 H   0  0  0  0  0  0  0  0  0  0  0  0
   57.5298   31.9919   48.1149 H   0  0  0  0  0  0  0  0  0  0  0  0
  1  2  1  0
  2  3  1  0
  3  4  1  0
  4  5  1  0
  5  6  1  0
  6  7  1  0
  7  8  1  0
  8  9  2  0
  8 10  1  0
 10 11  1  0
 11 12  2  0
 12 13  1  0
 13 14  2  0
 14 15  1  0
  3 16  1  0
 16 17  2  0
 17 18  1  0
 18 19  2  0
 19 20  1  0
 20 21  2  0
 15 11  1  0
 21 16  1  0
  1 22  1  0
  1 23  1  0
  1 24  1  0
  2 25  1  0
  2 26  1  0
  4 27  1  0
  4 28  1  0
  5 29  1  0
  5 30  1  0
  6 31  1  0
  6 32  1  0
 10 33  1  0
 10 34  1  0
 12 35  1  0
 13 36  1  0
 14 37  1  0
 17 38  1  0
 18 39  1  0
 19 40  1  0
 20 41  1  0
 21 42  1  0
M  CHG  1   7  -1
M  END
>  <UniqueID>  (11) 
11

>  <SMILES>  (11) 
CCN(CCC[N-]C(=O)Cc1cccs1)c1ccccc1

>  <Energy>  (11) 
61.15793638848796

>  <Genealogy>  (11) 
CCN(CCC[N-]C(=O)Cc1cccs1)c1ccccc1 (protonated)
CCN(CCC[N-]C(=O)Cc1cccs1)c1ccccc1 (3D coordinates assigned)
CCN(CCC[N-]C(=O)Cc1cccs1)c1ccccc1 (optimized conformer: 61.15793638848796 kcal/mol)

>  <smiles>  (11) 
CCN(CCCNC(=O)Cc1cccs1)c1ccccc1

>  <score_type>  (11) 
oracle

>  <origin>  (11) 
adg

>  <m_score__min__energy>  (11) 
-9.3200000000000003

>  <m_primary>  (11) 
energy

$$$$
11:0
     RDKit          3D

 45 47  0  0  0  0  0  0  0  0999 V2000
   67.1590   30.1130   51.2860 C   0  0  0  0  0  0  0  0  0  0  0  0
   65.8280   30.8330   51.0160 C   0  0  0  0  0  0  0  0  0  0  0  0
   65.9720   32.1880   50.4340 N   0  0  0  0  0  0  0  0  0  0  0  0
   67.3420   32.7170   50.5400 C   0  0  0  0  0  0  0  0  0  0  0  0
   64.9600   33.1490   50.9260 C   0  0  0  0  0  0  0  0  0  0  0  0
   64.0390   33.5680   49.7680 C   0  0  0  0  0  0  0  0  0  0  0  0
   64.1980   32.7030   48.5850 N   0  0  0  0  0  0  0  0  0  0  0  0
   62.9590   32.5600   47.8590 C   0  0  0  0  0  0  0  0  0  0  0  0
   62.2880   33.7040   47.3620 C   0  0  0  0  0  0  0  0  0  0  0  0
   61.0720   33.5800   46.6730 C   0  0  0  0  0  0  0  0  0  0  0  0
   60.5430   32.3030   46.4930 C   0  0  0  0  0  0  0  0  0  0  0  0
   61.1840   31.1770   46.9720 C   0  0  0  0  0  0  0  0  0  0  0  0
   62.3930   31.2790   47.6580 C   0  0  0  0  0  0  0  0  0  0  0  0
   60.4120   29.9270   46.6590 C   0  0  0  0  0  0  0  0  0  0  0  0
   59.2350   30.5090   45.9270 C   0  0  0  0  0  0  0  0  0  0  0  0
   58.1510   29.8240   45.3790 C   0  0  0  0  0  0  0  0  0  0  0  0
   57.1360   30.5580   44.7250 C   0  0  0  0  0  0  0  0  0  0  0  0
   56.0070   29.8760   44.1500 N   0  0  0  0  0  0  0  0  0  0  0  0
   55.1450   29.3430   44.8800 O   0  0  0  0  0  0  0  0  0  0  0  0
   55.8590   29.7990   42.7830 O   0  0  0  0  0  0  0  0  0  0  0  0
   57.2430   31.9700   44.6430 C   0  0  0  0  0  0  0  0  0  0  0  0
   58.3420   32.6410   45.2030 C   0  0  0  0  0  0  0  0  0  0  0  0
   59.3230   31.8840   45.8380 C   0  0  0  0  0  0  0  0  0  0  0  0
   67.3163   30.0279   52.3714 H   0  0  0  0  0  0  0  0  0  0  0  0
   67.1293   29.1079   50.8399 H   0  0  0  0  0  0  0  0  0  0  0  0
   67.9839   30.6879   50.8399 H   0  0  0  0  0  0  0  0  0  0  0  0
   65.2404   30.2192   50.3174 H   0  0  0  0  0  0  0  0  0  0  0  0
   65.3369   30.9611   51.9919 H   0  0  0  0  0  0  0  0  0  0  0  0
   67.6135   32.8218   51.6008 H   0  0  0  0  0  0  0  0  0  0  0  0
   68.0415   32.0243   50.0492 H   0  0  0  0  0  0  0  0  0  0  0  0
   67.3945   33.7000   50.0492 H   0  0  0  0  0  0  0  0  0  0  0  0
   64.3604   32.6757   51.7175 H   0  0  0  0  0  0  0  0  0  0  0  0
   65.4668   34.0382   51.3291 H   0  0  0  0  0  0  0  0  0  0  0  0
   62.9946   33.5125   50.1089 H   0  0  0  0  0  0  0  0  0  0  0  0
   64.3122   34.5924   49.4748 H   0  0  0  0  0  0  0  0  0  0  0  0
   64.5690   31.7670   48.8750 H   0  0  0  0  0  0  0  0  0  0  0  0
   64.9120   33.1320   47.9510 H   0  0  0  0  0  0  0  0  0  0  0  0
   62.7252   34.7012   47.5180 H   0  0  0  0  0  0  0  0  0  0  0  0
   60.5499   34.4671   46.2851 H   0  0  0  0  0  0  0  0  0  0  0  0
   62.8987   30.3786   48.0368 H   0  0  0  0  0  0  0  0  0  0  0  0
   60.9893   29.2421   46.0205 H   0  0  0  0  0  0  0  0  0  0  0  0
   60.1507   29.3174   47.5366 H   0  0  0  0  0  0  0  0  0  0  0  0
   58.0870   28.7285   45.4547 H   0  0  0  0  0  0  0  0  0  0  0  0
   56.4558   32.5461   44.1347 H   0  0  0  0  0  0  0  0  0  0  0  0
   58.4257   33.7361   45.1416 H   0  0  0  0  0  0  0  0  0  0  0  0
  1  2  1  0
  2  3  1  0
  3  4  1  0
  3  5  1  0
  5  6  1  0
  6  7  1  0
  7  8  1  0
  8  9  2  0
  9 10  1  0
 10 11  2  0
 11 12  1  0
 12 13  2  0
 12 14  1  0
 14 15  1  0
 15 16  2  0
 16 17  1  0
 17 18  1  0
 18 19  2  0
 18 20  1  0
 17 21  2  0
 21 22  1  0
 22 23  2  0
 13  8  1  0
 23 15  1  0
 23 11  1  0
  1 24  1  0
  1 25  1  0
  1 26  1  0
  2 27  1  0
  2 28  1  0
  4 29  1  0
  4 30  1  0
  4 31  1  0
  5 32  1  0
  5 33  1  0
  6 34  1  0
  6 35  1  0
  7 36  1  0
  7 37  1  0
  9 38  1  0
 10 39  1  0
 13 40  1  0
 14 41  1  0
 14 42  1  0
 16 43  1  0
 21 44  1  0
 22 45  1  0
M  CHG  3   7   1  18   1  20  -1
M  END
>  <UniqueID>  (12) 
12

>  <SMILES>  (12) 
CCN(C)CC[NH2+]c1ccc2c(c1)Cc1cc([N+](=O)[O-])ccc1-2

>  <Energy>  (12) 
72.719543910625

>  <Genealogy>  (12) 
CCN(C)CC[NH2+]c1ccc2c(c1)Cc1cc([N+](=O)[O-])ccc1-2 (protonated)
CCN(C)CC[NH2+]c1ccc2c(c1)Cc1cc([N+](=O)[O-])ccc1-2 (3D coordinates assigned)
CCN(C)CC[NH2+]c1ccc2c(c1)Cc1cc([N+](=O)[O-])ccc1-2 (nonaromatic ring conformer: 72.719543910625 kcal/mol)

>  <smiles>  (12) 
CCN(C)CCNc1ccc2c(c1)Cc1cc([N+](=O)[O-])ccc1-2

>  <score_type>  (12) 
oracle

>  <origin>  (12) 
adg

>  <m_score__min__energy>  (12) 
-6.3099999999999996

>  <m_primary>  (12) 
energy

$$$$
12:0
     RDKit          3D

 49 51  0  0  0  0  0  0  0  0999 V2000
   65.7020   33.1060   50.1060 C   0  0  0  0  0  0  0  0  0  0  0  0
   64.6250   32.3210   49.3590 C   0  0  0  0  0  0  0  0  0  0  0  0
   63.5390   33.2260   48.9230 N   0  0  0  0  0  0  0  0  0  0  0  0
   62.9840   32.8470   47.6010 C   0  0  0  0  0  0  0  0  0  0  0  0
   63.3250   33.8270   46.4680 C   0  0  0  0  0  0  0  0  0  0  0  0
   62.5100   33.4100   49.9740 C   0  0  0  0  0  0  0  0  0  0  0  0
   61.1250   32.9150   49.5090 C   0  0  0  0  0  0  0  0  0  0  0  0
   60.0190   33.9580   49.7640 C   0  0  0  0  0  0  0  0  0  0  0  0
   59.8790   34.9050   48.6450 N   0  0  0  0  0  0  0  0  0  0  0  0
   59.3440   34.2630   47.4680 C   0  0  0  0  0  0  0  0  0  0  0  0
   59.3440   34.9420   46.2230 C   0  0  0  0  0  0  0  0  0  0  0  0
   58.8460   34.3200   45.0680 C   0  0  0  0  0  0  0  0  0  0  0  0
   58.3530   33.0210   45.1780 C   0  0  0  0  0  0  0  0  0  0  0  0
   58.3470   32.3450   46.3820 C   0  0  0  0  0  0  0  0  0  0  0  0
   58.8370   32.9460   47.5420 C   0  0  0  0  0  0  0  0  0  0  0  0
   57.7750   30.9650   46.2390 C   0  0  0  0  0  0  0  0  0  0  0  0
   57.4550   30.9520   44.7720 C   0  0  0  0  0  0  0  0  0  0  0  0
   56.8880   29.9150   44.0290 C   0  0  0  0  0  0  0  0  0  0  0  0
   56.6710   30.1110   42.6550 C   0  0  0  0  0  0  0  0  0  0  0  0
   57.0190   31.3330   42.0460 C   0  0  0  0  0  0  0  0  0  0  0  0
   57.5890   32.3690   42.8050 C   0  0  0  0  0  0  0  0  0  0  0  0
   57.7940   32.1490   44.1680 C   0  0  0  0  0  0  0  0  0  0  0  0
   65.5507   32.9957   51.1899 H   0  0  0  0  0  0  0  0  0  0  0  0
   66.6944   32.7179   49.8329 H   0  0  0  0  0  0  0  0  0  0  0  0
   65.6363   34.1695   49.8329 H   0  0  0  0  0  0  0  0  0  0  0  0
   65.0727   31.8401   48.4768 H   0  0  0  0  0  0  0  0  0  0  0  0
   64.2065   31.5584   50.0323 H   0  0  0  0  0  0  0  0  0  0  0  0
   63.3810   31.8572   47.3316 H   0  0  0  0  0  0  0  0  0  0  0  0
   61.8890   32.8543   47.7051 H   0  0  0  0  0  0  0  0  0  0  0  0
   63.6577   34.7832   46.8980 H   0  0  0  0  0  0  0  0  0  0  0  0
   64.1290   33.4046   45.8474 H   0  0  0  0  0  0  0  0  0  0  0  0
   62.4325   33.9949   45.8474 H   0  0  0  0  0  0  0  0  0  0  0  0
   62.8090   32.8441   50.8686 H   0  0  0  0  0  0  0  0  0  0  0  0
   62.4337   34.4849   50.1949 H   0  0  0  0  0  0  0  0  0  0  0  0
   61.1687   32.7012   48.4309 H   0  0  0  0  0  0  0  0  0  0  0  0
   60.8775   32.0119   50.0862 H   0  0  0  0  0  0  0  0  0  0  0  0
   59.0628   33.4330   49.9056 H   0  0  0  0  0  0  0  0  0  0  0  0
   60.2967   34.5325   50.6600 H   0  0  0  0  0  0  0  0  0  0  0  0
   59.2790   35.7130   48.9320 H   0  0  0  0  0  0  0  0  0  0  0  0
   60.8240   35.2930   48.4150 H   0  0  0  0  0  0  0  0  0  0  0  0
   59.7385   35.9670   46.1621 H   0  0  0  0  0  0  0  0  0  0  0  0
   58.8447   34.8440   44.1008 H   0  0  0  0  0  0  0  0  0  0  0  0
   58.8288   32.4033   48.4988 H   0  0  0  0  0  0  0  0  0  0  0  0
   58.5115   30.1910   46.5009 H   0  0  0  0  0  0  0  0  0  0  0  0
   56.9191   30.7532   46.8967 H   0  0  0  0  0  0  0  0  0  0  0  0
   56.6166   28.9636   44.5098 H   0  0  0  0  0  0  0  0  0  0  0  0
   56.2269   29.3059   42.0511 H   0  0  0  0  0  0  0  0  0  0  0  0
   56.8434   31.4769   40.9697 H   0  0  0  0  0  0  0  0  0  0  0  0
   57.8657   33.3259   42.3384 H   0  0  0  0  0  0  0  0  0  0  0  0
  1  2  1  0
  2  3  1  0
  3  4  1  0
  4  5  1  0
  3  6  1  0
  6  7  1  0
  7  8  1  0
  8  9  1  0
  9 10  1  0
 10 11  2  0
 11 12  1  0
 12 13  2  0
 13 14  1  0
 14 15  2  0
 14 16  1  0
 16 17  1  0
 17 18  2  0
 18 19  1  0
 19 20  2  0
 20 21  1  0
 21 22  2  0
 15 10  1  0
 22 17  1  0
 22 13  1  0
  1 23  1  0
  1 24  1  0
  1 25  1  0
  2 26  1  0
  2 27  1  0
  4 28  1  0
  4 29  1  0
  5 30  1  0
  5 31  1  0
  5 32  1  0
  6 33  1  0
  6 34  1  0
  7 35  1  0
  7 36  1  0
  8 37  1  0
  8 38  1  0
  9 39  1  0
  9 40  1  0
 11 41  1  0
 12 42  1  0
 15 43  1  0
 16 44  1  0
 16 45  1  0
 18 46  1  0
 19 47  1  0
 20 48  1  0
 21 49  1  0
M  CHG  1   9   1
M  END
>  <UniqueID>  (13) 
13

>  <SMILES>  (13) 
CCN(CC)CCC[NH2+]c1ccc2c(c1)Cc1ccccc1-2

>  <Energy>  (13) 
74.46763331084459

>  <Genealogy>  (13) 
CCN(CC)CCC[NH2+]c1ccc2c(c1)Cc1ccccc1-2 (protonated)
CCN(CC)CCC[NH2+]c1ccc2c(c1)Cc1ccccc1-2 (3D coordinates assigned)
CCN(CC)CCC[NH2+]c1ccc2c(c1)Cc1ccccc1-2 (nonaromatic ring conformer: 74.46763331084459 kcal/mol)

>  <smiles>  (13) 
CCN(CC)CCCNc1ccc2c(c1)Cc1ccccc1-2

>  <score_type>  (13) 
oracle

>  <origin>  (13) 
adg

>  <m_score__min__energy>  (13) 
-6.1600000000000001

>  <m_primary>  (13) 
energy

$$$$
13:0
     RDKit          3D

 70 72  0  0  0  0  0  0  0  0999 V2000
   50.2380   25.3610   43.6400 C   0  0  0  0  0  0  0  0  0  0  0  0
   50.9210   24.0090   43.8410 C   0  0  0  0  0  0  0  0  0  0  0  0
   51.8130   24.0550   45.0250 N   0  0  0  0  0  0  0  0  0  0  0  0
   51.5080   22.9480   45.9600 C   0  0  0  0  0  0  0  0  0  0  0  0
   50.0060   22.6700   45.9790 C   0  0  0  0  0  0  0  0  0  0  0  0
   53.2410   24.0520   44.6230 C   0  0  0  0  0  0  0  0  0  0  0  0
   54.1440   23.7310   45.8230 C   0  0  0  0  0  0  0  0  0  0  0  0
   55.5550   24.0800   45.5690 N   0  0  0  0  0  0  0  0  0  0  0  0
   56.4210   23.0740   44.9240 C   0  0  0  0  0  0  0  0  0  0  0  0
   56.3220   23.0970   43.3990 C   0  0  0  0  0  0  0  0  0  0  0  0
   55.9380   25.4760   45.5760 C   0  0  0  0  0  0  0  0  0  0  0  0
   55.1340   26.3420   46.0150 O   0  0  0  0  0  0  0  0  0  0  0  0
   57.2790   25.9480   45.0790 C   0  0  0  0  0  0  0  0  0  0  0  0
   57.8250   27.0120   45.9280 N   0  0  0  0  0  0  0  0  0  0  0  0
   58.5530   26.8390   47.0600 C   0  0  0  0  0  0  0  0  0  0  0  0
   58.9710   28.0610   47.5690 C   0  0  0  0  0  0  0  0  0  0  0  0
   58.4960   29.0050   46.6850 C   0  0  0  0  0  0  0  0  0  0  0  0
   58.6350   30.3910   46.6920 C   0  0  0  0  0  0  0  0  0  0  0  0
   58.0630   31.1180   45.6300 C   0  0  0  0  0  0  0  0  0  0  0  0
   58.1840   32.8790   45.5950 S   0  0  0  0  0  0  0  0  0  0  0  0
   56.8580   33.4710   45.9830 O   0  0  0  0  0  0  0  0  0  0  0  0
   58.5030   33.3280   44.1960 O   0  0  0  0  0  0  0  0  0  0  0  0
   59.4170   33.4590   46.6880 N   0  0  0  0  0  0  0  0  0  0  0  0
   59.0100   33.2390   48.0850 C   0  0  0  0  0  0  0  0  0  0  0  0
   59.9660   33.9700   49.0450 C   0  0  0  0  0  0  0  0  0  0  0  0
   61.3420   34.2530   48.4000 C   0  0  0  0  0  0  0  0  0  0  0  0
   62.4030   34.5370   49.4680 C   0  0  0  0  0  0  0  0  0  0  0  0
   61.7640   33.0780   47.4970 C   0  0  0  0  0  0  0  0  0  0  0  0
   60.7050   32.7920   46.4060 C   0  0  0  0  0  0  0  0  0  0  0  0
   57.3860   30.4360   44.5900 C   0  0  0  0  0  0  0  0  0  0  0  0
   57.2620   29.0360   44.6130 C   0  0  0  0  0  0  0  0  0  0  0  0
   57.8220   28.3420   45.6910 C   0  0  0  0  0  0  0  0  0  0  0  0
   50.0126   25.8072   44.6198 H   0  0  0  0  0  0  0  0  0  0  0  0
   50.9065   26.0295   43.0777 H   0  0  0  0  0  0  0  0  0  0  0  0
   49.3032   25.2196   43.0777 H   0  0  0  0  0  0  0  0  0  0  0  0
   50.1550   23.2344   43.9934 H   0  0  0  0  0  0  0  0  0  0  0  0
   51.5210   23.7747   42.9493 H   0  0  0  0  0  0  0  0  0  0  0  0
   52.0409   22.0419   45.6360 H   0  0  0  0  0  0  0  0  0  0  0  0
   51.8322   23.2338   46.9715 H   0  0  0  0  0  0  0  0  0  0  0  0
   49.6582   22.6056   47.0206 H   0  0  0  0  0  0  0  0  0  0  0  0
   49.4757   23.4852   45.4651 H   0  0  0  0  0  0  0  0  0  0  0  0
   49.8026   21.7190   45.4651 H   0  0  0  0  0  0  0  0  0  0  0  0
   53.3945   23.2921   43.8426 H   0  0  0  0  0  0  0  0  0  0  0  0
   53.5024   25.0502   44.2418 H   0  0  0  0  0  0  0  0  0  0  0  0
   53.7898   24.3004   46.6950 H   0  0  0  0  0  0  0  0  0  0  0  0
   54.0919   22.6472   46.0040 H   0  0  0  0  0  0  0  0  0  0  0  0
   57.4641   23.2722   45.2114 H   0  0  0  0  0  0  0  0  0  0  0  0
   56.0855   22.0826   45.2625 H   0  0  0  0  0  0  0  0  0  0  0  0
   55.2903   23.3367   43.1021 H   0  0  0  0  0  0  0  0  0  0  0  0
   57.0055   23.8603   42.9987 H   0  0  0  0  0  0  0  0  0  0  0  0
   56.5990   22.1106   42.9987 H   0  0  0  0  0  0  0  0  0  0  0  0
   57.9781   25.0988   45.0769 H   0  0  0  0  0  0  0  0  0  0  0  0
   57.1476   26.3509   44.0639 H   0  0  0  0  0  0  0  0  0  0  0  0
   58.7810   25.8628   47.5129 H   0  0  0  0  0  0  0  0  0  0  0  0
   59.5566   28.2379   48.4832 H   0  0  0  0  0  0  0  0  0  0  0  0
   59.1752   30.9022   47.5025 H   0  0  0  0  0  0  0  0  0  0  0  0
   57.9889   33.6218   48.2294 H   0  0  0  0  0  0  0  0  0  0  0  0
   59.0440   32.1609   48.3006 H   0  0  0  0  0  0  0  0  0  0  0  0
   59.5094   34.9268   49.3384 H   0  0  0  0  0  0  0  0  0  0  0  0
   60.1303   33.3193   49.9165 H   0  0  0  0  0  0  0  0  0  0  0  0
   61.2517   35.1533   47.7744 H   0  0  0  0  0  0  0  0  0  0  0  0
   61.9585   34.4180   50.4671 H   0  0  0  0  0  0  0  0  0  0  0  0
   63.2384   33.8308   49.3518 H   0  0  0  0  0  0  0  0  0  0  0  0
   62.7739   35.5660   49.3518 H   0  0  0  0  0  0  0  0  0  0  0  0
   62.7194   33.3257   47.0114 H   0  0  0  0  0  0  0  0  0  0  0  0
   61.8645   32.1798   48.1241 H   0  0  0  0  0  0  0  0  0  0  0  0
   61.0863   33.1528   45.4393 H   0  0  0  0  0  0  0  0  0  0  0  0
   60.5256   31.7069   46.3866 H   0  0  0  0  0  0  0  0  0  0  0  0
   56.9528   31.0074   43.7558 H   0  0  0  0  0  0  0  0  0  0  0  0
   56.7394   28.5012   43.8062 H   0  0  0  0  0  0  0  0  0  0  0  0
  1  2  1  0
  2  3  1  0
  3  4  1  0
  4  5  1  0
  3  6  1  0
  6  7  1  0
  7  8  1  0
  8  9  1  0
  9 10  1  0
  8 11  1  0
 11 12  2  0
 11 13  1  0
 13 14  1  0
 14 15  1  0
 15 16  2  0
 16 17  1  0
 17 18  2  0
 18 19  1  0
 19 20  1  0
 20 21  2  0
 20 22  2  0
 20 23  1  0
 23 24  1  0
 24 25  1  0
 25 26  1  0
 26 27  1  0
 26 28  1  0
 28 29  1  0
 19 30  2  0
 30 31  1  0
 31 32  2  0
 32 14  1  0
 32 17  1  0
 29 23  1  0
  1 33  1  0
  1 34  1  0
  1 35  1  0
  2 36  1  0
  2 37  1  0
  4 38  1  0
  4 39  1  0
  5 40  1  0
  5 41  1  0
  5 42  1  0
  6 43  1  0
  6 44  1  0
  7 45  1  0
  7 46  1  0
  9 47  1  0
  9 48  1  0
 10 49  1  0
 10 50  1  0
 10 51  1  0
 13 52  1  0
 13 53  1  0
 15 54  1  0
 16 55  1  0
 18 56  1  0
 24 57  1  0
 24 58  1  0
 25 59  1  0
 25 60  1  0
 26 61  1  0
 27 62  1  0
 27 63  1  0
 27 64  1  0
 28 65  1  0
 28 66  1  0
 29 67  1  0
 29 68  1  0
 30 69  1  0
 31 70  1  0
M  END
>  <UniqueID>  (14) 
14

>  <SMILES>  (14) 
CCN(CC)CCN(CC)C(=O)Cn1ccc2cc(S(=O)(=O)N3CCC(C)CC3)ccc21

>  <Energy>  (14) 
101.25210088572578

>  <Genealogy>  (14) 
CCN(CC)CCN(CC)C(=O)Cn1ccc2cc(S(=O)(=O)N3CCC(C)CC3)ccc21 (3D coordinates assigned)
CCN(CC)CCN(CC)C(=O)Cn1ccc2cc(S(=O)(=O)N3CCC(C)CC3)ccc21 (nonaromatic ring conformer: 101.25210088572578 kcal/mol)

>  <smiles>  (14) 
CCN(CC)CCN(CC)C(=O)Cn1ccc2cc(S(=O)(=O)N3CCC(C)CC3)ccc21

>  <score_type>  (14) 
oracle

>  <origin>  (14) 
adg

>  <m_score__min__energy>  (14) 
-9.3300000000000001

>  <m_primary>  (14) 
energy

$$$$
14:0
     RDKit          3D

 49 51  0  0  0  0  0  0  0  0999 V2000
   57.5208   35.4241   44.7478 H   0  0  0  0  0  0  0  0  0  0  0  0
   57.9560   34.4630   45.0590 C   0  0  0  0  0  0  0  0  0  0  0  0
   59.2550   34.4130   45.5560 C   0  0  0  0  0  0  0  0  0  0  0  0
   59.8586   35.3315   45.6019 H   0  0  0  0  0  0  0  0  0  0  0  0
   59.7970   33.2030   45.9970 C   0  0  0  0  0  0  0  0  0  0  0  0
   60.8372   33.1753   46.3537 H   0  0  0  0  0  0  0  0  0  0  0  0
   59.0310   32.0110   45.9930 C   0  0  0  0  0  0  0  0  0  0  0  0
   59.4880   30.7430   46.4870 C   0  0  0  0  0  0  0  0  0  0  0  0
   60.4910   30.5810   47.3200 N   0  0  0  0  0  0  0  0  0  0  0  0
   60.5540   30.5260   48.7780 C   0  0  0  0  0  0  0  0  0  0  0  0
   60.8648   29.5178   49.0893 H   0  0  0  0  0  0  0  0  0  0  0  0
   59.5595   30.7589   49.1864 H   0  0  0  0  0  0  0  0  0  0  0  0
   61.5690   31.5590   49.3140 C   0  0  0  0  0  0  0  0  0  0  0  0
   62.4835   31.0169   49.5964 H   0  0  0  0  0  0  0  0  0  0  0  0
   61.0657   32.0610   50.1535 H   0  0  0  0  0  0  0  0  0  0  0  0
   61.9570   32.6480   48.3680 N   0  0  0  0  0  0  0  0  0  0  0  0
   61.4050   32.4870   47.4910 H   0  0  0  0  0  0  0  0  0  0  0  0
   63.3910   32.6140   47.9840 C   0  0  0  0  0  0  0  0  0  0  0  0
   63.6718   31.5721   47.7703 H   0  0  0  0  0  0  0  0  0  0  0  0
   63.9660   33.0309   48.8240 H   0  0  0  0  0  0  0  0  0  0  0  0
   63.7020   33.4670   46.7480 C   0  0  0  0  0  0  0  0  0  0  0  0
   64.0627   34.4562   47.0665 H   0  0  0  0  0  0  0  0  0  0  0  0
   64.4770   32.9707   46.1455 H   0  0  0  0  0  0  0  0  0  0  0  0
   62.7894   33.5860   46.1455 H   0  0  0  0  0  0  0  0  0  0  0  0
   61.6000   34.0150   48.8310 C   0  0  0  0  0  0  0  0  0  0  0  0
   62.1922   34.2435   49.7294 H   0  0  0  0  0  0  0  0  0  0  0  0
   61.8163   34.7032   48.0006 H   0  0  0  0  0  0  0  0  0  0  0  0
   60.1150   34.1790   49.1750 C   0  0  0  0  0  0  0  0  0  0  0  0
   59.9911   34.1927   50.2679 H   0  0  0  0  0  0  0  0  0  0  0  0
   59.7428   35.1237   48.7519 H   0  0  0  0  0  0  0  0  0  0  0  0
   59.5456   33.3383   48.7519 H   0  0  0  0  0  0  0  0  0  0  0  0
   58.7410   29.5820   46.1560 C   0  0  0  0  0  0  0  0  0  0  0  0
   59.1900   28.2820   46.4870 C   0  0  0  0  0  0  0  0  0  0  0  0
   60.1628   28.1536   46.9841 H   0  0  0  0  0  0  0  0  0  0  0  0
   58.4070   27.1500   46.1880 C   0  0  0  0  0  0  0  0  0  0  0  0
   58.8220   25.8450   46.4960 O   0  0  0  0  0  0  0  0  0  0  0  0
   58.5350   24.6970   45.7030 C   0  0  0  0  0  0  0  0  0  0  0  0
   58.3211   23.8414   46.3604 H   0  0  0  0  0  0  0  0  0  0  0  0
   57.6598   24.8994   45.0681 H   0  0  0  0  0  0  0  0  0  0  0  0
   59.4025   24.4637   45.0681 H   0  0  0  0  0  0  0  0  0  0  0  0
   57.1710   27.3180   45.5610 C   0  0  0  0  0  0  0  0  0  0  0  0
   56.5522   26.4383   45.3304 H   0  0  0  0  0  0  0  0  0  0  0  0
   56.7150   28.5910   45.2250 C   0  0  0  0  0  0  0  0  0  0  0  0
   55.7396   28.7100   44.7307 H   0  0  0  0  0  0  0  0  0  0  0  0
   57.4910   29.7180   45.5130 C   0  0  0  0  0  0  0  0  0  0  0  0
   57.0270   30.9430   45.1780 N   0  0  0  0  0  0  0  0  0  0  0  0
   57.7440   32.0720   45.3870 C   0  0  0  0  0  0  0  0  0  0  0  0
   57.2090   33.2920   44.9570 C   0  0  0  0  0  0  0  0  0  0  0  0
   56.1932   33.3260   44.5363 H   0  0  0  0  0  0  0  0  0  0  0  0
  1  2  1  0
  2  3  2  0
  3  4  1  0
  3  5  1  0
  5  6  1  0
  5  7  2  0
  7  8  1  0
  8  9  2  0
  9 10  1  0
 10 11  1  0
 10 12  1  0
 10 13  1  0
 13 14  1  0
 13 15  1  0
 13 16  1  0
 16 17  1  0
 16 18  1  0
 18 19  1  0
 18 20  1  0
 18 21  1  0
 21 22  1  0
 21 23  1  0
 21 24  1  0
 16 25  1  0
 25 26  1  0
 25 27  1  0
 25 28  1  0
 28 29  1  0
 28 30  1  0
 28 31  1  0
  8 32  1  0
 32 33  2  0
 33 34  1  0
 33 35  1  0
 35 36  1  0
 36 37  1  0
 37 38  1  0
 37 39  1  0
 37 40  1  0
 35 41  2  0
 41 42  1  0
 41 43  1  0
 43 44  1  0
 43 45  2  0
 45 46  1  0
 46 47  1  0
 47 48  2  0
 48 49  1  0
 48  2  1  0
 47  7  1  0
 45 32  1  0
M  CHG  2  16   1  46  -1
M  END
>  <UniqueID>  (15) 
15

>  <SMILES>  (15) 
CC[NH+](CC)CC/N=c1\c2ccccc2[n-]c2ccc(OC)cc12

>  <Energy>  (15) 
76.42251846539168

>  <Genealogy>  (15) 
CC[NH+](CC)CCN=c1c2ccccc2[n-]c2ccc(OC)cc12 (protonated)
CC[NH+](CC)CC/N=c1\c2ccccc2[n-]c2ccc(OC)cc12 (cis-trans isomerization)
CC[NH+](CC)CC/N=c1\c2ccccc2[n-]c2ccc(OC)cc12 (3D coordinates assigned)
CC[NH+](CC)CC/N=c1\c2ccccc2[n-]c2ccc(OC)cc12 (optimized conformer: 76.42251846539168 kcal/mol)

>  <smiles>  (15) 
CCN(CC)CCN=c1c2ccccc2[nH]c2ccc(OC)cc12

>  <score_type>  (15) 
oracle

>  <origin>  (15) 
adg

>  <m_score__min__energy>  (15) 
-6.1799999999999997

>  <m_primary>  (15) 
energy

$$$$
15:0
     RDKit          3D

 42 43  0  0  0  0  0  0  0  0999 V2000
   60.0950   28.9370   44.5150 C   0  0  0  0  0  0  0  0  0  0  0  0
   60.0380   29.1650   46.0230 C   0  0  0  0  0  0  0  0  0  0  0  0
   59.2260   28.1150   46.6800 N   0  0  0  0  0  0  0  0  0  0  0  0
   59.8030   27.7070   47.9860 C   0  0  0  0  0  0  0  0  0  0  0  0
   59.9840   28.8620   48.9820 C   0  0  0  0  0  0  0  0  0  0  0  0
   57.7950   28.5000   46.7480 C   0  0  0  0  0  0  0  0  0  0  0  0
   57.0000   28.0580   45.5090 C   0  0  0  0  0  0  0  0  0  0  0  0
   55.8870   28.9870   45.2340 N   0  0  0  0  0  0  0  0  0  0  0  0
   56.0350   29.6940   43.9530 C   0  0  0  0  0  0  0  0  0  0  0  0
   56.8320   30.9520   44.1300 C   0  0  0  0  0  0  0  0  0  0  0  0
   57.3870   31.6030   43.0190 C   0  0  0  0  0  0  0  0  0  0  0  0
   58.1420   32.7630   43.2060 C   0  0  0  0  0  0  0  0  0  0  0  0
   58.3530   33.2560   44.4990 C   0  0  0  0  0  0  0  0  0  0  0  0
   59.1200   34.4080   44.7240 C   0  0  0  0  0  0  0  0  0  0  0  0
   59.3180   34.8710   46.0290 C   0  0  0  0  0  0  0  0  0  0  0  0
   58.7530   34.1880   47.1120 C   0  0  0  0  0  0  0  0  0  0  0  0
   57.9870   33.0370   46.8960 C   0  0  0  0  0  0  0  0  0  0  0  0
   57.7840   32.5670   45.5930 C   0  0  0  0  0  0  0  0  0  0  0  0
   57.0450   31.4450   45.3800 N   0  0  0  0  0  0  0  0  0  0  0  0
   60.3572   27.8881   44.3124 H   0  0  0  0  0  0  0  0  0  0  0  0
   59.1131   29.1614   44.0729 H   0  0  0  0  0  0  0  0  0  0  0  0
   60.8558   29.5971   44.0729 H   0  0  0  0  0  0  0  0  0  0  0  0
   61.0592   29.1401   46.4310 H   0  0  0  0  0  0  0  0  0  0  0  0
   59.5742   30.1436   46.2158 H   0  0  0  0  0  0  0  0  0  0  0  0
   59.1346   26.9609   48.4406 H   0  0  0  0  0  0  0  0  0  0  0  0
   60.8070   27.3086   47.7777 H   0  0  0  0  0  0  0  0  0  0  0  0
   59.9231   28.4733   50.0092 H   0  0  0  0  0  0  0  0  0  0  0  0
   60.9666   29.3309   48.8251 H   0  0  0  0  0  0  0  0  0  0  0  0
   59.1920   29.6090   48.8251 H   0  0  0  0  0  0  0  0  0  0  0  0
   57.3473   28.0333   47.6378 H   0  0  0  0  0  0  0  0  0  0  0  0
   57.7493   29.5980   46.7966 H   0  0  0  0  0  0  0  0  0  0  0  0
   57.6730   28.0358   44.6392 H   0  0  0  0  0  0  0  0  0  0  0  0
   56.5824   27.0584   45.6996 H   0  0  0  0  0  0  0  0  0  0  0  0
   55.8850   29.7150   45.9870 H   0  0  0  0  0  0  0  0  0  0  0  0
   56.5505   29.0380   43.2361 H   0  0  0  0  0  0  0  0  0  0  0  0
   55.0354   29.9588   43.5780 H   0  0  0  0  0  0  0  0  0  0  0  0
   57.2288   31.2027   42.0067 H   0  0  0  0  0  0  0  0  0  0  0  0
   58.5698   33.2880   42.3392 H   0  0  0  0  0  0  0  0  0  0  0  0
   59.5656   34.9472   43.8750 H   0  0  0  0  0  0  0  0  0  0  0  0
   59.9198   35.7749   46.2046 H   0  0  0  0  0  0  0  0  0  0  0  0
   58.9115   34.5570   48.1361 H   0  0  0  0  0  0  0  0  0  0  0  0
   57.5447   32.5020   47.7493 H   0  0  0  0  0  0  0  0  0  0  0  0
  1  2  1  0
  2  3  1  0
  3  4  1  0
  4  5  1  0
  3  6  1  0
  6  7  1  0
  7  8  1  0
  8  9  1  0
  9 10  1  0
 10 11  2  0
 11 12  1  0
 12 13  2  0
 13 14  1  0
 14 15  2  0
 15 16  1  0
 16 17  2  0
 17 18  1  0
 18 19  2  0
 19 10  1  0
 18 13  1  0
  1 20  1  0
  1 21  1  0
  1 22  1  0
  2 23  1  0
  2 24  1  0
  4 25  1  0
  4 26  1  0
  5 27  1  0
  5 28  1  0
  5 29  1  0
  6 30  1  0
  6 31  1  0
  7 32  1  0
  7 33  1  0
  8 34  1  0
  9 35  1  0
  9 36  1  0
 11 37  1  0
 12 38  1  0
 14 39  1  0
 15 40  1  0
 16 41  1  0
 17 42  1  0
M  END
>  <UniqueID>  (16) 
16

>  <SMILES>  (16) 
CCN(CC)CCNCc1ccc2ccccc2n1

>  <Energy>  (16) 
42.41377282748192

>  <Genealogy>  (16) 
CCN(CC)CCNCc1ccc2ccccc2n1 (3D coordinates assigned)
CCN(CC)CCNCc1ccc2ccccc2n1 (optimized conformer: 42.41377282748192 kcal/mol)

>  <smiles>  (16) 
CCN(CC)CCNCc1ccc2ccccc2n1

>  <score_type>  (16) 
oracle

>  <origin>  (16) 
adg

>  <m_score__min__energy>  (16) 
-7.2800000000000002

>  <m_primary>  (16) 
energy

$$$$
16:0
     RDKit          3D

 63 66  0  0  0  0  0  0  0  0999 V2000
   58.2780   27.0830   42.6880 C   0  0  0  0  0  0  0  0  0  0  0  0
   57.7440   27.4530   44.0740 C   0  0  0  0  0  0  0  0  0  0  0  0
   58.7950   27.7520   45.0750 N   0  0  0  0  0  0  0  0  0  0  0  0
   59.1890   26.5960   45.9180 C   0  0  0  0  0  0  0  0  0  0  0  0
   58.2520   26.3190   47.1050 C   0  0  0  0  0  0  0  0  0  0  0  0
   59.9170   28.6010   44.6130 C   0  0  0  0  0  0  0  0  0  0  0  0
   60.4800   29.4870   45.7390 C   0  0  0  0  0  0  0  0  0  0  0  0
   59.5460   29.6080   46.8600 N   0  0  0  0  0  0  0  0  0  0  0  0
   59.9210   30.3470   48.0320 C   0  0  0  0  0  0  0  0  0  0  0  0
   60.3100   29.6650   49.1970 C   0  0  0  0  0  0  0  0  0  0  0  0
   60.3740   28.2550   49.2210 C   0  0  0  0  0  0  0  0  0  0  0  0
   60.8090   27.5820   50.3600 C   0  0  0  0  0  0  0  0  0  0  0  0
   61.1950   28.2990   51.4870 C   0  0  0  0  0  0  0  0  0  0  0  0
   61.1210   29.6920   51.4930 C   0  0  0  0  0  0  0  0  0  0  0  0
   60.6410   30.4040   50.3630 C   0  0  0  0  0  0  0  0  0  0  0  0
   60.5050   31.7800   50.3740 N   0  0  0  0  0  0  0  0  0  0  0  0
   60.5630   32.5190   51.6550 C   0  0  0  0  0  0  0  0  0  0  0  0
   60.2910   32.4620   49.1900 C   0  0  0  0  0  0  0  0  0  0  0  0
   60.4110   33.8720   49.1090 C   0  0  0  0  0  0  0  0  0  0  0  0
   60.1580   34.5530   47.9200 C   0  0  0  0  0  0  0  0  0  0  0  0
   59.7950   33.8550   46.7620 C   0  0  0  0  0  0  0  0  0  0  0  0
   59.5270   34.5320   45.5190 N   0  0  0  0  0  0  0  0  0  0  0  0
   58.2010   34.5820   44.8990 C   0  0  0  0  0  0  0  0  0  0  0  0
   57.7760   33.2130   44.4410 C   0  0  0  0  0  0  0  0  0  0  0  0
   58.1220   32.7490   43.1640 C   0  0  0  0  0  0  0  0  0  0  0  0
   57.7550   31.4620   42.7660 C   0  0  0  0  0  0  0  0  0  0  0  0
   57.0570   30.6440   43.6560 C   0  0  0  0  0  0  0  0  0  0  0  0
   56.7440   31.1010   44.8980 N   0  0  0  0  0  0  0  0  0  0  0  0
   57.0900   32.3510   45.3080 C   0  0  0  0  0  0  0  0  0  0  0  0
   59.7100   32.4590   46.8120 C   0  0  0  0  0  0  0  0  0  0  0  0
   59.9620   31.7520   48.0070 C   0  0  0  0  0  0  0  0  0  0  0  0
   59.1778   26.4596   42.7962 H   0  0  0  0  0  0  0  0  0  0  0  0
   57.5085   26.5235   42.1359 H   0  0  0  0  0  0  0  0  0  0  0  0
   58.5315   28.0000   42.1359 H   0  0  0  0  0  0  0  0  0  0  0  0
   57.1047   28.3421   43.9703 H   0  0  0  0  0  0  0  0  0  0  0  0
   57.1980   26.5732   44.4453 H   0  0  0  0  0  0  0  0  0  0  0  0
   59.2105   25.6991   45.2816 H   0  0  0  0  0  0  0  0  0  0  0  0
   60.1706   26.8445   46.3478 H   0  0  0  0  0  0  0  0  0  0  0  0
   58.7964   26.4799   48.0472 H   0  0  0  0  0  0  0  0  0  0  0  0
   57.3900   27.0007   47.0585 H   0  0  0  0  0  0  0  0  0  0  0  0
   57.8992   25.2781   47.0585 H   0  0  0  0  0  0  0  0  0  0  0  0
   60.7215   27.9512   44.2382 H   0  0  0  0  0  0  0  0  0  0  0  0
   59.5350   29.2633   43.8222 H   0  0  0  0  0  0  0  0  0  0  0  0
   61.4180   29.0437   46.1045 H   0  0  0  0  0  0  0  0  0  0  0  0
   60.6494   30.4930   45.3275 H   0  0  0  0  0  0  0  0  0  0  0  0
   58.5380   29.3610   46.7400 H   0  0  0  0  0  0  0  0  0  0  0  0
   60.0771   27.6817   48.3304 H   0  0  0  0  0  0  0  0  0  0  0  0
   60.8472   26.4827   50.3680 H   0  0  0  0  0  0  0  0  0  0  0  0
   61.5601   27.7658   52.3772 H   0  0  0  0  0  0  0  0  0  0  0  0
   61.4396   30.2473   52.3875 H   0  0  0  0  0  0  0  0  0  0  0  0
   60.5071   31.8072   52.4918 H   0  0  0  0  0  0  0  0  0  0  0  0
   61.5079   33.0793   51.7126 H   0  0  0  0  0  0  0  0  0  0  0  0
   59.7171   33.2198   51.7126 H   0  0  0  0  0  0  0  0  0  0  0  0
   60.7098   34.4399   50.0025 H   0  0  0  0  0  0  0  0  0  0  0  0
   60.2443   35.6492   47.8909 H   0  0  0  0  0  0  0  0  0  0  0  0
   60.3240   35.0080   45.0360 H   0  0  0  0  0  0  0  0  0  0  0  0
   57.4734   34.9594   45.6326 H   0  0  0  0  0  0  0  0  0  0  0  0
   58.2438   35.2496   44.0258 H   0  0  0  0  0  0  0  0  0  0  0  0
   58.6825   33.3988   42.4758 H   0  0  0  0  0  0  0  0  0  0  0  0
   58.0133   31.0964   41.7612 H   0  0  0  0  0  0  0  0  0  0  0  0
   56.7600   29.6292   43.3526 H   0  0  0  0  0  0  0  0  0  0  0  0
   56.8307   32.6865   46.3230 H   0  0  0  0  0  0  0  0  0  0  0  0
   59.4416   31.9021   45.9022 H   0  0  0  0  0  0  0  0  0  0  0  0
  1  2  1  0
  2  3  1  0
  3  4  1  0
  4  5  1  0
  3  6  1  0
  6  7  1  0
  7  8  1  0
  8  9  1  0
  9 10  2  0
 10 11  1  0
 11 12  2  0
 12 13  1  0
 13 14  2  0
 14 15  1  0
 15 16  2  0
 16 17  1  0
 16 18  1  0
 18 19  2  0
 19 20  1  0
 20 21  2  0
 21 22  1  0
 22 23  1  0
 23 24  1  0
 24 25  2  0
 25 26  1  0
 26 27  2  0
 27 28  1  0
 28 29  2  0
 21 30  1  0
 30 31  2  0
 31  9  1  0
 15 10  1  0
 31 18  1  0
 29 24  1  0
  1 32  1  0
  1 33  1  0
  1 34  1  0
  2 35  1  0
  2 36  1  0
  4 37  1  0
  4 38  1  0
  5 39  1  0
  5 40  1  0
  5 41  1  0
  6 42  1  0
  6 43  1  0
  7 44  1  0
  7 45  1  0
  8 46  1  0
 11 47  1  0
 12 48  1  0
 13 49  1  0
 14 50  1  0
 17 51  1  0
 17 52  1  0
 17 53  1  0
 19 54  1  0
 20 55  1  0
 22 56  1  0
 23 57  1  0
 23 58  1  0
 25 59  1  0
 26 60  1  0
 27 61  1  0
 29 62  1  0
 30 63  1  0
M  CHG  1  16   1
M  END
>  <UniqueID>  (17) 
17

>  <SMILES>  (17) 
CCN(CC)CCNc1c2ccccc2[n+](C)c2ccc(NCc3cccnc3)cc12

>  <Energy>  (17) 
99.0477108307118

>  <Genealogy>  (17) 
CCN(CC)CCNc1c2ccccc2[n+](C)c2ccc(NCc3cccnc3)cc12 (3D coordinates assigned)
CCN(CC)CCNc1c2ccccc2[n+](C)c2ccc(NCc3cccnc3)cc12 (optimized conformer: 99.0477108307118 kcal/mol)

>  <smiles>  (17) 
CCN(CC)CCNc1c2ccccc2[n+](C)c2ccc(NCc3cccnc3)cc12

>  <score_type>  (17) 
oracle

>  <origin>  (17) 
adg

>  <m_score__min__energy>  (17) 
-6.8300000000000001

>  <m_primary>  (17) 
energy

$$$$
17:0
     RDKit          3D

 52 54  0  0  0  0  0  0  0  0999 V2000
   62.0370   30.4420   50.2600 C   0  0  0  0  0  0  0  0  0  0  0  0
   62.1260   31.2500   49.0400 N   0  0  0  0  0  0  0  0  0  0  0  0
   63.0830   32.1650   48.7650 C   0  0  0  0  0  0  0  0  0  0  0  0
   64.3110   32.4080   49.5910 C   0  0  0  0  0  0  0  0  0  0  0  0
   65.0750   33.4190   48.9980 O   0  0  0  0  0  0  0  0  0  0  0  0
   62.7830   32.8360   47.5960 C   0  0  0  0  0  0  0  0  0  0  0  0
   61.5770   32.3350   47.1560 C   0  0  0  0  0  0  0  0  0  0  0  0
   61.1990   31.3540   48.0560 C   0  0  0  0  0  0  0  0  0  0  0  0
   59.9070   30.5680   47.9770 C   0  0  0  0  0  0  0  0  0  0  0  0
   60.0130   29.2540   47.2850 N   0  0  0  0  0  0  0  0  0  0  0  0
   60.5050   29.3450   45.8900 C   0  0  0  0  0  0  0  0  0  0  0  0
   59.4040   29.6910   44.8600 C   0  0  0  0  0  0  0  0  0  0  0  0
   58.0410   29.3200   45.3050 N   0  0  0  0  0  0  0  0  0  0  0  0
   57.1550   29.1820   44.1270 C   0  0  0  0  0  0  0  0  0  0  0  0
   56.4610   30.4920   43.7330 C   0  0  0  0  0  0  0  0  0  0  0  0
   56.3520   31.3730   44.8490 O   0  0  0  0  0  0  0  0  0  0  0  0
   57.2790   32.3880   45.1390 C   0  0  0  0  0  0  0  0  0  0  0  0
   58.0840   32.9800   44.1440 C   0  0  0  0  0  0  0  0  0  0  0  0
   58.9930   33.9880   44.4800 C   0  0  0  0  0  0  0  0  0  0  0  0
   59.1090   34.4160   45.8050 C   0  0  0  0  0  0  0  0  0  0  0  0
   59.9920   35.3930   46.1290 F   0  0  0  0  0  0  0  0  0  0  0  0
   58.3140   33.8350   46.7970 C   0  0  0  0  0  0  0  0  0  0  0  0
   57.4040   32.8270   46.4640 C   0  0  0  0  0  0  0  0  0  0  0  0
   58.0860   28.0950   46.1170 C   0  0  0  0  0  0  0  0  0  0  0  0
   58.8120   28.3850   47.4400 C   0  0  0  0  0  0  0  0  0  0  0  0
   62.1092   31.0978   51.1402 H   0  0  0  0  0  0  0  0  0  0  0  0
   61.0747   29.9093   50.2776 H   0  0  0  0  0  0  0  0  0  0  0  0
   62.8602   29.7126   50.2776 H   0  0  0  0  0  0  0  0  0  0  0  0
   64.0166   32.7168   50.6049 H   0  0  0  0  0  0  0  0  0  0  0  0
   64.9046   31.4838   49.6491 H   0  0  0  0  0  0  0  0  0  0  0  0
   65.2900   33.1010   48.0820 H   0  0  0  0  0  0  0  0  0  0  0  0
   63.3877   33.6167   47.1114 H   0  0  0  0  0  0  0  0  0  0  0  0
   61.0216   32.6535   46.2615 H   0  0  0  0  0  0  0  0  0  0  0  0
   59.5545   30.3862   49.0030 H   0  0  0  0  0  0  0  0  0  0  0  0
   59.2125   31.1761   47.3788 H   0  0  0  0  0  0  0  0  0  0  0  0
   60.7800   28.7600   47.8040 H   0  0  0  0  0  0  0  0  0  0  0  0
   61.2788   30.1255   45.8456 H   0  0  0  0  0  0  0  0  0  0  0  0
   60.8929   28.3511   45.6220 H   0  0  0  0  0  0  0  0  0  0  0  0
   59.4273   30.7753   44.6765 H   0  0  0  0  0  0  0  0  0  0  0  0
   59.6171   29.1094   43.9510 H   0  0  0  0  0  0  0  0  0  0  0  0
   57.7586   28.8366   43.2747 H   0  0  0  0  0  0  0  0  0  0  0  0
   56.3665   28.4633   44.3948 H   0  0  0  0  0  0  0  0  0  0  0  0
   57.0463   30.9847   42.9426 H   0  0  0  0  0  0  0  0  0  0  0  0
   55.4480   30.2559   43.3750 H   0  0  0  0  0  0  0  0  0  0  0  0
   57.9965   32.6474   43.0991 H   0  0  0  0  0  0  0  0  0  0  0  0
   59.6184   34.4452   43.6991 H   0  0  0  0  0  0  0  0  0  0  0  0
   58.4043   34.1710   47.8405 H   0  0  0  0  0  0  0  0  0  0  0  0
   56.7805   32.3745   47.2492 H   0  0  0  0  0  0  0  0  0  0  0  0
   57.0607   27.7567   46.3277 H   0  0  0  0  0  0  0  0  0  0  0  0
   58.6251   27.3096   45.5670 H   0  0  0  0  0  0  0  0  0  0  0  0
   58.1072   28.8845   48.1209 H   0  0  0  0  0  0  0  0  0  0  0  0
   59.1619   27.4193   47.8337 H   0  0  0  0  0  0  0  0  0  0  0  0
  1  2  1  0
  2  3  1  0
  3  4  1  0
  4  5  1  0
  3  6  2  0
  6  7  1  0
  7  8  2  0
  8  9  1  0
  9 10  1  0
 10 11  1  0
 11 12  1  0
 12 13  1  0
 13 14  1  0
 14 15  1  0
 15 16  1  0
 16 17  1  0
 17 18  2  0
 18 19  1  0
 19 20  2  0
 20 21  1  0
 20 22  1  0
 22 23  2  0
 13 24  1  0
 24 25  1  0
  8  2  1  0
 25 10  1  0
 23 17  1  0
  1 26  1  0
  1 27  1  0
  1 28  1  0
  4 29  1  0
  4 30  1  0
  5 31  1  0
  6 32  1  0
  7 33  1  0
  9 34  1  0
  9 35  1  0
 10 36  1  0
 11 37  1  0
 11 38  1  0
 12 39  1  0
 12 40  1  0
 14 41  1  0
 14 42  1  0
 15 43  1  0
 15 44  1  0
 18 45  1  0
 19 46  1  0
 22 47  1  0
 23 48  1  0
 24 49  1  0
 24 50  1  0
 25 51  1  0
 25 52  1  0
M  CHG  1  10   1
M  END
>  <UniqueID>  (18) 
18

>  <SMILES>  (18) 
Cn1c(CO)ccc1C[NH+]1CCN(CCOc2ccc(F)cc2)CC1

>  <Energy>  (18) 
91.07271053812673

>  <Genealogy>  (18) 
Cn1c(CO)ccc1C[NH+]1CCN(CCOc2ccc(F)cc2)CC1 (protonated)
Cn1c(CO)ccc1C[NH+]1CCN(CCOc2ccc(F)cc2)CC1 (3D coordinates assigned)
Cn1c(CO)ccc1C[NH+]1CCN(CCOc2ccc(F)cc2)CC1 (nonaromatic ring conformer: 91.07271053812673 kcal/mol)

>  <smiles>  (18) 
Cn1c(CO)ccc1CN1CCN(CCOc2ccc(F)cc2)CC1

>  <score_type>  (18) 
oracle

>  <origin>  (18) 
adg

>  <m_score__min__energy>  (18) 
-5.6100000000000003

>  <m_primary>  (18) 
energy

$$$$
18:0
     RDKit          3D

 54 57  0  0  1  0  0  0  0  0999 V2000
   57.0420   30.8110   43.3800 C   0  0  0  0  0  0  0  0  0  0  0  0
   56.4560   29.7910   44.3020 C   0  0  0  0  0  0  0  0  0  0  0  0
   57.4180   29.0040   45.0290 N   0  0  0  0  0  0  0  0  0  0  0  0
   57.4460   27.5640   44.7950 C   0  0  0  0  0  0  0  0  0  0  0  0
   58.1310   27.2340   43.4710 C   0  0  0  0  0  0  0  0  0  0  0  0
   58.3520   29.5260   45.9630 C   0  0  0  0  0  0  0  0  0  0  0  0
   59.3480   28.6700   46.3310 N   0  0  0  0  0  0  0  0  0  0  0  0
   60.2870   29.0180   47.1970 C   0  0  0  0  0  0  0  0  0  0  0  0
   60.2800   30.2610   47.7510 C   0  0  0  0  0  0  0  0  0  0  0  0
   61.3110   30.6210   48.7150 C   0  0  0  0  0  0  0  0  0  0  0  0
   61.4780   30.1010   49.9990 C   0  0  0  0  0  0  0  0  0  0  0  0
   62.5350   30.7120   50.5090 N   0  0  0  0  0  0  0  0  0  0  0  0
   63.0580   31.5830   49.6470 C   0  0  0  0  0  0  0  0  0  0  0  0
   64.1540   32.4260   49.7650 C   0  0  0  0  0  0  0  0  0  0  0  0
   64.5150   33.2530   48.7300 C   0  0  0  0  0  0  0  0  0  0  0  0
   63.7380   33.1960   47.5880 C   0  0  0  0  0  0  0  0  0  0  0  0
   62.6510   32.3430   47.5030 C   0  0  0  0  0  0  0  0  0  0  0  0
   62.3040   31.5360   48.5190 N   0  0  0  0  0  0  0  0  0  0  0  0
   59.2660   31.1390   47.3770 C   0  0  0  0  0  0  0  0  0  0  0  0
   59.2780   32.3080   47.8930 N   0  0  0  0  0  0  0  0  0  0  0  0
   58.9310   33.4620   47.0990 C   0  0  1  0  0  0  0  0  0  0  0  0
   59.4550   33.4790   45.7080 C   0  0  0  0  0  0  0  0  0  0  0  0
   58.9470   34.8010   45.0990 C   0  0  0  0  0  0  0  0  0  0  0  0
   57.4550   34.5850   44.8620 C   0  0  0  0  0  0  0  0  0  0  0  0
   56.9490   33.4830   45.6080 N   0  0  0  0  0  0  0  0  0  0  0  0
   57.3970   33.4370   46.9710 C   0  0  0  0  0  0  0  0  0  0  0  0
   58.3090   30.7570   46.4800 N   0  0  0  0  0  0  0  0  0  0  0  0
   57.5045   31.6160   43.9701 H   0  0  0  0  0  0  0  0  0  0  0  0
   57.8052   30.3365   42.7457 H   0  0  0  0  0  0  0  0  0  0  0  0
   56.2476   31.2313   42.7457 H   0  0  0  0  0  0  0  0  0  0  0  0
   55.8222   30.3153   45.0323 H   0  0  0  0  0  0  0  0  0  0  0  0
   55.8992   29.0863   43.6669 H   0  0  0  0  0  0  0  0  0  0  0  0
   57.9956   27.0778   45.6145 H   0  0  0  0  0  0  0  0  0  0  0  0
   56.4098   27.1974   44.7524 H   0  0  0  0  0  0  0  0  0  0  0  0
   59.1057   26.7644   43.6695 H   0  0  0  0  0  0  0  0  0  0  0  0
   57.5006   26.5408   42.8948 H   0  0  0  0  0  0  0  0  0  0  0  0
   58.2802   28.1591   42.8948 H   0  0  0  0  0  0  0  0  0  0  0  0
   61.0750   28.3005   47.4695 H   0  0  0  0  0  0  0  0  0  0  0  0
   60.8562   29.3370   50.4886 H   0  0  0  0  0  0  0  0  0  0  0  0
   64.7391   32.4318   50.6965 H   0  0  0  0  0  0  0  0  0  0  0  0
   65.3803   33.9280   48.8059 H   0  0  0  0  0  0  0  0  0  0  0  0
   63.9879   33.8398   46.7318 H   0  0  0  0  0  0  0  0  0  0  0  0
   62.0554   32.3257   46.5784 H   0  0  0  0  0  0  0  0  0  0  0  0
   59.3684   34.3341   47.6071 H   0  0  0  0  0  0  0  0  0  0  0  0
   60.5547   33.4530   45.7100 H   0  0  0  0  0  0  0  0  0  0  0  0
   59.1174   32.6051   45.1315 H   0  0  0  0  0  0  0  0  0  0  0  0
   59.1099   35.6351   45.7974 H   0  0  0  0  0  0  0  0  0  0  0  0
   59.4781   35.0567   44.1702 H   0  0  0  0  0  0  0  0  0  0  0  0
   56.9130   35.4944   45.1606 H   0  0  0  0  0  0  0  0  0  0  0  0
   57.3095   34.3667   43.7937 H   0  0  0  0  0  0  0  0  0  0  0  0
   56.9180   32.5660   45.1410 H   0  0  0  0  0  0  0  0  0  0  0  0
   56.9861   34.3065   47.5050 H   0  0  0  0  0  0  0  0  0  0  0  0
   57.0454   32.4880   47.4020 H   0  0  0  0  0  0  0  0  0  0  0  0
   57.5500   31.4070   46.1900 H   0  0  0  0  0  0  0  0  0  0  0  0
  1  2  1  0
  2  3  1  0
  3  4  1  0
  4  5  1  0
  3  6  1  0
  6  7  2  0
  7  8  1  0
  8  9  2  0
  9 10  1  0
 10 11  2  0
 11 12  1  0
 12 13  2  0
 13 14  1  0
 14 15  2  0
 15 16  1  0
 16 17  2  0
 17 18  1  0
  9 19  1  0
 19 20  2  0
 20 21  1  0
 21 22  1  0
 22 23  1  0
 23 24  1  0
 24 25  1  0
 25 26  1  0
 19 27  1  0
 27  6  1  0
 18 10  1  0
 26 21  1  0
 18 13  1  0
  1 28  1  0
  1 29  1  0
  1 30  1  0
  2 31  1  0
  2 32  1  0
  4 33  1  0
  4 34  1  0
  5 35  1  0
  5 36  1  0
  5 37  1  0
  8 38  1  0
 11 39  1  0
 14 40  1  0
 15 41  1  0
 16 42  1  0
 17 43  1  0
 21 44  1  1
 22 45  1  0
 22 46  1  0
 23 47  1  0
 23 48  1  0
 24 49  1  0
 24 50  1  0
 25 51  1  0
 26 52  1  0
 26 53  1  0
 27 54  1  0
M  END
>  <smiles>  (19) 
CCN(CC)c1ncc(-c2cnc3ccccn23)c(=NC2CCCNC2)[nH]1

>  <score_type>  (19) 
oracle

>  <origin>  (19) 
adg

>  <m_score__min__energy>  (19) 
-7.4500000000000002

>  <m_primary>  (19) 
energy

$$$$
19:0
     RDKit          3D

 44 44  0  0  0  0  0  0  0  0999 V2000
   59.4580   34.9400   46.4670 C   0  0  0  0  0  0  0  0  0  0  0  0
   60.7700   34.1750   46.3490 C   0  0  0  0  0  0  0  0  0  0  0  0
   61.0740   33.5170   47.6420 N   0  0  0  0  0  0  0  0  0  0  0  0
   62.3820   32.8210   47.6420 C   0  0  0  0  0  0  0  0  0  0  0  0
   63.4420   33.4970   46.7620 C   0  0  0  0  0  0  0  0  0  0  0  0
   60.8990   34.4040   48.8120 C   0  0  0  0  0  0  0  0  0  0  0  0
   59.9650   33.7660   49.8450 C   0  0  0  0  0  0  0  0  0  0  0  0
   58.9540   33.0230   49.1910 O   0  0  0  0  0  0  0  0  0  0  0  0
   59.0000   31.6660   49.5820 C   0  0  0  0  0  0  0  0  0  0  0  0
   59.2560   30.7790   48.3550 C   0  0  0  0  0  0  0  0  0  0  0  0
   59.4480   31.5520   47.1150 N   0  0  0  0  0  0  0  0  0  0  0  0
   58.6550   31.0290   46.0240 C   0  0  0  0  0  0  0  0  0  0  0  0
   57.5470   31.7490   45.5560 C   0  0  0  0  0  0  0  0  0  0  0  0
   56.8140   31.2680   44.5220 N   0  0  0  0  0  0  0  0  0  0  0  0
   57.1050   30.1130   43.9190 N   0  0  0  0  0  0  0  0  0  0  0  0
   56.2620   29.6680   42.8100 C   0  0  0  0  0  0  0  0  0  0  0  0
   58.1730   29.3620   44.3320 C   0  0  0  0  0  0  0  0  0  0  0  0
   58.4430   28.2700   43.7600 O   0  0  0  0  0  0  0  0  0  0  0  0
   58.9690   29.8090   45.3940 C   0  0  0  0  0  0  0  0  0  0  0  0
   60.3380   28.8270   45.9240 Cl  0  0  0  0  0  0  0  0  0  0  0  0
   59.2116   35.0837   47.5294 H   0  0  0  0  0  0  0  0  0  0  0  0
   59.5599   35.9203   45.9784 H   0  0  0  0  0  0  0  0  0  0  0  0
   58.6551   34.3685   45.9784 H   0  0  0  0  0  0  0  0  0  0  0  0
   60.6807   33.4125   45.5612 H   0  0  0  0  0  0  0  0  0  0  0  0
   61.5806   34.8729   46.0922 H   0  0  0  0  0  0  0  0  0  0  0  0
   62.7579   32.7888   48.6753 H   0  0  0  0  0  0  0  0  0  0  0  0
   62.2115   31.8174   47.2252 H   0  0  0  0  0  0  0  0  0  0  0  0
   64.1967   33.9783   47.4014 H   0  0  0  0  0  0  0  0  0  0  0  0
   63.9275   32.7414   46.1269 H   0  0  0  0  0  0  0  0  0  0  0  0
   62.9616   34.2559   46.1269 H   0  0  0  0  0  0  0  0  0  0  0  0
   61.8795   34.5857   49.2763 H   0  0  0  0  0  0  0  0  0  0  0  0
   60.4540   35.3509   48.4725 H   0  0  0  0  0  0  0  0  0  0  0  0
   60.5457   33.0961   50.4961 H   0  0  0  0  0  0  0  0  0  0  0  0
   59.4974   34.5592   50.4469 H   0  0  0  0  0  0  0  0  0  0  0  0
   59.8112   31.5235   50.3112 H   0  0  0  0  0  0  0  0  0  0  0  0
   58.0385   31.3867   50.0375 H   0  0  0  0  0  0  0  0  0  0  0  0
   60.1603   30.1800   48.5381 H   0  0  0  0  0  0  0  0  0  0  0  0
   58.3664   30.1475   48.2144 H   0  0  0  0  0  0  0  0  0  0  0  0
   59.1800   32.5480   47.2930 H   0  0  0  0  0  0  0  0  0  0  0  0
   60.4620   31.5680   46.8560 H   0  0  0  0  0  0  0  0  0  0  0  0
   57.2724   32.7041   46.0277 H   0  0  0  0  0  0  0  0  0  0  0  0
   55.3551   29.1893   43.2080 H   0  0  0  0  0  0  0  0  0  0  0  0
   55.9791   30.5343   42.1939 H   0  0  0  0  0  0  0  0  0  0  0  0
   56.8177   28.9457   42.1939 H   0  0  0  0  0  0  0  0  0  0  0  0
  1  2  1  0
  2  3  1  0
  3  4  1  0
  4  5  1  0
  3  6  1  0
  6  7  1  0
  7  8  1  0
  8  9  1  0
  9 10  1  0
 10 11  1  0
 11 12  1  0
 12 13  1  0
 13 14  2  0
 14 15  1  0
 15 16  1  0
 15 17  1  0
 17 18  2  0
 17 19  1  0
 19 20  1  0
 19 12  2  0
  1 21  1  0
  1 22  1  0
  1 23  1  0
  2 24  1  0
  2 25  1  0
  4 26  1  0
  4 27  1  0
  5 28  1  0
  5 29  1  0
  5 30  1  0
  6 31  1  0
  6 32  1  0
  7 33  1  0
  7 34  1  0
  9 35  1  0
  9 36  1  0
 10 37  1  0
 10 38  1  0
 11 39  1  0
 11 40  1  0
 13 41  1  0
 16 42  1  0
 16 43  1  0
 16 44  1  0
M  CHG  1  11   1
M  END
>  <UniqueID>  (20) 
19

>  <SMILES>  (20) 
CCN(CC)CCOCC[NH2+]c1cnn(C)c(=O)c1Cl

>  <Energy>  (20) 
46.03824242333734

>  <Genealogy>  (20) 
CCN(CC)CCOCC[NH2+]c1cnn(C)c(=O)c1Cl (protonated)
CCN(CC)CCOCC[NH2+]c1cnn(C)c(=O)c1Cl (3D coordinates assigned)
CCN(CC)CCOCC[NH2+]c1cnn(C)c(=O)c1Cl (optimized conformer: 46.03824242333734 kcal/mol)

>  <smiles>  (20) 
CCN(CC)CCOCCNc1cnn(C)c(=O)c1Cl

>  <score_type>  (20) 
oracle

>  <origin>  (20) 
adg

>  <m_score__min__energy>  (20) 
-3.3900000000000001

>  <m_primary>  (20) 
energy

$$$$
20:0
     RDKit          3D

 45 45  0  0  0  0  0  0  0  0999 V2000
   61.6202   30.2489   46.6720 H   0  0  0  0  0  0  0  0  0  0  0  0
   60.6040   29.9030   46.4320 C   0  0  0  0  0  0  0  0  0  0  0  0
   59.6480   30.7980   46.0760 N   0  0  0  0  0  0  0  0  0  0  0  0
   58.3710   30.4250   45.7710 C   0  0  0  0  0  0  0  0  0  0  0  0
   57.4940   31.3280   45.4340 N   0  0  0  0  0  0  0  0  0  0  0  0
   57.6970   32.3570   44.4160 C   0  0  0  0  0  0  0  0  0  0  0  0
   58.7639   32.3991   44.1515 H   0  0  0  0  0  0  0  0  0  0  0  0
   57.0965   32.1042   43.5297 H   0  0  0  0  0  0  0  0  0  0  0  0
   57.2520   33.7300   44.9430 C   0  0  0  0  0  0  0  0  0  0  0  0
   57.7121   34.5141   44.3237 H   0  0  0  0  0  0  0  0  0  0  0  0
   56.1541   33.7741   44.8907 H   0  0  0  0  0  0  0  0  0  0  0  0
   57.6670   33.9480   46.4100 C   0  0  0  0  0  0  0  0  0  0  0  0
   57.6595   35.0275   46.6214 H   0  0  0  0  0  0  0  0  0  0  0  0
   56.9496   33.4051   47.0429 H   0  0  0  0  0  0  0  0  0  0  0  0
   59.0310   33.4110   46.7090 N   0  0  0  0  0  0  0  0  0  0  0  0
   59.1090   32.4310   46.3470 H   0  0  0  0  0  0  0  0  0  0  0  0
   60.0870   34.1670   45.9890 C   0  0  0  0  0  0  0  0  0  0  0  0
   60.0029   33.9400   44.9160 H   0  0  0  0  0  0  0  0  0  0  0  0
   59.9227   35.2312   46.2139 H   0  0  0  0  0  0  0  0  0  0  0  0
   61.5190   33.8360   46.4410 C   0  0  0  0  0  0  0  0  0  0  0  0
   61.5634   33.8257   47.5401 H   0  0  0  0  0  0  0  0  0  0  0  0
   61.8067   32.8477   46.0531 H   0  0  0  0  0  0  0  0  0  0  0  0
   62.2112   34.5978   46.0531 H   0  0  0  0  0  0  0  0  0  0  0  0
   59.3140   33.3510   48.1670 C   0  0  0  0  0  0  0  0  0  0  0  0
   60.3913   33.1813   48.3105 H   0  0  0  0  0  0  0  0  0  0  0  0
   58.9924   34.3054   48.6094 H   0  0  0  0  0  0  0  0  0  0  0  0
   58.5420   32.2290   48.8690 C   0  0  0  0  0  0  0  0  0  0  0  0
   58.6266   32.3519   49.9588 H   0  0  0  0  0  0  0  0  0  0  0  0
   57.4827   32.2739   48.5761 H   0  0  0  0  0  0  0  0  0  0  0  0
   58.9625   31.2557   48.5761 H   0  0  0  0  0  0  0  0  0  0  0  0
   58.0140   29.0530   45.8180 C   0  0  0  0  0  0  0  0  0  0  0  0
   56.6460   28.5610   45.4980 C   0  0  0  0  0  0  0  0  0  0  0  0
   56.3590   27.3370   45.6030 O   0  0  0  0  0  0  0  0  0  0  0  0
   55.6670   29.4670   45.0760 O   0  0  0  0  0  0  0  0  0  0  0  0
   55.4290   29.7600   43.7030 C   0  0  0  0  0  0  0  0  0  0  0  0
   55.2275   30.8352   43.5874 H   0  0  0  0  0  0  0  0  0  0  0  0
   54.5608   29.1835   43.3509 H   0  0  0  0  0  0  0  0  0  0  0  0
   56.6530   29.3830   42.8830 C   0  0  0  0  0  0  0  0  0  0  0  0
   57.4825   29.1275   43.5587 H   0  0  0  0  0  0  0  0  0  0  0  0
   56.4165   28.5161   42.2486 H   0  0  0  0  0  0  0  0  0  0  0  0
   56.9453   30.2328   42.2486 H   0  0  0  0  0  0  0  0  0  0  0  0
   59.0050   28.1240   46.1860 C   0  0  0  0  0  0  0  0  0  0  0  0
   58.7574   27.0532   46.2318 H   0  0  0  0  0  0  0  0  0  0  0  0
   60.2970   28.5470   46.4930 C   0  0  0  0  0  0  0  0  0  0  0  0
   61.0668   27.8159   46.7808 H   0  0  0  0  0  0  0  0  0  0  0  0
  1  2  1  0
  2  3  1  0
  3  4  1  0
  4  5  2  0
  5  6  1  0
  6  7  1  0
  6  8  1  0
  6  9  1  0
  9 10  1  0
  9 11  1  0
  9 12  1  0
 12 13  1  0
 12 14  1  0
 12 15  1  0
 15 16  1  0
 15 17  1  0
 17 18  1  0
 17 19  1  0
 17 20  1  0
 20 21  1  0
 20 22  1  0
 20 23  1  0
 15 24  1  0
 24 25  1  0
 24 26  1  0
 24 27  1  0
 27 28  1  0
 27 29  1  0
 27 30  1  0
  4 31  1  0
 31 32  1  0
 32 33  2  0
 32 34  1  0
 34 35  1  0
 35 36  1  0
 35 37  1  0
 35 38  1  0
 38 39  1  0
 38 40  1  0
 38 41  1  0
 31 42  2  0
 42 43  1  0
 42 44  1  0
 44 45  1  0
 44  2  2  0
M  CHG  2   3  -1  15   1
M  END
>  <UniqueID>  (21) 
20

>  <SMILES>  (21) 
CCOC(=O)c1ccc[n-]/c1=N\CCC[NH+](CC)CC

>  <Energy>  (21) 
41.532676616934346

>  <Genealogy>  (21) 
CCOC(=O)c1ccc[n-]c1=NCCC[NH+](CC)CC (protonated)
CCOC(=O)c1ccc[n-]/c1=N\CCC[NH+](CC)CC (cis-trans isomerization)
CCOC(=O)c1ccc[n-]/c1=N\CCC[NH+](CC)CC (3D coordinates assigned)
CCOC(=O)c1ccc[n-]/c1=N\CCC[NH+](CC)CC (optimized conformer: 41.532676616934346 kcal/mol)

>  <smiles>  (21) 
CCOC(=O)c1ccc[nH]c1=NCCCN(CC)CC

>  <score_type>  (21) 
oracle

>  <origin>  (21) 
adg

>  <m_score__min__energy>  (21) 
-5.0499999999999998

>  <m_primary>  (21) 
energy

$$$$
21:0
     RDKit          3D

 50 52  0  0  0  0  0  0  0  0999 V2000
   60.0200   34.2190   49.4010 C   0  0  0  0  0  0  0  0  0  0  0  0
   61.5210   34.2140   49.1210 C   0  0  0  0  0  0  0  0  0  0  0  0
   61.9050   32.9800   48.3960 N   0  0  0  0  0  0  0  0  0  0  0  0
   63.3100   33.0490   47.9330 C   0  0  0  0  0  0  0  0  0  0  0  0
   63.3970   33.8240   46.6220 C   0  0  0  0  0  0  0  0  0  0  0  0
   61.6760   31.7760   49.2300 C   0  0  0  0  0  0  0  0  0  0  0  0
   60.8760   30.7320   48.4340 C   0  0  0  0  0  0  0  0  0  0  0  0
   61.1920   30.7580   46.9940 N   0  0  0  0  0  0  0  0  0  0  0  0
   59.9900   30.6800   46.1690 C   0  0  0  0  0  0  0  0  0  0  0  0
   59.4780   29.4270   45.7210 C   0  0  0  0  0  0  0  0  0  0  0  0
   60.1070   28.1920   46.0340 C   0  0  0  0  0  0  0  0  0  0  0  0
   59.5450   26.9770   45.6530 C   0  0  0  0  0  0  0  0  0  0  0  0
   58.3460   26.9500   44.9610 C   0  0  0  0  0  0  0  0  0  0  0  0
   57.7230   28.1390   44.6040 C   0  0  0  0  0  0  0  0  0  0  0  0
   58.2940   29.3980   44.9280 C   0  0  0  0  0  0  0  0  0  0  0  0
   57.7130   30.5730   44.4950 N   0  0  0  0  0  0  0  0  0  0  0  0
   56.7010   30.5410   43.4130 C   0  0  0  0  0  0  0  0  0  0  0  0
   58.0990   31.7790   45.0380 C   0  0  0  0  0  0  0  0  0  0  0  0
   57.3360   32.9570   44.8260 C   0  0  0  0  0  0  0  0  0  0  0  0
   57.7610   34.1910   45.3070 C   0  0  0  0  0  0  0  0  0  0  0  0
   58.9470   34.2880   46.0170 C   0  0  0  0  0  0  0  0  0  0  0  0
   59.3690   35.4950   46.4680 F   0  0  0  0  0  0  0  0  0  0  0  0
   59.6950   33.1440   46.2870 C   0  0  0  0  0  0  0  0  0  0  0  0
   59.2740   31.8650   45.8380 C   0  0  0  0  0  0  0  0  0  0  0  0
   59.8497   34.2196   50.4877 H   0  0  0  0  0  0  0  0  0  0  0  0
   59.5675   35.1187   48.9585 H   0  0  0  0  0  0  0  0  0  0  0  0
   59.5615   33.3224   48.9585 H   0  0  0  0  0  0  0  0  0  0  0  0
   61.7786   35.0901   48.5078 H   0  0  0  0  0  0  0  0  0  0  0  0
   62.0634   34.2505   50.0773 H   0  0  0  0  0  0  0  0  0  0  0  0
   63.9191   33.5563   48.6957 H   0  0  0  0  0  0  0  0  0  0  0  0
   63.6842   32.0274   47.7707 H   0  0  0  0  0  0  0  0  0  0  0  0
   63.5173   34.8960   46.8371 H   0  0  0  0  0  0  0  0  0  0  0  0
   64.2607   33.4672   46.0418 H   0  0  0  0  0  0  0  0  0  0  0  0
   62.4757   33.6676   46.0418 H   0  0  0  0  0  0  0  0  0  0  0  0
   62.6450   31.3463   49.5240 H   0  0  0  0  0  0  0  0  0  0  0  0
   61.1074   32.0603   50.1277 H   0  0  0  0  0  0  0  0  0  0  0  0
   61.1097   29.7322   48.8287 H   0  0  0  0  0  0  0  0  0  0  0  0
   59.8083   30.9712   48.5468 H   0  0  0  0  0  0  0  0  0  0  0  0
   61.8280   29.9620   46.7660 H   0  0  0  0  0  0  0  0  0  0  0  0
   61.7970   31.5750   46.7730 H   0  0  0  0  0  0  0  0  0  0  0  0
   61.0570   28.1962   46.5885 H   0  0  0  0  0  0  0  0  0  0  0  0
   60.0551   26.0349   45.9025 H   0  0  0  0  0  0  0  0  0  0  0  0
   57.8868   25.9868   44.6939 H   0  0  0  0  0  0  0  0  0  0  0  0
   56.7680   28.1046   44.0593 H   0  0  0  0  0  0  0  0  0  0  0  0
   55.6937   30.5092   43.8539 H   0  0  0  0  0  0  0  0  0  0  0  0
   56.8006   31.4427   42.7910 H   0  0  0  0  0  0  0  0  0  0  0  0
   56.8574   29.6474   42.7910 H   0  0  0  0  0  0  0  0  0  0  0  0
   56.3891   32.8927   44.2699 H   0  0  0  0  0  0  0  0  0  0  0  0
   57.1551   35.0906   45.1236 H   0  0  0  0  0  0  0  0  0  0  0  0
   60.6301   33.2337   46.8593 H   0  0  0  0  0  0  0  0  0  0  0  0
  1  2  1  0
  2  3  1  0
  3  4  1  0
  4  5  1  0
  3  6  1  0
  6  7  1  0
  7  8  1  0
  8  9  1  0
  9 10  2  0
 10 11  1  0
 11 12  2  0
 12 13  1  0
 13 14  2  0
 14 15  1  0
 15 16  2  0
 16 17  1  0
 16 18  1  0
 18 19  2  0
 19 20  1  0
 20 21  2  0
 21 22  1  0
 21 23  1  0
 23 24  2  0
 24  9  1  0
 15 10  1  0
 24 18  1  0
  1 25  1  0
  1 26  1  0
  1 27  1  0
  2 28  1  0
  2 29  1  0
  4 30  1  0
  4 31  1  0
  5 32  1  0
  5 33  1  0
  5 34  1  0
  6 35  1  0
  6 36  1  0
  7 37  1  0
  7 38  1  0
  8 39  1  0
  8 40  1  0
 11 41  1  0
 12 42  1  0
 13 43  1  0
 14 44  1  0
 17 45  1  0
 17 46  1  0
 17 47  1  0
 19 48  1  0
 20 49  1  0
 23 50  1  0
M  CHG  2   8   1  16   1
M  END
>  <UniqueID>  (22) 
21

>  <SMILES>  (22) 
CCN(CC)CC[NH2+]c1c2ccccc2[n+](C)c2ccc(F)cc12

>  <Energy>  (22) 
79.07969322500063

>  <Genealogy>  (22) 
CCN(CC)CC[NH2+]c1c2ccccc2[n+](C)c2ccc(F)cc12 (protonated)
CCN(CC)CC[NH2+]c1c2ccccc2[n+](C)c2ccc(F)cc12 (3D coordinates assigned)
CCN(CC)CC[NH2+]c1c2ccccc2[n+](C)c2ccc(F)cc12 (optimized conformer: 79.07969322500063 kcal/mol)

>  <smiles>  (22) 
CCN(CC)CCNc1c2ccccc2[n+](C)c2ccc(F)cc12

>  <score_type>  (22) 
oracle

>  <origin>  (22) 
adg

>  <m_score__min__energy>  (22) 
-3.8500000000000001

>  <m_primary>  (22) 
energy

$$$$
22:0
     RDKit          3D

 43 44  0  0  0  0  0  0  0  0999 V2000
   57.7300   28.1890   44.0010 C   0  0  0  0  0  0  0  0  0  0  0  0
   57.0370   28.7320   45.2450 C   0  0  0  0  0  0  0  0  0  0  0  0
   56.0460   29.6740   44.8790 O   0  0  0  0  0  0  0  0  0  0  0  0
   56.3490   30.2540   43.6270 C   0  0  0  0  0  0  0  0  0  0  0  0
   57.4770   31.2730   43.8000 C   0  0  0  0  0  0  0  0  0  0  0  0
   57.4880   31.8090   45.1780 N   0  0  0  0  0  0  0  0  0  0  0  0
   58.8380   31.6830   45.7760 C   0  0  0  0  0  0  0  0  0  0  0  0
   58.9700   32.5660   47.0250 C   0  0  0  0  0  0  0  0  0  0  0  0
   58.7700   34.0100   46.7190 N   0  0  0  0  0  0  0  0  0  0  0  0
   60.0220   34.8090   46.7960 C   0  0  0  0  0  0  0  0  0  0  0  0
   61.1210   34.1870   47.6430 C   0  0  0  0  0  0  0  0  0  0  0  0
   60.9810   34.1040   49.0410 C   0  0  0  0  0  0  0  0  0  0  0  0
   61.9900   33.5310   49.8210 C   0  0  0  0  0  0  0  0  0  0  0  0
   63.1560   33.0540   49.2200 C   0  0  0  0  0  0  0  0  0  0  0  0
   63.3220   33.1610   47.8380 C   0  0  0  0  0  0  0  0  0  0  0  0
   62.3180   33.7330   47.0500 C   0  0  0  0  0  0  0  0  0  0  0  0
   62.5160   33.8440   45.7120 F   0  0  0  0  0  0  0  0  0  0  0  0
   58.0190   34.2490   45.4600 C   0  0  0  0  0  0  0  0  0  0  0  0
   56.9290   33.1850   45.2580 C   0  0  0  0  0  0  0  0  0  0  0  0
   58.5631   27.5362   44.3008 H   0  0  0  0  0  0  0  0  0  0  0  0
   57.0096   27.6124   43.4021 H   0  0  0  0  0  0  0  0  0  0  0  0
   58.1175   29.0264   43.4021 H   0  0  0  0  0  0  0  0  0  0  0  0
   56.5653   27.9013   45.7903 H   0  0  0  0  0  0  0  0  0  0  0  0
   57.7828   29.2253   45.8856 H   0  0  0  0  0  0  0  0  0  0  0  0
   56.6680   29.4686   42.9260 H   0  0  0  0  0  0  0  0  0  0  0  0
   55.4558   30.7579   43.2291 H   0  0  0  0  0  0  0  0  0  0  0  0
   58.4406   30.7838   43.5948 H   0  0  0  0  0  0  0  0  0  0  0  0
   57.3147   32.1040   43.0978 H   0  0  0  0  0  0  0  0  0  0  0  0
   59.0105   30.6336   46.0572 H   0  0  0  0  0  0  0  0  0  0  0  0
   59.5820   32.0101   45.0348 H   0  0  0  0  0  0  0  0  0  0  0  0
   58.2155   32.2525   47.7614 H   0  0  0  0  0  0  0  0  0  0  0  0
   59.9899   32.4430   47.4183 H   0  0  0  0  0  0  0  0  0  0  0  0
   58.1630   34.3860   47.4870 H   0  0  0  0  0  0  0  0  0  0  0  0
   60.4088   34.9393   45.7745 H   0  0  0  0  0  0  0  0  0  0  0  0
   59.7551   35.7591   47.2819 H   0  0  0  0  0  0  0  0  0  0  0  0
   60.0718   34.4925   49.5231 H   0  0  0  0  0  0  0  0  0  0  0  0
   61.8646   33.4559   50.9112 H   0  0  0  0  0  0  0  0  0  0  0  0
   63.9436   32.5941   49.8349 H   0  0  0  0  0  0  0  0  0  0  0  0
   64.2459   32.7941   47.3671 H   0  0  0  0  0  0  0  0  0  0  0  0
   57.5482   35.2421   45.5051 H   0  0  0  0  0  0  0  0  0  0  0  0
   58.7229   34.1939   44.6165 H   0  0  0  0  0  0  0  0  0  0  0  0
   56.2276   33.2328   46.1040 H   0  0  0  0  0  0  0  0  0  0  0  0
   56.4247   33.3982   44.3039 H   0  0  0  0  0  0  0  0  0  0  0  0
  1  2  1  0
  2  3  1  0
  3  4  1  0
  4  5  1  0
  5  6  1  0
  6  7  1  0
  7  8  1  0
  8  9  1  0
  9 10  1  0
 10 11  1  0
 11 12  2  0
 12 13  1  0
 13 14  2  0
 14 15  1  0
 15 16  2  0
 16 17  1  0
  9 18  1  0
 18 19  1  0
 19  6  1  0
 16 11  1  0
  1 20  1  0
  1 21  1  0
  1 22  1  0
  2 23  1  0
  2 24  1  0
  4 25  1  0
  4 26  1  0
  5 27  1  0
  5 28  1  0
  7 29  1  0
  7 30  1  0
  8 31  1  0
  8 32  1  0
  9 33  1  0
 10 34  1  0
 10 35  1  0
 12 36  1  0
 13 37  1  0
 14 38  1  0
 15 39  1  0
 18 40  1  0
 18 41  1  0
 19 42  1  0
 19 43  1  0
M  CHG  1   9   1
M  END
>  <UniqueID>  (23) 
22

>  <SMILES>  (23) 
CCOCCN1CC[NH+](Cc2ccccc2F)CC1

>  <Energy>  (23) 
56.59532641014316

>  <Genealogy>  (23) 
CCOCCN1CC[NH+](Cc2ccccc2F)CC1 (protonated)
CCOCCN1CC[NH+](Cc2ccccc2F)CC1 (3D coordinates assigned)
CCOCCN1CC[NH+](Cc2ccccc2F)CC1 (nonaromatic ring conformer: 56.59532641014316 kcal/mol)

>  <smiles>  (23) 
CCOCCN1CCN(Cc2ccccc2F)CC1

>  <score_type>  (23) 
oracle

>  <origin>  (23) 
adg

>  <m_score__min__energy>  (23) 
-5.2699999999999996

>  <m_primary>  (23) 
energy

$$$$
23:0
     RDKit          3D

 52 53  0  0  0  0  0  0  0  0999 V2000
   62.0710   33.0700   47.2500 C   0  0  0  0  0  0  0  0  0  0  0  0
   61.0480   31.9270   47.1980 C   0  0  0  0  0  0  0  0  0  0  0  0
   59.6460   32.3820   47.4020 N   0  0  0  0  0  0  0  0  0  0  0  0
   58.8940   31.6270   48.4410 C   0  0  0  0  0  0  0  0  0  0  0  0
   59.3820   30.1960   48.6870 C   0  0  0  0  0  0  0  0  0  0  0  0
   59.4850   33.8670   47.5290 C   0  0  0  0  0  0  0  0  0  0  0  0
   59.1130   34.6470   46.2460 C   0  0  0  0  0  0  0  0  0  0  0  0
   59.1790   33.8110   45.1060 O   0  0  0  0  0  0  0  0  0  0  0  0
   57.9610   33.8270   44.3930 C   0  0  0  0  0  0  0  0  0  0  0  0
   57.5120   32.3920   44.1300 C   0  0  0  0  0  0  0  0  0  0  0  0
   57.5240   31.6220   45.3340 O   0  0  0  0  0  0  0  0  0  0  0  0
   57.7090   30.2320   45.4150 C   0  0  0  0  0  0  0  0  0  0  0  0
   59.0110   29.7420   45.3810 C   0  0  0  0  0  0  0  0  0  0  0  0
   59.2890   28.3630   45.4570 C   0  0  0  0  0  0  0  0  0  0  0  0
   60.7320   27.9650   45.2600 C   0  0  0  0  0  0  0  0  0  0  0  0
   58.2080   27.4380   45.6460 C   0  0  0  0  0  0  0  0  0  0  0  0
   58.3350   26.0280   45.8620 C   0  0  0  0  0  0  0  0  0  0  0  0
   59.6380   25.3080   46.1160 C   0  0  0  0  0  0  0  0  0  0  0  0
   57.1720   25.2430   45.9120 C   0  0  0  0  0  0  0  0  0  0  0  0
   55.9240   25.8450   45.8240 C   0  0  0  0  0  0  0  0  0  0  0  0
   54.8800   25.1440   45.8780 O   0  0  0  0  0  0  0  0  0  0  0  0
   55.8250   27.1570   45.6970 O   0  0  0  0  0  0  0  0  0  0  0  0
   56.8800   27.9590   45.6170 C   0  0  0  0  0  0  0  0  0  0  0  0
   56.6450   29.3290   45.5050 C   0  0  0  0  0  0  0  0  0  0  0  0
   62.2920   33.3169   48.2989 H   0  0  0  0  0  0  0  0  0  0  0  0
   62.9964   32.7572   46.7442 H   0  0  0  0  0  0  0  0  0  0  0  0
   61.6579   33.9551   46.7442 H   0  0  0  0  0  0  0  0  0  0  0  0
   61.1175   31.4408   46.2138 H   0  0  0  0  0  0  0  0  0  0  0  0
   61.2891   31.2364   48.0195 H   0  0  0  0  0  0  0  0  0  0  0  0
   59.1510   32.1390   46.5100 H   0  0  0  0  0  0  0  0  0  0  0  0
   58.9724   32.1810   49.3881 H   0  0  0  0  0  0  0  0  0  0  0  0
   57.8628   31.5386   48.0684 H   0  0  0  0  0  0  0  0  0  0  0  0
   59.4451   30.0111   49.7695 H   0  0  0  0  0  0  0  0  0  0  0  0
   58.6756   29.4847   48.2341 H   0  0  0  0  0  0  0  0  0  0  0  0
   60.3758   30.0645   48.2341 H   0  0  0  0  0  0  0  0  0  0  0  0
   58.6942   34.0525   48.2708 H   0  0  0  0  0  0  0  0  0  0  0  0
   60.4816   34.2387   47.8095 H   0  0  0  0  0  0  0  0  0  0  0  0
   58.0896   35.0375   46.3467 H   0  0  0  0  0  0  0  0  0  0  0  0
   59.8297   35.4715   46.1174 H   0  0  0  0  0  0  0  0  0  0  0  0
   57.1951   34.3490   44.9855 H   0  0  0  0  0  0  0  0  0  0  0  0
   58.1009   34.3508   43.4359 H   0  0  0  0  0  0  0  0  0  0  0  0
   56.4909   32.4040   43.7210 H   0  0  0  0  0  0  0  0  0  0  0  0
   58.2091   31.9327   43.4137 H   0  0  0  0  0  0  0  0  0  0  0  0
   59.8469   30.4515   45.2923 H   0  0  0  0  0  0  0  0  0  0  0  0
   61.2129   27.8324   46.2404 H   0  0  0  0  0  0  0  0  0  0  0  0
   60.7784   27.0205   44.6980 H   0  0  0  0  0  0  0  0  0  0  0  0
   61.2560   28.7521   44.6980 H   0  0  0  0  0  0  0  0  0  0  0  0
   59.8017   25.2176   47.2000 H   0  0  0  0  0  0  0  0  0  0  0  0
   59.5963   24.3049   45.6665 H   0  0  0  0  0  0  0  0  0  0  0  0
   60.4651   25.8771   45.6665 H   0  0  0  0  0  0  0  0  0  0  0  0
   57.2496   24.1512   46.0209 H   0  0  0  0  0  0  0  0  0  0  0  0
   55.6109   29.7036   45.4872 H   0  0  0  0  0  0  0  0  0  0  0  0
  1  2  1  0
  2  3  1  0
  3  4  1  0
  4  5  1  0
  3  6  1  0
  6  7  1  0
  7  8  1  0
  8  9  1  0
  9 10  1  0
 10 11  1  0
 11 12  1  0
 12 13  2  0
 13 14  1  0
 14 15  1  0
 14 16  2  0
 16 17  1  0
 17 18  1  0
 17 19  2  0
 19 20  1  0
 20 21  2  0
 20 22  1  0
 22 23  1  0
 23 24  2  0
 24 12  1  0
 23 16  1  0
  1 25  1  0
  1 26  1  0
  1 27  1  0
  2 28  1  0
  2 29  1  0
  3 30  1  0
  4 31  1  0
  4 32  1  0
  5 33  1  0
  5 34  1  0
  5 35  1  0
  6 36  1  0
  6 37  1  0
  7 38  1  0
  7 39  1  0
  9 40  1  0
  9 41  1  0
 10 42  1  0
 10 43  1  0
 13 44  1  0
 15 45  1  0
 15 46  1  0
 15 47  1  0
 18 48  1  0
 18 49  1  0
 18 50  1  0
 19 51  1  0
 24 52  1  0
M  CHG  1   3   1
M  END
>  <UniqueID>  (24) 
23

>  <SMILES>  (24) 
CC[NH+](CC)CCOCCOc1cc(C)c2c(C)cc(=O)oc2c1

>  <Energy>  (24) 
76.77788186694555

>  <Genealogy>  (24) 
CC[NH+](CC)CCOCCOc1cc(C)c2c(C)cc(=O)oc2c1 (protonated)
CC[NH+](CC)CCOCCOc1cc(C)c2c(C)cc(=O)oc2c1 (3D coordinates assigned)
CC[NH+](CC)CCOCCOc1cc(C)c2c(C)cc(=O)oc2c1 (optimized conformer: 76.77788186694555 kcal/mol)

>  <smiles>  (24) 
CCN(CC)CCOCCOc1cc(C)c2c(C)cc(=O)oc2c1

>  <score_type>  (24) 
oracle

>  <origin>  (24) 
adg

>  <m_score__min__energy>  (24) 
-5.6500000000000004

>  <m_primary>  (24) 
energy

$$$$
24:0
     RDKit          3D

 45 46  0  0  0  0  0  0  0  0999 V2000
   57.1170   31.1530   42.8700 C   0  0  0  0  0  0  0  0  0  0  0  0
   56.1680   30.1280   43.4730 C   0  0  0  0  0  0  0  0  0  0  0  0
   56.3960   30.0540   44.8650 O   0  0  0  0  0  0  0  0  0  0  0  0
   57.6420   29.4380   45.1340 C   0  0  0  0  0  0  0  0  0  0  0  0
   58.1430   29.7940   46.5380 C   0  0  0  0  0  0  0  0  0  0  0  0
   59.1430   30.8610   46.4760 N   0  0  0  0  0  0  0  0  0  0  0  0
   60.4540   30.7340   46.7950 C   0  0  0  0  0  0  0  0  0  0  0  0
   61.0780   31.9740   46.7530 C   0  0  0  0  0  0  0  0  0  0  0  0
   62.8010   32.3160   47.1300 S   0  0  0  0  0  0  0  0  0  0  0  0
   62.4720   33.4950   48.4960 C   0  0  0  0  0  0  0  0  0  0  0  0
   63.7210   33.7940   49.3430 C   0  0  0  0  0  0  0  0  0  0  0  0
   64.6690   32.6590   49.4400 N   0  0  0  0  0  0  0  0  0  0  0  0
   64.0350   31.5460   50.1680 C   0  0  0  0  0  0  0  0  0  0  0  0
   65.9250   33.0390   50.1170 C   0  0  0  0  0  0  0  0  0  0  0  0
   60.1080   32.8770   46.3720 C   0  0  0  0  0  0  0  0  0  0  0  0
   60.1740   34.2520   46.1410 C   0  0  0  0  0  0  0  0  0  0  0  0
   58.9900   34.9130   45.7690 C   0  0  0  0  0  0  0  0  0  0  0  0
   57.7830   34.1930   45.6300 C   0  0  0  0  0  0  0  0  0  0  0  0
   57.7490   32.8050   45.8550 C   0  0  0  0  0  0  0  0  0  0  0  0
   58.9400   32.1720   46.2220 C   0  0  0  0  0  0  0  0  0  0  0  0
   57.6250   31.7016   43.6768 H   0  0  0  0  0  0  0  0  0  0  0  0
   57.8651   30.6390   42.2486 H   0  0  0  0  0  0  0  0  0  0  0  0
   56.5470   31.8594   42.2486 H   0  0  0  0  0  0  0  0  0  0  0  0
   55.1279   30.4329   43.2852 H   0  0  0  0  0  0  0  0  0  0  0  0
   56.3437   29.1436   43.0145 H   0  0  0  0  0  0  0  0  0  0  0  0
   57.5264   28.3466   45.0600 H   0  0  0  0  0  0  0  0  0  0  0  0
   58.3762   29.8002   44.3993 H   0  0  0  0  0  0  0  0  0  0  0  0
   57.2932   30.1308   47.1499 H   0  0  0  0  0  0  0  0  0  0  0  0
   58.6056   28.9017   46.9850 H   0  0  0  0  0  0  0  0  0  0  0  0
   60.9515   29.7866   47.0501 H   0  0  0  0  0  0  0  0  0  0  0  0
   62.1063   34.4386   48.0647 H   0  0  0  0  0  0  0  0  0  0  0  0
   61.7266   33.0319   49.1593 H   0  0  0  0  0  0  0  0  0  0  0  0
   64.2484   34.6477   48.8923 H   0  0  0  0  0  0  0  0  0  0  0  0
   63.3703   34.0041   50.3642 H   0  0  0  0  0  0  0  0  0  0  0  0
   64.8930   32.3130   48.4820 H   0  0  0  0  0  0  0  0  0  0  0  0
   64.1309   31.7143   51.2508 H   0  0  0  0  0  0  0  0  0  0  0  0
   62.9700   31.4909   49.8984 H   0  0  0  0  0  0  0  0  0  0  0  0
   64.5308   30.6018   49.8984 H   0  0  0  0  0  0  0  0  0  0  0  0
   65.7818   32.9957   51.2068 H   0  0  0  0  0  0  0  0  0  0  0  0
   66.7246   32.3426   49.8243 H   0  0  0  0  0  0  0  0  0  0  0  0
   66.2044   34.0619   49.8243 H   0  0  0  0  0  0  0  0  0  0  0  0
   61.1215   34.8007   46.2465 H   0  0  0  0  0  0  0  0  0  0  0  0
   59.0039   35.9974   45.5851 H   0  0  0  0  0  0  0  0  0  0  0  0
   56.8621   34.7220   45.3435 H   0  0  0  0  0  0  0  0  0  0  0  0
   56.8143   32.2354   45.7456 H   0  0  0  0  0  0  0  0  0  0  0  0
  1  2  1  0
  2  3  1  0
  3  4  1  0
  4  5  1  0
  5  6  1  0
  6  7  1  0
  7  8  2  0
  8  9  1  0
  9 10  1  0
 10 11  1  0
 11 12  1  0
 12 13  1  0
 12 14  1  0
  8 15  1  0
 15 16  2  0
 16 17  1  0
 17 18  2  0
 18 19  1  0
 19 20  2  0
 20  6  1  0
 20 15  1  0
  1 21  1  0
  1 22  1  0
  1 23  1  0
  2 24  1  0
  2 25  1  0
  4 26  1  0
  4 27  1  0
  5 28  1  0
  5 29  1  0
  7 30  1  0
 10 31  1  0
 10 32  1  0
 11 33  1  0
 11 34  1  0
 12 35  1  0
 13 36  1  0
 13 37  1  0
 13 38  1  0
 14 39  1  0
 14 40  1  0
 14 41  1  0
 16 42  1  0
 17 43  1  0
 18 44  1  0
 19 45  1  0
M  CHG  1  12   1
M  END
>  <UniqueID>  (25) 
24

>  <SMILES>  (25) 
CCOCCn1cc(SCC[NH+](C)C)c2ccccc21

>  <Energy>  (25) 
70.58172861075487

>  <Genealogy>  (25) 
CCOCCn1cc(SCC[NH+](C)C)c2ccccc21 (protonated)
CCOCCn1cc(SCC[NH+](C)C)c2ccccc21 (3D coordinates assigned)
CCOCCn1cc(SCC[NH+](C)C)c2ccccc21 (optimized conformer: 70.58172861075487 kcal/mol)

>  <smiles>  (25) 
CCOCCn1cc(SCCN(C)C)c2ccccc21

>  <score_type>  (25) 
oracle

>  <origin>  (25) 
adg

>  <m_score__min__energy>  (25) 
-5.4199999999999999

>  <m_primary>  (25) 
energy

$$$$
25:0
     RDKit          3D

 64 65  0  0  0  0  0  0  0  0999 V2000
   59.6530   35.0290   45.9310 C   0  0  0  0  0  0  0  0  0  0  0  0
   59.2350   34.5280   47.3050 C   0  0  0  0  0  0  0  0  0  0  0  0
   58.7330   33.2130   47.1870 O   0  0  0  0  0  0  0  0  0  0  0  0
   58.3050   32.7230   48.4450 C   0  0  0  0  0  0  0  0  0  0  0  0
   58.9350   31.3480   48.7260 C   0  0  0  0  0  0  0  0  0  0  0  0
   60.0260   30.9490   47.7850 N   0  0  0  0  0  0  0  0  0  0  0  0
   61.2910   30.7580   48.5620 C   0  0  0  0  0  0  0  0  0  0  0  0
   62.4180   31.7230   48.1380 C   0  0  0  0  0  0  0  0  0  0  0  0
   62.0390   32.4320   46.9730 O   0  0  0  0  0  0  0  0  0  0  0  0
   62.8650   33.5620   46.7570 C   0  0  0  0  0  0  0  0  0  0  0  0
   63.7530   33.8150   47.9720 C   0  0  0  0  0  0  0  0  0  0  0  0
   59.7660   29.7370   46.9290 C   0  0  0  0  0  0  0  0  0  0  0  0
   60.6370   29.6340   45.6510 C   0  0  0  0  0  0  0  0  0  0  0  0
   60.6090   28.2160   45.0310 C   0  0  0  0  0  0  0  0  0  0  0  0
   59.3850   27.4590   45.3670 N   0  0  0  0  0  0  0  0  0  0  0  0
   58.1870   27.9330   44.6350 C   0  0  0  0  0  0  0  0  0  0  0  0
   57.0300   28.1580   45.6130 C   0  0  0  0  0  0  0  0  0  0  0  0
   56.4070   29.4670   45.4040 N   0  0  0  0  0  0  0  0  0  0  0  0
   56.8760   30.4550   44.4650 C   0  0  0  0  0  0  0  0  0  0  0  0
   56.5750   30.3780   43.0900 C   0  0  0  0  0  0  0  0  0  0  0  0
   57.0490   31.3540   42.2080 C   0  0  0  0  0  0  0  0  0  0  0  0
   57.8190   32.4180   42.6850 C   0  0  0  0  0  0  0  0  0  0  0  0
   58.1150   32.5080   44.0480 C   0  0  0  0  0  0  0  0  0  0  0  0
   57.6430   31.5350   44.9330 C   0  0  0  0  0  0  0  0  0  0  0  0
   59.1880   27.2640   46.8300 C   0  0  0  0  0  0  0  0  0  0  0  0
   59.7800   28.3990   47.6970 C   0  0  0  0  0  0  0  0  0  0  0  0
   60.3539   35.8691   46.0447 H   0  0  0  0  0  0  0  0  0  0  0  0
   60.1433   34.2147   45.3773 H   0  0  0  0  0  0  0  0  0  0  0  0
   58.7640   35.3655   45.3773 H   0  0  0  0  0  0  0  0  0  0  0  0
   60.1051   34.5306   47.9779 H   0  0  0  0  0  0  0  0  0  0  0  0
   58.4553   35.1857   47.7167 H   0  0  0  0  0  0  0  0  0  0  0  0
   58.6092   33.4290   49.2318 H   0  0  0  0  0  0  0  0  0  0  0  0
   57.2100   32.6189   48.4343 H   0  0  0  0  0  0  0  0  0  0  0  0
   59.3516   31.3651   49.7439 H   0  0  0  0  0  0  0  0  0  0  0  0
   58.1308   30.6088   48.5957 H   0  0  0  0  0  0  0  0  0  0  0  0
   60.1870   31.7550   47.1350 H   0  0  0  0  0  0  0  0  0  0  0  0
   61.0742   30.9210   49.6280 H   0  0  0  0  0  0  0  0  0  0  0  0
   61.6448   29.7356   48.3632 H   0  0  0  0  0  0  0  0  0  0  0  0
   62.6107   32.4373   48.9520 H   0  0  0  0  0  0  0  0  0  0  0  0
   63.3280   31.1426   47.9260 H   0  0  0  0  0  0  0  0  0  0  0  0
   63.4991   33.3838   45.8760 H   0  0  0  0  0  0  0  0  0  0  0  0
   62.2270   34.4429   46.5930 H   0  0  0  0  0  0  0  0  0  0  0  0
   63.1722   33.6495   48.8914 H   0  0  0  0  0  0  0  0  0  0  0  0
   64.6095   33.1251   47.9502 H   0  0  0  0  0  0  0  0  0  0  0  0
   64.1173   34.8527   47.9502 H   0  0  0  0  0  0  0  0  0  0  0  0
   58.7338   29.9163   46.5937 H   0  0  0  0  0  0  0  0  0  0  0  0
   60.2602   30.3521   44.9078 H   0  0  0  0  0  0  0  0  0  0  0  0
   61.6764   29.8558   45.9346 H   0  0  0  0  0  0  0  0  0  0  0  0
   60.6722   28.3112   43.9370 H   0  0  0  0  0  0  0  0  0  0  0  0
   61.4623   27.6600   45.4467 H   0  0  0  0  0  0  0  0  0  0  0  0
   58.4222   28.8790   44.1253 H   0  0  0  0  0  0  0  0  0  0  0  0
   57.8921   27.1739   43.8956 H   0  0  0  0  0  0  0  0  0  0  0  0
   56.2746   27.3728   45.4619 H   0  0  0  0  0  0  0  0  0  0  0  0
   57.4279   28.1212   46.6378 H   0  0  0  0  0  0  0  0  0  0  0  0
   55.6050   29.7170   46.0280 H   0  0  0  0  0  0  0  0  0  0  0  0
   55.9643   29.5461   42.7091 H   0  0  0  0  0  0  0  0  0  0  0  0
   56.8150   31.2840   41.1355 H   0  0  0  0  0  0  0  0  0  0  0  0
   58.1917   33.1837   41.9887 H   0  0  0  0  0  0  0  0  0  0  0  0
   58.7203   33.3458   44.4245 H   0  0  0  0  0  0  0  0  0  0  0  0
   57.8740   31.6154   46.0055 H   0  0  0  0  0  0  0  0  0  0  0  0
   58.1079   27.2030   47.0292 H   0  0  0  0  0  0  0  0  0  0  0  0
   59.7200   26.3411   47.1043 H   0  0  0  0  0  0  0  0  0  0  0  0
   59.1810   28.5028   48.6138 H   0  0  0  0  0  0  0  0  0  0  0  0
   60.8209   28.1462   47.9472 H   0  0  0  0  0  0  0  0  0  0  0  0
  1  2  1  0
  2  3  1  0
  3  4  1  0
  4  5  1  0
  5  6  1  0
  6  7  1  0
  7  8  1  0
  8  9  1  0
  9 10  1  0
 10 11  1  0
  6 12  1  0
 12 13  1  0
 13 14  1  0
 14 15  1  0
 15 16  1  0
 16 17  1  0
 17 18  1  0
 18 19  1  0
 19 20  2  0
 20 21  1  0
 21 22  2  0
 22 23  1  0
 23 24  2  0
 15 25  1  0
 25 26  1  0
 26 12  1  0
 24 19  1  0
  1 27  1  0
  1 28  1  0
  1 29  1  0
  2 30  1  0
  2 31  1  0
  4 32  1  0
  4 33  1  0
  5 34  1  0
  5 35  1  0
  6 36  1  0
  7 37  1  0
  7 38  1  0
  8 39  1  0
  8 40  1  0
 10 41  1  0
 10 42  1  0
 11 43  1  0
 11 44  1  0
 11 45  1  0
 12 46  1  0
 13 47  1  0
 13 48  1  0
 14 49  1  0
 14 50  1  0
 16 51  1  0
 16 52  1  0
 17 53  1  0
 17 54  1  0
 18 55  1  0
 20 56  1  0
 21 57  1  0
 22 58  1  0
 23 59  1  0
 24 60  1  0
 25 61  1  0
 25 62  1  0
 26 63  1  0
 26 64  1  0
M  CHG  1   6   1
M  END
>  <UniqueID>  (26) 
25

>  <SMILES>  (26) 
CCOCC[NH+](CCOCC)C1CCN(CCNc2ccccc2)CC1

>  <Energy>  (26) 
85.56972528510178

>  <Genealogy>  (26) 
CCOCC[NH+](CCOCC)C1CCN(CCNc2ccccc2)CC1 (protonated)
CCOCC[NH+](CCOCC)C1CCN(CCNc2ccccc2)CC1 (3D coordinates assigned)
CCOCC[NH+](CCOCC)C1CCN(CCNc2ccccc2)CC1 (nonaromatic ring conformer: 85.56972528510178 kcal/mol)

>  <smiles>  (26) 
CCOCCN(CCOCC)C1CCN(CCNc2ccccc2)CC1

>  <score_type>  (26) 
oracle

>  <origin>  (26) 
adg

>  <m_score__min__energy>  (26) 
-4.8600000000000003

>  <m_primary>  (26) 
energy

$$$$
26:0
     RDKit          3D

 48 48  0  0  0  0  0  0  0  0999 V2000
   60.7090   27.4680   45.6980 C   0  0  0  0  0  0  0  0  0  0  0  0
   60.5090   28.7400   44.8750 C   0  0  0  0  0  0  0  0  0  0  0  0
   59.1120   29.2300   44.9470 N   0  0  0  0  0  0  0  0  0  0  0  0
   58.8250   29.8690   46.2510 C   0  0  0  0  0  0  0  0  0  0  0  0
   60.1070   30.4300   46.8560 C   0  0  0  0  0  0  0  0  0  0  0  0
   58.0880   28.2190   44.5760 C   0  0  0  0  0  0  0  0  0  0  0  0
   56.7100   28.4370   45.2320 C   0  0  0  0  0  0  0  0  0  0  0  0
   56.2250   29.7220   44.9060 O   0  0  0  0  0  0  0  0  0  0  0  0
   55.7010   29.7180   43.5950 C   0  0  0  0  0  0  0  0  0  0  0  0
   56.6620   30.4550   42.6590 C   0  0  0  0  0  0  0  0  0  0  0  0
   57.8460   30.9460   43.3850 N   0  0  0  0  0  0  0  0  0  0  0  0
   58.1260   32.3690   43.0910 C   0  0  0  0  0  0  0  0  0  0  0  0
   57.4880   33.3280   44.1150 C   0  0  0  0  0  0  0  0  0  0  0  0
   58.3260   33.4740   45.3570 C   0  0  0  0  0  0  0  0  0  0  0  0
   57.8170   33.0910   46.6100 C   0  0  0  0  0  0  0  0  0  0  0  0
   58.5780   33.2800   47.7680 C   0  0  0  0  0  0  0  0  0  0  0  0
   59.8520   33.8520   47.6850 C   0  0  0  0  0  0  0  0  0  0  0  0
   60.8850   34.1170   49.2680 Br  0  0  0  0  0  0  0  0  0  0  0  0
   60.3650   34.2340   46.4410 C   0  0  0  0  0  0  0  0  0  0  0  0
   59.6060   34.0480   45.2810 C   0  0  0  0  0  0  0  0  0  0  0  0
   60.6702   27.7146   46.7693 H   0  0  0  0  0  0  0  0  0  0  0  0
   59.9131   26.7474   45.4585 H   0  0  0  0  0  0  0  0  0  0  0  0
   61.6876   27.0264   45.4585 H   0  0  0  0  0  0  0  0  0  0  0  0
   61.1805   29.5218   45.2595 H   0  0  0  0  0  0  0  0  0  0  0  0
   60.7347   28.5056   43.8242 H   0  0  0  0  0  0  0  0  0  0  0  0
   58.1044   30.6870   46.1040 H   0  0  0  0  0  0  0  0  0  0  0  0
   58.4048   29.1166   46.9346 H   0  0  0  0  0  0  0  0  0  0  0  0
   60.0383   30.3999   47.9534 H   0  0  0  0  0  0  0  0  0  0  0  0
   60.9639   29.8246   46.5255 H   0  0  0  0  0  0  0  0  0  0  0  0
   60.2438   31.4702   46.5255 H   0  0  0  0  0  0  0  0  0  0  0  0
   57.9573   28.2465   43.4841 H   0  0  0  0  0  0  0  0  0  0  0  0
   58.4586   27.2492   44.9396 H   0  0  0  0  0  0  0  0  0  0  0  0
   56.0057   27.6763   44.8642 H   0  0  0  0  0  0  0  0  0  0  0  0
   56.8093   28.3517   46.3242 H   0  0  0  0  0  0  0  0  0  0  0  0
   55.5791   28.6800   43.2521 H   0  0  0  0  0  0  0  0  0  0  0  0
   54.7239   30.2233   43.5892 H   0  0  0  0  0  0  0  0  0  0  0  0
   56.9883   29.7662   41.8659 H   0  0  0  0  0  0  0  0  0  0  0  0
   56.1342   31.3199   42.2308 H   0  0  0  0  0  0  0  0  0  0  0  0
   57.7230   30.7960   44.4140 H   0  0  0  0  0  0  0  0  0  0  0  0
   58.6730   30.3800   43.0810 H   0  0  0  0  0  0  0  0  0  0  0  0
   59.2154   32.5215   43.0982 H   0  0  0  0  0  0  0  0  0  0  0  0
   57.6883   32.5960   42.1077 H   0  0  0  0  0  0  0  0  0  0  0  0
   57.3708   34.3173   43.6485 H   0  0  0  0  0  0  0  0  0  0  0  0
   56.5159   32.9071   44.4114 H   0  0  0  0  0  0  0  0  0  0  0  0
   56.8158   32.6407   46.6800 H   0  0  0  0  0  0  0  0  0  0  0  0
   58.1742   32.9784   48.7457 H   0  0  0  0  0  0  0  0  0  0  0  0
   61.3676   34.6817   46.3749 H   0  0  0  0  0  0  0  0  0  0  0  0
   60.0129   34.3523   44.3054 H   0  0  0  0  0  0  0  0  0  0  0  0
  1  2  1  0
  2  3  1  0
  3  4  1  0
  4  5  1  0
  3  6  1  0
  6  7  1  0
  7  8  1  0
  8  9  1  0
  9 10  1  0
 10 11  1  0
 11 12  1  0
 12 13  1  0
 13 14  1  0
 14 15  2  0
 15 16  1  0
 16 17  2  0
 17 18  1  0
 17 19  1  0
 19 20  2  0
 20 14  1  0
  1 21  1  0
  1 22  1  0
  1 23  1  0
  2 24  1  0
  2 25  1  0
  4 26  1  0
  4 27  1  0
  5 28  1  0
  5 29  1  0
  5 30  1  0
  6 31  1  0
  6 32  1  0
  7 33  1  0
  7 34  1  0
  9 35  1  0
  9 36  1  0
 10 37  1  0
 10 38  1  0
 11 39  1  0
 11 40  1  0
 12 41  1  0
 12 42  1  0
 13 43  1  0
 13 44  1  0
 15 45  1  0
 16 46  1  0
 19 47  1  0
 20 48  1  0
M  CHG  1  11   1
M  END
>  <UniqueID>  (27) 
26

>  <SMILES>  (27) 
CCN(CC)CCOCC[NH2+]CCc1ccc(Br)cc1

>  <Energy>  (27) 
43.16359984939085

>  <Genealogy>  (27) 
CCN(CC)CCOCC[NH2+]CCc1ccc(Br)cc1 (protonated)
CCN(CC)CCOCC[NH2+]CCc1ccc(Br)cc1 (3D coordinates assigned)
CCN(CC)CCOCC[NH2+]CCc1ccc(Br)cc1 (optimized conformer: 43.16359984939085 kcal/mol)

>  <smiles>  (27) 
CCN(CC)CCOCCNCCc1ccc(Br)cc1

>  <score_type>  (27) 
oracle

>  <origin>  (27) 
adg

>  <m_score__min__energy>  (27) 
-4.1500000000000004

>  <m_primary>  (27) 
energy

$$$$
27:0
     RDKit          3D

 42 43  0  0  0  0  0  0  0  0999 V2000
   64.3340   33.4390   48.5580 C   0  0  0  0  0  0  0  0  0  0  0  0
   62.9490   33.0780   48.1090 C   0  0  0  0  0  0  0  0  0  0  0  0
   62.3130   33.8280   47.1090 C   0  0  0  0  0  0  0  0  0  0  0  0
   61.0090   33.5150   46.7150 C   0  0  0  0  0  0  0  0  0  0  0  0
   60.3170   32.4540   47.3230 C   0  0  0  0  0  0  0  0  0  0  0  0
   58.9080   32.1090   46.9020 C   0  0  1  0  0  0  0  0  0  0  0  0
   57.9210   33.6430   46.7130 S   0  0  0  0  0  0  0  0  0  0  0  0
   57.7220   33.4340   44.9130 C   0  0  0  0  0  0  0  0  0  0  0  0
   58.2880   32.1130   44.5680 C   0  0  0  0  0  0  0  0  0  0  0  0
   58.2420   31.6560   43.3940 O   0  0  0  0  0  0  0  0  0  0  0  0
   58.9050   31.3990   45.6300 N   0  0  0  0  0  0  0  0  0  0  0  0
   59.4760   30.0580   45.4740 C   0  0  0  0  0  0  0  0  0  0  0  0
   58.4120   28.9900   45.7590 C   0  0  0  0  0  0  0  0  0  0  0  0
   57.1700   29.1100   44.8510 C   0  0  0  0  0  0  0  0  0  0  0  0
   57.4480   28.9380   43.4040 N   0  0  0  0  0  0  0  0  0  0  0  0
   56.2760   29.3730   42.6230 C   0  0  0  0  0  0  0  0  0  0  0  0
   57.7730   27.5390   43.0650 C   0  0  0  0  0  0  0  0  0  0  0  0
   60.9480   31.7200   48.3410 C   0  0  0  0  0  0  0  0  0  0  0  0
   62.2530   32.0330   48.7340 C   0  0  0  0  0  0  0  0  0  0  0  0
   64.3722   33.4489   49.6573 H   0  0  0  0  0  0  0  0  0  0  0  0
   65.0493   32.6973   48.1730 H   0  0  0  0  0  0  0  0  0  0  0  0
   64.5962   34.4355   48.1730 H   0  0  0  0  0  0  0  0  0  0  0  0
   62.8427   34.6662   46.6327 H   0  0  0  0  0  0  0  0  0  0  0  0
   60.5213   34.1032   45.9237 H   0  0  0  0  0  0  0  0  0  0  0  0
   58.4705   31.4654   47.6794 H   0  0  0  0  0  0  0  0  0  0  0  0
   56.6561   33.4707   44.6437 H   0  0  0  0  0  0  0  0  0  0  0  0
   58.2357   34.2374   44.3646 H   0  0  0  0  0  0  0  0  0  0  0  0
   59.8442   29.9378   44.4444 H   0  0  0  0  0  0  0  0  0  0  0  0
   60.3048   29.9367   46.1870 H   0  0  0  0  0  0  0  0  0  0  0  0
   58.8625   27.9983   45.6055 H   0  0  0  0  0  0  0  0  0  0  0  0
   58.0737   29.1349   46.7956 H   0  0  0  0  0  0  0  0  0  0  0  0
   56.4457   28.3402   45.1558 H   0  0  0  0  0  0  0  0  0  0  0  0
   56.7876   30.1337   44.9770 H   0  0  0  0  0  0  0  0  0  0  0  0
   58.2490   29.5480   43.1200 H   0  0  0  0  0  0  0  0  0  0  0  0
   55.4693   29.6724   43.3083 H   0  0  0  0  0  0  0  0  0  0  0  0
   56.5546   30.2276   41.9889 H   0  0  0  0  0  0  0  0  0  0  0  0
   55.9295   28.5436   41.9889 H   0  0  0  0  0  0  0  0  0  0  0  0
   57.9077   26.9593   43.9901 H   0  0  0  0  0  0  0  0  0  0  0  0
   56.9519   27.1042   42.4761 H   0  0  0  0  0  0  0  0  0  0  0  0
   58.7016   27.5107   42.4761 H   0  0  0  0  0  0  0  0  0  0  0  0
   60.4124   30.8941   48.8319 H   0  0  0  0  0  0  0  0  0  0  0  0
   62.7359   31.4569   49.5371 H   0  0  0  0  0  0  0  0  0  0  0  0
  1  2  1  0
  2  3  2  0
  3  4  1  0
  4  5  2  0
  5  6  1  0
  6  7  1  0
  7  8  1  0
  8  9  1  0
  9 10  2  0
  9 11  1  0
 11 12  1  0
 12 13  1  0
 13 14  1  0
 14 15  1  0
 15 16  1  0
 15 17  1  0
  5 18  1  0
 18 19  2  0
 19  2  1  0
 11  6  1  0
  1 20  1  0
  1 21  1  0
  1 22  1  0
  3 23  1  0
  4 24  1  0
  6 25  1  1
  8 26  1  0
  8 27  1  0
 12 28  1  0
 12 29  1  0
 13 30  1  0
 13 31  1  0
 14 32  1  0
 14 33  1  0
 15 34  1  0
 16 35  1  0
 16 36  1  0
 16 37  1  0
 17 38  1  0
 17 39  1  0
 17 40  1  0
 18 41  1  0
 19 42  1  0
M  CHG  1  15   1
M  END
>  <UniqueID>  (28) 
27

>  <SMILES>  (28) 
Cc1ccc([C@H]2SCC(=O)N2CCC[NH+](C)C)cc1

>  <Energy>  (28) 
34.50264179755761

>  <Genealogy>  (28) 
Cc1ccc(C2SCC(=O)N2CCC[NH+](C)C)cc1 (protonated)
Cc1ccc([C@H]2SCC(=O)N2CCC[NH+](C)C)cc1 (chirality)
Cc1ccc([C@H]2SCC(=O)N2CCC[NH+](C)C)cc1 (3D coordinates assigned)
Cc1ccc([C@H]2SCC(=O)N2CCC[NH+](C)C)cc1 (nonaromatic ring conformer: 34.50264179755761 kcal/mol)

>  <smiles>  (28) 
Cc1ccc(C2SCC(=O)N2CCCN(C)C)cc1

>  <score_type>  (28) 
oracle

>  <origin>  (28) 
adg

>  <m_score__min__energy>  (28) 
-4.4400000000000004

>  <m_primary>  (28) 
energy

$$$$
28:0
     RDKit          3D

 75 77  0  0  0  0  0  0  0  0999 V2000
   64.1062   33.0081   47.5287 H   0  0  0  0  0  0  0  0  0  0  0  0
   63.2080   32.5320   47.9490 C   0  0  0  0  0  0  0  0  0  0  0  0
   62.8220   32.8930   49.1270 N   0  0  0  0  0  0  0  0  0  0  0  0
   62.3740   34.2250   49.4800 C   0  0  0  0  0  0  0  0  0  0  0  0
   62.9068   34.5623   50.3813 H   0  0  0  0  0  0  0  0  0  0  0  0
   62.5837   34.9111   48.6461 H   0  0  0  0  0  0  0  0  0  0  0  0
   60.8710   34.2110   49.7550 C   0  0  0  0  0  0  0  0  0  0  0  0
   60.6872   34.5524   50.7844 H   0  0  0  0  0  0  0  0  0  0  0  0
   60.3702   34.8812   49.0408 H   0  0  0  0  0  0  0  0  0  0  0  0
   60.3360   32.8530   49.5920 N   0  0  0  0  0  0  0  0  0  0  0  0
   60.4900   32.3410   50.4930 H   0  0  0  0  0  0  0  0  0  0  0  0
   58.8900   32.9000   49.3440 C   0  0  0  0  0  0  0  0  0  0  0  0
   58.5367   33.9375   49.4378 H   0  0  0  0  0  0  0  0  0  0  0  0
   58.6826   32.5288   48.3295 H   0  0  0  0  0  0  0  0  0  0  0  0
   58.1570   32.0150   50.3700 C   0  0  0  0  0  0  0  0  0  0  0  0
   57.1162   32.3630   50.4450 H   0  0  0  0  0  0  0  0  0  0  0  0
   58.2341   30.9793   50.0074 H   0  0  0  0  0  0  0  0  0  0  0  0
   58.7540   32.0380   51.7260 N   0  0  0  0  0  0  0  0  0  0  0  0
   58.3490   30.8730   52.5340 C   0  0  0  0  0  0  0  0  0  0  0  0
   58.4349   31.1201   53.6024 H   0  0  0  0  0  0  0  0  0  0  0  0
   57.3066   30.6098   52.3012 H   0  0  0  0  0  0  0  0  0  0  0  0
   59.0033   30.0200   52.3012 H   0  0  0  0  0  0  0  0  0  0  0  0
   58.5170   33.3160   52.4310 C   0  0  0  0  0  0  0  0  0  0  0  0
   58.1777   34.0708   51.7063 H   0  0  0  0  0  0  0  0  0  0  0  0
   57.7501   33.1573   53.2034 H   0  0  0  0  0  0  0  0  0  0  0  0
   59.7970   33.8060   53.1030 C   0  0  0  0  0  0  0  0  0  0  0  0
   59.6781   33.7605   54.1956 H   0  0  0  0  0  0  0  0  0  0  0  0
   60.6388   33.1665   52.7988 H   0  0  0  0  0  0  0  0  0  0  0  0
   59.9966   34.8441   52.7988 H   0  0  0  0  0  0  0  0  0  0  0  0
   62.4940   31.4900   47.1130 C   0  0  0  0  0  0  0  0  0  0  0  0
   63.1382   30.6027   47.0257 H   0  0  0  0  0  0  0  0  0  0  0  0
   62.2865   31.9304   46.1266 H   0  0  0  0  0  0  0  0  0  0  0  0
   61.2010   31.0850   47.7140 N   0  0  0  0  0  0  0  0  0  0  0  0
   61.2340   30.0940   48.0550 H   0  0  0  0  0  0  0  0  0  0  0  0
   61.0220   31.6600   48.5680 H   0  0  0  0  0  0  0  0  0  0  0  0
   60.0970   31.1880   46.7760 C   0  0  0  0  0  0  0  0  0  0  0  0
   59.4590   30.0340   46.2630 C   0  0  0  0  0  0  0  0  0  0  0  0
   59.7340   28.7580   46.7830 O   0  0  0  0  0  0  0  0  0  0  0  0
   59.0210   28.1670   47.8730 C   0  0  0  0  0  0  0  0  0  0  0  0
   59.5272   27.2340   48.1617 H   0  0  0  0  0  0  0  0  0  0  0  0
   57.9905   27.9795   47.5371 H   0  0  0  0  0  0  0  0  0  0  0  0
   58.9530   29.0920   49.1000 C   0  0  0  0  0  0  0  0  0  0  0  0
   58.0269   28.8624   49.6474 H   0  0  0  0  0  0  0  0  0  0  0  0
   58.9914   30.1191   48.7082 H   0  0  0  0  0  0  0  0  0  0  0  0
   60.1290   28.9690   50.0840 C   0  0  0  0  0  0  0  0  0  0  0  0
   60.8009   28.1702   49.7369 H   0  0  0  0  0  0  0  0  0  0  0  0
   59.7186   28.7384   51.0782 H   0  0  0  0  0  0  0  0  0  0  0  0
   60.8930   30.2220   50.1860 N   0  0  0  0  0  0  0  0  0  0  0  0
   60.3150   30.9410   50.6750 H   0  0  0  0  0  0  0  0  0  0  0  0
   62.1380   30.0420   50.9510 C   0  0  0  0  0  0  0  0  0  0  0  0
   62.9743   29.9384   50.2440 H   0  0  0  0  0  0  0  0  0  0  0  0
   62.0201   29.1428   51.5736 H   0  0  0  0  0  0  0  0  0  0  0  0
   62.4290   31.2210   51.8870 C   0  0  0  0  0  0  0  0  0  0  0  0
   62.3469   30.8883   52.9323 H   0  0  0  0  0  0  0  0  0  0  0  0
   63.4464   31.5951   51.7001 H   0  0  0  0  0  0  0  0  0  0  0  0
   61.7025   32.0255   51.7001 H   0  0  0  0  0  0  0  0  0  0  0  0
   58.5630   30.1430   45.1810 C   0  0  0  0  0  0  0  0  0  0  0  0
   58.0260   28.9770   44.5960 C   0  0  0  0  0  0  0  0  0  0  0  0
   58.3366   27.9902   44.9697 H   0  0  0  0  0  0  0  0  0  0  0  0
   57.1090   29.0580   43.5530 C   0  0  0  0  0  0  0  0  0  0  0  0
   56.6962   28.1396   43.1102 H   0  0  0  0  0  0  0  0  0  0  0  0
   56.7150   30.3010   43.0710 C   0  0  0  0  0  0  0  0  0  0  0  0
   55.9863   30.3628   42.2493 H   0  0  0  0  0  0  0  0  0  0  0  0
   57.2380   31.4700   43.6230 C   0  0  0  0  0  0  0  0  0  0  0  0
   56.9196   32.4456   43.2270 H   0  0  0  0  0  0  0  0  0  0  0  0
   58.1740   31.4200   44.6870 C   0  0  0  0  0  0  0  0  0  0  0  0
   58.7400   32.5890   45.2680 C   0  0  0  0  0  0  0  0  0  0  0  0
   58.3900   33.9010   44.8660 C   0  0  0  0  0  0  0  0  0  0  0  0
   57.6159   34.0466   44.0981 H   0  0  0  0  0  0  0  0  0  0  0  0
   59.0160   35.0100   45.4330 C   0  0  0  0  0  0  0  0  0  0  0  0
   58.7377   36.0258   45.1156 H   0  0  0  0  0  0  0  0  0  0  0  0
   59.9930   34.8230   46.4010 C   0  0  0  0  0  0  0  0  0  0  0  0
   60.5034   35.6911   46.8435 H   0  0  0  0  0  0  0  0  0  0  0  0
   60.3170   33.5690   46.8000 N   0  0  0  0  0  0  0  0  0  0  0  0
   59.7210   32.4560   46.2850 C   0  0  0  0  0  0  0  0  0  0  0  0
  1  2  1  0
  2  3  2  0
  3  4  1  0
  4  5  1  0
  4  6  1  0
  4  7  1  0
  7  8  1  0
  7  9  1  0
  7 10  1  0
 10 11  1  0
 10 12  1  0
 12 13  1  0
 12 14  1  0
 12 15  1  0
 15 16  1  0
 15 17  1  0
 15 18  1  0
 18 19  1  0
 19 20  1  0
 19 21  1  0
 19 22  1  0
 18 23  1  0
 23 24  1  0
 23 25  1  0
 23 26  1  0
 26 27  1  0
 26 28  1  0
 26 29  1  0
  2 30  1  0
 30 31  1  0
 30 32  1  0
 30 33  1  0
 33 34  1  0
 33 35  1  0
 33 36  1  0
 36 37  2  0
 37 38  1  0
 38 39  1  0
 39 40  1  0
 39 41  1  0
 39 42  1  0
 42 43  1  0
 42 44  1  0
 42 45  1  0
 45 46  1  0
 45 47  1  0
 45 48  1  0
 48 49  1  0
 48 50  1  0
 50 51  1  0
 50 52  1  0
 50 53  1  0
 53 54  1  0
 53 55  1  0
 53 56  1  0
 37 57  1  0
 57 58  2  0
 58 59  1  0
 58 60  1  0
 60 61  1  0
 60 62  2  0
 62 63  1  0
 62 64  1  0
 64 65  1  0
 64 66  2  0
 66 67  1  0
 67 68  2  0
 68 69  1  0
 68 70  1  0
 70 71  1  0
 70 72  2  0
 72 73  1  0
 72 74  1  0
 74 75  2  0
 75 36  1  0
 66 57  1  0
 75 67  1  0
M  CHG  1  33   1
M  END
>  <UniqueID>  (29) 
28

>  <SMILES>  (29) 
CCNCCCOc1c([NH2+]C/C=N\CCNCCN(C)CC)c2ncccc2c2ccccc12

>  <Energy>  (29) 
88.9972929500538

>  <Genealogy>  (29) 
CCNCCCOc1c([NH2+]CC=NCCNCCN(C)CC)c2ncccc2c2ccccc12 (protonated)
CCNCCCOc1c([NH2+]C/C=N\CCNCCN(C)CC)c2ncccc2c2ccccc12 (cis-trans isomerization)
CCNCCCOc1c([NH2+]C/C=N\CCNCCN(C)CC)c2ncccc2c2ccccc12 (3D coordinates assigned)
CCNCCCOc1c([NH2+]C/C=N\CCNCCN(C)CC)c2ncccc2c2ccccc12 (optimized conformer: 88.9972929500538 kcal/mol)

>  <smiles>  (29) 
CCNCCCOc1c(NCC=NCCNCCN(C)CC)c2ncccc2c2ccccc12

>  <score_type>  (29) 
oracle

>  <origin>  (29) 
adg

>  <m_score__min__energy>  (29) 
-5.6500000000000004

>  <m_primary>  (29) 
energy

$$$$
29:0
     RDKit          3D

 39 41  0  0  0  0  0  0  0  0999 V2000
   57.2790   32.6770   40.7810 C   0  0  0  0  0  0  0  0  0  0  0  0
   57.3940   31.9530   42.0900 C   0  0  0  0  0  0  0  0  0  0  0  0
   56.7320   30.7390   42.2830 C   0  0  0  0  0  0  0  0  0  0  0  0
   56.8370   30.0660   43.4970 C   0  0  0  0  0  0  0  0  0  0  0  0
   57.5780   30.6140   44.5640 C   0  0  0  0  0  0  0  0  0  0  0  0
   57.7160   29.9160   45.7770 C   0  0  0  0  0  0  0  0  0  0  0  0
   56.9980   28.6900   46.0000 N   0  0  0  0  0  0  0  0  0  0  0  0
   57.6510   27.3840   45.9220 C   0  0  0  0  0  0  0  0  0  0  0  0
   56.6320   26.2700   45.6860 C   0  0  0  0  0  0  0  0  0  0  0  0
   55.3440   26.7190   46.0050 O   0  0  0  0  0  0  0  0  0  0  0  0
   58.6100   30.3950   46.7500 C   0  0  0  0  0  0  0  0  0  0  0  0
   58.8820   29.6450   47.9130 C   0  0  0  0  0  0  0  0  0  0  0  0
   59.7930   30.1060   48.8600 C   0  0  0  0  0  0  0  0  0  0  0  0
   60.4560   31.3110   48.6580 C   0  0  0  0  0  0  0  0  0  0  0  0
   60.1930   32.0750   47.5210 C   0  0  0  0  0  0  0  0  0  0  0  0
   59.2420   31.6530   46.5580 C   0  0  0  0  0  0  0  0  0  0  0  0
   58.9310   32.4230   45.4540 N   0  0  0  0  0  0  0  0  0  0  0  0
   59.3440   33.8430   45.4020 C   0  0  0  0  0  0  0  0  0  0  0  0
   58.2200   31.8700   44.4040 C   0  0  0  0  0  0  0  0  0  0  0  0
   58.1280   32.5150   43.1440 C   0  0  0  0  0  0  0  0  0  0  0  0
   57.1089   33.7476   40.9678 H   0  0  0  0  0  0  0  0  0  0  0  0
   58.2089   32.5480   40.2077 H   0  0  0  0  0  0  0  0  0  0  0  0
   56.4348   32.2662   40.2077 H   0  0  0  0  0  0  0  0  0  0  0  0
   56.1243   30.3121   41.4715 H   0  0  0  0  0  0  0  0  0  0  0  0
   56.3359   29.0952   43.6254 H   0  0  0  0  0  0  0  0  0  0  0  0
   55.9700   28.7350   46.1790 H   0  0  0  0  0  0  0  0  0  0  0  0
   58.3722   27.3925   45.0915 H   0  0  0  0  0  0  0  0  0  0  0  0
   58.1618   27.1923   46.8772 H   0  0  0  0  0  0  0  0  0  0  0  0
   56.6606   25.9691   44.6284 H   0  0  0  0  0  0  0  0  0  0  0  0
   56.8826   25.4117   46.3268 H   0  0  0  0  0  0  0  0  0  0  0  0
   55.1440   26.3620   46.9080 H   0  0  0  0  0  0  0  0  0  0  0  0
   58.3689   28.6854   48.0738 H   0  0  0  0  0  0  0  0  0  0  0  0
   59.9880   29.5165   49.7680 H   0  0  0  0  0  0  0  0  0  0  0  0
   61.1905   31.6632   49.3973 H   0  0  0  0  0  0  0  0  0  0  0  0
   60.7328   33.0213   47.3689 H   0  0  0  0  0  0  0  0  0  0  0  0
   59.4565   34.2298   46.4256 H   0  0  0  0  0  0  0  0  0  0  0  0
   60.3037   33.9265   44.8709 H   0  0  0  0  0  0  0  0  0  0  0  0
   58.5788   34.4282   44.8709 H   0  0  0  0  0  0  0  0  0  0  0  0
   58.6427   33.4750   42.9909 H   0  0  0  0  0  0  0  0  0  0  0  0
  1  2  1  0
  2  3  2  0
  3  4  1  0
  4  5  2  0
  5  6  1  0
  6  7  1  0
  7  8  1  0
  8  9  1  0
  9 10  1  0
  6 11  2  0
 11 12  1  0
 12 13  2  0
 13 14  1  0
 14 15  2  0
 15 16  1  0
 16 17  2  0
 17 18  1  0
 17 19  1  0
 19 20  2  0
 20  2  1  0
 19  5  1  0
 16 11  1  0
  1 21  1  0
  1 22  1  0
  1 23  1  0
  3 24  1  0
  4 25  1  0
  7 26  1  0
  8 27  1  0
  8 28  1  0
  9 29  1  0
  9 30  1  0
 10 31  1  0
 12 32  1  0
 13 33  1  0
 14 34  1  0
 15 35  1  0
 18 36  1  0
 18 37  1  0
 18 38  1  0
 20 39  1  0
M  CHG  1  17   1
M  END
>  <UniqueID>  (30) 
29

>  <SMILES>  (30) 
Cc1ccc2c(NCCO)c3ccccc3[n+](C)c2c1

>  <Energy>  (30) 
63.685423864083454

>  <Genealogy>  (30) 
Cc1ccc2c(NCCO)c3ccccc3[n+](C)c2c1 (3D coordinates assigned)
Cc1ccc2c(NCCO)c3ccccc3[n+](C)c2c1 (optimized conformer: 63.685423864083454 kcal/mol)

>  <smiles>  (30) 
Cc1ccc2c(NCCO)c3ccccc3[n+](C)c2c1

>  <score_type>  (30) 
oracle

>  <origin>  (30) 
adg

>  <m_score__min__energy>  (30) 
-6.4800000000000004

>  <m_primary>  (30) 
energy

$$$$
30:0
     RDKit          3D

 56 59  0  0  0  0  0  0  0  0999 V2000
   61.6410   30.9510   48.9500 C   0  0  0  0  0  0  0  0  0  0  0  0
   61.8140   31.0600   47.4890 N   0  0  0  0  0  0  0  0  0  0  0  0
   61.7380   32.4760   47.0940 C   0  0  0  0  0  0  0  0  0  0  0  0
   60.7870   30.2720   46.7740 C   0  0  0  0  0  0  0  0  0  0  0  0
   59.9320   29.4760   47.7670 C   0  0  0  0  0  0  0  0  0  0  0  0
   58.5380   29.6360   47.4910 O   0  0  0  0  0  0  0  0  0  0  0  0
   58.0540   30.0290   46.2350 C   0  0  0  0  0  0  0  0  0  0  0  0
   57.5650   29.0460   45.3400 C   0  0  0  0  0  0  0  0  0  0  0  0
   57.3830   27.6330   45.7780 C   0  0  0  0  0  0  0  0  0  0  0  0
   58.3410   26.8140   46.3600 C   0  0  0  0  0  0  0  0  0  0  0  0
   57.7430   25.5840   46.5300 C   0  0  0  0  0  0  0  0  0  0  0  0
   56.4560   25.7240   46.0540 C   0  0  0  0  0  0  0  0  0  0  0  0
   55.4060   24.6450   46.0000 C   0  0  0  0  0  0  0  0  0  0  0  0
   55.6850   23.5800   45.0130 N   0  0  0  0  0  0  0  0  0  0  0  0
   56.4890   22.4720   45.5510 C   0  0  0  0  0  0  0  0  0  0  0  0
   56.5860   21.3410   44.5040 C   0  0  0  0  0  0  0  0  0  0  0  0
   56.0080   21.7090   43.2630 O   0  0  0  0  0  0  0  0  0  0  0  0
   56.5850   22.9160   42.8020 C   0  0  0  0  0  0  0  0  0  0  0  0
   56.2670   24.0860   43.7560 C   0  0  0  0  0  0  0  0  0  0  0  0
   56.2710   26.9490   45.6170 O   0  0  0  0  0  0  0  0  0  0  0  0
   57.2260   29.4280   44.0290 C   0  0  0  0  0  0  0  0  0  0  0  0
   57.3280   30.7550   43.6180 C   0  0  0  0  0  0  0  0  0  0  0  0
   57.7220   31.7470   44.5210 C   0  0  0  0  0  0  0  0  0  0  0  0
   57.7600   33.0910   44.1200 C   0  0  0  0  0  0  0  0  0  0  0  0
   58.1010   34.0880   45.0350 C   0  0  0  0  0  0  0  0  0  0  0  0
   58.3890   33.7530   46.3580 C   0  0  0  0  0  0  0  0  0  0  0  0
   58.3620   32.4180   46.7690 C   0  0  0  0  0  0  0  0  0  0  0  0
   58.0630   31.3920   45.8500 C   0  0  0  0  0  0  0  0  0  0  0  0
   62.4670   31.4714   49.4569 H   0  0  0  0  0  0  0  0  0  0  0  0
   60.6847   31.4101   49.2413 H   0  0  0  0  0  0  0  0  0  0  0  0
   61.6423   29.8903   49.2413 H   0  0  0  0  0  0  0  0  0  0  0  0
   61.7042   33.1066   47.9947 H   0  0  0  0  0  0  0  0  0  0  0  0
   62.6234   32.7379   46.4961 H   0  0  0  0  0  0  0  0  0  0  0  0
   60.8297   32.6416   46.4961 H   0  0  0  0  0  0  0  0  0  0  0  0
   60.1390   30.9544   46.2044 H   0  0  0  0  0  0  0  0  0  0  0  0
   61.2889   29.5685   46.0934 H   0  0  0  0  0  0  0  0  0  0  0  0
   60.1930   28.4101   47.6917 H   0  0  0  0  0  0  0  0  0  0  0  0
   60.1326   29.8529   48.7808 H   0  0  0  0  0  0  0  0  0  0  0  0
   59.3705   27.0911   46.6310 H   0  0  0  0  0  0  0  0  0  0  0  0
   58.1980   24.6781   46.9570 H   0  0  0  0  0  0  0  0  0  0  0  0
   55.3339   24.1830   46.9957 H   0  0  0  0  0  0  0  0  0  0  0  0
   54.4691   25.1294   45.6876 H   0  0  0  0  0  0  0  0  0  0  0  0
   57.4991   22.8361   45.7902 H   0  0  0  0  0  0  0  0  0  0  0  0
   56.0100   22.0840   46.4621 H   0  0  0  0  0  0  0  0  0  0  0  0
   57.6465   21.0977   44.3426 H   0  0  0  0  0  0  0  0  0  0  0  0
   56.0308   20.4739   44.8912 H   0  0  0  0  0  0  0  0  0  0  0  0
   57.6760   22.7910   42.7387 H   0  0  0  0  0  0  0  0  0  0  0  0
   56.1634   23.1483   41.8129 H   0  0  0  0  0  0  0  0  0  0  0  0
   57.1945   24.6332   43.9804 H   0  0  0  0  0  0  0  0  0  0  0  0
   55.5415   24.7554   43.2706 H   0  0  0  0  0  0  0  0  0  0  0  0
   56.8748   28.6665   43.3172 H   0  0  0  0  0  0  0  0  0  0  0  0
   57.0972   31.0241   42.5767 H   0  0  0  0  0  0  0  0  0  0  0  0
   57.5201   33.3598   43.0807 H   0  0  0  0  0  0  0  0  0  0  0  0
   58.1427   35.1389   44.7126 H   0  0  0  0  0  0  0  0  0  0  0  0
   58.6385   34.5435   47.0811 H   0  0  0  0  0  0  0  0  0  0  0  0
   58.5758   32.1656   47.8181 H   0  0  0  0  0  0  0  0  0  0  0  0
  1  2  1  0
  2  3  1  0
  2  4  1  0
  4  5  1  0
  5  6  1  0
  6  7  1  0
  7  8  2  0
  8  9  1  0
  9 10  2  0
 10 11  1  0
 11 12  2  0
 12 13  1  0
 13 14  1  0
 14 15  1  0
 15 16  1  0
 16 17  1  0
 17 18  1  0
 18 19  1  0
 12 20  1  0
  8 21  1  0
 21 22  2  0
 22 23  1  0
 23 24  2  0
 24 25  1  0
 25 26  2  0
 26 27  1  0
 27 28  2  0
 28  7  1  0
 20  9  1  0
 28 23  1  0
 19 14  1  0
  1 29  1  0
  1 30  1  0
  1 31  1  0
  3 32  1  0
  3 33  1  0
  3 34  1  0
  4 35  1  0
  4 36  1  0
  5 37  1  0
  5 38  1  0
 10 39  1  0
 11 40  1  0
 13 41  1  0
 13 42  1  0
 15 43  1  0
 15 44  1  0
 16 45  1  0
 16 46  1  0
 18 47  1  0
 18 48  1  0
 19 49  1  0
 19 50  1  0
 21 51  1  0
 22 52  1  0
 24 53  1  0
 25 54  1  0
 26 55  1  0
 27 56  1  0
M  END
>  <UniqueID>  (31) 
30

>  <SMILES>  (31) 
CN(C)CCOc1c(-c2ccc(CN3CCOCC3)o2)ccc2ccccc12

>  <Energy>  (31) 
105.81887071072713

>  <Genealogy>  (31) 
CN(C)CCOc1c(-c2ccc(CN3CCOCC3)o2)ccc2ccccc12 (3D coordinates assigned)
CN(C)CCOc1c(-c2ccc(CN3CCOCC3)o2)ccc2ccccc12 (nonaromatic ring conformer: 105.81887071072713 kcal/mol)

>  <smiles>  (31) 
CN(C)CCOc1c(-c2ccc(CN3CCOCC3)o2)ccc2ccccc12

>  <score_type>  (31) 
oracle

>  <origin>  (31) 
adg

>  <m_score__min__energy>  (31) 
-8.0899999999999999

>  <m_primary>  (31) 
energy

$$$$
