0:0
     RDKit          3D

 61 63  0  0  0  0  0  0  0  0999 V2000
   61.5440   33.4890   51.4760 C   0  0  0  0  0  0  0  0  0  0  0  0
   62.9210   33.4800   50.8020 C   0  0  0  0  0  0  0  0  0  0  0  0
   62.8270   33.4800   49.3300 N   0  0  0  0  0  0  0  0  0  0  0  0
   63.7880   32.5650   48.6800 C   0  0  0  0  0  0  0  0  0  0  0  0
   63.5860   32.4950   47.1520 C   0  0  0  0  0  0  0  0  0  0  0  0
   63.1190   33.8390   46.5790 C   0  0  0  0  0  0  0  0  0  0  0  0
   61.8680   34.2170   47.1260 O   0  0  0  0  0  0  0  0  0  0  0  0
   60.8010   33.9050   46.2480 C   0  0  0  0  0  0  0  0  0  0  0  0
   59.6590   34.9200   46.3860 C   0  0  0  0  0  0  0  0  0  0  0  0
   58.4930   34.5990   45.4430 C   0  0  0  0  0  0  0  0  0  0  0  0
   57.6370   33.5570   46.0120 N   0  0  0  0  0  0  0  0  0  0  0  0
   58.0990   32.2060   46.1750 C   0  0  0  0  0  0  0  0  0  0  0  0
   58.0610   31.3170   45.0910 C   0  0  0  0  0  0  0  0  0  0  0  0
   58.4400   29.9740   45.2770 C   0  0  0  0  0  0  0  0  0  0  0  0
   58.9970   29.5610   46.4690 N   0  0  0  0  0  0  0  0  0  0  0  0
   59.6450   28.2360   46.5570 C   0  0  0  0  0  0  0  0  0  0  0  0
   58.9690   30.3990   47.5700 C   0  0  0  0  0  0  0  0  0  0  0  0
   59.3400   29.9460   48.8620 C   0  0  0  0  0  0  0  0  0  0  0  0
   59.3780   30.8190   49.9480 C   0  0  0  0  0  0  0  0  0  0  0  0
   59.0470   32.1590   49.7790 C   0  0  0  0  0  0  0  0  0  0  0  0
   58.6390   32.6250   48.5310 C   0  0  0  0  0  0  0  0  0  0  0  0
   58.5550   31.7510   47.4270 C   0  0  0  0  0  0  0  0  0  0  0  0
   58.2080   29.0240   44.1130 C   0  0  0  0  0  0  0  0  0  0  0  0
   56.8690   29.3350   43.4310 C   0  0  0  0  0  0  0  0  0  0  0  0
   56.7390   30.8050   42.9840 C   0  0  0  0  0  0  0  0  0  0  0  0
   57.7040   31.7720   43.6910 C   0  0  0  0  0  0  0  0  0  0  0  0
   61.6706   33.4882   52.5687 H   0  0  0  0  0  0  0  0  0  0  0  0
   60.9926   34.3908   51.1715 H   0  0  0  0  0  0  0  0  0  0  0  0
   60.9808   32.5945   51.1715 H   0  0  0  0  0  0  0  0  0  0  0  0
   63.4759   34.3748   51.1205 H   0  0  0  0  0  0  0  0  0  0  0  0
   63.4365   32.5567   51.1050 H   0  0  0  0  0  0  0  0  0  0  0  0
   62.9880   34.4500   48.9700 H   0  0  0  0  0  0  0  0  0  0  0  0
   61.8520   33.2150   49.0530 H   0  0  0  0  0  0  0  0  0  0  0  0
   64.8089   32.9190   48.8863 H   0  0  0  0  0  0  0  0  0  0  0  0
   63.6229   31.5571   49.0884 H   0  0  0  0  0  0  0  0  0  0  0  0
   64.5395   32.2178   46.6788 H   0  0  0  0  0  0  0  0  0  0  0  0
   62.8092   31.7448   46.9430 H   0  0  0  0  0  0  0  0  0  0  0  0
   63.8647   34.6111   46.8193 H   0  0  0  0  0  0  0  0  0  0  0  0
   63.0083   33.7360   45.4894 H   0  0  0  0  0  0  0  0  0  0  0  0
   61.1716   33.9195   45.2124 H   0  0  0  0  0  0  0  0  0  0  0  0
   60.4157   32.9076   46.5062 H   0  0  0  0  0  0  0  0  0  0  0  0
   59.2925   34.9045   47.4231 H   0  0  0  0  0  0  0  0  0  0  0  0
   60.0505   35.9127   46.1191 H   0  0  0  0  0  0  0  0  0  0  0  0
   57.8962   35.5093   45.2843 H   0  0  0  0  0  0  0  0  0  0  0  0
   58.9011   34.2377   44.4875 H   0  0  0  0  0  0  0  0  0  0  0  0
   56.7200   33.8310   46.4320 H   0  0  0  0  0  0  0  0  0  0  0  0
   59.7787   27.9627   47.6141 H   0  0  0  0  0  0  0  0  0  0  0  0
   59.0125   27.4849   46.0612 H   0  0  0  0  0  0  0  0  0  0  0  0
   60.6262   28.2740   46.0612 H   0  0  0  0  0  0  0  0  0  0  0  0
   59.6021   28.8879   49.0094 H   0  0  0  0  0  0  0  0  0  0  0  0
   59.6705   30.4471   50.9410 H   0  0  0  0  0  0  0  0  0  0  0  0
   59.1073   32.8517   50.6314 H   0  0  0  0  0  0  0  0  0  0  0  0
   58.3794   33.6865   48.4052 H   0  0  0  0  0  0  0  0  0  0  0  0
   59.0226   29.1390   43.3828 H   0  0  0  0  0  0  0  0  0  0  0  0
   58.1852   27.9918   44.4924 H   0  0  0  0  0  0  0  0  0  0  0  0
   56.7705   28.6906   42.5449 H   0  0  0  0  0  0  0  0  0  0  0  0
   56.0759   29.1478   44.1699 H   0  0  0  0  0  0  0  0  0  0  0  0
   56.9337   30.8542   41.9025 H   0  0  0  0  0  0  0  0  0  0  0  0
   55.7214   31.1256   43.2516 H   0  0  0  0  0  0  0  0  0  0  0  0
   58.6275   31.8449   43.0978 H   0  0  0  0  0  0  0  0  0  0  0  0
   57.1987   32.7454   43.7752 H   0  0  0  0  0  0  0  0  0  0  0  0
  1  2  1  0
  2  3  1  0
  3  4  1  0
  4  5  1  0
  5  6  1  0
  6  7  1  0
  7  8  1  0
  8  9  1  0
  9 10  1  0
 10 11  1  0
 11 12  1  0
 12 13  2  0
 13 14  1  0
 14 15  2  0
 15 16  1  0
 15 17  1  0
 17 18  2  0
 18 19  1  0
 19 20  2  0
 20 21  1  0
 21 22  2  0
 14 23  1  0
 23 24  1  0
 24 25  1  0
 25 26  1  0
 22 12  1  0
 26 13  1  0
 22 17  1  0
  1 27  1  0
  1 28  1  0
  1 29  1  0
  2 30  1  0
  2 31  1  0
  3 32  1  0
  3 33  1  0
  4 34  1  0
  4 35  1  0
  5 36  1  0
  5 37  1  0
  6 38  1  0
  6 39  1  0
  8 40  1  0
  8 41  1  0
  9 42  1  0
  9 43  1  0
 10 44  1  0
 10 45  1  0
 11 46  1  0
 16 47  1  0
 16 48  1  0
 16 49  1  0
 18 50  1  0
 19 51  1  0
 20 52  1  0
 21 53  1  0
 23 54  1  0
 23 55  1  0
 24 56  1  0
 24 57  1  0
 25 58  1  0
 25 59  1  0
 26 60  1  0
 26 61  1  0
M  CHG  2   3   1  15   1
M  END
>  <UniqueID>  (1) 
1

>  <SMILES>  (1) 
CC[NH2+]CCCOCCCNc1c2c([n+](C)c3ccccc13)CCCC2

>  <Energy>  (1) 
81.91949768388646

>  <Genealogy>  (1) 
CC[NH2+]CCCOCCCNc1c2c([n+](C)c3ccccc13)CCCC2 (protonated)
CC[NH2+]CCCOCCCNc1c2c([n+](C)c3ccccc13)CCCC2 (3D coordinates assigned)
CC[NH2+]CCCOCCCNc1c2c([n+](C)c3ccccc13)CCCC2 (nonaromatic ring conformer: 81.91949768388646 kcal/mol)

>  <smiles>  (1) 
CCNCCCOCCCNc1c2c([n+](C)c3ccccc13)CCCC2

>  <score_type>  (1) 
oracle

>  <origin>  (1) 
adg

>  <m_score__min__energy>  (1) 
-4.7000000000000002

>  <m_primary>  (1) 
energy

$$$$
1:0
     RDKit          3D

 33 34  0  0  0  0  0  0  0  0999 V2000
   56.5990   30.3120   43.0450 C   0  0  0  0  0  0  0  0  0  0  0  0
   55.5170   30.1510   44.1070 C   0  0  0  0  0  0  0  0  0  0  0  0
   56.0370   29.3870   45.2470 N   0  0  0  0  0  0  0  0  0  0  0  0
   57.1050   28.4600   44.8380 C   0  0  0  0  0  0  0  0  0  0  0  0
   58.0600   28.1930   46.0040 C   0  0  0  0  0  0  0  0  0  0  0  0
   58.0160   29.2860   46.9740 N   0  0  0  0  0  0  0  0  0  0  0  0
   59.0470   30.2850   47.0330 C   0  0  0  0  0  0  0  0  0  0  0  0
   60.2390   30.0240   47.7340 C   0  0  0  0  0  0  0  0  0  0  0  0
   60.5560   28.3280   48.5710 Br  0  0  0  0  0  0  0  0  0  0  0  0
   61.2420   30.9940   47.8010 C   0  0  0  0  0  0  0  0  0  0  0  0
   61.0780   32.2390   47.1890 C   0  0  0  0  0  0  0  0  0  0  0  0
   62.5180   33.5020   47.3420 Br  0  0  0  0  0  0  0  0  0  0  0  0
   59.8830   32.5270   46.4990 C   0  0  0  0  0  0  0  0  0  0  0  0
   59.6560   33.7710   45.8830 C   0  0  0  0  0  0  0  0  0  0  0  0
   58.4500   34.0210   45.2280 C   0  0  0  0  0  0  0  0  0  0  0  0
   57.4710   33.0290   45.1930 C   0  0  0  0  0  0  0  0  0  0  0  0
   57.6960   31.8300   45.7870 N   0  0  0  0  0  0  0  0  0  0  0  0
   58.8630   31.5430   46.4270 C   0  0  0  0  0  0  0  0  0  0  0  0
   57.5737   30.4570   43.5337 H   0  0  0  0  0  0  0  0  0  0  0  0
   56.6341   29.4092   42.4175 H   0  0  0  0  0  0  0  0  0  0  0  0
   56.3698   31.1859   42.4175 H   0  0  0  0  0  0  0  0  0  0  0  0
   55.1952   31.1448   44.4518 H   0  0  0  0  0  0  0  0  0  0  0  0
   54.6635   29.6107   43.6715 H   0  0  0  0  0  0  0  0  0  0  0  0
   56.4460   30.0720   45.9270 H   0  0  0  0  0  0  0  0  0  0  0  0
   56.6551   27.5100   44.5140 H   0  0  0  0  0  0  0  0  0  0  0  0
   57.6716   28.9132   44.0112 H   0  0  0  0  0  0  0  0  0  0  0  0
   57.7674   27.2570   46.5023 H   0  0  0  0  0  0  0  0  0  0  0  0
   59.0837   28.1138   45.6093 H   0  0  0  0  0  0  0  0  0  0  0  0
   57.4060   29.1550   47.8120 H   0  0  0  0  0  0  0  0  0  0  0  0
   62.1737   30.7745   48.3431 H   0  0  0  0  0  0  0  0  0  0  0  0
   60.4323   34.5496   45.9179 H   0  0  0  0  0  0  0  0  0  0  0  0
   58.2730   34.9925   44.7433 H   0  0  0  0  0  0  0  0  0  0  0  0
   56.5149   33.2186   44.6832 H   0  0  0  0  0  0  0  0  0  0  0  0
  1  2  1  0
  2  3  1  0
  3  4  1  0
  4  5  1  0
  5  6  1  0
  6  7  1  0
  7  8  2  0
  8  9  1  0
  8 10  1  0
 10 11  2  0
 11 12  1  0
 11 13  1  0
 13 14  2  0
 14 15  1  0
 15 16  2  0
 16 17  1  0
 17 18  2  0
 18  7  1  0
 18 13  1  0
  1 19  1  0
  1 20  1  0
  1 21  1  0
  2 22  1  0
  2 23  1  0
  3 24  1  0
  4 25  1  0
  4 26  1  0
  5 27  1  0
  5 28  1  0
  6 29  1  0
 10 30  1  0
 14 31  1  0
 15 32  1  0
 16 33  1  0
M  END
>  <UniqueID>  (2) 
2

>  <SMILES>  (2) 
CCNCCNc1c(Br)cc(Br)c2cccnc12

>  <Energy>  (2) 
37.271155641848246

>  <Genealogy>  (2) 
CCNCCNc1c(Br)cc(Br)c2cccnc12 (3D coordinates assigned)
CCNCCNc1c(Br)cc(Br)c2cccnc12 (optimized conformer: 37.271155641848246 kcal/mol)

>  <smiles>  (2) 
CCNCCNc1c(Br)cc(Br)c2cccnc12

>  <score_type>  (2) 
oracle

>  <origin>  (2) 
adg

>  <m_score__min__energy>  (2) 
-6.9100000000000001

>  <m_primary>  (2) 
energy

$$$$
2:0
     RDKit          3D

 57 60  0  0  0  0  0  0  0  0999 V2000
   63.2590   32.3710   47.4520 C   0  0  0  0  0  0  0  0  0  0  0  0
   63.3970   33.6950   48.1970 C   0  0  0  0  0  0  0  0  0  0  0  0
   62.1260   34.1480   48.6630 O   0  0  0  0  0  0  0  0  0  0  0  0
   60.8970   33.9450   48.0160 C   0  0  0  0  0  0  0  0  0  0  0  0
   60.6900   34.5720   46.7820 C   0  0  0  0  0  0  0  0  0  0  0  0
   59.4870   34.4070   46.0920 C   0  0  0  0  0  0  0  0  0  0  0  0
   58.4690   33.6020   46.6250 C   0  0  0  0  0  0  0  0  0  0  0  0
   57.1580   33.4520   45.8990 C   0  0  0  0  0  0  0  0  0  0  0  0
   57.3880   32.9590   44.4640 C   0  0  0  0  0  0  0  0  0  0  0  0
   58.5100   32.0010   44.4180 N   0  0  0  0  0  0  0  0  0  0  0  0
   58.2090   30.6510   44.9520 C   0  0  1  0  0  0  0  0  0  0  0  0
   57.7810   29.6510   43.8650 C   0  0  0  0  0  0  0  0  0  0  0  0
   57.2130   28.3820   44.5090 C   0  0  0  0  0  0  0  0  0  0  0  0
   58.0620   27.8470   45.6530 C   0  0  0  0  0  0  0  0  0  0  0  0
   59.0180   28.6790   46.2990 C   0  0  0  0  0  0  0  0  0  0  0  0
   59.7320   28.1920   47.4040 C   0  0  0  0  0  0  0  0  0  0  0  0
   59.4770   26.9190   47.9080 C   0  0  0  0  0  0  0  0  0  0  0  0
   58.5150   26.1090   47.3080 C   0  0  0  0  0  0  0  0  0  0  0  0
   57.8080   26.5560   46.1840 C   0  0  0  0  0  0  0  0  0  0  0  0
   56.7900   25.6590   45.6070 C   0  0  0  0  0  0  0  0  0  0  0  0
   57.1240   24.7610   44.5840 C   0  0  0  0  0  0  0  0  0  0  0  0
   56.1420   23.9080   44.0750 C   0  0  0  0  0  0  0  0  0  0  0  0
   54.8460   23.9510   44.5950 C   0  0  0  0  0  0  0  0  0  0  0  0
   54.5540   24.8480   45.6260 C   0  0  0  0  0  0  0  0  0  0  0  0
   55.5240   25.6710   46.1070 N   0  0  0  0  0  0  0  0  0  0  0  0
   59.3670   30.0500   45.7690 C   0  0  0  0  0  0  0  0  0  0  0  0
   58.6640   32.9850   47.8700 C   0  0  0  0  0  0  0  0  0  0  0  0
   59.8680   33.1510   48.5610 C   0  0  0  0  0  0  0  0  0  0  0  0
   63.1733   31.5490   48.1779 H   0  0  0  0  0  0  0  0  0  0  0  0
   62.3588   32.3977   46.8204 H   0  0  0  0  0  0  0  0  0  0  0  0
   64.1454   32.2115   46.8204 H   0  0  0  0  0  0  0  0  0  0  0  0
   64.0684   33.5567   49.0573 H   0  0  0  0  0  0  0  0  0  0  0  0
   63.8088   34.4468   47.5076 H   0  0  0  0  0  0  0  0  0  0  0  0
   61.4828   35.2011   46.3512 H   0  0  0  0  0  0  0  0  0  0  0  0
   59.3369   34.9108   45.1257 H   0  0  0  0  0  0  0  0  0  0  0  0
   56.5294   32.7252   46.4345 H   0  0  0  0  0  0  0  0  0  0  0  0
   56.6595   34.4318   45.8615 H   0  0  0  0  0  0  0  0  0  0  0  0
   56.4750   32.4644   44.1009 H   0  0  0  0  0  0  0  0  0  0  0  0
   57.6319   33.8220   43.8271 H   0  0  0  0  0  0  0  0  0  0  0  0
   58.8250   31.8990   43.4240 H   0  0  0  0  0  0  0  0  0  0  0  0
   59.3140   32.3940   44.9630 H   0  0  0  0  0  0  0  0  0  0  0  0
   57.3564   30.8150   45.6274 H   0  0  0  0  0  0  0  0  0  0  0  0
   57.0106   30.1123   43.2296 H   0  0  0  0  0  0  0  0  0  0  0  0
   58.6579   29.3839   43.2571 H   0  0  0  0  0  0  0  0  0  0  0  0
   56.2091   28.6086   44.8974 H   0  0  0  0  0  0  0  0  0  0  0  0
   57.1948   27.6054   43.7302 H   0  0  0  0  0  0  0  0  0  0  0  0
   60.5004   28.8214   47.8767 H   0  0  0  0  0  0  0  0  0  0  0  0
   60.0361   26.5523   48.7814 H   0  0  0  0  0  0  0  0  0  0  0  0
   58.3089   25.1102   47.7203 H   0  0  0  0  0  0  0  0  0  0  0  0
   58.1490   24.7283   44.1861 H   0  0  0  0  0  0  0  0  0  0  0  0
   56.3885   23.2040   43.2666 H   0  0  0  0  0  0  0  0  0  0  0  0
   54.0646   23.2866   44.1975 H   0  0  0  0  0  0  0  0  0  0  0  0
   53.5392   24.8884   46.0487 H   0  0  0  0  0  0  0  0  0  0  0  0
   59.5891   30.7149   46.6167 H   0  0  0  0  0  0  0  0  0  0  0  0
   60.2410   29.9522   45.1083 H   0  0  0  0  0  0  0  0  0  0  0  0
   57.8648   32.3670   48.3050 H   0  0  0  0  0  0  0  0  0  0  0  0
   60.0128   32.6597   49.5345 H   0  0  0  0  0  0  0  0  0  0  0  0
  1  2  1  0
  2  3  1  0
  3  4  1  0
  4  5  2  0
  5  6  1  0
  6  7  2  0
  7  8  1  0
  8  9  1  0
  9 10  1  0
 10 11  1  0
 11 12  1  0
 12 13  1  0
 13 14  1  0
 14 15  2  0
 15 16  1  0
 16 17  2  0
 17 18  1  0
 18 19  2  0
 19 20  1  0
 20 21  2  0
 21 22  1  0
 22 23  2  0
 23 24  1  0
 24 25  2  0
 15 26  1  0
  7 27  1  0
 27 28  2  0
 28  4  1  0
 26 11  1  0
 19 14  1  0
 25 20  1  0
  1 29  1  0
  1 30  1  0
  1 31  1  0
  2 32  1  0
  2 33  1  0
  5 34  1  0
  6 35  1  0
  8 36  1  0
  8 37  1  0
  9 38  1  0
  9 39  1  0
 10 40  1  0
 10 41  1  0
 11 42  1  1
 12 43  1  0
 12 44  1  0
 13 45  1  0
 13 46  1  0
 16 47  1  0
 17 48  1  0
 18 49  1  0
 21 50  1  0
 22 51  1  0
 23 52  1  0
 24 53  1  0
 26 54  1  0
 26 55  1  0
 27 56  1  0
 28 57  1  0
M  CHG  1  10   1
M  END
>  <UniqueID>  (3) 
3

>  <SMILES>  (3) 
CCOc1ccc(CC[NH2+][C@H]2CCc3c(cccc3-c3ccccn3)C2)cc1

>  <Energy>  (3) 
69.36427440807839

>  <Genealogy>  (3) 
CCOc1ccc(CC[NH2+]C2CCc3c(cccc3-c3ccccn3)C2)cc1 (protonated)
CCOc1ccc(CC[NH2+][C@H]2CCc3c(cccc3-c3ccccn3)C2)cc1 (chirality)
CCOc1ccc(CC[NH2+][C@H]2CCc3c(cccc3-c3ccccn3)C2)cc1 (3D coordinates assigned)
CCOc1ccc(CC[NH2+][C@H]2CCc3c(cccc3-c3ccccn3)C2)cc1 (nonaromatic ring conformer: 69.36427440807839 kcal/mol)

>  <smiles>  (3) 
CCOc1ccc(CCNC2CCc3c(cccc3-c3ccccn3)C2)cc1

>  <score_type>  (3) 
oracle

>  <origin>  (3) 
adg

>  <m_score__min__energy>  (3) 
-7.5300000000000002

>  <m_primary>  (3) 
energy

$$$$
3:0
     RDKit          3D

 78 81  0  0  0  0  0  0  0  0999 V2000
   59.2150   30.6070   49.0820 C   0  0  0  0  0  0  0  0  0  0  0  0
   60.7180   30.4000   49.2530 C   0  0  0  0  0  0  0  0  0  0  0  0
   61.3580   30.1200   47.9460 N   0  0  0  0  0  0  0  0  0  0  0  0
   60.5190   29.2330   47.0900 C   0  0  0  0  0  0  0  0  0  0  0  0
   60.3800   27.8610   47.7440 C   0  0  0  0  0  0  0  0  0  0  0  0
   61.7550   31.3690   47.2460 C   0  0  0  0  0  0  0  0  0  0  0  0
   63.2570   31.6030   47.4380 C   0  0  0  0  0  0  0  0  0  0  0  0
   63.5590   32.9770   47.8840 N   0  0  0  0  0  0  0  0  0  0  0  0
   63.3750   33.1400   49.3140 C   0  0  0  0  0  0  0  0  0  0  0  0
   64.4420   32.8300   50.2130 C   0  0  0  0  0  0  0  0  0  0  0  0
   65.7020   32.3310   49.7690 C   0  0  0  0  0  0  0  0  0  0  0  0
   66.7190   32.0120   50.6660 C   0  0  0  0  0  0  0  0  0  0  0  0
   66.5260   32.1840   52.0260 C   0  0  0  0  0  0  0  0  0  0  0  0
   65.3170   32.6760   52.4990 C   0  0  0  0  0  0  0  0  0  0  0  0
   64.2580   33.0230   51.6120 C   0  0  0  0  0  0  0  0  0  0  0  0
   63.0530   33.4820   52.0940 N   0  0  0  0  0  0  0  0  0  0  0  0
   62.9450   33.9630   53.4940 C   0  0  0  0  0  0  0  0  0  0  0  0
   61.9470   33.5080   51.2760 C   0  0  0  0  0  0  0  0  0  0  0  0
   60.6510   33.5380   51.8430 C   0  0  0  0  0  0  0  0  0  0  0  0
   59.5260   33.6680   51.0550 C   0  0  0  0  0  0  0  0  0  0  0  0
   59.6570   33.8330   49.6860 C   0  0  0  0  0  0  0  0  0  0  0  0
   60.9240   33.8140   49.0630 C   0  0  0  0  0  0  0  0  0  0  0  0
   61.0090   34.1460   47.6910 O   0  0  0  0  0  0  0  0  0  0  0  0
   59.9170   34.6900   46.9340 C   0  0  0  0  0  0  0  0  0  0  0  0
   59.6640   33.9830   45.5770 C   0  0  0  0  0  0  0  0  0  0  0  0
   58.4480   33.1020   45.4720 N   0  0  0  0  0  0  0  0  0  0  0  0
   57.4010   33.5450   46.4370 C   0  0  0  0  0  0  0  0  0  0  0  0
   58.8760   31.7180   45.8460 C   0  0  0  0  0  0  0  0  0  0  0  0
   57.7760   30.6410   45.6410 C   0  0  0  0  0  0  0  0  0  0  0  0
   56.7800   31.0430   44.6260 N   0  0  0  0  0  0  0  0  0  0  0  0
   56.0660   29.8660   44.1060 C   0  0  0  0  0  0  0  0  0  0  0  0
   57.4370   31.7750   43.5350 C   0  0  0  0  0  0  0  0  0  0  0  0
   57.9210   33.1370   44.0650 C   0  0  0  0  0  0  0  0  0  0  0  0
   62.0910   33.5000   49.8550 C   0  0  0  0  0  0  0  0  0  0  0  0
   58.7390   30.6726   50.0715 H   0  0  0  0  0  0  0  0  0  0  0  0
   59.0341   31.5385   48.5257 H   0  0  0  0  0  0  0  0  0  0  0  0
   58.7890   29.7590   48.5257 H   0  0  0  0  0  0  0  0  0  0  0  0
   61.1613   31.3092   49.6852 H   0  0  0  0  0  0  0  0  0  0  0  0
   60.8841   29.5415   49.9203 H   0  0  0  0  0  0  0  0  0  0  0  0
   59.5220   29.6813   46.9671 H   0  0  0  0  0  0  0  0  0  0  0  0
   60.9988   29.1188   46.1068 H   0  0  0  0  0  0  0  0  0  0  0  0
   60.3914   27.9735   48.8382 H   0  0  0  0  0  0  0  0  0  0  0  0
   59.4306   27.4009   47.4326 H   0  0  0  0  0  0  0  0  0  0  0  0
   61.2178   27.2198   47.4326 H   0  0  0  0  0  0  0  0  0  0  0  0
   61.5322   31.2753   46.1729 H   0  0  0  0  0  0  0  0  0  0  0  0
   61.1940   32.2185   47.6626 H   0  0  0  0  0  0  0  0  0  0  0  0
   63.6311   30.8960   48.1931 H   0  0  0  0  0  0  0  0  0  0  0  0
   63.7476   31.4502   46.4654 H   0  0  0  0  0  0  0  0  0  0  0  0
   64.4900   33.2770   47.5330 H   0  0  0  0  0  0  0  0  0  0  0  0
   62.9540   33.6550   47.4050 H   0  0  0  0  0  0  0  0  0  0  0  0
   65.8752   32.1946   48.6913 H   0  0  0  0  0  0  0  0  0  0  0  0
   67.6777   31.6225   50.2928 H   0  0  0  0  0  0  0  0  0  0  0  0
   67.3307   31.9308   52.7320 H   0  0  0  0  0  0  0  0  0  0  0  0
   65.1738   32.8006   53.5825 H   0  0  0  0  0  0  0  0  0  0  0  0
   63.1326   33.1274   54.1843 H   0  0  0  0  0  0  0  0  0  0  0  0
   63.6875   34.7558   53.6676 H   0  0  0  0  0  0  0  0  0  0  0  0
   61.9348   34.3623   53.6676 H   0  0  0  0  0  0  0  0  0  0  0  0
   60.5381   33.4560   52.9341 H   0  0  0  0  0  0  0  0  0  0  0  0
   58.5264   33.6406   51.5133 H   0  0  0  0  0  0  0  0  0  0  0  0
   58.7564   33.9817   49.0721 H   0  0  0  0  0  0  0  0  0  0  0  0
   59.0030   34.6078   47.5406 H   0  0  0  0  0  0  0  0  0  0  0  0
   60.1842   35.7312   46.7008 H   0  0  0  0  0  0  0  0  0  0  0  0
   59.5721   34.7654   44.8092 H   0  0  0  0  0  0  0  0  0  0  0  0
   60.5178   33.3009   45.4513 H   0  0  0  0  0  0  0  0  0  0  0  0
   57.7616   33.3924   47.4649 H   0  0  0  0  0  0  0  0  0  0  0  0
   57.1845   34.6118   46.2790 H   0  0  0  0  0  0  0  0  0  0  0  0
   56.4845   32.9575   46.2790 H   0  0  0  0  0  0  0  0  0  0  0  0
   59.7457   31.4462   45.2297 H   0  0  0  0  0  0  0  0  0  0  0  0
   59.1084   31.7357   46.9210 H   0  0  0  0  0  0  0  0  0  0  0  0
   58.2537   29.7047   45.3165 H   0  0  0  0  0  0  0  0  0  0  0  0
   57.2485   30.5123   46.5977 H   0  0  0  0  0  0  0  0  0  0  0  0
   55.6980   29.2594   44.9466 H   0  0  0  0  0  0  0  0  0  0  0  0
   55.2152   30.1952   43.4913 H   0  0  0  0  0  0  0  0  0  0  0  0
   56.7510   29.2636   43.4913 H   0  0  0  0  0  0  0  0  0  0  0  0
   58.2968   31.1956   43.1676 H   0  0  0  0  0  0  0  0  0  0  0  0
   56.7260   31.9288   42.7099 H   0  0  0  0  0  0  0  0  0  0  0  0
   58.7240   33.4976   43.4054 H   0  0  0  0  0  0  0  0  0  0  0  0
   57.0440   33.8009   44.0738 H   0  0  0  0  0  0  0  0  0  0  0  0
  1  2  1  0
  2  3  1  0
  3  4  1  0
  4  5  1  0
  3  6  1  0
  6  7  1  0
  7  8  1  0
  8  9  1  0
  9 10  2  0
 10 11  1  0
 11 12  2  0
 12 13  1  0
 13 14  2  0
 14 15  1  0
 15 16  2  0
 16 17  1  0
 16 18  1  0
 18 19  2  0
 19 20  1  0
 20 21  2  0
 21 22  1  0
 22 23  1  0
 23 24  1  0
 24 25  1  0
 25 26  1  0
 26 27  1  0
 26 28  1  0
 28 29  1  0
 29 30  1  0
 30 31  1  0
 30 32  1  0
 32 33  1  0
 22 34  2  0
 34  9  1  0
 15 10  1  0
 34 18  1  0
 33 26  1  0
  1 35  1  0
  1 36  1  0
  1 37  1  0
  2 38  1  0
  2 39  1  0
  4 40  1  0
  4 41  1  0
  5 42  1  0
  5 43  1  0
  5 44  1  0
  6 45  1  0
  6 46  1  0
  7 47  1  0
  7 48  1  0
  8 49  1  0
  8 50  1  0
 11 51  1  0
 12 52  1  0
 13 53  1  0
 14 54  1  0
 17 55  1  0
 17 56  1  0
 17 57  1  0
 19 58  1  0
 20 59  1  0
 21 60  1  0
 24 61  1  0
 24 62  1  0
 25 63  1  0
 25 64  1  0
 27 65  1  0
 27 66  1  0
 27 67  1  0
 28 68  1  0
 28 69  1  0
 29 70  1  0
 29 71  1  0
 31 72  1  0
 31 73  1  0
 31 74  1  0
 32 75  1  0
 32 76  1  0
 33 77  1  0
 33 78  1  0
M  CHG  3   8   1  16   1  26   1
M  END
>  <UniqueID>  (4) 
4

>  <SMILES>  (4) 
CCN(CC)CC[NH2+]c1c2ccccc2[n+](C)c2cccc(OCC[N+]3(C)CCN(C)CC3)c12

>  <Energy>  (4) 
143.37143747952678

>  <Genealogy>  (4) 
CCN(CC)CC[NH2+]c1c2ccccc2[n+](C)c2cccc(OCC[N+]3(C)CCN(C)CC3)c12 (protonated)
CCN(CC)CC[NH2+]c1c2ccccc2[n+](C)c2cccc(OCC[N+]3(C)CCN(C)CC3)c12 (3D coordinates assigned)
CCN(CC)CC[NH2+]c1c2ccccc2[n+](C)c2cccc(OCC[N+]3(C)CCN(C)CC3)c12 (nonaromatic ring conformer: 143.37143747952678 kcal/mol)

>  <smiles>  (4) 
CCN(CC)CCNc1c2ccccc2[n+](C)c2cccc(OCC[N+]3(C)CCN(C)CC3)c12

>  <score_type>  (4) 
oracle

>  <origin>  (4) 
adg

>  <m_score__min__energy>  (4) 
-3.7599999999999998

>  <m_primary>  (4) 
energy

$$$$
4:0
     RDKit          3D

 61 63  0  0  0  0  0  0  0  0999 V2000
   59.6180   33.6440   50.4930 C   0  0  0  0  0  0  0  0  0  0  0  0
   61.0060   33.7470   51.1020 C   0  0  0  0  0  0  0  0  0  0  0  0
   61.9570   33.8600   50.0630 O   0  0  0  0  0  0  0  0  0  0  0  0
   63.2590   33.8910   50.6120 C   0  0  0  0  0  0  0  0  0  0  0  0
   64.2580   33.4640   49.5350 C   0  0  0  0  0  0  0  0  0  0  0  0
   64.0940   31.9900   49.1290 C   0  0  0  0  0  0  0  0  0  0  0  0
   63.7690   31.8240   47.7020 N   0  0  0  0  0  0  0  0  0  0  0  0
   63.6120   33.0880   46.9590 C   0  0  0  0  0  0  0  0  0  0  0  0
   62.1320   33.5050   46.7470 C   0  0  0  0  0  0  0  0  0  0  0  0
   61.2350   32.9460   47.7810 N   0  0  0  0  0  0  0  0  0  0  0  0
   60.1830   32.1130   47.2050 C   0  0  0  0  0  0  0  0  0  0  0  0
   59.2530   32.6690   46.2940 C   0  0  0  0  0  0  0  0  0  0  0  0
   58.9830   34.0570   46.2650 C   0  0  0  0  0  0  0  0  0  0  0  0
   58.0510   34.5870   45.3760 C   0  0  0  0  0  0  0  0  0  0  0  0
   57.3630   33.7480   44.5070 C   0  0  0  0  0  0  0  0  0  0  0  0
   57.6160   32.3780   44.5100 C   0  0  0  0  0  0  0  0  0  0  0  0
   58.5800   31.8140   45.3830 C   0  0  0  0  0  0  0  0  0  0  0  0
   58.8820   30.4690   45.3540 N   0  0  0  0  0  0  0  0  0  0  0  0
   58.5070   29.6500   44.1780 C   0  0  0  0  0  0  0  0  0  0  0  0
   59.5210   29.8890   46.4320 C   0  0  0  0  0  0  0  0  0  0  0  0
   59.5680   28.4820   46.5850 C   0  0  0  0  0  0  0  0  0  0  0  0
   60.1820   27.9000   47.6840 C   0  0  0  0  0  0  0  0  0  0  0  0
   60.6880   28.6930   48.7030 C   0  0  0  0  0  0  0  0  0  0  0  0
   60.6130   30.0930   48.6250 C   0  0  0  0  0  0  0  0  0  0  0  0
   60.9340   30.8780   49.7460 O   0  0  0  0  0  0  0  0  0  0  0  0
   61.0940   30.3880   51.0760 C   0  0  0  0  0  0  0  0  0  0  0  0
   62.5400   29.9700   51.2880 C   0  0  0  0  0  0  0  0  0  0  0  0
   60.1290   30.7070   47.4300 C   0  0  0  0  0  0  0  0  0  0  0  0
   58.8684   33.5884   51.2961 H   0  0  0  0  0  0  0  0  0  0  0  0
   59.4238   34.5302   49.8710 H   0  0  0  0  0  0  0  0  0  0  0  0
   59.5568   32.7388   49.8710 H   0  0  0  0  0  0  0  0  0  0  0  0
   61.0598   34.6347   51.7493 H   0  0  0  0  0  0  0  0  0  0  0  0
   61.2161   32.8494   51.7021 H   0  0  0  0  0  0  0  0  0  0  0  0
   63.4935   34.9111   50.9503 H   0  0  0  0  0  0  0  0  0  0  0  0
   63.3192   33.2060   51.4705 H   0  0  0  0  0  0  0  0  0  0  0  0
   64.1079   34.0935   48.6455 H   0  0  0  0  0  0  0  0  0  0  0  0
   65.2691   33.5850   49.9510 H   0  0  0  0  0  0  0  0  0  0  0  0
   65.0352   31.4608   49.3390 H   0  0  0  0  0  0  0  0  0  0  0  0
   63.2558   31.5777   49.7098 H   0  0  0  0  0  0  0  0  0  0  0  0
   64.5290   31.2620   47.2510 H   0  0  0  0  0  0  0  0  0  0  0  0
   64.1213   33.8861   47.5191 H   0  0  0  0  0  0  0  0  0  0  0  0
   64.0490   32.9321   45.9617 H   0  0  0  0  0  0  0  0  0  0  0  0
   62.0663   34.6026   46.7783 H   0  0  0  0  0  0  0  0  0  0  0  0
   61.8084   33.1094   45.7730 H   0  0  0  0  0  0  0  0  0  0  0  0
   60.8110   33.7170   48.3460 H   0  0  0  0  0  0  0  0  0  0  0  0
   61.8500   32.4270   48.4320 H   0  0  0  0  0  0  0  0  0  0  0  0
   59.5168   34.7276   46.9545 H   0  0  0  0  0  0  0  0  0  0  0  0
   57.8592   35.6701   45.3615 H   0  0  0  0  0  0  0  0  0  0  0  0
   56.6171   34.1668   43.8154 H   0  0  0  0  0  0  0  0  0  0  0  0
   57.0587   31.7233   43.8238 H   0  0  0  0  0  0  0  0  0  0  0  0
   58.0714   28.6987   44.5175 H   0  0  0  0  0  0  0  0  0  0  0  0
   57.7689   30.1955   43.5716 H   0  0  0  0  0  0  0  0  0  0  0  0
   59.4022   29.4477   43.5716 H   0  0  0  0  0  0  0  0  0  0  0  0
   59.1095   27.8395   45.8189 H   0  0  0  0  0  0  0  0  0  0  0  0
   60.2680   26.8052   47.7476 H   0  0  0  0  0  0  0  0  0  0  0  0
   61.1527   28.2206   49.5810 H   0  0  0  0  0  0  0  0  0  0  0  0
   60.8317   31.1798   51.7931 H   0  0  0  0  0  0  0  0  0  0  0  0
   60.4340   29.5218   51.2310 H   0  0  0  0  0  0  0  0  0  0  0  0
   62.7498   29.9093   52.3661 H   0  0  0  0  0  0  0  0  0  0  0  0
   62.7089   28.9863   50.8257 H   0  0  0  0  0  0  0  0  0  0  0  0
   63.2077   30.7119   50.8257 H   0  0  0  0  0  0  0  0  0  0  0  0
  1  2  1  0
  2  3  1  0
  3  4  1  0
  4  5  1  0
  5  6  1  0
  6  7  1  0
  7  8  1  0
  8  9  1  0
  9 10  1  0
 10 11  1  0
 11 12  2  0
 12 13  1  0
 13 14  2  0
 14 15  1  0
 15 16  2  0
 16 17  1  0
 17 18  2  0
 18 19  1  0
 18 20  1  0
 20 21  2  0
 21 22  1  0
 22 23  2  0
 23 24  1  0
 24 25  1  0
 25 26  1  0
 26 27  1  0
 24 28  2  0
 28 11  1  0
 17 12  1  0
 28 20  1  0
  1 29  1  0
  1 30  1  0
  1 31  1  0
  2 32  1  0
  2 33  1  0
  4 34  1  0
  4 35  1  0
  5 36  1  0
  5 37  1  0
  6 38  1  0
  6 39  1  0
  7 40  1  0
  8 41  1  0
  8 42  1  0
  9 43  1  0
  9 44  1  0
 10 45  1  0
 10 46  1  0
 13 47  1  0
 14 48  1  0
 15 49  1  0
 16 50  1  0
 19 51  1  0
 19 52  1  0
 19 53  1  0
 21 54  1  0
 22 55  1  0
 23 56  1  0
 26 57  1  0
 26 58  1  0
 27 59  1  0
 27 60  1  0
 27 61  1  0
M  CHG  2  10   1  18   1
M  END
>  <UniqueID>  (5) 
5

>  <SMILES>  (5) 
CCOCCCNCC[NH2+]c1c2ccccc2[n+](C)c2cccc(OCC)c12

>  <Energy>  (5) 
92.1525604135074

>  <Genealogy>  (5) 
CCOCCCNCC[NH2+]c1c2ccccc2[n+](C)c2cccc(OCC)c12 (protonated)
CCOCCCNCC[NH2+]c1c2ccccc2[n+](C)c2cccc(OCC)c12 (3D coordinates assigned)
CCOCCCNCC[NH2+]c1c2ccccc2[n+](C)c2cccc(OCC)c12 (optimized conformer: 92.1525604135074 kcal/mol)

>  <smiles>  (5) 
CCOCCCNCCNc1c2ccccc2[n+](C)c2cccc(OCC)c12

>  <score_type>  (5) 
oracle

>  <origin>  (5) 
adg

>  <m_score__min__energy>  (5) 
-3.6000000000000001

>  <m_primary>  (5) 
energy

$$$$
5:0
     RDKit          3D

 29 28  0  0  0  0  0  0  0  0999 V2000
   57.7290   29.2800   42.4390 H   0  0  0  0  0  0  0  0  0  0  0  0
   57.2900   28.5730   43.0650 N   0  0  0  0  0  0  0  0  0  0  0  0
   56.3480   28.2180   42.7870 H   0  0  0  0  0  0  0  0  0  0  0  0
   57.9240   28.0590   44.2470 C   0  0  0  0  0  0  0  0  0  0  0  0
   57.2360   27.0330   44.9910 N   0  0  0  0  0  0  0  0  0  0  0  0
   56.3010   26.7310   44.6340 H   0  0  0  0  0  0  0  0  0  0  0  0
   57.7500   26.4360   46.2270 C   0  0  0  0  0  0  0  0  0  0  0  0
   58.7072   25.9386   46.0117 H   0  0  0  0  0  0  0  0  0  0  0  0
   57.8815   27.2389   46.9674 H   0  0  0  0  0  0  0  0  0  0  0  0
   56.7710   25.4030   46.8080 C   0  0  0  0  0  0  0  0  0  0  0  0
   57.0944   24.3967   46.5033 H   0  0  0  0  0  0  0  0  0  0  0  0
   56.7764   25.5084   47.9029 H   0  0  0  0  0  0  0  0  0  0  0  0
   55.4020   25.6210   46.3400 N   0  0  0  0  0  0  0  0  0  0  0  0
   54.7930   24.8390   46.6700 H   0  0  0  0  0  0  0  0  0  0  0  0
   55.0380   26.5080   46.7580 H   0  0  0  0  0  0  0  0  0  0  0  0
   59.0950   28.5020   44.6410 N   0  0  0  0  0  0  0  0  0  0  0  0
   59.9040   27.8470   44.7060 H   0  0  0  0  0  0  0  0  0  0  0  0
   59.3910   29.8920   45.0070 C   0  0  0  0  0  0  0  0  0  0  0  0
   60.1491   30.2900   44.3165 H   0  0  0  0  0  0  0  0  0  0  0  0
   59.7603   29.9055   46.0431 H   0  0  0  0  0  0  0  0  0  0  0  0
   58.1370   30.7710   44.9310 C   0  0  0  0  0  0  0  0  0  0  0  0
   57.3410   30.3155   45.5384 H   0  0  0  0  0  0  0  0  0  0  0  0
   57.8241   30.8453   43.8791 H   0  0  0  0  0  0  0  0  0  0  0  0
   58.4110   32.1220   45.4340 C   0  0  0  0  0  0  0  0  0  0  0  0
   58.6330   33.2330   45.8480 C   0  0  0  0  0  0  0  0  0  0  0  0
   58.9020   34.5820   46.3460 C   0  0  0  0  0  0  0  0  0  0  0  0
   58.9004   34.5739   47.4460 H   0  0  0  0  0  0  0  0  0  0  0  0
   59.8847   34.9176   45.9832 H   0  0  0  0  0  0  0  0  0  0  0  0
   58.1231   35.2689   45.9832 H   0  0  0  0  0  0  0  0  0  0  0  0
  1  2  1  0
  2  3  1  0
  2  4  1  0
  4  5  1  0
  5  6  1  0
  5  7  1  0
  7  8  1  0
  7  9  1  0
  7 10  1  0
 10 11  1  0
 10 12  1  0
 10 13  1  0
 13 14  1  0
 13 15  1  0
  4 16  2  0
 16 17  1  0
 16 18  1  0
 18 19  1  0
 18 20  1  0
 18 21  1  0
 21 22  1  0
 21 23  1  0
 21 24  1  0
 24 25  3  0
 25 26  1  0
 26 27  1  0
 26 28  1  0
 26 29  1  0
M  CHG  1  16   1
M  END
>  <UniqueID>  (6) 
6

>  <SMILES>  (6) 
CC#CCC/[NH+]=C(\N)NCCN

>  <Energy>  (6) 
13.504419706442208

>  <Genealogy>  (6) 
CC#CCC[NH+]=C(N)NCCN (protonated)
CC#CCC/[NH+]=C(\N)NCCN (cis-trans isomerization)
CC#CCC/[NH+]=C(\N)NCCN (3D coordinates assigned)
CC#CCC/[NH+]=C(\N)NCCN (optimized conformer: 13.504419706442208 kcal/mol)

>  <smiles>  (6) 
CC#CCCN=C(N)NCCN

>  <score_type>  (6) 
oracle

>  <origin>  (6) 
adg

>  <m_score__min__energy>  (6) 
-3.0899999999999999

>  <m_primary>  (6) 
energy

$$$$
6:0
     RDKit          3D

 80 83  0  0  0  0  0  0  0  0999 V2000
   60.1360   33.7490   47.0750 C   0  0  0  0  0  0  0  0  0  0  0  0
   60.9030   32.6630   46.5630 O   0  0  0  0  0  0  0  0  0  0  0  0
   60.5500   31.3080   46.6780 C   0  0  0  0  0  0  0  0  0  0  0  0
   59.6920   30.6800   45.7630 C   0  0  0  0  0  0  0  0  0  0  0  0
   59.3750   29.3060   45.8700 C   0  0  0  0  0  0  0  0  0  0  0  0
   58.6190   28.6330   44.8710 C   0  0  0  0  0  0  0  0  0  0  0  0
   58.0350   29.3710   43.7560 N   0  0  0  0  0  0  0  0  0  0  0  0
   56.7020   29.9760   44.0080 C   0  0  0  0  0  0  0  0  0  0  0  0
   56.6750   31.5140   44.1560 C   0  0  0  0  0  0  0  0  0  0  0  0
   57.9250   32.1340   43.6560 N   0  0  0  0  0  0  0  0  0  0  0  0
   58.1750   33.4370   44.2980 C   0  0  0  0  0  0  0  0  0  0  0  0
   57.8660   32.3090   42.1970 C   0  0  0  0  0  0  0  0  0  0  0  0
   58.4680   27.2200   44.9730 C   0  0  0  0  0  0  0  0  0  0  0  0
   57.8860   26.4470   43.9340 C   0  0  0  0  0  0  0  0  0  0  0  0
   57.7640   25.0650   44.0440 C   0  0  0  0  0  0  0  0  0  0  0  0
   58.2340   24.4110   45.1720 C   0  0  0  0  0  0  0  0  0  0  0  0
   58.8200   25.1360   46.2050 C   0  0  0  0  0  0  0  0  0  0  0  0
   58.9260   26.5510   46.1440 C   0  0  0  0  0  0  0  0  0  0  0  0
   59.4780   27.2680   47.1840 N   0  0  0  0  0  0  0  0  0  0  0  0
   59.6570   26.6310   48.5090 C   0  0  0  0  0  0  0  0  0  0  0  0
   59.8500   28.5830   46.9930 C   0  0  0  0  0  0  0  0  0  0  0  0
   60.7240   29.2320   47.8970 C   0  0  0  0  0  0  0  0  0  0  0  0
   61.0900   30.5760   47.7330 C   0  0  0  0  0  0  0  0  0  0  0  0
   61.9920   31.2250   48.5970 O   0  0  0  0  0  0  0  0  0  0  0  0
   62.1780   30.9320   49.9820 C   0  0  0  0  0  0  0  0  0  0  0  0
   62.5090   32.2240   50.7720 C   0  0  0  0  0  0  0  0  0  0  0  0
   63.6360   33.0530   50.2280 N   0  0  0  0  0  0  0  0  0  0  0  0
   63.1520   33.8670   49.0810 C   0  0  0  0  0  0  0  0  0  0  0  0
   64.6930   32.1100   49.7280 C   0  0  0  0  0  0  0  0  0  0  0  0
   66.1140   32.7060   49.8150 C   0  0  0  0  0  0  0  0  0  0  0  0
   66.5150   33.0070   51.2270 N   0  0  0  0  0  0  0  0  0  0  0  0
   67.2300   31.8410   51.8040 C   0  0  0  0  0  0  0  0  0  0  0  0
   67.4510   34.1600   51.2270 C   0  0  0  0  0  0  0  0  0  0  0  0
   65.3320   33.3230   52.0880 C   0  0  0  0  0  0  0  0  0  0  0  0
   64.1910   33.9700   51.2800 C   0  0  0  0  0  0  0  0  0  0  0  0
   60.1536   33.7241   48.1746 H   0  0  0  0  0  0  0  0  0  0  0  0
   60.5647   34.6988   46.7229 H   0  0  0  0  0  0  0  0  0  0  0  0
   59.0975   33.6626   46.7229 H   0  0  0  0  0  0  0  0  0  0  0  0
   59.2557   31.2699   44.9434 H   0  0  0  0  0  0  0  0  0  0  0  0
   57.9620   28.7330   42.9310 H   0  0  0  0  0  0  0  0  0  0  0  0
   58.6860   30.0980   43.3920 H   0  0  0  0  0  0  0  0  0  0  0  0
   56.0456   29.7069   43.1674 H   0  0  0  0  0  0  0  0  0  0  0  0
   56.3738   29.5780   44.9795 H   0  0  0  0  0  0  0  0  0  0  0  0
   55.8251   31.9126   43.5827 H   0  0  0  0  0  0  0  0  0  0  0  0
   56.5763   31.7543   45.2249 H   0  0  0  0  0  0  0  0  0  0  0  0
   58.1521   33.3175   45.3913 H   0  0  0  0  0  0  0  0  0  0  0  0
   59.1618   33.8137   43.9909 H   0  0  0  0  0  0  0  0  0  0  0  0
   57.3977   34.1522   43.9909 H   0  0  0  0  0  0  0  0  0  0  0  0
   57.5226   33.3276   41.9635 H   0  0  0  0  0  0  0  0  0  0  0  0
   58.8667   32.1521   41.7681 H   0  0  0  0  0  0  0  0  0  0  0  0
   57.1646   31.5782   41.7681 H   0  0  0  0  0  0  0  0  0  0  0  0
   57.5247   26.9499   43.0249 H   0  0  0  0  0  0  0  0  0  0  0  0
   57.2931   24.4899   43.2331 H   0  0  0  0  0  0  0  0  0  0  0  0
   58.1437   23.3175   45.2507 H   0  0  0  0  0  0  0  0  0  0  0  0
   59.2085   24.6032   47.0855 H   0  0  0  0  0  0  0  0  0  0  0  0
   59.4503   27.3665   49.3004 H   0  0  0  0  0  0  0  0  0  0  0  0
   58.9622   25.7837   48.6054 H   0  0  0  0  0  0  0  0  0  0  0  0
   60.6915   26.2696   48.6054 H   0  0  0  0  0  0  0  0  0  0  0  0
   61.1270   28.6676   48.7508 H   0  0  0  0  0  0  0  0  0  0  0  0
   61.2558   30.4879   50.3848 H   0  0  0  0  0  0  0  0  0  0  0  0
   63.0161   30.2273   50.0865 H   0  0  0  0  0  0  0  0  0  0  0  0
   61.6055   32.8512   50.7866 H   0  0  0  0  0  0  0  0  0  0  0  0
   62.8382   31.8892   51.7668 H   0  0  0  0  0  0  0  0  0  0  0  0
   62.6240   34.7551   49.4586 H   0  0  0  0  0  0  0  0  0  0  0  0
   64.0090   34.1830   48.4681 H   0  0  0  0  0  0  0  0  0  0  0  0
   62.4651   33.2649   48.4681 H   0  0  0  0  0  0  0  0  0  0  0  0
   64.6593   31.1915   50.3323 H   0  0  0  0  0  0  0  0  0  0  0  0
   64.4824   31.9078   48.6674 H   0  0  0  0  0  0  0  0  0  0  0  0
   66.8275   31.9847   49.3900 H   0  0  0  0  0  0  0  0  0  0  0  0
   66.1190   33.6517   49.2532 H   0  0  0  0  0  0  0  0  0  0  0  0
   67.1959   31.8966   52.9021 H   0  0  0  0  0  0  0  0  0  0  0  0
   66.7463   30.9117   51.4687 H   0  0  0  0  0  0  0  0  0  0  0  0
   68.2776   31.8507   51.4687 H   0  0  0  0  0  0  0  0  0  0  0  0
   67.6821   34.4447   52.2641 H   0  0  0  0  0  0  0  0  0  0  0  0
   68.3794   33.8786   50.7085 H   0  0  0  0  0  0  0  0  0  0  0  0
   66.9848   35.0107   50.7085 H   0  0  0  0  0  0  0  0  0  0  0  0
   64.9629   32.3912   52.5414 H   0  0  0  0  0  0  0  0  0  0  0  0
   65.6526   34.0389   52.8592 H   0  0  0  0  0  0  0  0  0  0  0  0
   63.3807   34.2438   51.9718 H   0  0  0  0  0  0  0  0  0  0  0  0
   64.6036   34.8523   50.7688 H   0  0  0  0  0  0  0  0  0  0  0  0
  1  2  1  0
  2  3  1  0
  3  4  2  0
  4  5  1  0
  5  6  2  0
  6  7  1  0
  7  8  1  0
  8  9  1  0
  9 10  1  0
 10 11  1  0
 10 12  1  0
  6 13  1  0
 13 14  2  0
 14 15  1  0
 15 16  2  0
 16 17  1  0
 17 18  2  0
 18 19  1  0
 19 20  1  0
 19 21  2  0
 21 22  1  0
 22 23  2  0
 23 24  1  0
 24 25  1  0
 25 26  1  0
 26 27  1  0
 27 28  1  0
 27 29  1  0
 29 30  1  0
 30 31  1  0
 31 32  1  0
 31 33  1  0
 31 34  1  0
 34 35  1  0
 23  3  1  0
 35 27  1  0
 21  5  1  0
 18 13  1  0
  1 36  1  0
  1 37  1  0
  1 38  1  0
  4 39  1  0
  7 40  1  0
  7 41  1  0
  8 42  1  0
  8 43  1  0
  9 44  1  0
  9 45  1  0
 11 46  1  0
 11 47  1  0
 11 48  1  0
 12 49  1  0
 12 50  1  0
 12 51  1  0
 14 52  1  0
 15 53  1  0
 16 54  1  0
 17 55  1  0
 20 56  1  0
 20 57  1  0
 20 58  1  0
 22 59  1  0
 25 60  1  0
 25 61  1  0
 26 62  1  0
 26 63  1  0
 28 64  1  0
 28 65  1  0
 28 66  1  0
 29 67  1  0
 29 68  1  0
 30 69  1  0
 30 70  1  0
 32 71  1  0
 32 72  1  0
 32 73  1  0
 33 74  1  0
 33 75  1  0
 33 76  1  0
 34 77  1  0
 34 78  1  0
 35 79  1  0
 35 80  1  0
M  CHG  4   7   1  19   1  27   1  31   1
M  END
>  <UniqueID>  (7) 
7

>  <SMILES>  (7) 
COc1cc2c([NH2+]CCN(C)C)c3ccccc3[n+](C)c2cc1OCC[N+]1(C)CC[N+](C)(C)CC1

>  <Energy>  (7) 
137.06587653716025

>  <Genealogy>  (7) 
COc1cc2c([NH2+]CCN(C)C)c3ccccc3[n+](C)c2cc1OCC[N+]1(C)CC[N+](C)(C)CC1 (protonated)
COc1cc2c([NH2+]CCN(C)C)c3ccccc3[n+](C)c2cc1OCC[N+]1(C)CC[N+](C)(C)CC1 (3D coordinates assigned)
COc1cc2c([NH2+]CCN(C)C)c3ccccc3[n+](C)c2cc1OCC[N+]1(C)CC[N+](C)(C)CC1 (nonaromatic ring conformer: 137.06587653716025 kcal/mol)

>  <smiles>  (7) 
COc1cc2c(NCCN(C)C)c3ccccc3[n+](C)c2cc1OCC[N+]1(C)CC[N+](C)(C)CC1

>  <score_type>  (7) 
oracle

>  <origin>  (7) 
adg

>  <m_score__min__energy>  (7) 
-2.1000000000000001

>  <m_primary>  (7) 
energy

$$$$
7:0
     RDKit          3D

 38 40  0  0  0  0  0  0  0  0999 V2000
   65.1230   31.6630   50.5260 C   0  0  0  0  0  0  0  0  0  0  0  0
   65.0730   32.7150   49.4060 C   0  0  0  0  0  0  0  0  0  0  0  0
   63.8130   32.7230   48.6180 N   0  0  0  0  0  0  0  0  0  0  0  0
   63.7440   33.8480   47.6610 C   0  0  0  0  0  0  0  0  0  0  0  0
   62.5950   33.6230   46.6740 C   0  0  0  0  0  0  0  0  0  0  0  0
   61.4030   33.1380   47.3750 N   0  0  0  0  0  0  0  0  0  0  0  0
   60.2670   32.7070   46.6130 C   0  0  0  0  0  0  0  0  0  0  0  0
   59.3990   33.6060   46.1070 C   0  0  0  0  0  0  0  0  0  0  0  0
   59.6470   35.3330   46.3580 Cl  0  0  0  0  0  0  0  0  0  0  0  0
   58.2250   33.1620   45.3210 C   0  0  0  0  0  0  0  0  0  0  0  0
   57.4240   34.0170   44.8570 O   0  0  0  0  0  0  0  0  0  0  0  0
   57.9980   31.7190   45.0840 C   0  0  0  0  0  0  0  0  0  0  0  0
   56.9020   31.2530   44.3440 C   0  0  0  0  0  0  0  0  0  0  0  0
   56.7290   29.8820   44.1460 C   0  0  0  0  0  0  0  0  0  0  0  0
   57.6550   28.9890   44.6890 C   0  0  0  0  0  0  0  0  0  0  0  0
   58.7130   29.4540   45.4040 N   0  0  0  0  0  0  0  0  0  0  0  0
   58.9060   30.7860   45.6130 C   0  0  0  0  0  0  0  0  0  0  0  0
   60.0640   31.2580   46.3930 C   0  0  0  0  0  0  0  0  0  0  0  0
   60.8790   30.4270   46.8760 O   0  0  0  0  0  0  0  0  0  0  0  0
   61.3270   33.1960   48.8380 C   0  0  0  0  0  0  0  0  0  0  0  0
   62.6080   32.6320   49.4900 C   0  0  0  0  0  0  0  0  0  0  0  0
   65.0991   32.1668   51.5036 H   0  0  0  0  0  0  0  0  0  0  0  0
   64.2557   30.9921   50.4379 H   0  0  0  0  0  0  0  0  0  0  0  0
   66.0500   31.0774   50.4379 H   0  0  0  0  0  0  0  0  0  0  0  0
   65.1980   33.7079   49.8626 H   0  0  0  0  0  0  0  0  0  0  0  0
   65.8783   32.4582   48.7021 H   0  0  0  0  0  0  0  0  0  0  0  0
   63.8370   31.8410   48.0490 H   0  0  0  0  0  0  0  0  0  0  0  0
   63.5738   34.7851   48.2114 H   0  0  0  0  0  0  0  0  0  0  0  0
   64.6915   33.9097   47.1057 H   0  0  0  0  0  0  0  0  0  0  0  0
   62.3582   34.5726   46.1718 H   0  0  0  0  0  0  0  0  0  0  0  0
   62.9039   32.8694   45.9347 H   0  0  0  0  0  0  0  0  0  0  0  0
   56.1798   31.9664   43.9203 H   0  0  0  0  0  0  0  0  0  0  0  0
   55.8711   29.5086   43.5676 H   0  0  0  0  0  0  0  0  0  0  0  0
   57.5278   27.9069   44.5377 H   0  0  0  0  0  0  0  0  0  0  0  0
   61.1982   34.2433   49.1487 H   0  0  0  0  0  0  0  0  0  0  0  0
   60.4731   32.5847   49.1654 H   0  0  0  0  0  0  0  0  0  0  0  0
   62.8045   33.1954   50.4141 H   0  0  0  0  0  0  0  0  0  0  0  0
   62.4286   31.5636   49.6805 H   0  0  0  0  0  0  0  0  0  0  0  0
  1  2  1  0
  2  3  1  0
  3  4  1  0
  4  5  1  0
  5  6  1  0
  6  7  1  0
  7  8  2  0
  8  9  1  0
  8 10  1  0
 10 11  2  0
 10 12  1  0
 12 13  2  0
 13 14  1  0
 14 15  2  0
 15 16  1  0
 16 17  2  0
 17 18  1  0
 18 19  2  0
  6 20  1  0
 20 21  1  0
 21  3  1  0
 18  7  1  0
 17 12  1  0
  1 22  1  0
  1 23  1  0
  1 24  1  0
  2 25  1  0
  2 26  1  0
  3 27  1  0
  4 28  1  0
  4 29  1  0
  5 30  1  0
  5 31  1  0
 13 32  1  0
 14 33  1  0
 15 34  1  0
 20 35  1  0
 20 36  1  0
 21 37  1  0
 21 38  1  0
M  CHG  1   3   1
M  END
>  <UniqueID>  (8) 
8

>  <SMILES>  (8) 
CC[NH+]1CCN(C2=C(Cl)C(=O)c3cccnc3C2=O)CC1

>  <Energy>  (8) 
54.69487722303287

>  <Genealogy>  (8) 
CC[NH+]1CCN(C2=C(Cl)C(=O)c3cccnc3C2=O)CC1 (protonated)
CC[NH+]1CCN(C2=C(Cl)C(=O)c3cccnc3C2=O)CC1 (3D coordinates assigned)
CC[NH+]1CCN(C2=C(Cl)C(=O)c3cccnc3C2=O)CC1 (nonaromatic ring conformer: 54.69487722303287 kcal/mol)

>  <smiles>  (8) 
CCN1CCN(C2=C(Cl)C(=O)c3cccnc3C2=O)CC1

>  <score_type>  (8) 
oracle

>  <origin>  (8) 
adg

>  <m_score__min__energy>  (8) 
-5.7400000000000002

>  <m_primary>  (8) 
energy

$$$$
8:0
     RDKit          3D

 60 62  0  0  0  0  0  0  0  0999 V2000
   59.6080   34.9800   47.2950 C   0  0  0  0  0  0  0  0  0  0  0  0
   59.5220   34.1080   46.0320 C   0  0  0  0  0  0  0  0  0  0  0  0
   58.3180   33.2440   45.9600 N   0  0  0  0  0  0  0  0  0  0  0  0
   57.4320   33.2650   47.1380 C   0  0  0  0  0  0  0  0  0  0  0  0
   57.6140   33.2150   44.6590 C   0  0  0  0  0  0  0  0  0  0  0  0
   57.4860   31.8130   44.0310 C   0  0  0  0  0  0  0  0  0  0  0  0
   56.3300   31.1420   44.5020 O   0  0  0  0  0  0  0  0  0  0  0  0
   56.4270   29.7400   44.3270 C   0  0  0  0  0  0  0  0  0  0  0  0
   57.6850   29.2120   45.0120 C   0  0  0  0  0  0  0  0  0  0  0  0
   57.8110   29.8020   46.2910 O   0  0  0  0  0  0  0  0  0  0  0  0
   58.4690   28.9230   47.1840 C   0  0  0  0  0  0  0  0  0  0  0  0
   59.7350   29.5670   47.7580 C   0  0  0  0  0  0  0  0  0  0  0  0
   59.6900   31.0210   47.6260 N   0  0  0  0  0  0  0  0  0  0  0  0
   60.2930   31.8470   48.6350 C   0  0  0  0  0  0  0  0  0  0  0  0
   61.5550   32.4220   48.4120 C   0  0  0  0  0  0  0  0  0  0  0  0
   62.1990   32.2840   47.1640 C   0  0  0  0  0  0  0  0  0  0  0  0
   63.4330   32.8860   46.9270 C   0  0  0  0  0  0  0  0  0  0  0  0
   64.0350   33.6480   47.9220 C   0  0  0  0  0  0  0  0  0  0  0  0
   63.4180   33.7990   49.1640 C   0  0  0  0  0  0  0  0  0  0  0  0
   62.1780   33.1710   49.4460 C   0  0  0  0  0  0  0  0  0  0  0  0
   61.5680   33.2840   50.6820 N   0  0  0  0  0  0  0  0  0  0  0  0
   62.3310   33.8090   51.8360 C   0  0  0  0  0  0  0  0  0  0  0  0
   60.2540   32.8820   50.8440 C   0  0  0  0  0  0  0  0  0  0  0  0
   59.5080   33.2170   52.0030 C   0  0  0  0  0  0  0  0  0  0  0  0
   58.2050   32.7490   52.1810 C   0  0  0  0  0  0  0  0  0  0  0  0
   57.6090   31.9490   51.2130 C   0  0  0  0  0  0  0  0  0  0  0  0
   56.3460   31.4900   51.3960 F   0  0  0  0  0  0  0  0  0  0  0  0
   58.3010   31.6370   50.0450 C   0  0  0  0  0  0  0  0  0  0  0  0
   59.6110   32.1180   49.8330 C   0  0  0  0  0  0  0  0  0  0  0  0
   59.5449   34.3400   48.1874 H   0  0  0  0  0  0  0  0  0  0  0  0
   60.5641   35.5238   47.3007 H   0  0  0  0  0  0  0  0  0  0  0  0
   58.7765   35.7001   47.3007 H   0  0  0  0  0  0  0  0  0  0  0  0
   59.5206   34.7726   45.1554 H   0  0  0  0  0  0  0  0  0  0  0  0
   60.3898   33.4326   46.0593 H   0  0  0  0  0  0  0  0  0  0  0  0
   58.0401   33.2506   48.0545 H   0  0  0  0  0  0  0  0  0  0  0  0
   56.8186   34.1779   47.1193 H   0  0  0  0  0  0  0  0  0  0  0  0
   56.7761   32.3821   47.1193 H   0  0  0  0  0  0  0  0  0  0  0  0
   56.6015   33.6184   44.8075 H   0  0  0  0  0  0  0  0  0  0  0  0
   58.2190   33.8148   43.9631 H   0  0  0  0  0  0  0  0  0  0  0  0
   57.4210   31.9146   42.9376 H   0  0  0  0  0  0  0  0  0  0  0  0
   58.3700   31.2231   44.3148 H   0  0  0  0  0  0  0  0  0  0  0  0
   55.5426   29.2563   44.7673 H   0  0  0  0  0  0  0  0  0  0  0  0
   56.4805   29.5141   43.2518 H   0  0  0  0  0  0  0  0  0  0  0  0
   57.6131   28.1195   45.1181 H   0  0  0  0  0  0  0  0  0  0  0  0
   58.5661   29.4653   44.4041 H   0  0  0  0  0  0  0  0  0  0  0  0
   57.7869   28.6728   48.0099 H   0  0  0  0  0  0  0  0  0  0  0  0
   58.7573   28.0158   46.6328 H   0  0  0  0  0  0  0  0  0  0  0  0
   59.8204   29.3052   48.8230 H   0  0  0  0  0  0  0  0  0  0  0  0
   60.6037   29.1914   47.1974 H   0  0  0  0  0  0  0  0  0  0  0  0
   58.9550   31.4480   47.0170 H   0  0  0  0  0  0  0  0  0  0  0  0
   61.7208   31.6938   46.3684 H   0  0  0  0  0  0  0  0  0  0  0  0
   63.9302   32.7586   45.9541 H   0  0  0  0  0  0  0  0  0  0  0  0
   65.0026   34.1342   47.7289 H   0  0  0  0  0  0  0  0  0  0  0  0
   63.9009   34.4149   49.9369 H   0  0  0  0  0  0  0  0  0  0  0  0
   61.8537   33.4806   52.7711 H   0  0  0  0  0  0  0  0  0  0  0  0
   63.3623   33.4284   51.7974 H   0  0  0  0  0  0  0  0  0  0  0  0
   62.3441   34.9082   51.7974 H   0  0  0  0  0  0  0  0  0  0  0  0
   59.9636   33.8558   52.7739 H   0  0  0  0  0  0  0  0  0  0  0  0
   57.6474   33.0144   53.0913 H   0  0  0  0  0  0  0  0  0  0  0  0
   57.8214   31.0091   49.2797 H   0  0  0  0  0  0  0  0  0  0  0  0
  1  2  1  0
  2  3  1  0
  3  4  1  0
  3  5  1  0
  5  6  1  0
  6  7  1  0
  7  8  1  0
  8  9  1  0
  9 10  1  0
 10 11  1  0
 11 12  1  0
 12 13  1  0
 13 14  1  0
 14 15  2  0
 15 16  1  0
 16 17  2  0
 17 18  1  0
 18 19  2  0
 19 20  1  0
 20 21  2  0
 21 22  1  0
 21 23  1  0
 23 24  2  0
 24 25  1  0
 25 26  2  0
 26 27  1  0
 26 28  1  0
 28 29  2  0
 29 14  1  0
 20 15  1  0
 29 23  1  0
  1 30  1  0
  1 31  1  0
  1 32  1  0
  2 33  1  0
  2 34  1  0
  4 35  1  0
  4 36  1  0
  4 37  1  0
  5 38  1  0
  5 39  1  0
  6 40  1  0
  6 41  1  0
  8 42  1  0
  8 43  1  0
  9 44  1  0
  9 45  1  0
 11 46  1  0
 11 47  1  0
 12 48  1  0
 12 49  1  0
 13 50  1  0
 16 51  1  0
 17 52  1  0
 18 53  1  0
 19 54  1  0
 22 55  1  0
 22 56  1  0
 22 57  1  0
 24 58  1  0
 25 59  1  0
 28 60  1  0
M  CHG  1  21   1
M  END
>  <UniqueID>  (9) 
9

>  <SMILES>  (9) 
CCN(C)CCOCCOCCNc1c2ccccc2[n+](C)c2ccc(F)cc12

>  <Energy>  (9) 
94.80950748939944

>  <Genealogy>  (9) 
CCN(C)CCOCCOCCNc1c2ccccc2[n+](C)c2ccc(F)cc12 (3D coordinates assigned)
CCN(C)CCOCCOCCNc1c2ccccc2[n+](C)c2ccc(F)cc12 (optimized conformer: 94.80950748939944 kcal/mol)

>  <smiles>  (9) 
CCN(C)CCOCCOCCNc1c2ccccc2[n+](C)c2ccc(F)cc12

>  <score_type>  (9) 
oracle

>  <origin>  (9) 
adg

>  <m_score__min__energy>  (9) 
-5.4000000000000004

>  <m_primary>  (9) 
energy

$$$$
9:0
     RDKit          3D

 49 51  0  0  0  0  0  0  0  0999 V2000
   58.4030   34.2990   45.1840 C   0  0  0  0  0  0  0  0  0  0  0  0
   57.0060   33.7020   45.3210 C   0  0  0  0  0  0  0  0  0  0  0  0
   57.0570   32.2900   45.2190 O   0  0  0  0  0  0  0  0  0  0  0  0
   58.3910   31.8190   45.2850 C   0  0  0  0  0  0  0  0  0  0  0  0
   58.5410   30.7850   46.3810 C   0  0  0  0  0  0  0  0  0  0  0  0
   58.0580   29.4900   46.1230 C   0  0  0  0  0  0  0  0  0  0  0  0
   58.1550   28.4720   47.0810 C   0  0  0  0  0  0  0  0  0  0  0  0
   57.6620   27.1460   46.7930 N   0  0  0  0  0  0  0  0  0  0  0  0
   58.2630   25.9790   47.4570 C   0  0  0  0  0  0  0  0  0  0  0  0
   57.2350   24.8440   47.6720 C   0  0  0  0  0  0  0  0  0  0  0  0
   56.0820   24.8940   46.7520 N   0  0  0  0  0  0  0  0  0  0  0  0
   56.4360   25.4720   45.4550 C   0  0  0  0  0  0  0  0  0  0  0  0
   56.7610   26.9520   45.6490 C   0  0  0  0  0  0  0  0  0  0  0  0
   58.7400   28.7600   48.3220 C   0  0  0  0  0  0  0  0  0  0  0  0
   59.2200   30.0390   48.5970 C   0  0  0  0  0  0  0  0  0  0  0  0
   59.1330   31.0670   47.6420 C   0  0  0  0  0  0  0  0  0  0  0  0
   59.6450   32.4430   48.0220 C   0  0  0  0  0  0  0  0  0  0  0  0
   61.0890   32.6260   47.6270 C   0  0  0  0  0  0  0  0  0  0  0  0
   61.4630   33.6580   46.7470 C   0  0  0  0  0  0  0  0  0  0  0  0
   62.8040   33.8380   46.3970 C   0  0  0  0  0  0  0  0  0  0  0  0
   63.7860   32.9990   46.9300 C   0  0  0  0  0  0  0  0  0  0  0  0
   63.4280   31.9830   47.8210 C   0  0  0  0  0  0  0  0  0  0  0  0
   62.0880   31.8000   48.1740 C   0  0  0  0  0  0  0  0  0  0  0  0
   58.8245   34.4791   46.1840 H   0  0  0  0  0  0  0  0  0  0  0  0
   59.0489   33.5983   44.6346 H   0  0  0  0  0  0  0  0  0  0  0  0
   58.3430   35.2501   44.6346 H   0  0  0  0  0  0  0  0  0  0  0  0
   56.5884   33.9792   46.3002 H   0  0  0  0  0  0  0  0  0  0  0  0
   56.3711   34.0941   44.5128 H   0  0  0  0  0  0  0  0  0  0  0  0
   58.6614   31.3644   44.3205 H   0  0  0  0  0  0  0  0  0  0  0  0
   59.0547   32.6677   45.5069 H   0  0  0  0  0  0  0  0  0  0  0  0
   57.5947   29.2716   45.1495 H   0  0  0  0  0  0  0  0  0  0  0  0
   59.0859   25.5998   46.8333 H   0  0  0  0  0  0  0  0  0  0  0  0
   58.6280   26.2993   48.4440 H   0  0  0  0  0  0  0  0  0  0  0  0
   57.7484   23.8814   47.5307 H   0  0  0  0  0  0  0  0  0  0  0  0
   56.8350   24.9664   48.6894 H   0  0  0  0  0  0  0  0  0  0  0  0
   55.7440   23.9170   46.5930 H   0  0  0  0  0  0  0  0  0  0  0  0
   57.3139   24.9511   45.0451 H   0  0  0  0  0  0  0  0  0  0  0  0
   55.5951   25.3623   44.7544 H   0  0  0  0  0  0  0  0  0  0  0  0
   57.2460   27.3363   44.7395 H   0  0  0  0  0  0  0  0  0  0  0  0
   55.8242   27.4946   45.8439 H   0  0  0  0  0  0  0  0  0  0  0  0
   58.8207   27.9708   49.0840 H   0  0  0  0  0  0  0  0  0  0  0  0
   59.6742   30.2476   49.5769 H   0  0  0  0  0  0  0  0  0  0  0  0
   59.0361   33.2040   47.5120 H   0  0  0  0  0  0  0  0  0  0  0  0
   59.5708   32.5484   49.1144 H   0  0  0  0  0  0  0  0  0  0  0  0
   60.6952   34.3274   46.3319 H   0  0  0  0  0  0  0  0  0  0  0  0
   63.0868   34.6414   45.7009 H   0  0  0  0  0  0  0  0  0  0  0  0
   64.8403   33.1379   46.6486 H   0  0  0  0  0  0  0  0  0  0  0  0
   64.2021   31.3265   48.2450 H   0  0  0  0  0  0  0  0  0  0  0  0
   61.8129   31.0057   48.8835 H   0  0  0  0  0  0  0  0  0  0  0  0
  1  2  1  0
  2  3  1  0
  3  4  1  0
  4  5  1  0
  5  6  2  0
  6  7  1  0
  7  8  1  0
  8  9  1  0
  9 10  1  0
 10 11  1  0
 11 12  1  0
 12 13  1  0
  7 14  2  0
 14 15  1  0
 15 16  2  0
 16 17  1  0
 17 18  1  0
 18 19  2  0
 19 20  1  0
 20 21  2  0
 21 22  1  0
 22 23  2  0
 16  5  1  0
 23 18  1  0
 13  8  1  0
  1 24  1  0
  1 25  1  0
  1 26  1  0
  2 27  1  0
  2 28  1  0
  4 29  1  0
  4 30  1  0
  6 31  1  0
  9 32  1  0
  9 33  1  0
 10 34  1  0
 10 35  1  0
 11 36  1  0
 12 37  1  0
 12 38  1  0
 13 39  1  0
 13 40  1  0
 14 41  1  0
 15 42  1  0
 17 43  1  0
 17 44  1  0
 19 45  1  0
 20 46  1  0
 21 47  1  0
 22 48  1  0
 23 49  1  0
M  END
>  <UniqueID>  (10) 
10

>  <SMILES>  (10) 
CCOCc1cc(N2CCNCC2)ccc1Cc1ccccc1

>  <Energy>  (10) 
59.11595709921551

>  <Genealogy>  (10) 
CCOCc1cc(N2CCNCC2)ccc1Cc1ccccc1 (3D coordinates assigned)
CCOCc1cc(N2CCNCC2)ccc1Cc1ccccc1 (nonaromatic ring conformer: 59.11595709921551 kcal/mol)

>  <smiles>  (10) 
CCOCc1cc(N2CCNCC2)ccc1Cc1ccccc1

>  <score_type>  (10) 
oracle

>  <origin>  (10) 
adg

>  <m_score__min__energy>  (10) 
-7.21

>  <m_primary>  (10) 
energy

$$$$
10:0
     RDKit          3D

 53 55  0  0  0  0  0  0  0  0999 V2000
   62.5580   33.1310   49.8120 C   0  0  0  0  0  0  0  0  0  0  0  0
   62.0300   34.2570   48.9200 C   0  0  0  0  0  0  0  0  0  0  0  0
   61.1850   33.7510   47.8120 N   0  0  0  0  0  0  0  0  0  0  0  0
   61.9200   33.8240   46.5210 C   0  0  0  0  0  0  0  0  0  0  0  0
   63.3960   33.4970   46.7300 C   0  0  0  0  0  0  0  0  0  0  0  0
   59.8900   34.4740   47.7440 C   0  0  0  0  0  0  0  0  0  0  0  0
   59.0150   33.9560   46.5980 C   0  0  0  0  0  0  0  0  0  0  0  0
   58.1280   32.8880   47.0650 N   0  0  0  0  0  0  0  0  0  0  0  0
   58.4680   31.5000   46.9300 C   0  0  0  0  0  0  0  0  0  0  0  0
   59.2510   30.8510   47.9030 C   0  0  0  0  0  0  0  0  0  0  0  0
   59.8090   31.5670   49.0130 N   0  0  0  0  0  0  0  0  0  0  0  0
   59.0770   31.8940   50.2080 C   0  0  0  0  0  0  0  0  0  0  0  0
   59.2970   33.1290   50.8340 C   0  0  0  0  0  0  0  0  0  0  0  0
   58.5830   33.4760   51.9840 C   0  0  0  0  0  0  0  0  0  0  0  0
   57.6380   32.5950   52.5150 C   0  0  0  0  0  0  0  0  0  0  0  0
   57.4030   31.3670   51.8940 C   0  0  0  0  0  0  0  0  0  0  0  0
   58.1120   31.0150   50.7410 C   0  0  0  0  0  0  0  0  0  0  0  0
   59.4960   29.4790   47.7950 C   0  0  0  0  0  0  0  0  0  0  0  0
   59.0080   28.7300   46.7140 C   0  0  0  0  0  0  0  0  0  0  0  0
   59.3680   27.3380   46.6220 N   0  0  0  0  0  0  0  0  0  0  0  0
   60.5520   27.0030   46.4120 O   0  0  0  0  0  0  0  0  0  0  0  0
   58.4710   26.3760   47.0280 O   0  0  0  0  0  0  0  0  0  0  0  0
   58.2070   29.3730   45.7360 C   0  0  0  0  0  0  0  0  0  0  0  0
   57.5740   28.6730   44.6910 C   0  0  0  0  0  0  0  0  0  0  0  0
   56.8000   29.3540   43.7500 C   0  0  0  0  0  0  0  0  0  0  0  0
   56.6340   30.7300   43.8680 C   0  0  0  0  0  0  0  0  0  0  0  0
   57.2050   31.3960   44.9030 N   0  0  0  0  0  0  0  0  0  0  0  0
   57.9720   30.7700   45.8360 C   0  0  0  0  0  0  0  0  0  0  0  0
   62.4279   33.4085   50.8684 H   0  0  0  0  0  0  0  0  0  0  0  0
   61.9996   32.2063   49.6043 H   0  0  0  0  0  0  0  0  0  0  0  0
   63.6260   32.9689   49.6043 H   0  0  0  0  0  0  0  0  0  0  0  0
   61.4310   34.9441   49.5357 H   0  0  0  0  0  0  0  0  0  0  0  0
   62.8971   34.7668   48.4747 H   0  0  0  0  0  0  0  0  0  0  0  0
   61.4851   33.1013   45.8149 H   0  0  0  0  0  0  0  0  0  0  0  0
   61.8340   34.8441   46.1186 H   0  0  0  0  0  0  0  0  0  0  0  0
   63.6119   33.4492   47.8075 H   0  0  0  0  0  0  0  0  0  0  0  0
   63.6257   32.5262   46.2666 H   0  0  0  0  0  0  0  0  0  0  0  0
   64.0142   34.2800   46.2666 H   0  0  0  0  0  0  0  0  0  0  0  0
   59.3532   34.3351   48.6940 H   0  0  0  0  0  0  0  0  0  0  0  0
   60.0992   35.5387   47.5633 H   0  0  0  0  0  0  0  0  0  0  0  0
   58.4070   34.7843   46.2053 H   0  0  0  0  0  0  0  0  0  0  0  0
   59.6676   33.5537   45.8091 H   0  0  0  0  0  0  0  0  0  0  0  0
   57.2880   33.1470   47.6330 H   0  0  0  0  0  0  0  0  0  0  0  0
   60.7820   31.9410   48.9060 H   0  0  0  0  0  0  0  0  0  0  0  0
   60.0361   33.8291   50.4174 H   0  0  0  0  0  0  0  0  0  0  0  0
   58.7655   34.4448   52.4720 H   0  0  0  0  0  0  0  0  0  0  0  0
   57.0792   32.8687   53.4221 H   0  0  0  0  0  0  0  0  0  0  0  0
   56.6581   30.6743   52.3127 H   0  0  0  0  0  0  0  0  0  0  0  0
   57.9164   30.0507   50.2491 H   0  0  0  0  0  0  0  0  0  0  0  0
   60.0850   28.9752   48.5756 H   0  0  0  0  0  0  0  0  0  0  0  0
   57.6903   27.5818   44.6157 H   0  0  0  0  0  0  0  0  0  0  0  0
   56.3253   28.8071   42.9220 H   0  0  0  0  0  0  0  0  0  0  0  0
   56.0397   31.2782   43.1221 H   0  0  0  0  0  0  0  0  0  0  0  0
  1  2  1  0
  2  3  1  0
  3  4  1  0
  4  5  1  0
  3  6  1  0
  6  7  1  0
  7  8  1  0
  8  9  1  0
  9 10  2  0
 10 11  1  0
 11 12  1  0
 12 13  2  0
 13 14  1  0
 14 15  2  0
 15 16  1  0
 16 17  2  0
 10 18  1  0
 18 19  2  0
 19 20  1  0
 20 21  2  0
 20 22  1  0
 19 23  1  0
 23 24  2  0
 24 25  1  0
 25 26  2  0
 26 27  1  0
 27 28  2  0
 28  9  1  0
 17 12  1  0
 28 23  1  0
  1 29  1  0
  1 30  1  0
  1 31  1  0
  2 32  1  0
  2 33  1  0
  4 34  1  0
  4 35  1  0
  5 36  1  0
  5 37  1  0
  5 38  1  0
  6 39  1  0
  6 40  1  0
  7 41  1  0
  7 42  1  0
  8 43  1  0
 11 44  1  0
 13 45  1  0
 14 46  1  0
 15 47  1  0
 16 48  1  0
 17 49  1  0
 18 50  1  0
 24 51  1  0
 25 52  1  0
 26 53  1  0
M  CHG  2  20   1  22  -1
M  END
>  <UniqueID>  (11) 
11

>  <SMILES>  (11) 
CCN(CC)CCNc1c(Nc2ccccc2)cc([N+](=O)[O-])c2cccnc12

>  <Energy>  (11) 
72.07180362816806

>  <Genealogy>  (11) 
CCN(CC)CCNc1c(Nc2ccccc2)cc([N+](=O)[O-])c2cccnc12 (3D coordinates assigned)
CCN(CC)CCNc1c(Nc2ccccc2)cc([N+](=O)[O-])c2cccnc12 (optimized conformer: 72.07180362816806 kcal/mol)

>  <smiles>  (11) 
CCN(CC)CCNc1c(Nc2ccccc2)cc([N+](=O)[O-])c2cccnc12

>  <score_type>  (11) 
oracle

>  <origin>  (11) 
adg

>  <m_score__min__energy>  (11) 
-7.2999999999999998

>  <m_primary>  (11) 
energy

$$$$
11:0
     RDKit          3D

 66 68  0  0  0  0  0  0  0  0999 V2000
   63.3370   33.7880   46.7440 C   0  0  0  0  0  0  0  0  0  0  0  0
   62.7360   33.6720   48.1500 C   0  0  0  0  0  0  0  0  0  0  0  0
   62.4360   32.2720   48.5400 N   0  0  1  0  0  0  0  0  0  0  0  0
   62.4140   31.4090   47.3440 C   0  0  0  0  0  0  0  0  0  0  0  0
   63.3160   31.7190   49.6100 C   0  0  0  0  0  0  0  0  0  0  0  0
   62.6350   30.7570   50.6010 C   0  0  0  0  0  0  0  0  0  0  0  0
   61.2820   30.5520   50.2330 O   0  0  0  0  0  0  0  0  0  0  0  0
   60.4620   30.3740   51.3730 C   0  0  0  0  0  0  0  0  0  0  0  0
   59.3090   29.3950   51.0990 C   0  0  0  0  0  0  0  0  0  0  0  0
   58.2550   30.0490   50.4190 O   0  0  0  0  0  0  0  0  0  0  0  0
   58.1620   31.4100   50.7960 C   0  0  0  0  0  0  0  0  0  0  0  0
   58.5010   32.3160   49.6110 C   0  0  0  0  0  0  0  0  0  0  0  0
   59.2290   31.5630   48.5930 N   0  0  0  0  0  0  0  0  0  0  0  0
   58.9190   31.7370   47.2030 C   0  0  0  0  0  0  0  0  0  0  0  0
   58.5470   30.6420   46.3940 C   0  0  0  0  0  0  0  0  0  0  0  0
   58.2870   30.8590   45.0050 C   0  0  0  0  0  0  0  0  0  0  0  0
   58.3330   32.1430   44.4870 N   0  0  0  0  0  0  0  0  0  0  0  0
   58.0230   32.3990   43.0670 C   0  0  0  0  0  0  0  0  0  0  0  0
   58.7370   33.1780   45.2910 C   0  0  0  0  0  0  0  0  0  0  0  0
   59.0190   32.9970   46.6190 C   0  0  0  0  0  0  0  0  0  0  0  0
   59.4630   34.2540   47.2740 C   0  0  0  0  0  0  0  0  0  0  0  0
   59.5790   35.2570   46.1140 C   0  0  0  0  0  0  0  0  0  0  0  0
   58.9440   34.5970   44.8810 C   0  0  0  0  0  0  0  0  0  0  0  0
   57.8750   29.6890   44.1190 C   0  0  0  0  0  0  0  0  0  0  0  0
   58.2150   28.3200   44.7100 C   0  0  0  0  0  0  0  0  0  0  0  0
   57.7480   28.2420   46.1580 C   0  0  0  0  0  0  0  0  0  0  0  0
   58.5160   29.2540   47.0040 C   0  0  0  0  0  0  0  0  0  0  0  0
   64.4144   33.9959   46.8218 H   0  0  0  0  0  0  0  0  0  0  0  0
   63.1841   32.8438   46.2008 H   0  0  0  0  0  0  0  0  0  0  0  0
   62.8437   34.6075   46.2008 H   0  0  0  0  0  0  0  0  0  0  0  0
   63.4517   34.0912   48.8725 H   0  0  0  0  0  0  0  0  0  0  0  0
   61.7841   34.2233   48.1468 H   0  0  0  0  0  0  0  0  0  0  0  0
   61.4610   32.2600   48.9240 H   0  0  0  0  0  0  0  0  0  0  0  0
   62.3871   30.3538   47.6537 H   0  0  0  0  0  0  0  0  0  0  0  0
   61.5214   31.6377   46.7432 H   0  0  0  0  0  0  0  0  0  0  0  0
   63.3171   31.5919   46.7432 H   0  0  0  0  0  0  0  0  0  0  0  0
   64.1399   31.1763   49.1236 H   0  0  0  0  0  0  0  0  0  0  0  0
   63.6434   32.5832   50.2066 H   0  0  0  0  0  0  0  0  0  0  0  0
   63.1639   29.7925   50.5927 H   0  0  0  0  0  0  0  0  0  0  0  0
   62.6701   31.1961   51.6090 H   0  0  0  0  0  0  0  0  0  0  0  0
   61.0765   29.9793   52.1956 H   0  0  0  0  0  0  0  0  0  0  0  0
   60.0272   31.3492   51.6374 H   0  0  0  0  0  0  0  0  0  0  0  0
   59.6788   28.5643   50.4800 H   0  0  0  0  0  0  0  0  0  0  0  0
   58.9306   29.0134   52.0588 H   0  0  0  0  0  0  0  0  0  0  0  0
   57.1371   31.6233   51.1337 H   0  0  0  0  0  0  0  0  0  0  0  0
   58.8763   31.6045   51.6096 H   0  0  0  0  0  0  0  0  0  0  0  0
   57.5702   32.7091   49.1761 H   0  0  0  0  0  0  0  0  0  0  0  0
   59.1310   33.1464   49.9625 H   0  0  0  0  0  0  0  0  0  0  0  0
   59.6750   30.6640   48.8840 H   0  0  0  0  0  0  0  0  0  0  0  0
   57.1766   33.0980   42.9967 H   0  0  0  0  0  0  0  0  0  0  0  0
   58.9026   32.8374   42.5729 H   0  0  0  0  0  0  0  0  0  0  0  0
   57.7588   31.4524   42.5729 H   0  0  0  0  0  0  0  0  0  0  0  0
   58.7212   34.5936   48.0118 H   0  0  0  0  0  0  0  0  0  0  0  0
   60.4071   34.1335   47.8255 H   0  0  0  0  0  0  0  0  0  0  0  0
   59.0437   36.1852   46.3628 H   0  0  0  0  0  0  0  0  0  0  0  0
   60.6313   35.5138   45.9223 H   0  0  0  0  0  0  0  0  0  0  0  0
   57.9849   35.0752   44.6330 H   0  0  0  0  0  0  0  0  0  0  0  0
   59.5731   34.6886   43.9833 H   0  0  0  0  0  0  0  0  0  0  0  0
   56.7875   29.7388   43.9616 H   0  0  0  0  0  0  0  0  0  0  0  0
   58.4400   29.7827   43.1799 H   0  0  0  0  0  0  0  0  0  0  0  0
   57.7133   27.5362   44.1236 H   0  0  0  0  0  0  0  0  0  0  0  0
   59.3048   28.1746   44.6758 H   0  0  0  0  0  0  0  0  0  0  0  0
   56.6722   28.4663   46.2074 H   0  0  0  0  0  0  0  0  0  0  0  0
   57.9336   27.2294   46.5455 H   0  0  0  0  0  0  0  0  0  0  0  0
   58.0381   29.3173   47.9927 H   0  0  0  0  0  0  0  0  0  0  0  0
   59.5563   28.9026   47.0694 H   0  0  0  0  0  0  0  0  0  0  0  0
  1  2  1  0
  2  3  1  0
  3  4  1  0
  3  5  1  0
  5  6  1  0
  6  7  1  0
  7  8  1  0
  8  9  1  0
  9 10  1  0
 10 11  1  0
 11 12  1  0
 12 13  1  0
 13 14  1  0
 14 15  2  0
 15 16  1  0
 16 17  2  0
 17 18  1  0
 17 19  1  0
 19 20  2  0
 20 21  1  0
 21 22  1  0
 22 23  1  0
 16 24  1  0
 24 25  1  0
 25 26  1  0
 26 27  1  0
 20 14  1  0
 27 15  1  0
 23 19  1  0
  1 28  1  0
  1 29  1  0
  1 30  1  0
  2 31  1  0
  2 32  1  0
  3 33  1  1
  4 34  1  0
  4 35  1  0
  4 36  1  0
  5 37  1  0
  5 38  1  0
  6 39  1  0
  6 40  1  0
  8 41  1  0
  8 42  1  0
  9 43  1  0
  9 44  1  0
 11 45  1  0
 11 46  1  0
 12 47  1  0
 12 48  1  0
 13 49  1  0
 18 50  1  0
 18 51  1  0
 18 52  1  0
 21 53  1  0
 21 54  1  0
 22 55  1  0
 22 56  1  0
 23 57  1  0
 23 58  1  0
 24 59  1  0
 24 60  1  0
 25 61  1  0
 25 62  1  0
 26 63  1  0
 26 64  1  0
 27 65  1  0
 27 66  1  0
M  CHG  2   3   1  17   1
M  END
>  <UniqueID>  (12) 
12

>  <SMILES>  (12) 
CC[N@@H+](C)CCOCCOCCNc1c2c([n+](C)c3c1CCC3)CCCC2

>  <Energy>  (12) 
86.72505731833583

>  <Genealogy>  (12) 
CC[NH+](C)CCOCCOCCNc1c2c([n+](C)c3c1CCC3)CCCC2 (protonated)
CC[N@@H+](C)CCOCCOCCNc1c2c([n+](C)c3c1CCC3)CCCC2 (chirality)
CC[N@@H+](C)CCOCCOCCNc1c2c([n+](C)c3c1CCC3)CCCC2 (3D coordinates assigned)
CC[N@@H+](C)CCOCCOCCNc1c2c([n+](C)c3c1CCC3)CCCC2 (nonaromatic ring conformer: 86.72505731833583 kcal/mol)

>  <smiles>  (12) 
CCN(C)CCOCCOCCNc1c2c([n+](C)c3c1CCC3)CCCC2

>  <score_type>  (12) 
oracle

>  <origin>  (12) 
adg

>  <m_score__min__energy>  (12) 
-3.5

>  <m_primary>  (12) 
energy

$$$$
12:0
     RDKit          3D

 54 53  0  0  0  0  0  0  0  0999 V2000
   63.2800   33.6800   46.7310 C   0  0  0  0  0  0  0  0  0  0  0  0
   61.7620   33.8300   46.6490 C   0  0  0  0  0  0  0  0  0  0  0  0
   61.0600   33.5360   47.9860 C   0  0  0  0  0  0  0  0  0  0  0  0
   59.5450   33.8430   47.9650 C   0  0  0  0  0  0  0  0  0  0  0  0
   58.6650   32.5710   47.9620 C   0  0  0  0  0  0  0  0  0  0  0  0
   59.4250   31.3040   47.5350 C   0  0  0  0  0  0  0  0  0  0  0  0
   58.5250   30.2900   46.8060 C   0  0  0  0  0  0  0  0  0  0  0  0
   59.3370   29.1960   46.0920 C   0  0  0  0  0  0  0  0  0  0  0  0
   58.8880   27.7800   46.4810 C   0  0  0  0  0  0  0  0  0  0  0  0
   58.0100   27.1650   45.3830 C   0  0  0  0  0  0  0  0  0  0  0  0
   56.5570   27.4760   45.5870 C   0  0  0  0  0  0  0  0  0  0  0  0
   55.7820   26.6050   46.0700 O   0  0  0  0  0  0  0  0  0  0  0  0
   56.0900   28.7620   45.2990 O   0  0  0  0  0  0  0  0  0  0  0  0
   56.2880   29.3860   44.0350 C   0  0  0  0  0  0  0  0  0  0  0  0
   55.9120   30.7510   44.1170 O   0  0  0  0  0  0  0  0  0  0  0  0
   56.6480   31.6360   44.8770 N   0  0  0  0  0  0  0  0  0  0  0  0
   57.3920   32.5280   44.3450 N   0  0  0  0  0  0  0  0  0  0  0  0
   58.2470   32.2170   43.1890 C   0  0  0  0  0  0  0  0  0  0  0  0
   57.4170   32.1700   41.9110 C   0  0  0  0  0  0  0  0  0  0  0  0
   57.3650   33.8860   44.8990 C   0  0  0  0  0  0  0  0  0  0  0  0
   58.7520   34.5150   44.8380 C   0  0  0  0  0  0  0  0  0  0  0  0
   63.5890   33.6495   47.7863 H   0  0  0  0  0  0  0  0  0  0  0  0
   63.5837   32.7475   46.2329 H   0  0  0  0  0  0  0  0  0  0  0  0
   63.7604   34.5351   46.2329 H   0  0  0  0  0  0  0  0  0  0  0  0
   61.5267   34.8615   46.3480 H   0  0  0  0  0  0  0  0  0  0  0  0
   61.3963   33.0968   45.9150 H   0  0  0  0  0  0  0  0  0  0  0  0
   61.1966   32.4709   48.2246 H   0  0  0  0  0  0  0  0  0  0  0  0
   61.5139   34.1933   48.7423 H   0  0  0  0  0  0  0  0  0  0  0  0
   59.2965   34.4378   48.8563 H   0  0  0  0  0  0  0  0  0  0  0  0
   59.3350   34.3877   47.0327 H   0  0  0  0  0  0  0  0  0  0  0  0
   58.2721   32.4163   48.9777 H   0  0  0  0  0  0  0  0  0  0  0  0
   57.8632   32.7323   47.2264 H   0  0  0  0  0  0  0  0  0  0  0  0
   60.2446   31.5952   46.8616 H   0  0  0  0  0  0  0  0  0  0  0  0
   59.8018   30.8187   48.4474 H   0  0  0  0  0  0  0  0  0  0  0  0
   57.8605   29.8138   47.5419 H   0  0  0  0  0  0  0  0  0  0  0  0
   57.9525   30.8366   46.0421 H   0  0  0  0  0  0  0  0  0  0  0  0
   59.2147   29.3186   45.0057 H   0  0  0  0  0  0  0  0  0  0  0  0
   60.3880   29.3082   46.3967 H   0  0  0  0  0  0  0  0  0  0  0  0
   59.7761   27.1480   46.6286 H   0  0  0  0  0  0  0  0  0  0  0  0
   58.3011   27.8392   47.4095 H   0  0  0  0  0  0  0  0  0  0  0  0
   58.3260   27.5665   44.4088 H   0  0  0  0  0  0  0  0  0  0  0  0
   58.1328   26.0725   45.4212 H   0  0  0  0  0  0  0  0  0  0  0  0
   57.3488   29.3143   43.7530 H   0  0  0  0  0  0  0  0  0  0  0  0
   55.6717   28.8811   43.2765 H   0  0  0  0  0  0  0  0  0  0  0  0
   59.0200   32.9934   43.0907 H   0  0  0  0  0  0  0  0  0  0  0  0
   58.7158   31.2344   43.3462 H   0  0  0  0  0  0  0  0  0  0  0  0
   56.3494   32.1095   42.1691 H   0  0  0  0  0  0  0  0  0  0  0  0
   57.6006   33.0800   41.3209 H   0  0  0  0  0  0  0  0  0  0  0  0
   57.7021   31.2866   41.3209 H   0  0  0  0  0  0  0  0  0  0  0  0
   56.6628   34.5007   44.3166 H   0  0  0  0  0  0  0  0  0  0  0  0
   57.0432   33.8353   45.9497 H   0  0  0  0  0  0  0  0  0  0  0  0
   59.1235   34.6835   45.8596 H   0  0  0  0  0  0  0  0  0  0  0  0
   59.4377   33.8398   44.3052 H   0  0  0  0  0  0  0  0  0  0  0  0
   58.6958   35.4757   44.3052 H   0  0  0  0  0  0  0  0  0  0  0  0
  1  2  1  0
  2  3  1  0
  3  4  1  0
  4  5  1  0
  5  6  1  0
  6  7  1  0
  7  8  1  0
  8  9  1  0
  9 10  1  0
 10 11  1  0
 11 12  2  0
 11 13  1  0
 13 14  1  0
 14 15  1  0
 15 16  1  0
 16 17  2  3
 17 18  1  0
 18 19  1  0
 17 20  1  0
 20 21  1  0
  1 22  1  0
  1 23  1  0
  1 24  1  0
  2 25  1  0
  2 26  1  0
  3 27  1  0
  3 28  1  0
  4 29  1  0
  4 30  1  0
  5 31  1  0
  5 32  1  0
  6 33  1  0
  6 34  1  0
  7 35  1  0
  7 36  1  0
  8 37  1  0
  8 38  1  0
  9 39  1  0
  9 40  1  0
 10 41  1  0
 10 42  1  0
 14 43  1  0
 14 44  1  0
 18 45  1  0
 18 46  1  0
 19 47  1  0
 19 48  1  0
 19 49  1  0
 20 50  1  0
 20 51  1  0
 21 52  1  0
 21 53  1  0
 21 54  1  0
M  CHG  1  17   1
M  END
>  <UniqueID>  (13) 
13

>  <SMILES>  (13) 
CCCCCCCCCCC(=O)OCON=[N+](CC)CC

>  <Energy>  (13) 
23.7271009093395

>  <Genealogy>  (13) 
CCCCCCCCCCC(=O)OCON=[N+](CC)CC (3D coordinates assigned)
CCCCCCCCCCC(=O)OCON=[N+](CC)CC (optimized conformer: 23.7271009093395 kcal/mol)

>  <smiles>  (13) 
CCCCCCCCCCC(=O)OCON=[N+](CC)CC

>  <score_type>  (13) 
oracle

>  <origin>  (13) 
adg

>  <m_score__min__energy>  (13) 
-4.3600000000000003

>  <m_primary>  (13) 
energy

$$$$
13:0
     RDKit          3D

 62 64  0  0  0  0  0  0  0  0999 V2000
   62.5650   31.3800   47.1530 C   0  0  0  0  0  0  0  0  0  0  0  0
   63.4940   32.5900   47.1400 C   0  0  0  0  0  0  0  0  0  0  0  0
   62.8030   33.8280   47.7610 C   0  0  0  0  0  0  0  0  0  0  0  0
   62.8710   33.8830   49.2460 N   0  0  0  0  0  0  0  0  0  0  0  0
   63.7050   32.7720   49.8050 C   0  0  0  0  0  0  0  0  0  0  0  0
   64.9140   33.2770   50.6160 C   0  0  0  0  0  0  0  0  0  0  0  0
   66.2370   32.6970   50.1180 C   0  0  0  0  0  0  0  0  0  0  0  0
   61.5130   33.9270   49.8520 C   0  0  0  0  0  0  0  0  0  0  0  0
   60.4140   34.2090   48.8110 C   0  0  0  0  0  0  0  0  0  0  0  0
   59.3330   33.2250   48.9000 N   0  0  0  0  0  0  0  0  0  0  0  0
   59.2210   32.1860   47.9180 C   0  0  0  0  0  0  0  0  0  0  0  0
   59.4700   30.8530   48.2730 C   0  0  0  0  0  0  0  0  0  0  0  0
   59.7400   30.4960   49.6090 C   0  0  0  0  0  0  0  0  0  0  0  0
   60.0070   29.1700   49.9490 C   0  0  0  0  0  0  0  0  0  0  0  0
   59.9980   28.1830   48.9670 C   0  0  0  0  0  0  0  0  0  0  0  0
   59.7320   28.5170   47.6380 C   0  0  0  0  0  0  0  0  0  0  0  0
   59.4730   29.8580   47.2630 C   0  0  0  0  0  0  0  0  0  0  0  0
   59.2420   30.2090   45.9490 N   0  0  0  0  0  0  0  0  0  0  0  0
   59.7950   29.3520   44.8820 C   0  0  0  0  0  0  0  0  0  0  0  0
   58.6990   31.4460   45.6460 C   0  0  0  0  0  0  0  0  0  0  0  0
   58.0210   31.7300   44.4100 C   0  0  0  0  0  0  0  0  0  0  0  0
   57.3910   30.6640   43.5220 C   0  0  0  0  0  0  0  0  0  0  0  0
   56.1110   30.1060   44.1460 C   0  0  0  0  0  0  0  0  0  0  0  0
   57.7070   33.0660   44.0950 C   0  0  0  0  0  0  0  0  0  0  0  0
   57.9490   34.0930   44.9980 C   0  0  0  0  0  0  0  0  0  0  0  0
   58.4510   33.8060   46.2590 C   0  0  0  0  0  0  0  0  0  0  0  0
   58.7960   32.4880   46.6110 C   0  0  0  0  0  0  0  0  0  0  0  0
   62.3471   31.0962   48.1932 H   0  0  0  0  0  0  0  0  0  0  0  0
   61.6266   31.6326   46.6376 H   0  0  0  0  0  0  0  0  0  0  0  0
   63.0514   30.5387   46.6376 H   0  0  0  0  0  0  0  0  0  0  0  0
   64.3988   32.3548   47.7196 H   0  0  0  0  0  0  0  0  0  0  0  0
   63.7534   32.8208   46.0963 H   0  0  0  0  0  0  0  0  0  0  0  0
   63.2869   34.7307   47.3598 H   0  0  0  0  0  0  0  0  0  0  0  0
   61.7376   33.7619   47.4954 H   0  0  0  0  0  0  0  0  0  0  0  0
   63.3270   34.8010   49.4620 H   0  0  0  0  0  0  0  0  0  0  0  0
   63.0738   32.1566   50.4629 H   0  0  0  0  0  0  0  0  0  0  0  0
   64.0969   32.1945   48.9548 H   0  0  0  0  0  0  0  0  0  0  0  0
   64.9579   34.3733   50.5378 H   0  0  0  0  0  0  0  0  0  0  0  0
   64.7773   32.9506   51.6575 H   0  0  0  0  0  0  0  0  0  0  0  0
   66.8640   32.4221   50.9790 H   0  0  0  0  0  0  0  0  0  0  0  0
   66.0391   31.8031   49.5083 H   0  0  0  0  0  0  0  0  0  0  0  0
   66.7603   33.4482   49.5083 H   0  0  0  0  0  0  0  0  0  0  0  0
   61.3074   32.9572   50.3287 H   0  0  0  0  0  0  0  0  0  0  0  0
   61.4993   34.7475   50.5845 H   0  0  0  0  0  0  0  0  0  0  0  0
   60.0007   35.2127   48.9890 H   0  0  0  0  0  0  0  0  0  0  0  0
   60.8607   34.1449   47.8078 H   0  0  0  0  0  0  0  0  0  0  0  0
   58.5810   33.3100   49.6210 H   0  0  0  0  0  0  0  0  0  0  0  0
   59.7402   31.2699   50.3907 H   0  0  0  0  0  0  0  0  0  0  0  0
   60.2249   28.9037   50.9938 H   0  0  0  0  0  0  0  0  0  0  0  0
   60.2011   27.1368   49.2393 H   0  0  0  0  0  0  0  0  0  0  0  0
   59.7234   27.7280   46.8716 H   0  0  0  0  0  0  0  0  0  0  0  0
   60.3388   28.5092   45.3336 H   0  0  0  0  0  0  0  0  0  0  0  0
   58.9745   28.9671   44.2586 H   0  0  0  0  0  0  0  0  0  0  0  0
   60.4838   29.9410   44.2586 H   0  0  0  0  0  0  0  0  0  0  0  0
   57.1492   31.1084   42.5453 H   0  0  0  0  0  0  0  0  0  0  0  0
   58.1094   29.8390   43.4072 H   0  0  0  0  0  0  0  0  0  0  0  0
   56.1920   30.1413   45.2424 H   0  0  0  0  0  0  0  0  0  0  0  0
   55.2513   30.7110   43.8222 H   0  0  0  0  0  0  0  0  0  0  0  0
   55.9691   29.0644   43.8222 H   0  0  0  0  0  0  0  0  0  0  0  0
   57.2623   33.3003   43.1166 H   0  0  0  0  0  0  0  0  0  0  0  0
   57.7424   35.1352   44.7130 H   0  0  0  0  0  0  0  0  0  0  0  0
   58.5806   34.6168   46.9910 H   0  0  0  0  0  0  0  0  0  0  0  0
  1  2  1  0
  2  3  1  0
  3  4  1  0
  4  5  1  0
  5  6  1  0
  6  7  1  0
  4  8  1  0
  8  9  1  0
  9 10  1  0
 10 11  1  0
 11 12  2  0
 12 13  1  0
 13 14  2  0
 14 15  1  0
 15 16  2  0
 16 17  1  0
 17 18  2  0
 18 19  1  0
 18 20  1  0
 20 21  2  0
 21 22  1  0
 22 23  1  0
 21 24  1  0
 24 25  2  0
 25 26  1  0
 26 27  2  0
 27 11  1  0
 17 12  1  0
 27 20  1  0
  1 28  1  0
  1 29  1  0
  1 30  1  0
  2 31  1  0
  2 32  1  0
  3 33  1  0
  3 34  1  0
  4 35  1  0
  5 36  1  0
  5 37  1  0
  6 38  1  0
  6 39  1  0
  7 40  1  0
  7 41  1  0
  7 42  1  0
  8 43  1  0
  8 44  1  0
  9 45  1  0
  9 46  1  0
 10 47  1  0
 13 48  1  0
 14 49  1  0
 15 50  1  0
 16 51  1  0
 19 52  1  0
 19 53  1  0
 19 54  1  0
 22 55  1  0
 22 56  1  0
 23 57  1  0
 23 58  1  0
 23 59  1  0
 24 60  1  0
 25 61  1  0
 26 62  1  0
M  CHG  2   4   1  18   1
M  END
>  <UniqueID>  (14) 
14

>  <SMILES>  (14) 
CCC[NH+](CCC)CCNc1c2ccccc2[n+](C)c2c(CC)cccc12

>  <Energy>  (14) 
98.13449080700113

>  <Genealogy>  (14) 
CCC[NH+](CCC)CCNc1c2ccccc2[n+](C)c2c(CC)cccc12 (protonated)
CCC[NH+](CCC)CCNc1c2ccccc2[n+](C)c2c(CC)cccc12 (3D coordinates assigned)
CCC[NH+](CCC)CCNc1c2ccccc2[n+](C)c2c(CC)cccc12 (optimized conformer: 98.13449080700113 kcal/mol)

>  <smiles>  (14) 
CCCN(CCC)CCNc1c2ccccc2[n+](C)c2c(CC)cccc12

>  <score_type>  (14) 
oracle

>  <origin>  (14) 
adg

>  <m_score__min__energy>  (14) 
-4.9299999999999997

>  <m_primary>  (14) 
energy

$$$$
14:0
     RDKit          3D

 49 52  0  0  0  0  0  0  0  0999 V2000
   60.2160   33.8220   49.9940 C   0  0  0  0  0  0  0  0  0  0  0  0
   60.8270   32.4620   50.3420 C   0  0  0  0  0  0  0  0  0  0  0  0
   62.2640   32.5420   50.6680 N   0  0  0  0  0  0  0  0  0  0  0  0
   62.9710   33.7120   50.1090 C   0  0  0  0  0  0  0  0  0  0  0  0
   63.8400   33.3740   48.8700 C   0  0  1  0  0  0  0  0  0  0  0  0
   64.1420   32.0020   48.8030 O   0  0  0  0  0  0  0  0  0  0  0  0
   63.2020   33.8650   47.5540 C   0  0  0  0  0  0  0  0  0  0  0  0
   62.0740   33.0270   47.1340 N   0  0  0  0  0  0  0  0  0  0  0  0
   62.0480   31.6750   47.1530 C   0  0  0  0  0  0  0  0  0  0  0  0
   60.8130   31.2140   46.7200 C   0  0  0  0  0  0  0  0  0  0  0  0
   60.0610   32.3340   46.4110 C   0  0  0  0  0  0  0  0  0  0  0  0
   58.7410   32.4740   45.9380 C   0  0  0  0  0  0  0  0  0  0  0  0
   58.2460   33.7990   45.8410 C   0  0  0  0  0  0  0  0  0  0  0  0
   59.0570   34.9070   46.1540 C   0  0  0  0  0  0  0  0  0  0  0  0
   60.3790   34.7270   46.5750 C   0  0  0  0  0  0  0  0  0  0  0  0
   60.8570   33.4220   46.6980 C   0  0  0  0  0  0  0  0  0  0  0  0
   57.9100   31.3160   45.4680 C   0  0  0  0  0  0  0  0  0  0  0  0
   57.0540   31.5050   44.3600 C   0  0  0  0  0  0  0  0  0  0  0  0
   56.2570   30.4670   43.8780 C   0  0  0  0  0  0  0  0  0  0  0  0
   56.3030   29.2140   44.4800 C   0  0  0  0  0  0  0  0  0  0  0  0
   57.1550   28.9910   45.5600 C   0  0  0  0  0  0  0  0  0  0  0  0
   57.9650   30.0260   46.0660 C   0  0  0  0  0  0  0  0  0  0  0  0
   58.8970   29.7080   47.2080 C   0  0  0  0  0  0  0  0  0  0  0  0
   60.3550   29.7910   46.7490 C   0  0  0  0  0  0  0  0  0  0  0  0
   59.9731   34.3627   50.9206 H   0  0  0  0  0  0  0  0  0  0  0  0
   60.9372   34.4083   49.4057 H   0  0  0  0  0  0  0  0  0  0  0  0
   59.2987   33.6721   49.4057 H   0  0  0  0  0  0  0  0  0  0  0  0
   60.2929   32.0497   51.2108 H   0  0  0  0  0  0  0  0  0  0  0  0
   60.7261   31.8193   49.4550 H   0  0  0  0  0  0  0  0  0  0  0  0
   62.3690   32.5420   51.7090 H   0  0  0  0  0  0  0  0  0  0  0  0
   62.7340   31.6750   50.3150 H   0  0  0  0  0  0  0  0  0  0  0  0
   62.2232   34.4635   49.8156 H   0  0  0  0  0  0  0  0  0  0  0  0
   63.6507   34.0836   50.8900 H   0  0  0  0  0  0  0  0  0  0  0  0
   64.7858   33.9212   48.9966 H   0  0  0  0  0  0  0  0  0  0  0  0
   64.5500   31.8240   47.9150 H   0  0  0  0  0  0  0  0  0  0  0  0
   62.8430   34.8948   47.6979 H   0  0  0  0  0  0  0  0  0  0  0  0
   63.9701   33.8126   46.7684 H   0  0  0  0  0  0  0  0  0  0  0  0
   62.8849   31.0336   47.4664 H   0  0  0  0  0  0  0  0  0  0  0  0
   57.2086   33.9648   45.5150 H   0  0  0  0  0  0  0  0  0  0  0  0
   58.6470   35.9240   46.0666 H   0  0  0  0  0  0  0  0  0  0  0  0
   61.0229   35.5894   46.8024 H   0  0  0  0  0  0  0  0  0  0  0  0
   57.0155   32.4884   43.8687 H   0  0  0  0  0  0  0  0  0  0  0  0
   55.5906   30.6396   43.0200 H   0  0  0  0  0  0  0  0  0  0  0  0
   55.6670   28.3992   44.1037 H   0  0  0  0  0  0  0  0  0  0  0  0
   57.1954   27.9940   46.0231 H   0  0  0  0  0  0  0  0  0  0  0  0
   58.7320   30.4296   48.0216 H   0  0  0  0  0  0  0  0  0  0  0  0
   58.6925   28.6862   47.5602 H   0  0  0  0  0  0  0  0  0  0  0  0
   60.9872   29.2211   47.4458 H   0  0  0  0  0  0  0  0  0  0  0  0
   60.4342   29.3703   45.7357 H   0  0  0  0  0  0  0  0  0  0  0  0
  1  2  1  0
  2  3  1  0
  3  4  1  0
  4  5  1  0
  5  6  1  0
  5  7  1  0
  7  8  1  0
  8  9  1  0
  9 10  2  0
 10 11  1  0
 11 12  2  0
 12 13  1  0
 13 14  2  0
 14 15  1  0
 15 16  2  0
 12 17  1  0
 17 18  2  0
 18 19  1  0
 19 20  2  0
 20 21  1  0
 21 22  2  0
 22 23  1  0
 23 24  1  0
 16  8  1  0
 22 17  1  0
 24 10  1  0
 16 11  1  0
  1 25  1  0
  1 26  1  0
  1 27  1  0
  2 28  1  0
  2 29  1  0
  3 30  1  0
  3 31  1  0
  4 32  1  0
  4 33  1  0
  5 34  1  1
  6 35  1  0
  7 36  1  0
  7 37  1  0
  9 38  1  0
 13 39  1  0
 14 40  1  0
 15 41  1  0
 18 42  1  0
 19 43  1  0
 20 44  1  0
 21 45  1  0
 23 46  1  0
 23 47  1  0
 24 48  1  0
 24 49  1  0
M  CHG  1   3   1
M  END
>  <UniqueID>  (15) 
15

>  <SMILES>  (15) 
CC[NH2+]C[C@@H](O)Cn1cc2c3c(cccc31)-c1ccccc1CC2

>  <Energy>  (15) 
94.75452566552624

>  <Genealogy>  (15) 
CC[NH2+]CC(O)Cn1cc2c3c(cccc31)-c1ccccc1CC2 (protonated)
CC[NH2+]C[C@@H](O)Cn1cc2c3c(cccc31)-c1ccccc1CC2 (chirality)
CC[NH2+]C[C@@H](O)Cn1cc2c3c(cccc31)-c1ccccc1CC2 (3D coordinates assigned)
CC[NH2+]C[C@@H](O)Cn1cc2c3c(cccc31)-c1ccccc1CC2 (nonaromatic ring conformer: 94.75452566552624 kcal/mol)

>  <smiles>  (15) 
CCNCC(O)Cn1cc2c3c(cccc31)-c1ccccc1CC2

>  <score_type>  (15) 
oracle

>  <origin>  (15) 
adg

>  <m_score__min__energy>  (15) 
-6.5199999999999996

>  <m_primary>  (15) 
energy

$$$$
15:0
     RDKit          3D

 52 54  0  0  0  0  0  0  0  0999 V2000
   63.4540   33.8140   46.7720 C   0  0  0  0  0  0  0  0  0  0  0  0
   63.4790   33.1630   48.1600 C   0  0  0  0  0  0  0  0  0  0  0  0
   62.3220   32.2790   48.3880 N   0  0  0  0  0  0  0  0  0  0  0  0
   61.9280   31.5490   47.1700 C   0  0  0  0  0  0  0  0  0  0  0  0
   61.1390   30.2810   47.5210 C   0  0  0  0  0  0  0  0  0  0  0  0
   61.4600   29.8740   48.8430 O   0  0  0  0  0  0  0  0  0  0  0  0
   60.3010   29.5100   49.5730 C   0  0  0  0  0  0  0  0  0  0  0  0
   59.9880   30.5230   50.6810 C   0  0  0  0  0  0  0  0  0  0  0  0
   60.7070   31.7780   50.4340 N   0  0  0  0  0  0  0  0  0  0  0  0
   60.1030   32.8810   51.1900 C   0  0  0  0  0  0  0  0  0  0  0  0
   59.2930   33.8010   50.2690 C   0  0  0  0  0  0  0  0  0  0  0  0
   59.9480   34.0000   49.0110 O   0  0  0  0  0  0  0  0  0  0  0  0
   59.4970   33.5360   47.7620 C   0  0  0  0  0  0  0  0  0  0  0  0
   59.7770   34.3270   46.6200 C   0  0  0  0  0  0  0  0  0  0  0  0
   59.3160   33.9510   45.3450 C   0  0  0  0  0  0  0  0  0  0  0  0
   58.5860   32.7710   45.2450 C   0  0  0  0  0  0  0  0  0  0  0  0
   58.3180   31.9800   46.3410 C   0  0  0  0  0  0  0  0  0  0  0  0
   58.7700   32.3250   47.6120 C   0  0  0  0  0  0  0  0  0  0  0  0
   57.6010   30.9260   46.0060 O   0  0  0  0  0  0  0  0  0  0  0  0
   57.3910   31.0150   44.7070 C   0  0  0  0  0  0  0  0  0  0  0  0
   56.6710   30.1350   43.9040 C   0  0  0  0  0  0  0  0  0  0  0  0
   56.5650   30.4330   42.5350 C   0  0  0  0  0  0  0  0  0  0  0  0
   57.1750   31.5900   41.9990 C   0  0  0  0  0  0  0  0  0  0  0  0
   57.8990   32.4650   42.8300 C   0  0  0  0  0  0  0  0  0  0  0  0
   57.9860   32.1430   44.1810 C   0  0  0  0  0  0  0  0  0  0  0  0
   63.4120   34.9078   46.8807 H   0  0  0  0  0  0  0  0  0  0  0  0
   64.3635   33.5351   46.2197 H   0  0  0  0  0  0  0  0  0  0  0  0
   62.5686   33.4661   46.2197 H   0  0  0  0  0  0  0  0  0  0  0  0
   64.4006   32.5700   48.2553 H   0  0  0  0  0  0  0  0  0  0  0  0
   63.4379   33.9682   48.9084 H   0  0  0  0  0  0  0  0  0  0  0  0
   61.5190   32.8770   48.7000 H   0  0  0  0  0  0  0  0  0  0  0  0
   62.5390   31.6040   49.1560 H   0  0  0  0  0  0  0  0  0  0  0  0
   61.3003   32.2023   46.5461 H   0  0  0  0  0  0  0  0  0  0  0  0
   62.8384   31.2564   46.6264 H   0  0  0  0  0  0  0  0  0  0  0  0
   60.0611   30.4894   47.4532 H   0  0  0  0  0  0  0  0  0  0  0  0
   61.4026   29.4785   46.8163 H   0  0  0  0  0  0  0  0  0  0  0  0
   59.4458   29.4606   48.8830 H   0  0  0  0  0  0  0  0  0  0  0  0
   60.4845   28.5327   50.0433 H   0  0  0  0  0  0  0  0  0  0  0  0
   58.9061   30.7208   50.6982 H   0  0  0  0  0  0  0  0  0  0  0  0
   60.3080   30.1089   51.6485 H   0  0  0  0  0  0  0  0  0  0  0  0
   60.6020   31.9980   49.4150 H   0  0  0  0  0  0  0  0  0  0  0  0
   59.4364   32.4662   51.9604 H   0  0  0  0  0  0  0  0  0  0  0  0
   60.9083   33.4702   51.6530 H   0  0  0  0  0  0  0  0  0  0  0  0
   58.3069   33.3477   50.0898 H   0  0  0  0  0  0  0  0  0  0  0  0
   59.1931   34.7790   50.7624 H   0  0  0  0  0  0  0  0  0  0  0  0
   60.3645   35.2502   46.7322 H   0  0  0  0  0  0  0  0  0  0  0  0
   59.5253   34.5681   44.4588 H   0  0  0  0  0  0  0  0  0  0  0  0
   58.5693   31.6765   48.4775 H   0  0  0  0  0  0  0  0  0  0  0  0
   56.2003   29.2355   44.3275 H   0  0  0  0  0  0  0  0  0  0  0  0
   56.0014   29.7588   41.8734 H   0  0  0  0  0  0  0  0  0  0  0  0
   57.0831   31.8080   40.9247 H   0  0  0  0  0  0  0  0  0  0  0  0
   58.3781   33.3694   42.4268 H   0  0  0  0  0  0  0  0  0  0  0  0
  1  2  1  0
  2  3  1  0
  3  4  1  0
  4  5  1  0
  5  6  1  0
  6  7  1  0
  7  8  1  0
  8  9  1  0
  9 10  1  0
 10 11  1  0
 11 12  1  0
 12 13  1  0
 13 14  2  0
 14 15  1  0
 15 16  2  0
 16 17  1  0
 17 18  2  0
 17 19  1  0
 19 20  1  0
 20 21  2  0
 21 22  1  0
 22 23  2  0
 23 24  1  0
 24 25  2  0
 18 13  1  0
 25 20  1  0
 25 16  1  0
  1 26  1  0
  1 27  1  0
  1 28  1  0
  2 29  1  0
  2 30  1  0
  3 31  1  0
  3 32  1  0
  4 33  1  0
  4 34  1  0
  5 35  1  0
  5 36  1  0
  7 37  1  0
  7 38  1  0
  8 39  1  0
  8 40  1  0
  9 41  1  0
 10 42  1  0
 10 43  1  0
 11 44  1  0
 11 45  1  0
 14 46  1  0
 15 47  1  0
 18 48  1  0
 21 49  1  0
 22 50  1  0
 23 51  1  0
 24 52  1  0
M  CHG  1   3   1
M  END
>  <UniqueID>  (16) 
16

>  <SMILES>  (16) 
CC[NH2+]CCOCCNCCOc1ccc2c(c1)oc1ccccc12

>  <Energy>  (16) 
90.66572073371607

>  <Genealogy>  (16) 
CC[NH2+]CCOCCNCCOc1ccc2c(c1)oc1ccccc12 (protonated)
CC[NH2+]CCOCCNCCOc1ccc2c(c1)oc1ccccc12 (3D coordinates assigned)
CC[NH2+]CCOCCNCCOc1ccc2c(c1)oc1ccccc12 (optimized conformer: 90.66572073371607 kcal/mol)

>  <smiles>  (16) 
CCNCCOCCNCCOc1ccc2c(c1)oc1ccccc12

>  <score_type>  (16) 
oracle

>  <origin>  (16) 
adg

>  <m_score__min__energy>  (16) 
-4.4800000000000004

>  <m_primary>  (16) 
energy

$$$$
16:0
     RDKit          3D

 67 69  0  0  0  0  0  0  0  0999 V2000
   56.2910   29.7160   42.6800 C   0  0  0  0  0  0  0  0  0  0  0  0
   55.7920   30.1760   44.0460 C   0  0  0  0  0  0  0  0  0  0  0  0
   56.9320   30.6470   44.8650 N   0  0  0  0  0  0  0  0  0  0  0  0
   58.0100   29.6350   45.0030 C   0  0  0  0  0  0  0  0  0  0  0  0
   57.5480   28.2960   45.6020 C   0  0  0  0  0  0  0  0  0  0  0  0
   57.4410   31.9740   44.4570 C   0  0  0  0  0  0  0  0  0  0  0  0
   58.4450   32.5300   45.4790 C   0  0  0  0  0  0  0  0  0  0  0  0
   57.8280   32.7810   46.7290 O   0  0  0  0  0  0  0  0  0  0  0  0
   58.7860   33.0170   47.7450 C   0  0  0  0  0  0  0  0  0  0  0  0
   59.6340   34.2510   47.4220 C   0  0  0  0  0  0  0  0  0  0  0  0
   61.0100   33.9820   47.6240 O   0  0  0  0  0  0  0  0  0  0  0  0
   61.7010   33.8430   46.3960 C   0  0  0  0  0  0  0  0  0  0  0  0
   63.2180   33.8890   46.6130 C   0  0  0  0  0  0  0  0  0  0  0  0
   63.7350   32.5860   47.0260 N   0  0  0  0  0  0  0  0  0  0  0  0
   63.2900   31.9790   48.2480 C   0  0  0  0  0  0  0  0  0  0  0  0
   64.0130   32.1750   49.4330 C   0  0  0  0  0  0  0  0  0  0  0  0
   63.5480   31.6070   50.6340 C   0  0  0  0  0  0  0  0  0  0  0  0
   62.3220   30.9750   50.6790 N   0  0  0  0  0  0  0  0  0  0  0  0
   61.7090   30.6500   51.9840 C   0  0  0  0  0  0  0  0  0  0  0  0
   61.6750   30.6440   49.5030 C   0  0  0  0  0  0  0  0  0  0  0  0
   60.5450   29.7880   49.4850 C   0  0  0  0  0  0  0  0  0  0  0  0
   59.9090   29.4620   48.2870 C   0  0  0  0  0  0  0  0  0  0  0  0
   60.3850   29.9660   47.0800 C   0  0  0  0  0  0  0  0  0  0  0  0
   61.5020   30.7970   47.0630 C   0  0  0  0  0  0  0  0  0  0  0  0
   62.1560   31.1480   48.2620 C   0  0  0  0  0  0  0  0  0  0  0  0
   64.4440   31.7440   51.8540 C   0  0  0  0  0  0  0  0  0  0  0  0
   65.9140   31.5470   51.4630 C   0  0  0  0  0  0  0  0  0  0  0  0
   66.3740   32.4620   50.3080 C   0  0  0  0  0  0  0  0  0  0  0  0
   65.2260   33.0800   49.4890 C   0  0  0  0  0  0  0  0  0  0  0  0
   57.0938   28.9759   42.8131 H   0  0  0  0  0  0  0  0  0  0  0  0
   55.4608   29.2598   42.1209 H   0  0  0  0  0  0  0  0  0  0  0  0
   56.6783   30.5805   42.1209 H   0  0  0  0  0  0  0  0  0  0  0  0
   55.0731   30.9980   43.9141 H   0  0  0  0  0  0  0  0  0  0  0  0
   55.3026   29.3332   44.5561 H   0  0  0  0  0  0  0  0  0  0  0  0
   58.4289   29.4396   44.0048 H   0  0  0  0  0  0  0  0  0  0  0  0
   58.7485   30.0547   45.7019 H   0  0  0  0  0  0  0  0  0  0  0  0
   57.5696   28.3586   46.7000 H   0  0  0  0  0  0  0  0  0  0  0  0
   56.5229   28.0788   45.2672 H   0  0  0  0  0  0  0  0  0  0  0  0
   58.2210   27.4929   45.2672 H   0  0  0  0  0  0  0  0  0  0  0  0
   57.9390   31.8812   43.4806 H   0  0  0  0  0  0  0  0  0  0  0  0
   56.5891   32.6673   44.3974 H   0  0  0  0  0  0  0  0  0  0  0  0
   59.2538   31.7979   45.6202 H   0  0  0  0  0  0  0  0  0  0  0  0
   58.8405   33.4808   45.0922 H   0  0  0  0  0  0  0  0  0  0  0  0
   58.2652   33.1781   48.7004 H   0  0  0  0  0  0  0  0  0  0  0  0
   59.4499   32.1424   47.8115 H   0  0  0  0  0  0  0  0  0  0  0  0
   59.4723   34.5349   46.3716 H   0  0  0  0  0  0  0  0  0  0  0  0
   59.3329   35.0709   48.0907 H   0  0  0  0  0  0  0  0  0  0  0  0
   61.4318   32.8796   45.9384 H   0  0  0  0  0  0  0  0  0  0  0  0
   61.4152   34.6753   45.7360 H   0  0  0  0  0  0  0  0  0  0  0  0
   63.7056   34.1864   45.6729 H   0  0  0  0  0  0  0  0  0  0  0  0
   63.4329   34.6163   47.4098 H   0  0  0  0  0  0  0  0  0  0  0  0
   64.4810   32.1050   46.4750 H   0  0  0  0  0  0  0  0  0  0  0  0
   62.3660   30.9983   52.7946 H   0  0  0  0  0  0  0  0  0  0  0  0
   60.7317   31.1484   52.0643 H   0  0  0  0  0  0  0  0  0  0  0  0
   61.5731   29.5614   52.0643 H   0  0  0  0  0  0  0  0  0  0  0  0
   60.1638   29.3745   50.4304 H   0  0  0  0  0  0  0  0  0  0  0  0
   59.0276   28.8039   48.2962 H   0  0  0  0  0  0  0  0  0  0  0  0
   59.8781   29.7075   46.1386 H   0  0  0  0  0  0  0  0  0  0  0  0
   61.8782   31.1837   46.1044 H   0  0  0  0  0  0  0  0  0  0  0  0
   64.3155   32.7469   52.2872 H   0  0  0  0  0  0  0  0  0  0  0  0
   64.1646   30.9756   52.5899 H   0  0  0  0  0  0  0  0  0  0  0  0
   66.5392   31.7572   52.3433 H   0  0  0  0  0  0  0  0  0  0  0  0
   66.0187   30.5092   51.1138 H   0  0  0  0  0  0  0  0  0  0  0  0
   66.9713   33.2810   50.7352 H   0  0  0  0  0  0  0  0  0  0  0  0
   66.9474   31.8284   49.6154 H   0  0  0  0  0  0  0  0  0  0  0  0
   64.9349   34.0348   49.9512 H   0  0  0  0  0  0  0  0  0  0  0  0
   65.5858   33.2273   48.4600 H   0  0  0  0  0  0  0  0  0  0  0  0
  1  2  1  0
  2  3  1  0
  3  4  1  0
  4  5  1  0
  3  6  1  0
  6  7  1  0
  7  8  1  0
  8  9  1  0
  9 10  1  0
 10 11  1  0
 11 12  1  0
 12 13  1  0
 13 14  1  0
 14 15  1  0
 15 16  2  0
 16 17  1  0
 17 18  2  0
 18 19  1  0
 18 20  1  0
 20 21  2  0
 21 22  1  0
 22 23  2  0
 23 24  1  0
 24 25  2  0
 17 26  1  0
 26 27  1  0
 27 28  1  0
 28 29  1  0
 25 15  1  0
 29 16  1  0
 25 20  1  0
  1 30  1  0
  1 31  1  0
  1 32  1  0
  2 33  1  0
  2 34  1  0
  4 35  1  0
  4 36  1  0
  5 37  1  0
  5 38  1  0
  5 39  1  0
  6 40  1  0
  6 41  1  0
  7 42  1  0
  7 43  1  0
  9 44  1  0
  9 45  1  0
 10 46  1  0
 10 47  1  0
 12 48  1  0
 12 49  1  0
 13 50  1  0
 13 51  1  0
 14 52  1  0
 19 53  1  0
 19 54  1  0
 19 55  1  0
 21 56  1  0
 22 57  1  0
 23 58  1  0
 24 59  1  0
 26 60  1  0
 26 61  1  0
 27 62  1  0
 27 63  1  0
 28 64  1  0
 28 65  1  0
 29 66  1  0
 29 67  1  0
M  CHG  1  18   1
M  END
>  <UniqueID>  (17) 
17

>  <SMILES>  (17) 
CCN(CC)CCOCCOCCNc1c2c([n+](C)c3ccccc13)CCCC2

>  <Energy>  (17) 
95.40656953885012

>  <Genealogy>  (17) 
CCN(CC)CCOCCOCCNc1c2c([n+](C)c3ccccc13)CCCC2 (3D coordinates assigned)
CCN(CC)CCOCCOCCNc1c2c([n+](C)c3ccccc13)CCCC2 (nonaromatic ring conformer: 95.40656953885012 kcal/mol)

>  <smiles>  (17) 
CCN(CC)CCOCCOCCNc1c2c([n+](C)c3ccccc13)CCCC2

>  <score_type>  (17) 
oracle

>  <origin>  (17) 
adg

>  <m_score__min__energy>  (17) 
-7.3099999999999996

>  <m_primary>  (17) 
energy

$$$$
17:0
     RDKit          3D

 36 37  0  0  0  0  0  0  0  0999 V2000
   59.6640   35.5260   46.2370 C   0  0  0  0  0  0  0  0  0  0  0  0
   59.1370   34.1930   45.8000 C   0  0  0  0  0  0  0  0  0  0  0  0
   58.7820   33.8790   44.4920 C   0  0  0  0  0  0  0  0  0  0  0  0
   58.3760   32.5610   44.5310 C   0  0  0  0  0  0  0  0  0  0  0  0
   57.9100   31.7230   43.5170 C   0  0  0  0  0  0  0  0  0  0  0  0
   57.7350   32.3280   41.7110 Br  0  0  0  0  0  0  0  0  0  0  0  0
   57.5650   30.4030   43.8620 C   0  0  0  0  0  0  0  0  0  0  0  0
   57.6920   29.9560   45.1950 C   0  0  0  0  0  0  0  0  0  0  0  0
   58.1650   30.8210   46.1960 C   0  0  0  0  0  0  0  0  0  0  0  0
   58.5000   32.1290   45.8300 C   0  0  0  0  0  0  0  0  0  0  0  0
   58.9710   33.1190   46.6180 N   0  0  0  0  0  0  0  0  0  0  0  0
   59.2030   33.0600   48.0670 C   0  0  0  0  0  0  0  0  0  0  0  0
   60.7000   33.0800   48.3920 C   0  0  0  0  0  0  0  0  0  0  0  0
   61.4470   32.2370   47.4460 N   0  0  0  0  0  0  0  0  0  0  0  0
   62.8650   32.6370   47.3620 C   0  0  0  0  0  0  0  0  0  0  0  0
   63.0110   33.8520   46.4360 C   0  0  0  0  0  0  0  0  0  0  0  0
   63.4060   32.9910   48.7550 C   0  0  0  0  0  0  0  0  0  0  0  0
   59.6818   35.5709   47.3359 H   0  0  0  0  0  0  0  0  0  0  0  0
   60.6838   35.6626   45.8479 H   0  0  0  0  0  0  0  0  0  0  0  0
   59.0133   36.3230   45.8479 H   0  0  0  0  0  0  0  0  0  0  0  0
   58.8175   34.5406   43.6139 H   0  0  0  0  0  0  0  0  0  0  0  0
   57.1940   29.7151   43.0880 H   0  0  0  0  0  0  0  0  0  0  0  0
   57.4184   28.9220   45.4521 H   0  0  0  0  0  0  0  0  0  0  0  0
   58.2688   30.4799   47.2366 H   0  0  0  0  0  0  0  0  0  0  0  0
   58.7214   33.9271   48.5427 H   0  0  0  0  0  0  0  0  0  0  0  0
   58.7772   32.1204   48.4490 H   0  0  0  0  0  0  0  0  0  0  0  0
   61.0705   34.1136   48.3254 H   0  0  0  0  0  0  0  0  0  0  0  0
   60.8471   32.6875   49.4090 H   0  0  0  0  0  0  0  0  0  0  0  0
   60.9980   32.3680   46.5080 H   0  0  0  0  0  0  0  0  0  0  0  0
   63.4421   31.7927   46.9568 H   0  0  0  0  0  0  0  0  0  0  0  0
   63.1205   34.7636   47.0418 H   0  0  0  0  0  0  0  0  0  0  0  0
   63.9003   33.7245   45.8012 H   0  0  0  0  0  0  0  0  0  0  0  0
   62.1168   33.9388   45.8012 H   0  0  0  0  0  0  0  0  0  0  0  0
   62.7480   32.5604   49.5242 H   0  0  0  0  0  0  0  0  0  0  0  0
   64.4205   32.5815   48.8693 H   0  0  0  0  0  0  0  0  0  0  0  0
   63.4370   34.0846   48.8693 H   0  0  0  0  0  0  0  0  0  0  0  0
  1  2  1  0
  2  3  2  0
  3  4  1  0
  4  5  2  0
  5  6  1  0
  5  7  1  0
  7  8  2  0
  8  9  1  0
  9 10  2  0
 10 11  1  0
 11 12  1  0
 12 13  1  0
 13 14  1  0
 14 15  1  0
 15 16  1  0
 15 17  1  0
 11  2  1  0
 10  4  1  0
  1 18  1  0
  1 19  1  0
  1 20  1  0
  3 21  1  0
  7 22  1  0
  8 23  1  0
  9 24  1  0
 12 25  1  0
 12 26  1  0
 13 27  1  0
 13 28  1  0
 14 29  1  0
 15 30  1  0
 16 31  1  0
 16 32  1  0
 16 33  1  0
 17 34  1  0
 17 35  1  0
 17 36  1  0
M  END
>  <UniqueID>  (18) 
18

>  <SMILES>  (18) 
Cc1cc2c(Br)cccc2n1CCNC(C)C

>  <Energy>  (18) 
61.9185913641975

>  <Genealogy>  (18) 
Cc1cc2c(Br)cccc2n1CCNC(C)C (3D coordinates assigned)
Cc1cc2c(Br)cccc2n1CCNC(C)C (optimized conformer: 61.9185913641975 kcal/mol)

>  <smiles>  (18) 
Cc1cc2c(Br)cccc2n1CCNC(C)C

>  <score_type>  (18) 
oracle

>  <origin>  (18) 
adg

>  <m_score__min__energy>  (18) 
-6.7400000000000002

>  <m_primary>  (18) 
energy

$$$$
18:0
     RDKit          3D

 47 48  0  0  0  0  0  0  0  0999 V2000
   59.7110   34.5380   48.9340 C   0  0  0  0  0  0  0  0  0  0  0  0
   61.2100   34.5370   49.2290 C   0  0  0  0  0  0  0  0  0  0  0  0
   61.8930   33.4690   48.4690 N   0  0  0  0  0  0  0  0  0  0  0  0
   63.2890   33.8170   48.1170 C   0  0  0  0  0  0  0  0  0  0  0  0
   63.6700   33.4580   46.6730 C   0  0  0  0  0  0  0  0  0  0  0  0
   61.7710   32.1290   49.0930 C   0  0  0  0  0  0  0  0  0  0  0  0
   60.6930   31.3280   48.3640 C   0  0  0  0  0  0  0  0  0  0  0  0
   60.4300   31.9110   47.0500 N   0  0  0  0  0  0  0  0  0  0  0  0
   59.3930   31.3880   46.2050 C   0  0  0  0  0  0  0  0  0  0  0  0
   58.4620   32.2660   45.6170 C   0  0  0  0  0  0  0  0  0  0  0  0
   58.4580   33.6720   45.9280 N   0  0  0  0  0  0  0  0  0  0  0  0
   57.4180   34.2200   46.3510 O   0  0  0  0  0  0  0  0  0  0  0  0
   59.6240   34.4020   45.9010 O   0  0  0  0  0  0  0  0  0  0  0  0
   57.4750   31.7510   44.7710 C   0  0  0  0  0  0  0  0  0  0  0  0
   57.3910   30.3840   44.4860 C   0  0  0  0  0  0  0  0  0  0  0  0
   56.2010   29.9260   43.8350 N   0  0  0  0  0  0  0  0  0  0  0  0
   56.2070   29.7610   42.5980 O   0  0  0  0  0  0  0  0  0  0  0  0
   55.2010   29.3450   44.5800 O   0  0  0  0  0  0  0  0  0  0  0  0
   58.3840   29.4900   44.9850 C   0  0  0  0  0  0  0  0  0  0  0  0
   59.3380   30.0010   45.9150 C   0  0  0  0  0  0  0  0  0  0  0  0
   60.2380   29.1070   46.5180 C   0  0  0  0  0  0  0  0  0  0  0  0
   60.2040   27.7590   46.2050 C   0  0  0  0  0  0  0  0  0  0  0  0
   59.3270   27.3050   45.2320 C   0  0  0  0  0  0  0  0  0  0  0  0
   58.4780   28.1630   44.5850 N   0  0  0  0  0  0  0  0  0  0  0  0
   57.7690   27.6170   43.4160 C   0  0  0  0  0  0  0  0  0  0  0  0
   59.1510   34.5384   49.8808 H   0  0  0  0  0  0  0  0  0  0  0  0
   59.4520   35.4363   48.3544 H   0  0  0  0  0  0  0  0  0  0  0  0
   59.4508   33.6400   48.3544 H   0  0  0  0  0  0  0  0  0  0  0  0
   61.6345   35.5108   48.9436 H   0  0  0  0  0  0  0  0  0  0  0  0
   61.3581   34.3553   50.3037 H   0  0  0  0  0  0  0  0  0  0  0  0
   63.4212   34.9007   48.2518 H   0  0  0  0  0  0  0  0  0  0  0  0
   63.9430   33.2288   48.7775 H   0  0  0  0  0  0  0  0  0  0  0  0
   64.4706   32.7037   46.6818 H   0  0  0  0  0  0  0  0  0  0  0  0
   62.7902   33.0529   46.1516 H   0  0  0  0  0  0  0  0  0  0  0  0
   64.0221   34.3603   46.1516 H   0  0  0  0  0  0  0  0  0  0  0  0
   62.7332   31.6010   49.0203 H   0  0  0  0  0  0  0  0  0  0  0  0
   61.4946   32.2397   50.1519 H   0  0  0  0  0  0  0  0  0  0  0  0
   61.0346   30.2899   48.2387 H   0  0  0  0  0  0  0  0  0  0  0  0
   59.7672   31.3508   48.9576 H   0  0  0  0  0  0  0  0  0  0  0  0
   60.8160   32.8610   46.8480 H   0  0  0  0  0  0  0  0  0  0  0  0
   56.7457   32.4386   44.3178 H   0  0  0  0  0  0  0  0  0  0  0  0
   60.9750   29.4807   47.2441 H   0  0  0  0  0  0  0  0  0  0  0  0
   60.8683   27.0529   46.7247 H   0  0  0  0  0  0  0  0  0  0  0  0
   59.3128   26.2356   44.9748 H   0  0  0  0  0  0  0  0  0  0  0  0
   56.9400   26.9786   43.7552 H   0  0  0  0  0  0  0  0  0  0  0  0
   57.3706   28.4438   42.8096 H   0  0  0  0  0  0  0  0  0  0  0  0
   58.4666   27.0206   42.8096 H   0  0  0  0  0  0  0  0  0  0  0  0
  1  2  1  0
  2  3  1  0
  3  4  1  0
  4  5  1  0
  3  6  1  0
  6  7  1  0
  7  8  1  0
  8  9  1  0
  9 10  2  0
 10 11  1  0
 11 12  2  0
 11 13  1  0
 10 14  1  0
 14 15  2  0
 15 16  1  0
 16 17  2  0
 16 18  1  0
 15 19  1  0
 19 20  2  0
 20 21  1  0
 21 22  2  0
 22 23  1  0
 23 24  2  0
 24 25  1  0
 20  9  1  0
 24 19  1  0
  1 26  1  0
  1 27  1  0
  1 28  1  0
  2 29  1  0
  2 30  1  0
  4 31  1  0
  4 32  1  0
  5 33  1  0
  5 34  1  0
  5 35  1  0
  6 36  1  0
  6 37  1  0
  7 38  1  0
  7 39  1  0
  8 40  1  0
 14 41  1  0
 21 42  1  0
 22 43  1  0
 23 44  1  0
 25 45  1  0
 25 46  1  0
 25 47  1  0
M  CHG  5  11   1  13  -1  16   1  18  -1  24   1
M  END
>  <UniqueID>  (19) 
19

>  <SMILES>  (19) 
CCN(CC)CCNc1c([N+](=O)[O-])cc([N+](=O)[O-])c2c1ccc[n+]2C

>  <Energy>  (19) 
76.95578588594468

>  <Genealogy>  (19) 
CCN(CC)CCNc1c([N+](=O)[O-])cc([N+](=O)[O-])c2c1ccc[n+]2C (3D coordinates assigned)
CCN(CC)CCNc1c([N+](=O)[O-])cc([N+](=O)[O-])c2c1ccc[n+]2C (optimized conformer: 76.95578588594468 kcal/mol)

>  <smiles>  (19) 
CCN(CC)CCNc1c([N+](=O)[O-])cc([N+](=O)[O-])c2c1ccc[n+]2C

>  <score_type>  (19) 
oracle

>  <origin>  (19) 
adg

>  <m_score__min__energy>  (19) 
-5.9199999999999999

>  <m_primary>  (19) 
energy

$$$$
19:0
     RDKit          3D

 46 49  0  0  0  0  0  0  0  0999 V2000
   57.1080   34.5890   44.9230 C   0  0  0  0  0  0  0  0  0  0  0  0
   57.8390   33.4440   45.4530 N   0  0  0  0  0  0  0  0  0  0  0  0
   57.5440   32.1800   45.1730 N   0  0  0  0  0  0  0  0  0  0  0  0
   58.4500   31.3990   45.8080 C   0  0  0  0  0  0  0  0  0  0  0  0
   58.4620   29.9660   45.7310 N   0  0  0  0  0  0  0  0  0  0  0  0
   59.7410   29.2850   45.4640 C   0  0  0  0  0  0  0  0  0  0  0  0
   59.5570   27.7880   45.1060 C   0  0  0  0  0  0  0  0  0  0  0  0
   58.8740   27.5270   43.7510 C   0  0  0  0  0  0  0  0  0  0  0  0
   57.3990   27.5420   43.8230 N   0  0  0  0  0  0  0  0  0  0  0  0
   56.7960   28.8280   44.2240 C   0  0  0  0  0  0  0  0  0  0  0  0
   57.1720   29.2580   45.6530 C   0  0  0  0  0  0  0  0  0  0  0  0
   59.3510   32.1990   46.4880 C   0  0  0  0  0  0  0  0  0  0  0  0
   60.5030   31.9260   47.2230 C   0  0  0  0  0  0  0  0  0  0  0  0
   61.2290   33.0200   47.7530 C   0  0  0  0  0  0  0  0  0  0  0  0
   62.4610   32.7850   48.5490 C   0  0  0  0  0  0  0  0  0  0  0  0
   63.6790   33.3830   48.1750 C   0  0  0  0  0  0  0  0  0  0  0  0
   64.8380   33.1580   48.9250 C   0  0  0  0  0  0  0  0  0  0  0  0
   64.7950   32.3340   50.0520 C   0  0  0  0  0  0  0  0  0  0  0  0
   63.5910   31.7350   50.4320 C   0  0  0  0  0  0  0  0  0  0  0  0
   62.4300   31.9580   49.6870 C   0  0  0  0  0  0  0  0  0  0  0  0
   60.7730   34.3450   47.5080 C   0  0  0  0  0  0  0  0  0  0  0  0
   59.6190   34.5820   46.7400 C   0  0  0  0  0  0  0  0  0  0  0  0
   58.9320   33.4760   46.2420 C   0  0  0  0  0  0  0  0  0  0  0  0
   56.7213   35.1946   45.7559 H   0  0  0  0  0  0  0  0  0  0  0  0
   57.7826   35.2014   44.3066 H   0  0  0  0  0  0  0  0  0  0  0  0
   56.2686   34.2348   44.3066 H   0  0  0  0  0  0  0  0  0  0  0  0
   60.2397   29.7894   44.6232 H   0  0  0  0  0  0  0  0  0  0  0  0
   60.3432   29.3358   46.3831 H   0  0  0  0  0  0  0  0  0  0  0  0
   60.5507   27.3167   45.0847 H   0  0  0  0  0  0  0  0  0  0  0  0
   58.8924   27.3655   45.8740 H   0  0  0  0  0  0  0  0  0  0  0  0
   59.1961   28.3048   43.0430 H   0  0  0  0  0  0  0  0  0  0  0  0
   59.1722   26.5190   43.4268 H   0  0  0  0  0  0  0  0  0  0  0  0
   57.0160   27.2800   42.8840 H   0  0  0  0  0  0  0  0  0  0  0  0
   57.0970   26.8020   44.4990 H   0  0  0  0  0  0  0  0  0  0  0  0
   57.1359   29.6060   43.5246 H   0  0  0  0  0  0  0  0  0  0  0  0
   55.7041   28.6971   44.2001 H   0  0  0  0  0  0  0  0  0  0  0  0
   56.3848   29.9246   46.0350 H   0  0  0  0  0  0  0  0  0  0  0  0
   57.2681   28.3412   46.2532 H   0  0  0  0  0  0  0  0  0  0  0  0
   60.8384   30.8912   47.3866 H   0  0  0  0  0  0  0  0  0  0  0  0
   63.7197   34.0314   47.2873 H   0  0  0  0  0  0  0  0  0  0  0  0
   65.7853   33.6309   48.6267 H   0  0  0  0  0  0  0  0  0  0  0  0
   65.7078   32.1568   50.6397 H   0  0  0  0  0  0  0  0  0  0  0  0
   63.5571   31.0864   51.3198 H   0  0  0  0  0  0  0  0  0  0  0  0
   61.4855   31.4839   49.9922 H   0  0  0  0  0  0  0  0  0  0  0  0
   61.3309   35.1963   47.9252 H   0  0  0  0  0  0  0  0  0  0  0  0
   59.2702   35.6057   46.5390 H   0  0  0  0  0  0  0  0  0  0  0  0
  1  2  1  0
  2  3  1  0
  3  4  2  0
  4  5  1  0
  5  6  1  0
  6  7  1  0
  7  8  1  0
  8  9  1  0
  9 10  1  0
 10 11  1  0
  4 12  1  0
 12 13  2  0
 13 14  1  0
 14 15  1  0
 15 16  2  0
 16 17  1  0
 17 18  2  0
 18 19  1  0
 19 20  2  0
 14 21  2  0
 21 22  1  0
 22 23  2  0
 23  2  1  0
 11  5  1  0
 23 12  1  0
 20 15  1  0
  1 24  1  0
  1 25  1  0
  1 26  1  0
  6 27  1  0
  6 28  1  0
  7 29  1  0
  7 30  1  0
  8 31  1  0
  8 32  1  0
  9 33  1  0
  9 34  1  0
 10 35  1  0
 10 36  1  0
 11 37  1  0
 11 38  1  0
 13 39  1  0
 16 40  1  0
 17 41  1  0
 18 42  1  0
 19 43  1  0
 20 44  1  0
 21 45  1  0
 22 46  1  0
M  CHG  1   9   1
M  END
>  <UniqueID>  (20) 
20

>  <SMILES>  (20) 
Cn1nc(N2CCC[NH2+]CC2)c2cc(-c3ccccc3)ccc21

>  <Energy>  (20) 
106.26946841786014

>  <Genealogy>  (20) 
Cn1nc(N2CCC[NH2+]CC2)c2cc(-c3ccccc3)ccc21 (protonated)
Cn1nc(N2CCC[NH2+]CC2)c2cc(-c3ccccc3)ccc21 (3D coordinates assigned)
Cn1nc(N2CCC[NH2+]CC2)c2cc(-c3ccccc3)ccc21 (nonaromatic ring conformer: 106.26946841786014 kcal/mol)

>  <smiles>  (20) 
Cn1nc(N2CCCNCC2)c2cc(-c3ccccc3)ccc21

>  <score_type>  (20) 
oracle

>  <origin>  (20) 
adg

>  <m_score__min__energy>  (20) 
-4.1699999999999999

>  <m_primary>  (20) 
energy

$$$$
20:0
     RDKit          3D

 66 68  0  0  0  0  0  0  0  0999 V2000
   62.2650   30.2540   50.8800 C   0  0  0  0  0  0  0  0  0  0  0  0
   60.9400   29.5950   50.4970 C   0  0  0  0  0  0  0  0  0  0  0  0
   59.9220   30.5930   50.1040 N   0  0  0  0  0  0  0  0  0  0  0  0
   58.5970   29.9620   49.9730 C   0  0  0  0  0  0  0  0  0  0  0  0
   59.8790   31.8090   50.9550 C   0  0  0  0  0  0  0  0  0  0  0  0
   59.2900   33.0540   50.2710 C   0  0  0  0  0  0  0  0  0  0  0  0
   60.1100   33.3960   49.1730 O   0  0  0  0  0  0  0  0  0  0  0  0
   61.1920   34.2100   49.5850 C   0  0  0  0  0  0  0  0  0  0  0  0
   62.3510   34.1660   48.5750 C   0  0  0  0  0  0  0  0  0  0  0  0
   63.5330   33.2880   49.0230 C   0  0  0  0  0  0  0  0  0  0  0  0
   63.6070   31.9520   48.2680 C   0  0  0  0  0  0  0  0  0  0  0  0
   62.5860   31.9060   47.1290 C   0  0  0  0  0  0  0  0  0  0  0  0
   61.2660   31.5270   47.6310 N   0  0  0  0  0  0  0  0  0  0  0  0
   60.2020   31.2200   46.7200 C   0  0  0  0  0  0  0  0  0  0  0  0
   59.5400   32.2510   46.0410 C   0  0  0  0  0  0  0  0  0  0  0  0
   58.4820   31.9410   45.1670 C   0  0  0  0  0  0  0  0  0  0  0  0
   58.1830   30.6280   44.8690 N   0  0  0  0  0  0  0  0  0  0  0  0
   57.2730   30.3200   43.7460 C   0  0  0  0  0  0  0  0  0  0  0  0
   58.7470   29.6070   45.6110 C   0  0  0  0  0  0  0  0  0  0  0  0
   58.3040   28.2640   45.4960 C   0  0  0  0  0  0  0  0  0  0  0  0
   58.9120   27.2410   46.2230 C   0  0  0  0  0  0  0  0  0  0  0  0
   59.9640   27.5250   47.0880 C   0  0  0  0  0  0  0  0  0  0  0  0
   60.4000   28.8380   47.2480 C   0  0  0  0  0  0  0  0  0  0  0  0
   59.7900   29.8900   46.5350 C   0  0  0  0  0  0  0  0  0  0  0  0
   57.7190   33.1130   44.5690 C   0  0  0  0  0  0  0  0  0  0  0  0
   57.5060   34.2100   45.6230 C   0  0  0  0  0  0  0  0  0  0  0  0
   58.8070   34.6560   46.3260 C   0  0  0  0  0  0  0  0  0  0  0  0
   59.9910   33.6930   46.1350 C   0  0  0  0  0  0  0  0  0  0  0  0
   62.3502   30.2964   51.9759 H   0  0  0  0  0  0  0  0  0  0  0  0
   63.0991   29.6658   50.4699 H   0  0  0  0  0  0  0  0  0  0  0  0
   62.2992   31.2741   50.4699 H   0  0  0  0  0  0  0  0  0  0  0  0
   61.1134   28.9121   49.6523 H   0  0  0  0  0  0  0  0  0  0  0  0
   60.5630   29.0508   51.3755 H   0  0  0  0  0  0  0  0  0  0  0  0
   58.1840   29.7653   50.9734 H   0  0  0  0  0  0  0  0  0  0  0  0
   57.9227   30.6357   49.4239 H   0  0  0  0  0  0  0  0  0  0  0  0
   58.6951   29.0139   49.4239 H   0  0  0  0  0  0  0  0  0  0  0  0
   59.2683   31.5846   51.8419 H   0  0  0  0  0  0  0  0  0  0  0  0
   60.9234   32.0541   51.1981 H   0  0  0  0  0  0  0  0  0  0  0  0
   58.2710   32.8359   49.9187 H   0  0  0  0  0  0  0  0  0  0  0  0
   59.2493   33.8905   50.9842 H   0  0  0  0  0  0  0  0  0  0  0  0
   60.8413   35.2482   49.6807 H   0  0  0  0  0  0  0  0  0  0  0  0
   61.5612   33.8293   50.5487 H   0  0  0  0  0  0  0  0  0  0  0  0
   61.9666   33.7706   47.6232 H   0  0  0  0  0  0  0  0  0  0  0  0
   62.7329   35.1933   48.4809 H   0  0  0  0  0  0  0  0  0  0  0  0
   64.4672   33.8418   48.8483 H   0  0  0  0  0  0  0  0  0  0  0  0
   63.3865   33.0567   50.0884 H   0  0  0  0  0  0  0  0  0  0  0  0
   64.6173   31.8309   47.8501 H   0  0  0  0  0  0  0  0  0  0  0  0
   63.3806   31.1389   48.9734 H   0  0  0  0  0  0  0  0  0  0  0  0
   62.5225   32.8995   46.6611 H   0  0  0  0  0  0  0  0  0  0  0  0
   62.9121   31.1566   46.3927 H   0  0  0  0  0  0  0  0  0  0  0  0
   61.0590   31.5250   48.6560 H   0  0  0  0  0  0  0  0  0  0  0  0
   56.3008   29.9909   44.1416 H   0  0  0  0  0  0  0  0  0  0  0  0
   57.1325   31.2206   43.1303 H   0  0  0  0  0  0  0  0  0  0  0  0
   57.7084   29.5192   43.1303 H   0  0  0  0  0  0  0  0  0  0  0  0
   57.4675   28.0259   44.8225 H   0  0  0  0  0  0  0  0  0  0  0  0
   58.5584   26.2053   46.1121 H   0  0  0  0  0  0  0  0  0  0  0  0
   60.4517   26.7120   47.6459 H   0  0  0  0  0  0  0  0  0  0  0  0
   61.2287   29.0563   47.9377 H   0  0  0  0  0  0  0  0  0  0  0  0
   58.2930   33.5267   43.7267 H   0  0  0  0  0  0  0  0  0  0  0  0
   56.7376   32.7584   44.2211 H   0  0  0  0  0  0  0  0  0  0  0  0
   57.0609   35.0857   45.1279 H   0  0  0  0  0  0  0  0  0  0  0  0
   56.8498   33.7880   46.3984 H   0  0  0  0  0  0  0  0  0  0  0  0
   59.0949   35.6396   45.9264 H   0  0  0  0  0  0  0  0  0  0  0  0
   58.5906   34.6796   47.4042 H   0  0  0  0  0  0  0  0  0  0  0  0
   60.5205   33.9606   45.2087 H   0  0  0  0  0  0  0  0  0  0  0  0
   60.6496   33.7865   47.0111 H   0  0  0  0  0  0  0  0  0  0  0  0
  1  2  1  0
  2  3  1  0
  3  4  1  0
  3  5  1  0
  5  6  1  0
  6  7  1  0
  7  8  1  0
  8  9  1  0
  9 10  1  0
 10 11  1  0
 11 12  1  0
 12 13  1  0
 13 14  1  0
 14 15  2  0
 15 16  1  0
 16 17  2  0
 17 18  1  0
 17 19  1  0
 19 20  2  0
 20 21  1  0
 21 22  2  0
 22 23  1  0
 23 24  2  0
 16 25  1  0
 25 26  1  0
 26 27  1  0
 27 28  1  0
 24 14  1  0
 28 15  1  0
 24 19  1  0
  1 29  1  0
  1 30  1  0
  1 31  1  0
  2 32  1  0
  2 33  1  0
  4 34  1  0
  4 35  1  0
  4 36  1  0
  5 37  1  0
  5 38  1  0
  6 39  1  0
  6 40  1  0
  8 41  1  0
  8 42  1  0
  9 43  1  0
  9 44  1  0
 10 45  1  0
 10 46  1  0
 11 47  1  0
 11 48  1  0
 12 49  1  0
 12 50  1  0
 13 51  1  0
 18 52  1  0
 18 53  1  0
 18 54  1  0
 20 55  1  0
 21 56  1  0
 22 57  1  0
 23 58  1  0
 25 59  1  0
 25 60  1  0
 26 61  1  0
 26 62  1  0
 27 63  1  0
 27 64  1  0
 28 65  1  0
 28 66  1  0
M  CHG  1  17   1
M  END
>  <UniqueID>  (21) 
21

>  <SMILES>  (21) 
CCN(C)CCOCCCCCNc1c2c([n+](C)c3ccccc13)CCCC2

>  <Energy>  (21) 
87.53107725925136

>  <Genealogy>  (21) 
CCN(C)CCOCCCCCNc1c2c([n+](C)c3ccccc13)CCCC2 (3D coordinates assigned)
CCN(C)CCOCCCCCNc1c2c([n+](C)c3ccccc13)CCCC2 (nonaromatic ring conformer: 87.53107725925136 kcal/mol)

>  <smiles>  (21) 
CCN(C)CCOCCCCCNc1c2c([n+](C)c3ccccc13)CCCC2

>  <score_type>  (21) 
oracle

>  <origin>  (21) 
adg

>  <m_score__min__energy>  (21) 
-6.6200000000000001

>  <m_primary>  (21) 
energy

$$$$
