0:0
     RDKit          3D

 40 42  0  0  0  0  0  0  0  0999 V2000
   56.2100   24.0900   43.9610 C   0  0  0  0  0  0  0  0  0  0  0  0
   55.9260   24.3100   45.4420 C   0  0  0  0  0  0  0  0  0  0  0  0
   55.0250   25.4890   45.6290 C   0  0  0  0  0  0  0  0  0  0  0  0
   53.7740   25.3300   45.6220 O   0  0  0  0  0  0  0  0  0  0  0  0
   55.5920   26.7800   45.8760 N   0  0  0  0  0  0  0  0  0  0  0  0
   57.0060   27.0830   45.6910 C   0  0  0  0  0  0  0  0  0  0  0  0
   57.1700   28.5210   45.2770 C   0  0  0  0  0  0  0  0  0  0  0  0
   57.8880   29.4050   46.0960 C   0  0  0  0  0  0  0  0  0  0  0  0
   57.9790   30.7580   45.7630 C   0  0  0  0  0  0  0  0  0  0  0  0
   57.3380   31.2490   44.6130 C   0  0  0  0  0  0  0  0  0  0  0  0
   57.3910   32.6380   44.2610 N   0  0  0  0  0  0  0  0  0  0  0  0
   57.5450   33.7250   45.1830 C   0  0  0  0  0  0  0  0  0  0  0  0
   56.6540   34.6120   45.2320 O   0  0  0  0  0  0  0  0  0  0  0  0
   58.6880   33.8100   46.1110 C   0  0  0  0  0  0  0  0  0  0  0  0
   60.0370   33.7000   45.7700 C   0  0  0  0  0  0  0  0  0  0  0  0
   60.7010   33.8370   46.9650 C   0  0  0  0  0  0  0  0  0  0  0  0
   62.0640   33.8160   47.2600 C   0  0  0  0  0  0  0  0  0  0  0  0
   62.4440   33.9830   48.6050 C   0  0  0  0  0  0  0  0  0  0  0  0
   61.4640   34.1630   49.6080 C   0  0  0  0  0  0  0  0  0  0  0  0
   60.0970   34.1750   49.2760 C   0  0  0  0  0  0  0  0  0  0  0  0
   59.7520   34.0080   47.9360 C   0  0  0  0  0  0  0  0  0  0  0  0
   58.5510   33.9860   47.4130 O   0  0  0  0  0  0  0  0  0  0  0  0
   56.6560   30.3580   43.7750 C   0  0  0  0  0  0  0  0  0  0  0  0
   56.5600   29.0050   44.1090 C   0  0  0  0  0  0  0  0  0  0  0  0
   57.0751   23.4199   43.8491 H   0  0  0  0  0  0  0  0  0  0  0  0
   55.3299   23.6356   43.4824 H   0  0  0  0  0  0  0  0  0  0  0  0
   56.4300   25.0557   43.4824 H   0  0  0  0  0  0  0  0  0  0  0  0
   55.4408   23.4135   45.8554 H   0  0  0  0  0  0  0  0  0  0  0  0
   56.8756   24.4995   45.9638 H   0  0  0  0  0  0  0  0  0  0  0  0
   57.5427   26.9116   46.6357 H   0  0  0  0  0  0  0  0  0  0  0  0
   57.4175   26.4304   44.9069 H   0  0  0  0  0  0  0  0  0  0  0  0
   58.3817   29.0306   47.0049 H   0  0  0  0  0  0  0  0  0  0  0  0
   58.5548   31.4422   46.4035 H   0  0  0  0  0  0  0  0  0  0  0  0
   60.4700   33.5400   44.7716 H   0  0  0  0  0  0  0  0  0  0  0  0
   62.8155   33.6739   46.4694 H   0  0  0  0  0  0  0  0  0  0  0  0
   63.5097   33.9734   48.8773 H   0  0  0  0  0  0  0  0  0  0  0  0
   61.7726   34.2946   50.6556 H   0  0  0  0  0  0  0  0  0  0  0  0
   59.3259   34.3117   50.0485 H   0  0  0  0  0  0  0  0  0  0  0  0
   56.1928   30.7260   42.8476 H   0  0  0  0  0  0  0  0  0  0  0  0
   56.0047   28.3168   43.4548 H   0  0  0  0  0  0  0  0  0  0  0  0
  1  2  1  0
  2  3  1  0
  3  4  2  0
  3  5  1  0
  5  6  1  0
  6  7  1  0
  7  8  2  0
  8  9  1  0
  9 10  2  0
 10 11  1  0
 11 12  1  0
 12 13  2  0
 12 14  1  0
 14 15  2  0
 15 16  1  0
 16 17  2  0
 17 18  1  0
 18 19  2  0
 19 20  1  0
 20 21  2  0
 21 22  1  0
 10 23  1  0
 23 24  2  0
 24  7  1  0
 22 14  1  0
 21 16  1  0
  1 25  1  0
  1 26  1  0
  1 27  1  0
  2 28  1  0
  2 29  1  0
  6 30  1  0
  6 31  1  0
  8 32  1  0
  9 33  1  0
 15 34  1  0
 17 35  1  0
 18 36  1  0
 19 37  1  0
 20 38  1  0
 23 39  1  0
 24 40  1  0
M  CHG  2   5  -1  11  -1
M  END
>  <UniqueID>  (1) 
1

>  <SMILES>  (1) 
CCC(=O)[N-]Cc1ccc([N-]C(=O)c2cc3ccccc3o2)cc1

>  <Energy>  (1) 
72.90553451519422

>  <Genealogy>  (1) 
CCC(=O)[N-]Cc1ccc([N-]C(=O)c2cc3ccccc3o2)cc1 (protonated)
CCC(=O)[N-]Cc1ccc([N-]C(=O)c2cc3ccccc3o2)cc1 (3D coordinates assigned)
CCC(=O)[N-]Cc1ccc([N-]C(=O)c2cc3ccccc3o2)cc1 (optimized conformer: 72.90553451519422 kcal/mol)

>  <smiles>  (1) 
CCC(=O)NCc1ccc(NC(=O)c2cc3ccccc3o2)cc1

>  <score_type>  (1) 
oracle

>  <origin>  (1) 
adg

>  <m_score__min__energy>  (1) 
-11.039999999999999

>  <m_primary>  (1) 
energy

$$$$
1:0
     RDKit          3D

 31 32  0  0  0  0  0  0  0  0999 V2000
   56.4050   29.7090   42.9950 C   0  0  0  0  0  0  0  0  0  0  0  0
   57.0140   30.9540   43.5550 C   0  0  0  0  0  0  0  0  0  0  0  0
   57.7470   31.8210   42.7370 C   0  0  0  0  0  0  0  0  0  0  0  0
   58.2810   32.9510   43.2690 N   0  0  0  0  0  0  0  0  0  0  0  0
   58.1200   33.2610   44.5830 C   0  0  0  0  0  0  0  0  0  0  0  0
   58.7290   34.5200   45.1310 C   0  0  0  0  0  0  0  0  0  0  0  0
   60.0860   34.2620   45.6160 N   0  0  0  0  0  0  0  0  0  0  0  0
   60.4280   34.0740   47.0080 C   0  0  0  0  0  0  0  0  0  0  0  0
   59.4270   34.0980   48.0010 C   0  0  0  0  0  0  0  0  0  0  0  0
   59.7530   33.9260   49.3470 C   0  0  0  0  0  0  0  0  0  0  0  0
   61.0790   33.7320   49.7260 C   0  0  0  0  0  0  0  0  0  0  0  0
   62.0860   33.7050   48.7610 C   0  0  0  0  0  0  0  0  0  0  0  0
   61.7760   33.8700   47.3990 C   0  0  0  0  0  0  0  0  0  0  0  0
   62.8880   33.8200   46.3870 C   0  0  0  0  0  0  0  0  0  0  0  0
   57.3760   32.3990   45.4000 C   0  0  0  0  0  0  0  0  0  0  0  0
   56.8420   31.2690   44.8670 N   0  0  0  0  0  0  0  0  0  0  0  0
   56.0849   29.0546   43.8192 H   0  0  0  0  0  0  0  0  0  0  0  0
   55.5342   29.9728   42.3769 H   0  0  0  0  0  0  0  0  0  0  0  0
   57.1478   29.1835   42.3769 H   0  0  0  0  0  0  0  0  0  0  0  0
   57.8897   31.5892   41.6712 H   0  0  0  0  0  0  0  0  0  0  0  0
   58.7665   35.2799   44.3366 H   0  0  0  0  0  0  0  0  0  0  0  0
   58.1131   34.8787   45.9688 H   0  0  0  0  0  0  0  0  0  0  0  0
   60.8280   34.1720   44.8860 H   0  0  0  0  0  0  0  0  0  0  0  0
   58.3774   34.2541   47.7114 H   0  0  0  0  0  0  0  0  0  0  0  0
   58.9610   33.9437   50.1102 H   0  0  0  0  0  0  0  0  0  0  0  0
   61.3327   33.5998   50.7881 H   0  0  0  0  0  0  0  0  0  0  0  0
   63.1314   33.5534   49.0678 H   0  0  0  0  0  0  0  0  0  0  0  0
   63.8560   33.7765   46.9077 H   0  0  0  0  0  0  0  0  0  0  0  0
   62.7702   32.9262   45.7567 H   0  0  0  0  0  0  0  0  0  0  0  0
   62.8509   34.7207   45.7567 H   0  0  0  0  0  0  0  0  0  0  0  0
   57.2256   32.6352   46.4638 H   0  0  0  0  0  0  0  0  0  0  0  0
  1  2  1  0
  2  3  2  0
  3  4  1  0
  4  5  2  0
  5  6  1  0
  6  7  1  0
  7  8  1  0
  8  9  2  0
  9 10  1  0
 10 11  2  0
 11 12  1  0
 12 13  2  0
 13 14  1  0
  5 15  1  0
 15 16  2  0
 16  2  1  0
 13  8  1  0
  1 17  1  0
  1 18  1  0
  1 19  1  0
  3 20  1  0
  6 21  1  0
  6 22  1  0
  7 23  1  0
  9 24  1  0
 10 25  1  0
 11 26  1  0
 12 27  1  0
 14 28  1  0
 14 29  1  0
 14 30  1  0
 15 31  1  0
M  END
>  <UniqueID>  (2) 
2

>  <SMILES>  (2) 
Cc1cnc(CNc2ccccc2C)cn1

>  <Energy>  (2) 
32.20908030896712

>  <Genealogy>  (2) 
Cc1cnc(CNc2ccccc2C)cn1 (3D coordinates assigned)
Cc1cnc(CNc2ccccc2C)cn1 (optimized conformer: 32.20908030896712 kcal/mol)

>  <smiles>  (2) 
Cc1cnc(CNc2ccccc2C)cn1

>  <score_type>  (2) 
oracle

>  <origin>  (2) 
adg

>  <m_score__min__energy>  (2) 
-6.1799999999999997

>  <m_primary>  (2) 
energy

$$$$
2:0
     RDKit          3D

 73 76  0  0  0  0  0  0  0  0999 V2000
   59.6630   35.6250   45.7790 C   0  0  0  0  0  0  0  0  0  0  0  0
   58.8880   34.7960   46.8030 C   0  0  0  0  0  0  0  0  0  0  0  0
   58.4190   33.5220   46.2130 N   0  0  0  0  0  0  0  0  0  0  0  0
   57.7690   32.6860   47.2430 C   0  0  0  0  0  0  0  0  0  0  0  0
   57.4870   33.7790   45.0890 C   0  0  0  0  0  0  0  0  0  0  0  0
   58.1240   33.4320   43.7410 C   0  0  0  0  0  0  0  0  0  0  0  0
   57.5510   32.2280   43.2330 O   0  0  0  0  0  0  0  0  0  0  0  0
   57.6040   30.9870   43.8810 C   0  0  0  0  0  0  0  0  0  0  0  0
   58.8190   30.3620   44.2200 C   0  0  0  0  0  0  0  0  0  0  0  0
   58.8180   29.1140   44.8510 C   0  0  0  0  0  0  0  0  0  0  0  0
   57.6070   28.4670   45.1440 C   0  0  0  0  0  0  0  0  0  0  0  0
   57.6110   27.1400   45.8010 C   0  0  0  0  0  0  0  0  0  0  0  0
   56.9720   26.0240   45.2320 C   0  0  0  0  0  0  0  0  0  0  0  0
   57.1540   24.8470   45.9420 C   0  0  0  0  0  0  0  0  0  0  0  0
   58.1030   25.1850   47.2850 S   0  0  0  0  0  0  0  0  0  0  0  0
   58.2910   26.8320   46.9890 C   0  0  0  0  0  0  0  0  0  0  0  0
   58.9940   27.7620   47.9000 C   0  0  0  0  0  0  0  0  0  0  0  0
   60.1300   27.3500   48.6140 C   0  0  0  0  0  0  0  0  0  0  0  0
   60.7860   28.2350   49.4750 C   0  0  0  0  0  0  0  0  0  0  0  0
   60.3200   29.5550   49.6240 C   0  0  0  0  0  0  0  0  0  0  0  0
   60.9400   30.4800   50.4750 O   0  0  0  0  0  0  0  0  0  0  0  0
   60.3130   31.0900   51.5990 C   0  0  0  0  0  0  0  0  0  0  0  0
   59.7100   32.4410   51.2030 C   0  0  0  0  0  0  0  0  0  0  0  0
   60.7060   33.4420   50.5580 C   0  0  0  0  0  0  0  0  0  0  0  0
   61.6530   32.8990   49.5420 N   0  0  0  0  0  0  0  0  0  0  0  0
   61.0510   32.8280   48.1810 C   0  0  0  0  0  0  0  0  0  0  0  0
   62.0980   32.7800   47.0490 C   0  0  0  0  0  0  0  0  0  0  0  0
   63.3670   32.0580   47.5030 C   0  0  0  0  0  0  0  0  0  0  0  0
   64.0050   32.7500   48.7220 C   0  0  0  0  0  0  0  0  0  0  0  0
   62.9820   33.5500   49.5550 C   0  0  0  0  0  0  0  0  0  0  0  0
   59.1990   29.9690   48.8970 C   0  0  0  0  0  0  0  0  0  0  0  0
   58.5440   29.0850   48.0350 C   0  0  0  0  0  0  0  0  0  0  0  0
   56.3960   29.1050   44.8270 C   0  0  0  0  0  0  0  0  0  0  0  0
   56.3990   30.3520   44.1970 C   0  0  0  0  0  0  0  0  0  0  0  0
   60.3234   36.3314   46.3033 H   0  0  0  0  0  0  0  0  0  0  0  0
   60.2678   34.9567   45.1484 H   0  0  0  0  0  0  0  0  0  0  0  0
   58.9556   36.1835   45.1484 H   0  0  0  0  0  0  0  0  0  0  0  0
   59.5445   34.5758   47.6577 H   0  0  0  0  0  0  0  0  0  0  0  0
   58.0105   35.3742   47.1280 H   0  0  0  0  0  0  0  0  0  0  0  0
   58.0515   33.0494   48.2421 H   0  0  0  0  0  0  0  0  0  0  0  0
   56.6767   32.7444   47.1269 H   0  0  0  0  0  0  0  0  0  0  0  0
   58.0948   31.6418   47.1269 H   0  0  0  0  0  0  0  0  0  0  0  0
   56.5841   33.1658   45.2260 H   0  0  0  0  0  0  0  0  0  0  0  0
   57.2365   34.8501   45.0866 H   0  0  0  0  0  0  0  0  0  0  0  0
   57.9432   34.2513   43.0296 H   0  0  0  0  0  0  0  0  0  0  0  0
   59.2066   33.2912   43.8756 H   0  0  0  0  0  0  0  0  0  0  0  0
   59.7732   30.8574   43.9876 H   0  0  0  0  0  0  0  0  0  0  0  0
   59.7719   28.6364   45.1194 H   0  0  0  0  0  0  0  0  0  0  0  0
   56.3805   26.0798   44.3062 H   0  0  0  0  0  0  0  0  0  0  0  0
   56.7467   23.8615   45.6718 H   0  0  0  0  0  0  0  0  0  0  0  0
   60.5069   26.3234   48.4953 H   0  0  0  0  0  0  0  0  0  0  0  0
   61.6692   27.8987   50.0379 H   0  0  0  0  0  0  0  0  0  0  0  0
   59.5144   30.4312   51.9709 H   0  0  0  0  0  0  0  0  0  0  0  0
   61.0656   31.2507   52.3850 H   0  0  0  0  0  0  0  0  0  0  0  0
   58.8995   32.2547   50.4830 H   0  0  0  0  0  0  0  0  0  0  0  0
   59.3664   32.9092   52.1372 H   0  0  0  0  0  0  0  0  0  0  0  0
   60.1141   34.2309   50.0709 H   0  0  0  0  0  0  0  0  0  0  0  0
   61.3433   33.7833   51.3871 H   0  0  0  0  0  0  0  0  0  0  0  0
   61.8180   31.9040   49.8330 H   0  0  0  0  0  0  0  0  0  0  0  0
   60.4310   31.9214   48.1210 H   0  0  0  0  0  0  0  0  0  0  0  0
   60.4613   33.7456   48.0388 H   0  0  0  0  0  0  0  0  0  0  0  0
   61.6706   32.2473   46.1867 H   0  0  0  0  0  0  0  0  0  0  0  0
   62.3625   33.8117   46.7739 H   0  0  0  0  0  0  0  0  0  0  0  0
   63.1120   31.0225   47.7728 H   0  0  0  0  0  0  0  0  0  0  0  0
   64.0913   32.0801   46.6754 H   0  0  0  0  0  0  0  0  0  0  0  0
   64.4589   31.9818   49.3653 H   0  0  0  0  0  0  0  0  0  0  0  0
   64.7557   33.4606   48.3457 H   0  0  0  0  0  0  0  0  0  0  0  0
   63.3387   33.6162   50.5935 H   0  0  0  0  0  0  0  0  0  0  0  0
   62.8823   34.5526   49.1137 H   0  0  0  0  0  0  0  0  0  0  0  0
   58.8296   30.9995   49.0047 H   0  0  0  0  0  0  0  0  0  0  0  0
   57.6715   29.4276   47.4594 H   0  0  0  0  0  0  0  0  0  0  0  0
   55.4406   28.6202   45.0761 H   0  0  0  0  0  0  0  0  0  0  0  0
   55.4447   30.8387   43.9473 H   0  0  0  0  0  0  0  0  0  0  0  0
  1  2  1  0
  2  3  1  0
  3  4  1  0
  3  5  1  0
  5  6  1  0
  6  7  1  0
  7  8  1  0
  8  9  2  0
  9 10  1  0
 10 11  2  0
 11 12  1  0
 12 13  1  0
 13 14  2  0
 14 15  1  0
 15 16  1  0
 16 17  1  0
 17 18  2  0
 18 19  1  0
 19 20  2  0
 20 21  1  0
 21 22  1  0
 22 23  1  0
 23 24  1  0
 24 25  1  0
 25 26  1  0
 26 27  1  0
 27 28  1  0
 28 29  1  0
 29 30  1  0
 20 31  1  0
 31 32  2  0
 11 33  1  0
 33 34  2  0
 34  8  1  0
 16 12  2  0
 32 17  1  0
 30 25  1  0
  1 35  1  0
  1 36  1  0
  1 37  1  0
  2 38  1  0
  2 39  1  0
  4 40  1  0
  4 41  1  0
  4 42  1  0
  5 43  1  0
  5 44  1  0
  6 45  1  0
  6 46  1  0
  9 47  1  0
 10 48  1  0
 13 49  1  0
 14 50  1  0
 18 51  1  0
 19 52  1  0
 22 53  1  0
 22 54  1  0
 23 55  1  0
 23 56  1  0
 24 57  1  0
 24 58  1  0
 25 59  1  0
 26 60  1  0
 26 61  1  0
 27 62  1  0
 27 63  1  0
 28 64  1  0
 28 65  1  0
 29 66  1  0
 29 67  1  0
 30 68  1  0
 30 69  1  0
 31 70  1  0
 32 71  1  0
 33 72  1  0
 34 73  1  0
M  CHG  1  25   1
M  END
>  <UniqueID>  (3) 
3

>  <SMILES>  (3) 
CCN(C)CCOc1ccc(-c2ccsc2-c2ccc(OCCC[NH+]3CCCCC3)cc2)cc1

>  <Energy>  (3) 
116.97492139699104

>  <Genealogy>  (3) 
CCN(C)CCOc1ccc(-c2ccsc2-c2ccc(OCCC[NH+]3CCCCC3)cc2)cc1 (protonated)
CCN(C)CCOc1ccc(-c2ccsc2-c2ccc(OCCC[NH+]3CCCCC3)cc2)cc1 (3D coordinates assigned)
CCN(C)CCOc1ccc(-c2ccsc2-c2ccc(OCCC[NH+]3CCCCC3)cc2)cc1 (nonaromatic ring conformer: 116.97492139699104 kcal/mol)

>  <smiles>  (3) 
CCN(C)CCOc1ccc(-c2ccsc2-c2ccc(OCCCN3CCCCC3)cc2)cc1

>  <score_type>  (3) 
oracle

>  <origin>  (3) 
adg

>  <m_score__min__energy>  (3) 
-7.25

>  <m_primary>  (3) 
energy

$$$$
3:0
     RDKit          3D

 41 42  0  0  0  0  0  0  0  0999 V2000
   58.9330   29.8100   49.3870 C   0  0  0  0  0  0  0  0  0  0  0  0
   58.8580   29.6610   47.8750 C   0  0  0  0  0  0  0  0  0  0  0  0
   58.9300   30.9480   47.2710 O   0  0  0  0  0  0  0  0  0  0  0  0
   58.5630   31.2360   45.9480 C   0  0  0  0  0  0  0  0  0  0  0  0
   58.0700   30.2370   45.0850 C   0  0  0  0  0  0  0  0  0  0  0  0
   57.7280   30.5450   43.7670 C   0  0  0  0  0  0  0  0  0  0  0  0
   57.8770   31.8490   43.2910 C   0  0  0  0  0  0  0  0  0  0  0  0
   57.4210   32.2650   41.4830 Br  0  0  0  0  0  0  0  0  0  0  0  0
   58.3640   32.8490   44.1360 C   0  0  0  0  0  0  0  0  0  0  0  0
   58.7010   32.5550   45.4660 C   0  0  0  0  0  0  0  0  0  0  0  0
   59.3350   33.8500   46.4910 S   0  0  0  0  0  0  0  0  0  0  0  0
   60.0690   34.8330   45.6200 O   0  0  0  0  0  0  0  0  0  0  0  0
   58.2100   34.5790   47.1740 O   0  0  0  0  0  0  0  0  0  0  0  0
   60.4360   33.1920   47.6800 N   0  0  1  0  0  0  0  0  0  0  0  0
   61.6220   32.5770   47.0210 C   0  0  0  0  0  0  0  0  0  0  0  0
   62.8580   33.4900   47.0410 C   0  0  0  0  0  0  0  0  0  0  0  0
   63.2670   33.8630   48.4880 C   0  0  2  0  0  0  0  0  0  0  0  0
   64.3600   32.9280   49.0200 C   0  0  0  0  0  0  0  0  0  0  0  0
   62.0530   33.8820   49.4470 C   0  0  0  0  0  0  0  0  0  0  0  0
   60.7700   34.2310   48.6870 C   0  0  0  0  0  0  0  0  0  0  0  0
   58.4876   28.9251   49.8652 H   0  0  0  0  0  0  0  0  0  0  0  0
   59.9851   29.9025   49.6946 H   0  0  0  0  0  0  0  0  0  0  0  0
   58.3806   30.7101   49.6946 H   0  0  0  0  0  0  0  0  0  0  0  0
   59.6980   29.0432   47.5246 H   0  0  0  0  0  0  0  0  0  0  0  0
   57.9094   29.1772   47.5991 H   0  0  0  0  0  0  0  0  0  0  0  0
   57.9538   29.2068   45.4526 H   0  0  0  0  0  0  0  0  0  0  0  0
   57.3404   29.7589   43.1023 H   0  0  0  0  0  0  0  0  0  0  0  0
   58.4842   33.8743   43.7561 H   0  0  0  0  0  0  0  0  0  0  0  0
   59.9140   32.4290   48.1710 H   0  0  0  0  0  0  0  0  0  0  0  0
   61.3663   32.3554   45.9743 H   0  0  0  0  0  0  0  0  0  0  0  0
   61.8758   31.6657   47.5823 H   0  0  0  0  0  0  0  0  0  0  0  0
   62.6302   34.4117   46.4854 H   0  0  0  0  0  0  0  0  0  0  0  0
   63.6943   32.9478   46.5756 H   0  0  0  0  0  0  0  0  0  0  0  0
   63.6760   34.8834   48.4481 H   0  0  0  0  0  0  0  0  0  0  0  0
   64.3479   32.9383   50.1199 H   0  0  0  0  0  0  0  0  0  0  0  0
   64.1742   31.9050   48.6609 H   0  0  0  0  0  0  0  0  0  0  0  0
   65.3419   33.2700   48.6609 H   0  0  0  0  0  0  0  0  0  0  0  0
   62.2241   34.6337   50.2316 H   0  0  0  0  0  0  0  0  0  0  0  0
   61.9393   32.8835   49.8943 H   0  0  0  0  0  0  0  0  0  0  0  0
   60.9086   35.1944   48.1745 H   0  0  0  0  0  0  0  0  0  0  0  0
   59.9440   34.2888   49.4112 H   0  0  0  0  0  0  0  0  0  0  0  0
  1  2  1  0
  2  3  1  0
  3  4  1  0
  4  5  2  0
  5  6  1  0
  6  7  2  0
  7  8  1  0
  7  9  1  0
  9 10  2  0
 10 11  1  0
 11 12  2  0
 11 13  2  0
 11 14  1  0
 14 15  1  0
 15 16  1  0
 16 17  1  0
 17 18  1  0
 17 19  1  0
 19 20  1  0
 10  4  1  0
 20 14  1  0
  1 21  1  0
  1 22  1  0
  1 23  1  0
  2 24  1  0
  2 25  1  0
  5 26  1  0
  6 27  1  0
  9 28  1  0
 14 29  1  1
 15 30  1  0
 15 31  1  0
 16 32  1  0
 16 33  1  0
 17 34  1  6
 18 35  1  0
 18 36  1  0
 18 37  1  0
 19 38  1  0
 19 39  1  0
 20 40  1  0
 20 41  1  0
M  CHG  1  14   1
M  END
>  <UniqueID>  (4) 
4

>  <SMILES>  (4) 
CCOc1ccc(Br)cc1S(=O)(=O)[NH+]1CCC(C)CC1

>  <Energy>  (4) 
40.31218060914597

>  <Genealogy>  (4) 
CCOc1ccc(Br)cc1S(=O)(=O)[NH+]1CCC(C)CC1 (protonated)
CCOc1ccc(Br)cc1S(=O)(=O)[NH+]1CCC(C)CC1 (3D coordinates assigned)
CCOc1ccc(Br)cc1S(=O)(=O)[NH+]1CCC(C)CC1 (nonaromatic ring conformer: 40.31218060914597 kcal/mol)

>  <smiles>  (4) 
CCOc1ccc(Br)cc1S(=O)(=O)N1CCC(C)CC1

>  <score_type>  (4) 
oracle

>  <origin>  (4) 
adg

>  <m_score__min__energy>  (4) 
-6.5099999999999998

>  <m_primary>  (4) 
energy

$$$$
4:0
     RDKit          3D

 46 48  0  0  0  0  0  0  0  0999 V2000
   58.8780   34.0190   52.0400 C   0  0  0  0  0  0  0  0  0  0  0  0
   57.7210   33.0510   52.3460 C   0  0  0  0  0  0  0  0  0  0  0  0
   57.4530   32.0380   51.2900 N   0  0  2  0  0  0  0  0  0  0  0  0
   57.1420   30.7120   51.8560 C   0  0  0  0  0  0  0  0  0  0  0  0
   58.5490   31.9440   50.2860 C   0  0  0  0  0  0  0  0  0  0  0  0
   58.5500   30.6010   49.5250 C   0  0  0  0  0  0  0  0  0  0  0  0
   59.3820   30.6670   48.3200 N   0  0  0  0  0  0  0  0  0  0  0  0
   58.8510   31.0340   47.0370 C   0  0  0  0  0  0  0  0  0  0  0  0
   59.0150   32.3430   46.5290 C   0  0  0  0  0  0  0  0  0  0  0  0
   59.6430   33.3430   47.2990 C   0  0  0  0  0  0  0  0  0  0  0  0
   59.8230   34.6250   46.7880 C   0  0  0  0  0  0  0  0  0  0  0  0
   59.3810   34.9380   45.5070 C   0  0  0  0  0  0  0  0  0  0  0  0
   58.7520   33.9710   44.7230 C   0  0  0  0  0  0  0  0  0  0  0  0
   58.5550   32.6540   45.2080 C   0  0  0  0  0  0  0  0  0  0  0  0
   57.9390   31.6830   44.4360 N   0  0  0  0  0  0  0  0  0  0  0  0
   57.4720   31.9800   43.0690 C   0  0  0  0  0  0  0  0  0  0  0  0
   57.7570   30.4380   44.9750 C   0  0  0  0  0  0  0  0  0  0  0  0
   56.9880   29.1050   44.2770 S   0  0  0  0  0  0  0  0  0  0  0  0
   57.1930   28.0900   45.6070 C   0  0  0  0  0  0  0  0  0  0  0  0
   56.7250   26.7050   45.7000 C   0  0  0  0  0  0  0  0  0  0  0  0
   55.5270   26.4530   45.9930 O   0  0  0  0  0  0  0  0  0  0  0  0
   57.8620   28.7790   46.6140 C   0  0  0  0  0  0  0  0  0  0  0  0
   58.1870   30.0950   46.2470 C   0  0  0  0  0  0  0  0  0  0  0  0
   59.3117   34.3819   52.9835 H   0  0  0  0  0  0  0  0  0  0  0  0
   59.6509   33.4946   51.4589 H   0  0  0  0  0  0  0  0  0  0  0  0
   58.4982   34.8723   51.4589 H   0  0  0  0  0  0  0  0  0  0  0  0
   57.9598   32.5175   53.2779 H   0  0  0  0  0  0  0  0  0  0  0  0
   56.8137   33.6689   52.4167 H   0  0  0  0  0  0  0  0  0  0  0  0
   56.5800   32.3490   50.8070 H   0  0  0  0  0  0  0  0  0  0  0  0
   57.1556   30.7698   52.9544 H   0  0  0  0  0  0  0  0  0  0  0  0
   56.1448   30.3937   51.5179 H   0  0  0  0  0  0  0  0  0  0  0  0
   57.8937   29.9835   51.5179 H   0  0  0  0  0  0  0  0  0  0  0  0
   58.4298   32.7602   49.5582 H   0  0  0  0  0  0  0  0  0  0  0  0
   59.5027   32.0174   50.8292 H   0  0  0  0  0  0  0  0  0  0  0  0
   58.9420   29.8151   50.1874 H   0  0  0  0  0  0  0  0  0  0  0  0
   57.5174   30.3766   49.2196 H   0  0  0  0  0  0  0  0  0  0  0  0
   60.3720   30.3390   48.3760 H   0  0  0  0  0  0  0  0  0  0  0  0
   59.9945   33.1076   48.3144 H   0  0  0  0  0  0  0  0  0  0  0  0
   60.3170   35.3940   47.4000 H   0  0  0  0  0  0  0  0  0  0  0  0
   59.5282   35.9533   45.1101 H   0  0  0  0  0  0  0  0  0  0  0  0
   58.4037   34.2345   43.7134 H   0  0  0  0  0  0  0  0  0  0  0  0
   56.5447   32.5697   43.1183 H   0  0  0  0  0  0  0  0  0  0  0  0
   58.2434   32.5538   42.5345 H   0  0  0  0  0  0  0  0  0  0  0  0
   57.2795   31.0380   42.5345 H   0  0  0  0  0  0  0  0  0  0  0  0
   57.4262   25.8785   45.5123 H   0  0  0  0  0  0  0  0  0  0  0  0
   58.1095   28.3402   47.5919 H   0  0  0  0  0  0  0  0  0  0  0  0
  1  2  1  0
  2  3  1  0
  3  4  1  0
  3  5  1  0
  5  6  1  0
  6  7  1  0
  7  8  1  0
  8  9  2  0
  9 10  1  0
 10 11  2  0
 11 12  1  0
 12 13  2  0
 13 14  1  0
 14 15  2  0
 15 16  1  0
 15 17  1  0
 17 18  1  0
 18 19  1  0
 19 20  1  0
 20 21  2  0
 19 22  2  0
 22 23  1  0
 23  8  1  0
 14  9  1  0
 23 17  2  0
  1 24  1  0
  1 25  1  0
  1 26  1  0
  2 27  1  0
  2 28  1  0
  3 29  1  6
  4 30  1  0
  4 31  1  0
  4 32  1  0
  5 33  1  0
  5 34  1  0
  6 35  1  0
  6 36  1  0
  7 37  1  0
 10 38  1  0
 11 39  1  0
 12 40  1  0
 13 41  1  0
 16 42  1  0
 16 43  1  0
 16 44  1  0
 20 45  1  0
 22 46  1  0
M  CHG  2   3   1  15   1
M  END
>  <UniqueID>  (5) 
5

>  <SMILES>  (5) 
CC[N@H+](C)CCNc1c2ccccc2[n+](C)c2sc(C=O)cc12

>  <Energy>  (5) 
94.91494734591498

>  <Genealogy>  (5) 
CC[NH+](C)CCNc1c2ccccc2[n+](C)c2sc(C=O)cc12 (protonated)
CC[N@H+](C)CCNc1c2ccccc2[n+](C)c2sc(C=O)cc12 (chirality)
CC[N@H+](C)CCNc1c2ccccc2[n+](C)c2sc(C=O)cc12 (3D coordinates assigned)
CC[N@H+](C)CCNc1c2ccccc2[n+](C)c2sc(C=O)cc12 (optimized conformer: 94.91494734591498 kcal/mol)

>  <smiles>  (5) 
CCN(C)CCNc1c2ccccc2[n+](C)c2sc(C=O)cc12

>  <score_type>  (5) 
oracle

>  <origin>  (5) 
adg

>  <m_score__min__energy>  (5) 
-4.6600000000000001

>  <m_primary>  (5) 
energy

$$$$
5:0
     RDKit          3D

 40 43  0  0  0  0  0  0  0  0999 V2000
   64.1500   31.9350   50.0920 C   0  0  0  0  0  0  0  0  0  0  0  0
   64.9630   32.8610   49.4110 O   0  0  0  0  0  0  0  0  0  0  0  0
   64.1410   33.7880   48.7340 C   0  0  0  0  0  0  0  0  0  0  0  0
   62.7020   33.6170   49.1060 C   0  0  0  0  0  0  0  0  0  0  0  0
   62.2530   33.1230   47.7890 N   0  0  0  0  0  0  0  0  0  0  0  0
   61.0300   32.6880   47.1820 C   0  0  0  0  0  0  0  0  0  0  0  0
   60.0630   33.6270   46.8080 C   0  0  0  0  0  0  0  0  0  0  0  0
   60.2670   34.9510   47.0220 F   0  0  0  0  0  0  0  0  0  0  0  0
   58.8890   33.2160   46.1850 C   0  0  0  0  0  0  0  0  0  0  0  0
   58.6400   31.8530   45.9450 C   0  0  0  0  0  0  0  0  0  0  0  0
   57.4750   31.4500   45.2670 C   0  0  0  0  0  0  0  0  0  0  0  0
   56.6340   32.3150   44.8950 O   0  0  0  0  0  0  0  0  0  0  0  0
   57.2560   30.0910   44.9940 C   0  0  0  0  0  0  0  0  0  0  0  0
   56.0640   29.6200   44.2370 C   0  0  0  0  0  0  0  0  0  0  0  0
   55.1460   28.9840   44.8230 O   0  0  0  0  0  0  0  0  0  0  0  0
   55.9340   29.8660   42.8750 O   0  0  0  0  0  0  0  0  0  0  0  0
   58.1920   29.1580   45.4600 C   0  0  0  0  0  0  0  0  0  0  0  0
   59.2850   29.5350   46.1930 N   0  0  0  0  0  0  0  0  0  0  0  0
   60.1460   28.4560   46.7180 C   0  0  0  0  0  0  0  0  0  0  0  0
   59.9680   27.0950   46.0420 C   0  0  0  0  0  0  0  0  0  0  0  0
   59.3840   27.3340   47.4180 C   0  0  0  0  0  0  0  0  0  0  0  0
   59.5800   30.8740   46.3710 C   0  0  0  0  0  0  0  0  0  0  0  0
   60.7990   31.3200   46.9530 C   0  0  0  0  0  0  0  0  0  0  0  0
   61.8000   30.4550   47.2490 F   0  0  0  0  0  0  0  0  0  0  0  0
   63.6690   33.2860   47.4050 C   0  0  0  0  0  0  0  0  0  0  0  0
   64.2692   32.0708   51.1771 H   0  0  0  0  0  0  0  0  0  0  0  0
   63.0979   32.0979   49.8155 H   0  0  0  0  0  0  0  0  0  0  0  0
   64.4477   30.9128   49.8155 H   0  0  0  0  0  0  0  0  0  0  0  0
   64.7218   34.7126   48.8674 H   0  0  0  0  0  0  0  0  0  0  0  0
   62.5564   32.8783   49.9080 H   0  0  0  0  0  0  0  0  0  0  0  0
   62.1832   34.4977   49.5124 H   0  0  0  0  0  0  0  0  0  0  0  0
   58.1464   33.9665   45.8763 H   0  0  0  0  0  0  0  0  0  0  0  0
   58.0443   28.0924   45.2303 H   0  0  0  0  0  0  0  0  0  0  0  0
   61.0059   29.0975   46.9610 H   0  0  0  0  0  0  0  0  0  0  0  0
   59.3021   26.9965   45.1720 H   0  0  0  0  0  0  0  0  0  0  0  0
   60.6491   26.3493   45.6061 H   0  0  0  0  0  0  0  0  0  0  0  0
   58.2940   27.4078   47.5463 H   0  0  0  0  0  0  0  0  0  0  0  0
   59.4665   26.8317   48.3932 H   0  0  0  0  0  0  0  0  0  0  0  0
   64.1427   32.3355   47.1182 H   0  0  0  0  0  0  0  0  0  0  0  0
   63.8797   33.9171   46.5290 H   0  0  0  0  0  0  0  0  0  0  0  0
  1  2  1  0
  2  3  1  0
  3  4  1  0
  4  5  1  0
  5  6  1  0
  6  7  2  0
  7  8  1  0
  7  9  1  0
  9 10  2  0
 10 11  1  0
 11 12  2  0
 11 13  1  0
 13 14  1  0
 14 15  2  0
 14 16  1  0
 13 17  2  0
 17 18  1  0
 18 19  1  0
 19 20  1  0
 20 21  1  0
 18 22  1  0
 22 23  2  0
 23 24  1  0
  5 25  1  0
 25  3  1  0
 23  6  1  0
 22 10  1  0
 21 19  1  0
  1 26  1  0
  1 27  1  0
  1 28  1  0
  3 29  1  0
  4 30  1  0
  4 31  1  0
  9 32  1  0
 17 33  1  0
 19 34  1  0
 20 35  1  0
 20 36  1  0
 21 37  1  0
 21 38  1  0
 25 39  1  0
 25 40  1  0
M  CHG  1  16  -1
M  END
>  <UniqueID>  (6) 
6

>  <SMILES>  (6) 
COC1CN(c2c(F)cc3c(=O)c(C(=O)[O-])cn(C4CC4)c3c2F)C1

>  <Energy>  (6) 
368.58027424275144

>  <Genealogy>  (6) 
COC1CN(c2c(F)cc3c(=O)c(C(=O)[O-])cn(C4CC4)c3c2F)C1 (protonated)
COC1CN(c2c(F)cc3c(=O)c(C(=O)[O-])cn(C4CC4)c3c2F)C1 (3D coordinates assigned)
COC1CN(c2c(F)cc3c(=O)c(C(=O)[O-])cn(C4CC4)c3c2F)C1 (nonaromatic ring conformer: 368.58027424275144 kcal/mol)

>  <smiles>  (6) 
COC1CN(c2c(F)cc3c(=O)c(C(=O)O)cn(C4CC4)c3c2F)C1

>  <score_type>  (6) 
oracle

>  <origin>  (6) 
adg

>  <m_score__min__energy>  (6) 
-9.3000000000000007

>  <m_primary>  (6) 
energy

$$$$
6:0
     RDKit          3D

 55 57  0  0  0  0  0  0  0  0999 V2000
   62.2860   30.8330   51.1090 C   0  0  0  0  0  0  0  0  0  0  0  0
   63.0200   30.7710   49.8890 O   0  0  0  0  0  0  0  0  0  0  0  0
   62.8980   31.6970   48.8410 C   0  0  0  0  0  0  0  0  0  0  0  0
   63.6910   32.8600   48.7750 C   0  0  0  0  0  0  0  0  0  0  0  0
   63.5150   33.7770   47.7370 C   0  0  0  0  0  0  0  0  0  0  0  0
   62.5490   33.5420   46.7580 C   0  0  0  0  0  0  0  0  0  0  0  0
   61.7620   32.3890   46.8060 C   0  0  0  0  0  0  0  0  0  0  0  0
   61.9350   31.4530   47.8460 C   0  0  0  0  0  0  0  0  0  0  0  0
   61.1900   30.2650   47.9240 O   0  0  0  0  0  0  0  0  0  0  0  0
   59.9740   30.0940   48.6540 C   0  0  0  0  0  0  0  0  0  0  0  0
   59.1160   29.0040   48.0080 C   0  0  0  0  0  0  0  0  0  0  0  0
   59.9420   28.0500   47.3610 O   0  0  0  0  0  0  0  0  0  0  0  0
   59.9140   28.2020   45.9520 C   0  0  2  0  0  0  0  0  0  0  0  0
   60.9970   28.9980   45.5450 O   0  0  0  0  0  0  0  0  0  0  0  0
   58.6290   28.8710   45.5620 C   0  0  0  0  0  0  0  0  0  0  0  0
   57.3600   28.3380   45.7250 C   0  0  0  0  0  0  0  0  0  0  0  0
   56.5170   29.1630   45.0110 C   0  0  0  0  0  0  0  0  0  0  0  0
   55.1480   28.9700   44.8700 O   0  0  0  0  0  0  0  0  0  0  0  0
   57.2020   30.1630   44.4250 N   0  0  0  0  0  0  0  0  0  0  0  0
   56.6780   31.1360   43.4660 C   0  0  0  0  0  0  0  0  0  0  0  0
   57.7090   32.2380   43.1820 C   0  0  0  0  0  0  0  0  0  0  0  0
   58.0900   32.9770   44.4380 C   0  0  0  0  0  0  0  0  0  0  0  0
   59.1850   33.8550   44.4420 C   0  0  0  0  0  0  0  0  0  0  0  0
   59.5870   34.4800   45.6270 C   0  0  0  0  0  0  0  0  0  0  0  0
   58.8920   34.2430   46.8220 C   0  0  0  0  0  0  0  0  0  0  0  0
   59.3420   34.8770   48.1060 C   0  0  0  0  0  0  0  0  0  0  0  0
   57.8030   33.3580   46.8220 C   0  0  0  0  0  0  0  0  0  0  0  0
   57.4040   32.7300   45.6380 C   0  0  0  0  0  0  0  0  0  0  0  0
   58.5000   29.9830   44.7450 C   0  0  0  0  0  0  0  0  0  0  0  0
   62.9818   30.7742   51.9589 H   0  0  0  0  0  0  0  0  0  0  0  0
   61.7304   31.7813   51.1549 H   0  0  0  0  0  0  0  0  0  0  0  0
   61.5792   29.9914   51.1549 H   0  0  0  0  0  0  0  0  0  0  0  0
   64.4532   33.0465   49.5459 H   0  0  0  0  0  0  0  0  0  0  0  0
   64.1368   34.6832   47.6911 H   0  0  0  0  0  0  0  0  0  0  0  0
   62.4065   34.2684   45.9443 H   0  0  0  0  0  0  0  0  0  0  0  0
   61.0040   32.2105   46.0291 H   0  0  0  0  0  0  0  0  0  0  0  0
   60.2095   29.8048   49.6888 H   0  0  0  0  0  0  0  0  0  0  0  0
   59.4152   31.0414   48.6456 H   0  0  0  0  0  0  0  0  0  0  0  0
   58.5208   28.5019   48.7849 H   0  0  0  0  0  0  0  0  0  0  0  0
   58.4498   29.4653   47.2641 H   0  0  0  0  0  0  0  0  0  0  0  0
   59.9854   27.2165   45.4685 H   0  0  0  0  0  0  0  0  0  0  0  0
   61.3110   29.4940   46.3460 H   0  0  0  0  0  0  0  0  0  0  0  0
   57.0833   27.4439   46.3030 H   0  0  0  0  0  0  0  0  0  0  0  0
   56.4351   30.6195   42.5257 H   0  0  0  0  0  0  0  0  0  0  0  0
   55.7773   31.6003   43.8941 H   0  0  0  0  0  0  0  0  0  0  0  0
   58.6109   31.7803   42.7495 H   0  0  0  0  0  0  0  0  0  0  0  0
   57.2597   32.9577   42.4819 H   0  0  0  0  0  0  0  0  0  0  0  0
   59.7304   34.0528   43.5074 H   0  0  0  0  0  0  0  0  0  0  0  0
   60.4516   35.1600   45.6217 H   0  0  0  0  0  0  0  0  0  0  0  0
   58.9384   34.3084   48.9568 H   0  0  0  0  0  0  0  0  0  0  0  0
   60.4411   34.8737   48.1511 H   0  0  0  0  0  0  0  0  0  0  0  0
   58.9763   35.9134   48.1511 H   0  0  0  0  0  0  0  0  0  0  0  0
   57.2607   33.1573   47.7577 H   0  0  0  0  0  0  0  0  0  0  0  0
   56.5483   32.0389   45.6468 H   0  0  0  0  0  0  0  0  0  0  0  0
   59.3300   30.6218   44.4086 H   0  0  0  0  0  0  0  0  0  0  0  0
  1  2  1  0
  2  3  1  0
  3  4  2  0
  4  5  1  0
  5  6  2  0
  6  7  1  0
  7  8  2  0
  8  9  1  0
  9 10  1  0
 10 11  1  0
 11 12  1  0
 12 13  1  0
 13 14  1  0
 13 15  1  0
 15 16  1  0
 16 17  2  0
 17 18  1  0
 17 19  1  0
 19 20  1  0
 20 21  1  0
 21 22  1  0
 22 23  2  0
 23 24  1  0
 24 25  2  0
 25 26  1  0
 25 27  1  0
 27 28  2  0
 19 29  1  0
  8  3  1  0
 29 15  2  0
 28 22  1  0
  1 30  1  0
  1 31  1  0
  1 32  1  0
  4 33  1  0
  5 34  1  0
  6 35  1  0
  7 36  1  0
 10 37  1  0
 10 38  1  0
 11 39  1  0
 11 40  1  0
 13 41  1  6
 14 42  1  0
 16 43  1  0
 20 44  1  0
 20 45  1  0
 21 46  1  0
 21 47  1  0
 23 48  1  0
 24 49  1  0
 26 50  1  0
 26 51  1  0
 26 52  1  0
 27 53  1  0
 28 54  1  0
 29 55  1  0
M  CHG  1  18  -1
M  END
>  <UniqueID>  (7) 
7

>  <SMILES>  (7) 
COc1ccccc1OCCO[C@H](O)c1cc([O-])n(CCc2ccc(C)cc2)c1

>  <Energy>  (7) 
81.35040198970222

>  <Genealogy>  (7) 
COc1ccccc1OCCOC(O)c1cc([O-])n(CCc2ccc(C)cc2)c1 (protonated)
COc1ccccc1OCCO[C@H](O)c1cc([O-])n(CCc2ccc(C)cc2)c1 (chirality)
COc1ccccc1OCCO[C@H](O)c1cc([O-])n(CCc2ccc(C)cc2)c1 (3D coordinates assigned)
COc1ccccc1OCCO[C@H](O)c1cc([O-])n(CCc2ccc(C)cc2)c1 (optimized conformer: 81.35040198970222 kcal/mol)

>  <smiles>  (7) 
COc1ccccc1OCCOC(O)c1cc(O)n(CCc2ccc(C)cc2)c1

>  <score_type>  (7) 
oracle

>  <origin>  (7) 
adg

>  <m_score__min__energy>  (7) 
-10.859999999999999

>  <m_primary>  (7) 
energy

$$$$
7:0
     RDKit          3D

 33 34  0  0  0  0  0  0  0  0999 V2000
   60.0570   28.7400   48.1700 C   0  0  0  0  0  0  0  0  0  0  0  0
   59.6630   29.9780   47.4680 N   0  0  2  0  0  0  0  0  0  0  0  0
   59.8230   29.8500   45.9980 C   0  0  0  0  0  0  0  0  0  0  0  0
   58.5430   30.0760   45.2190 C   0  0  0  0  0  0  0  0  0  0  0  0
   58.5130   30.9590   44.1290 C   0  0  0  0  0  0  0  0  0  0  0  0
   57.3260   31.1540   43.4190 C   0  0  0  0  0  0  0  0  0  0  0  0
   56.1760   30.4680   43.8100 C   0  0  0  0  0  0  0  0  0  0  0  0
   56.2140   29.6230   44.8740 N   0  0  0  0  0  0  0  0  0  0  0  0
   57.3580   29.4150   45.5800 C   0  0  0  0  0  0  0  0  0  0  0  0
   60.3820   31.1610   48.0020 C   0  0  0  0  0  0  0  0  0  0  0  0
   59.9090   32.4510   47.3610 C   0  0  0  0  0  0  0  0  0  0  0  0
   58.5310   32.6650   47.1830 C   0  0  0  0  0  0  0  0  0  0  0  0
   58.0670   33.8340   46.5750 C   0  0  0  0  0  0  0  0  0  0  0  0
   58.9730   34.8020   46.1370 C   0  0  0  0  0  0  0  0  0  0  0  0
   60.3450   34.6010   46.3050 C   0  0  0  0  0  0  0  0  0  0  0  0
   60.8210   33.4330   46.9110 C   0  0  0  0  0  0  0  0  0  0  0  0
   62.7210   33.2350   47.1090 Br  0  0  0  0  0  0  0  0  0  0  0  0
   60.0053   28.9024   49.2567 H   0  0  0  0  0  0  0  0  0  0  0  0
   59.3737   27.9253   47.8881 H   0  0  0  0  0  0  0  0  0  0  0  0
   61.0854   28.4701   47.8881 H   0  0  0  0  0  0  0  0  0  0  0  0
   58.6370   30.1110   47.6380 H   0  0  0  0  0  0  0  0  0  0  0  0
   60.5663   30.5893   45.6649 H   0  0  0  0  0  0  0  0  0  0  0  0
   60.1387   28.8150   45.8001 H   0  0  0  0  0  0  0  0  0  0  0  0
   59.4251   31.4982   43.8333 H   0  0  0  0  0  0  0  0  0  0  0  0
   57.2983   31.8413   42.5606 H   0  0  0  0  0  0  0  0  0  0  0  0
   55.2365   30.6112   43.2561 H   0  0  0  0  0  0  0  0  0  0  0  0
   57.3547   28.7260   46.4374 H   0  0  0  0  0  0  0  0  0  0  0  0
   60.2112   31.2203   49.0870 H   0  0  0  0  0  0  0  0  0  0  0  0
   61.4511   31.0403   47.7731 H   0  0  0  0  0  0  0  0  0  0  0  0
   57.8123   31.9058   47.5252 H   0  0  0  0  0  0  0  0  0  0  0  0
   56.9867   33.9921   46.4411 H   0  0  0  0  0  0  0  0  0  0  0  0
   58.6063   35.7227   45.6597 H   0  0  0  0  0  0  0  0  0  0  0  0
   61.0558   35.3657   45.9587 H   0  0  0  0  0  0  0  0  0  0  0  0
  1  2  1  0
  2  3  1  0
  3  4  1  0
  4  5  2  0
  5  6  1  0
  6  7  2  0
  7  8  1  0
  8  9  2  0
  2 10  1  0
 10 11  1  0
 11 12  2  0
 12 13  1  0
 13 14  2  0
 14 15  1  0
 15 16  2  0
 16 17  1  0
  9  4  1  0
 16 11  1  0
  1 18  1  0
  1 19  1  0
  1 20  1  0
  2 21  1  6
  3 22  1  0
  3 23  1  0
  5 24  1  0
  6 25  1  0
  7 26  1  0
  9 27  1  0
 10 28  1  0
 10 29  1  0
 12 30  1  0
 13 31  1  0
 14 32  1  0
 15 33  1  0
M  CHG  1   2   1
M  END
>  <UniqueID>  (8) 
8

>  <SMILES>  (8) 
C[N@H+](Cc1cccnc1)Cc1ccccc1Br

>  <Energy>  (8) 
38.56397649515004

>  <Genealogy>  (8) 
C[NH+](Cc1cccnc1)Cc1ccccc1Br (protonated)
C[N@H+](Cc1cccnc1)Cc1ccccc1Br (chirality)
C[N@H+](Cc1cccnc1)Cc1ccccc1Br (3D coordinates assigned)
C[N@H+](Cc1cccnc1)Cc1ccccc1Br (optimized conformer: 38.56397649515004 kcal/mol)

>  <smiles>  (8) 
CN(Cc1cccnc1)Cc1ccccc1Br

>  <score_type>  (8) 
oracle

>  <origin>  (8) 
adg

>  <m_score__min__energy>  (8) 
-4.9900000000000002

>  <m_primary>  (8) 
energy

$$$$
8:0
     RDKit          3D

 38 38  0  0  0  0  0  0  0  0999 V2000
   56.7740   23.7860   43.6360 C   0  0  0  0  0  0  0  0  0  0  0  0
   57.7140   24.5930   44.5430 C   0  0  0  0  0  0  0  0  0  0  0  0
   57.4440   26.0530   44.5460 N   0  0  0  0  0  0  0  0  0  0  0  0
   58.4190   26.8540   43.7690 C   0  0  0  0  0  0  0  0  0  0  0  0
   58.1430   26.7840   42.2680 C   0  0  0  0  0  0  0  0  0  0  0  0
   57.2460   26.5930   45.9120 C   0  0  0  0  0  0  0  0  0  0  0  0
   57.1760   28.1160   45.8610 C   0  0  0  0  0  0  0  0  0  0  0  0
   55.9690   28.5330   45.2320 O   0  0  0  0  0  0  0  0  0  0  0  0
   55.9490   29.4230   44.1530 C   0  0  0  0  0  0  0  0  0  0  0  0
   54.8570   29.9050   43.7420 O   0  0  0  0  0  0  0  0  0  0  0  0
   57.2320   29.8480   43.5080 C   0  0  0  0  0  0  0  0  0  0  0  0
   57.7670   31.1060   44.1490 C   0  0  0  0  0  0  0  0  0  0  0  0
   57.9370   31.1410   45.5440 C   0  0  0  0  0  0  0  0  0  0  0  0
   58.4030   32.2970   46.1740 C   0  0  0  0  0  0  0  0  0  0  0  0
   58.6990   33.4340   45.4210 C   0  0  0  0  0  0  0  0  0  0  0  0
   59.2750   34.8880   46.2160 Cl  0  0  0  0  0  0  0  0  0  0  0  0
   58.5220   33.4180   44.0350 C   0  0  0  0  0  0  0  0  0  0  0  0
   58.0510   32.2660   43.3930 C   0  0  0  0  0  0  0  0  0  0  0  0
   57.8060   32.3290   41.6510 Cl  0  0  0  0  0  0  0  0  0  0  0  0
   56.0847   23.1942   44.2562 H   0  0  0  0  0  0  0  0  0  0  0  0
   56.1969   24.4743   43.0010 H   0  0  0  0  0  0  0  0  0  0  0  0
   57.3670   23.1113   43.0010 H   0  0  0  0  0  0  0  0  0  0  0  0
   57.6069   24.2193   45.5720 H   0  0  0  0  0  0  0  0  0  0  0  0
   58.7314   24.4583   44.1472 H   0  0  0  0  0  0  0  0  0  0  0  0
   58.3571   27.9031   44.0938 H   0  0  0  0  0  0  0  0  0  0  0  0
   59.4225   26.4420   43.9516 H   0  0  0  0  0  0  0  0  0  0  0  0
   57.0891   26.5167   42.1010 H   0  0  0  0  0  0  0  0  0  0  0  0
   58.3498   27.7630   41.8111 H   0  0  0  0  0  0  0  0  0  0  0  0
   58.7914   26.0219   41.8111 H   0  0  0  0  0  0  0  0  0  0  0  0
   56.3075   26.1981   46.3282 H   0  0  0  0  0  0  0  0  0  0  0  0
   58.0905   26.2896   46.5482 H   0  0  0  0  0  0  0  0  0  0  0  0
   57.2085   28.5155   46.8854 H   0  0  0  0  0  0  0  0  0  0  0  0
   58.0312   28.4949   45.2822 H   0  0  0  0  0  0  0  0  0  0  0  0
   57.9743   29.0438   43.6187 H   0  0  0  0  0  0  0  0  0  0  0  0
   57.0400   30.0503   42.4439 H   0  0  0  0  0  0  0  0  0  0  0  0
   57.7009   30.2502   46.1446 H   0  0  0  0  0  0  0  0  0  0  0  0
   58.5370   32.3113   47.2657 H   0  0  0  0  0  0  0  0  0  0  0  0
   58.7542   34.3164   43.4442 H   0  0  0  0  0  0  0  0  0  0  0  0
  1  2  1  0
  2  3  1  0
  3  4  1  0
  4  5  1  0
  3  6  1  0
  6  7  1  0
  7  8  1  0
  8  9  1  0
  9 10  2  0
  9 11  1  0
 11 12  1  0
 12 13  2  0
 13 14  1  0
 14 15  2  0
 15 16  1  0
 15 17  1  0
 17 18  2  0
 18 19  1  0
 18 12  1  0
  1 20  1  0
  1 21  1  0
  1 22  1  0
  2 23  1  0
  2 24  1  0
  4 25  1  0
  4 26  1  0
  5 27  1  0
  5 28  1  0
  5 29  1  0
  6 30  1  0
  6 31  1  0
  7 32  1  0
  7 33  1  0
 11 34  1  0
 11 35  1  0
 13 36  1  0
 14 37  1  0
 17 38  1  0
M  END
>  <UniqueID>  (9) 
9

>  <SMILES>  (9) 
CCN(CC)CCOC(=O)Cc1ccc(Cl)cc1Cl

>  <Energy>  (9) 
30.74529966383788

>  <Genealogy>  (9) 
CCN(CC)CCOC(=O)Cc1ccc(Cl)cc1Cl (3D coordinates assigned)
CCN(CC)CCOC(=O)Cc1ccc(Cl)cc1Cl (optimized conformer: 30.74529966383788 kcal/mol)

>  <smiles>  (9) 
CCN(CC)CCOC(=O)Cc1ccc(Cl)cc1Cl

>  <score_type>  (9) 
oracle

>  <origin>  (9) 
adg

>  <m_score__min__energy>  (9) 
-6.8899999999999997

>  <m_primary>  (9) 
energy

$$$$
9:0
     RDKit          3D

 37 38  0  0  0  0  0  0  0  0999 V2000
   60.1740   34.3040   48.0400 C   0  0  0  0  0  0  0  0  0  0  0  0
   59.2670   34.9700   47.0100 C   0  0  0  0  0  0  0  0  0  0  0  0
   59.4370   34.3510   45.6950 N   0  0  0  0  0  0  0  0  0  0  0  0
   58.7370   33.1730   45.2440 C   0  0  0  0  0  0  0  0  0  0  0  0
   58.1930   33.0750   43.9500 C   0  0  0  0  0  0  0  0  0  0  0  0
   57.5200   31.9180   43.5500 C   0  0  0  0  0  0  0  0  0  0  0  0
   57.3760   30.8400   44.4340 C   0  0  0  0  0  0  0  0  0  0  0  0
   56.5060   29.3880   43.9350 S   0  0  0  0  0  0  0  0  0  0  0  0
   55.1640   29.3570   44.6120 O   0  0  0  0  0  0  0  0  0  0  0  0
   56.2770   29.4380   42.4500 O   0  0  0  0  0  0  0  0  0  0  0  0
   57.3930   27.9320   44.3340 N   0  0  0  0  0  0  0  0  0  0  0  0
   57.3820   27.7090   45.7960 C   0  0  0  0  0  0  0  0  0  0  0  0
   58.5480   26.7990   46.2170 C   0  0  0  0  0  0  0  0  0  0  0  0
   59.8340   27.3200   45.9010 O   0  0  0  0  0  0  0  0  0  0  0  0
   59.8250   28.2620   44.8380 C   0  0  0  0  0  0  0  0  0  0  0  0
   58.7640   27.9560   43.7650 C   0  0  0  0  0  0  0  0  0  0  0  0
   57.9310   30.9260   45.7170 C   0  0  0  0  0  0  0  0  0  0  0  0
   58.6040   32.0830   46.1190 C   0  0  0  0  0  0  0  0  0  0  0  0
   59.8276   34.5584   49.0526 H   0  0  0  0  0  0  0  0  0  0  0  0
   60.1426   33.2128   47.9051 H   0  0  0  0  0  0  0  0  0  0  0  0
   61.2058   34.6606   47.9051 H   0  0  0  0  0  0  0  0  0  0  0  0
   58.2194   34.8617   47.3275 H   0  0  0  0  0  0  0  0  0  0  0  0
   59.5354   36.0343   46.9376 H   0  0  0  0  0  0  0  0  0  0  0  0
   60.1130   34.8060   45.0410 H   0  0  0  0  0  0  0  0  0  0  0  0
   58.2984   33.9155   43.2483 H   0  0  0  0  0  0  0  0  0  0  0  0
   57.1006   31.8527   42.5352 H   0  0  0  0  0  0  0  0  0  0  0  0
   56.8750   27.1390   43.8850 H   0  0  0  0  0  0  0  0  0  0  0  0
   57.4763   28.6772   46.3095 H   0  0  0  0  0  0  0  0  0  0  0  0
   56.4356   27.2207   46.0717 H   0  0  0  0  0  0  0  0  0  0  0  0
   58.4938   26.6490   47.3054 H   0  0  0  0  0  0  0  0  0  0  0  0
   58.4382   25.8608   45.6533 H   0  0  0  0  0  0  0  0  0  0  0  0
   59.6219   29.2590   45.2561 H   0  0  0  0  0  0  0  0  0  0  0  0
   60.8088   28.2117   44.3485 H   0  0  0  0  0  0  0  0  0  0  0  0
   58.8123   28.7309   42.9858 H   0  0  0  0  0  0  0  0  0  0  0  0
   58.9777   26.9608   43.3479 H   0  0  0  0  0  0  0  0  0  0  0  0
   57.8367   30.0785   46.4119 H   0  0  0  0  0  0  0  0  0  0  0  0
   59.0334   32.1402   47.1301 H   0  0  0  0  0  0  0  0  0  0  0  0
  1  2  1  0
  2  3  1  0
  3  4  1  0
  4  5  2  0
  5  6  1  0
  6  7  2  0
  7  8  1  0
  8  9  2  0
  8 10  2  0
  8 11  1  0
 11 12  1  0
 12 13  1  0
 13 14  1  0
 14 15  1  0
 15 16  1  0
  7 17  1  0
 17 18  2  0
 18  4  1  0
 16 11  1  0
  1 19  1  0
  1 20  1  0
  1 21  1  0
  2 22  1  0
  2 23  1  0
  3 24  1  0
  5 25  1  0
  6 26  1  0
 11 27  1  0
 12 28  1  0
 12 29  1  0
 13 30  1  0
 13 31  1  0
 15 32  1  0
 15 33  1  0
 16 34  1  0
 16 35  1  0
 17 36  1  0
 18 37  1  0
M  CHG  1  11   1
M  END
>  <UniqueID>  (10) 
10

>  <SMILES>  (10) 
CCNc1ccc(S(=O)(=O)[NH+]2CCOCC2)cc1

>  <Energy>  (10) 
44.729083341611066

>  <Genealogy>  (10) 
CCNc1ccc(S(=O)(=O)[NH+]2CCOCC2)cc1 (protonated)
CCNc1ccc(S(=O)(=O)[NH+]2CCOCC2)cc1 (3D coordinates assigned)
CCNc1ccc(S(=O)(=O)[NH+]2CCOCC2)cc1 (nonaromatic ring conformer: 44.729083341611066 kcal/mol)

>  <smiles>  (10) 
CCNc1ccc(S(=O)(=O)N2CCOCC2)cc1

>  <score_type>  (10) 
oracle

>  <origin>  (10) 
adg

>  <m_score__min__energy>  (10) 
-5.5099999999999998

>  <m_primary>  (10) 
energy

$$$$
10:0
     RDKit          3D

 38 40  0  0  0  0  0  0  0  0999 V2000
   58.8620   32.1370   49.6580 C   0  0  0  0  0  0  0  0  0  0  0  0
   58.7590   32.8780   48.3690 C   0  0  0  0  0  0  0  0  0  0  0  0
   59.6120   33.8590   48.0030 N   0  0  0  0  0  0  0  0  0  0  0  0
   59.1000   34.2510   46.8190 C   0  0  0  0  0  0  0  0  0  0  0  0
   59.7000   35.3350   45.9810 C   0  0  0  0  0  0  0  0  0  0  0  0
   57.9890   33.5520   46.5070 N   0  0  0  0  0  0  0  0  0  0  0  0
   57.1700   33.6480   45.3000 C   0  0  0  0  0  0  0  0  0  0  0  0
   57.3410   32.4030   44.4260 C   0  0  0  0  0  0  0  0  0  0  0  0
   57.2540   31.1830   45.2460 N   0  0  0  0  0  0  0  0  0  0  0  0
   58.4850   30.3760   45.2080 C   0  0  0  0  0  0  0  0  0  0  0  0
   58.2180   28.9180   45.4990 C   0  0  0  0  0  0  0  0  0  0  0  0
   59.3000   28.0140   45.6570 C   0  0  0  0  0  0  0  0  0  0  0  0
   59.0620   26.6530   45.9180 C   0  0  0  0  0  0  0  0  0  0  0  0
   57.7390   26.2320   46.0130 C   0  0  0  0  0  0  0  0  0  0  0  0
   56.6990   27.0890   45.8640 C   0  0  0  0  0  0  0  0  0  0  0  0
   56.8910   28.4440   45.6060 C   0  0  0  0  0  0  0  0  0  0  0  0
   55.5100   26.4020   46.0090 O   0  0  0  0  0  0  0  0  0  0  0  0
   55.8230   25.0260   46.2650 C   0  0  0  0  0  0  0  0  0  0  0  0
   57.2550   24.9610   46.2590 O   0  0  0  0  0  0  0  0  0  0  0  0
   57.7660   32.6870   47.4780 N   0  0  0  0  0  0  0  0  0  0  0  0
   58.7638   32.8431   50.4957 H   0  0  0  0  0  0  0  0  0  0  0  0
   58.0595   31.3868   49.7148 H   0  0  0  0  0  0  0  0  0  0  0  0
   59.8387   31.6341   49.7148 H   0  0  0  0  0  0  0  0  0  0  0  0
   60.1285   36.1091   46.6346 H   0  0  0  0  0  0  0  0  0  0  0  0
   60.4922   34.9116   45.3460 H   0  0  0  0  0  0  0  0  0  0  0  0
   58.9206   35.7815   45.3460 H   0  0  0  0  0  0  0  0  0  0  0  0
   56.1128   33.7437   45.5883 H   0  0  0  0  0  0  0  0  0  0  0  0
   57.4916   34.5290   44.7251 H   0  0  0  0  0  0  0  0  0  0  0  0
   56.5485   32.3841   43.6634 H   0  0  0  0  0  0  0  0  0  0  0  0
   58.3292   32.4388   43.9442 H   0  0  0  0  0  0  0  0  0  0  0  0
   57.0380   31.4420   46.2370 H   0  0  0  0  0  0  0  0  0  0  0  0
   58.9344   30.4615   44.2076 H   0  0  0  0  0  0  0  0  0  0  0  0
   59.1642   30.7575   45.9846 H   0  0  0  0  0  0  0  0  0  0  0  0
   60.3337   28.3809   45.5746 H   0  0  0  0  0  0  0  0  0  0  0  0
   59.8941   25.9445   46.0430 H   0  0  0  0  0  0  0  0  0  0  0  0
   56.0352   29.1251   45.4890 H   0  0  0  0  0  0  0  0  0  0  0  0
   55.4265   24.7153   47.2429 H   0  0  0  0  0  0  0  0  0  0  0  0
   55.3770   24.3557   45.5155 H   0  0  0  0  0  0  0  0  0  0  0  0
  1  2  1  0
  2  3  1  0
  3  4  2  0
  4  5  1  0
  4  6  1  0
  6  7  1  0
  7  8  1  0
  8  9  1  0
  9 10  1  0
 10 11  1  0
 11 12  2  0
 12 13  1  0
 13 14  2  0
 14 15  1  0
 15 16  2  0
 15 17  1  0
 17 18  1  0
 18 19  1  0
  6 20  1  0
 20  2  2  0
 16 11  1  0
 19 14  1  0
  1 21  1  0
  1 22  1  0
  1 23  1  0
  5 24  1  0
  5 25  1  0
  5 26  1  0
  7 27  1  0
  7 28  1  0
  8 29  1  0
  8 30  1  0
  9 31  1  0
 10 32  1  0
 10 33  1  0
 12 34  1  0
 13 35  1  0
 16 36  1  0
 18 37  1  0
 18 38  1  0
M  END
>  <UniqueID>  (11) 
11

>  <SMILES>  (11) 
Cc1nc(C)n(CCNCc2ccc3c(c2)OCO3)n1

>  <Energy>  (11) 
94.99050025992646

>  <Genealogy>  (11) 
Cc1nc(C)n(CCNCc2ccc3c(c2)OCO3)n1 (3D coordinates assigned)
Cc1nc(C)n(CCNCc2ccc3c(c2)OCO3)n1 (nonaromatic ring conformer: 94.99050025992646 kcal/mol)

>  <smiles>  (11) 
Cc1nc(C)n(CCNCc2ccc3c(c2)OCO3)n1

>  <score_type>  (11) 
oracle

>  <origin>  (11) 
adg

>  <m_score__min__energy>  (11) 
-6.4699999999999998

>  <m_primary>  (11) 
energy

$$$$
11:0
     RDKit          3D

 39 41  0  0  0  0  0  0  0  0999 V2000
   58.9490   34.2700   46.8330 C   0  0  0  0  0  0  0  0  0  0  0  0
   58.9850   33.7180   45.4840 N   0  0  0  0  0  0  0  0  0  0  0  0
   58.4520   32.4260   45.1370 C   0  0  0  0  0  0  0  0  0  0  0  0
   57.6620   32.2380   43.9730 C   0  0  0  0  0  0  0  0  0  0  0  0
   57.1490   30.9720   43.6530 C   0  0  0  0  0  0  0  0  0  0  0  0
   57.4410   29.9130   44.5060 C   0  0  0  0  0  0  0  0  0  0  0  0
   57.0560   28.5980   44.4290 C   0  0  0  0  0  0  0  0  0  0  0  0
   57.6250   27.9870   45.5370 C   0  0  0  0  0  0  0  0  0  0  0  0
   57.4540   26.5530   45.8480 C   0  0  0  0  0  0  0  0  0  0  0  0
   58.5820   25.7310   45.9740 C   0  0  0  0  0  0  0  0  0  0  0  0
   58.4300   24.3780   46.2770 C   0  0  0  0  0  0  0  0  0  0  0  0
   57.1480   23.8580   46.4630 C   0  0  0  0  0  0  0  0  0  0  0  0
   56.0630   24.6700   46.3600 N   0  0  0  0  0  0  0  0  0  0  0  0
   56.1810   25.9930   46.0660 C   0  0  0  0  0  0  0  0  0  0  0  0
   55.1450   26.7060   46.0030 O   0  0  0  0  0  0  0  0  0  0  0  0
   58.3280   28.8820   46.2910 N   0  0  0  0  0  0  0  0  0  0  0  0
   58.9760   28.6000   47.5900 C   0  0  0  0  0  0  0  0  0  0  0  0
   60.4170   28.1090   47.4100 C   0  0  0  0  0  0  0  0  0  0  0  0
   58.8810   29.8010   48.5380 C   0  0  0  0  0  0  0  0  0  0  0  0
   58.2060   30.0670   45.6360 C   0  0  0  0  0  0  0  0  0  0  0  0
   58.7240   31.3240   45.9780 C   0  0  0  0  0  0  0  0  0  0  0  0
   59.0024   33.4513   47.5657 H   0  0  0  0  0  0  0  0  0  0  0  0
   59.8050   34.9460   46.9755 H   0  0  0  0  0  0  0  0  0  0  0  0
   58.0125   34.8291   46.9755 H   0  0  0  0  0  0  0  0  0  0  0  0
   59.4240   34.3010   44.7350 H   0  0  0  0  0  0  0  0  0  0  0  0
   57.4498   33.0936   43.3150 H   0  0  0  0  0  0  0  0  0  0  0  0
   56.5338   30.8214   42.7537 H   0  0  0  0  0  0  0  0  0  0  0  0
   56.4306   28.1291   43.6550 H   0  0  0  0  0  0  0  0  0  0  0  0
   59.5881   26.1531   45.8338 H   0  0  0  0  0  0  0  0  0  0  0  0
   59.3119   23.7270   46.3685 H   0  0  0  0  0  0  0  0  0  0  0  0
   57.0158   22.7905   46.6931 H   0  0  0  0  0  0  0  0  0  0  0  0
   58.4223   27.7769   48.0652 H   0  0  0  0  0  0  0  0  0  0  0  0
   60.8769   27.9523   48.3969 H   0  0  0  0  0  0  0  0  0  0  0  0
   60.4144   27.1610   46.8520 H   0  0  0  0  0  0  0  0  0  0  0  0
   60.9937   28.8613   46.8520 H   0  0  0  0  0  0  0  0  0  0  0  0
   58.9089   29.4489   49.5798 H   0  0  0  0  0  0  0  0  0  0  0  0
   59.7283   30.4787   48.3572 H   0  0  0  0  0  0  0  0  0  0  0  0
   57.9376   30.3371   48.3572 H   0  0  0  0  0  0  0  0  0  0  0  0
   59.3320   31.4501   46.8860 H   0  0  0  0  0  0  0  0  0  0  0  0
  1  2  1  0
  2  3  1  0
  3  4  2  0
  4  5  1  0
  5  6  2  0
  6  7  1  0
  7  8  2  0
  8  9  1  0
  9 10  2  0
 10 11  1  0
 11 12  2  0
 12 13  1  0
 13 14  1  0
 14 15  2  0
  8 16  1  0
 16 17  1  0
 17 18  1  0
 17 19  1  0
 16 20  1  0
 20 21  2  0
 21  3  1  0
 20  6  1  0
 14  9  1  0
  1 22  1  0
  1 23  1  0
  1 24  1  0
  2 25  1  0
  4 26  1  0
  5 27  1  0
  7 28  1  0
 10 29  1  0
 11 30  1  0
 12 31  1  0
 17 32  1  0
 18 33  1  0
 18 34  1  0
 18 35  1  0
 19 36  1  0
 19 37  1  0
 19 38  1  0
 21 39  1  0
M  CHG  1  13  -1
M  END
>  <UniqueID>  (12) 
12

>  <SMILES>  (12) 
CNc1ccc2cc(-c3ccc[n-]c3=O)n(C(C)C)c2c1

>  <Energy>  (12) 
79.94033271725431

>  <Genealogy>  (12) 
CNc1ccc2cc(-c3ccc[n-]c3=O)n(C(C)C)c2c1 (protonated)
CNc1ccc2cc(-c3ccc[n-]c3=O)n(C(C)C)c2c1 (3D coordinates assigned)
CNc1ccc2cc(-c3ccc[n-]c3=O)n(C(C)C)c2c1 (optimized conformer: 79.94033271725431 kcal/mol)

>  <smiles>  (12) 
CNc1ccc2cc(-c3ccc[nH]c3=O)n(C(C)C)c2c1

>  <score_type>  (12) 
oracle

>  <origin>  (12) 
adg

>  <m_score__min__energy>  (12) 
-8.8300000000000001

>  <m_primary>  (12) 
energy

$$$$
12:0
     RDKit          3D

 49 52  0  0  0  0  0  0  0  0999 V2000
   60.5640   26.2140   46.9000 F   0  0  0  0  0  0  0  0  0  0  0  0
   59.8620   27.2450   46.3690 C   0  0  0  0  0  0  0  0  0  0  0  0
   60.4000   27.9850   45.3100 C   0  0  0  0  0  0  0  0  0  0  0  0
   59.6770   29.0480   44.7610 C   0  0  0  0  0  0  0  0  0  0  0  0
   58.4110   29.3820   45.2700 C   0  0  0  0  0  0  0  0  0  0  0  0
   57.6250   30.5110   44.6560 C   0  0  0  0  0  0  0  0  0  0  0  0
   58.3520   31.7920   44.7840 N   0  0  0  0  0  0  0  0  0  0  0  0
   59.1660   31.8340   46.0260 C   0  0  0  0  0  0  0  0  0  0  0  0
   58.4550   32.5870   47.1630 C   0  0  0  0  0  0  0  0  0  0  0  0
   58.1370   33.9980   46.8020 N   0  0  0  0  0  0  0  0  0  0  0  0
   59.1370   34.9510   47.3520 C   0  0  0  0  0  0  0  0  0  0  0  0
   60.0900   34.2830   48.3310 C   0  0  0  0  0  0  0  0  0  0  0  0
   59.6430   34.0540   49.6450 C   0  0  0  0  0  0  0  0  0  0  0  0
   60.4760   33.4620   50.5930 C   0  0  0  0  0  0  0  0  0  0  0  0
   61.7700   33.0820   50.2520 C   0  0  0  0  0  0  0  0  0  0  0  0
   62.2470   33.2860   48.9510 C   0  0  0  0  0  0  0  0  0  0  0  0
   63.5520   32.8920   48.6160 C   0  0  0  0  0  0  0  0  0  0  0  0
   64.0350   33.0840   47.3220 C   0  0  0  0  0  0  0  0  0  0  0  0
   63.2220   33.6650   46.3500 C   0  0  0  0  0  0  0  0  0  0  0  0
   61.9200   34.0630   46.6660 C   0  0  0  0  0  0  0  0  0  0  0  0
   61.4080   33.8880   47.9710 C   0  0  0  0  0  0  0  0  0  0  0  0
   58.0050   34.2000   45.3360 C   0  0  0  0  0  0  0  0  0  0  0  0
   57.4350   32.9530   44.6480 C   0  0  0  0  0  0  0  0  0  0  0  0
   57.8740   28.6300   46.3290 C   0  0  0  0  0  0  0  0  0  0  0  0
   58.6000   27.5670   46.8760 C   0  0  0  0  0  0  0  0  0  0  0  0
   61.3923   27.7301   44.9094 H   0  0  0  0  0  0  0  0  0  0  0  0
   60.1014   29.6256   43.9266 H   0  0  0  0  0  0  0  0  0  0  0  0
   57.4592   30.2962   43.5900 H   0  0  0  0  0  0  0  0  0  0  0  0
   56.6644   30.5982   45.1848 H   0  0  0  0  0  0  0  0  0  0  0  0
   59.3646   30.8030   46.3541 H   0  0  0  0  0  0  0  0  0  0  0  0
   60.0997   32.3695   45.7992 H   0  0  0  0  0  0  0  0  0  0  0  0
   57.5170   32.0636   47.4002 H   0  0  0  0  0  0  0  0  0  0  0  0
   59.1359   32.6083   48.0267 H   0  0  0  0  0  0  0  0  0  0  0  0
   57.2020   34.2180   47.2200 H   0  0  0  0  0  0  0  0  0  0  0  0
   59.7211   35.3709   46.5198 H   0  0  0  0  0  0  0  0  0  0  0  0
   58.5913   35.7367   47.8950 H   0  0  0  0  0  0  0  0  0  0  0  0
   58.6212   34.3464   49.9285 H   0  0  0  0  0  0  0  0  0  0  0  0
   60.1082   33.2945   51.6161 H   0  0  0  0  0  0  0  0  0  0  0  0
   62.4217   32.6191   51.0077 H   0  0  0  0  0  0  0  0  0  0  0  0
   64.1967   32.4296   49.3779 H   0  0  0  0  0  0  0  0  0  0  0  0
   65.0600   32.7763   47.0676 H   0  0  0  0  0  0  0  0  0  0  0  0
   63.6069   33.8109   45.3299 H   0  0  0  0  0  0  0  0  0  0  0  0
   61.2868   34.5176   45.8898 H   0  0  0  0  0  0  0  0  0  0  0  0
   57.3317   35.0500   45.1511 H   0  0  0  0  0  0  0  0  0  0  0  0
   59.0051   34.3968   44.9223 H   0  0  0  0  0  0  0  0  0  0  0  0
   56.4680   32.7011   45.1078 H   0  0  0  0  0  0  0  0  0  0  0  0
   57.3124   33.1738   43.5774 H   0  0  0  0  0  0  0  0  0  0  0  0
   56.8798   28.8782   46.7288 H   0  0  0  0  0  0  0  0  0  0  0  0
   58.1769   26.9833   47.7068 H   0  0  0  0  0  0  0  0  0  0  0  0
  1  2  1  0
  2  3  2  0
  3  4  1  0
  4  5  2  0
  5  6  1  0
  6  7  1  0
  7  8  1  0
  8  9  1  0
  9 10  1  0
 10 11  1  0
 11 12  1  0
 12 13  2  0
 13 14  1  0
 14 15  2  0
 15 16  1  0
 16 17  2  0
 17 18  1  0
 18 19  2  0
 19 20  1  0
 20 21  2  0
 10 22  1  0
 22 23  1  0
  5 24  1  0
 24 25  2  0
 25  2  1  0
 23  7  1  0
 21 12  1  0
 21 16  1  0
  3 26  1  0
  4 27  1  0
  6 28  1  0
  6 29  1  0
  8 30  1  0
  8 31  1  0
  9 32  1  0
  9 33  1  0
 10 34  1  0
 11 35  1  0
 11 36  1  0
 13 37  1  0
 14 38  1  0
 15 39  1  0
 17 40  1  0
 18 41  1  0
 19 42  1  0
 20 43  1  0
 22 44  1  0
 22 45  1  0
 23 46  1  0
 23 47  1  0
 24 48  1  0
 25 49  1  0
M  CHG  1  10   1
M  END
>  <UniqueID>  (13) 
13

>  <SMILES>  (13) 
Fc1ccc(CN2CC[NH+](Cc3cccc4ccccc34)CC2)cc1

>  <Energy>  (13) 
72.49937278555677

>  <Genealogy>  (13) 
Fc1ccc(CN2CC[NH+](Cc3cccc4ccccc34)CC2)cc1 (protonated)
Fc1ccc(CN2CC[NH+](Cc3cccc4ccccc34)CC2)cc1 (3D coordinates assigned)
Fc1ccc(CN2CC[NH+](Cc3cccc4ccccc34)CC2)cc1 (nonaromatic ring conformer: 72.49937278555677 kcal/mol)

>  <smiles>  (13) 
Fc1ccc(CN2CCN(Cc3cccc4ccccc34)CC2)cc1

>  <score_type>  (13) 
oracle

>  <origin>  (13) 
adg

>  <m_score__min__energy>  (13) 
-6.8700000000000001

>  <m_primary>  (13) 
energy

$$$$
13:0
     RDKit          3D

 49 51  0  0  0  0  0  0  0  0999 V2000
   56.7150   23.5660   44.1260 C   0  0  0  0  0  0  0  0  0  0  0  0
   57.1910   24.6020   43.7330 C   0  0  0  0  0  0  0  0  0  0  0  0
   57.7730   25.8690   43.2520 C   0  0  0  0  0  0  0  0  0  0  0  0
   57.8030   26.9330   44.2830 N   0  0  1  0  0  0  0  0  0  0  0  0
   58.6250   26.5590   45.4530 C   0  0  0  0  0  0  0  0  0  0  0  0
   58.5440   27.6500   46.5460 C   0  0  0  0  0  0  0  0  0  0  0  0
   57.9600   28.8560   46.0810 O   0  0  0  0  0  0  0  0  0  0  0  0
   58.5550   29.2510   44.8600 C   0  0  2  0  0  0  0  0  0  0  0  0
   58.1070   30.6470   44.4920 C   0  0  0  0  0  0  0  0  0  0  0  0
   57.8060   30.8770   43.2880 O   0  0  0  0  0  0  0  0  0  0  0  0
   57.9810   31.7050   45.4700 N   0  0  0  0  0  0  0  0  0  0  0  0
   56.9980   32.7780   45.2730 C   0  0  0  0  0  0  0  0  0  0  0  0
   57.6410   34.1590   45.5000 C   0  0  0  0  0  0  0  0  0  0  0  0
   58.6640   34.1870   46.5820 N   0  0  0  0  0  0  0  0  0  0  0  0
   60.0320   34.4000   46.0590 C   0  0  0  0  0  0  0  0  0  0  0  0
   61.0490   33.9690   47.0760 C   0  0  0  0  0  0  0  0  0  0  0  0
   61.9840   32.9690   46.7700 C   0  0  0  0  0  0  0  0  0  0  0  0
   62.9080   32.5750   47.7390 C   0  0  0  0  0  0  0  0  0  0  0  0
   62.8900   33.1760   49.0000 C   0  0  0  0  0  0  0  0  0  0  0  0
   61.9420   34.1660   49.2720 C   0  0  0  0  0  0  0  0  0  0  0  0
   61.0500   34.5370   48.3150 N   0  0  0  0  0  0  0  0  0  0  0  0
   58.5950   33.0160   47.4800 C   0  0  0  0  0  0  0  0  0  0  0  0
   58.7790   31.7040   46.7030 C   0  0  0  0  0  0  0  0  0  0  0  0
   58.2320   28.2390   43.7290 C   0  0  0  0  0  0  0  0  0  0  0  0
   56.2808   22.6210   44.4845 H   0  0  0  0  0  0  0  0  0  0  0  0
   58.8040   25.6754   42.9210 H   0  0  0  0  0  0  0  0  0  0  0  0
   57.1334   26.2293   42.4328 H   0  0  0  0  0  0  0  0  0  0  0  0
   56.8150   27.0400   44.6180 H   0  0  0  0  0  0  0  0  0  0  0  0
   58.2570   25.6074   45.8641 H   0  0  0  0  0  0  0  0  0  0  0  0
   59.6721   26.4553   45.1323 H   0  0  0  0  0  0  0  0  0  0  0  0
   57.9389   27.2662   47.3806 H   0  0  0  0  0  0  0  0  0  0  0  0
   59.5732   27.8810   46.8582 H   0  0  0  0  0  0  0  0  0  0  0  0
   59.6474   29.2604   44.9889 H   0  0  0  0  0  0  0  0  0  0  0  0
   56.6089   32.7261   44.2454 H   0  0  0  0  0  0  0  0  0  0  0  0
   56.1823   32.6458   45.9991 H   0  0  0  0  0  0  0  0  0  0  0  0
   58.1224   34.4735   44.5622 H   0  0  0  0  0  0  0  0  0  0  0  0
   56.8324   34.8360   45.8127 H   0  0  0  0  0  0  0  0  0  0  0  0
   60.1653   33.8109   45.1396 H   0  0  0  0  0  0  0  0  0  0  0  0
   60.1712   35.4696   45.8432 H   0  0  0  0  0  0  0  0  0  0  0  0
   61.9889   32.4996   45.7752 H   0  0  0  0  0  0  0  0  0  0  0  0
   63.6480   31.7938   47.5105 H   0  0  0  0  0  0  0  0  0  0  0  0
   63.6143   32.8732   49.7705 H   0  0  0  0  0  0  0  0  0  0  0  0
   61.9173   34.6458   50.2615 H   0  0  0  0  0  0  0  0  0  0  0  0
   59.3887   33.0981   48.2372 H   0  0  0  0  0  0  0  0  0  0  0  0
   57.6030   33.0014   47.9552 H   0  0  0  0  0  0  0  0  0  0  0  0
   59.8414   31.5858   46.4436 H   0  0  0  0  0  0  0  0  0  0  0  0
   58.4417   30.8712   47.3375 H   0  0  0  0  0  0  0  0  0  0  0  0
   57.4238   28.6461   43.1036 H   0  0  0  0  0  0  0  0  0  0  0  0
   59.1429   28.0815   43.1327 H   0  0  0  0  0  0  0  0  0  0  0  0
  1  2  3  0
  2  3  1  0
  3  4  1  0
  4  5  1  0
  5  6  1  0
  6  7  1  0
  7  8  1  0
  8  9  1  0
  9 10  2  0
  9 11  1  0
 11 12  1  0
 12 13  1  0
 13 14  1  0
 14 15  1  0
 15 16  1  0
 16 17  2  0
 17 18  1  0
 18 19  2  0
 19 20  1  0
 20 21  2  0
 14 22  1  0
 22 23  1  0
  8 24  1  0
 24  4  1  0
 23 11  1  0
 21 16  1  0
  1 25  1  0
  3 26  1  0
  3 27  1  0
  4 28  1  1
  5 29  1  0
  5 30  1  0
  6 31  1  0
  6 32  1  0
  8 33  1  1
 12 34  1  0
 12 35  1  0
 13 36  1  0
 13 37  1  0
 15 38  1  0
 15 39  1  0
 17 40  1  0
 18 41  1  0
 19 42  1  0
 20 43  1  0
 22 44  1  0
 22 45  1  0
 23 46  1  0
 23 47  1  0
 24 48  1  0
 24 49  1  0
M  CHG  1   4   1
M  END
>  <UniqueID>  (14) 
14

>  <SMILES>  (14) 
C#CC[N@H+]1CCO[C@H](C(=O)N2CCN(Cc3ccccn3)CC2)C1

>  <Energy>  (14) 
69.62472995524134

>  <Genealogy>  (14) 
C#CC[NH+]1CCOC(C(=O)N2CCN(Cc3ccccn3)CC2)C1 (protonated)
C#CC[N@H+]1CCO[C@H](C(=O)N2CCN(Cc3ccccn3)CC2)C1 (chirality)
C#CC[N@H+]1CCO[C@H](C(=O)N2CCN(Cc3ccccn3)CC2)C1 (3D coordinates assigned)
C#CC[N@H+]1CCO[C@H](C(=O)N2CCN(Cc3ccccn3)CC2)C1 (nonaromatic ring conformer: 69.62472995524134 kcal/mol)

>  <smiles>  (14) 
C#CCN1CCOC(C(=O)N2CCN(Cc3ccccn3)CC2)C1

>  <score_type>  (14) 
oracle

>  <origin>  (14) 
adg

>  <m_score__min__energy>  (14) 
-6.0499999999999998

>  <m_primary>  (14) 
energy

$$$$
14:0
     RDKit          3D

 52 54  0  0  0  0  0  0  0  0999 V2000
   56.7140   24.6380   46.3550 C   0  0  0  0  0  0  0  0  0  0  0  0
   55.5040   25.3180   45.7360 C   0  0  0  0  0  0  0  0  0  0  0  0
   55.5840   26.7040   45.9930 O   0  0  0  0  0  0  0  0  0  0  0  0
   56.9340   27.0810   46.1570 C   0  0  0  0  0  0  0  0  0  0  0  0
   57.4300   27.8020   44.8970 C   0  0  0  0  0  0  0  0  0  0  0  0
   58.0020   29.1310   45.2160 N   0  0  0  0  0  0  0  0  0  0  0  0
   59.2940   29.2740   45.7070 C   0  0  0  0  0  0  0  0  0  0  0  0
   60.3680   27.8540   46.0270 S   0  0  0  0  0  0  0  0  0  0  0  0
   59.8330   27.6050   47.7570 C   0  0  0  0  0  0  0  0  0  0  0  0
   59.6290   28.9250   48.4470 C   0  0  0  0  0  0  0  0  0  0  0  0
   58.4980   29.2070   48.9290 O   0  0  0  0  0  0  0  0  0  0  0  0
   60.6790   29.8960   48.5250 N   0  0  0  0  0  0  0  0  0  0  0  0
   60.5360   31.2430   48.9980 C   0  0  0  0  0  0  0  0  0  0  0  0
   59.6020   31.5600   50.0010 C   0  0  0  0  0  0  0  0  0  0  0  0
   59.4210   32.8850   50.4030 C   0  0  0  0  0  0  0  0  0  0  0  0
   60.1690   33.9010   49.8080 C   0  0  0  0  0  0  0  0  0  0  0  0
   61.0970   33.5980   48.8060 C   0  0  0  0  0  0  0  0  0  0  0  0
   61.2790   32.2660   48.3820 C   0  0  0  0  0  0  0  0  0  0  0  0
   62.1970   31.9150   47.3730 O   0  0  0  0  0  0  0  0  0  0  0  0
   63.4770   32.5100   47.1620 C   0  0  0  0  0  0  0  0  0  0  0  0
   63.3450   33.8290   46.4100 C   0  0  0  0  0  0  0  0  0  0  0  0
   59.7840   30.5140   46.0160 N   0  0  0  0  0  0  0  0  0  0  0  0
   59.0270   31.6160   45.8080 C   0  0  0  0  0  0  0  0  0  0  0  0
   59.4220   32.9320   46.0620 C   0  0  0  0  0  0  0  0  0  0  0  0
   58.4200   33.8530   45.7630 C   0  0  0  0  0  0  0  0  0  0  0  0
   57.0580   33.0250   45.1960 S   0  0  0  0  0  0  0  0  0  0  0  0
   57.7510   31.5000   45.3260 C   0  0  0  0  0  0  0  0  0  0  0  0
   57.2180   30.2530   45.0420 C   0  0  0  0  0  0  0  0  0  0  0  0
   56.0250   30.1620   44.6400 O   0  0  0  0  0  0  0  0  0  0  0  0
   56.6377   24.6809   47.4515 H   0  0  0  0  0  0  0  0  0  0  0  0
   56.7500   23.5875   46.0308 H   0  0  0  0  0  0  0  0  0  0  0  0
   57.6301   25.1534   46.0308 H   0  0  0  0  0  0  0  0  0  0  0  0
   55.4958   25.1426   44.6501 H   0  0  0  0  0  0  0  0  0  0  0  0
   54.5802   24.9085   46.1707 H   0  0  0  0  0  0  0  0  0  0  0  0
   57.0223   27.7550   47.0218 H   0  0  0  0  0  0  0  0  0  0  0  0
   57.5442   26.1811   46.3240 H   0  0  0  0  0  0  0  0  0  0  0  0
   58.2044   27.1867   44.4156 H   0  0  0  0  0  0  0  0  0  0  0  0
   56.5711   27.9502   44.2260 H   0  0  0  0  0  0  0  0  0  0  0  0
   58.8870   27.0438   47.7649 H   0  0  0  0  0  0  0  0  0  0  0  0
   60.6146   27.0446   48.2910 H   0  0  0  0  0  0  0  0  0  0  0  0
   59.0112   30.7600   50.4711 H   0  0  0  0  0  0  0  0  0  0  0  0
   58.6894   33.1273   51.1879 H   0  0  0  0  0  0  0  0  0  0  0  0
   60.0287   34.9441   50.1278 H   0  0  0  0  0  0  0  0  0  0  0  0
   61.6881   34.4038   48.3463 H   0  0  0  0  0  0  0  0  0  0  0  0
   63.9526   32.6966   48.1361 H   0  0  0  0  0  0  0  0  0  0  0  0
   64.0901   31.8222   46.5612 H   0  0  0  0  0  0  0  0  0  0  0  0
   63.2623   34.6555   47.1311 H   0  0  0  0  0  0  0  0  0  0  0  0
   64.2324   33.9812   45.7781 H   0  0  0  0  0  0  0  0  0  0  0  0
   62.4450   33.8023   45.7781 H   0  0  0  0  0  0  0  0  0  0  0  0
   60.7440   30.6160   46.4120 H   0  0  0  0  0  0  0  0  0  0  0  0
   60.4118   33.2095   46.4536 H   0  0  0  0  0  0  0  0  0  0  0  0
   58.5015   34.9440   45.8773 H   0  0  0  0  0  0  0  0  0  0  0  0
  1  2  1  0
  2  3  1  0
  3  4  1  0
  4  5  1  0
  5  6  1  0
  6  7  1  0
  7  8  1  0
  8  9  1  0
  9 10  1  0
 10 11  2  0
 10 12  1  0
 12 13  1  0
 13 14  2  0
 14 15  1  0
 15 16  2  0
 16 17  1  0
 17 18  2  0
 18 19  1  0
 19 20  1  0
 20 21  1  0
  7 22  2  0
 22 23  1  0
 23 24  1  0
 24 25  2  0
 25 26  1  0
 26 27  1  0
 27 28  1  0
 28 29  2  0
 28  6  1  0
 18 13  1  0
 27 23  2  0
  1 30  1  0
  1 31  1  0
  1 32  1  0
  2 33  1  0
  2 34  1  0
  4 35  1  0
  4 36  1  0
  5 37  1  0
  5 38  1  0
  9 39  1  0
  9 40  1  0
 14 41  1  0
 15 42  1  0
 16 43  1  0
 17 44  1  0
 20 45  1  0
 20 46  1  0
 21 47  1  0
 21 48  1  0
 21 49  1  0
 22 50  1  0
 24 51  1  0
 25 52  1  0
M  CHG  2  12  -1  22   1
M  END
>  <UniqueID>  (15) 
15

>  <SMILES>  (15) 
CCOCCn1c(SCC(=O)[N-]c2ccccc2OCC)[nH+]c2ccsc2c1=O

>  <Energy>  (15) 
84.11097978873075

>  <Genealogy>  (15) 
CCOCCn1c(SCC(=O)[N-]c2ccccc2OCC)[nH+]c2ccsc2c1=O (protonated)
CCOCCn1c(SCC(=O)[N-]c2ccccc2OCC)[nH+]c2ccsc2c1=O (3D coordinates assigned)
CCOCCn1c(SCC(=O)[N-]c2ccccc2OCC)[nH+]c2ccsc2c1=O (optimized conformer: 84.11097978873075 kcal/mol)

>  <smiles>  (15) 
CCOCCn1c(SCC(=O)Nc2ccccc2OCC)nc2ccsc2c1=O

>  <score_type>  (15) 
oracle

>  <origin>  (15) 
adg

>  <m_score__min__energy>  (15) 
-8.0299999999999994

>  <m_primary>  (15) 
energy

$$$$
15:0
     RDKit          3D

 39 41  0  0  0  0  0  0  0  0999 V2000
   57.6400   33.5800   44.5110 C   0  0  0  0  0  0  0  0  0  0  0  0
   57.5710   34.2180   45.8910 C   0  0  0  0  0  0  0  0  0  0  0  0
   59.2070   34.4760   46.5590 S   0  0  0  0  0  0  0  0  0  0  0  0
   59.9990   35.3610   45.6390 O   0  0  0  0  0  0  0  0  0  0  0  0
   59.1120   35.1400   47.9050 O   0  0  0  0  0  0  0  0  0  0  0  0
   60.0100   32.9190   46.7280 C   0  0  0  0  0  0  0  0  0  0  0  0
   61.3770   32.8510   47.0160 C   0  0  0  0  0  0  0  0  0  0  0  0
   61.9920   31.6440   47.1340 N   0  0  0  0  0  0  0  0  0  0  0  0
   61.3100   30.4770   46.9710 C   0  0  0  0  0  0  0  0  0  0  0  0
   59.9370   30.4900   46.6710 C   0  0  0  0  0  0  0  0  0  0  0  0
   59.1870   29.2230   46.4840 C   0  0  0  0  0  0  0  0  0  0  0  0
   57.7730   29.2260   46.3770 C   0  0  0  0  0  0  0  0  0  0  0  0
   57.0860   28.0590   46.2060 N   0  0  0  0  0  0  0  0  0  0  0  0
   57.7620   26.8840   46.1390 C   0  0  0  0  0  0  0  0  0  0  0  0
   59.1190   26.8260   46.2360 C   0  0  0  0  0  0  0  0  0  0  0  0
   59.8660   27.9870   46.4090 C   0  0  0  0  0  0  0  0  0  0  0  0
   59.5860   25.4160   46.1350 C   0  0  0  0  0  0  0  0  0  0  0  0
   58.2700   24.6140   45.9550 C   0  0  0  0  0  0  0  0  0  0  0  0
   57.1880   25.6020   45.9700 N   0  0  0  0  0  0  0  0  0  0  0  0
   55.7930   25.2990   45.8350 C   0  0  0  0  0  0  0  0  0  0  0  0
   54.8210   26.3290   45.9950 N   0  0  0  0  0  0  0  0  0  0  0  0
   55.4180   24.1260   45.5740 O   0  0  0  0  0  0  0  0  0  0  0  0
   59.2940   31.7320   46.5480 C   0  0  0  0  0  0  0  0  0  0  0  0
   57.7577   32.4914   44.6158 H   0  0  0  0  0  0  0  0  0  0  0  0
   56.7131   33.7972   43.9599 H   0  0  0  0  0  0  0  0  0  0  0  0
   58.4990   33.9903   43.9599 H   0  0  0  0  0  0  0  0  0  0  0  0
   57.0569   35.1874   45.8139 H   0  0  0  0  0  0  0  0  0  0  0  0
   57.0207   33.5424   46.5624 H   0  0  0  0  0  0  0  0  0  0  0  0
   61.9564   33.7768   47.1474 H   0  0  0  0  0  0  0  0  0  0  0  0
   63.0130   31.6100   47.3480 H   0  0  0  0  0  0  0  0  0  0  0  0
   61.8373   29.5172   47.0748 H   0  0  0  0  0  0  0  0  0  0  0  0
   57.2245   30.1779   46.4323 H   0  0  0  0  0  0  0  0  0  0  0  0
   60.9624   27.9431   46.4857 H   0  0  0  0  0  0  0  0  0  0  0  0
   60.2502   25.2824   45.2684 H   0  0  0  0  0  0  0  0  0  0  0  0
   60.1698   25.0930   47.0096 H   0  0  0  0  0  0  0  0  0  0  0  0
   58.2802   24.0733   44.9971 H   0  0  0  0  0  0  0  0  0  0  0  0
   58.1427   23.8658   46.7513 H   0  0  0  0  0  0  0  0  0  0  0  0
   55.0830   27.2530   46.4030 H   0  0  0  0  0  0  0  0  0  0  0  0
   58.2211   31.7712   46.3087 H   0  0  0  0  0  0  0  0  0  0  0  0
  1  2  1  0
  2  3  1  0
  3  4  2  0
  3  5  2  0
  3  6  1  0
  6  7  2  0
  7  8  1  0
  8  9  2  0
  9 10  1  0
 10 11  1  0
 11 12  2  0
 12 13  1  0
 13 14  2  0
 14 15  1  0
 15 16  2  0
 15 17  1  0
 17 18  1  0
 18 19  1  0
 19 20  1  0
 20 21  1  0
 20 22  2  0
 10 23  2  0
 23  6  1  0
 16 11  1  0
 19 14  1  0
  1 24  1  0
  1 25  1  0
  1 26  1  0
  2 27  1  0
  2 28  1  0
  7 29  1  0
  8 30  1  0
  9 31  1  0
 12 32  1  0
 16 33  1  0
 17 34  1  0
 17 35  1  0
 18 36  1  0
 18 37  1  0
 21 38  1  0
 23 39  1  0
M  CHG  2   8   1  21  -1
M  END
>  <UniqueID>  (16) 
16

>  <SMILES>  (16) 
CCS(=O)(=O)c1c[nH+]cc(-c2cnc3c(c2)CCN3C([NH-])=O)c1

>  <Energy>  (16) 
55.6000012777269

>  <Genealogy>  (16) 
CCS(=O)(=O)c1c[nH+]cc(-c2cnc3c(c2)CCN3C([NH-])=O)c1 (protonated)
CCS(=O)(=O)c1c[nH+]cc(-c2cnc3c(c2)CCN3C([NH-])=O)c1 (3D coordinates assigned)
CCS(=O)(=O)c1c[nH+]cc(-c2cnc3c(c2)CCN3C([NH-])=O)c1 (nonaromatic ring conformer: 55.6000012777269 kcal/mol)

>  <smiles>  (16) 
CCS(=O)(=O)c1cncc(-c2cnc3c(c2)CCN3C(N)=O)c1

>  <score_type>  (16) 
oracle

>  <origin>  (16) 
adg

>  <m_score__min__energy>  (16) 
-8.3399999999999999

>  <m_primary>  (16) 
energy

$$$$
16:0
     RDKit          3D

 49 52  0  0  0  0  0  0  0  0999 V2000
   58.8870   23.1030   45.2500 C   0  0  0  0  0  0  0  0  0  0  0  0
   59.2120   24.1380   46.1730 O   0  0  0  0  0  0  0  0  0  0  0  0
   59.2540   25.5020   45.8530 C   0  0  0  0  0  0  0  0  0  0  0  0
   60.2860   26.2780   46.3920 C   0  0  0  0  0  0  0  0  0  0  0  0
   60.3730   27.6430   46.1110 C   0  0  0  0  0  0  0  0  0  0  0  0
   59.4190   28.2520   45.2830 C   0  0  0  0  0  0  0  0  0  0  0  0
   59.4690   29.6230   45.0160 C   0  0  0  0  0  0  0  0  0  0  0  0
   58.4790   30.2330   44.2320 C   0  0  0  0  0  0  0  0  0  0  0  0
   58.5170   31.7380   44.0170 C   0  0  0  0  0  0  0  0  0  0  0  0
   58.0780   32.5260   45.1920 N   0  0  0  0  0  0  0  0  0  0  0  0
   58.0160   31.8090   46.4820 C   0  0  0  0  0  0  0  0  0  0  0  0
   59.3530   31.8510   47.2380 C   0  0  0  0  0  0  0  0  0  0  0  0
   60.0120   33.1580   47.1110 N   0  0  0  0  0  0  0  0  0  0  0  0
   61.2900   33.3740   47.7480 C   0  0  0  0  0  0  0  0  0  0  0  0
   62.4840   32.9850   47.1110 C   0  0  0  0  0  0  0  0  0  0  0  0
   63.7210   33.2160   47.7170 C   0  0  0  0  0  0  0  0  0  0  0  0
   63.7840   33.8250   48.9730 C   0  0  0  0  0  0  0  0  0  0  0  0
   62.6070   34.2010   49.6240 C   0  0  0  0  0  0  0  0  0  0  0  0
   61.3670   33.9790   49.0180 C   0  0  0  0  0  0  0  0  0  0  0  0
   59.2460   34.2910   46.5780 C   0  0  0  0  0  0  0  0  0  0  0  0
   58.5640   33.9240   45.2500 C   0  0  0  0  0  0  0  0  0  0  0  0
   57.4730   29.4170   43.6650 C   0  0  0  0  0  0  0  0  0  0  0  0
   56.2160   30.0740   42.6180 Cl  0  0  0  0  0  0  0  0  0  0  0  0
   57.4470   28.0790   43.9300 N   0  0  0  0  0  0  0  0  0  0  0  0
   58.3780   27.4830   44.7290 C   0  0  0  0  0  0  0  0  0  0  0  0
   58.3000   26.1110   45.0140 C   0  0  0  0  0  0  0  0  0  0  0  0
   58.6020   22.1954   45.8023 H   0  0  0  0  0  0  0  0  0  0  0  0
   58.0471   23.4262   44.6175 H   0  0  0  0  0  0  0  0  0  0  0  0
   59.7609   22.8881   44.6175 H   0  0  0  0  0  0  0  0  0  0  0  0
   61.0368   25.8077   47.0441 H   0  0  0  0  0  0  0  0  0  0  0  0
   61.1906   28.2412   46.5395 H   0  0  0  0  0  0  0  0  0  0  0  0
   60.2916   30.2286   45.4241 H   0  0  0  0  0  0  0  0  0  0  0  0
   59.5502   32.0266   43.7735 H   0  0  0  0  0  0  0  0  0  0  0  0
   57.8117   31.9610   43.2029 H   0  0  0  0  0  0  0  0  0  0  0  0
   57.2408   32.2745   47.1084 H   0  0  0  0  0  0  0  0  0  0  0  0
   57.7825   30.7552   46.2701 H   0  0  0  0  0  0  0  0  0  0  0  0
   59.1661   31.6487   48.3030 H   0  0  0  0  0  0  0  0  0  0  0  0
   60.0164   31.0902   46.8009 H   0  0  0  0  0  0  0  0  0  0  0  0
   62.4421   32.4947   46.1272 H   0  0  0  0  0  0  0  0  0  0  0  0
   64.6475   32.9179   47.2044 H   0  0  0  0  0  0  0  0  0  0  0  0
   64.7590   34.0080   49.4482 H   0  0  0  0  0  0  0  0  0  0  0  0
   62.6558   34.6731   50.6163 H   0  0  0  0  0  0  0  0  0  0  0  0
   60.4445   34.2789   49.5366 H   0  0  0  0  0  0  0  0  0  0  0  0
   58.4764   34.5797   47.3090 H   0  0  0  0  0  0  0  0  0  0  0  0
   59.9390   35.1254   46.3952 H   0  0  0  0  0  0  0  0  0  0  0  0
   57.7052   34.5957   45.1043 H   0  0  0  0  0  0  0  0  0  0  0  0
   59.3225   34.0317   44.4607 H   0  0  0  0  0  0  0  0  0  0  0  0
   56.6820   27.5030   43.5100 H   0  0  0  0  0  0  0  0  0  0  0  0
   57.4892   25.5076   44.5798 H   0  0  0  0  0  0  0  0  0  0  0  0
  1  2  1  0
  2  3  1  0
  3  4  2  0
  4  5  1  0
  5  6  2  0
  6  7  1  0
  7  8  2  0
  8  9  1  0
  9 10  1  0
 10 11  1  0
 11 12  1  0
 12 13  1  0
 13 14  1  0
 14 15  2  0
 15 16  1  0
 16 17  2  0
 17 18  1  0
 18 19  2  0
 13 20  1  0
 20 21  1  0
  8 22  1  0
 22 23  1  0
 22 24  2  0
 24 25  1  0
 25 26  2  0
 26  3  1  0
 25  6  1  0
 21 10  1  0
 19 14  1  0
  1 27  1  0
  1 28  1  0
  1 29  1  0
  4 30  1  0
  5 31  1  0
  7 32  1  0
  9 33  1  0
  9 34  1  0
 11 35  1  0
 11 36  1  0
 12 37  1  0
 12 38  1  0
 15 39  1  0
 16 40  1  0
 17 41  1  0
 18 42  1  0
 19 43  1  0
 20 44  1  0
 20 45  1  0
 21 46  1  0
 21 47  1  0
 24 48  1  0
 26 49  1  0
M  CHG  1  24   1
M  END
>  <UniqueID>  (17) 
17

>  <SMILES>  (17) 
COc1ccc2cc(CN3CCN(c4ccccc4)CC3)c(Cl)[nH+]c2c1

>  <Energy>  (17) 
70.16049862966074

>  <Genealogy>  (17) 
COc1ccc2cc(CN3CCN(c4ccccc4)CC3)c(Cl)[nH+]c2c1 (protonated)
COc1ccc2cc(CN3CCN(c4ccccc4)CC3)c(Cl)[nH+]c2c1 (3D coordinates assigned)
COc1ccc2cc(CN3CCN(c4ccccc4)CC3)c(Cl)[nH+]c2c1 (nonaromatic ring conformer: 70.16049862966074 kcal/mol)

>  <smiles>  (17) 
COc1ccc2cc(CN3CCN(c4ccccc4)CC3)c(Cl)nc2c1

>  <score_type>  (17) 
oracle

>  <origin>  (17) 
adg

>  <m_score__min__energy>  (17) 
-7.21

>  <m_primary>  (17) 
energy

$$$$
17:0
     RDKit          3D

 54 57  0  0  0  0  0  0  0  0999 V2000
   55.9770   30.5980   44.4040 O   0  0  0  0  0  0  0  0  0  0  0  0
   57.0040   31.1700   44.8650 C   0  0  0  0  0  0  0  0  0  0  0  0
   57.3870   32.4610   44.3840 N   0  0  0  0  0  0  0  0  0  0  0  0
   57.2620   33.6850   45.1680 C   0  0  0  0  0  0  0  0  0  0  0  0
   58.4320   34.6300   44.8790 C   0  0  0  0  0  0  0  0  0  0  0  0
   59.6430   34.2930   45.7660 C   0  0  0  0  0  0  0  0  0  0  0  0
   59.7540   32.8520   46.0540 N   0  0  0  0  0  0  0  0  0  0  0  0
   59.7590   32.5400   47.4910 C   0  0  0  0  0  0  0  0  0  0  0  0
   61.1500   32.6430   48.0620 C   0  0  0  0  0  0  0  0  0  0  0  0
   62.2030   31.9060   47.4940 C   0  0  0  0  0  0  0  0  0  0  0  0
   63.4970   32.0110   48.0140 C   0  0  0  0  0  0  0  0  0  0  0  0
   63.7520   32.8570   49.1000 C   0  0  0  0  0  0  0  0  0  0  0  0
   65.3760   32.9870   49.7500 Cl  0  0  0  0  0  0  0  0  0  0  0  0
   62.7100   33.6010   49.6650 C   0  0  0  0  0  0  0  0  0  0  0  0
   61.4140   33.4980   49.1490 C   0  0  0  0  0  0  0  0  0  0  0  0
   57.7810   30.5520   45.8490 O   0  0  0  0  0  0  0  0  0  0  0  0
   57.8180   29.1380   46.0530 C   0  0  1  0  0  0  0  0  0  0  0  0
   58.3820   28.4070   44.8040 C   0  0  1  0  0  0  0  0  0  0  0  0
   59.8380   28.8570   44.5410 C   0  0  0  0  0  0  0  0  0  0  0  0
   60.7150   28.5210   45.7680 C   0  0  1  0  0  0  0  0  0  0  0  0
   60.1650   29.2560   47.0100 C   0  0  0  0  0  0  0  0  0  0  0  0
   58.7090   28.8070   47.2770 C   0  0  2  0  0  0  0  0  0  0  0  0
   58.6840   27.2820   47.5270 C   0  0  0  0  0  0  0  0  0  0  0  0
   59.2320   26.5430   46.2840 C   0  0  2  0  0  0  0  0  0  0  0  0
   59.2060   25.1760   46.5080 F   0  0  0  0  0  0  0  0  0  0  0  0
   60.6850   26.9960   46.0180 C   0  0  0  0  0  0  0  0  0  0  0  0
   58.3570   26.8810   45.0550 C   0  0  0  0  0  0  0  0  0  0  0  0
   56.3186   34.1869   44.9073 H   0  0  0  0  0  0  0  0  0  0  0  0
   57.2709   33.4249   46.2368 H   0  0  0  0  0  0  0  0  0  0  0  0
   58.7214   34.5320   43.8223 H   0  0  0  0  0  0  0  0  0  0  0  0
   58.1133   35.6601   45.0965 H   0  0  0  0  0  0  0  0  0  0  0  0
   60.5582   34.6204   45.2511 H   0  0  0  0  0  0  0  0  0  0  0  0
   59.5072   34.8139   46.7253 H   0  0  0  0  0  0  0  0  0  0  0  0
   58.9540   32.3470   45.6040 H   0  0  0  0  0  0  0  0  0  0  0  0
   59.1017   33.2493   48.0152 H   0  0  0  0  0  0  0  0  0  0  0  0
   59.4003   31.5090   47.6267 H   0  0  0  0  0  0  0  0  0  0  0  0
   62.0088   31.2440   46.6372 H   0  0  0  0  0  0  0  0  0  0  0  0
   64.3163   31.4276   47.5687 H   0  0  0  0  0  0  0  0  0  0  0  0
   62.9105   34.2680   50.5164 H   0  0  0  0  0  0  0  0  0  0  0  0
   60.5984   34.0869   49.5939 H   0  0  0  0  0  0  0  0  0  0  0  0
   56.7885   28.7935   46.2303 H   0  0  0  0  0  0  0  0  0  0  0  0
   57.7638   28.6544   43.9284 H   0  0  0  0  0  0  0  0  0  0  0  0
   59.8590   29.9422   44.3624 H   0  0  0  0  0  0  0  0  0  0  0  0
   60.2288   28.3304   43.6579 H   0  0  0  0  0  0  0  0  0  0  0  0
   61.7498   28.8428   45.5795 H   0  0  0  0  0  0  0  0  0  0  0  0
   60.1865   30.3413   46.8323 H   0  0  0  0  0  0  0  0  0  0  0  0
   60.7879   29.0131   47.8835 H   0  0  0  0  0  0  0  0  0  0  0  0
   58.3232   29.3390   48.1591 H   0  0  0  0  0  0  0  0  0  0  0  0
   57.6499   26.9594   47.7183 H   0  0  0  0  0  0  0  0  0  0  0  0
   59.3113   27.0446   48.3989 H   0  0  0  0  0  0  0  0  0  0  0  0
   61.3091   26.7558   46.8914 H   0  0  0  0  0  0  0  0  0  0  0  0
   61.0745   26.4728   45.1322 H   0  0  0  0  0  0  0  0  0  0  0  0
   57.3224   26.5577   45.2422 H   0  0  0  0  0  0  0  0  0  0  0  0
   58.7517   26.3589   44.1709 H   0  0  0  0  0  0  0  0  0  0  0  0
  1  2  2  0
  2  3  1  0
  3  4  1  0
  4  5  1  0
  5  6  1  0
  6  7  1  0
  7  8  1  0
  8  9  1  0
  9 10  2  0
 10 11  1  0
 11 12  2  0
 12 13  1  0
 12 14  1  0
 14 15  2  0
  2 16  1  0
 16 17  1  0
 17 18  1  0
 18 19  1  0
 19 20  1  0
 20 21  1  0
 21 22  1  0
 22 23  1  0
 23 24  1  0
 24 25  1  1
 24 26  1  0
 24 27  1  0
 15  9  1  0
 22 17  1  0
 27 18  1  0
 26 20  1  0
  4 28  1  0
  4 29  1  0
  5 30  1  0
  5 31  1  0
  6 32  1  0
  6 33  1  0
  7 34  1  0
  8 35  1  0
  8 36  1  0
 10 37  1  0
 11 38  1  0
 14 39  1  0
 15 40  1  0
 17 41  1  1
 18 42  1  6
 19 43  1  0
 19 44  1  0
 20 45  1  6
 21 46  1  0
 21 47  1  0
 22 48  1  1
 23 49  1  0
 23 50  1  0
 26 51  1  0
 26 52  1  0
 27 53  1  0
 27 54  1  0
M  CHG  1   3  -1
M  END
>  <UniqueID>  (18) 
18

>  <SMILES>  (18) 
O=C([N-]CCCNCc1ccc(Cl)cc1)OC1[C@@H]2CC3C[C@H]1CC(F)(C3)C2

>  <Energy>  (18) 
47.09606038448932

>  <Genealogy>  (18) 
O=C([N-]CCCNCc1ccc(Cl)cc1)OC1C2CC3CC1CC(F)(C3)C2 (protonated)
O=C([N-]CCCNCc1ccc(Cl)cc1)OC1[C@@H]2CC3C[C@H]1CC(F)(C3)C2 (chirality)
O=C([N-]CCCNCc1ccc(Cl)cc1)OC1[C@@H]2CC3C[C@H]1CC(F)(C3)C2 (3D coordinates assigned)
O=C([N-]CCCNCc1ccc(Cl)cc1)OC1[C@@H]2CC3C[C@H]1CC(F)(C3)C2 (nonaromatic ring conformer: 47.09606038448932 kcal/mol)

>  <smiles>  (18) 
O=C(NCCCNCc1ccc(Cl)cc1)OC1C2CC3CC1CC(F)(C3)C2

>  <score_type>  (18) 
oracle

>  <origin>  (18) 
adg

>  <m_score__min__energy>  (18) 
-10.35

>  <m_primary>  (18) 
energy

$$$$
18:0
     RDKit          3D

 53 55  0  0  0  0  0  0  0  0999 V2000
   64.7940   32.2740   50.2240 C   0  0  0  0  0  0  0  0  0  0  0  0
   63.5880   31.7080   49.4630 C   0  0  0  0  0  0  0  0  0  0  0  0
   63.6130   32.0390   48.0110 N   0  0  0  0  0  0  0  0  0  0  0  0
   63.5920   33.5160   47.8190 C   0  0  0  0  0  0  0  0  0  0  0  0
   63.3960   33.9350   46.3530 C   0  0  0  0  0  0  0  0  0  0  0  0
   62.4650   31.4050   47.2890 C   0  0  0  0  0  0  0  0  0  0  0  0
   61.5400   30.6070   48.2300 C   0  0  0  0  0  0  0  0  0  0  0  0
   60.1550   31.0780   48.1450 N   0  0  0  0  0  0  0  0  0  0  0  0
   59.4950   31.3420   46.8890 C   0  0  0  0  0  0  0  0  0  0  0  0
   59.4540   32.6580   46.3780 C   0  0  0  0  0  0  0  0  0  0  0  0
   60.0420   33.7280   47.0890 C   0  0  0  0  0  0  0  0  0  0  0  0
   59.9670   35.0330   46.6080 C   0  0  0  0  0  0  0  0  0  0  0  0
   59.2940   35.2980   45.4230 C   0  0  0  0  0  0  0  0  0  0  0  0
   58.7170   34.2590   44.6940 C   0  0  0  0  0  0  0  0  0  0  0  0
   58.8180   32.9100   45.1320 C   0  0  0  0  0  0  0  0  0  0  0  0
   58.3040   31.8600   44.3860 N   0  0  0  0  0  0  0  0  0  0  0  0
   57.8870   32.0820   42.9830 C   0  0  0  0  0  0  0  0  0  0  0  0
   58.1950   30.5990   44.9490 C   0  0  0  0  0  0  0  0  0  0  0  0
   57.4530   29.5640   44.3190 C   0  0  0  0  0  0  0  0  0  0  0  0
   57.3600   28.2920   44.8820 C   0  0  0  0  0  0  0  0  0  0  0  0
   57.9770   28.0120   46.1000 C   0  0  0  0  0  0  0  0  0  0  0  0
   57.8320   26.6570   46.7320 C   0  0  0  0  0  0  0  0  0  0  0  0
   58.6620   29.0280   46.7710 C   0  0  0  0  0  0  0  0  0  0  0  0
   58.8020   30.3180   46.2050 C   0  0  0  0  0  0  0  0  0  0  0  0
   64.6165   32.1907   51.3064 H   0  0  0  0  0  0  0  0  0  0  0  0
   65.6966   31.7055   49.9556 H   0  0  0  0  0  0  0  0  0  0  0  0
   64.9335   33.3316   49.9556 H   0  0  0  0  0  0  0  0  0  0  0  0
   63.5850   30.6136   49.5737 H   0  0  0  0  0  0  0  0  0  0  0  0
   62.6832   32.1646   49.8907 H   0  0  0  0  0  0  0  0  0  0  0  0
   64.5160   31.6820   47.6140 H   0  0  0  0  0  0  0  0  0  0  0  0
   62.7674   33.9340   48.4150 H   0  0  0  0  0  0  0  0  0  0  0  0
   64.5713   33.9006   48.1400 H   0  0  0  0  0  0  0  0  0  0  0  0
   62.9302   34.9308   46.3154 H   0  0  0  0  0  0  0  0  0  0  0  0
   64.3723   33.9676   45.8473 H   0  0  0  0  0  0  0  0  0  0  0  0
   62.7452   33.2065   45.8473 H   0  0  0  0  0  0  0  0  0  0  0  0
   61.8750   32.1957   46.8024 H   0  0  0  0  0  0  0  0  0  0  0  0
   62.8819   30.6997   46.5551 H   0  0  0  0  0  0  0  0  0  0  0  0
   61.5744   29.5441   47.9487 H   0  0  0  0  0  0  0  0  0  0  0  0
   61.8911   30.7493   49.2627 H   0  0  0  0  0  0  0  0  0  0  0  0
   59.6440   31.2900   49.0340 H   0  0  0  0  0  0  0  0  0  0  0  0
   60.5661   33.5277   48.0352 H   0  0  0  0  0  0  0  0  0  0  0  0
   60.4409   35.8534   47.1669 H   0  0  0  0  0  0  0  0  0  0  0  0
   59.2156   36.3325   45.0575 H   0  0  0  0  0  0  0  0  0  0  0  0
   58.1746   34.4867   43.7645 H   0  0  0  0  0  0  0  0  0  0  0  0
   56.9161   32.5989   42.9665 H   0  0  0  0  0  0  0  0  0  0  0  0
   58.6396   32.6988   42.4700 H   0  0  0  0  0  0  0  0  0  0  0  0
   57.7954   31.1133   42.4700 H   0  0  0  0  0  0  0  0  0  0  0  0
   56.9414   29.7706   43.3674 H   0  0  0  0  0  0  0  0  0  0  0  0
   56.7959   27.5041   44.3615 H   0  0  0  0  0  0  0  0  0  0  0  0
   57.8430   26.7601   47.8271 H   0  0  0  0  0  0  0  0  0  0  0  0
   56.8803   26.2049   46.4158 H   0  0  0  0  0  0  0  0  0  0  0  0
   58.6664   26.0138   46.4158 H   0  0  0  0  0  0  0  0  0  0  0  0
   59.1011   28.8216   47.7582 H   0  0  0  0  0  0  0  0  0  0  0  0
  1  2  1  0
  2  3  1  0
  3  4  1  0
  4  5  1  0
  3  6  1  0
  6  7  1  0
  7  8  1  0
  8  9  1  0
  9 10  2  0
 10 11  1  0
 11 12  2  0
 12 13  1  0
 13 14  2  0
 14 15  1  0
 15 16  2  0
 16 17  1  0
 16 18  1  0
 18 19  2  0
 19 20  1  0
 20 21  2  0
 21 22  1  0
 21 23  1  0
 23 24  2  0
 24  9  1  0
 15 10  1  0
 24 18  1  0
  1 25  1  0
  1 26  1  0
  1 27  1  0
  2 28  1  0
  2 29  1  0
  3 30  1  0
  4 31  1  0
  4 32  1  0
  5 33  1  0
  5 34  1  0
  5 35  1  0
  6 36  1  0
  6 37  1  0
  7 38  1  0
  7 39  1  0
  8 40  1  0
 11 41  1  0
 12 42  1  0
 13 43  1  0
 14 44  1  0
 17 45  1  0
 17 46  1  0
 17 47  1  0
 19 48  1  0
 20 49  1  0
 22 50  1  0
 22 51  1  0
 22 52  1  0
 23 53  1  0
M  CHG  2   3   1  16   1
M  END
>  <UniqueID>  (19) 
19

>  <SMILES>  (19) 
CC[NH+](CC)CCNc1c2ccccc2[n+](C)c2ccc(C)cc12

>  <Energy>  (19) 
82.08338394044478

>  <Genealogy>  (19) 
CC[NH+](CC)CCNc1c2ccccc2[n+](C)c2ccc(C)cc12 (protonated)
CC[NH+](CC)CCNc1c2ccccc2[n+](C)c2ccc(C)cc12 (3D coordinates assigned)
CC[NH+](CC)CCNc1c2ccccc2[n+](C)c2ccc(C)cc12 (optimized conformer: 82.08338394044478 kcal/mol)

>  <smiles>  (19) 
CCN(CC)CCNc1c2ccccc2[n+](C)c2ccc(C)cc12

>  <score_type>  (19) 
oracle

>  <origin>  (19) 
adg

>  <m_score__min__energy>  (19) 
-4.8899999999999997

>  <m_primary>  (19) 
energy

$$$$
19:0
     RDKit          3D

 52 55  0  0  0  0  0  0  0  0999 V2000
   56.7040   29.8630   52.4510 C   0  0  0  0  0  0  0  0  0  0  0  0
   57.3460   30.4600   51.2670 N   0  0  0  0  0  0  0  0  0  0  0  0
   58.6690   29.8360   51.0770 C   0  0  0  0  0  0  0  0  0  0  0  0
   57.4610   31.9270   51.4400 C   0  0  0  0  0  0  0  0  0  0  0  0
   58.8550   32.4610   51.0620 C   0  0  0  0  0  0  0  0  0  0  0  0
   59.0050   32.7880   49.5690 C   0  0  0  0  0  0  0  0  0  0  0  0
   59.8270   33.9790   49.3630 N   0  0  0  0  0  0  0  0  0  0  0  0
   61.0130   33.9010   48.5670 C   0  0  0  0  0  0  0  0  0  0  0  0
   61.0440   34.0890   47.1760 C   0  0  0  0  0  0  0  0  0  0  0  0
   59.9150   34.4910   46.3140 C   0  0  0  0  0  0  0  0  0  0  0  0
   59.6550   35.7180   46.1780 O   0  0  0  0  0  0  0  0  0  0  0  0
   59.1020   33.4970   45.5760 C   0  0  0  0  0  0  0  0  0  0  0  0
   58.5370   33.8110   44.3270 C   0  0  0  0  0  0  0  0  0  0  0  0
   57.7810   32.8660   43.6280 C   0  0  0  0  0  0  0  0  0  0  0  0
   57.5810   31.5870   44.1660 C   0  0  0  0  0  0  0  0  0  0  0  0
   56.8160   30.6330   43.4770 C   0  0  0  0  0  0  0  0  0  0  0  0
   56.6230   29.3620   44.0240 C   0  0  0  0  0  0  0  0  0  0  0  0
   57.1910   29.0320   45.2580 C   0  0  0  0  0  0  0  0  0  0  0  0
   57.9580   29.9720   45.9520 C   0  0  0  0  0  0  0  0  0  0  0  0
   58.1570   31.2540   45.4150 C   0  0  0  0  0  0  0  0  0  0  0  0
   58.9190   32.2080   46.1060 C   0  0  0  0  0  0  0  0  0  0  0  0
   62.6210   33.7990   46.6170 S   0  0  0  0  0  0  0  0  0  0  0  0
   63.2430   33.4190   48.1270 C   0  0  0  0  0  0  0  0  0  0  0  0
   64.5170   33.0590   48.4230 N   0  0  0  0  0  0  0  0  0  0  0  0
   64.8510   32.7740   49.7160 C   0  0  0  0  0  0  0  0  0  0  0  0
   63.8830   32.8520   50.7350 C   0  0  0  0  0  0  0  0  0  0  0  0
   62.5660   33.2230   50.4200 C   0  0  0  0  0  0  0  0  0  0  0  0
   62.2550   33.5090   49.0890 C   0  0  0  0  0  0  0  0  0  0  0  0
   57.1546   30.2820   53.3628 H   0  0  0  0  0  0  0  0  0  0  0  0
   55.6274   30.0883   52.4371 H   0  0  0  0  0  0  0  0  0  0  0  0
   56.8506   28.7729   52.4371 H   0  0  0  0  0  0  0  0  0  0  0  0
   59.1187   29.6239   52.0582 H   0  0  0  0  0  0  0  0  0  0  0  0
   58.5543   28.8971   50.5155 H   0  0  0  0  0  0  0  0  0  0  0  0
   59.3206   30.5217   50.5155 H   0  0  0  0  0  0  0  0  0  0  0  0
   56.7112   32.4168   50.8014 H   0  0  0  0  0  0  0  0  0  0  0  0
   57.2962   32.1506   52.5043 H   0  0  0  0  0  0  0  0  0  0  0  0
   59.0443   33.3779   51.6394 H   0  0  0  0  0  0  0  0  0  0  0  0
   59.5782   31.6647   51.2917 H   0  0  0  0  0  0  0  0  0  0  0  0
   59.4784   31.9345   49.0617 H   0  0  0  0  0  0  0  0  0  0  0  0
   58.0045   32.9826   49.1554 H   0  0  0  0  0  0  0  0  0  0  0  0
   59.3330   34.8990   49.3550 H   0  0  0  0  0  0  0  0  0  0  0  0
   58.6918   34.8110   43.8957 H   0  0  0  0  0  0  0  0  0  0  0  0
   57.3420   33.1263   42.6536 H   0  0  0  0  0  0  0  0  0  0  0  0
   56.3678   30.8864   42.5050 H   0  0  0  0  0  0  0  0  0  0  0  0
   56.0216   28.6178   43.4814 H   0  0  0  0  0  0  0  0  0  0  0  0
   57.0339   28.0300   45.6839 H   0  0  0  0  0  0  0  0  0  0  0  0
   58.4066   29.7069   46.9208 H   0  0  0  0  0  0  0  0  0  0  0  0
   59.3772   31.9450   47.0708 H   0  0  0  0  0  0  0  0  0  0  0  0
   65.2380   32.9990   47.6690 H   0  0  0  0  0  0  0  0  0  0  0  0
   65.8824   32.4818   49.9627 H   0  0  0  0  0  0  0  0  0  0  0  0
   64.1576   32.6229   51.7752 H   0  0  0  0  0  0  0  0  0  0  0  0
   61.7968   33.2869   51.2037 H   0  0  0  0  0  0  0  0  0  0  0  0
  1  2  1  0
  2  3  1  0
  2  4  1  0
  4  5  1  0
  5  6  1  0
  6  7  1  0
  7  8  1  0
  8  9  2  0
  9 10  1  0
 10 11  2  0
 10 12  1  0
 12 13  2  0
 13 14  1  0
 14 15  2  0
 15 16  1  0
 16 17  2  0
 17 18  1  0
 18 19  2  0
 19 20  1  0
 20 21  2  0
  9 22  1  0
 22 23  1  0
 23 24  2  0
 24 25  1  0
 25 26  2  0
 26 27  1  0
 27 28  2  0
 28  8  1  0
 21 12  1  0
 28 23  1  0
 20 15  1  0
  1 29  1  0
  1 30  1  0
  1 31  1  0
  3 32  1  0
  3 33  1  0
  3 34  1  0
  4 35  1  0
  4 36  1  0
  5 37  1  0
  5 38  1  0
  6 39  1  0
  6 40  1  0
  7 41  1  0
 13 42  1  0
 14 43  1  0
 16 44  1  0
 17 45  1  0
 18 46  1  0
 19 47  1  0
 21 48  1  0
 24 49  1  0
 25 50  1  0
 26 51  1  0
 27 52  1  0
M  CHG  1  24   1
M  END
>  <UniqueID>  (20) 
20

>  <SMILES>  (20) 
CN(C)CCCNc1c(C(=O)c2ccc3ccccc3c2)sc2[nH+]cccc12

>  <Energy>  (20) 
98.63104648856378

>  <Genealogy>  (20) 
CN(C)CCCNc1c(C(=O)c2ccc3ccccc3c2)sc2[nH+]cccc12 (protonated)
CN(C)CCCNc1c(C(=O)c2ccc3ccccc3c2)sc2[nH+]cccc12 (3D coordinates assigned)
CN(C)CCCNc1c(C(=O)c2ccc3ccccc3c2)sc2[nH+]cccc12 (optimized conformer: 98.63104648856378 kcal/mol)

>  <smiles>  (20) 
CN(C)CCCNc1c(C(=O)c2ccc3ccccc3c2)sc2ncccc12

>  <score_type>  (20) 
oracle

>  <origin>  (20) 
adg

>  <m_score__min__energy>  (20) 
-8.2300000000000004

>  <m_primary>  (20) 
energy

$$$$
20:0
     RDKit          3D

 43 44  0  0  0  0  0  0  0  0999 V2000
   59.5090   29.3040   45.5540 C   0  0  0  0  0  0  0  0  0  0  0  0
   58.3650   29.5430   46.5320 C   0  0  0  0  0  0  0  0  0  0  0  0
   57.3620   30.3740   45.9480 O   0  0  0  0  0  0  0  0  0  0  0  0
   57.3760   30.8910   44.6390 C   0  0  0  0  0  0  0  0  0  0  0  0
   56.8030   30.1870   43.5590 C   0  0  0  0  0  0  0  0  0  0  0  0
   56.8260   30.7230   42.2700 C   0  0  0  0  0  0  0  0  0  0  0  0
   57.4150   31.9640   42.0390 C   0  0  0  0  0  0  0  0  0  0  0  0
   57.9820   32.6770   43.0960 C   0  0  0  0  0  0  0  0  0  0  0  0
   57.9700   32.1540   44.4020 C   0  0  0  0  0  0  0  0  0  0  0  0
   58.5860   32.9360   45.5030 C   0  0  0  0  0  0  0  0  0  0  0  0
   59.6860   32.5340   46.1790 N   0  0  0  0  0  0  0  0  0  0  0  0
   59.8820   33.5260   47.0650 C   0  0  0  0  0  0  0  0  0  0  0  0
   60.9940   33.5440   48.0790 C   0  0  0  0  0  0  0  0  0  0  0  0
   61.9550   32.4290   47.8810 N   0  0  0  0  0  0  0  0  0  0  0  0
   61.9390   31.5190   49.0590 C   0  0  0  0  0  0  0  0  0  0  0  0
   60.8700   30.4280   48.9440 C   0  0  0  0  0  0  0  0  0  0  0  0
   63.3250   32.9740   47.6310 C   0  0  0  0  0  0  0  0  0  0  0  0
   63.3780   33.8360   46.3660 C   0  0  0  0  0  0  0  0  0  0  0  0
   58.9110   34.4870   46.9060 C   0  0  0  0  0  0  0  0  0  0  0  0
   58.1280   34.0920   45.9350 O   0  0  0  0  0  0  0  0  0  0  0  0
   60.4358   29.1104   46.1140 H   0  0  0  0  0  0  0  0  0  0  0  0
   59.2748   28.4354   44.9210 H   0  0  0  0  0  0  0  0  0  0  0  0
   59.6422   30.1937   44.9210 H   0  0  0  0  0  0  0  0  0  0  0  0
   57.9173   28.5763   46.8060 H   0  0  0  0  0  0  0  0  0  0  0  0
   58.7644   30.0476   47.4241 H   0  0  0  0  0  0  0  0  0  0  0  0
   56.3341   29.2074   43.7340 H   0  0  0  0  0  0  0  0  0  0  0  0
   56.3781   30.1641   41.4351 H   0  0  0  0  0  0  0  0  0  0  0  0
   57.4332   32.3825   41.0219 H   0  0  0  0  0  0  0  0  0  0  0  0
   58.4429   33.6576   42.9063 H   0  0  0  0  0  0  0  0  0  0  0  0
   61.5358   34.4975   47.9931 H   0  0  0  0  0  0  0  0  0  0  0  0
   60.5430   33.4268   49.0754 H   0  0  0  0  0  0  0  0  0  0  0  0
   61.6290   31.8860   47.0450 H   0  0  0  0  0  0  0  0  0  0  0  0
   62.9248   31.0389   49.1471 H   0  0  0  0  0  0  0  0  0  0  0  0
   61.7032   32.1253   49.9460 H   0  0  0  0  0  0  0  0  0  0  0  0
   60.5596   30.1112   49.9506 H   0  0  0  0  0  0  0  0  0  0  0  0
   59.9998   30.8232   48.3994 H   0  0  0  0  0  0  0  0  0  0  0  0
   61.2829   29.5661   48.3994 H   0  0  0  0  0  0  0  0  0  0  0  0
   63.6252   33.5887   48.4924 H   0  0  0  0  0  0  0  0  0  0  0  0
   64.0085   32.1235   47.4913 H   0  0  0  0  0  0  0  0  0  0  0  0
   63.4432   34.8973   46.6479 H   0  0  0  0  0  0  0  0  0  0  0  0
   64.2609   33.5598   45.7708 H   0  0  0  0  0  0  0  0  0  0  0  0
   62.4680   33.6700   45.7708 H   0  0  0  0  0  0  0  0  0  0  0  0
   58.8112   35.4155   47.4873 H   0  0  0  0  0  0  0  0  0  0  0  0
  1  2  1  0
  2  3  1  0
  3  4  1  0
  4  5  2  0
  5  6  1  0
  6  7  2  0
  7  8  1  0
  8  9  2  0
  9 10  1  0
 10 11  2  0
 11 12  1  0
 12 13  1  0
 13 14  1  0
 14 15  1  0
 15 16  1  0
 14 17  1  0
 17 18  1  0
 12 19  2  0
 19 20  1  0
  9  4  1  0
 20 10  1  0
  1 21  1  0
  1 22  1  0
  1 23  1  0
  2 24  1  0
  2 25  1  0
  5 26  1  0
  6 27  1  0
  7 28  1  0
  8 29  1  0
 13 30  1  0
 13 31  1  0
 14 32  1  0
 15 33  1  0
 15 34  1  0
 16 35  1  0
 16 36  1  0
 16 37  1  0
 17 38  1  0
 17 39  1  0
 18 40  1  0
 18 41  1  0
 18 42  1  0
 19 43  1  0
M  CHG  1  14   1
M  END
>  <UniqueID>  (21) 
21

>  <SMILES>  (21) 
CCOc1ccccc1-c1nc(C[NH+](CC)CC)co1

>  <Energy>  (21) 
73.89047235815885

>  <Genealogy>  (21) 
CCOc1ccccc1-c1nc(C[NH+](CC)CC)co1 (protonated)
CCOc1ccccc1-c1nc(C[NH+](CC)CC)co1 (3D coordinates assigned)
CCOc1ccccc1-c1nc(C[NH+](CC)CC)co1 (optimized conformer: 73.89047235815885 kcal/mol)

>  <smiles>  (21) 
CCOc1ccccc1-c1nc(CN(CC)CC)co1

>  <score_type>  (21) 
oracle

>  <origin>  (21) 
adg

>  <m_score__min__energy>  (21) 
-4.7999999999999998

>  <m_primary>  (21) 
energy

$$$$
21:0
     RDKit          3D

 31 33  0  0  0  0  0  0  0  0999 V2000
   58.5170   32.0000   50.5980 C   0  0  0  0  0  0  0  0  0  0  0  0
   59.2040   33.0160   49.8100 N   0  0  0  0  0  0  0  0  0  0  0  0
   60.1920   33.8380   50.2320 C   0  0  0  0  0  0  0  0  0  0  0  0
   60.7020   34.5750   49.2220 N   0  0  0  0  0  0  0  0  0  0  0  0
   60.0080   34.1970   48.1330 C   0  0  0  0  0  0  0  0  0  0  0  0
   59.1080   33.2310   48.4830 C   0  0  0  0  0  0  0  0  0  0  0  0
   58.2380   32.5030   47.5050 C   0  0  0  0  0  0  0  0  0  0  0  0
   58.4830   32.9670   46.1220 N   0  0  0  0  0  0  0  0  0  0  0  0
   57.9390   32.2060   45.0250 C   0  0  0  0  0  0  0  0  0  0  0  0
   57.1920   31.0900   45.1850 N   0  0  0  0  0  0  0  0  0  0  0  0
   56.8060   30.5580   43.9940 C   0  0  0  0  0  0  0  0  0  0  0  0
   55.9310   29.3480   43.9190 C   0  0  0  0  0  0  0  0  0  0  0  0
   54.7140   29.6930   43.3650 F   0  0  0  0  0  0  0  0  0  0  0  0
   55.7270   28.8380   45.1880 F   0  0  0  0  0  0  0  0  0  0  0  0
   57.2270   31.2610   42.8670 C   0  0  0  0  0  0  0  0  0  0  0  0
   58.1310   32.5780   43.3910 S   0  0  0  0  0  0  0  0  0  0  0  0
   59.0170   34.3260   45.8740 C   0  0  0  0  0  0  0  0  0  0  0  0
   60.2660   34.6070   46.7240 C   0  0  0  0  0  0  0  0  0  0  0  0
   58.6582   32.2088   51.6687 H   0  0  0  0  0  0  0  0  0  0  0  0
   57.4432   32.0153   50.3599 H   0  0  0  0  0  0  0  0  0  0  0  0
   58.9312   31.0092   50.3599 H   0  0  0  0  0  0  0  0  0  0  0  0
   60.5388   33.8988   51.2741 H   0  0  0  0  0  0  0  0  0  0  0  0
   61.4900   35.2580   49.2700 H   0  0  0  0  0  0  0  0  0  0  0  0
   58.4535   31.4260   47.5655 H   0  0  0  0  0  0  0  0  0  0  0  0
   57.1864   32.7031   47.7583 H   0  0  0  0  0  0  0  0  0  0  0  0
   56.4203   28.5865   43.2939 H   0  0  0  0  0  0  0  0  0  0  0  0
   57.0071   31.0007   41.8211 H   0  0  0  0  0  0  0  0  0  0  0  0
   59.2814   34.4170   44.8101 H   0  0  0  0  0  0  0  0  0  0  0  0
   58.2417   35.0559   46.1500 H   0  0  0  0  0  0  0  0  0  0  0  0
   61.1173   34.0356   46.3255 H   0  0  0  0  0  0  0  0  0  0  0  0
   60.4991   35.6815   46.6907 H   0  0  0  0  0  0  0  0  0  0  0  0
  1  2  1  0
  2  3  1  0
  3  4  2  0
  4  5  1  0
  5  6  2  0
  6  7  1  0
  7  8  1  0
  8  9  1  0
  9 10  2  0
 10 11  1  0
 11 12  1  0
 12 13  1  0
 12 14  1  0
 11 15  2  0
 15 16  1  0
  8 17  1  0
 17 18  1  0
  6  2  1  0
 16  9  1  0
 18  5  1  0
  1 19  1  0
  1 20  1  0
  1 21  1  0
  3 22  1  0
  4 23  1  0
  7 24  1  0
  7 25  1  0
 12 26  1  0
 15 27  1  0
 17 28  1  0
 17 29  1  0
 18 30  1  0
 18 31  1  0
M  CHG  1   4   1
M  END
>  <UniqueID>  (22) 
22

>  <SMILES>  (22) 
Cn1c[nH+]c2c1CN(c1nc(C(F)F)cs1)CC2

>  <Energy>  (22) 
93.58408609682665

>  <Genealogy>  (22) 
Cn1c[nH+]c2c1CN(c1nc(C(F)F)cs1)CC2 (protonated)
Cn1c[nH+]c2c1CN(c1nc(C(F)F)cs1)CC2 (3D coordinates assigned)
Cn1c[nH+]c2c1CN(c1nc(C(F)F)cs1)CC2 (nonaromatic ring conformer: 93.58408609682665 kcal/mol)

>  <smiles>  (22) 
Cn1cnc2c1CN(c1nc(C(F)F)cs1)CC2

>  <score_type>  (22) 
oracle

>  <origin>  (22) 
adg

>  <m_score__min__energy>  (22) 
-4.7199999999999998

>  <m_primary>  (22) 
energy

$$$$
22:0
     RDKit          3D

 42 45  0  0  0  0  0  0  0  0999 V2000
   56.3560   23.1850   43.1010 C   0  0  0  0  0  0  0  0  0  0  0  0
   56.9140   24.4460   43.7510 C   0  0  0  0  0  0  0  0  0  0  0  0
   56.3540   24.6310   45.0500 O   0  0  0  0  0  0  0  0  0  0  0  0
   56.2380   25.8790   45.6690 C   0  0  0  0  0  0  0  0  0  0  0  0
   55.1050   26.3300   45.9920 O   0  0  0  0  0  0  0  0  0  0  0  0
   57.4560   26.6510   45.9610 C   0  0  0  0  0  0  0  0  0  0  0  0
   57.6170   27.9650   45.9300 C   0  0  0  0  0  0  0  0  0  0  0  0
   56.8860   29.0170   45.2740 C   0  0  0  0  0  0  0  0  0  0  0  0
   55.6360   29.0890   45.1450 O   0  0  0  0  0  0  0  0  0  0  0  0
   57.8040   29.9780   44.7660 N   0  0  0  0  0  0  0  0  0  0  0  0
   57.4380   31.1940   44.0450 C   0  0  0  0  0  0  0  0  0  0  0  0
   57.8870   32.4050   44.8160 C   0  0  0  0  0  0  0  0  0  0  0  0
   57.7670   32.4320   46.2150 C   0  0  0  0  0  0  0  0  0  0  0  0
   58.2140   33.5420   46.9390 C   0  0  0  0  0  0  0  0  0  0  0  0
   58.7870   34.6280   46.2730 C   0  0  0  0  0  0  0  0  0  0  0  0
   58.9170   34.6050   44.8810 C   0  0  0  0  0  0  0  0  0  0  0  0
   58.4720   33.4980   44.1540 C   0  0  0  0  0  0  0  0  0  0  0  0
   59.1840   29.5750   45.0710 C   0  0  0  0  0  0  0  0  0  0  0  0
   59.0660   28.2020   45.7730 C   0  0  1  0  0  0  0  0  0  0  0  0
   59.7580   27.9650   47.1180 C   0  0  0  0  0  0  0  0  0  0  0  0
   59.6000   26.4360   47.2040 C   0  0  0  0  0  0  0  0  0  0  0  0
   58.8770   26.1490   45.8690 C   0  0  2  0  0  0  0  0  0  0  0  0
   59.4540   27.0980   45.0090 O   0  0  0  0  0  0  0  0  0  0  0  0
   56.0429   22.4773   43.8828 H   0  0  0  0  0  0  0  0  0  0  0  0
   55.4899   23.4473   42.4756 H   0  0  0  0  0  0  0  0  0  0  0  0
   57.1326   22.7204   42.4756 H   0  0  0  0  0  0  0  0  0  0  0  0
   58.0067   24.3547   43.8380 H   0  0  0  0  0  0  0  0  0  0  0  0
   56.6533   25.3126   43.1256 H   0  0  0  0  0  0  0  0  0  0  0  0
   57.9219   31.1912   43.0572 H   0  0  0  0  0  0  0  0  0  0  0  0
   56.3450   31.2273   43.9253 H   0  0  0  0  0  0  0  0  0  0  0  0
   57.3198   31.5770   46.7433 H   0  0  0  0  0  0  0  0  0  0  0  0
   58.1142   33.5598   48.0343 H   0  0  0  0  0  0  0  0  0  0  0  0
   59.1359   35.5013   46.8436 H   0  0  0  0  0  0  0  0  0  0  0  0
   59.3703   35.4597   44.3575 H   0  0  0  0  0  0  0  0  0  0  0  0
   58.5799   33.4819   43.0594 H   0  0  0  0  0  0  0  0  0  0  0  0
   59.7719   29.4847   44.1457 H   0  0  0  0  0  0  0  0  0  0  0  0
   59.6956   30.3151   45.7039 H   0  0  0  0  0  0  0  0  0  0  0  0
   60.8147   28.2700   47.0976 H   0  0  0  0  0  0  0  0  0  0  0  0
   59.3481   28.5315   47.9672 H   0  0  0  0  0  0  0  0  0  0  0  0
   60.5752   25.9296   47.2541 H   0  0  0  0  0  0  0  0  0  0  0  0
   59.0668   26.0810   48.0983 H   0  0  0  0  0  0  0  0  0  0  0  0
   58.9326   25.0863   45.5906 H   0  0  0  0  0  0  0  0  0  0  0  0
  1  2  1  0
  2  3  1  0
  3  4  1  0
  4  5  2  0
  4  6  1  0
  6  7  2  0
  7  8  1  0
  8  9  2  0
  8 10  1  0
 10 11  1  0
 11 12  1  0
 12 13  2  0
 13 14  1  0
 14 15  2  0
 15 16  1  0
 16 17  2  0
 10 18  1  0
 19 18  1  6
 19 20  1  0
 20 21  1  0
 21 22  1  0
 22 23  1  0
 22  6  1  0
 19  7  1  0
 17 12  1  0
 23 19  1  0
  1 24  1  0
  1 25  1  0
  1 26  1  0
  2 27  1  0
  2 28  1  0
 11 29  1  0
 11 30  1  0
 13 31  1  0
 14 32  1  0
 15 33  1  0
 16 34  1  0
 17 35  1  0
 18 36  1  0
 18 37  1  0
 20 38  1  0
 20 39  1  0
 21 40  1  0
 21 41  1  0
 22 42  1  6
M  END
>  <UniqueID>  (23) 
23

>  <SMILES>  (23) 
CCOC(=O)C1=C2C(=O)N(Cc3ccccc3)C[C@@]23CC[C@@H]1O3

>  <Energy>  (23) 
107.03470284301139

>  <Genealogy>  (23) 
CCOC(=O)C1=C2C(=O)N(Cc3ccccc3)C[C@@]23CC[C@@H]1O3 (chirality)
CCOC(=O)C1=C2C(=O)N(Cc3ccccc3)C[C@@]23CC[C@@H]1O3 (3D coordinates assigned)
CCOC(=O)C1=C2C(=O)N(Cc3ccccc3)C[C@@]23CC[C@@H]1O3 (nonaromatic ring conformer: 107.03470284301139 kcal/mol)

>  <smiles>  (23) 
CCOC(=O)C1=C2C(=O)N(Cc3ccccc3)CC23CCC1O3

>  <score_type>  (23) 
oracle

>  <origin>  (23) 
adg

>  <m_score__min__energy>  (23) 
-8.4499999999999993

>  <m_primary>  (23) 
energy

$$$$
23:0
     RDKit          3D

 39 41  0  0  0  0  0  0  0  0999 V2000
   54.4260   26.7060   46.7730 H   0  0  0  0  0  0  0  0  0  0  0  0
   54.7300   26.3000   45.9200 O   0  0  0  0  0  0  0  0  0  0  0  0
   56.0730   25.9560   46.1110 C   0  0  0  0  0  0  0  0  0  0  0  0
   56.4174   25.3379   45.2688 H   0  0  0  0  0  0  0  0  0  0  0  0
   56.1785   25.3879   47.0470 H   0  0  0  0  0  0  0  0  0  0  0  0
   56.9000   27.2080   46.1860 C   0  0  0  0  0  0  0  0  0  0  0  0
   57.7960   27.4010   47.2470 C   0  0  0  0  0  0  0  0  0  0  0  0
   57.9136   26.6201   48.0127 H   0  0  0  0  0  0  0  0  0  0  0  0
   58.5410   28.5810   47.3370 C   0  0  0  0  0  0  0  0  0  0  0  0
   59.2480   28.7175   48.1685 H   0  0  0  0  0  0  0  0  0  0  0  0
   58.3940   29.5940   46.3740 C   0  0  0  0  0  0  0  0  0  0  0  0
   59.1950   30.8340   46.4910 C   0  0  0  0  0  0  0  0  0  0  0  0
   60.3440   30.8970   47.1260 O   0  0  0  0  0  0  0  0  0  0  0  0
   60.8010   32.1260   47.0520 C   0  0  0  0  0  0  0  0  0  0  0  0
   62.0670   32.5660   47.6520 C   0  0  0  0  0  0  0  0  0  0  0  0
   62.6880   32.0520   49.1270 S   0  0  0  0  0  0  0  0  0  0  0  0
   64.0950   32.9820   49.0740 C   0  0  0  0  0  0  0  0  0  0  0  0
   65.1460   32.9960   50.1230 C   0  0  0  0  0  0  0  0  0  0  0  0
   64.8290   33.5490   51.4120 N   0  0  0  0  0  0  0  0  0  0  0  0
   65.5310   33.6260   52.1790 H   0  0  0  0  0  0  0  0  0  0  0  0
   63.8630   33.8790   51.6310 H   0  0  0  0  0  0  0  0  0  0  0  0
   66.3400   32.5240   49.8680 N   0  0  0  0  0  0  0  0  0  0  0  0
   66.8020   32.7300   48.9550 H   0  0  0  0  0  0  0  0  0  0  0  0
   67.1150   31.7150   50.8080 C   0  0  0  0  0  0  0  0  0  0  0  0
   66.8482   31.9935   51.8382 H   0  0  0  0  0  0  0  0  0  0  0  0
   66.8913   30.6502   50.6464 H   0  0  0  0  0  0  0  0  0  0  0  0
   68.1884   31.8928   50.6464 H   0  0  0  0  0  0  0  0  0  0  0  0
   64.0860   33.7060   47.8810 C   0  0  0  0  0  0  0  0  0  0  0  0
   64.8923   34.3950   47.5893 H   0  0  0  0  0  0  0  0  0  0  0  0
   62.9540   33.4730   47.0900 C   0  0  0  0  0  0  0  0  0  0  0  0
   62.7847   33.9610   46.1188 H   0  0  0  0  0  0  0  0  0  0  0  0
   59.9220   32.9140   46.3370 C   0  0  0  0  0  0  0  0  0  0  0  0
   60.0281   33.9841   46.1052 H   0  0  0  0  0  0  0  0  0  0  0  0
   58.8830   32.0830   45.9730 C   0  0  0  0  0  0  0  0  0  0  0  0
   57.9899   32.3547   45.3912 H   0  0  0  0  0  0  0  0  0  0  0  0
   57.4820   29.4020   45.3190 C   0  0  0  0  0  0  0  0  0  0  0  0
   57.3545   30.1861   44.5581 H   0  0  0  0  0  0  0  0  0  0  0  0
   56.7370   28.2220   45.2310 C   0  0  0  0  0  0  0  0  0  0  0  0
   56.0192   28.0883   44.4083 H   0  0  0  0  0  0  0  0  0  0  0  0
  1  2  1  0
  2  3  1  0
  3  4  1  0
  3  5  1  0
  3  6  1  0
  6  7  2  0
  7  8  1  0
  7  9  1  0
  9 10  1  0
  9 11  2  0
 11 12  1  0
 12 13  1  0
 13 14  1  0
 14 15  1  0
 15 16  1  0
 16 17  1  0
 17 18  1  0
 18 19  1  0
 19 20  1  0
 19 21  1  0
 18 22  2  0
 22 23  1  0
 22 24  1  0
 24 25  1  0
 24 26  1  0
 24 27  1  0
 17 28  2  0
 28 29  1  0
 28 30  1  0
 30 31  1  0
 14 32  2  0
 32 33  1  0
 32 34  1  0
 34 35  1  0
 11 36  1  0
 36 37  1  0
 36 38  2  0
 38 39  1  0
 38  6  1  0
 34 12  2  0
 30 15  2  0
M  CHG  1  22   1
M  END
>  <UniqueID>  (24) 
24

>  <SMILES>  (24) 
C/[NH+]=C(\N)c1ccc(-c2ccc(-c3ccc(CO)cc3)o2)s1

>  <Energy>  (24) 
93.08665430848558

>  <Genealogy>  (24) 
C[NH+]=C(N)c1ccc(-c2ccc(-c3ccc(CO)cc3)o2)s1 (protonated)
C/[NH+]=C(\N)c1ccc(-c2ccc(-c3ccc(CO)cc3)o2)s1 (cis-trans isomerization)
C/[NH+]=C(\N)c1ccc(-c2ccc(-c3ccc(CO)cc3)o2)s1 (3D coordinates assigned)
C/[NH+]=C(\N)c1ccc(-c2ccc(-c3ccc(CO)cc3)o2)s1 (optimized conformer: 93.08665430848558 kcal/mol)

>  <smiles>  (24) 
CN=C(N)c1ccc(-c2ccc(-c3ccc(CO)cc3)o2)s1

>  <score_type>  (24) 
oracle

>  <origin>  (24) 
adg

>  <m_score__min__energy>  (24) 
-6.4900000000000002

>  <m_primary>  (24) 
energy

$$$$
24:0
     RDKit          3D

 57 60  0  0  0  0  0  0  0  0999 V2000
   68.1820   33.6270   50.5160 C   0  0  0  0  0  0  0  0  0  0  0  0
   67.3510   32.3550   50.7490 C   0  0  0  0  0  0  0  0  0  0  0  0
   66.0040   32.5900   51.3250 N   0  0  0  0  0  0  0  0  0  0  0  0
   65.1110   31.4200   51.3430 C   0  0  0  0  0  0  0  0  0  0  0  0
   65.3480   33.8520   50.9160 C   0  0  0  0  0  0  0  0  0  0  0  0
   64.1270   33.6490   50.0500 C   0  0  0  0  0  0  0  0  0  0  0  0
   64.2410   33.0280   48.7960 C   0  0  0  0  0  0  0  0  0  0  0  0
   63.1100   32.8260   48.0010 C   0  0  0  0  0  0  0  0  0  0  0  0
   61.8420   33.2480   48.4420 C   0  0  0  0  0  0  0  0  0  0  0  0
   60.6340   33.0090   47.6110 C   0  0  0  0  0  0  0  0  0  0  0  0
   59.6260   32.1350   48.0550 C   0  0  0  0  0  0  0  0  0  0  0  0
   58.4790   31.9250   47.2870 C   0  0  0  0  0  0  0  0  0  0  0  0
   58.3040   32.6000   46.0660 C   0  0  0  0  0  0  0  0  0  0  0  0
   57.0680   32.3950   45.2220 C   0  0  0  0  0  0  0  0  0  0  0  0
   57.2250   31.2640   44.2810 N   0  0  0  0  0  0  0  0  0  0  0  0
   56.6360   29.9810   44.6060 C   0  0  0  0  0  0  0  0  0  0  0  0
   55.4020   29.9020   44.8640 O   0  0  0  0  0  0  0  0  0  0  0  0
   57.4700   28.7270   44.7010 C   0  0  0  0  0  0  0  0  0  0  0  0
   58.9340   28.9450   45.0790 C   0  0  0  0  0  0  0  0  0  0  0  0
   57.9640   28.3870   46.0990 C   0  0  0  0  0  0  0  0  0  0  0  0
   57.9520   31.3630   42.9920 C   0  0  0  0  0  0  0  0  0  0  0  0
   57.0570   31.7500   41.8260 C   0  0  0  0  0  0  0  0  0  0  0  0
   58.1240   32.7190   42.3150 C   0  0  0  0  0  0  0  0  0  0  0  0
   59.3230   33.4500   45.6070 C   0  0  0  0  0  0  0  0  0  0  0  0
   60.4730   33.6580   46.3750 C   0  0  0  0  0  0  0  0  0  0  0  0
   61.7370   33.8900   49.6890 C   0  0  0  0  0  0  0  0  0  0  0  0
   62.8690   34.0910   50.4820 C   0  0  0  0  0  0  0  0  0  0  0  0
   68.4662   34.0620   51.4855 H   0  0  0  0  0  0  0  0  0  0  0  0
   69.0891   33.3734   49.9479 H   0  0  0  0  0  0  0  0  0  0  0  0
   67.5853   34.3558   49.9479 H   0  0  0  0  0  0  0  0  0  0  0  0
   67.2258   31.8458   49.7820 H   0  0  0  0  0  0  0  0  0  0  0  0
   67.9034   31.7544   51.4867 H   0  0  0  0  0  0  0  0  0  0  0  0
   64.8962   31.1386   52.3845 H   0  0  0  0  0  0  0  0  0  0  0  0
   64.1708   31.6684   50.8290 H   0  0  0  0  0  0  0  0  0  0  0  0
   65.5987   30.5786   50.8290 H   0  0  0  0  0  0  0  0  0  0  0  0
   65.0440   34.3951   51.8230 H   0  0  0  0  0  0  0  0  0  0  0  0
   66.0783   34.4138   50.3152 H   0  0  0  0  0  0  0  0  0  0  0  0
   65.2272   32.6984   48.4371 H   0  0  0  0  0  0  0  0  0  0  0  0
   63.2115   32.3333   47.0228 H   0  0  0  0  0  0  0  0  0  0  0  0
   59.7421   31.6121   49.0158 H   0  0  0  0  0  0  0  0  0  0  0  0
   57.7063   31.2261   47.6399 H   0  0  0  0  0  0  0  0  0  0  0  0
   56.2144   32.1904   45.8849 H   0  0  0  0  0  0  0  0  0  0  0  0
   56.9017   33.3088   44.6327 H   0  0  0  0  0  0  0  0  0  0  0  0
   56.9418   28.1845   43.9030 H   0  0  0  0  0  0  0  0  0  0  0  0
   59.7146   28.2986   44.6513 H   0  0  0  0  0  0  0  0  0  0  0  0
   59.6258   29.7997   45.0499 H   0  0  0  0  0  0  0  0  0  0  0  0
   58.0422   27.3356   46.4128 H   0  0  0  0  0  0  0  0  0  0  0  0
   57.6624   28.6706   47.1181 H   0  0  0  0  0  0  0  0  0  0  0  0
   58.6669   30.5662   43.2450 H   0  0  0  0  0  0  0  0  0  0  0  0
   57.1738   31.2489   40.8537 H   0  0  0  0  0  0  0  0  0  0  0  0
   55.9701   31.8072   41.6668 H   0  0  0  0  0  0  0  0  0  0  0  0
   59.0124   32.9171   41.6973 H   0  0  0  0  0  0  0  0  0  0  0  0
   58.1288   33.7647   42.6562 H   0  0  0  0  0  0  0  0  0  0  0  0
   59.2159   33.9560   44.6362 H   0  0  0  0  0  0  0  0  0  0  0  0
   61.2583   34.3354   46.0085 H   0  0  0  0  0  0  0  0  0  0  0  0
   60.7549   34.2368   50.0428 H   0  0  0  0  0  0  0  0  0  0  0  0
   62.7726   34.5998   51.4525 H   0  0  0  0  0  0  0  0  0  0  0  0
  1  2  1  0
  2  3  1  0
  3  4  1  0
  3  5  1  0
  5  6  1  0
  6  7  2  0
  7  8  1  0
  8  9  2  0
  9 10  1  0
 10 11  2  0
 11 12  1  0
 12 13  2  0
 13 14  1  0
 14 15  1  0
 15 16  1  0
 16 17  2  0
 16 18  1  0
 18 19  1  0
 19 20  1  0
 15 21  1  0
 21 22  1  0
 22 23  1  0
 13 24  1  0
 24 25  2  0
  9 26  1  0
 26 27  2  0
 27  6  1  0
 25 10  1  0
 20 18  1  0
 23 21  1  0
  1 28  1  0
  1 29  1  0
  1 30  1  0
  2 31  1  0
  2 32  1  0
  4 33  1  0
  4 34  1  0
  4 35  1  0
  5 36  1  0
  5 37  1  0
  7 38  1  0
  8 39  1  0
 11 40  1  0
 12 41  1  0
 14 42  1  0
 14 43  1  0
 18 44  1  0
 19 45  1  0
 19 46  1  0
 20 47  1  0
 20 48  1  0
 21 49  1  0
 22 50  1  0
 22 51  1  0
 23 52  1  0
 23 53  1  0
 24 54  1  0
 25 55  1  0
 26 56  1  0
 27 57  1  0
M  END
>  <UniqueID>  (25) 
25

>  <SMILES>  (25) 
CCN(C)Cc1ccc(-c2ccc(CN(C(=O)C3CC3)C3CC3)cc2)cc1

>  <Energy>  (25) 
602.6460964393957

>  <Genealogy>  (25) 
CCN(C)Cc1ccc(-c2ccc(CN(C(=O)C3CC3)C3CC3)cc2)cc1 (3D coordinates assigned)
CCN(C)Cc1ccc(-c2ccc(CN(C(=O)C3CC3)C3CC3)cc2)cc1 (nonaromatic ring conformer: 602.6460964393957 kcal/mol)

>  <smiles>  (25) 
CCN(C)Cc1ccc(-c2ccc(CN(C(=O)C3CC3)C3CC3)cc2)cc1

>  <score_type>  (25) 
oracle

>  <origin>  (25) 
adg

>  <m_score__min__energy>  (25) 
-8.0299999999999994

>  <m_primary>  (25) 
energy

$$$$
25:0
     RDKit          3D

 54 57  0  0  0  0  0  0  0  0999 V2000
   56.9720   30.8620   43.5970 C   0  0  0  0  0  0  0  0  0  0  0  0
   56.7690   31.5030   44.8520 O   0  0  0  0  0  0  0  0  0  0  0  0
   57.7840   31.7480   45.7890 C   0  0  0  0  0  0  0  0  0  0  0  0
   57.8570   33.0190   46.3730 C   0  0  0  0  0  0  0  0  0  0  0  0
   58.8490   33.3120   47.3120 C   0  0  0  0  0  0  0  0  0  0  0  0
   59.7830   32.3350   47.6830 C   0  0  0  0  0  0  0  0  0  0  0  0
   60.7960   32.6320   48.6600 N   0  0  0  0  0  0  0  0  0  0  0  0
   60.6260   32.7290   50.0030 C   0  0  0  0  0  0  0  0  0  0  0  0
   59.3770   32.4240   50.7380 C   0  0  0  0  0  0  0  0  0  0  0  0
   58.8550   33.3550   51.6520 C   0  0  0  0  0  0  0  0  0  0  0  0
   57.6780   33.0750   52.3530 C   0  0  0  0  0  0  0  0  0  0  0  0
   57.0170   31.8590   52.1530 C   0  0  0  0  0  0  0  0  0  0  0  0
   55.8760   31.5890   52.8340 F   0  0  0  0  0  0  0  0  0  0  0  0
   57.5370   30.9210   51.2580 C   0  0  0  0  0  0  0  0  0  0  0  0
   58.7140   31.1980   50.5570 C   0  0  0  0  0  0  0  0  0  0  0  0
   61.8050   33.1310   50.6030 C   0  0  0  0  0  0  0  0  0  0  0  0
   62.7310   33.2790   49.5890 C   0  0  0  0  0  0  0  0  0  0  0  0
   64.1510   33.7520   49.7650 C   0  0  0  0  0  0  0  0  0  0  0  0
   65.0630   32.6430   50.1410 N   0  0  0  0  0  0  0  0  0  0  0  0
   66.4820   33.0950   50.1320 C   0  0  0  0  0  0  0  0  0  0  0  0
   67.4270   32.2000   50.9530 C   0  0  0  0  0  0  0  0  0  0  0  0
   66.9120   30.4560   50.8770 S   0  0  0  0  0  0  0  0  0  0  0  0
   65.3110   30.7210   51.7290 C   0  0  0  0  0  0  0  0  0  0  0  0
   64.6770   32.1030   51.4640 C   0  0  0  0  0  0  0  0  0  0  0  0
   62.0770   32.9860   48.4000 C   0  0  0  0  0  0  0  0  0  0  0  0
   62.6900   33.0240   47.0280 C   0  0  0  0  0  0  0  0  0  0  0  0
   59.7130   31.0600   47.1020 C   0  0  0  0  0  0  0  0  0  0  0  0
   58.7220   30.7660   46.1610 C   0  0  0  0  0  0  0  0  0  0  0  0
   57.3003   29.8254   43.7636 H   0  0  0  0  0  0  0  0  0  0  0  0
   56.0300   30.8615   43.0289 H   0  0  0  0  0  0  0  0  0  0  0  0
   57.7425   31.4038   43.0289 H   0  0  0  0  0  0  0  0  0  0  0  0
   57.1277   33.7924   46.0901 H   0  0  0  0  0  0  0  0  0  0  0  0
   58.8973   34.3144   47.7624 H   0  0  0  0  0  0  0  0  0  0  0  0
   59.3755   34.3099   51.8170 H   0  0  0  0  0  0  0  0  0  0  0  0
   57.2719   33.8115   53.0620 H   0  0  0  0  0  0  0  0  0  0  0  0
   57.0192   29.9627   51.1047 H   0  0  0  0  0  0  0  0  0  0  0  0
   59.1237   30.4523   49.8598 H   0  0  0  0  0  0  0  0  0  0  0  0
   61.9726   33.2998   51.6770 H   0  0  0  0  0  0  0  0  0  0  0  0
   64.4986   34.1926   48.8189 H   0  0  0  0  0  0  0  0  0  0  0  0
   64.1643   34.4936   50.5773 H   0  0  0  0  0  0  0  0  0  0  0  0
   64.9470   31.8830   49.4290 H   0  0  0  0  0  0  0  0  0  0  0  0
   66.8349   33.1074   49.0902 H   0  0  0  0  0  0  0  0  0  0  0  0
   66.5024   34.0918   50.5968 H   0  0  0  0  0  0  0  0  0  0  0  0
   68.4469   32.2909   50.5510 H   0  0  0  0  0  0  0  0  0  0  0  0
   67.3934   32.5279   52.0024 H   0  0  0  0  0  0  0  0  0  0  0  0
   64.6068   29.9471   51.3895 H   0  0  0  0  0  0  0  0  0  0  0  0
   65.5137   30.6669   52.8088 H   0  0  0  0  0  0  0  0  0  0  0  0
   63.5820   32.0052   51.5024 H   0  0  0  0  0  0  0  0  0  0  0  0
   65.0404   32.7982   52.2351 H   0  0  0  0  0  0  0  0  0  0  0  0
   63.7843   33.0918   47.1171 H   0  0  0  0  0  0  0  0  0  0  0  0
   62.4227   32.1076   46.4815 H   0  0  0  0  0  0  0  0  0  0  0  0
   62.3116   33.9004   46.4815 H   0  0  0  0  0  0  0  0  0  0  0  0
   60.4418   30.2875   47.3885 H   0  0  0  0  0  0  0  0  0  0  0  0
   58.6748   29.7640   45.7096 H   0  0  0  0  0  0  0  0  0  0  0  0
  1  2  1  0
  2  3  1  0
  3  4  2  0
  4  5  1  0
  5  6  2  0
  6  7  1  0
  7  8  1  0
  8  9  1  0
  9 10  2  0
 10 11  1  0
 11 12  2  0
 12 13  1  0
 12 14  1  0
 14 15  2  0
  8 16  2  0
 16 17  1  0
 17 18  1  0
 18 19  1  0
 19 20  1  0
 20 21  1  0
 21 22  1  0
 22 23  1  0
 23 24  1  0
 17 25  2  0
 25 26  1  0
  6 27  1  0
 27 28  2  0
 28  3  1  0
 25  7  1  0
 15  9  1  0
 24 19  1  0
  1 29  1  0
  1 30  1  0
  1 31  1  0
  4 32  1  0
  5 33  1  0
 10 34  1  0
 11 35  1  0
 14 36  1  0
 15 37  1  0
 16 38  1  0
 18 39  1  0
 18 40  1  0
 19 41  1  0
 20 42  1  0
 20 43  1  0
 21 44  1  0
 21 45  1  0
 23 46  1  0
 23 47  1  0
 24 48  1  0
 24 49  1  0
 26 50  1  0
 26 51  1  0
 26 52  1  0
 27 53  1  0
 28 54  1  0
M  CHG  1  19   1
M  END
>  <UniqueID>  (26) 
26

>  <SMILES>  (26) 
COc1ccc(-n2c(-c3ccc(F)cc3)cc(C[NH+]3CCSCC3)c2C)cc1

>  <Energy>  (26) 
97.73656678064333

>  <Genealogy>  (26) 
COc1ccc(-n2c(-c3ccc(F)cc3)cc(C[NH+]3CCSCC3)c2C)cc1 (protonated)
COc1ccc(-n2c(-c3ccc(F)cc3)cc(C[NH+]3CCSCC3)c2C)cc1 (3D coordinates assigned)
COc1ccc(-n2c(-c3ccc(F)cc3)cc(C[NH+]3CCSCC3)c2C)cc1 (nonaromatic ring conformer: 97.73656678064333 kcal/mol)

>  <smiles>  (26) 
COc1ccc(-n2c(-c3ccc(F)cc3)cc(CN3CCSCC3)c2C)cc1

>  <score_type>  (26) 
oracle

>  <origin>  (26) 
adg

>  <m_score__min__energy>  (26) 
-5.9699999999999998

>  <m_primary>  (26) 
energy

$$$$
26:0
     RDKit          3D

 48 51  0  0  0  0  0  0  0  0999 V2000
   63.2710   33.8590   46.3860 C   0  0  0  0  0  0  0  0  0  0  0  0
   63.6680   33.4940   47.8190 C   0  0  0  0  0  0  0  0  0  0  0  0
   63.8020   32.0350   48.0070 N   0  0  0  0  0  0  0  0  0  0  0  0
   62.5150   31.3720   48.3000 C   0  0  0  0  0  0  0  0  0  0  0  0
   61.8090   30.8600   47.0330 C   0  0  0  0  0  0  0  0  0  0  0  0
   60.4290   30.4650   47.3180 N   0  0  0  0  0  0  0  0  0  0  0  0
   59.4120   30.5610   46.3100 C   0  0  0  0  0  0  0  0  0  0  0  0
   58.8950   31.8110   45.8940 C   0  0  0  0  0  0  0  0  0  0  0  0
   59.3140   33.0070   46.5120 C   0  0  0  0  0  0  0  0  0  0  0  0
   58.7890   34.2340   46.1170 C   0  0  0  0  0  0  0  0  0  0  0  0
   57.8310   34.2940   45.1100 C   0  0  0  0  0  0  0  0  0  0  0  0
   57.4010   33.1300   44.4740 C   0  0  0  0  0  0  0  0  0  0  0  0
   57.9330   31.8660   44.8280 C   0  0  0  0  0  0  0  0  0  0  0  0
   57.5380   30.7050   44.1790 N   0  0  0  0  0  0  0  0  0  0  0  0
   56.6400   30.7440   43.0100 C   0  0  0  0  0  0  0  0  0  0  0  0
   57.9880   29.5040   44.6640 C   0  0  0  0  0  0  0  0  0  0  0  0
   57.5980   28.2710   44.2520 N   0  0  0  0  0  0  0  0  0  0  0  0
   58.2690   27.4080   45.0420 C   0  0  0  0  0  0  0  0  0  0  0  0
   58.1710   26.0170   45.0280 C   0  0  0  0  0  0  0  0  0  0  0  0
   58.9170   25.2930   45.9730 C   0  0  0  0  0  0  0  0  0  0  0  0
   59.7210   25.9660   46.9160 C   0  0  0  0  0  0  0  0  0  0  0  0
   59.7960   27.3700   46.9190 C   0  0  0  0  0  0  0  0  0  0  0  0
   59.0710   28.0680   45.9490 C   0  0  0  0  0  0  0  0  0  0  0  0
   58.8970   29.4200   45.7000 C   0  0  0  0  0  0  0  0  0  0  0  0
   62.4614   34.6034   46.4081 H   0  0  0  0  0  0  0  0  0  0  0  0
   64.1411   34.2791   45.8602 H   0  0  0  0  0  0  0  0  0  0  0  0
   62.9253   32.9568   45.8602 H   0  0  0  0  0  0  0  0  0  0  0  0
   64.6314   33.9711   48.0520 H   0  0  0  0  0  0  0  0  0  0  0  0
   62.8723   33.8491   48.4904 H   0  0  0  0  0  0  0  0  0  0  0  0
   64.4710   31.8390   48.7880 H   0  0  0  0  0  0  0  0  0  0  0  0
   64.2270   31.6270   47.1430 H   0  0  0  0  0  0  0  0  0  0  0  0
   62.7030   30.5181   48.9675 H   0  0  0  0  0  0  0  0  0  0  0  0
   61.8563   32.1177   48.7690 H   0  0  0  0  0  0  0  0  0  0  0  0
   61.8045   31.6592   46.2772 H   0  0  0  0  0  0  0  0  0  0  0  0
   62.3538   29.9788   46.6632 H   0  0  0  0  0  0  0  0  0  0  0  0
   60.1380   30.3460   48.3140 H   0  0  0  0  0  0  0  0  0  0  0  0
   60.0644   32.9699   47.3155 H   0  0  0  0  0  0  0  0  0  0  0  0
   59.1327   35.1593   46.6026 H   0  0  0  0  0  0  0  0  0  0  0  0
   57.4100   35.2660   44.8136 H   0  0  0  0  0  0  0  0  0  0  0  0
   56.6369   33.1944   43.6853 H   0  0  0  0  0  0  0  0  0  0  0  0
   55.5953   30.7894   43.3515 H   0  0  0  0  0  0  0  0  0  0  0  0
   56.8664   31.6332   42.4032 H   0  0  0  0  0  0  0  0  0  0  0  0
   56.7884   29.8386   42.4032 H   0  0  0  0  0  0  0  0  0  0  0  0
   56.8940   28.0090   43.5290 H   0  0  0  0  0  0  0  0  0  0  0  0
   57.5286   25.5019   44.2986 H   0  0  0  0  0  0  0  0  0  0  0  0
   58.8737   24.1939   45.9774 H   0  0  0  0  0  0  0  0  0  0  0  0
   60.2943   25.3877   47.6555 H   0  0  0  0  0  0  0  0  0  0  0  0
   60.4069   27.9031   47.6624 H   0  0  0  0  0  0  0  0  0  0  0  0
  1  2  1  0
  2  3  1  0
  3  4  1  0
  4  5  1  0
  5  6  1  0
  6  7  1  0
  7  8  2  0
  8  9  1  0
  9 10  2  0
 10 11  1  0
 11 12  2  0
 12 13  1  0
 13 14  2  0
 14 15  1  0
 14 16  1  0
 16 17  1  0
 17 18  1  0
 18 19  2  0
 19 20  1  0
 20 21  2  0
 21 22  1  0
 22 23  2  0
 23 24  1  0
 24  7  1  0
 13  8  1  0
 24 16  2  0
 23 18  1  0
  1 25  1  0
  1 26  1  0
  1 27  1  0
  2 28  1  0
  2 29  1  0
  3 30  1  0
  3 31  1  0
  4 32  1  0
  4 33  1  0
  5 34  1  0
  5 35  1  0
  6 36  1  0
  9 37  1  0
 10 38  1  0
 11 39  1  0
 12 40  1  0
 15 41  1  0
 15 42  1  0
 15 43  1  0
 17 44  1  0
 19 45  1  0
 20 46  1  0
 21 47  1  0
 22 48  1  0
M  CHG  2   3   1  14   1
M  END
>  <UniqueID>  (27) 
27

>  <SMILES>  (27) 
CC[NH2+]CCNc1c2ccccc2[n+](C)c2[nH]c3ccccc3c12

>  <Energy>  (27) 
107.13626384838297

>  <Genealogy>  (27) 
CC[NH2+]CCNc1c2ccccc2[n+](C)c2[nH]c3ccccc3c12 (protonated)
CC[NH2+]CCNc1c2ccccc2[n+](C)c2[nH]c3ccccc3c12 (3D coordinates assigned)
CC[NH2+]CCNc1c2ccccc2[n+](C)c2[nH]c3ccccc3c12 (optimized conformer: 107.13626384838297 kcal/mol)

>  <smiles>  (27) 
CCNCCNc1c2ccccc2[n+](C)c2[nH]c3ccccc3c12

>  <score_type>  (27) 
oracle

>  <origin>  (27) 
adg

>  <m_score__min__energy>  (27) 
-5.1600000000000001

>  <m_primary>  (27) 
energy

$$$$
27:0
     RDKit          3D

 50 51  0  0  0  0  0  0  0  0999 V2000
   55.5540   29.7200   44.1070 C   0  0  0  0  0  0  0  0  0  0  0  0
   56.8780   30.4590   43.9610 C   0  0  0  0  0  0  0  0  0  0  0  0
   57.3330   30.9380   45.2270 O   0  0  0  0  0  0  0  0  0  0  0  0
   57.9180   32.1910   45.4700 C   0  0  0  0  0  0  0  0  0  0  0  0
   57.7360   33.2930   44.6100 C   0  0  0  0  0  0  0  0  0  0  0  0
   58.3430   34.5180   44.8930 C   0  0  0  0  0  0  0  0  0  0  0  0
   59.1370   34.6590   46.0310 C   0  0  0  0  0  0  0  0  0  0  0  0
   59.3300   33.5750   46.8900 C   0  0  0  0  0  0  0  0  0  0  0  0
   58.7240   32.3340   46.6110 C   0  0  0  0  0  0  0  0  0  0  0  0
   58.9040   31.2150   47.4390 O   0  0  0  0  0  0  0  0  0  0  0  0
   60.1600   30.6070   47.7220 C   0  0  0  0  0  0  0  0  0  0  0  0
   60.3500   29.3120   46.9000 C   0  0  0  0  0  0  0  0  0  0  0  0
   59.1730   28.8640   46.1030 N   0  0  2  0  0  0  0  0  0  0  0  0
   58.1720   28.0940   46.8970 C   0  0  0  0  0  0  0  0  0  0  0  0
   58.1900   26.5940   46.5690 C   0  0  0  0  0  0  0  0  0  0  0  0
   57.8110   26.3770   45.0800 C   0  0  2  0  0  0  0  0  0  0  0  0
   58.1100   25.0110   44.5690 N   0  0  0  0  0  0  0  0  0  0  0  0
   58.5040   24.0310   45.5980 C   0  0  0  0  0  0  0  0  0  0  0  0
   57.0140   24.4740   43.7460 C   0  0  0  0  0  0  0  0  0  0  0  0
   58.3950   27.4820   44.1580 C   0  0  0  0  0  0  0  0  0  0  0  0
   59.5680   28.2270   44.8180 C   0  0  0  0  0  0  0  0  0  0  0  0
   55.3221   29.5906   45.1745 H   0  0  0  0  0  0  0  0  0  0  0  0
   54.7542   30.3021   43.6260 H   0  0  0  0  0  0  0  0  0  0  0  0
   55.6296   28.7336   43.6260 H   0  0  0  0  0  0  0  0  0  0  0  0
   57.6298   29.7732   43.5434 H   0  0  0  0  0  0  0  0  0  0  0  0
   56.7302   31.3187   43.2908 H   0  0  0  0  0  0  0  0  0  0  0  0
   57.1119   33.1871   43.7104 H   0  0  0  0  0  0  0  0  0  0  0  0
   58.1948   35.3733   44.2174 H   0  0  0  0  0  0  0  0  0  0  0  0
   59.6122   35.6261   46.2523 H   0  0  0  0  0  0  0  0  0  0  0  0
   59.9567   33.6903   47.7866 H   0  0  0  0  0  0  0  0  0  0  0  0
   60.9654   31.3130   47.4711 H   0  0  0  0  0  0  0  0  0  0  0  0
   60.1901   30.3495   48.7910 H   0  0  0  0  0  0  0  0  0  0  0  0
   61.1854   29.4754   46.2033 H   0  0  0  0  0  0  0  0  0  0  0  0
   60.5278   28.5162   47.6383 H   0  0  0  0  0  0  0  0  0  0  0  0
   58.6890   29.7520   45.8280 H   0  0  0  0  0  0  0  0  0  0  0  0
   58.3944   28.2240   47.9664 H   0  0  0  0  0  0  0  0  0  0  0  0
   57.1741   28.4802   46.6418 H   0  0  0  0  0  0  0  0  0  0  0  0
   59.1976   26.1923   46.7516 H   0  0  0  0  0  0  0  0  0  0  0  0
   57.4620   26.0736   47.2087 H   0  0  0  0  0  0  0  0  0  0  0  0
   56.7150   26.4654   45.0497 H   0  0  0  0  0  0  0  0  0  0  0  0
   58.3320   24.4588   46.5967 H   0  0  0  0  0  0  0  0  0  0  0  0
   57.9036   23.1166   45.4824 H   0  0  0  0  0  0  0  0  0  0  0  0
   59.5703   23.7866   45.4824 H   0  0  0  0  0  0  0  0  0  0  0  0
   56.2203   24.0851   44.4009 H   0  0  0  0  0  0  0  0  0  0  0  0
   56.6062   25.2743   43.1111 H   0  0  0  0  0  0  0  0  0  0  0  0
   57.3965   23.6613   43.1111 H   0  0  0  0  0  0  0  0  0  0  0  0
   58.7499   27.0160   43.2269 H   0  0  0  0  0  0  0  0  0  0  0  0
   57.5979   28.2137   43.9599 H   0  0  0  0  0  0  0  0  0  0  0  0
   60.3795   27.5102   45.0119 H   0  0  0  0  0  0  0  0  0  0  0  0
   59.8941   29.0221   44.1314 H   0  0  0  0  0  0  0  0  0  0  0  0
  1  2  1  0
  2  3  1  0
  3  4  1  0
  4  5  2  0
  5  6  1  0
  6  7  2  0
  7  8  1  0
  8  9  2  0
  9 10  1  0
 10 11  1  0
 11 12  1  0
 12 13  1  0
 13 14  1  0
 14 15  1  0
 15 16  1  0
 16 17  1  0
 17 18  1  0
 17 19  1  0
 16 20  1  0
 20 21  1  0
  9  4  1  0
 21 13  1  0
  1 22  1  0
  1 23  1  0
  1 24  1  0
  2 25  1  0
  2 26  1  0
  5 27  1  0
  6 28  1  0
  7 29  1  0
  8 30  1  0
 11 31  1  0
 11 32  1  0
 12 33  1  0
 12 34  1  0
 13 35  1  6
 14 36  1  0
 14 37  1  0
 15 38  1  0
 15 39  1  0
 16 40  1  1
 18 41  1  0
 18 42  1  0
 18 43  1  0
 19 44  1  0
 19 45  1  0
 19 46  1  0
 20 47  1  0
 20 48  1  0
 21 49  1  0
 21 50  1  0
M  CHG  1  13   1
M  END
>  <UniqueID>  (28) 
28

>  <SMILES>  (28) 
CCOc1ccccc1OCC[NH+]1CCC(N(C)C)CC1

>  <Energy>  (28) 
61.5568821542013

>  <Genealogy>  (28) 
CCOc1ccccc1OCC[NH+]1CCC(N(C)C)CC1 (protonated)
CCOc1ccccc1OCC[NH+]1CCC(N(C)C)CC1 (3D coordinates assigned)
CCOc1ccccc1OCC[NH+]1CCC(N(C)C)CC1 (nonaromatic ring conformer: 61.5568821542013 kcal/mol)

>  <smiles>  (28) 
CCOc1ccccc1OCCN1CCC(N(C)C)CC1

>  <score_type>  (28) 
oracle

>  <origin>  (28) 
adg

>  <m_score__min__energy>  (28) 
-5.3799999999999999

>  <m_primary>  (28) 
energy

$$$$
28:0
     RDKit          3D

 52 55  0  0  0  0  0  0  0  0999 V2000
   55.1810   30.2920   44.4920 O   0  0  0  0  0  0  0  0  0  0  0  0
   56.3150   29.7480   44.5880 C   0  0  0  0  0  0  0  0  0  0  0  0
   57.5330   30.4520   44.0480 C   0  0  0  0  0  0  0  0  0  0  0  0
   57.8650   31.7100   44.7630 N   0  0  0  0  0  0  0  0  0  0  0  0
   56.7050   32.6180   44.8710 C   0  0  0  0  0  0  0  0  0  0  0  0
   57.1450   33.9950   45.4070 C   0  0  0  0  0  0  0  0  0  0  0  0
   58.1730   33.9150   46.4780 N   0  0  0  0  0  0  0  0  0  0  0  0
   59.5030   34.3960   46.0430 C   0  0  0  0  0  0  0  0  0  0  0  0
   60.5350   34.1010   47.0980 C   0  0  0  0  0  0  0  0  0  0  0  0
   60.2760   34.4370   48.4520 C   0  0  0  0  0  0  0  0  0  0  0  0
   61.2350   34.1790   49.4490 C   0  0  0  0  0  0  0  0  0  0  0  0
   62.4330   33.5890   49.0600 C   0  0  0  0  0  0  0  0  0  0  0  0
   62.6870   33.2640   47.7660 C   0  0  0  0  0  0  0  0  0  0  0  0
   61.7660   33.5020   46.7490 C   0  0  0  0  0  0  0  0  0  0  0  0
   63.9430   32.6970   47.6730 O   0  0  0  0  0  0  0  0  0  0  0  0
   64.5140   32.6630   48.9890 C   0  0  0  0  0  0  0  0  0  0  0  0
   63.5170   33.2430   49.8430 O   0  0  0  0  0  0  0  0  0  0  0  0
   58.2440   32.5820   47.1080 C   0  0  0  0  0  0  0  0  0  0  0  0
   58.5130   31.4610   46.0790 C   0  0  0  0  0  0  0  0  0  0  0  0
   56.4490   28.4680   45.2110 N   0  0  0  0  0  0  0  0  0  0  0  0
   57.6920   27.7090   45.1970 C   0  0  0  0  0  0  0  0  0  0  0  0
   58.6280   28.2770   46.2230 C   0  0  0  0  0  0  0  0  0  0  0  0
   59.9060   28.7280   45.8490 C   0  0  0  0  0  0  0  0  0  0  0  0
   60.7570   29.2960   46.8010 C   0  0  0  0  0  0  0  0  0  0  0  0
   60.3370   29.4300   48.1290 C   0  0  0  0  0  0  0  0  0  0  0  0
   61.4060   30.1480   49.3210 Cl  0  0  0  0  0  0  0  0  0  0  0  0
   59.0620   28.9940   48.5040 C   0  0  0  0  0  0  0  0  0  0  0  0
   58.2090   28.4220   47.5550 C   0  0  0  0  0  0  0  0  0  0  0  0
   58.3922   29.7699   44.1293 H   0  0  0  0  0  0  0  0  0  0  0  0
   57.3091   30.7254   43.0063 H   0  0  0  0  0  0  0  0  0  0  0  0
   58.5700   32.1940   44.1550 H   0  0  0  0  0  0  0  0  0  0  0  0
   56.2508   32.7447   43.8772 H   0  0  0  0  0  0  0  0  0  0  0  0
   55.9753   32.1813   45.5687 H   0  0  0  0  0  0  0  0  0  0  0  0
   57.5584   34.5780   44.5708 H   0  0  0  0  0  0  0  0  0  0  0  0
   56.2557   34.4693   45.8477 H   0  0  0  0  0  0  0  0  0  0  0  0
   59.7844   33.8892   45.1081 H   0  0  0  0  0  0  0  0  0  0  0  0
   59.4557   35.4832   45.8823 H   0  0  0  0  0  0  0  0  0  0  0  0
   59.3176   34.9030   48.7246 H   0  0  0  0  0  0  0  0  0  0  0  0
   61.0435   34.4355   50.5014 H   0  0  0  0  0  0  0  0  0  0  0  0
   61.9900   33.2320   45.7064 H   0  0  0  0  0  0  0  0  0  0  0  0
   64.7265   31.6269   49.2914 H   0  0  0  0  0  0  0  0  0  0  0  0
   65.4680   33.2082   49.0391 H   0  0  0  0  0  0  0  0  0  0  0  0
   59.0565   32.5840   47.8496 H   0  0  0  0  0  0  0  0  0  0  0  0
   57.2708   32.3800   47.5792 H   0  0  0  0  0  0  0  0  0  0  0  0
   59.5992   31.3803   45.9249 H   0  0  0  0  0  0  0  0  0  0  0  0
   58.0850   30.5327   46.4853 H   0  0  0  0  0  0  0  0  0  0  0  0
   57.4825   26.6553   45.4333 H   0  0  0  0  0  0  0  0  0  0  0  0
   58.1530   27.7729   44.2003 H   0  0  0  0  0  0  0  0  0  0  0  0
   60.2370   28.6335   44.8042 H   0  0  0  0  0  0  0  0  0  0  0  0
   61.7597   29.6386   46.5056 H   0  0  0  0  0  0  0  0  0  0  0  0
   58.7297   29.1012   49.5471 H   0  0  0  0  0  0  0  0  0  0  0  0
   57.2056   28.0843   47.8534 H   0  0  0  0  0  0  0  0  0  0  0  0
  1  2  2  0
  2  3  1  0
  3  4  1  0
  4  5  1  0
  5  6  1  0
  6  7  1  0
  7  8  1  0
  8  9  1  0
  9 10  2  0
 10 11  1  0
 11 12  2  0
 12 13  1  0
 13 14  2  0
 13 15  1  0
 15 16  1  0
 16 17  1  0
  7 18  1  0
 18 19  1  0
  2 20  1  0
 20 21  1  0
 21 22  1  0
 22 23  2  0
 23 24  1  0
 24 25  2  0
 25 26  1  0
 25 27  1  0
 27 28  2  0
 19  4  1  0
 28 22  1  0
 14  9  1  0
 17 12  1  0
  3 29  1  0
  3 30  1  0
  4 31  1  0
  5 32  1  0
  5 33  1  0
  6 34  1  0
  6 35  1  0
  8 36  1  0
  8 37  1  0
 10 38  1  0
 11 39  1  0
 14 40  1  0
 16 41  1  0
 16 42  1  0
 18 43  1  0
 18 44  1  0
 19 45  1  0
 19 46  1  0
 21 47  1  0
 21 48  1  0
 23 49  1  0
 24 50  1  0
 27 51  1  0
 28 52  1  0
M  CHG  2   4   1  20  -1
M  END
>  <UniqueID>  (29) 
29

>  <SMILES>  (29) 
O=C(C[NH+]1CCN(Cc2ccc3c(c2)OCO3)CC1)[N-]Cc1ccc(Cl)cc1

>  <Energy>  (29) 
94.12078211972427

>  <Genealogy>  (29) 
O=C(C[NH+]1CCN(Cc2ccc3c(c2)OCO3)CC1)[N-]Cc1ccc(Cl)cc1 (protonated)
O=C(C[NH+]1CCN(Cc2ccc3c(c2)OCO3)CC1)[N-]Cc1ccc(Cl)cc1 (3D coordinates assigned)
O=C(C[NH+]1CCN(Cc2ccc3c(c2)OCO3)CC1)[N-]Cc1ccc(Cl)cc1 (nonaromatic ring conformer: 94.12078211972427 kcal/mol)

>  <smiles>  (29) 
O=C(CN1CCN(Cc2ccc3c(c2)OCO3)CC1)NCc1ccc(Cl)cc1

>  <score_type>  (29) 
oracle

>  <origin>  (29) 
adg

>  <m_score__min__energy>  (29) 
-7.7000000000000002

>  <m_primary>  (29) 
energy

$$$$
29:0
     RDKit          3D

 51 54  0  0  0  0  0  0  0  0999 V2000
   57.2780   30.9780   43.6220 C   0  0  0  0  0  0  0  0  0  0  0  0
   56.6790   29.6380   44.0400 C   0  0  0  0  0  0  0  0  0  0  0  0
   57.6990   28.7970   44.6820 N   0  0  0  0  0  0  0  0  0  0  0  0
   57.7500   27.3520   44.4130 C   0  0  0  0  0  0  0  0  0  0  0  0
   58.1370   27.0910   42.9600 C   0  0  0  0  0  0  0  0  0  0  0  0
   58.6550   29.3890   45.5850 C   0  0  0  0  0  0  0  0  0  0  0  0
   58.2300   29.9400   46.8030 C   0  0  0  0  0  0  0  0  0  0  0  0
   59.1480   30.5530   47.6580 C   0  0  0  0  0  0  0  0  0  0  0  0
   60.5020   30.6410   47.2990 C   0  0  0  0  0  0  0  0  0  0  0  0
   61.4680   31.3550   48.1570 C   0  0  0  0  0  0  0  0  0  0  0  0
   62.6900   30.8560   48.4690 N   0  0  0  0  0  0  0  0  0  0  0  0
   63.2120   31.7870   49.2980 C   0  0  0  0  0  0  0  0  0  0  0  0
   64.4720   31.7310   49.8910 C   0  0  0  0  0  0  0  0  0  0  0  0
   64.8530   32.8010   50.7160 C   0  0  0  0  0  0  0  0  0  0  0  0
   63.9810   33.8890   50.9210 C   0  0  0  0  0  0  0  0  0  0  0  0
   64.5060   35.3490   52.0330 Br  0  0  0  0  0  0  0  0  0  0  0  0
   62.7240   33.8940   50.2950 C   0  0  0  0  0  0  0  0  0  0  0  0
   62.3940   32.8310   49.5150 N   0  0  0  0  0  0  0  0  0  0  0  0
   61.2920   32.5840   48.7920 C   0  0  0  0  0  0  0  0  0  0  0  0
   60.1770   33.4840   48.6810 N   0  0  0  0  0  0  0  0  0  0  0  0
   59.4890   33.7570   47.4480 C   0  0  0  0  0  0  0  0  0  0  0  0
   60.1580   34.3210   46.3450 C   0  0  0  0  0  0  0  0  0  0  0  0
   59.4760   34.5420   45.1460 C   0  0  0  0  0  0  0  0  0  0  0  0
   58.1200   34.2210   45.0410 C   0  0  0  0  0  0  0  0  0  0  0  0
   57.4420   33.6880   46.1400 C   0  0  0  0  0  0  0  0  0  0  0  0
   58.1210   33.4630   47.3410 C   0  0  0  0  0  0  0  0  0  0  0  0
   60.9340   30.0550   46.1010 C   0  0  0  0  0  0  0  0  0  0  0  0
   60.0160   29.4380   45.2460 C   0  0  0  0  0  0  0  0  0  0  0  0
   57.5378   31.5593   44.5190 H   0  0  0  0  0  0  0  0  0  0  0  0
   58.1839   30.8038   43.0229 H   0  0  0  0  0  0  0  0  0  0  0  0
   56.5440   31.5368   43.0229 H   0  0  0  0  0  0  0  0  0  0  0  0
   55.8565   29.8143   44.7488 H   0  0  0  0  0  0  0  0  0  0  0  0
   56.3033   29.1211   43.1447 H   0  0  0  0  0  0  0  0  0  0  0  0
   58.4952   26.8868   45.0750 H   0  0  0  0  0  0  0  0  0  0  0  0
   56.7553   26.9207   44.5987 H   0  0  0  0  0  0  0  0  0  0  0  0
   59.0486   26.4762   42.9281 H   0  0  0  0  0  0  0  0  0  0  0  0
   57.3185   26.5597   42.4523 H   0  0  0  0  0  0  0  0  0  0  0  0
   58.3229   28.0490   42.4523 H   0  0  0  0  0  0  0  0  0  0  0  0
   57.1682   29.8889   47.0859 H   0  0  0  0  0  0  0  0  0  0  0  0
   58.8083   30.9691   48.6179 H   0  0  0  0  0  0  0  0  0  0  0  0
   65.1447   30.8779   49.7185 H   0  0  0  0  0  0  0  0  0  0  0  0
   65.8381   32.7902   51.2054 H   0  0  0  0  0  0  0  0  0  0  0  0
   62.0268   34.7337   50.4319 H   0  0  0  0  0  0  0  0  0  0  0  0
   59.8600   33.9760   49.5450 H   0  0  0  0  0  0  0  0  0  0  0  0
   61.2217   34.5886   46.4277 H   0  0  0  0  0  0  0  0  0  0  0  0
   60.0074   34.9695   44.2829 H   0  0  0  0  0  0  0  0  0  0  0  0
   57.5868   34.3879   44.0935 H   0  0  0  0  0  0  0  0  0  0  0  0
   56.3722   33.4450   46.0602 H   0  0  0  0  0  0  0  0  0  0  0  0
   57.5801   33.0533   48.2068 H   0  0  0  0  0  0  0  0  0  0  0  0
   62.0004   30.0808   45.8324 H   0  0  0  0  0  0  0  0  0  0  0  0
   60.3620   28.9889   44.3033 H   0  0  0  0  0  0  0  0  0  0  0  0
  1  2  1  0
  2  3  1  0
  3  4  1  0
  4  5  1  0
  3  6  1  0
  6  7  2  0
  7  8  1  0
  8  9  2  0
  9 10  1  0
 10 11  1  0
 11 12  2  0
 12 13  1  0
 13 14  2  0
 14 15  1  0
 15 16  1  0
 15 17  2  0
 17 18  1  0
 18 19  1  0
 19 20  1  0
 20 21  1  0
 21 22  2  0
 22 23  1  0
 23 24  2  0
 24 25  1  0
 25 26  2  0
  9 27  1  0
 27 28  2  0
 28  6  1  0
 19 10  2  0
 26 21  1  0
 18 12  1  0
  1 29  1  0
  1 30  1  0
  1 31  1  0
  2 32  1  0
  2 33  1  0
  4 34  1  0
  4 35  1  0
  5 36  1  0
  5 37  1  0
  5 38  1  0
  7 39  1  0
  8 40  1  0
 13 41  1  0
 14 42  1  0
 17 43  1  0
 20 44  1  0
 22 45  1  0
 23 46  1  0
 24 47  1  0
 25 48  1  0
 26 49  1  0
 27 50  1  0
 28 51  1  0
M  END
>  <UniqueID>  (30) 
30

>  <SMILES>  (30) 
CCN(CC)c1ccc(-c2nc3ccc(Br)cn3c2Nc2ccccc2)cc1

>  <Energy>  (30) 
95.03039991589348

>  <Genealogy>  (30) 
CCN(CC)c1ccc(-c2nc3ccc(Br)cn3c2Nc2ccccc2)cc1 (3D coordinates assigned)
CCN(CC)c1ccc(-c2nc3ccc(Br)cn3c2Nc2ccccc2)cc1 (optimized conformer: 95.03039991589348 kcal/mol)

>  <smiles>  (30) 
CCN(CC)c1ccc(-c2nc3ccc(Br)cn3c2Nc2ccccc2)cc1

>  <score_type>  (30) 
oracle

>  <origin>  (30) 
adg

>  <m_score__min__energy>  (30) 
-8.25

>  <m_primary>  (30) 
energy

$$$$
30:0
     RDKit          3D

 55 57  0  0  0  0  0  0  0  0999 V2000
   63.3750   33.8620   46.3680 C   0  0  0  0  0  0  0  0  0  0  0  0
   63.4150   32.5500   47.1500 C   0  0  0  0  0  0  0  0  0  0  0  0
   62.9230   32.7200   48.5380 N   0  0  0  0  0  0  0  0  0  0  0  0
   62.5050   34.1060   48.8680 C   0  0  0  0  0  0  0  0  0  0  0  0
   61.1110   34.2090   49.5030 C   0  0  0  0  0  0  0  0  0  0  0  0
   63.8780   32.1710   49.5260 C   0  0  0  0  0  0  0  0  0  0  0  0
   63.1550   31.2320   50.4910 C   0  0  0  0  0  0  0  0  0  0  0  0
   62.2260   30.4580   49.7620 O   0  0  0  0  0  0  0  0  0  0  0  0
   60.9370   30.5450   50.3380 C   0  0  0  0  0  0  0  0  0  0  0  0
   59.8870   30.8860   49.2730 C   0  0  0  0  0  0  0  0  0  0  0  0
   60.4950   31.0260   47.9480 N   0  0  0  0  0  0  0  0  0  0  0  0
   59.7090   30.9900   46.7450 C   0  0  0  0  0  0  0  0  0  0  0  0
   59.2670   32.1860   46.1520 C   0  0  0  0  0  0  0  0  0  0  0  0
   59.6990   33.4390   46.6390 C   0  0  0  0  0  0  0  0  0  0  0  0
   59.2750   34.6210   46.0360 C   0  0  0  0  0  0  0  0  0  0  0  0
   58.4300   34.5760   44.9350 C   0  0  0  0  0  0  0  0  0  0  0  0
   57.9860   33.3500   44.4380 C   0  0  0  0  0  0  0  0  0  0  0  0
   58.3730   32.1300   45.0490 C   0  0  0  0  0  0  0  0  0  0  0  0
   57.9150   30.9070   44.5900 N   0  0  0  0  0  0  0  0  0  0  0  0
   56.7790   30.8510   43.6430 C   0  0  0  0  0  0  0  0  0  0  0  0
   58.5180   29.7390   45.0220 C   0  0  0  0  0  0  0  0  0  0  0  0
   58.2910   28.4960   44.3810 C   0  0  0  0  0  0  0  0  0  0  0  0
   58.9070   27.3380   44.8540 C   0  0  0  0  0  0  0  0  0  0  0  0
   59.7470   27.3960   45.9140 N   0  0  0  0  0  0  0  0  0  0  0  0
   60.0130   28.5650   46.5490 C   0  0  0  0  0  0  0  0  0  0  0  0
   59.4100   29.7650   46.1240 C   0  0  0  0  0  0  0  0  0  0  0  0
   63.3492   34.7074   47.0713 H   0  0  0  0  0  0  0  0  0  0  0  0
   64.2712   33.9390   45.7349 H   0  0  0  0  0  0  0  0  0  0  0  0
   62.4758   33.8842   45.7349 H   0  0  0  0  0  0  0  0  0  0  0  0
   62.7832   31.8103   46.6366 H   0  0  0  0  0  0  0  0  0  0  0  0
   64.4609   32.2125   47.1974 H   0  0  0  0  0  0  0  0  0  0  0  0
   63.2368   34.5285   49.5722 H   0  0  0  0  0  0  0  0  0  0  0  0
   62.4606   34.6574   47.9172 H   0  0  0  0  0  0  0  0  0  0  0  0
   61.2059   34.2020   50.5989 H   0  0  0  0  0  0  0  0  0  0  0  0
   60.6304   35.1451   49.1825 H   0  0  0  0  0  0  0  0  0  0  0  0
   60.4980   33.3537   49.1825 H   0  0  0  0  0  0  0  0  0  0  0  0
   64.6666   31.6140   48.9989 H   0  0  0  0  0  0  0  0  0  0  0  0
   64.3221   33.0003   50.0961 H   0  0  0  0  0  0  0  0  0  0  0  0
   63.8852   30.5700   50.9795 H   0  0  0  0  0  0  0  0  0  0  0  0
   62.6312   31.8178   51.2607 H   0  0  0  0  0  0  0  0  0  0  0  0
   60.6823   29.5796   50.7996 H   0  0  0  0  0  0  0  0  0  0  0  0
   60.9424   31.3420   51.0961 H   0  0  0  0  0  0  0  0  0  0  0  0
   59.1372   30.0819   49.2394 H   0  0  0  0  0  0  0  0  0  0  0  0
   59.4198   31.8447   49.5423 H   0  0  0  0  0  0  0  0  0  0  0  0
   61.5210   31.2210   47.8800 H   0  0  0  0  0  0  0  0  0  0  0  0
   60.3775   33.4822   47.5037 H   0  0  0  0  0  0  0  0  0  0  0  0
   59.6099   35.5909   46.4324 H   0  0  0  0  0  0  0  0  0  0  0  0
   58.1092   35.5110   44.4524 H   0  0  0  0  0  0  0  0  0  0  0  0
   57.3255   33.3295   43.5586 H   0  0  0  0  0  0  0  0  0  0  0  0
   55.8348   30.8045   44.2054 H   0  0  0  0  0  0  0  0  0  0  0  0
   56.7847   31.7505   43.0099 H   0  0  0  0  0  0  0  0  0  0  0  0
   56.8732   29.9564   43.0099 H   0  0  0  0  0  0  0  0  0  0  0  0
   57.6259   28.4443   43.5064 H   0  0  0  0  0  0  0  0  0  0  0  0
   58.7096   26.3733   44.3638 H   0  0  0  0  0  0  0  0  0  0  0  0
   60.7058   28.5759   47.4034 H   0  0  0  0  0  0  0  0  0  0  0  0
  1  2  1  0
  2  3  1  0
  3  4  1  0
  4  5  1  0
  3  6  1  0
  6  7  1  0
  7  8  1  0
  8  9  1  0
  9 10  1  0
 10 11  1  0
 11 12  1  0
 12 13  2  0
 13 14  1  0
 14 15  2  0
 15 16  1  0
 16 17  2  0
 17 18  1  0
 18 19  2  0
 19 20  1  0
 19 21  1  0
 21 22  2  0
 22 23  1  0
 23 24  2  0
 24 25  1  0
 25 26  2  0
 26 12  1  0
 18 13  1  0
 26 21  1  0
  1 27  1  0
  1 28  1  0
  1 29  1  0
  2 30  1  0
  2 31  1  0
  4 32  1  0
  4 33  1  0
  5 34  1  0
  5 35  1  0
  5 36  1  0
  6 37  1  0
  6 38  1  0
  7 39  1  0
  7 40  1  0
  9 41  1  0
  9 42  1  0
 10 43  1  0
 10 44  1  0
 11 45  1  0
 14 46  1  0
 15 47  1  0
 16 48  1  0
 17 49  1  0
 20 50  1  0
 20 51  1  0
 20 52  1  0
 22 53  1  0
 23 54  1  0
 25 55  1  0
M  CHG  1  19   1
M  END
>  <UniqueID>  (31) 
31

>  <SMILES>  (31) 
CCN(CC)CCOCCNc1c2ccccc2[n+](C)c2ccncc12

>  <Energy>  (31) 
82.82843840969237

>  <Genealogy>  (31) 
CCN(CC)CCOCCNc1c2ccccc2[n+](C)c2ccncc12 (3D coordinates assigned)
CCN(CC)CCOCCNc1c2ccccc2[n+](C)c2ccncc12 (optimized conformer: 82.82843840969237 kcal/mol)

>  <smiles>  (31) 
CCN(CC)CCOCCNc1c2ccccc2[n+](C)c2ccncc12

>  <score_type>  (31) 
oracle

>  <origin>  (31) 
adg

>  <m_score__min__energy>  (31) 
-5.0899999999999999

>  <m_primary>  (31) 
energy

$$$$
31:0
     RDKit          3D

 43 45  0  0  0  0  0  0  0  0999 V2000
   56.2720   30.3790   43.8620 C   0  0  0  0  0  0  0  0  0  0  0  0
   56.8790   30.6450   45.1230 O   0  0  0  0  0  0  0  0  0  0  0  0
   57.6860   31.7650   45.4000 C   0  0  0  0  0  0  0  0  0  0  0  0
   57.3940   33.0420   44.8660 C   0  0  0  0  0  0  0  0  0  0  0  0
   58.2270   34.1350   45.1280 C   0  0  0  0  0  0  0  0  0  0  0  0
   59.3610   33.9670   45.9230 C   0  0  0  0  0  0  0  0  0  0  0  0
   59.6570   32.7100   46.4720 C   0  0  0  0  0  0  0  0  0  0  0  0
   58.8140   31.6040   46.2410 C   0  0  0  0  0  0  0  0  0  0  0  0
   59.1440   30.2540   46.8690 C   0  0  0  0  0  0  0  0  0  0  0  0
   58.6030   29.0770   46.1260 N   0  0  0  0  0  0  0  0  0  0  0  0
   58.5110   27.8500   46.9670 C   0  0  0  0  0  0  0  0  0  0  0  0
   58.6150   26.5380   46.1600 C   0  0  0  0  0  0  0  0  0  0  0  0
   58.0610   26.6980   44.8130 N   0  0  0  0  0  0  0  0  0  0  0  0
   57.4190   25.5840   44.1620 C   0  0  0  0  0  0  0  0  0  0  0  0
   57.7630   25.2640   42.9900 O   0  0  0  0  0  0  0  0  0  0  0  0
   56.3650   24.8000   44.8300 C   0  0  0  0  0  0  0  0  0  0  0  0
   55.9690   23.5150   44.5130 C   0  0  0  0  0  0  0  0  0  0  0  0
   54.9680   23.1990   45.4100 C   0  0  0  0  0  0  0  0  0  0  0  0
   54.8130   24.3060   46.2210 C   0  0  0  0  0  0  0  0  0  0  0  0
   55.6630   25.2420   45.8530 O   0  0  0  0  0  0  0  0  0  0  0  0
   58.4970   27.8440   43.9950 C   0  0  0  0  0  0  0  0  0  0  0  0
   59.2980   28.8430   44.8400 C   0  0  0  0  0  0  0  0  0  0  0  0
   55.2749   29.9421   44.0199 H   0  0  0  0  0  0  0  0  0  0  0  0
   56.1757   31.3174   43.2962 H   0  0  0  0  0  0  0  0  0  0  0  0
   56.8967   29.6721   43.2962 H   0  0  0  0  0  0  0  0  0  0  0  0
   56.5015   33.1772   44.2374 H   0  0  0  0  0  0  0  0  0  0  0  0
   57.9886   35.1236   44.7086 H   0  0  0  0  0  0  0  0  0  0  0  0
   60.0246   34.8219   46.1199 H   0  0  0  0  0  0  0  0  0  0  0  0
   60.5582   32.5861   47.0904 H   0  0  0  0  0  0  0  0  0  0  0  0
   60.2385   30.1561   46.9178 H   0  0  0  0  0  0  0  0  0  0  0  0
   58.6669   30.2448   47.8601 H   0  0  0  0  0  0  0  0  0  0  0  0
   57.6200   29.3480   45.8800 H   0  0  0  0  0  0  0  0  0  0  0  0
   59.3280   27.8710   47.7033 H   0  0  0  0  0  0  0  0  0  0  0  0
   57.5190   27.8585   47.4423 H   0  0  0  0  0  0  0  0  0  0  0  0
   59.6733   26.2488   46.0805 H   0  0  0  0  0  0  0  0  0  0  0  0
   58.0384   25.7610   46.6833 H   0  0  0  0  0  0  0  0  0  0  0  0
   56.3685   22.8759   43.7118 H   0  0  0  0  0  0  0  0  0  0  0  0
   54.4066   22.2548   45.4672 H   0  0  0  0  0  0  0  0  0  0  0  0
   54.0912   24.3925   47.0466 H   0  0  0  0  0  0  0  0  0  0  0  0
   59.1291   27.4797   43.1717 H   0  0  0  0  0  0  0  0  0  0  0  0
   57.6063   28.3527   43.5976 H   0  0  0  0  0  0  0  0  0  0  0  0
   60.3010   28.4357   45.0350 H   0  0  0  0  0  0  0  0  0  0  0  0
   59.3859   29.7942   44.2945 H   0  0  0  0  0  0  0  0  0  0  0  0
  1  2  1  0
  2  3  1  0
  3  4  2  0
  4  5  1  0
  5  6  2  0
  6  7  1  0
  7  8  2  0
  8  9  1  0
  9 10  1  0
 10 11  1  0
 11 12  1  0
 12 13  1  0
 13 14  1  0
 14 15  2  0
 14 16  1  0
 16 17  2  0
 17 18  1  0
 18 19  2  0
 19 20  1  0
 13 21  1  0
 21 22  1  0
  8  3  1  0
 22 10  1  0
 20 16  1  0
  1 23  1  0
  1 24  1  0
  1 25  1  0
  4 26  1  0
  5 27  1  0
  6 28  1  0
  7 29  1  0
  9 30  1  0
  9 31  1  0
 10 32  1  0
 11 33  1  0
 11 34  1  0
 12 35  1  0
 12 36  1  0
 17 37  1  0
 18 38  1  0
 19 39  1  0
 21 40  1  0
 21 41  1  0
 22 42  1  0
 22 43  1  0
M  CHG  1  10   1
M  END
>  <UniqueID>  (32) 
32

>  <SMILES>  (32) 
COc1ccccc1C[NH+]1CCN(C(=O)c2ccco2)CC1

>  <Energy>  (32) 
83.85093014124932

>  <Genealogy>  (32) 
COc1ccccc1C[NH+]1CCN(C(=O)c2ccco2)CC1 (protonated)
COc1ccccc1C[NH+]1CCN(C(=O)c2ccco2)CC1 (3D coordinates assigned)
COc1ccccc1C[NH+]1CCN(C(=O)c2ccco2)CC1 (nonaromatic ring conformer: 83.85093014124932 kcal/mol)

>  <smiles>  (32) 
COc1ccccc1CN1CCN(C(=O)c2ccco2)CC1

>  <score_type>  (32) 
oracle

>  <origin>  (32) 
adg

>  <m_score__min__energy>  (32) 
-4.9500000000000002

>  <m_primary>  (32) 
energy

$$$$
32:0
     RDKit          3D

 43 44  0  0  0  0  0  0  0  0999 V2000
   56.2880   25.0790   45.3900 C   0  0  0  0  0  0  0  0  0  0  0  0
   55.9390   26.4310   45.6650 O   0  0  0  0  0  0  0  0  0  0  0  0
   56.8510   27.4250   46.0550 C   0  0  0  0  0  0  0  0  0  0  0  0
   57.9380   27.1470   46.9050 C   0  0  0  0  0  0  0  0  0  0  0  0
   58.8250   28.1610   47.2750 C   0  0  0  0  0  0  0  0  0  0  0  0
   59.8880   27.8670   48.0670 N   0  0  0  0  0  0  0  0  0  0  0  0
   60.7760   28.8240   48.4290 C   0  0  0  0  0  0  0  0  0  0  0  0
   60.6070   30.1030   48.0110 N   0  0  0  0  0  0  0  0  0  0  0  0
   59.5570   30.4670   47.2250 C   0  0  0  0  0  0  0  0  0  0  0  0
   59.4170   31.8450   46.8430 N   0  0  0  0  0  0  0  0  0  0  0  0
   60.5630   32.7500   46.7640 C   0  0  0  0  0  0  0  0  0  0  0  0
   60.1200   34.1650   46.3700 C   0  0  0  0  0  0  0  0  0  0  0  0
   59.4340   34.1910   44.9960 C   0  0  0  0  0  0  0  0  0  0  0  0
   58.2120   33.3560   45.0100 N   0  0  0  0  0  0  0  0  0  0  0  0
   57.0140   34.1770   45.2600 C   0  0  0  0  0  0  0  0  0  0  0  0
   58.0610   32.6540   43.7250 C   0  0  0  0  0  0  0  0  0  0  0  0
   58.6290   29.4820   46.8150 C   0  0  0  0  0  0  0  0  0  0  0  0
   57.5540   29.7520   45.9480 C   0  0  0  0  0  0  0  0  0  0  0  0
   56.6630   28.7270   45.5710 C   0  0  0  0  0  0  0  0  0  0  0  0
   55.5790   28.9640   44.7100 O   0  0  0  0  0  0  0  0  0  0  0  0
   55.6510   29.7160   43.5030 C   0  0  0  0  0  0  0  0  0  0  0  0
   56.4280   24.5366   46.3367 H   0  0  0  0  0  0  0  0  0  0  0  0
   55.4832   24.6032   44.8104 H   0  0  0  0  0  0  0  0  0  0  0  0
   57.2225   25.0522   44.8104 H   0  0  0  0  0  0  0  0  0  0  0  0
   58.0901   26.1243   47.2805 H   0  0  0  0  0  0  0  0  0  0  0  0
   61.6359   28.5630   49.0633 H   0  0  0  0  0  0  0  0  0  0  0  0
   58.4710   32.2450   46.6560 H   0  0  0  0  0  0  0  0  0  0  0  0
   61.0593   32.7885   47.7449 H   0  0  0  0  0  0  0  0  0  0  0  0
   61.2550   32.3730   45.9966 H   0  0  0  0  0  0  0  0  0  0  0  0
   59.4147   34.5399   47.1263 H   0  0  0  0  0  0  0  0  0  0  0  0
   61.0172   34.7989   46.3141 H   0  0  0  0  0  0  0  0  0  0  0  0
   59.1614   35.2272   44.7472 H   0  0  0  0  0  0  0  0  0  0  0  0
   60.1296   33.7905   44.2438 H   0  0  0  0  0  0  0  0  0  0  0  0
   56.8611   34.2818   46.3443 H   0  0  0  0  0  0  0  0  0  0  0  0
   57.1511   35.1719   44.8112 H   0  0  0  0  0  0  0  0  0  0  0  0
   56.1356   33.6901   44.8112 H   0  0  0  0  0  0  0  0  0  0  0  0
   57.8330   31.5941   43.9108 H   0  0  0  0  0  0  0  0  0  0  0  0
   57.2405   33.1106   43.1520 H   0  0  0  0  0  0  0  0  0  0  0  0
   58.9966   32.7328   43.1520 H   0  0  0  0  0  0  0  0  0  0  0  0
   57.4078   30.7714   45.5613 H   0  0  0  0  0  0  0  0  0  0  0  0
   55.7533   30.7847   43.7424 H   0  0  0  0  0  0  0  0  0  0  0  0
   56.5217   29.3865   42.9171 H   0  0  0  0  0  0  0  0  0  0  0  0
   54.7336   29.5577   42.9171 H   0  0  0  0  0  0  0  0  0  0  0  0
  1  2  1  0
  2  3  1  0
  3  4  2  0
  4  5  1  0
  5  6  2  0
  6  7  1  0
  7  8  2  0
  8  9  1  0
  9 10  1  0
 10 11  1  0
 11 12  1  0
 12 13  1  0
 13 14  1  0
 14 15  1  0
 14 16  1  0
  9 17  2  0
 17 18  1  0
 18 19  2  0
 19 20  1  0
 20 21  1  0
 19  3  1  0
 17  5  1  0
  1 22  1  0
  1 23  1  0
  1 24  1  0
  4 25  1  0
  7 26  1  0
 10 27  1  0
 11 28  1  0
 11 29  1  0
 12 30  1  0
 12 31  1  0
 13 32  1  0
 13 33  1  0
 15 34  1  0
 15 35  1  0
 15 36  1  0
 16 37  1  0
 16 38  1  0
 16 39  1  0
 18 40  1  0
 21 41  1  0
 21 42  1  0
 21 43  1  0
M  END
>  <UniqueID>  (33) 
33

>  <SMILES>  (33) 
COc1cc2ncnc(NCCCN(C)C)c2cc1OC

>  <Energy>  (33) 
43.08590993944254

>  <Genealogy>  (33) 
COc1cc2ncnc(NCCCN(C)C)c2cc1OC (3D coordinates assigned)
COc1cc2ncnc(NCCCN(C)C)c2cc1OC (optimized conformer: 43.08590993944254 kcal/mol)

>  <smiles>  (33) 
COc1cc2ncnc(NCCCN(C)C)c2cc1OC

>  <score_type>  (33) 
oracle

>  <origin>  (33) 
adg

>  <m_score__min__energy>  (33) 
-5.8099999999999996

>  <m_primary>  (33) 
energy

$$$$
33:0
     RDKit          3D

 23 25  0  0  0  0  0  0  0  0999 V2000
   61.2790   30.8500   47.2330 C   0  0  0  0  0  0  0  0  0  0  0  0
   60.5820   32.1730   47.1140 C   0  0  0  0  0  0  0  0  0  0  0  0
   61.1270   33.3390   47.6930 C   0  0  0  0  0  0  0  0  0  0  0  0
   60.4650   34.5790   47.5770 C   0  0  0  0  0  0  0  0  0  0  0  0
   59.2490   34.6790   46.8820 C   0  0  0  0  0  0  0  0  0  0  0  0
   58.7200   33.5220   46.3150 C   0  0  0  0  0  0  0  0  0  0  0  0
   59.3680   32.2970   46.4260 C   0  0  0  0  0  0  0  0  0  0  0  0
   58.5500   31.3060   45.7230 C   0  0  0  0  0  0  0  0  0  0  0  0
   58.7570   29.9770   45.5520 N   0  0  0  0  0  0  0  0  0  0  0  0
   57.8340   29.2570   44.8480 C   0  0  0  0  0  0  0  0  0  0  0  0
   56.6910   29.8970   44.3150 C   0  0  0  0  0  0  0  0  0  0  0  0
   56.5070   31.2380   44.5040 N   0  0  0  0  0  0  0  0  0  0  0  0
   57.4390   31.9260   45.2050 C   0  0  0  0  0  0  0  0  0  0  0  0
   57.4860   33.3390   45.5460 C   0  0  0  0  0  0  0  0  0  0  0  0
   56.6410   34.2210   45.2420 O   0  0  0  0  0  0  0  0  0  0  0  0
   61.4110   30.5994   48.2959 H   0  0  0  0  0  0  0  0  0  0  0  0
   60.6739   30.0716   46.7452 H   0  0  0  0  0  0  0  0  0  0  0  0
   62.2632   30.9089   46.7452 H   0  0  0  0  0  0  0  0  0  0  0  0
   62.0789   33.2800   48.2410 H   0  0  0  0  0  0  0  0  0  0  0  0
   60.9056   35.4766   48.0355 H   0  0  0  0  0  0  0  0  0  0  0  0
   58.7289   35.6437   46.7880 H   0  0  0  0  0  0  0  0  0  0  0  0
   57.9800   28.1775   44.6954 H   0  0  0  0  0  0  0  0  0  0  0  0
   55.9496   29.3151   43.7479 H   0  0  0  0  0  0  0  0  0  0  0  0
  1  2  1  0
  2  3  2  0
  3  4  1  0
  4  5  2  0
  5  6  1  0
  6  7  2  0
  7  8  1  0
  8  9  2  0
  9 10  1  0
 10 11  2  0
 11 12  1  0
 12 13  2  0
 13 14  1  0
 14 15  2  0
  7  2  1  0
 13  8  1  0
 14  6  1  0
  1 16  1  0
  1 17  1  0
  1 18  1  0
  3 19  1  0
  4 20  1  0
  5 21  1  0
 10 22  1  0
 11 23  1  0
M  END
>  <UniqueID>  (34) 
34

>  <SMILES>  (34) 
Cc1cccc2c1-c1nccnc1C2=O

>  <Energy>  (34) 
64.03477299311712

>  <Genealogy>  (34) 
Cc1cccc2c1-c1nccnc1C2=O (3D coordinates assigned)
Cc1cccc2c1-c1nccnc1C2=O (nonaromatic ring conformer: 64.03477299311712 kcal/mol)

>  <smiles>  (34) 
Cc1cccc2c1-c1nccnc1C2=O

>  <score_type>  (34) 
oracle

>  <origin>  (34) 
adg

>  <m_score__min__energy>  (34) 
-6.1600000000000001

>  <m_primary>  (34) 
energy

$$$$
34:0
     RDKit          3D

 51 53  0  0  0  0  0  0  0  0999 V2000
   58.4700   32.6910   48.4670 C   0  0  0  0  0  0  0  0  0  0  0  0
   58.4090   33.8520   47.4760 C   0  0  0  0  0  0  0  0  0  0  0  0
   58.4410   33.3530   46.0810 N   0  0  0  0  0  0  0  0  0  0  0  0
   59.1370   34.3160   45.1940 C   0  0  0  0  0  0  0  0  0  0  0  0
   59.9260   35.3210   46.0260 C   0  0  0  0  0  0  0  0  0  0  0  0
   57.0720   33.0700   45.5880 C   0  0  0  0  0  0  0  0  0  0  0  0
   57.0880   31.9920   44.5020 C   0  0  0  0  0  0  0  0  0  0  0  0
   56.6510   30.7620   45.0440 O   0  0  0  0  0  0  0  0  0  0  0  0
   57.0280   29.6990   44.1940 C   0  0  0  0  0  0  0  0  0  0  0  0
   58.3350   29.0680   44.6770 C   0  0  0  0  0  0  0  0  0  0  0  0
   58.4150   29.0630   46.1040 O   0  0  0  0  0  0  0  0  0  0  0  0
   59.4340   29.6490   46.8740 C   0  0  0  0  0  0  0  0  0  0  0  0
   59.8190   29.1610   48.1350 C   0  0  0  0  0  0  0  0  0  0  0  0
   60.8310   29.7920   48.8640 C   0  0  0  0  0  0  0  0  0  0  0  0
   61.4990   30.9230   48.3450 C   0  0  0  0  0  0  0  0  0  0  0  0
   61.1020   31.4090   47.0740 C   0  0  0  0  0  0  0  0  0  0  0  0
   60.0800   30.7740   46.3590 C   0  0  0  0  0  0  0  0  0  0  0  0
   61.6930   32.4690   46.5370 O   0  0  0  0  0  0  0  0  0  0  0  0
   62.6740   33.1310   47.1310 C   0  0  0  0  0  0  0  0  0  0  0  0
   63.1760   34.1280   46.5450 O   0  0  0  0  0  0  0  0  0  0  0  0
   63.1490   32.7230   48.3900 C   0  0  0  0  0  0  0  0  0  0  0  0
   64.1980   33.4130   49.0280 C   0  0  0  0  0  0  0  0  0  0  0  0
   64.6640   32.9930   50.2730 C   0  0  0  0  0  0  0  0  0  0  0  0
   64.0930   31.8860   50.8940 C   0  0  0  0  0  0  0  0  0  0  0  0
   63.0510   31.1890   50.2800 C   0  0  0  0  0  0  0  0  0  0  0  0
   62.5550   31.5960   49.0170 C   0  0  0  0  0  0  0  0  0  0  0  0
   58.4493   33.0842   49.4941 H   0  0  0  0  0  0  0  0  0  0  0  0
   57.6054   32.0293   48.3102 H   0  0  0  0  0  0  0  0  0  0  0  0
   59.3992   32.1235   48.3102 H   0  0  0  0  0  0  0  0  0  0  0  0
   57.4779   34.4152   47.6367 H   0  0  0  0  0  0  0  0  0  0  0  0
   59.2814   34.5019   47.6389 H   0  0  0  0  0  0  0  0  0  0  0  0
   59.8266   33.7694   44.5340 H   0  0  0  0  0  0  0  0  0  0  0  0
   58.3903   34.8550   44.5924 H   0  0  0  0  0  0  0  0  0  0  0  0
   59.7663   35.1176   47.0952 H   0  0  0  0  0  0  0  0  0  0  0  0
   60.9969   35.2306   45.7915 H   0  0  0  0  0  0  0  0  0  0  0  0
   59.5840   36.3399   45.7915 H   0  0  0  0  0  0  0  0  0  0  0  0
   56.4522   32.7239   46.4283 H   0  0  0  0  0  0  0  0  0  0  0  0
   56.6587   33.9936   45.1566 H   0  0  0  0  0  0  0  0  0  0  0  0
   56.4173   32.2890   43.6823 H   0  0  0  0  0  0  0  0  0  0  0  0
   58.1125   31.8771   44.1184 H   0  0  0  0  0  0  0  0  0  0  0  0
   56.2355   28.9362   44.1942 H   0  0  0  0  0  0  0  0  0  0  0  0
   57.1754   30.0906   43.1767 H   0  0  0  0  0  0  0  0  0  0  0  0
   58.3886   28.0318   44.3118 H   0  0  0  0  0  0  0  0  0  0  0  0
   59.1727   29.6636   44.2852 H   0  0  0  0  0  0  0  0  0  0  0  0
   59.3191   28.2742   48.5519 H   0  0  0  0  0  0  0  0  0  0  0  0
   61.1106   29.4029   49.8542 H   0  0  0  0  0  0  0  0  0  0  0  0
   59.7813   31.1676   45.3762 H   0  0  0  0  0  0  0  0  0  0  0  0
   64.6523   34.2885   48.5411 H   0  0  0  0  0  0  0  0  0  0  0  0
   65.4837   33.5370   50.7650 H   0  0  0  0  0  0  0  0  0  0  0  0
   64.4655   31.5580   51.8757 H   0  0  0  0  0  0  0  0  0  0  0  0
   62.6106   30.3149   50.7819 H   0  0  0  0  0  0  0  0  0  0  0  0
  1  2  1  0
  2  3  1  0
  3  4  1  0
  4  5  1  0
  3  6  1  0
  6  7  1  0
  7  8  1  0
  8  9  1  0
  9 10  1  0
 10 11  1  0
 11 12  1  0
 12 13  2  0
 13 14  1  0
 14 15  2  0
 15 16  1  0
 16 17  2  0
 16 18  1  0
 18 19  1  0
 19 20  2  0
 19 21  1  0
 21 22  2  0
 22 23  1  0
 23 24  2  0
 24 25  1  0
 25 26  2  0
 17 12  1  0
 26 21  1  0
 26 15  1  0
  1 27  1  0
  1 28  1  0
  1 29  1  0
  2 30  1  0
  2 31  1  0
  4 32  1  0
  4 33  1  0
  5 34  1  0
  5 35  1  0
  5 36  1  0
  6 37  1  0
  6 38  1  0
  7 39  1  0
  7 40  1  0
  9 41  1  0
  9 42  1  0
 10 43  1  0
 10 44  1  0
 13 45  1  0
 14 46  1  0
 17 47  1  0
 22 48  1  0
 23 49  1  0
 24 50  1  0
 25 51  1  0
M  END
>  <UniqueID>  (35) 
35

>  <SMILES>  (35) 
CCN(CC)CCOCCOc1ccc2c(c1)oc(=O)c1ccccc12

>  <Energy>  (35) 
59.33427138322206

>  <Genealogy>  (35) 
CCN(CC)CCOCCOc1ccc2c(c1)oc(=O)c1ccccc12 (3D coordinates assigned)
CCN(CC)CCOCCOc1ccc2c(c1)oc(=O)c1ccccc12 (optimized conformer: 59.33427138322206 kcal/mol)

>  <smiles>  (35) 
CCN(CC)CCOCCOc1ccc2c(c1)oc(=O)c1ccccc12

>  <score_type>  (35) 
oracle

>  <origin>  (35) 
adg

>  <m_score__min__energy>  (35) 
-7.1399999999999997

>  <m_primary>  (35) 
energy

$$$$
35:0
     RDKit          3D

 49 51  0  0  0  0  0  0  0  0999 V2000
   65.2060   32.7120   49.7510 C   0  0  0  0  0  0  0  0  0  0  0  0
   63.8460   33.0310   50.3580 C   0  0  0  0  0  0  0  0  0  0  0  0
   62.8050   32.9930   49.2970 N   0  0  0  0  0  0  0  0  0  0  0  0
   61.9590   34.2070   49.3080 C   0  0  0  0  0  0  0  0  0  0  0  0
   60.5290   33.8970   49.7530 C   0  0  0  0  0  0  0  0  0  0  0  0
   63.4010   32.7960   47.9550 C   0  0  0  0  0  0  0  0  0  0  0  0
   62.5970   31.7850   47.1250 C   0  0  0  0  0  0  0  0  0  0  0  0
   61.2540   31.5880   47.6750 N   0  0  0  0  0  0  0  0  0  0  0  0
   60.1140   31.3560   46.8300 C   0  0  0  0  0  0  0  0  0  0  0  0
   59.4970   32.4290   46.1660 C   0  0  0  0  0  0  0  0  0  0  0  0
   59.8870   33.7600   46.4240 C   0  0  0  0  0  0  0  0  0  0  0  0
   59.2510   34.8230   45.7880 C   0  0  0  0  0  0  0  0  0  0  0  0
   58.2130   34.5810   44.8950 C   0  0  0  0  0  0  0  0  0  0  0  0
   57.8160   33.2740   44.6190 C   0  0  0  0  0  0  0  0  0  0  0  0
   58.4660   32.1680   45.2240 C   0  0  0  0  0  0  0  0  0  0  0  0
   58.1120   30.8650   44.9290 N   0  0  0  0  0  0  0  0  0  0  0  0
   57.2690   30.5760   43.7470 C   0  0  0  0  0  0  0  0  0  0  0  0
   58.5540   29.8320   45.7340 C   0  0  0  0  0  0  0  0  0  0  0  0
   57.9890   28.5330   45.6570 C   0  0  0  0  0  0  0  0  0  0  0  0
   58.4550   27.4960   46.4670 C   0  0  0  0  0  0  0  0  0  0  0  0
   57.7370   25.8980   46.3490 Cl  0  0  0  0  0  0  0  0  0  0  0  0
   59.4710   27.7310   47.3880 C   0  0  0  0  0  0  0  0  0  0  0  0
   60.0220   29.0040   47.5090 C   0  0  0  0  0  0  0  0  0  0  0  0
   59.5800   30.0620   46.6880 C   0  0  0  0  0  0  0  0  0  0  0  0
   65.9358   32.5408   50.5560 H   0  0  0  0  0  0  0  0  0  0  0  0
   65.1271   31.8080   49.1293 H   0  0  0  0  0  0  0  0  0  0  0  0
   65.5373   33.5568   49.1293 H   0  0  0  0  0  0  0  0  0  0  0  0
   63.6070   32.2870   51.1322 H   0  0  0  0  0  0  0  0  0  0  0  0
   63.8729   34.0346   50.8076 H   0  0  0  0  0  0  0  0  0  0  0  0
   62.3969   34.9402   50.0013 H   0  0  0  0  0  0  0  0  0  0  0  0
   61.9200   34.6066   48.2839 H   0  0  0  0  0  0  0  0  0  0  0  0
   60.4811   33.8866   50.8519 H   0  0  0  0  0  0  0  0  0  0  0  0
   59.8484   34.6685   49.3636 H   0  0  0  0  0  0  0  0  0  0  0  0
   60.2290   32.9130   49.3636 H   0  0  0  0  0  0  0  0  0  0  0  0
   63.4171   33.7603   47.4260 H   0  0  0  0  0  0  0  0  0  0  0  0
   64.4203   32.4032   48.0844 H   0  0  0  0  0  0  0  0  0  0  0  0
   62.5100   32.1577   46.0937 H   0  0  0  0  0  0  0  0  0  0  0  0
   63.1252   30.8204   47.1489 H   0  0  0  0  0  0  0  0  0  0  0  0
   61.1130   31.6750   48.7060 H   0  0  0  0  0  0  0  0  0  0  0  0
   60.7021   33.9602   47.1351 H   0  0  0  0  0  0  0  0  0  0  0  0
   59.5702   35.8557   45.9923 H   0  0  0  0  0  0  0  0  0  0  0  0
   57.7036   35.4238   44.4049 H   0  0  0  0  0  0  0  0  0  0  0  0
   56.9849   33.0972   43.9205 H   0  0  0  0  0  0  0  0  0  0  0  0
   56.2768   30.2359   44.0786 H   0  0  0  0  0  0  0  0  0  0  0  0
   57.1606   31.4883   43.1421 H   0  0  0  0  0  0  0  0  0  0  0  0
   57.7431   29.7891   43.1421 H   0  0  0  0  0  0  0  0  0  0  0  0
   57.1707   28.3399   44.9477 H   0  0  0  0  0  0  0  0  0  0  0  0
   59.8393   26.9104   48.0212 H   0  0  0  0  0  0  0  0  0  0  0  0
   60.8110   29.1865   48.2534 H   0  0  0  0  0  0  0  0  0  0  0  0
  1  2  1  0
  2  3  1  0
  3  4  1  0
  4  5  1  0
  3  6  1  0
  6  7  1  0
  7  8  1  0
  8  9  1  0
  9 10  2  0
 10 11  1  0
 11 12  2  0
 12 13  1  0
 13 14  2  0
 14 15  1  0
 15 16  2  0
 16 17  1  0
 16 18  1  0
 18 19  2  0
 19 20  1  0
 20 21  1  0
 20 22  2  0
 22 23  1  0
 23 24  2  0
 24  9  1  0
 15 10  1  0
 24 18  1  0
  1 25  1  0
  1 26  1  0
  1 27  1  0
  2 28  1  0
  2 29  1  0
  4 30  1  0
  4 31  1  0
  5 32  1  0
  5 33  1  0
  5 34  1  0
  6 35  1  0
  6 36  1  0
  7 37  1  0
  7 38  1  0
  8 39  1  0
 11 40  1  0
 12 41  1  0
 13 42  1  0
 14 43  1  0
 17 44  1  0
 17 45  1  0
 17 46  1  0
 19 47  1  0
 22 48  1  0
 23 49  1  0
M  CHG  1  16   1
M  END
>  <UniqueID>  (36) 
36

>  <SMILES>  (36) 
CCN(CC)CCNc1c2ccccc2[n+](C)c2cc(Cl)ccc12

>  <Energy>  (36) 
72.5961287945123

>  <Genealogy>  (36) 
CCN(CC)CCNc1c2ccccc2[n+](C)c2cc(Cl)ccc12 (3D coordinates assigned)
CCN(CC)CCNc1c2ccccc2[n+](C)c2cc(Cl)ccc12 (optimized conformer: 72.5961287945123 kcal/mol)

>  <smiles>  (36) 
CCN(CC)CCNc1c2ccccc2[n+](C)c2cc(Cl)ccc12

>  <score_type>  (36) 
oracle

>  <origin>  (36) 
adg

>  <m_score__min__energy>  (36) 
-5.6100000000000003

>  <m_primary>  (36) 
energy

$$$$
36:0
     RDKit          3D

 55 57  0  0  0  0  0  0  0  0999 V2000
   59.6500   35.2930   46.7700 C   0  0  0  0  0  0  0  0  0  0  0  0
   59.3650   34.3540   45.5880 C   0  0  0  0  0  0  0  0  0  0  0  0
   58.3690   33.2990   45.8840 N   0  0  0  0  0  0  0  0  0  0  0  0
   57.8100   33.4250   47.2420 C   0  0  0  0  0  0  0  0  0  0  0  0
   57.3140   33.1960   44.8540 C   0  0  0  0  0  0  0  0  0  0  0  0
   57.4130   31.8600   44.1220 C   0  0  0  0  0  0  0  0  0  0  0  0
   56.7370   30.8540   44.8720 O   0  0  0  0  0  0  0  0  0  0  0  0
   57.3320   29.6590   45.3000 C   0  0  0  0  0  0  0  0  0  0  0  0
   56.6830   28.4050   45.2350 C   0  0  0  0  0  0  0  0  0  0  0  0
   57.3250   27.2450   45.7090 C   0  0  0  0  0  0  0  0  0  0  0  0
   58.6150   27.3390   46.2470 C   0  0  0  0  0  0  0  0  0  0  0  0
   59.2050   28.5590   46.2820 N   0  0  0  0  0  0  0  0  0  0  0  0
   60.3950   28.9230   46.7760 C   0  0  0  0  0  0  0  0  0  0  0  0
   60.4960   30.2950   46.6090 C   0  0  0  0  0  0  0  0  0  0  0  0
   61.5990   31.1540   47.1420 C   0  0  0  0  0  0  0  0  0  0  0  0
   61.0820   32.4920   47.4780 N   0  0  0  0  0  0  0  0  0  0  0  0
   61.0600   32.7480   48.9270 C   0  0  0  0  0  0  0  0  0  0  0  0
   59.9420   31.9970   49.6060 C   0  0  0  0  0  0  0  0  0  0  0  0
   59.9930   30.6010   49.7250 C   0  0  0  0  0  0  0  0  0  0  0  0
   58.9950   29.9150   50.4220 C   0  0  0  0  0  0  0  0  0  0  0  0
   57.9390   30.6110   51.0210 C   0  0  0  0  0  0  0  0  0  0  0  0
   56.9920   29.8820   51.7520 O   0  0  0  0  0  0  0  0  0  0  0  0
   56.1280   30.4440   52.7340 C   0  0  0  0  0  0  0  0  0  0  0  0
   57.8700   32.0100   50.8770 C   0  0  0  0  0  0  0  0  0  0  0  0
   58.8590   32.6950   50.1640 C   0  0  0  0  0  0  0  0  0  0  0  0
   59.3790   30.7840   46.0150 N   0  0  0  0  0  0  0  0  0  0  0  0
   58.6210   29.6830   45.8350 C   0  0  0  0  0  0  0  0  0  0  0  0
   59.4863   34.7536   47.7146 H   0  0  0  0  0  0  0  0  0  0  0  0
   60.6933   35.6380   46.7209 H   0  0  0  0  0  0  0  0  0  0  0  0
   58.9745   36.1597   46.7209 H   0  0  0  0  0  0  0  0  0  0  0  0
   58.9900   34.9582   44.7488 H   0  0  0  0  0  0  0  0  0  0  0  0
   60.3100   33.8427   45.3525 H   0  0  0  0  0  0  0  0  0  0  0  0
   58.6031   33.2462   47.9830 H   0  0  0  0  0  0  0  0  0  0  0  0
   57.4024   34.4376   47.3782 H   0  0  0  0  0  0  0  0  0  0  0  0
   57.0074   32.6852   47.3782 H   0  0  0  0  0  0  0  0  0  0  0  0
   56.3282   33.2729   45.3360 H   0  0  0  0  0  0  0  0  0  0  0  0
   57.4443   34.0114   44.1272 H   0  0  0  0  0  0  0  0  0  0  0  0
   56.9484   31.9510   43.1291 H   0  0  0  0  0  0  0  0  0  0  0  0
   58.4714   31.5826   44.0085 H   0  0  0  0  0  0  0  0  0  0  0  0
   55.6702   28.3349   44.8115 H   0  0  0  0  0  0  0  0  0  0  0  0
   56.8167   26.2709   45.6572 H   0  0  0  0  0  0  0  0  0  0  0  0
   59.1344   26.4483   46.6301 H   0  0  0  0  0  0  0  0  0  0  0  0
   61.1479   28.2603   47.2277 H   0  0  0  0  0  0  0  0  0  0  0  0
   62.0181   30.6884   48.0462 H   0  0  0  0  0  0  0  0  0  0  0  0
   62.3810   31.2527   46.3747 H   0  0  0  0  0  0  0  0  0  0  0  0
   60.0900   32.5400   47.1440 H   0  0  0  0  0  0  0  0  0  0  0  0
   62.0193   32.4291   49.3606 H   0  0  0  0  0  0  0  0  0  0  0  0
   60.8968   33.8244   49.0840 H   0  0  0  0  0  0  0  0  0  0  0  0
   60.8230   30.0428   49.2673 H   0  0  0  0  0  0  0  0  0  0  0  0
   59.0398   28.8187   50.5005 H   0  0  0  0  0  0  0  0  0  0  0  0
   56.5051   30.1987   53.7378 H   0  0  0  0  0  0  0  0  0  0  0  0
   56.0953   31.5367   52.6115 H   0  0  0  0  0  0  0  0  0  0  0  0
   55.1159   30.0309   52.6115 H   0  0  0  0  0  0  0  0  0  0  0  0
   57.0347   32.5664   51.3272 H   0  0  0  0  0  0  0  0  0  0  0  0
   58.7881   33.7857   50.0398 H   0  0  0  0  0  0  0  0  0  0  0  0
  1  2  1  0
  2  3  1  0
  3  4  1  0
  3  5  1  0
  5  6  1  0
  6  7  1  0
  7  8  1  0
  8  9  2  0
  9 10  1  0
 10 11  2  0
 11 12  1  0
 12 13  1  0
 13 14  2  0
 14 15  1  0
 15 16  1  0
 16 17  1  0
 17 18  1  0
 18 19  2  0
 19 20  1  0
 20 21  2  0
 21 22  1  0
 22 23  1  0
 21 24  1  0
 24 25  2  0
 14 26  1  0
 26 27  2  0
 27  8  1  0
 27 12  1  0
 25 18  1  0
  1 28  1  0
  1 29  1  0
  1 30  1  0
  2 31  1  0
  2 32  1  0
  4 33  1  0
  4 34  1  0
  4 35  1  0
  5 36  1  0
  5 37  1  0
  6 38  1  0
  6 39  1  0
  9 40  1  0
 10 41  1  0
 11 42  1  0
 13 43  1  0
 15 44  1  0
 15 45  1  0
 16 46  1  0
 17 47  1  0
 17 48  1  0
 19 49  1  0
 20 50  1  0
 23 51  1  0
 23 52  1  0
 23 53  1  0
 24 54  1  0
 25 55  1  0
M  END
>  <UniqueID>  (37) 
37

>  <SMILES>  (37) 
CCN(C)CCOc1cccn2cc(CNCc3ccc(OC)cc3)nc12

>  <Energy>  (37) 
81.1529474436421

>  <Genealogy>  (37) 
CCN(C)CCOc1cccn2cc(CNCc3ccc(OC)cc3)nc12 (3D coordinates assigned)
CCN(C)CCOc1cccn2cc(CNCc3ccc(OC)cc3)nc12 (optimized conformer: 81.1529474436421 kcal/mol)

>  <smiles>  (37) 
CCN(C)CCOc1cccn2cc(CNCc3ccc(OC)cc3)nc12

>  <score_type>  (37) 
oracle

>  <origin>  (37) 
adg

>  <m_score__min__energy>  (37) 
-7.1399999999999997

>  <m_primary>  (37) 
energy

$$$$
37:0
     RDKit          3D

 34 33  0  0  0  0  0  0  0  0999 V2000
   57.8590   27.8700   44.3490 C   0  0  0  0  0  0  0  0  0  0  0  0
   57.0230   28.2350   45.5660 C   0  0  0  0  0  0  0  0  0  0  0  0
   56.1670   29.3050   45.2330 O   0  0  0  0  0  0  0  0  0  0  0  0
   56.4390   29.7360   43.9160 C   0  0  0  0  0  0  0  0  0  0  0  0
   56.9370   31.1890   43.9330 C   0  0  0  0  0  0  0  0  0  0  0  0
   56.7350   31.8520   45.2330 N   0  0  0  0  0  0  0  0  0  0  0  0
   57.5070   33.0950   45.3660 C   0  0  0  0  0  0  0  0  0  0  0  0
   58.9070   32.8100   45.9310 C   0  0  0  0  0  0  0  0  0  0  0  0
   58.8850   31.9880   47.2300 C   0  0  0  0  0  0  0  0  0  0  0  0
   58.8380   30.5350   46.9470 N   0  0  0  0  0  0  0  0  0  0  0  0
   58.9350   29.7480   48.1890 C   0  0  0  0  0  0  0  0  0  0  0  0
   59.9280   30.1530   46.0360 C   0  0  0  0  0  0  0  0  0  0  0  0
   58.8211   27.4500   44.6776 H   0  0  0  0  0  0  0  0  0  0  0  0
   57.3209   27.1249   43.7446 H   0  0  0  0  0  0  0  0  0  0  0  0
   58.0397   28.7711   43.7446 H   0  0  0  0  0  0  0  0  0  0  0  0
   56.4235   27.3661   45.8753 H   0  0  0  0  0  0  0  0  0  0  0  0
   57.6834   28.5323   46.3940 H   0  0  0  0  0  0  0  0  0  0  0  0
   57.2122   29.0907   43.4736 H   0  0  0  0  0  0  0  0  0  0  0  0
   55.5176   29.6763   43.3182 H   0  0  0  0  0  0  0  0  0  0  0  0
   58.0121   31.1937   43.7005 H   0  0  0  0  0  0  0  0  0  0  0  0
   56.3526   31.7457   43.1856 H   0  0  0  0  0  0  0  0  0  0  0  0
   57.0150   31.1910   45.9960 H   0  0  0  0  0  0  0  0  0  0  0  0
   57.6063   33.5655   44.3766 H   0  0  0  0  0  0  0  0  0  0  0  0
   56.9776   33.7665   46.0579 H   0  0  0  0  0  0  0  0  0  0  0  0
   59.4812   32.2534   45.1757 H   0  0  0  0  0  0  0  0  0  0  0  0
   59.3653   33.7813   46.1688 H   0  0  0  0  0  0  0  0  0  0  0  0
   59.7925   32.2108   47.8104 H   0  0  0  0  0  0  0  0  0  0  0  0
   57.9831   32.2603   47.7978 H   0  0  0  0  0  0  0  0  0  0  0  0
   58.8522   30.4197   49.0561 H   0  0  0  0  0  0  0  0  0  0  0  0
   58.1212   29.0085   48.2190 H   0  0  0  0  0  0  0  0  0  0  0  0
   59.9040   29.2283   48.2190 H   0  0  0  0  0  0  0  0  0  0  0  0
   60.8058   29.8454   46.6232 H   0  0  0  0  0  0  0  0  0  0  0  0
   59.5996   29.3164   45.4018 H   0  0  0  0  0  0  0  0  0  0  0  0
   60.1937   31.0116   45.4018 H   0  0  0  0  0  0  0  0  0  0  0  0
  1  2  1  0
  2  3  1  0
  3  4  1  0
  4  5  1  0
  5  6  1  0
  6  7  1  0
  7  8  1  0
  8  9  1  0
  9 10  1  0
 10 11  1  0
 10 12  1  0
  1 13  1  0
  1 14  1  0
  1 15  1  0
  2 16  1  0
  2 17  1  0
  4 18  1  0
  4 19  1  0
  5 20  1  0
  5 21  1  0
  6 22  1  0
  7 23  1  0
  7 24  1  0
  8 25  1  0
  8 26  1  0
  9 27  1  0
  9 28  1  0
 11 29  1  0
 11 30  1  0
 11 31  1  0
 12 32  1  0
 12 33  1  0
 12 34  1  0
M  END
>  <UniqueID>  (38) 
38

>  <SMILES>  (38) 
CCOCCNCCCN(C)C

>  <Energy>  (38) 
23.790232534574073

>  <Genealogy>  (38) 
CCOCCNCCCN(C)C (3D coordinates assigned)
CCOCCNCCCN(C)C (optimized conformer: 23.790232534574073 kcal/mol)

>  <smiles>  (38) 
CCOCCNCCCN(C)C

>  <score_type>  (38) 
oracle

>  <origin>  (38) 
adg

>  <m_score__min__energy>  (38) 
-4.8200000000000003

>  <m_primary>  (38) 
energy

$$$$
38:0
     RDKit          3D

 62 64  0  0  0  0  0  0  0  0999 V2000
   55.5850   23.5340   43.3530 C   0  0  0  0  0  0  0  0  0  0  0  0
   56.6160   22.4510   43.0170 C   0  0  0  0  0  0  0  0  0  0  0  0
   57.2220   21.8380   44.2300 N   0  0  0  0  0  0  0  0  0  0  0  0
   56.6650   20.4810   44.4850 C   0  0  0  0  0  0  0  0  0  0  0  0
   57.0530   19.9160   45.8580 C   0  0  0  0  0  0  0  0  0  0  0  0
   58.7100   21.8680   44.1520 C   0  0  0  0  0  0  0  0  0  0  0  0
   59.3880   22.7100   45.2510 C   0  0  0  0  0  0  0  0  0  0  0  0
   58.4150   23.4920   45.9450 O   0  0  0  0  0  0  0  0  0  0  0  0
   58.2420   24.8790   45.8180 C   0  0  0  0  0  0  0  0  0  0  0  0
   58.1530   25.7420   46.9270 C   0  0  0  0  0  0  0  0  0  0  0  0
   57.9940   27.1180   46.7390 C   0  0  0  0  0  0  0  0  0  0  0  0
   57.9160   27.6590   45.4450 C   0  0  0  0  0  0  0  0  0  0  0  0
   57.7700   29.1230   45.2420 C   0  0  0  0  0  0  0  0  0  0  0  0
   56.9370   29.6240   44.2270 C   0  0  0  0  0  0  0  0  0  0  0  0
   56.8580   30.9990   43.9900 C   0  0  0  0  0  0  0  0  0  0  0  0
   57.6180   31.8950   44.7550 C   0  0  0  0  0  0  0  0  0  0  0  0
   57.6310   33.3650   44.4250 C   0  0  0  0  0  0  0  0  0  0  0  0
   57.8250   34.1730   45.6420 N   0  0  0  0  0  0  0  0  0  0  0  0
   59.0970   34.9160   45.6330 C   0  0  0  0  0  0  0  0  0  0  0  0
   60.0200   34.4260   46.7200 C   0  0  0  0  0  0  0  0  0  0  0  0
   59.6630   34.5580   48.0740 C   0  0  0  0  0  0  0  0  0  0  0  0
   60.5490   34.1570   49.0780 C   0  0  0  0  0  0  0  0  0  0  0  0
   61.7900   33.6150   48.7420 C   0  0  0  0  0  0  0  0  0  0  0  0
   62.1440   33.4590   47.3990 C   0  0  0  0  0  0  0  0  0  0  0  0
   61.2590   33.8510   46.3910 C   0  0  0  0  0  0  0  0  0  0  0  0
   58.4180   31.4030   45.7970 C   0  0  0  0  0  0  0  0  0  0  0  0
   58.4970   30.0280   46.0370 C   0  0  0  0  0  0  0  0  0  0  0  0
   57.9940   26.7920   44.3410 C   0  0  0  0  0  0  0  0  0  0  0  0
   58.1520   25.4170   44.5300 C   0  0  0  0  0  0  0  0  0  0  0  0
   55.4951   23.6284   44.4452 H   0  0  0  0  0  0  0  0  0  0  0  0
   55.9105   24.4947   42.9275 H   0  0  0  0  0  0  0  0  0  0  0  0
   54.6094   23.2562   42.9275 H   0  0  0  0  0  0  0  0  0  0  0  0
   56.1193   21.6611   42.4344 H   0  0  0  0  0  0  0  0  0  0  0  0
   57.4260   22.9293   42.4468 H   0  0  0  0  0  0  0  0  0  0  0  0
   56.9690   22.4400   45.0500 H   0  0  0  0  0  0  0  0  0  0  0  0
   55.5679   20.5370   44.4274 H   0  0  0  0  0  0  0  0  0  0  0  0
   57.0851   19.8071   43.7238 H   0  0  0  0  0  0  0  0  0  0  0  0
   56.6204   20.5459   46.6493 H   0  0  0  0  0  0  0  0  0  0  0  0
   56.6680   18.8901   45.9545 H   0  0  0  0  0  0  0  0  0  0  0  0
   58.1487   19.9070   45.9545 H   0  0  0  0  0  0  0  0  0  0  0  0
   59.0797   20.8351   44.2326 H   0  0  0  0  0  0  0  0  0  0  0  0
   58.9648   22.3408   43.1920 H   0  0  0  0  0  0  0  0  0  0  0  0
   59.8909   22.0398   45.9637 H   0  0  0  0  0  0  0  0  0  0  0  0
   60.1229   23.3829   44.7851 H   0  0  0  0  0  0  0  0  0  0  0  0
   58.2088   25.3315   47.9460 H   0  0  0  0  0  0  0  0  0  0  0  0
   57.9294   27.7834   47.6125 H   0  0  0  0  0  0  0  0  0  0  0  0
   56.3432   28.9292   43.6150 H   0  0  0  0  0  0  0  0  0  0  0  0
   56.1958   31.3804   43.1988 H   0  0  0  0  0  0  0  0  0  0  0  0
   58.4518   33.5695   43.7218 H   0  0  0  0  0  0  0  0  0  0  0  0
   56.6644   33.6336   43.9739 H   0  0  0  0  0  0  0  0  0  0  0  0
   57.0520   34.8790   45.6730 H   0  0  0  0  0  0  0  0  0  0  0  0
   59.5863   34.7787   44.6574 H   0  0  0  0  0  0  0  0  0  0  0  0
   58.8813   35.9798   45.8113 H   0  0  0  0  0  0  0  0  0  0  0  0
   58.6829   34.9783   48.3438 H   0  0  0  0  0  0  0  0  0  0  0  0
   60.2672   34.2690   50.1354 H   0  0  0  0  0  0  0  0  0  0  0  0
   62.4898   33.3105   49.5342 H   0  0  0  0  0  0  0  0  0  0  0  0
   63.1206   33.0271   47.1350 H   0  0  0  0  0  0  0  0  0  0  0  0
   61.5336   33.7088   45.3354 H   0  0  0  0  0  0  0  0  0  0  0  0
   58.9858   32.1024   46.4282 H   0  0  0  0  0  0  0  0  0  0  0  0
   59.1316   29.6512   46.8526 H   0  0  0  0  0  0  0  0  0  0  0  0
   57.9302   27.1993   43.3212 H   0  0  0  0  0  0  0  0  0  0  0  0
   58.2062   24.7503   43.6567 H   0  0  0  0  0  0  0  0  0  0  0  0
  1  2  1  0
  2  3  1  0
  3  4  1  0
  4  5  1  0
  3  6  1  0
  6  7  1  0
  7  8  1  0
  8  9  1  0
  9 10  2  0
 10 11  1  0
 11 12  2  0
 12 13  1  0
 13 14  2  0
 14 15  1  0
 15 16  2  0
 16 17  1  0
 17 18  1  0
 18 19  1  0
 19 20  1  0
 20 21  2  0
 21 22  1  0
 22 23  2  0
 23 24  1  0
 24 25  2  0
 16 26  1  0
 26 27  2  0
 12 28  1  0
 28 29  2  0
 29  9  1  0
 27 13  1  0
 25 20  1  0
  1 30  1  0
  1 31  1  0
  1 32  1  0
  2 33  1  0
  2 34  1  0
  3 35  1  0
  4 36  1  0
  4 37  1  0
  5 38  1  0
  5 39  1  0
  5 40  1  0
  6 41  1  0
  6 42  1  0
  7 43  1  0
  7 44  1  0
 10 45  1  0
 11 46  1  0
 14 47  1  0
 15 48  1  0
 17 49  1  0
 17 50  1  0
 18 51  1  0
 19 52  1  0
 19 53  1  0
 21 54  1  0
 22 55  1  0
 23 56  1  0
 24 57  1  0
 25 58  1  0
 26 59  1  0
 27 60  1  0
 28 61  1  0
 29 62  1  0
M  CHG  1   3   1
M  END
>  <UniqueID>  (39) 
39

>  <SMILES>  (39) 
CC[NH+](CC)CCOc1ccc(-c2ccc(CNCc3ccccc3)cc2)cc1

>  <Energy>  (39) 
67.16794599799135

>  <Genealogy>  (39) 
CC[NH+](CC)CCOc1ccc(-c2ccc(CNCc3ccccc3)cc2)cc1 (protonated)
CC[NH+](CC)CCOc1ccc(-c2ccc(CNCc3ccccc3)cc2)cc1 (3D coordinates assigned)
CC[NH+](CC)CCOc1ccc(-c2ccc(CNCc3ccccc3)cc2)cc1 (optimized conformer: 67.16794599799135 kcal/mol)

>  <smiles>  (39) 
CCN(CC)CCOc1ccc(-c2ccc(CNCc3ccccc3)cc2)cc1

>  <score_type>  (39) 
oracle

>  <origin>  (39) 
adg

>  <m_score__min__energy>  (39) 
-6.6799999999999997

>  <m_primary>  (39) 
energy

$$$$
39:0
     RDKit          3D

 38 39  0  0  0  0  0  0  0  0999 V2000
   60.3000   27.3910   48.1950 C   0  0  0  0  0  0  0  0  0  0  0  0
   59.0430   27.1780   47.5580 O   0  0  0  0  0  0  0  0  0  0  0  0
   58.5150   27.9830   46.5350 C   0  0  0  0  0  0  0  0  0  0  0  0
   59.1880   29.1420   46.1000 C   0  0  0  0  0  0  0  0  0  0  0  0
   58.6560   29.9350   45.0830 C   0  0  0  0  0  0  0  0  0  0  0  0
   57.4470   29.5870   44.4860 C   0  0  0  0  0  0  0  0  0  0  0  0
   56.7800   30.5900   43.2090 Cl  0  0  0  0  0  0  0  0  0  0  0  0
   56.7640   28.4440   44.9040 C   0  0  0  0  0  0  0  0  0  0  0  0
   57.2830   27.6260   45.9290 C   0  0  0  0  0  0  0  0  0  0  0  0
   56.5230   26.4140   46.3460 C   0  0  0  0  0  0  0  0  0  0  0  0
   57.1170   25.4330   46.8690 O   0  0  0  0  0  0  0  0  0  0  0  0
   55.1050   26.3530   46.1490 N   0  0  0  0  0  0  0  0  0  0  0  0
   54.4120   25.2010   45.5790 C   0  0  0  0  0  0  0  0  0  0  0  0
   55.0410   23.8950   46.0790 C   0  0  0  0  0  0  0  0  0  0  0  0
   55.3670   22.9930   44.9540 N   0  0  0  0  0  0  0  0  0  0  0  0
   56.2940   21.9140   45.3700 C   0  0  0  0  0  0  0  0  0  0  0  0
   56.9190   21.2090   44.1510 C   0  0  0  0  0  0  0  0  0  0  0  0
   56.1560   21.4540   42.9890 O   0  0  0  0  0  0  0  0  0  0  0  0
   56.2400   22.8260   42.6430 C   0  0  0  0  0  0  0  0  0  0  0  0
   55.9520   23.7590   43.8380 C   0  0  0  0  0  0  0  0  0  0  0  0
   60.1664   27.3684   49.2866 H   0  0  0  0  0  0  0  0  0  0  0  0
   61.0020   26.5990   47.8950 H   0  0  0  0  0  0  0  0  0  0  0  0
   60.7019   28.3700   47.8950 H   0  0  0  0  0  0  0  0  0  0  0  0
   60.1429   29.4245   46.5672 H   0  0  0  0  0  0  0  0  0  0  0  0
   59.1924   30.8366   44.7522 H   0  0  0  0  0  0  0  0  0  0  0  0
   55.8088   28.1777   44.4280 H   0  0  0  0  0  0  0  0  0  0  0  0
   53.3538   25.2308   45.8778 H   0  0  0  0  0  0  0  0  0  0  0  0
   54.4977   25.2406   44.4831 H   0  0  0  0  0  0  0  0  0  0  0  0
   55.9638   24.1292   46.6300 H   0  0  0  0  0  0  0  0  0  0  0  0
   54.3165   23.3878   46.7331 H   0  0  0  0  0  0  0  0  0  0  0  0
   57.0974   22.3488   45.9828 H   0  0  0  0  0  0  0  0  0  0  0  0
   55.7234   21.1700   45.9453 H   0  0  0  0  0  0  0  0  0  0  0  0
   57.9405   21.5877   43.9990 H   0  0  0  0  0  0  0  0  0  0  0  0
   56.9385   20.1255   44.3400 H   0  0  0  0  0  0  0  0  0  0  0  0
   57.2539   23.0338   42.2704 H   0  0  0  0  0  0  0  0  0  0  0  0
   55.4770   23.0230   41.8756 H   0  0  0  0  0  0  0  0  0  0  0  0
   56.8918   24.2243   44.1702 H   0  0  0  0  0  0  0  0  0  0  0  0
   55.2388   24.5350   43.5232 H   0  0  0  0  0  0  0  0  0  0  0  0
  1  2  1  0
  2  3  1  0
  3  4  2  0
  4  5  1  0
  5  6  2  0
  6  7  1  0
  6  8  1  0
  8  9  2  0
  9 10  1  0
 10 11  2  0
 10 12  1  0
 12 13  1  0
 13 14  1  0
 14 15  1  0
 15 16  1  0
 16 17  1  0
 17 18  1  0
 18 19  1  0
 19 20  1  0
  9  3  1  0
 20 15  1  0
  1 21  1  0
  1 22  1  0
  1 23  1  0
  4 24  1  0
  5 25  1  0
  8 26  1  0
 13 27  1  0
 13 28  1  0
 14 29  1  0
 14 30  1  0
 16 31  1  0
 16 32  1  0
 17 33  1  0
 17 34  1  0
 19 35  1  0
 19 36  1  0
 20 37  1  0
 20 38  1  0
M  CHG  1  12  -1
M  END
>  <UniqueID>  (40) 
40

>  <SMILES>  (40) 
COc1ccc(Cl)cc1C(=O)[N-]CCN1CCOCC1

>  <Energy>  (40) 
45.6551855043555

>  <Genealogy>  (40) 
COc1ccc(Cl)cc1C(=O)[N-]CCN1CCOCC1 (protonated)
COc1ccc(Cl)cc1C(=O)[N-]CCN1CCOCC1 (3D coordinates assigned)
COc1ccc(Cl)cc1C(=O)[N-]CCN1CCOCC1 (nonaromatic ring conformer: 45.6551855043555 kcal/mol)

>  <smiles>  (40) 
COc1ccc(Cl)cc1C(=O)NCCN1CCOCC1

>  <score_type>  (40) 
oracle

>  <origin>  (40) 
adg

>  <m_score__min__energy>  (40) 
-8.7300000000000004

>  <m_primary>  (40) 
energy

$$$$
40:0
     RDKit          3D

 43 45  0  0  1  0  0  0  0  0999 V2000
   60.3180   28.3750   47.7780 C   0  0  0  0  0  0  0  0  0  0  0  0
   59.8140   27.0180   47.3570 C   0  0  0  0  0  0  0  0  0  0  0  0
   58.5510   27.0770   46.6710 N   0  0  0  0  0  0  0  0  0  0  0  0
   57.7800   26.0130   46.4130 C   0  0  0  0  0  0  0  0  0  0  0  0
   56.6460   26.4400   45.7420 C   0  0  0  0  0  0  0  0  0  0  0  0
   56.7950   27.8060   45.6240 C   0  0  0  0  0  0  0  0  0  0  0  0
   55.9100   28.7370   45.0140 N   0  0  0  0  0  0  0  0  0  0  0  0
   56.3860   29.7310   44.3060 C   0  0  0  0  0  0  0  0  0  0  0  0
   57.0980   30.6380   44.9840 N   0  0  0  0  0  0  0  0  0  0  0  0
   57.6390   31.7130   44.3400 C   0  0  0  0  0  0  0  0  0  0  0  0
   58.4190   32.7120   45.0670 C   0  0  0  0  0  0  0  0  0  0  0  0
   58.2710   34.0610   44.8610 C   0  0  0  0  0  0  0  0  0  0  0  0
   59.0190   34.9650   45.5620 C   0  0  0  0  0  0  0  0  0  0  0  0
   59.9390   34.4910   46.4940 C   0  0  0  0  0  0  0  0  0  0  0  0
   60.1340   33.1540   46.7440 C   0  0  0  0  0  0  0  0  0  0  0  0
   60.9850   32.5860   47.6070 O   0  0  0  0  0  0  0  0  0  0  0  0
   62.2530   32.1530   47.7330 C   0  0  0  0  0  0  0  0  0  0  0  0
   63.2800   33.2490   47.6570 C   0  0  0  0  0  0  0  0  0  0  0  0
   62.8320   34.3950   48.3100 F   0  0  0  0  0  0  0  0  0  0  0  0
   64.4050   32.8000   48.3740 F   0  0  0  0  0  0  0  0  0  0  0  0
   63.6750   33.5190   46.3990 F   0  0  0  0  0  0  0  0  0  0  0  0
   59.3310   32.2800   45.9890 C   0  0  0  0  0  0  0  0  0  0  0  0
   57.3960   31.7770   42.9870 C   0  0  0  0  0  0  0  0  0  0  0  0
   56.6590   30.8280   42.3110 C   0  0  0  0  0  0  0  0  0  0  0  0
   56.1460   29.7860   42.9890 N   0  0  0  0  0  0  0  0  0  0  0  0
   57.9920   28.2100   46.2070 C   0  0  0  0  0  0  0  0  0  0  0  0
   60.3397   28.4335   48.8762 H   0  0  0  0  0  0  0  0  0  0  0  0
   61.3330   28.5281   47.3825 H   0  0  0  0  0  0  0  0  0  0  0  0
   59.6491   29.1535   47.3825 H   0  0  0  0  0  0  0  0  0  0  0  0
   60.5564   26.5606   46.6864 H   0  0  0  0  0  0  0  0  0  0  0  0
   59.6655   26.4235   48.2705 H   0  0  0  0  0  0  0  0  0  0  0  0
   58.0091   24.9729   46.6882 H   0  0  0  0  0  0  0  0  0  0  0  0
   55.8090   25.8239   45.3817 H   0  0  0  0  0  0  0  0  0  0  0  0
   57.5401   34.4196   44.1213 H   0  0  0  0  0  0  0  0  0  0  0  0
   58.8968   36.0451   45.3935 H   0  0  0  0  0  0  0  0  0  0  0  0
   60.5382   35.2219   47.0569 H   0  0  0  0  0  0  0  0  0  0  0  0
   62.3528   31.6514   48.7069 H   0  0  0  0  0  0  0  0  0  0  0  0
   62.4451   31.4753   46.8881 H   0  0  0  0  0  0  0  0  0  0  0  0
   59.4423   31.1973   46.1481 H   0  0  0  0  0  0  0  0  0  0  0  0
   57.8086   32.6239   42.4190 H   0  0  0  0  0  0  0  0  0  0  0  0
   56.4922   30.9222   41.2278 H   0  0  0  0  0  0  0  0  0  0  0  0
   55.5750   29.0340   42.5190 H   0  0  0  0  0  0  0  0  0  0  0  0
   58.3936   29.2319   46.2740 H   0  0  0  0  0  0  0  0  0  0  0  0
  1  2  1  0
  2  3  1  0
  3  4  1  0
  4  5  2  0
  5  6  1  0
  6  7  1  0
  7  8  2  0
  8  9  1  0
  9 10  2  0
 10 11  1  0
 11 12  2  0
 12 13  1  0
 13 14  2  0
 14 15  1  0
 15 16  1  0
 16 17  1  0
 17 18  1  0
 18 19  1  0
 18 20  1  0
 18 21  1  0
 15 22  2  0
 10 23  1  0
 23 24  2  0
 24 25  1  0
  6 26  2  0
 26  3  1  0
 25  8  1  0
 22 11  1  0
  1 27  1  0
  1 28  1  0
  1 29  1  0
  2 30  1  0
  2 31  1  0
  4 32  1  0
  5 33  1  0
 12 34  1  0
 13 35  1  0
 14 36  1  0
 17 37  1  0
 17 38  1  0
 22 39  1  0
 23 40  1  0
 24 41  1  0
 25 42  1  0
 26 43  1  0
M  END
>  <smiles>  (41) 
CCn1ccc(N=c2nc(-c3cccc(OCC(F)(F)F)c3)cc[nH]2)c1

>  <score_type>  (41) 
oracle

>  <origin>  (41) 
adg

>  <m_score__min__energy>  (41) 
-7.4100000000000001

>  <m_primary>  (41) 
energy

$$$$
41:0
     RDKit          3D

 36 38  0  0  1  0  0  0  0  0999 V2000
   60.7890   26.3510   47.0700 C   0  0  0  0  0  0  0  0  0  0  0  0
   60.6890   27.7220   47.7470 C   0  0  0  0  0  0  0  0  0  0  0  0
   59.7550   28.5680   46.9940 N   0  0  0  0  0  0  0  0  0  0  0  0
   59.9610   29.8620   46.6760 C   0  0  0  0  0  0  0  0  0  0  0  0
   58.8830   30.2900   45.9870 N   0  0  0  0  0  0  0  0  0  0  0  0
   58.0300   29.2640   45.8890 C   0  0  0  0  0  0  0  0  0  0  0  0
   56.7880   29.1470   45.2960 C   0  0  0  0  0  0  0  0  0  0  0  0
   56.2810   30.1720   44.7010 N   0  0  0  0  0  0  0  0  0  0  0  0
   56.9520   30.9460   43.6810 C   0  0  0  0  0  0  0  0  0  0  0  0
   57.4620   32.1640   44.4100 C   0  0  0  0  0  0  0  0  0  0  0  0
   58.4160   32.9900   43.8560 C   0  0  0  0  0  0  0  0  0  0  0  0
   58.8860   34.1090   44.5240 C   0  0  0  0  0  0  0  0  0  0  0  0
   58.3860   34.4060   45.7760 C   0  0  0  0  0  0  0  0  0  0  0  0
   57.4440   33.5760   46.3050 C   0  0  0  0  0  0  0  0  0  0  0  0
   56.9870   32.4800   45.6460 N   0  0  0  0  0  0  0  0  0  0  0  0
   56.0860   27.9990   45.3150 N   0  0  0  0  0  0  0  0  0  0  0  0
   56.6320   26.9270   45.9450 C   0  0  0  0  0  0  0  0  0  0  0  0
   55.8920   25.6340   45.9910 C   0  0  0  0  0  0  0  0  0  0  0  0
   57.8580   27.0120   46.5390 N   0  0  0  0  0  0  0  0  0  0  0  0
   58.5590   28.1620   46.5190 C   0  0  0  0  0  0  0  0  0  0  0  0
   60.8463   25.5659   47.8384 H   0  0  0  0  0  0  0  0  0  0  0  0
   59.9005   26.1861   46.4428 H   0  0  0  0  0  0  0  0  0  0  0  0
   61.6920   26.3168   46.4428 H   0  0  0  0  0  0  0  0  0  0  0  0
   60.3233   27.5974   48.7769 H   0  0  0  0  0  0  0  0  0  0  0  0
   61.6813   28.1962   47.7673 H   0  0  0  0  0  0  0  0  0  0  0  0
   60.8477   30.4605   46.9321 H   0  0  0  0  0  0  0  0  0  0  0  0
   57.7855   30.3759   43.2449 H   0  0  0  0  0  0  0  0  0  0  0  0
   56.2857   31.2057   42.8452 H   0  0  0  0  0  0  0  0  0  0  0  0
   58.8144   32.7548   42.8580 H   0  0  0  0  0  0  0  0  0  0  0  0
   59.6487   34.7533   44.0622 H   0  0  0  0  0  0  0  0  0  0  0  0
   58.7383   35.2880   46.3309 H   0  0  0  0  0  0  0  0  0  0  0  0
   57.0388   33.8019   47.3024 H   0  0  0  0  0  0  0  0  0  0  0  0
   55.1510   27.9200   44.8660 H   0  0  0  0  0  0  0  0  0  0  0  0
   55.7259   25.3437   47.0389 H   0  0  0  0  0  0  0  0  0  0  0  0
   54.9225   25.7482   45.4840 H   0  0  0  0  0  0  0  0  0  0  0  0
   56.4815   24.8559   45.4840 H   0  0  0  0  0  0  0  0  0  0  0  0
  1  2  1  0
  2  3  1  0
  3  4  1  0
  4  5  2  0
  5  6  1  0
  6  7  1  0
  7  8  2  0
  8  9  1  0
  9 10  1  0
 10 11  2  0
 11 12  1  0
 12 13  2  0
 13 14  1  0
 14 15  2  0
  7 16  1  0
 16 17  1  0
 17 18  1  0
 17 19  2  0
 19 20  1  0
 20  3  1  0
 20  6  2  0
 15 10  1  0
  1 21  1  0
  1 22  1  0
  1 23  1  0
  2 24  1  0
  2 25  1  0
  4 26  1  0
  9 27  1  0
  9 28  1  0
 11 29  1  0
 12 30  1  0
 13 31  1  0
 14 32  1  0
 16 33  1  0
 18 34  1  0
 18 35  1  0
 18 36  1  0
M  END
>  <smiles>  (42) 
CCn1cnc2c(=NCc3ccccn3)[nH]c(C)nc21

>  <score_type>  (42) 
oracle

>  <origin>  (42) 
adg

>  <m_score__min__energy>  (42) 
-6.71

>  <m_primary>  (42) 
energy

$$$$
42:0
     RDKit          3D

 46 48  0  0  0  0  0  0  0  0999 V2000
   61.6770   33.2200   47.7910 C   0  0  0  0  0  0  0  0  0  0  0  0
   60.4040   33.5520   48.5630 C   0  0  0  0  0  0  0  0  0  0  0  0
   59.2330   33.0190   47.8590 N   0  0  0  0  0  0  0  0  0  0  0  0
   58.1430   32.3770   48.5990 C   0  0  0  0  0  0  0  0  0  0  0  0
   58.5790   32.0830   50.0300 C   0  0  0  0  0  0  0  0  0  0  0  0
   59.0730   33.2840   46.4580 C   0  0  0  0  0  0  0  0  0  0  0  0
   59.5460   34.4060   45.7930 C   0  0  0  0  0  0  0  0  0  0  0  0
   59.1620   34.2650   44.4650 C   0  0  0  0  0  0  0  0  0  0  0  0
   58.4680   33.0710   44.3950 C   0  0  0  0  0  0  0  0  0  0  0  0
   57.8540   32.4930   43.2890 C   0  0  0  0  0  0  0  0  0  0  0  0
   57.1730   31.2790   43.4770 C   0  0  0  0  0  0  0  0  0  0  0  0
   57.1240   30.6680   44.7540 C   0  0  0  0  0  0  0  0  0  0  0  0
   56.4080   29.3900   44.9580 C   0  0  0  0  0  0  0  0  0  0  0  0
   55.1480   29.3580   44.8960 O   0  0  0  0  0  0  0  0  0  0  0  0
   57.1410   28.1870   45.2120 N   0  0  0  0  0  0  0  0  0  0  0  0
   58.5740   28.0460   44.9650 C   0  0  0  0  0  0  0  0  0  0  0  0
   59.3490   28.6560   46.0990 C   0  0  0  0  0  0  0  0  0  0  0  0
   58.9760   28.4210   47.4310 C   0  0  0  0  0  0  0  0  0  0  0  0
   59.6700   29.0370   48.4760 C   0  0  0  0  0  0  0  0  0  0  0  0
   60.7390   29.8940   48.1990 C   0  0  0  0  0  0  0  0  0  0  0  0
   61.1130   30.1360   46.8770 C   0  0  0  0  0  0  0  0  0  0  0  0
   60.4220   29.5190   45.8290 C   0  0  0  0  0  0  0  0  0  0  0  0
   57.7730   31.3050   45.8320 C   0  0  0  0  0  0  0  0  0  0  0  0
   58.4200   32.4780   45.6010 N   0  0  0  0  0  0  0  0  0  0  0  0
   62.4909   33.0077   48.4999 H   0  0  0  0  0  0  0  0  0  0  0  0
   61.5024   32.3373   47.1582 H   0  0  0  0  0  0  0  0  0  0  0  0
   61.9557   34.0755   47.1582 H   0  0  0  0  0  0  0  0  0  0  0  0
   60.4600   33.1044   49.5663 H   0  0  0  0  0  0  0  0  0  0  0  0
   60.3078   34.6447   48.6449 H   0  0  0  0  0  0  0  0  0  0  0  0
   57.2710   33.0473   48.6154 H   0  0  0  0  0  0  0  0  0  0  0  0
   57.8807   31.4311   48.1024 H   0  0  0  0  0  0  0  0  0  0  0  0
   57.8768   32.5565   50.7319 H   0  0  0  0  0  0  0  0  0  0  0  0
   58.5853   30.9955   50.1953 H   0  0  0  0  0  0  0  0  0  0  0  0
   59.5895   32.4848   50.1953 H   0  0  0  0  0  0  0  0  0  0  0  0
   60.1125   35.2414   46.2302 H   0  0  0  0  0  0  0  0  0  0  0  0
   59.3680   34.9609   43.6384 H   0  0  0  0  0  0  0  0  0  0  0  0
   57.9002   32.9710   42.2994 H   0  0  0  0  0  0  0  0  0  0  0  0
   56.6726   30.7978   42.6238 H   0  0  0  0  0  0  0  0  0  0  0  0
   58.8270   26.9787   44.8824 H   0  0  0  0  0  0  0  0  0  0  0  0
   58.8335   28.5622   44.0289 H   0  0  0  0  0  0  0  0  0  0  0  0
   58.1339   27.7492   47.6537 H   0  0  0  0  0  0  0  0  0  0  0  0
   59.3745   28.8471   49.5184 H   0  0  0  0  0  0  0  0  0  0  0  0
   61.2849   30.3772   49.0227 H   0  0  0  0  0  0  0  0  0  0  0  0
   61.9522   30.8128   46.6585 H   0  0  0  0  0  0  0  0  0  0  0  0
   60.7212   29.7112   44.7881 H   0  0  0  0  0  0  0  0  0  0  0  0
   57.7560   30.8619   46.8387 H   0  0  0  0  0  0  0  0  0  0  0  0
  1  2  1  0
  2  3  1  0
  3  4  1  0
  4  5  1  0
  3  6  1  0
  6  7  2  0
  7  8  1  0
  8  9  2  0
  9 10  1  0
 10 11  2  0
 11 12  1  0
 12 13  1  0
 13 14  2  0
 13 15  1  0
 15 16  1  0
 16 17  1  0
 17 18  2  0
 18 19  1  0
 19 20  2  0
 20 21  1  0
 21 22  2  0
 12 23  2  0
 23 24  1  0
 24  6  1  0
 24  9  1  0
 22 17  1  0
  1 25  1  0
  1 26  1  0
  1 27  1  0
  2 28  1  0
  2 29  1  0
  4 30  1  0
  4 31  1  0
  5 32  1  0
  5 33  1  0
  5 34  1  0
  7 35  1  0
  8 36  1  0
 10 37  1  0
 11 38  1  0
 16 39  1  0
 16 40  1  0
 18 41  1  0
 19 42  1  0
 20 43  1  0
 21 44  1  0
 22 45  1  0
 23 46  1  0
M  CHG  1  15  -1
M  END
>  <UniqueID>  (43) 
41

>  <SMILES>  (43) 
CCN(CC)c1ccc2ccc(C(=O)[N-]Cc3ccccc3)cn12

>  <Energy>  (43) 
75.51335691835212

>  <Genealogy>  (43) 
CCN(CC)c1ccc2ccc(C(=O)[N-]Cc3ccccc3)cn12 (protonated)
CCN(CC)c1ccc2ccc(C(=O)[N-]Cc3ccccc3)cn12 (3D coordinates assigned)
CCN(CC)c1ccc2ccc(C(=O)[N-]Cc3ccccc3)cn12 (optimized conformer: 75.51335691835212 kcal/mol)

>  <smiles>  (43) 
CCN(CC)c1ccc2ccc(C(=O)NCc3ccccc3)cn12

>  <score_type>  (43) 
oracle

>  <origin>  (43) 
adg

>  <m_score__min__energy>  (43) 
-8.8100000000000005

>  <m_primary>  (43) 
energy

$$$$
43:0
     RDKit          3D

 52 55  0  0  1  0  0  0  0  0999 V2000
   65.6610   32.4640   50.1130 C   0  0  0  0  0  0  0  0  0  0  0  0
   64.3690   32.9960   49.8920 O   0  0  0  0  0  0  0  0  0  0  0  0
   63.3930   32.1680   49.3490 C   0  0  0  0  0  0  0  0  0  0  0  0
   63.2100   32.0950   47.9850 C   0  0  0  0  0  0  0  0  0  0  0  0
   62.2370   31.2710   47.4420 C   0  0  0  0  0  0  0  0  0  0  0  0
   61.4390   30.5110   48.2640 C   0  0  0  0  0  0  0  0  0  0  0  0
   60.4200   29.6410   47.7840 N   0  0  0  0  0  0  0  0  0  0  0  0
   60.1430   28.4340   48.3550 C   0  0  0  0  0  0  0  0  0  0  0  0
   59.1010   27.8950   47.6080 C   0  0  0  0  0  0  0  0  0  0  0  0
   58.4160   26.7410   47.6970 N   0  0  0  0  0  0  0  0  0  0  0  0
   57.4200   26.4160   46.8460 C   0  0  0  0  0  0  0  0  0  0  0  0
   56.8480   25.2770   47.0450 N   0  0  0  0  0  0  0  0  0  0  0  0
   56.5350   24.4790   45.8730 C   0  0  0  0  0  0  0  0  0  0  0  0
   55.0650   24.7320   45.5620 C   0  0  1  0  0  0  0  0  0  0  0  0
   54.1990   23.7290   46.2730 C   0  0  0  0  0  0  0  0  0  0  0  0
   54.6700   25.9980   45.9540 O   0  0  0  0  0  0  0  0  0  0  0  0
   57.0880   27.2600   45.8720 N   0  0  0  0  0  0  0  0  0  0  0  0
   57.7540   28.4430   45.7410 C   0  0  0  0  0  0  0  0  0  0  0  0
   57.4340   29.3750   44.7170 N   0  0  0  0  0  0  0  0  0  0  0  0
   58.4390   30.2540   44.1310 C   0  0  0  0  0  0  0  0  0  0  0  0
   57.6700   31.4560   43.5950 C   0  0  0  0  0  0  0  0  0  0  0  0
   56.7910   31.1190   42.5920 O   0  0  0  0  0  0  0  0  0  0  0  0
   56.2810   29.8390   42.7000 C   0  0  0  0  0  0  0  0  0  0  0  0
   56.0790   29.5140   44.1850 C   0  0  0  0  0  0  0  0  0  0  0  0
   58.7780   28.7950   46.6040 C   0  0  0  0  0  0  0  0  0  0  0  0
   59.6060   29.8310   46.7580 N   0  0  0  0  0  0  0  0  0  0  0  0
   61.5980   30.5600   49.6490 C   0  0  0  0  0  0  0  0  0  0  0  0
   62.5730   31.3890   50.1640 C   0  0  0  0  0  0  0  0  0  0  0  0
   65.8461   32.3878   51.1946 H   0  0  0  0  0  0  0  0  0  0  0  0
   65.7288   31.4648   49.6581 H   0  0  0  0  0  0  0  0  0  0  0  0
   66.4128   33.1258   49.6581 H   0  0  0  0  0  0  0  0  0  0  0  0
   63.8442   32.6984   47.3189 H   0  0  0  0  0  0  0  0  0  0  0  0
   62.1029   31.2250   46.3512 H   0  0  0  0  0  0  0  0  0  0  0  0
   60.6403   27.9809   49.2253 H   0  0  0  0  0  0  0  0  0  0  0  0
   58.6970   26.0960   48.4700 H   0  0  0  0  0  0  0  0  0  0  0  0
   57.1623   24.7876   45.0237 H   0  0  0  0  0  0  0  0  0  0  0  0
   56.7268   23.4111   46.0542 H   0  0  0  0  0  0  0  0  0  0  0  0
   54.9478   24.6384   44.4723 H   0  0  0  0  0  0  0  0  0  0  0  0
   54.3083   23.8556   47.3602 H   0  0  0  0  0  0  0  0  0  0  0  0
   53.1478   23.8858   45.9894 H   0  0  0  0  0  0  0  0  0  0  0  0
   54.5074   22.7119   45.9894 H   0  0  0  0  0  0  0  0  0  0  0  0
   55.1410   26.3140   46.7740 H   0  0  0  0  0  0  0  0  0  0  0  0
   59.1638   30.5715   44.8950 H   0  0  0  0  0  0  0  0  0  0  0  0
   59.0088   29.7485   43.3374 H   0  0  0  0  0  0  0  0  0  0  0  0
   57.1035   31.9088   44.4221 H   0  0  0  0  0  0  0  0  0  0  0  0
   58.4035   32.1583   43.1722 H   0  0  0  0  0  0  0  0  0  0  0  0
   55.3171   29.7790   42.1735 H   0  0  0  0  0  0  0  0  0  0  0  0
   56.9795   29.1180   42.2502 H   0  0  0  0  0  0  0  0  0  0  0  0
   55.5439   30.3303   44.6924 H   0  0  0  0  0  0  0  0  0  0  0  0
   55.4752   28.6071   44.3363 H   0  0  0  0  0  0  0  0  0  0  0  0
   60.9633   29.9542   50.3124 H   0  0  0  0  0  0  0  0  0  0  0  0
   62.7080   31.4370   51.2546 H   0  0  0  0  0  0  0  0  0  0  0  0
  1  2  1  0
  2  3  1  0
  3  4  2  0
  4  5  1  0
  5  6  2  0
  6  7  1  0
  7  8  1  0
  8  9  2  0
  9 10  1  0
 10 11  1  0
 11 12  2  0
 12 13  1  0
 13 14  1  0
 14 15  1  0
 14 16  1  0
 11 17  1  0
 17 18  2  0
 18 19  1  0
 19 20  1  0
 20 21  1  0
 21 22  1  0
 22 23  1  0
 23 24  1  0
 18 25  1  0
 25 26  2  0
  6 27  1  0
 27 28  2  0
 28  3  1  0
 26  7  1  0
 25  9  1  0
 24 19  1  0
  1 29  1  0
  1 30  1  0
  1 31  1  0
  4 32  1  0
  5 33  1  0
  8 34  1  0
 10 35  1  0
 13 36  1  0
 13 37  1  0
 14 38  1  6
 15 39  1  0
 15 40  1  0
 15 41  1  0
 16 42  1  0
 20 43  1  0
 20 44  1  0
 21 45  1  0
 21 46  1  0
 23 47  1  0
 23 48  1  0
 24 49  1  0
 24 50  1  0
 27 51  1  0
 28 52  1  0
M  END
>  <smiles>  (44) 
COc1ccc(-n2cc3[nH]c(=NCC(C)O)nc(N4CCOCC4)c3n2)cc1

>  <score_type>  (44) 
oracle

>  <origin>  (44) 
adg

>  <m_score__min__energy>  (44) 
-7.5700000000000003

>  <m_primary>  (44) 
energy

$$$$
