0:0
     RDKit          3D

 29 30  0  0  0  0  0  0  0  0999 V2000
   57.6070   31.4320   43.7670 C   0  0  0  0  0  0  0  0  0  0  0  0
   57.1480   31.4290   45.1020 O   0  0  0  0  0  0  0  0  0  0  0  0
   57.0190   32.7550   45.5770 C   0  0  0  0  0  0  0  0  0  0  0  0
   58.3700   33.3430   45.8850 C   0  0  0  0  0  0  0  0  0  0  0  0
   58.7410   34.6400   45.5840 C   0  0  0  0  0  0  0  0  0  0  0  0
   60.0510   34.7770   45.9880 C   0  0  0  0  0  0  0  0  0  0  0  0
   60.4330   33.5580   46.5180 C   0  0  0  0  0  0  0  0  0  0  0  0
   61.7790   33.2850   47.0590 C   0  0  0  0  0  0  0  0  0  0  0  0
   62.9330   33.4430   46.3770 N   0  0  0  0  0  0  0  0  0  0  0  0
   63.8920   33.0950   47.2190 N   0  0  0  0  0  0  0  0  0  0  0  0
   63.3040   32.7360   48.3720 C   0  0  0  0  0  0  0  0  0  0  0  0
   64.0350   32.2950   49.5950 C   0  0  0  0  0  0  0  0  0  0  0  0
   62.0020   32.8550   48.2820 O   0  0  0  0  0  0  0  0  0  0  0  0
   59.4050   32.6780   46.4530 N   0  0  0  0  0  0  0  0  0  0  0  0
   59.4170   31.2830   46.9000 C   0  0  0  0  0  0  0  0  0  0  0  0
   58.7069   31.4392   43.7575 H   0  0  0  0  0  0  0  0  0  0  0  0
   57.2417   30.5314   43.2517 H   0  0  0  0  0  0  0  0  0  0  0  0
   57.2300   32.3277   43.2517 H   0  0  0  0  0  0  0  0  0  0  0  0
   56.5252   33.3676   44.8083 H   0  0  0  0  0  0  0  0  0  0  0  0
   56.4193   32.7439   46.4991 H   0  0  0  0  0  0  0  0  0  0  0  0
   58.1134   35.4115   45.1140 H   0  0  0  0  0  0  0  0  0  0  0  0
   60.6726   35.6807   45.9051 H   0  0  0  0  0  0  0  0  0  0  0  0
   64.9120   33.1080   47.0030 H   0  0  0  0  0  0  0  0  0  0  0  0
   63.4866   32.6259   50.4893 H   0  0  0  0  0  0  0  0  0  0  0  0
   64.1148   31.1979   49.5988 H   0  0  0  0  0  0  0  0  0  0  0  0
   65.0427   32.7360   49.5988 H   0  0  0  0  0  0  0  0  0  0  0  0
   59.4173   31.2503   47.9995 H   0  0  0  0  0  0  0  0  0  0  0  0
   58.5233   30.7679   46.5181 H   0  0  0  0  0  0  0  0  0  0  0  0
   60.3195   30.7833   46.5181 H   0  0  0  0  0  0  0  0  0  0  0  0
  1  2  1  0
  2  3  1  0
  3  4  1  0
  4  5  2  0
  5  6  1  0
  6  7  2  0
  7  8  1  0
  8  9  2  0
  9 10  1  0
 10 11  2  0
 11 12  1  0
 11 13  1  0
  7 14  1  0
 14 15  1  0
 14  4  1  0
 13  8  1  0
  1 16  1  0
  1 17  1  0
  1 18  1  0
  3 19  1  0
  3 20  1  0
  5 21  1  0
  6 22  1  0
 10 23  1  0
 12 24  1  0
 12 25  1  0
 12 26  1  0
 15 27  1  0
 15 28  1  0
 15 29  1  0
M  CHG  1  10   1
M  END
>  <UniqueID>  (1) 
1

>  <SMILES>  (1) 
COCc1ccc(-c2n[nH+]c(C)o2)n1C

>  <Energy>  (1) 
90.11321183292344

>  <Genealogy>  (1) 
COCc1ccc(-c2n[nH+]c(C)o2)n1C (protonated)
COCc1ccc(-c2n[nH+]c(C)o2)n1C (3D coordinates assigned)
COCc1ccc(-c2n[nH+]c(C)o2)n1C (optimized conformer: 90.11321183292344 kcal/mol)

>  <smiles>  (1) 
COCc1ccc(-c2nnc(C)o2)n1C

>  <score_type>  (1) 
oracle

>  <origin>  (1) 
adg

>  <m_score__min__energy>  (1) 
-4.5099999999999998

>  <m_primary>  (1) 
energy

$$$$
1:0
     RDKit          3D

 33 35  0  0  0  0  0  0  0  0999 V2000
   63.3400   33.1700   47.1150 C   0  0  0  0  0  0  0  0  0  0  0  0
   62.6470   31.8290   47.3360 C   0  0  0  0  0  0  0  0  0  0  0  0
   61.2790   31.9590   48.0340 C   0  0  0  0  0  0  0  0  0  0  0  0
   60.1480   31.6130   47.1280 N   0  0  0  0  0  0  0  0  0  0  0  0
   59.7160   30.2920   47.0500 C   0  0  0  0  0  0  0  0  0  0  0  0
   60.3760   29.2330   47.7350 C   0  0  0  0  0  0  0  0  0  0  0  0
   59.9180   27.9180   47.6560 C   0  0  0  0  0  0  0  0  0  0  0  0
   58.7960   27.6110   46.8970 C   0  0  0  0  0  0  0  0  0  0  0  0
   58.1300   28.6180   46.2060 C   0  0  0  0  0  0  0  0  0  0  0  0
   58.5780   29.9540   46.2680 C   0  0  0  0  0  0  0  0  0  0  0  0
   57.9010   30.9520   45.5610 C   0  0  0  0  0  0  0  0  0  0  0  0
   56.8800   30.6590   44.8750 O   0  0  0  0  0  0  0  0  0  0  0  0
   58.3600   32.2720   45.6040 C   0  0  0  0  0  0  0  0  0  0  0  0
   57.6880   33.2750   44.8710 C   0  0  0  0  0  0  0  0  0  0  0  0
   58.1410   34.5890   44.8850 C   0  0  0  0  0  0  0  0  0  0  0  0
   59.2670   34.9240   45.6210 C   0  0  0  0  0  0  0  0  0  0  0  0
   59.9440   33.9530   46.3570 C   0  0  0  0  0  0  0  0  0  0  0  0
   59.5040   32.5980   46.3840 C   0  0  0  0  0  0  0  0  0  0  0  0
   63.5755   33.6258   48.0880 H   0  0  0  0  0  0  0  0  0  0  0  0
   64.2700   33.0132   46.5488 H   0  0  0  0  0  0  0  0  0  0  0  0
   62.6742   33.8379   46.5488 H   0  0  0  0  0  0  0  0  0  0  0  0
   62.4960   31.3484   46.3581 H   0  0  0  0  0  0  0  0  0  0  0  0
   63.2943   31.2318   47.9951 H   0  0  0  0  0  0  0  0  0  0  0  0
   61.2581   31.2819   48.9007 H   0  0  0  0  0  0  0  0  0  0  0  0
   61.1558   33.0080   48.3413 H   0  0  0  0  0  0  0  0  0  0  0  0
   61.2670   29.4567   48.3401 H   0  0  0  0  0  0  0  0  0  0  0  0
   60.4478   27.1203   48.1973 H   0  0  0  0  0  0  0  0  0  0  0  0
   58.4347   26.5735   46.8424 H   0  0  0  0  0  0  0  0  0  0  0  0
   57.2435   28.3694   45.6041 H   0  0  0  0  0  0  0  0  0  0  0  0
   56.7962   33.0134   44.2825 H   0  0  0  0  0  0  0  0  0  0  0  0
   57.6068   35.3619   44.3129 H   0  0  0  0  0  0  0  0  0  0  0  0
   59.6286   35.9629   45.6242 H   0  0  0  0  0  0  0  0  0  0  0  0
   60.8383   34.2393   46.9300 H   0  0  0  0  0  0  0  0  0  0  0  0
  1  2  1  0
  2  3  1  0
  3  4  1  0
  4  5  1  0
  5  6  2  0
  6  7  1  0
  7  8  2  0
  8  9  1  0
  9 10  2  0
 10 11  1  0
 11 12  2  0
 11 13  1  0
 13 14  2  0
 14 15  1  0
 15 16  2  0
 16 17  1  0
 17 18  2  0
 18  4  1  0
 10  5  1  0
 18 13  1  0
  1 19  1  0
  1 20  1  0
  1 21  1  0
  2 22  1  0
  2 23  1  0
  3 24  1  0
  3 25  1  0
  6 26  1  0
  7 27  1  0
  8 28  1  0
  9 29  1  0
 14 30  1  0
 15 31  1  0
 16 32  1  0
 17 33  1  0
M  END
>  <UniqueID>  (2) 
2

>  <SMILES>  (2) 
CCCn1c2ccccc2c(=O)c2ccccc21

>  <Energy>  (2) 
54.66953661090709

>  <Genealogy>  (2) 
CCCn1c2ccccc2c(=O)c2ccccc21 (3D coordinates assigned)
CCCn1c2ccccc2c(=O)c2ccccc21 (optimized conformer: 54.66953661090709 kcal/mol)

>  <smiles>  (2) 
CCCn1c2ccccc2c(=O)c2ccccc21

>  <score_type>  (2) 
oracle

>  <origin>  (2) 
adg

>  <m_score__min__energy>  (2) 
-6.8799999999999999

>  <m_primary>  (2) 
energy

$$$$
2:0
     RDKit          3D

 40 41  0  0  0  0  0  0  0  0999 V2000
   55.8930   19.7050   44.1570 C   0  0  0  0  0  0  0  0  0  0  0  0
   55.9910   20.9020   43.3910 O   0  0  0  0  0  0  0  0  0  0  0  0
   56.0970   22.1870   43.9420 C   0  0  0  0  0  0  0  0  0  0  0  0
   55.3910   22.4660   45.1180 C   0  0  0  0  0  0  0  0  0  0  0  0
   55.4630   23.7310   45.7080 C   0  0  0  0  0  0  0  0  0  0  0  0
   56.2480   24.7450   45.1300 C   0  0  0  0  0  0  0  0  0  0  0  0
   56.3240   26.0850   45.7560 C   0  0  0  0  0  0  0  0  0  0  0  0
   55.2660   26.7100   46.0430 O   0  0  0  0  0  0  0  0  0  0  0  0
   57.5980   26.6800   46.0340 N   0  0  0  0  0  0  0  0  0  0  0  0
   57.7630   27.9400   46.7520 C   0  0  0  0  0  0  0  0  0  0  0  0
   58.4580   28.9750   45.8580 C   0  0  0  0  0  0  0  0  0  0  0  0
   57.8530   30.3840   46.0030 C   0  0  0  0  0  0  0  0  0  0  0  0
   57.0130   30.7310   44.8370 N   0  0  0  0  0  0  0  0  0  0  0  0
   56.4950   29.5560   44.1280 C   0  0  0  0  0  0  0  0  0  0  0  0
   56.2950   29.9640   42.6750 C   0  0  0  0  0  0  0  0  0  0  0  0
   57.0740   31.2570   42.5040 C   0  0  0  0  0  0  0  0  0  0  0  0
   57.7740   31.4780   43.8340 C   0  0  0  0  0  0  0  0  0  0  0  0
   56.9560   24.4640   43.9480 C   0  0  0  0  0  0  0  0  0  0  0  0
   56.8830   23.1980   43.3590 C   0  0  0  0  0  0  0  0  0  0  0  0
   55.9133   19.9527   45.2286 H   0  0  0  0  0  0  0  0  0  0  0  0
   54.9499   19.1923   43.9170 H   0  0  0  0  0  0  0  0  0  0  0  0
   56.7402   19.0457   43.9170 H   0  0  0  0  0  0  0  0  0  0  0  0
   54.7739   21.6825   45.5821 H   0  0  0  0  0  0  0  0  0  0  0  0
   54.9014   23.9352   46.6315 H   0  0  0  0  0  0  0  0  0  0  0  0
   56.7745   28.3213   47.0477 H   0  0  0  0  0  0  0  0  0  0  0  0
   58.3817   27.7650   47.6445 H   0  0  0  0  0  0  0  0  0  0  0  0
   59.5225   29.0188   46.1316 H   0  0  0  0  0  0  0  0  0  0  0  0
   58.3204   28.6591   44.8134 H   0  0  0  0  0  0  0  0  0  0  0  0
   57.2348   30.4166   46.9123 H   0  0  0  0  0  0  0  0  0  0  0  0
   58.6766   31.1105   46.0658 H   0  0  0  0  0  0  0  0  0  0  0  0
   57.2164   28.7281   44.1918 H   0  0  0  0  0  0  0  0  0  0  0  0
   55.5488   29.2149   44.5733 H   0  0  0  0  0  0  0  0  0  0  0  0
   56.6861   29.1878   42.0007 H   0  0  0  0  0  0  0  0  0  0  0  0
   55.2303   30.0945   42.4312 H   0  0  0  0  0  0  0  0  0  0  0  0
   57.8098   31.1597   41.6921 H   0  0  0  0  0  0  0  0  0  0  0  0
   56.4191   32.1000   42.2386 H   0  0  0  0  0  0  0  0  0  0  0  0
   58.8073   31.1040   43.7857 H   0  0  0  0  0  0  0  0  0  0  0  0
   57.8183   32.5479   44.0858 H   0  0  0  0  0  0  0  0  0  0  0  0
   57.5727   25.2470   43.4827 H   0  0  0  0  0  0  0  0  0  0  0  0
   57.4430   22.9913   42.4350 H   0  0  0  0  0  0  0  0  0  0  0  0
  1  2  1  0
  2  3  1  0
  3  4  2  0
  4  5  1  0
  5  6  2  0
  6  7  1  0
  7  8  2  0
  7  9  1  0
  9 10  1  0
 10 11  1  0
 11 12  1  0
 12 13  1  0
 13 14  1  0
 14 15  1  0
 15 16  1  0
 16 17  1  0
  6 18  1  0
 18 19  2  0
 19  3  1  0
 17 13  1  0
  1 20  1  0
  1 21  1  0
  1 22  1  0
  4 23  1  0
  5 24  1  0
 10 25  1  0
 10 26  1  0
 11 27  1  0
 11 28  1  0
 12 29  1  0
 12 30  1  0
 14 31  1  0
 14 32  1  0
 15 33  1  0
 15 34  1  0
 16 35  1  0
 16 36  1  0
 17 37  1  0
 17 38  1  0
 18 39  1  0
 19 40  1  0
M  CHG  1   9  -1
M  END
>  <UniqueID>  (3) 
3

>  <SMILES>  (3) 
COc1ccc(C(=O)[N-]CCCN2CCCC2)cc1

>  <Energy>  (3) 
37.764977825391746

>  <Genealogy>  (3) 
COc1ccc(C(=O)[N-]CCCN2CCCC2)cc1 (protonated)
COc1ccc(C(=O)[N-]CCCN2CCCC2)cc1 (3D coordinates assigned)
COc1ccc(C(=O)[N-]CCCN2CCCC2)cc1 (nonaromatic ring conformer: 37.764977825391746 kcal/mol)

>  <smiles>  (3) 
COc1ccc(C(=O)NCCCN2CCCC2)cc1

>  <score_type>  (3) 
oracle

>  <origin>  (3) 
adg

>  <m_score__min__energy>  (3) 
-8.3599999999999994

>  <m_primary>  (3) 
energy

$$$$
3:0
     RDKit          3D

 40 43  0  0  0  0  0  0  0  0999 V2000
   56.2867   31.6580   43.5906 H   0  0  0  0  0  0  0  0  0  0  0  0
   57.0420   31.9450   44.3370 C   0  0  0  0  0  0  0  0  0  0  0  0
   57.3900   31.0750   45.3180 N   0  0  0  0  0  0  0  0  0  0  0  0
   58.3250   31.3870   46.2540 C   0  0  0  0  0  0  0  0  0  0  0  0
   58.5789   30.6577   47.0374 H   0  0  0  0  0  0  0  0  0  0  0  0
   58.9690   32.6350   46.2270 C   0  0  0  0  0  0  0  0  0  0  0  0
   60.0040   32.9280   47.2450 C   0  0  0  0  0  0  0  0  0  0  0  0
   59.6500   33.5110   48.4720 C   0  0  0  0  0  0  0  0  0  0  0  0
   58.5957   33.7444   48.6816 H   0  0  0  0  0  0  0  0  0  0  0  0
   60.6270   33.7970   49.4290 C   0  0  0  0  0  0  0  0  0  0  0  0
   60.3384   34.2475   50.3901 H   0  0  0  0  0  0  0  0  0  0  0  0
   61.9750   33.5110   49.1670 C   0  0  0  0  0  0  0  0  0  0  0  0
   62.9660   33.7910   50.1150 C   0  0  0  0  0  0  0  0  0  0  0  0
   62.6947   34.2504   51.0769 H   0  0  0  0  0  0  0  0  0  0  0  0
   64.3030   33.4850   49.8360 C   0  0  0  0  0  0  0  0  0  0  0  0
   65.2020   33.7560   50.7430 N   0  0  0  0  0  0  0  0  0  0  0  0
   66.5550   33.2850   50.8090 C   0  0  0  0  0  0  0  0  0  0  0  0
   66.9000   32.3340   50.0560 O   0  0  0  0  0  0  0  0  0  0  0  0
   67.5770   33.9940   51.6670 C   0  0  0  0  0  0  0  0  0  0  0  0
   67.5531   33.2517   52.4784 H   0  0  0  0  0  0  0  0  0  0  0  0
   68.6560   34.7330   50.8890 C   0  0  0  0  0  0  0  0  0  0  0  0
   69.6911   34.7452   51.2610 H   0  0  0  0  0  0  0  0  0  0  0  0
   69.0278   34.7010   49.8542 H   0  0  0  0  0  0  0  0  0  0  0  0
   67.5770   35.5170   51.6190 C   0  0  0  0  0  0  0  0  0  0  0  0
   67.8314   36.0957   52.5192 H   0  0  0  0  0  0  0  0  0  0  0  0
   66.8452   36.2862   51.3314 H   0  0  0  0  0  0  0  0  0  0  0  0
   64.6340   32.9510   48.6180 N   0  0  0  0  0  0  0  0  0  0  0  0
   65.6270   32.7840   48.3520 H   0  0  0  0  0  0  0  0  0  0  0  0
   63.6900   32.6710   47.6790 C   0  0  0  0  0  0  0  0  0  0  0  0
   63.9901   32.2322   46.7160 H   0  0  0  0  0  0  0  0  0  0  0  0
   62.3390   32.9380   47.9310 C   0  0  0  0  0  0  0  0  0  0  0  0
   61.3530   32.6530   46.9740 C   0  0  0  0  0  0  0  0  0  0  0  0
   61.6388   32.2123   46.0075 H   0  0  0  0  0  0  0  0  0  0  0  0
   58.6000   33.5710   45.2300 C   0  0  0  0  0  0  0  0  0  0  0  0
   59.2160   34.9430   45.1560 C   0  0  0  0  0  0  0  0  0  0  0  0
   59.3869   35.3236   46.1738 H   0  0  0  0  0  0  0  0  0  0  0  0
   60.1749   34.8860   44.6201 H   0  0  0  0  0  0  0  0  0  0  0  0
   58.5362   35.6217   44.6201 H   0  0  0  0  0  0  0  0  0  0  0  0
   57.6410   33.2030   44.2740 C   0  0  0  0  0  0  0  0  0  0  0  0
   57.3618   33.9062   43.4755 H   0  0  0  0  0  0  0  0  0  0  0  0
  1  2  1  0
  2  3  2  0
  3  4  1  0
  4  5  1  0
  4  6  2  0
  6  7  1  0
  7  8  1  0
  8  9  1  0
  8 10  2  0
 10 11  1  0
 10 12  1  0
 12 13  2  0
 13 14  1  0
 13 15  1  0
 15 16  2  0
 16 17  1  0
 17 18  2  0
 17 19  1  0
 19 20  1  0
 19 21  1  0
 21 22  1  0
 21 23  1  0
 21 24  1  0
 24 25  1  0
 24 26  1  0
 15 27  1  0
 27 28  1  0
 27 29  1  0
 29 30  1  0
 29 31  2  0
 31 32  1  0
 32 33  1  0
  6 34  1  0
 34 35  1  0
 35 36  1  0
 35 37  1  0
 35 38  1  0
 34 39  2  0
 39 40  1  0
 39  2  1  0
 32  7  2  0
 31 12  1  0
 24 19  1  0
M  END
>  <UniqueID>  (4) 
4

>  <SMILES>  (4) 
Cc1ccncc1-c1ccc2c/c(=N/C(=O)C3CC3)[nH]cc2c1

>  <Energy>  (4) 
327.6519614496652

>  <Genealogy>  (4) 
Cc1ccncc1-c1ccc2c/c(=N/C(=O)C3CC3)[nH]cc2c1 (cis-trans isomerization)
Cc1ccncc1-c1ccc2c/c(=N/C(=O)C3CC3)[nH]cc2c1 (3D coordinates assigned)
Cc1ccncc1-c1ccc2c/c(=N/C(=O)C3CC3)[nH]cc2c1 (nonaromatic ring conformer: 327.6519614496652 kcal/mol)

>  <smiles>  (4) 
Cc1ccncc1-c1ccc2cc(=NC(=O)C3CC3)[nH]cc2c1

>  <score_type>  (4) 
oracle

>  <origin>  (4) 
adg

>  <m_score__min__energy>  (4) 
-8.0899999999999999

>  <m_primary>  (4) 
energy

$$$$
4:0
     RDKit          3D

 48 51  0  0  0  0  0  0  0  0999 V2000
   61.1590   28.6480   44.8250 C   0  0  0  0  0  0  0  0  0  0  0  0
   60.2950   29.7170   45.2000 O   0  0  0  0  0  0  0  0  0  0  0  0
   58.9510   29.8320   44.8050 C   0  0  0  0  0  0  0  0  0  0  0  0
   58.4860   30.9500   44.0840 C   0  0  0  0  0  0  0  0  0  0  0  0
   57.1390   31.0550   43.7340 C   0  0  0  0  0  0  0  0  0  0  0  0
   56.2400   30.0530   44.0960 C   0  0  0  0  0  0  0  0  0  0  0  0
   56.6860   28.9370   44.8090 C   0  0  0  0  0  0  0  0  0  0  0  0
   58.0400   28.8110   45.1630 C   0  0  0  0  0  0  0  0  0  0  0  0
   58.4750   27.6340   46.0110 C   0  0  0  0  0  0  0  0  0  0  0  0
   58.1240   27.8330   47.4950 C   0  0  0  0  0  0  0  0  0  0  0  0
   59.0140   28.8530   48.1370 C   0  0  0  0  0  0  0  0  0  0  0  0
   60.0300   28.4560   48.9720 N   0  0  0  0  0  0  0  0  0  0  0  0
   60.9310   29.3540   49.4700 C   0  0  0  0  0  0  0  0  0  0  0  0
   61.8700   28.9700   50.2160 O   0  0  0  0  0  0  0  0  0  0  0  0
   60.7940   30.6870   49.1000 C   0  0  0  0  0  0  0  0  0  0  0  0
   61.5710   31.8180   49.2460 C   0  0  0  0  0  0  0  0  0  0  0  0
   63.1260   31.9580   50.1250 S   0  0  0  0  0  0  0  0  0  0  0  0
   63.9830   32.7160   48.7110 C   0  0  0  0  0  0  0  0  0  0  0  0
   61.0190   32.8090   48.5060 N   0  0  0  0  0  0  0  0  0  0  0  0
   59.9250   32.3470   47.9060 N   0  0  0  0  0  0  0  0  0  0  0  0
   59.1700   33.0530   46.9050 C   0  0  0  0  0  0  0  0  0  0  0  0
   57.7650   32.9890   46.8890 C   0  0  0  0  0  0  0  0  0  0  0  0
   57.0390   33.6400   45.8860 C   0  0  0  0  0  0  0  0  0  0  0  0
   57.7080   34.3580   44.8930 C   0  0  0  0  0  0  0  0  0  0  0  0
   59.1020   34.4310   44.9030 C   0  0  0  0  0  0  0  0  0  0  0  0
   59.8320   33.7850   45.9040 C   0  0  0  0  0  0  0  0  0  0  0  0
   59.7780   31.0590   48.2760 C   0  0  0  0  0  0  0  0  0  0  0  0
   58.8940   30.1660   47.7760 N   0  0  0  0  0  0  0  0  0  0  0  0
   61.5529   28.1606   45.7290 H   0  0  0  0  0  0  0  0  0  0  0  0
   60.5970   27.9145   44.2282 H   0  0  0  0  0  0  0  0  0  0  0  0
   61.9941   29.0436   44.2282 H   0  0  0  0  0  0  0  0  0  0  0  0
   59.1892   31.7450   43.7952 H   0  0  0  0  0  0  0  0  0  0  0  0
   56.7856   31.9312   43.1707 H   0  0  0  0  0  0  0  0  0  0  0  0
   55.1788   30.1409   43.8202 H   0  0  0  0  0  0  0  0  0  0  0  0
   55.9716   28.1511   45.0953 H   0  0  0  0  0  0  0  0  0  0  0  0
   57.9711   26.7272   45.6453 H   0  0  0  0  0  0  0  0  0  0  0  0
   59.5681   27.5417   45.9295 H   0  0  0  0  0  0  0  0  0  0  0  0
   57.0797   28.1696   47.5734 H   0  0  0  0  0  0  0  0  0  0  0  0
   58.2661   26.8742   48.0152 H   0  0  0  0  0  0  0  0  0  0  0  0
   64.7597   33.4029   49.0783 H   0  0  0  0  0  0  0  0  0  0  0  0
   64.4488   31.9290   48.0998 H   0  0  0  0  0  0  0  0  0  0  0  0
   63.2588   33.2745   48.0998 H   0  0  0  0  0  0  0  0  0  0  0  0
   61.4090   33.7710   48.3860 H   0  0  0  0  0  0  0  0  0  0  0  0
   57.2342   32.4240   47.6694 H   0  0  0  0  0  0  0  0  0  0  0  0
   55.9403   33.5862   45.8797 H   0  0  0  0  0  0  0  0  0  0  0  0
   57.1365   34.8664   44.1025 H   0  0  0  0  0  0  0  0  0  0  0  0
   59.6272   34.9986   44.1207 H   0  0  0  0  0  0  0  0  0  0  0  0
   60.9301   33.8495   45.9088 H   0  0  0  0  0  0  0  0  0  0  0  0
  1  2  1  0
  2  3  1  0
  3  4  2  0
  4  5  1  0
  5  6  2  0
  6  7  1  0
  7  8  2  0
  8  9  1  0
  9 10  1  0
 10 11  1  0
 11 12  2  0
 12 13  1  0
 13 14  2  0
 13 15  1  0
 15 16  1  0
 16 17  1  0
 17 18  1  0
 16 19  2  0
 19 20  1  0
 20 21  1  0
 21 22  2  0
 22 23  1  0
 23 24  2  0
 24 25  1  0
 25 26  2  0
 20 27  1  0
 27 28  1  0
  8  3  1  0
 28 11  1  0
 27 15  2  0
 26 21  1  0
  1 29  1  0
  1 30  1  0
  1 31  1  0
  4 32  1  0
  5 33  1  0
  6 34  1  0
  7 35  1  0
  9 36  1  0
  9 37  1  0
 10 38  1  0
 10 39  1  0
 18 40  1  0
 18 41  1  0
 18 42  1  0
 19 43  1  0
 22 44  1  0
 23 45  1  0
 24 46  1  0
 25 47  1  0
 26 48  1  0
M  CHG  2  19   1  28  -1
M  END
>  <UniqueID>  (5) 
5

>  <SMILES>  (5) 
COc1ccccc1CCc1nc(=O)c2c(SC)[nH+]n(-c3ccccc3)c2[n-]1

>  <Energy>  (5) 
86.9454591462166

>  <Genealogy>  (5) 
COc1ccccc1CCc1nc(=O)c2c(SC)[nH+]n(-c3ccccc3)c2[n-]1 (protonated)
COc1ccccc1CCc1nc(=O)c2c(SC)[nH+]n(-c3ccccc3)c2[n-]1 (3D coordinates assigned)
COc1ccccc1CCc1nc(=O)c2c(SC)[nH+]n(-c3ccccc3)c2[n-]1 (optimized conformer: 86.9454591462166 kcal/mol)

>  <smiles>  (5) 
COc1ccccc1CCc1nc(=O)c2c(SC)nn(-c3ccccc3)c2[nH]1

>  <score_type>  (5) 
oracle

>  <origin>  (5) 
adg

>  <m_score__min__energy>  (5) 
-7.8200000000000003

>  <m_primary>  (5) 
energy

$$$$
5:0
     RDKit          3D

 48 52  0  0  1  0  0  0  0  0999 V2000
   57.7180   24.9780   44.4590 C   0  0  0  0  0  0  0  0  0  0  0  0
   58.6080   25.0190   45.5580 O   0  0  0  0  0  0  0  0  0  0  0  0
   58.9330   26.1750   46.2350 C   0  0  0  0  0  0  0  0  0  0  0  0
   60.2080   26.7230   46.2410 C   0  0  0  0  0  0  0  0  0  0  0  0
   60.4470   27.8920   46.9520 C   0  0  0  0  0  0  0  0  0  0  0  0
   59.4520   28.5330   47.6590 C   0  0  0  0  0  0  0  0  0  0  0  0
   59.6850   29.7320   48.3910 N   0  0  0  0  0  0  0  0  0  0  0  0
   59.7150   30.8740   47.7640 C   0  0  0  0  0  0  0  0  0  0  0  0
   58.8470   31.0010   46.7440 N   0  0  0  0  0  0  0  0  0  0  0  0
   58.8490   32.1670   46.0730 C   0  0  0  0  0  0  0  0  0  0  0  0
   58.0440   32.5180   44.9940 C   0  0  0  0  0  0  0  0  0  0  0  0
   57.1050   31.7650   44.4020 C   0  0  0  0  0  0  0  0  0  0  0  0
   57.3410   30.3300   44.2790 C   0  0  0  0  0  0  0  0  0  0  0  0
   58.4980   29.7300   43.8880 N   0  0  0  0  0  0  0  0  0  0  0  0
   58.3470   28.3940   43.8930 C   0  0  0  0  0  0  0  0  0  0  0  0
   59.2010   27.5130   43.5890 O   0  0  0  0  0  0  0  0  0  0  0  0
   57.1000   28.1420   44.2850 N   0  0  0  0  0  0  0  0  0  0  0  0
   56.4570   29.2990   44.5290 C   0  0  0  0  0  0  0  0  0  0  0  0
   55.1530   29.5150   44.9550 O   0  0  0  0  0  0  0  0  0  0  0  0
   58.4260   33.8050   44.6670 C   0  0  0  0  0  0  0  0  0  0  0  0
   59.4110   34.1650   45.5370 N   0  0  0  0  0  0  0  0  0  0  0  0
   59.6650   33.1940   46.3730 N   0  0  0  0  0  0  0  0  0  0  0  0
   60.5120   33.0090   47.4030 C   0  0  0  0  0  0  0  0  0  0  0  0
   61.3080   33.9490   47.7290 N   0  0  0  0  0  0  0  0  0  0  0  0
   62.7410   33.8310   47.7860 C   0  0  0  0  0  0  0  0  0  0  0  0
   63.3820   33.7920   46.3860 C   0  0  0  0  0  0  0  0  0  0  0  0
   63.4610   32.6360   47.3270 C   0  0  0  0  0  0  0  0  0  0  0  0
   60.5570   31.8650   48.1110 N   0  0  0  0  0  0  0  0  0  0  0  0
   58.1780   27.9570   47.6350 C   0  0  0  0  0  0  0  0  0  0  0  0
   57.9420   26.8090   46.9380 C   0  0  0  0  0  0  0  0  0  0  0  0
   56.6826   24.9303   44.8273 H   0  0  0  0  0  0  0  0  0  0  0  0
   57.8484   25.8831   43.8476 H   0  0  0  0  0  0  0  0  0  0  0  0
   57.9310   24.0887   43.8476 H   0  0  0  0  0  0  0  0  0  0  0  0
   61.0233   26.2351   45.6867 H   0  0  0  0  0  0  0  0  0  0  0  0
   61.4606   28.3192   46.9510 H   0  0  0  0  0  0  0  0  0  0  0  0
   56.1791   32.2183   44.0183 H   0  0  0  0  0  0  0  0  0  0  0  0
   59.3750   30.2370   43.6230 H   0  0  0  0  0  0  0  0  0  0  0  0
   56.6610   27.1940   44.3940 H   0  0  0  0  0  0  0  0  0  0  0  0
   54.3870   28.9570   44.5550 H   0  0  0  0  0  0  0  0  0  0  0  0
   58.0125   34.4230   43.8564 H   0  0  0  0  0  0  0  0  0  0  0  0
   62.8078   34.3961   48.7274 H   0  0  0  0  0  0  0  0  0  0  0  0
   62.7506   33.7347   45.4871 H   0  0  0  0  0  0  0  0  0  0  0  0
   64.1035   34.4088   45.8301 H   0  0  0  0  0  0  0  0  0  0  0  0
   62.8997   31.7164   47.1049 H   0  0  0  0  0  0  0  0  0  0  0  0
   64.2918   32.0429   47.7369 H   0  0  0  0  0  0  0  0  0  0  0  0
   61.2290   31.7290   48.9230 H   0  0  0  0  0  0  0  0  0  0  0  0
   57.3552   28.4364   48.1857 H   0  0  0  0  0  0  0  0  0  0  0  0
   56.9290   26.3803   46.9400 H   0  0  0  0  0  0  0  0  0  0  0  0
  1  2  1  0
  2  3  1  0
  3  4  2  0
  4  5  1  0
  5  6  2  0
  6  7  1  0
  7  8  2  0
  8  9  1  0
  9 10  2  0
 10 11  1  0
 11 12  2  0
 12 13  1  0
 13 14  1  0
 14 15  1  0
 15 16  2  0
 15 17  1  0
 17 18  1  0
 18 19  1  0
 11 20  1  0
 20 21  2  0
 21 22  1  0
 22 23  1  0
 23 24  2  0
 24 25  1  0
 25 26  1  0
 26 27  1  0
 23 28  1  0
  6 29  1  0
 29 30  2  0
 30  3  1  0
 28  8  1  0
 22 10  1  0
 27 25  1  0
 18 13  2  0
  1 31  1  0
  1 32  1  0
  1 33  1  0
  4 34  1  0
  5 35  1  0
 12 36  1  0
 14 37  1  0
 17 38  1  0
 19 39  1  0
 20 40  1  0
 25 41  1  0
 26 42  1  0
 26 43  1  0
 27 44  1  0
 27 45  1  0
 28 46  1  0
 29 47  1  0
 30 48  1  0
M  END
>  <smiles>  (6) 
COc1ccc(N=c2nc3c(=Cc4[nH]c(=O)[nH]c4O)cnn3c(=NC3CC3)[nH]2)cc1

>  <score_type>  (6) 
oracle

>  <origin>  (6) 
adg

>  <m_score__min__energy>  (6) 
-8.7899999999999991

>  <m_primary>  (6) 
energy

$$$$
6:0
     RDKit          3D

 42 43  0  0  0  0  0  0  0  0999 V2000
   57.1240   30.9820   51.8090 C   0  0  0  0  0  0  0  0  0  0  0  0
   57.7650   30.0890   50.9040 O   0  0  0  0  0  0  0  0  0  0  0  0
   58.9520   30.3770   50.2140 C   0  0  0  0  0  0  0  0  0  0  0  0
   60.1280   30.7790   50.8700 C   0  0  0  0  0  0  0  0  0  0  0  0
   61.2840   31.0610   50.1380 C   0  0  0  0  0  0  0  0  0  0  0  0
   61.2870   30.9390   48.7350 C   0  0  0  0  0  0  0  0  0  0  0  0
   62.4250   31.2330   47.9700 O   0  0  0  0  0  0  0  0  0  0  0  0
   62.9570   32.5390   47.7770 C   0  0  0  0  0  0  0  0  0  0  0  0
   60.1170   30.5170   48.0810 C   0  0  0  0  0  0  0  0  0  0  0  0
   60.0730   30.3260   46.2920 S   0  0  0  0  0  0  0  0  0  0  0  0
   59.1730   31.8670   46.0330 C   0  0  0  0  0  0  0  0  0  0  0  0
   59.5770   32.9970   46.7600 C   0  0  0  0  0  0  0  0  0  0  0  0
   58.8960   34.2070   46.6300 C   0  0  0  0  0  0  0  0  0  0  0  0
   57.8060   34.3050   45.7650 C   0  0  0  0  0  0  0  0  0  0  0  0
   57.4080   33.1970   45.0140 C   0  0  0  0  0  0  0  0  0  0  0  0
   58.0900   31.9720   45.1240 C   0  0  0  0  0  0  0  0  0  0  0  0
   57.6580   30.8320   44.2260 C   0  0  0  0  0  0  0  0  0  0  0  0
   56.5610   30.0660   44.8530 N   0  0  0  0  0  0  0  0  0  0  0  0
   55.5170   29.7460   43.8640 C   0  0  0  0  0  0  0  0  0  0  0  0
   57.0860   28.8190   45.4330 C   0  0  0  0  0  0  0  0  0  0  0  0
   58.9570   30.2520   48.8210 C   0  0  0  0  0  0  0  0  0  0  0  0
   57.3433   30.6765   52.8427 H   0  0  0  0  0  0  0  0  0  0  0  0
   57.4964   32.0034   51.6417 H   0  0  0  0  0  0  0  0  0  0  0  0
   56.0371   30.9560   51.6417 H   0  0  0  0  0  0  0  0  0  0  0  0
   60.1383   30.8721   51.9660 H   0  0  0  0  0  0  0  0  0  0  0  0
   62.1976   31.3803   50.6608 H   0  0  0  0  0  0  0  0  0  0  0  0
   63.1471   33.0057   48.7548 H   0  0  0  0  0  0  0  0  0  0  0  0
   63.8993   32.4715   47.2135 H   0  0  0  0  0  0  0  0  0  0  0  0
   62.2357   33.1492   47.2135 H   0  0  0  0  0  0  0  0  0  0  0  0
   60.4395   32.9278   47.4392 H   0  0  0  0  0  0  0  0  0  0  0  0
   59.2185   35.0844   47.2097 H   0  0  0  0  0  0  0  0  0  0  0  0
   57.2598   35.2555   45.6744 H   0  0  0  0  0  0  0  0  0  0  0  0
   56.5517   33.2833   44.3289 H   0  0  0  0  0  0  0  0  0  0  0  0
   57.3115   31.2397   43.2649 H   0  0  0  0  0  0  0  0  0  0  0  0
   58.5147   30.1606   44.0666 H   0  0  0  0  0  0  0  0  0  0  0  0
   54.5915   29.4623   44.3865 H   0  0  0  0  0  0  0  0  0  0  0  0
   55.3268   30.6271   43.2335 H   0  0  0  0  0  0  0  0  0  0  0  0
   55.8532   28.9097   43.2335 H   0  0  0  0  0  0  0  0  0  0  0  0
   57.0582   28.8850   46.5307 H   0  0  0  0  0  0  0  0  0  0  0  0
   56.4683   27.9716   45.1009 H   0  0  0  0  0  0  0  0  0  0  0  0
   58.1238   28.6686   45.1009 H   0  0  0  0  0  0  0  0  0  0  0  0
   58.0392   29.9419   48.3000 H   0  0  0  0  0  0  0  0  0  0  0  0
  1  2  1  0
  2  3  1  0
  3  4  2  0
  4  5  1  0
  5  6  2  0
  6  7  1  0
  7  8  1  0
  6  9  1  0
  9 10  1  0
 10 11  1  0
 11 12  2  0
 12 13  1  0
 13 14  2  0
 14 15  1  0
 15 16  2  0
 16 17  1  0
 17 18  1  0
 18 19  1  0
 18 20  1  0
  9 21  2  0
 21  3  1  0
 16 11  1  0
  1 22  1  0
  1 23  1  0
  1 24  1  0
  4 25  1  0
  5 26  1  0
  8 27  1  0
  8 28  1  0
  8 29  1  0
 12 30  1  0
 13 31  1  0
 14 32  1  0
 15 33  1  0
 17 34  1  0
 17 35  1  0
 19 36  1  0
 19 37  1  0
 19 38  1  0
 20 39  1  0
 20 40  1  0
 20 41  1  0
 21 42  1  0
M  END
>  <UniqueID>  (7) 
6

>  <SMILES>  (7) 
COc1ccc(OC)c(Sc2ccccc2CN(C)C)c1

>  <Energy>  (7) 
37.68328213612023

>  <Genealogy>  (7) 
COc1ccc(OC)c(Sc2ccccc2CN(C)C)c1 (3D coordinates assigned)
COc1ccc(OC)c(Sc2ccccc2CN(C)C)c1 (optimized conformer: 37.68328213612023 kcal/mol)

>  <smiles>  (7) 
COc1ccc(OC)c(Sc2ccccc2CN(C)C)c1

>  <score_type>  (7) 
oracle

>  <origin>  (7) 
adg

>  <m_score__min__energy>  (7) 
-6.5300000000000002

>  <m_primary>  (7) 
energy

$$$$
7:0
     RDKit          3D

 55 57  0  0  0  0  0  0  0  0999 V2000
   59.6390   27.4960   46.5800 C   0  0  0  0  0  0  0  0  0  0  0  0
   59.5540   27.7590   45.0770 C   0  0  0  0  0  0  0  0  0  0  0  0
   58.1140   27.6860   44.5520 C   0  0  0  0  0  0  0  0  0  0  0  0
   57.5410   29.0270   44.3800 N   0  0  0  0  0  0  0  0  0  0  0  0
   57.6700   30.0380   45.4320 C   0  0  0  0  0  0  0  0  0  0  0  0
   58.3580   31.3040   44.8780 C   0  0  2  0  0  0  0  0  0  0  0  0
   58.2290   32.4360   45.8760 C   0  0  0  0  0  0  0  0  0  0  0  0
   57.2420   33.2160   45.7770 O   0  0  0  0  0  0  0  0  0  0  0  0
   59.1830   32.6300   46.9440 N   0  0  0  0  0  0  0  0  0  0  0  0
   59.2180   33.9210   47.6490 C   0  0  0  0  0  0  0  0  0  0  0  0
   60.6390   34.2410   48.1230 C   0  0  0  0  0  0  0  0  0  0  0  0
   61.2440   33.0990   48.8200 N   0  0  0  0  0  0  0  0  0  0  0  0
   62.5230   33.2590   49.4570 C   0  0  0  0  0  0  0  0  0  0  0  0
   62.5880   33.7460   50.7700 C   0  0  0  0  0  0  0  0  0  0  0  0
   63.8230   33.9210   51.3900 C   0  0  0  0  0  0  0  0  0  0  0  0
   64.9890   33.6070   50.6950 C   0  0  0  0  0  0  0  0  0  0  0  0
   64.9190   33.1300   49.4230 N   0  0  0  0  0  0  0  0  0  0  0  0
   63.7240   32.9420   48.7920 C   0  0  0  0  0  0  0  0  0  0  0  0
   63.7190   32.2630   47.1260 S   0  0  0  0  0  0  0  0  0  0  0  0
   63.3640   33.8640   46.3410 C   0  0  0  0  0  0  0  0  0  0  0  0
   60.5760   31.7940   48.8260 C   0  0  0  0  0  0  0  0  0  0  0  0
   59.9900   31.5010   47.4420 C   0  0  0  0  0  0  0  0  0  0  0  0
   57.8410   31.7320   43.4650 C   0  0  0  0  0  0  0  0  0  0  0  0
   56.6600   30.8990   42.9410 C   0  0  0  0  0  0  0  0  0  0  0  0
   56.9410   29.4430   43.1430 C   0  0  0  0  0  0  0  0  0  0  0  0
   56.6450   28.6080   42.2470 O   0  0  0  0  0  0  0  0  0  0  0  0
   59.3457   28.4035   47.1282 H   0  0  0  0  0  0  0  0  0  0  0  0
   58.9616   26.6714   46.8468 H   0  0  0  0  0  0  0  0  0  0  0  0
   60.6709   27.2238   46.8468 H   0  0  0  0  0  0  0  0  0  0  0  0
   59.9551   28.7622   44.8705 H   0  0  0  0  0  0  0  0  0  0  0  0
   60.1377   26.9791   44.5660 H   0  0  0  0  0  0  0  0  0  0  0  0
   58.1121   27.1682   43.5815 H   0  0  0  0  0  0  0  0  0  0  0  0
   57.5039   27.1389   45.2858 H   0  0  0  0  0  0  0  0  0  0  0  0
   56.6697   30.3027   45.8053 H   0  0  0  0  0  0  0  0  0  0  0  0
   58.2812   29.6275   46.2493 H   0  0  0  0  0  0  0  0  0  0  0  0
   59.4204   31.0562   44.7368 H   0  0  0  0  0  0  0  0  0  0  0  0
   58.8777   34.7141   46.9670 H   0  0  0  0  0  0  0  0  0  0  0  0
   58.5573   33.8626   48.5266 H   0  0  0  0  0  0  0  0  0  0  0  0
   61.2580   34.4957   47.2501 H   0  0  0  0  0  0  0  0  0  0  0  0
   60.5863   35.0856   48.8258 H   0  0  0  0  0  0  0  0  0  0  0  0
   61.6622   33.9903   51.3115 H   0  0  0  0  0  0  0  0  0  0  0  0
   63.8773   34.3039   52.4198 H   0  0  0  0  0  0  0  0  0  0  0  0
   65.9685   33.7451   51.1760 H   0  0  0  0  0  0  0  0  0  0  0  0
   65.8060   32.8940   48.9250 H   0  0  0  0  0  0  0  0  0  0  0  0
   63.1955   34.6240   47.1181 H   0  0  0  0  0  0  0  0  0  0  0  0
   64.2177   34.1627   45.7150 H   0  0  0  0  0  0  0  0  0  0  0  0
   62.4640   33.7739   45.7150 H   0  0  0  0  0  0  0  0  0  0  0  0
   61.3051   31.0125   49.0861 H   0  0  0  0  0  0  0  0  0  0  0  0
   59.7636   31.8069   49.5675 H   0  0  0  0  0  0  0  0  0  0  0  0
   60.8140   31.3133   46.7379 H   0  0  0  0  0  0  0  0  0  0  0  0
   59.3357   30.6206   47.5248 H   0  0  0  0  0  0  0  0  0  0  0  0
   57.5229   32.7836   43.5192 H   0  0  0  0  0  0  0  0  0  0  0  0
   58.6736   31.5710   42.7644 H   0  0  0  0  0  0  0  0  0  0  0  0
   55.7467   31.1746   43.4886 H   0  0  0  0  0  0  0  0  0  0  0  0
   56.5215   31.0979   41.8680 H   0  0  0  0  0  0  0  0  0  0  0  0
  1  2  1  0
  2  3  1  0
  3  4  1  0
  4  5  1  0
  5  6  1  0
  6  7  1  0
  7  8  2  0
  7  9  1  0
  9 10  1  0
 10 11  1  0
 11 12  1  0
 12 13  1  0
 13 14  2  0
 14 15  1  0
 15 16  2  0
 16 17  1  0
 17 18  2  0
 18 19  1  0
 19 20  1  0
 12 21  1  0
 21 22  1  0
  6 23  1  0
 23 24  1  0
 24 25  1  0
 25 26  2  0
 25  4  1  0
 22  9  1  0
 18 13  1  0
  1 27  1  0
  1 28  1  0
  1 29  1  0
  2 30  1  0
  2 31  1  0
  3 32  1  0
  3 33  1  0
  5 34  1  0
  5 35  1  0
  6 36  1  6
 10 37  1  0
 10 38  1  0
 11 39  1  0
 11 40  1  0
 14 41  1  0
 15 42  1  0
 16 43  1  0
 17 44  1  0
 20 45  1  0
 20 46  1  0
 20 47  1  0
 21 48  1  0
 21 49  1  0
 22 50  1  0
 22 51  1  0
 23 52  1  0
 23 53  1  0
 24 54  1  0
 24 55  1  0
M  CHG  1  17   1
M  END
>  <UniqueID>  (8) 
7

>  <SMILES>  (8) 
CCCN1C[C@H](C(=O)N2CCN(c3ccc[nH+]c3SC)CC2)CCC1=O

>  <Energy>  (8) 
53.481113081317666

>  <Genealogy>  (8) 
CCCN1CC(C(=O)N2CCN(c3ccc[nH+]c3SC)CC2)CCC1=O (protonated)
CCCN1C[C@H](C(=O)N2CCN(c3ccc[nH+]c3SC)CC2)CCC1=O (chirality)
CCCN1C[C@H](C(=O)N2CCN(c3ccc[nH+]c3SC)CC2)CCC1=O (3D coordinates assigned)
CCCN1C[C@H](C(=O)N2CCN(c3ccc[nH+]c3SC)CC2)CCC1=O (nonaromatic ring conformer: 53.481113081317666 kcal/mol)

>  <smiles>  (8) 
CCCN1CC(C(=O)N2CCN(c3cccnc3SC)CC2)CCC1=O

>  <score_type>  (8) 
oracle

>  <origin>  (8) 
adg

>  <m_score__min__energy>  (8) 
-6.4900000000000002

>  <m_primary>  (8) 
energy

$$$$
8:0
     RDKit          3D

 40 42  0  0  0  0  0  0  0  0999 V2000
   62.8910   33.8310   46.5070 C   0  0  0  0  0  0  0  0  0  0  0  0
   61.7000   33.8400   47.4500 C   0  0  0  0  0  0  0  0  0  0  0  0
   60.5560   34.3490   46.7660 O   0  0  0  0  0  0  0  0  0  0  0  0
   59.5110   33.5570   46.2680 C   0  0  0  0  0  0  0  0  0  0  0  0
   58.2740   34.1670   46.0370 C   0  0  0  0  0  0  0  0  0  0  0  0
   57.2000   33.4300   45.5390 C   0  0  0  0  0  0  0  0  0  0  0  0
   57.3470   32.0680   45.2640 C   0  0  0  0  0  0  0  0  0  0  0  0
   56.3120   31.3870   44.7840 O   0  0  0  0  0  0  0  0  0  0  0  0
   56.3760   30.0930   44.4950 C   0  0  0  0  0  0  0  0  0  0  0  0
   55.3600   29.5070   44.0370 O   0  0  0  0  0  0  0  0  0  0  0  0
   57.5600   29.3820   44.6930 C   0  0  0  0  0  0  0  0  0  0  0  0
   58.6890   30.0430   45.1990 C   0  0  0  0  0  0  0  0  0  0  0  0
   59.9730   29.2610   45.3650 C   0  0  0  0  0  0  0  0  0  0  0  0
   59.8980   28.1540   46.8200 S   0  0  0  0  0  0  0  0  0  0  0  0
   59.9990   29.4800   48.0240 C   0  0  0  0  0  0  0  0  0  0  0  0
   61.2110   29.9860   48.3670 N   0  0  0  0  0  0  0  0  0  0  0  0
   61.3190   31.0050   49.2610 C   0  0  0  0  0  0  0  0  0  0  0  0
   62.6670   31.5500   49.6130 C   0  0  0  0  0  0  0  0  0  0  0  0
   60.1650   31.5430   49.8360 C   0  0  0  0  0  0  0  0  0  0  0  0
   58.9290   31.0080   49.4750 C   0  0  0  0  0  0  0  0  0  0  0  0
   58.8650   29.9870   48.5810 N   0  0  0  0  0  0  0  0  0  0  0  0
   58.5880   31.4250   45.4940 C   0  0  0  0  0  0  0  0  0  0  0  0
   59.6660   32.1830   45.9980 C   0  0  0  0  0  0  0  0  0  0  0  0
   63.8222   33.8240   47.0925 H   0  0  0  0  0  0  0  0  0  0  0  0
   62.8498   32.9331   45.8728 H   0  0  0  0  0  0  0  0  0  0  0  0
   62.8634   34.7294   45.8728 H   0  0  0  0  0  0  0  0  0  0  0  0
   61.4962   32.8150   47.7931 H   0  0  0  0  0  0  0  0  0  0  0  0
   61.9234   34.4791   48.3170 H   0  0  0  0  0  0  0  0  0  0  0  0
   58.1469   35.2386   46.2502 H   0  0  0  0  0  0  0  0  0  0  0  0
   56.2328   33.9231   45.3619 H   0  0  0  0  0  0  0  0  0  0  0  0
   57.6078   28.3094   44.4537 H   0  0  0  0  0  0  0  0  0  0  0  0
   60.1420   28.6550   44.4627 H   0  0  0  0  0  0  0  0  0  0  0  0
   60.7960   29.9752   45.5157 H   0  0  0  0  0  0  0  0  0  0  0  0
   62.7712   31.5921   50.7072 H   0  0  0  0  0  0  0  0  0  0  0  0
   63.4472   30.8966   49.1953 H   0  0  0  0  0  0  0  0  0  0  0  0
   62.7739   32.5620   49.1953 H   0  0  0  0  0  0  0  0  0  0  0  0
   60.2300   32.3706   50.5577 H   0  0  0  0  0  0  0  0  0  0  0  0
   58.0053   31.4128   49.9143 H   0  0  0  0  0  0  0  0  0  0  0  0
   57.9330   29.5950   48.3160 H   0  0  0  0  0  0  0  0  0  0  0  0
   60.6356   31.6971   46.1817 H   0  0  0  0  0  0  0  0  0  0  0  0
  1  2  1  0
  2  3  1  0
  3  4  1  0
  4  5  2  0
  5  6  1  0
  6  7  2  0
  7  8  1  0
  8  9  1  0
  9 10  2  0
  9 11  1  0
 11 12  2  0
 12 13  1  0
 13 14  1  0
 14 15  1  0
 15 16  2  0
 16 17  1  0
 17 18  1  0
 17 19  2  0
 19 20  1  0
 20 21  2  0
 12 22  1  0
 22 23  2  0
 23  4  1  0
 22  7  1  0
 21 15  1  0
  1 24  1  0
  1 25  1  0
  1 26  1  0
  2 27  1  0
  2 28  1  0
  5 29  1  0
  6 30  1  0
 11 31  1  0
 13 32  1  0
 13 33  1  0
 18 34  1  0
 18 35  1  0
 18 36  1  0
 19 37  1  0
 20 38  1  0
 21 39  1  0
 23 40  1  0
M  CHG  1  21   1
M  END
>  <UniqueID>  (9) 
8

>  <SMILES>  (9) 
CCOc1ccc2oc(=O)cc(CSc3nc(C)cc[nH+]3)c2c1

>  <Energy>  (9) 
38.53829885061411

>  <Genealogy>  (9) 
CCOc1ccc2oc(=O)cc(CSc3nc(C)cc[nH+]3)c2c1 (protonated)
CCOc1ccc2oc(=O)cc(CSc3nc(C)cc[nH+]3)c2c1 (3D coordinates assigned)
CCOc1ccc2oc(=O)cc(CSc3nc(C)cc[nH+]3)c2c1 (optimized conformer: 38.53829885061411 kcal/mol)

>  <smiles>  (9) 
CCOc1ccc2oc(=O)cc(CSc3nccc(C)n3)c2c1

>  <score_type>  (9) 
oracle

>  <origin>  (9) 
adg

>  <m_score__min__energy>  (9) 
-6.1900000000000004

>  <m_primary>  (9) 
energy

$$$$
9:0
     RDKit          3D

 41 44  0  0  0  0  0  0  0  0999 V2000
   56.1282   23.5362   42.1241 H   0  0  0  0  0  0  0  0  0  0  0  0
   56.6480   23.5920   43.0920 C   0  0  0  0  0  0  0  0  0  0  0  0
   56.9360   24.8370   43.6590 C   0  0  0  0  0  0  0  0  0  0  0  0
   56.6409   25.7575   43.1341 H   0  0  0  0  0  0  0  0  0  0  0  0
   57.6010   24.9210   44.8970 C   0  0  0  0  0  0  0  0  0  0  0  0
   57.9060   26.2390   45.5100 C   0  0  0  0  0  0  0  0  0  0  0  0
   58.8220   26.3330   46.5700 C   0  0  0  0  0  0  0  0  0  0  0  0
   59.3053   25.4265   46.9634 H   0  0  0  0  0  0  0  0  0  0  0  0
   59.1180   27.5820   47.1240 C   0  0  0  0  0  0  0  0  0  0  0  0
   60.0740   27.6920   48.2760 C   0  0  0  0  0  0  0  0  0  0  0  0
   59.5168   27.6279   49.2223 H   0  0  0  0  0  0  0  0  0  0  0  0
   60.8055   26.8721   48.2250 H   0  0  0  0  0  0  0  0  0  0  0  0
   60.6002   28.6566   48.2250 H   0  0  0  0  0  0  0  0  0  0  0  0
   58.4550   28.7170   46.6480 C   0  0  0  0  0  0  0  0  0  0  0  0
   58.6671   29.7030   47.0872 H   0  0  0  0  0  0  0  0  0  0  0  0
   57.5210   28.5980   45.6120 C   0  0  0  0  0  0  0  0  0  0  0  0
   56.9190   29.6800   45.1960 N   0  0  0  0  0  0  0  0  0  0  0  0
   57.4480   31.0110   45.1120 C   0  0  0  0  0  0  0  0  0  0  0  0
   57.9350   31.6420   46.2160 N   0  0  0  0  0  0  0  0  0  0  0  0
   58.4940   32.8800   46.1520 C   0  0  0  0  0  0  0  0  0  0  0  0
   58.9590   33.5030   47.3160 C   0  0  0  0  0  0  0  0  0  0  0  0
   58.8745   32.9908   48.2858 H   0  0  0  0  0  0  0  0  0  0  0  0
   59.5310   34.7770   47.2450 C   0  0  0  0  0  0  0  0  0  0  0  0
   59.8951   35.2660   48.1606 H   0  0  0  0  0  0  0  0  0  0  0  0
   59.6420   35.4320   46.0140 C   0  0  0  0  0  0  0  0  0  0  0  0
   60.0933   36.4340   45.9649 H   0  0  0  0  0  0  0  0  0  0  0  0
   59.1810   34.8170   44.8450 C   0  0  0  0  0  0  0  0  0  0  0  0
   59.2709   35.3339   43.8782 H   0  0  0  0  0  0  0  0  0  0  0  0
   58.6040   33.5400   44.9080 C   0  0  0  0  0  0  0  0  0  0  0  0
   58.1390   32.8910   43.7570 C   0  0  0  0  0  0  0  0  0  0  0  0
   58.2233   33.3810   42.7758 H   0  0  0  0  0  0  0  0  0  0  0  0
   57.5680   31.6200   43.8580 C   0  0  0  0  0  0  0  0  0  0  0  0
   57.2142   31.1002   42.9554 H   0  0  0  0  0  0  0  0  0  0  0  0
   57.2940   27.3700   45.0470 N   0  0  0  0  0  0  0  0  0  0  0  0
   56.6900   27.2820   44.2020 H   0  0  0  0  0  0  0  0  0  0  0  0
   57.9690   23.7320   45.5540 C   0  0  0  0  0  0  0  0  0  0  0  0
   58.4877   23.7813   46.5228 H   0  0  0  0  0  0  0  0  0  0  0  0
   57.6800   22.4890   44.9840 C   0  0  0  0  0  0  0  0  0  0  0  0
   57.9726   21.5652   45.5046 H   0  0  0  0  0  0  0  0  0  0  0  0
   57.0200   22.4170   43.7540 C   0  0  0  0  0  0  0  0  0  0  0  0
   56.6580   20.8560   43.0410 Cl  0  0  0  0  0  0  0  0  0  0  0  0
  1  2  1  0
  2  3  2  0
  3  4  1  0
  3  5  1  0
  5  6  1  0
  6  7  2  0
  7  8  1  0
  7  9  1  0
  9 10  1  0
 10 11  1  0
 10 12  1  0
 10 13  1  0
  9 14  2  0
 14 15  1  0
 14 16  1  0
 16 17  2  0
 17 18  1  0
 18 19  2  0
 19 20  1  0
 20 21  2  0
 21 22  1  0
 21 23  1  0
 23 24  1  0
 23 25  2  0
 25 26  1  0
 25 27  1  0
 27 28  1  0
 27 29  2  0
 29 30  1  0
 30 31  1  0
 30 32  2  0
 32 33  1  0
 16 34  1  0
 34 35  1  0
  5 36  2  0
 36 37  1  0
 36 38  1  0
 38 39  1  0
 38 40  2  0
 40 41  1  0
 40  2  1  0
 34  6  1  0
 32 18  1  0
 29 20  1  0
M  END
>  <UniqueID>  (10) 
9

>  <SMILES>  (10) 
Cc1cc(-c2ccc(Cl)cc2)[nH]/c(=N\c2ccc3ccccc3n2)c1

>  <Energy>  (10) 
60.3420991751064

>  <Genealogy>  (10) 
Cc1cc(-c2ccc(Cl)cc2)[nH]/c(=N\c2ccc3ccccc3n2)c1 (cis-trans isomerization)
Cc1cc(-c2ccc(Cl)cc2)[nH]/c(=N\c2ccc3ccccc3n2)c1 (3D coordinates assigned)
Cc1cc(-c2ccc(Cl)cc2)[nH]/c(=N\c2ccc3ccccc3n2)c1 (optimized conformer: 60.3420991751064 kcal/mol)

>  <smiles>  (10) 
Cc1cc(-c2ccc(Cl)cc2)[nH]c(=Nc2ccc3ccccc3n2)c1

>  <score_type>  (10) 
oracle

>  <origin>  (10) 
adg

>  <m_score__min__energy>  (10) 
-9.3499999999999996

>  <m_primary>  (10) 
energy

$$$$
10:0
     RDKit          3D

 42 44  0  0  0  0  0  0  0  0999 V2000
   57.3790   32.0150   41.2750 C   0  0  0  0  0  0  0  0  0  0  0  0
   57.3740   31.2210   42.4490 O   0  0  0  0  0  0  0  0  0  0  0  0
   57.9060   31.7630   43.6110 C   0  0  0  0  0  0  0  0  0  0  0  0
   58.1730   33.1120   43.7340 C   0  0  0  0  0  0  0  0  0  0  0  0
   58.7040   33.6290   44.9080 C   0  0  0  0  0  0  0  0  0  0  0  0
   58.9760   32.7790   45.9830 C   0  0  0  0  0  0  0  0  0  0  0  0
   58.7130   31.4290   45.8680 C   0  0  0  0  0  0  0  0  0  0  0  0
   58.1760   30.9280   44.6760 C   0  0  0  0  0  0  0  0  0  0  0  0
   57.9380   29.5270   44.6500 N   0  0  0  0  0  0  0  0  0  0  0  0
   56.5760   28.9720   44.6290 C   0  0  0  0  0  0  0  0  0  0  0  0
   56.6460   27.8000   45.6030 C   0  0  0  0  0  0  0  0  0  0  0  0
   57.3670   26.7480   44.9450 N   0  0  0  0  0  0  0  0  0  0  0  0
   57.3900   25.3120   45.9300 S   0  0  0  0  0  0  0  0  0  0  0  0
   58.7180   25.2060   46.6160 O   0  0  0  0  0  0  0  0  0  0  0  0
   56.2460   25.3370   46.9130 O   0  0  0  0  0  0  0  0  0  0  0  0
   57.1850   23.8900   44.9360 C   0  0  0  0  0  0  0  0  0  0  0  0
   56.0630   23.7410   44.1310 C   0  0  0  0  0  0  0  0  0  0  0  0
   55.8780   22.6570   43.3560 N   0  0  0  0  0  0  0  0  0  0  0  0
   56.8210   21.6880   43.3700 C   0  0  0  0  0  0  0  0  0  0  0  0
   56.6580   20.6430   42.6320 N   0  0  0  0  0  0  0  0  0  0  0  0
   57.9270   21.8010   44.1420 N   0  0  0  0  0  0  0  0  0  0  0  0
   58.1330   22.8720   44.9230 C   0  0  0  0  0  0  0  0  0  0  0  0
   58.6930   27.1280   44.5850 C   0  0  0  0  0  0  0  0  0  0  0  0
   58.9890   28.5610   44.6420 C   0  0  0  0  0  0  0  0  0  0  0  0
   60.1610   28.9660   44.6840 O   0  0  0  0  0  0  0  0  0  0  0  0
   57.3857   33.0795   41.5523 H   0  0  0  0  0  0  0  0  0  0  0  0
   58.2757   31.7852   40.6808 H   0  0  0  0  0  0  0  0  0  0  0  0
   56.4795   31.7965   40.6808 H   0  0  0  0  0  0  0  0  0  0  0  0
   57.9622   33.7861   42.8907 H   0  0  0  0  0  0  0  0  0  0  0  0
   58.9103   34.7062   44.9917 H   0  0  0  0  0  0  0  0  0  0  0  0
   59.3972   33.1833   46.9153 H   0  0  0  0  0  0  0  0  0  0  0  0
   58.9240   30.7507   46.7079 H   0  0  0  0  0  0  0  0  0  0  0  0
   55.8430   29.7193   44.9670 H   0  0  0  0  0  0  0  0  0  0  0  0
   56.2553   28.6693   43.6213 H   0  0  0  0  0  0  0  0  0  0  0  0
   57.1728   28.1023   46.5201 H   0  0  0  0  0  0  0  0  0  0  0  0
   55.6372   27.4656   45.8869 H   0  0  0  0  0  0  0  0  0  0  0  0
   55.3014   24.5346   44.1270 H   0  0  0  0  0  0  0  0  0  0  0  0
   56.8670   19.6900   43.0080 H   0  0  0  0  0  0  0  0  0  0  0  0
   58.6390   21.0530   44.1410 H   0  0  0  0  0  0  0  0  0  0  0  0
   59.0381   22.9442   45.5439 H   0  0  0  0  0  0  0  0  0  0  0  0
   59.3869   26.6139   45.2663 H   0  0  0  0  0  0  0  0  0  0  0  0
   58.8058   26.8442   43.5282 H   0  0  0  0  0  0  0  0  0  0  0  0
  1  2  1  0
  2  3  1  0
  3  4  2  0
  4  5  1  0
  5  6  2  0
  6  7  1  0
  7  8  2  0
  8  9  1  0
  9 10  1  0
 10 11  1  0
 11 12  1  0
 12 13  1  0
 13 14  2  0
 13 15  2  0
 13 16  1  0
 16 17  1  0
 17 18  2  0
 18 19  1  0
 19 20  2  3
 19 21  1  0
 21 22  1  0
 12 23  1  0
 23 24  1  0
 24 25  2  0
  8  3  1  0
 24  9  1  0
 22 16  2  0
  1 26  1  0
  1 27  1  0
  1 28  1  0
  4 29  1  0
  5 30  1  0
  6 31  1  0
  7 32  1  0
 10 33  1  0
 10 34  1  0
 11 35  1  0
 11 36  1  0
 17 37  1  0
 20 38  1  0
 21 39  1  0
 22 40  1  0
 23 41  1  0
 23 42  1  0
M  END
>  <smiles>  (11) 
COc1ccccc1N1CCN(S(=O)(=O)c2cnc(=N)[nH]c2)CC1=O

>  <score_type>  (11) 
oracle

>  <origin>  (11) 
adg

>  <m_score__min__energy>  (11) 
-8.6699999999999999

>  <m_primary>  (11) 
energy

$$$$
11:0
     RDKit          3D

 29 30  0  0  0  0  0  0  0  0999 V2000
   63.7440   33.4640   46.7090 C   0  0  0  0  0  0  0  0  0  0  0  0
   63.0980   33.2660   48.0750 C   0  0  0  0  0  0  0  0  0  0  0  0
   61.6920   33.6560   48.0300 N   0  0  0  0  0  0  0  0  0  0  0  0
   60.8920   33.9200   49.0840 C   0  0  0  0  0  0  0  0  0  0  0  0
   59.6570   34.3040   48.6020 C   0  0  0  0  0  0  0  0  0  0  0  0
   59.7090   34.2960   47.2550 N   0  0  0  0  0  0  0  0  0  0  0  0
   58.6090   34.5700   46.3360 C   0  0  0  0  0  0  0  0  0  0  0  0
   58.2830   33.3340   45.5450 C   0  0  0  0  0  0  0  0  0  0  0  0
   58.1570   32.0940   46.1910 C   0  0  0  0  0  0  0  0  0  0  0  0
   57.8950   30.9370   45.4490 C   0  0  0  0  0  0  0  0  0  0  0  0
   57.7710   31.0090   44.0590 C   0  0  0  0  0  0  0  0  0  0  0  0
   57.9120   32.2380   43.4060 C   0  0  0  0  0  0  0  0  0  0  0  0
   57.7580   32.3330   41.5050 Br  0  0  0  0  0  0  0  0  0  0  0  0
   58.1730   33.3970   44.1460 C   0  0  0  0  0  0  0  0  0  0  0  0
   60.9520   33.8940   46.9300 C   0  0  0  0  0  0  0  0  0  0  0  0
   64.7882   33.7841   46.8401 H   0  0  0  0  0  0  0  0  0  0  0  0
   63.7182   32.5167   46.1504 H   0  0  0  0  0  0  0  0  0  0  0  0
   63.1918   34.2341   46.1504 H   0  0  0  0  0  0  0  0  0  0  0  0
   63.1720   32.2066   48.3616 H   0  0  0  0  0  0  0  0  0  0  0  0
   63.6204   33.8926   48.8129 H   0  0  0  0  0  0  0  0  0  0  0  0
   61.1751   33.8426   50.1441 H   0  0  0  0  0  0  0  0  0  0  0  0
   58.7813   34.5706   49.2119 H   0  0  0  0  0  0  0  0  0  0  0  0
   57.7231   34.8801   46.9097 H   0  0  0  0  0  0  0  0  0  0  0  0
   58.9053   35.3738   45.6460 H   0  0  0  0  0  0  0  0  0  0  0  0
   58.2646   32.0318   47.2840 H   0  0  0  0  0  0  0  0  0  0  0  0
   57.7865   29.9693   45.9606 H   0  0  0  0  0  0  0  0  0  0  0  0
   57.5624   30.0986   43.4779 H   0  0  0  0  0  0  0  0  0  0  0  0
   58.2925   34.3611   43.6300 H   0  0  0  0  0  0  0  0  0  0  0  0
   61.3164   33.7752   45.8989 H   0  0  0  0  0  0  0  0  0  0  0  0
  1  2  1  0
  2  3  1  0
  3  4  1  0
  4  5  2  0
  5  6  1  0
  6  7  1  0
  7  8  1  0
  8  9  2  0
  9 10  1  0
 10 11  2  0
 11 12  1  0
 12 13  1  0
 12 14  2  0
  6 15  1  0
 15  3  2  0
 14  8  1  0
  1 16  1  0
  1 17  1  0
  1 18  1  0
  2 19  1  0
  2 20  1  0
  4 21  1  0
  5 22  1  0
  7 23  1  0
  7 24  1  0
  9 25  1  0
 10 26  1  0
 11 27  1  0
 14 28  1  0
 15 29  1  0
M  CHG  1   3   1
M  END
>  <UniqueID>  (12) 
10

>  <SMILES>  (12) 
CC[n+]1ccn(Cc2cccc(Br)c2)c1

>  <Energy>  (12) 
53.96242580003644

>  <Genealogy>  (12) 
CC[n+]1ccn(Cc2cccc(Br)c2)c1 (3D coordinates assigned)
CC[n+]1ccn(Cc2cccc(Br)c2)c1 (optimized conformer: 53.96242580003644 kcal/mol)

>  <smiles>  (12) 
CC[n+]1ccn(Cc2cccc(Br)c2)c1

>  <score_type>  (12) 
oracle

>  <origin>  (12) 
adg

>  <m_score__min__energy>  (12) 
-4.6600000000000001

>  <m_primary>  (12) 
energy

$$$$
12:0
     RDKit          3D

 45 48  0  0  1  0  0  0  0  0999 V2000
   60.6750   30.4720   46.3660 C   0  0  0  0  0  0  0  0  0  0  0  0
   60.4860   30.2230   47.8120 C   0  0  0  0  0  0  0  0  0  0  0  0
   59.6700   29.1880   48.2180 C   0  0  0  0  0  0  0  0  0  0  0  0
   59.5120   28.9790   49.5920 C   0  0  0  0  0  0  0  0  0  0  0  0
   60.1530   29.7860   50.5210 C   0  0  0  0  0  0  0  0  0  0  0  0
   60.9600   30.8100   50.1070 C   0  0  0  0  0  0  0  0  0  0  0  0
   61.1220   31.0240   48.7360 C   0  0  0  0  0  0  0  0  0  0  0  0
   61.9750   32.1050   48.3710 N   0  0  0  0  0  0  0  0  0  0  0  0
   63.1620   31.8810   47.7420 C   0  0  0  0  0  0  0  0  0  0  0  0
   63.7820   33.0960   47.5070 C   0  0  0  0  0  0  0  0  0  0  0  0
   62.9170   34.0410   48.0220 C   0  0  0  0  0  0  0  0  0  0  0  0
   61.8020   33.4280   48.5550 C   0  0  0  0  0  0  0  0  0  0  0  0
   60.6230   34.0590   49.2090 C   0  0  0  0  0  0  0  0  0  0  0  0
   59.3870   33.6730   48.6050 N   0  0  0  0  0  0  0  0  0  0  0  0
   59.1810   33.8570   47.3400 C   0  0  0  0  0  0  0  0  0  0  0  0
   58.6340   32.8880   46.5840 N   0  0  0  0  0  0  0  0  0  0  0  0
   58.4180   33.0850   45.2550 C   0  0  0  0  0  0  0  0  0  0  0  0
   57.8250   32.0360   44.4350 C   0  0  0  0  0  0  0  0  0  0  0  0
   57.5900   32.1580   43.0860 C   0  0  0  0  0  0  0  0  0  0  0  0
   57.0260   31.1480   42.3290 C   0  0  0  0  0  0  0  0  0  0  0  0
   56.6750   29.9600   42.9290 C   0  0  0  0  0  0  0  0  0  0  0  0
   56.9000   29.8080   44.2900 C   0  0  0  0  0  0  0  0  0  0  0  0
   57.4720   30.8470   45.0310 C   0  0  0  0  0  0  0  0  0  0  0  0
   57.6460   30.5940   46.3500 F   0  0  0  0  0  0  0  0  0  0  0  0
   58.7920   34.3160   44.7630 C   0  0  0  0  0  0  0  0  0  0  0  0
   59.3380   35.2680   45.5420 N   0  0  0  0  0  0  0  0  0  0  0  0
   59.5420   35.0540   46.8450 N   0  0  0  0  0  0  0  0  0  0  0  0
   61.3347   31.3411   46.2268 H   0  0  0  0  0  0  0  0  0  0  0  0
   61.1308   29.5870   45.8980 H   0  0  0  0  0  0  0  0  0  0  0  0
   59.7000   30.6730   45.8980 H   0  0  0  0  0  0  0  0  0  0  0  0
   59.1594   28.5469   47.4843 H   0  0  0  0  0  0  0  0  0  0  0  0
   58.8675   28.1595   49.9426 H   0  0  0  0  0  0  0  0  0  0  0  0
   60.0115   29.6014   51.5961 H   0  0  0  0  0  0  0  0  0  0  0  0
   61.4713   31.4523   50.8392 H   0  0  0  0  0  0  0  0  0  0  0  0
   63.5629   30.8947   47.4656 H   0  0  0  0  0  0  0  0  0  0  0  0
   64.7514   33.2705   47.0173 H   0  0  0  0  0  0  0  0  0  0  0  0
   63.0919   35.1269   48.0091 H   0  0  0  0  0  0  0  0  0  0  0  0
   60.6059   33.7608   50.2677 H   0  0  0  0  0  0  0  0  0  0  0  0
   60.7230   35.1486   49.0957 H   0  0  0  0  0  0  0  0  0  0  0  0
   57.8625   33.0999   42.5874 H   0  0  0  0  0  0  0  0  0  0  0  0
   56.8584   31.2932   41.2516 H   0  0  0  0  0  0  0  0  0  0  0  0
   56.2248   29.1466   42.3410 H   0  0  0  0  0  0  0  0  0  0  0  0
   56.6272   28.8660   44.7882 H   0  0  0  0  0  0  0  0  0  0  0  0
   58.6389   34.5287   43.6947 H   0  0  0  0  0  0  0  0  0  0  0  0
   59.9650   35.7930   47.4450 H   0  0  0  0  0  0  0  0  0  0  0  0
  1  2  1  0
  2  3  2  0
  3  4  1  0
  4  5  2  0
  5  6  1  0
  6  7  2  0
  7  8  1  0
  8  9  1  0
  9 10  2  0
 10 11  1  0
 11 12  2  0
 12 13  1  0
 13 14  1  0
 14 15  2  0
 15 16  1  0
 16 17  2  0
 17 18  1  0
 18 19  2  0
 19 20  1  0
 20 21  2  0
 21 22  1  0
 22 23  2  0
 23 24  1  0
 17 25  1  0
 25 26  2  0
 26 27  1  0
  7  2  1  0
 12  8  1  0
 27 15  1  0
 23 18  1  0
  1 28  1  0
  1 29  1  0
  1 30  1  0
  3 31  1  0
  4 32  1  0
  5 33  1  0
  6 34  1  0
  9 35  1  0
 10 36  1  0
 11 37  1  0
 13 38  1  0
 13 39  1  0
 19 40  1  0
 20 41  1  0
 21 42  1  0
 22 43  1  0
 25 44  1  0
 27 45  1  0
M  END
>  <smiles>  (13) 
Cc1ccccc1-n1cccc1CN=c1nc(-c2ccccc2F)cn[nH]1

>  <score_type>  (13) 
oracle

>  <origin>  (13) 
adg

>  <m_score__min__energy>  (13) 
-8.0999999999999996

>  <m_primary>  (13) 
energy

$$$$
13:0
     RDKit          3D

 37 39  0  0  0  0  0  0  0  0999 V2000
   59.2683   28.6697   43.8588 H   0  0  0  0  0  0  0  0  0  0  0  0
   58.8080   28.8730   44.8370 C   0  0  0  0  0  0  0  0  0  0  0  0
   58.8640   30.1290   45.3040 C   0  0  0  0  0  0  0  0  0  0  0  0
   57.8330   31.1720   45.2190 C   0  0  0  0  0  0  0  0  0  0  0  0
   56.6760   31.0570   44.7340 O   0  0  0  0  0  0  0  0  0  0  0  0
   58.3440   32.3480   45.8830 C   0  0  0  0  0  0  0  0  0  0  0  0
   57.7420   33.5940   46.0590 C   0  0  0  0  0  0  0  0  0  0  0  0
   56.7372   33.7960   45.6596 H   0  0  0  0  0  0  0  0  0  0  0  0
   58.4500   34.5830   46.7580 C   0  0  0  0  0  0  0  0  0  0  0  0
   58.0002   35.5754   46.9092 H   0  0  0  0  0  0  0  0  0  0  0  0
   59.7350   34.3100   47.2670 C   0  0  0  0  0  0  0  0  0  0  0  0
   60.2841   35.0911   47.8132 H   0  0  0  0  0  0  0  0  0  0  0  0
   60.3190   33.0460   47.0810 C   0  0  0  0  0  0  0  0  0  0  0  0
   61.3209   32.8269   47.4787 H   0  0  0  0  0  0  0  0  0  0  0  0
   59.6020   32.0730   46.3810 C   0  0  0  0  0  0  0  0  0  0  0  0
   60.0350   30.6670   46.0860 C   0  0  0  0  0  0  0  0  0  0  0  0
   60.1918   30.0955   47.0127 H   0  0  0  0  0  0  0  0  0  0  0  0
   60.9917   30.6042   45.5467 H   0  0  0  0  0  0  0  0  0  0  0  0
   58.1720   27.7450   45.5440 C   0  0  0  0  0  0  0  0  0  0  0  0
   58.9060   26.9360   46.4210 C   0  0  0  0  0  0  0  0  0  0  0  0
   59.9821   27.1167   46.5604 H   0  0  0  0  0  0  0  0  0  0  0  0
   58.2800   25.9020   47.1190 C   0  0  0  0  0  0  0  0  0  0  0  0
   58.8686   25.2624   47.7931 H   0  0  0  0  0  0  0  0  0  0  0  0
   56.8990   25.6730   46.9650 C   0  0  0  0  0  0  0  0  0  0  0  0
   56.2340   24.6420   47.6460 O   0  0  0  0  0  0  0  0  0  0  0  0
   56.5240   23.2560   47.4930 C   0  0  0  0  0  0  0  0  0  0  0  0
   56.6215   22.7901   48.4847 H   0  0  0  0  0  0  0  0  0  0  0  0
   55.7081   22.7698   46.9381 H   0  0  0  0  0  0  0  0  0  0  0  0
   57.4664   23.1376   46.9381 H   0  0  0  0  0  0  0  0  0  0  0  0
   56.1510   26.5000   46.1120 C   0  0  0  0  0  0  0  0  0  0  0  0
   54.7730   26.2560   45.9880 O   0  0  0  0  0  0  0  0  0  0  0  0
   54.2070   25.0020   45.6180 C   0  0  0  0  0  0  0  0  0  0  0  0
   53.9505   24.4338   46.5243 H   0  0  0  0  0  0  0  0  0  0  0  0
   53.2981   25.1715   45.0220 H   0  0  0  0  0  0  0  0  0  0  0  0
   54.9354   24.4325   45.0220 H   0  0  0  0  0  0  0  0  0  0  0  0
   56.7920   27.5420   45.4120 C   0  0  0  0  0  0  0  0  0  0  0  0
   56.2039   28.2013   44.7566 H   0  0  0  0  0  0  0  0  0  0  0  0
  1  2  1  0
  2  3  2  0
  3  4  1  0
  4  5  2  0
  4  6  1  0
  6  7  2  0
  7  8  1  0
  7  9  1  0
  9 10  1  0
  9 11  2  0
 11 12  1  0
 11 13  1  0
 13 14  1  0
 13 15  2  0
 15 16  1  0
 16 17  1  0
 16 18  1  0
  2 19  1  0
 19 20  2  0
 20 21  1  0
 20 22  1  0
 22 23  1  0
 22 24  2  0
 24 25  1  0
 25 26  1  0
 26 27  1  0
 26 28  1  0
 26 29  1  0
 24 30  1  0
 30 31  1  0
 31 32  1  0
 32 33  1  0
 32 34  1  0
 32 35  1  0
 30 36  2  0
 36 37  1  0
 16  3  1  0
 36 19  1  0
 15  6  1  0
M  END
>  <UniqueID>  (14) 
11

>  <SMILES>  (14) 
COc1ccc(/C=C2/Cc3ccccc3C2=O)cc1OC

>  <Energy>  (14) 
63.724501396937654

>  <Genealogy>  (14) 
COc1ccc(/C=C2/Cc3ccccc3C2=O)cc1OC (cis-trans isomerization)
COc1ccc(/C=C2/Cc3ccccc3C2=O)cc1OC (3D coordinates assigned)
COc1ccc(/C=C2/Cc3ccccc3C2=O)cc1OC (nonaromatic ring conformer: 63.724501396937654 kcal/mol)

>  <smiles>  (14) 
COc1ccc(C=C2Cc3ccccc3C2=O)cc1OC

>  <score_type>  (14) 
oracle

>  <origin>  (14) 
adg

>  <m_score__min__energy>  (14) 
-8.0099999999999998

>  <m_primary>  (14) 
energy

$$$$
14:0
     RDKit          3D

 39 42  0  0  0  0  0  0  0  0999 V2000
   58.5340   25.2170   46.2130 C   0  0  0  0  0  0  0  0  0  0  0  0
   58.8610   26.0260   47.3380 O   0  0  0  0  0  0  0  0  0  0  0  0
   59.1040   27.4060   47.2770 C   0  0  0  0  0  0  0  0  0  0  0  0
   59.8500   27.9030   46.2010 C   0  0  0  0  0  0  0  0  0  0  0  0
   60.1190   29.2700   46.0940 C   0  0  0  0  0  0  0  0  0  0  0  0
   59.6410   30.1580   47.0670 C   0  0  0  0  0  0  0  0  0  0  0  0
   59.9200   31.6070   46.9530 C   0  0  0  0  0  0  0  0  0  0  0  0
   59.0240   32.4520   46.2200 C   0  0  0  0  0  0  0  0  0  0  0  0
   57.8450   31.9740   45.5710 C   0  0  0  0  0  0  0  0  0  0  0  0
   57.4670   30.6370   45.5980 O   0  0  0  0  0  0  0  0  0  0  0  0
   57.0150   32.8550   44.8710 C   0  0  0  0  0  0  0  0  0  0  0  0
   57.3180   34.2080   44.7930 C   0  0  0  0  0  0  0  0  0  0  0  0
   58.4590   34.7000   45.4160 C   0  0  0  0  0  0  0  0  0  0  0  0
   59.3130   33.8400   46.1260 C   0  0  0  0  0  0  0  0  0  0  0  0
   60.4480   34.3720   46.7350 C   0  0  0  0  0  0  0  0  0  0  0  0
   61.3260   33.5600   47.4520 C   0  0  0  0  0  0  0  0  0  0  0  0
   62.4540   34.1470   48.0470 C   0  0  0  0  0  0  0  0  0  0  0  0
   63.3550   33.3740   48.7690 C   0  0  0  0  0  0  0  0  0  0  0  0
   63.1420   32.0070   48.9080 C   0  0  0  0  0  0  0  0  0  0  0  0
   62.0250   31.3910   48.3250 C   0  0  0  0  0  0  0  0  0  0  0  0
   61.8740   30.0160   48.5030 O   0  0  0  0  0  0  0  0  0  0  0  0
   61.0840   32.1650   47.5770 C   0  0  0  0  0  0  0  0  0  0  0  0
   58.8930   29.6690   48.1480 C   0  0  0  0  0  0  0  0  0  0  0  0
   58.6250   28.3020   48.2540 C   0  0  0  0  0  0  0  0  0  0  0  0
   58.1427   24.2489   46.5589 H   0  0  0  0  0  0  0  0  0  0  0  0
   57.7706   25.7251   45.6055 H   0  0  0  0  0  0  0  0  0  0  0  0
   59.4360   25.0520   45.6055 H   0  0  0  0  0  0  0  0  0  0  0  0
   60.2274   27.2113   45.4335 H   0  0  0  0  0  0  0  0  0  0  0  0
   60.7066   29.6495   45.2451 H   0  0  0  0  0  0  0  0  0  0  0  0
   56.1107   32.4716   44.3759 H   0  0  0  0  0  0  0  0  0  0  0  0
   56.6559   34.8895   44.2389 H   0  0  0  0  0  0  0  0  0  0  0  0
   58.6953   35.7724   45.3524 H   0  0  0  0  0  0  0  0  0  0  0  0
   60.6544   35.4490   46.6487 H   0  0  0  0  0  0  0  0  0  0  0  0
   62.6260   35.2283   47.9407 H   0  0  0  0  0  0  0  0  0  0  0  0
   64.2364   33.8433   49.2304 H   0  0  0  0  0  0  0  0  0  0  0  0
   63.8584   31.4012   49.4823 H   0  0  0  0  0  0  0  0  0  0  0  0
   61.3610   29.6260   49.2860 H   0  0  0  0  0  0  0  0  0  0  0  0
   58.5167   30.3632   48.9138 H   0  0  0  0  0  0  0  0  0  0  0  0
   58.0377   27.9233   49.1035 H   0  0  0  0  0  0  0  0  0  0  0  0
  1  2  1  0
  2  3  1  0
  3  4  2  0
  4  5  1  0
  5  6  2  0
  6  7  1  0
  7  8  1  0
  8  9  2  0
  9 10  1  0
  9 11  1  0
 11 12  2  0
 12 13  1  0
 13 14  2  0
 14 15  1  0
 15 16  2  0
 16 17  1  0
 17 18  2  0
 18 19  1  0
 19 20  2  0
 20 21  1  0
 20 22  1  0
  6 23  1  0
 23 24  2  0
 24  3  1  0
 22  7  2  0
 14  8  1  0
 22 16  1  0
  1 25  1  0
  1 26  1  0
  1 27  1  0
  4 28  1  0
  5 29  1  0
 11 30  1  0
 12 31  1  0
 13 32  1  0
 15 33  1  0
 17 34  1  0
 18 35  1  0
 19 36  1  0
 21 37  1  0
 23 38  1  0
 24 39  1  0
M  CHG  1  10  -1
M  END
>  <UniqueID>  (15) 
12

>  <SMILES>  (15) 
COc1ccc(-c2c3c([O-])cccc3cc3cccc(O)c23)cc1

>  <Energy>  (15) 
68.17215298403775

>  <Genealogy>  (15) 
COc1ccc(-c2c3c([O-])cccc3cc3cccc(O)c23)cc1 (protonated)
COc1ccc(-c2c3c([O-])cccc3cc3cccc(O)c23)cc1 (3D coordinates assigned)
COc1ccc(-c2c3c([O-])cccc3cc3cccc(O)c23)cc1 (optimized conformer: 68.17215298403775 kcal/mol)

>  <smiles>  (15) 
COc1ccc(-c2c3c(O)cccc3cc3cccc(O)c23)cc1

>  <score_type>  (15) 
oracle

>  <origin>  (15) 
adg

>  <m_score__min__energy>  (15) 
-7.7800000000000002

>  <m_primary>  (15) 
energy

$$$$
15:0
     RDKit          3D

 55 57  0  0  0  0  0  0  0  0999 V2000
   56.3722   33.2855   44.3835 H   0  0  0  0  0  0  0  0  0  0  0  0
   57.2460   32.8170   44.8600 C   0  0  0  0  0  0  0  0  0  0  0  0
   58.0510   33.6090   45.5990 C   0  0  0  0  0  0  0  0  0  0  0  0
   58.1290   33.5270   47.0860 C   0  0  0  0  0  0  0  0  0  0  0  0
   57.1420   33.0990   47.7420 O   0  0  0  0  0  0  0  0  0  0  0  0
   59.3430   34.0410   47.7820 C   0  0  0  0  0  0  0  0  0  0  0  0
   59.6480   33.7500   49.0640 C   0  0  0  0  0  0  0  0  0  0  0  0
   60.3834   34.3892   49.5745 H   0  0  0  0  0  0  0  0  0  0  0  0
   59.0620   32.6340   49.8250 C   0  0  0  0  0  0  0  0  0  0  0  0
   58.5140   32.8580   51.0920 C   0  0  0  0  0  0  0  0  0  0  0  0
   58.5298   33.8707   51.5211 H   0  0  0  0  0  0  0  0  0  0  0  0
   57.9420   31.7990   51.8240 C   0  0  0  0  0  0  0  0  0  0  0  0
   57.3900   32.0230   53.0940 O   0  0  0  0  0  0  0  0  0  0  0  0
   58.1030   31.9410   54.3240 C   0  0  0  0  0  0  0  0  0  0  0  0
   57.3967   32.0222   55.1634 H   0  0  0  0  0  0  0  0  0  0  0  0
   58.6289   30.9765   54.3794 H   0  0  0  0  0  0  0  0  0  0  0  0
   58.8341   32.7610   54.3794 H   0  0  0  0  0  0  0  0  0  0  0  0
   57.9390   30.4920   51.2690 C   0  0  0  0  0  0  0  0  0  0  0  0
   57.3740   29.3740   51.9130 O   0  0  0  0  0  0  0  0  0  0  0  0
   56.2160   29.3760   52.7380 C   0  0  0  0  0  0  0  0  0  0  0  0
   56.5191   29.3755   53.7954 H   0  0  0  0  0  0  0  0  0  0  0  0
   55.6180   30.2752   52.5284 H   0  0  0  0  0  0  0  0  0  0  0  0
   55.6149   28.4789   52.5284 H   0  0  0  0  0  0  0  0  0  0  0  0
   58.5220   30.2690   50.0090 C   0  0  0  0  0  0  0  0  0  0  0  0
   58.5100   28.9610   49.4930 O   0  0  0  0  0  0  0  0  0  0  0  0
   59.3870   28.4850   48.4790 C   0  0  0  0  0  0  0  0  0  0  0  0
   60.2627   28.0097   48.9451 H   0  0  0  0  0  0  0  0  0  0  0  0
   58.8598   27.7493   47.8539 H   0  0  0  0  0  0  0  0  0  0  0  0
   59.7166   29.3280   47.8539 H   0  0  0  0  0  0  0  0  0  0  0  0
   59.0840   31.3440   49.2950 C   0  0  0  0  0  0  0  0  0  0  0  0
   59.5439   31.1654   48.3118 H   0  0  0  0  0  0  0  0  0  0  0  0
   60.3390   34.8320   46.9680 C   0  0  0  0  0  0  0  0  0  0  0  0
   61.0903   34.1448   46.5517 H   0  0  0  0  0  0  0  0  0  0  0  0
   60.8178   35.5740   47.6238 H   0  0  0  0  0  0  0  0  0  0  0  0
   59.6440   35.5710   45.8190 C   0  0  0  0  0  0  0  0  0  0  0  0
   60.3942   36.1444   45.2547 H   0  0  0  0  0  0  0  0  0  0  0  0
   58.8839   36.2427   46.2445 H   0  0  0  0  0  0  0  0  0  0  0  0
   58.9480   34.5860   44.8700 C   0  0  0  0  0  0  0  0  0  0  0  0
   59.7171   34.0188   44.3252 H   0  0  0  0  0  0  0  0  0  0  0  0
   58.3157   35.1724   44.1871 H   0  0  0  0  0  0  0  0  0  0  0  0
   57.4470   31.3690   44.6410 C   0  0  0  0  0  0  0  0  0  0  0  0
   58.4060   30.6500   45.3790 C   0  0  0  0  0  0  0  0  0  0  0  0
   58.9988   31.1628   46.1508 H   0  0  0  0  0  0  0  0  0  0  0  0
   58.6100   29.2870   45.1370 C   0  0  0  0  0  0  0  0  0  0  0  0
   59.3499   28.7292   45.7299 H   0  0  0  0  0  0  0  0  0  0  0  0
   57.8710   28.6280   44.1370 C   0  0  0  0  0  0  0  0  0  0  0  0
   58.0350   27.2620   43.8600 O   0  0  0  0  0  0  0  0  0  0  0  0
   58.0470   26.7030   42.5490 C   0  0  0  0  0  0  0  0  0  0  0  0
   58.0706   25.6055   42.6186 H   0  0  0  0  0  0  0  0  0  0  0  0
   57.1419   27.0168   42.0083 H   0  0  0  0  0  0  0  0  0  0  0  0
   58.9378   27.0553   42.0083 H   0  0  0  0  0  0  0  0  0  0  0  0
   56.9430   29.3560   43.3820 C   0  0  0  0  0  0  0  0  0  0  0  0
   56.3695   28.8513   42.5905 H   0  0  0  0  0  0  0  0  0  0  0  0
   56.7380   30.7180   43.6240 C   0  0  0  0  0  0  0  0  0  0  0  0
   56.0167   31.2803   43.0128 H   0  0  0  0  0  0  0  0  0  0  0  0
  1  2  1  0
  2  3  2  3
  3  4  1  0
  4  5  2  0
  4  6  1  0
  6  7  2  0
  7  8  1  0
  7  9  1  0
  9 10  2  0
 10 11  1  0
 10 12  1  0
 12 13  1  0
 13 14  1  0
 14 15  1  0
 14 16  1  0
 14 17  1  0
 12 18  2  0
 18 19  1  0
 19 20  1  0
 20 21  1  0
 20 22  1  0
 20 23  1  0
 18 24  1  0
 24 25  1  0
 25 26  1  0
 26 27  1  0
 26 28  1  0
 26 29  1  0
 24 30  2  0
 30 31  1  0
  6 32  1  0
 32 33  1  0
 32 34  1  0
 32 35  1  0
 35 36  1  0
 35 37  1  0
 35 38  1  0
 38 39  1  0
 38 40  1  0
  2 41  1  0
 41 42  2  0
 42 43  1  0
 42 44  1  0
 44 45  1  0
 44 46  2  0
 46 47  1  0
 47 48  1  0
 48 49  1  0
 48 50  1  0
 48 51  1  0
 46 52  1  0
 52 53  1  0
 52 54  2  0
 54 55  1  0
 38  3  1  0
 54 41  1  0
 30  9  1  0
M  END
>  <UniqueID>  (16) 
13

>  <SMILES>  (16) 
COc1ccc(C=C2CCC/C(=C/c3cc(OC)c(OC)c(OC)c3)C2=O)cc1

>  <Energy>  (16) 
74.59635888961306

>  <Genealogy>  (16) 
COc1ccc(C=C2CCC/C(=C/c3cc(OC)c(OC)c(OC)c3)C2=O)cc1 (cis-trans isomerization)
COc1ccc(C=C2CCC/C(=C/c3cc(OC)c(OC)c(OC)c3)C2=O)cc1 (3D coordinates assigned)
COc1ccc(C=C2CCC/C(=C/c3cc(OC)c(OC)c(OC)c3)C2=O)cc1 (nonaromatic ring conformer: 74.59635888961306 kcal/mol)

>  <smiles>  (16) 
COc1ccc(C=C2CCCC(=Cc3cc(OC)c(OC)c(OC)c3)C2=O)cc1

>  <score_type>  (16) 
oracle

>  <origin>  (16) 
adg

>  <m_score__min__energy>  (16) 
-8.0399999999999991

>  <m_primary>  (16) 
energy

$$$$
16:0
     RDKit          3D

 31 33  0  0  0  0  0  0  0  0999 V2000
   58.8580   27.4610   43.7870 C   0  0  0  0  0  0  0  0  0  0  0  0
   58.1190   28.7010   44.1960 C   0  0  0  0  0  0  0  0  0  0  0  0
   58.7190   29.6230   45.0610 C   0  0  0  0  0  0  0  0  0  0  0  0
   58.0190   30.7870   45.3980 C   0  0  0  0  0  0  0  0  0  0  0  0
   58.6080   31.7890   46.3140 C   0  0  0  0  0  0  0  0  0  0  0  0
   59.0400   31.4470   47.6290 C   0  0  0  0  0  0  0  0  0  0  0  0
   58.9000   30.0450   48.1600 C   0  0  0  0  0  0  0  0  0  0  0  0
   59.6260   32.4380   48.4580 C   0  0  0  0  0  0  0  0  0  0  0  0
   59.7710   33.7600   48.0120 C   0  0  0  0  0  0  0  0  0  0  0  0
   59.3310   34.0680   46.7290 C   0  0  0  0  0  0  0  0  0  0  0  0
   59.4070   35.2600   46.1130 N   0  0  0  0  0  0  0  0  0  0  0  0
   58.8960   35.0710   44.8770 C   0  0  0  0  0  0  0  0  0  0  0  0
   58.4940   33.7530   44.7080 C   0  0  0  0  0  0  0  0  0  0  0  0
   58.7720   33.1230   45.9080 C   0  0  0  0  0  0  0  0  0  0  0  0
   56.7880   31.0020   44.8620 N   0  0  0  0  0  0  0  0  0  0  0  0
   56.2230   30.1080   44.0110 C   0  0  0  0  0  0  0  0  0  0  0  0
   56.8870   28.9690   43.6780 N   0  0  0  0  0  0  0  0  0  0  0  0
   59.1833   26.9151   44.6849 H   0  0  0  0  0  0  0  0  0  0  0  0
   58.1947   26.8196   43.1881 H   0  0  0  0  0  0  0  0  0  0  0  0
   59.7378   27.7392   43.1881 H   0  0  0  0  0  0  0  0  0  0  0  0
   59.7233   29.4361   45.4689 H   0  0  0  0  0  0  0  0  0  0  0  0
   58.9023   30.0675   49.2598 H   0  0  0  0  0  0  0  0  0  0  0  0
   57.9540   29.6109   47.8041 H   0  0  0  0  0  0  0  0  0  0  0  0
   59.7414   29.4324   47.8041 H   0  0  0  0  0  0  0  0  0  0  0  0
   59.9720   32.1655   49.4660 H   0  0  0  0  0  0  0  0  0  0  0  0
   60.2191   34.5298   48.6574 H   0  0  0  0  0  0  0  0  0  0  0  0
   59.7940   36.1480   46.5020 H   0  0  0  0  0  0  0  0  0  0  0  0
   58.8101   35.8542   44.1094 H   0  0  0  0  0  0  0  0  0  0  0  0
   58.0479   33.3037   43.8085 H   0  0  0  0  0  0  0  0  0  0  0  0
   55.2261   30.3053   43.5900 H   0  0  0  0  0  0  0  0  0  0  0  0
   56.4380   28.2990   43.0130 H   0  0  0  0  0  0  0  0  0  0  0  0
  1  2  1  0
  2  3  2  0
  3  4  1  0
  4  5  1  0
  5  6  2  0
  6  7  1  0
  6  8  1  0
  8  9  2  0
  9 10  1  0
 10 11  1  0
 11 12  1  0
 12 13  2  0
 13 14  1  0
  4 15  2  0
 15 16  1  0
 16 17  2  0
 17  2  1  0
 14  5  1  0
 14 10  2  0
  1 18  1  0
  1 19  1  0
  1 20  1  0
  3 21  1  0
  7 22  1  0
  7 23  1  0
  7 24  1  0
  8 25  1  0
  9 26  1  0
 11 27  1  0
 12 28  1  0
 13 29  1  0
 16 30  1  0
 17 31  1  0
M  CHG  1  17   1
M  END
>  <UniqueID>  (17) 
14

>  <SMILES>  (17) 
Cc1cc(-c2c(C)ccc3[nH]ccc23)nc[nH+]1

>  <Energy>  (17) 
71.62947959733154

>  <Genealogy>  (17) 
Cc1cc(-c2c(C)ccc3[nH]ccc23)nc[nH+]1 (protonated)
Cc1cc(-c2c(C)ccc3[nH]ccc23)nc[nH+]1 (3D coordinates assigned)
Cc1cc(-c2c(C)ccc3[nH]ccc23)nc[nH+]1 (optimized conformer: 71.62947959733154 kcal/mol)

>  <smiles>  (17) 
Cc1cc(-c2c(C)ccc3[nH]ccc23)ncn1

>  <score_type>  (17) 
oracle

>  <origin>  (17) 
adg

>  <m_score__min__energy>  (17) 
-5.4299999999999997

>  <m_primary>  (17) 
energy

$$$$
17:0
     RDKit          3D

 35 37  0  0  0  0  0  0  0  0999 V2000
   55.2747   30.1881   43.6162 H   0  0  0  0  0  0  0  0  0  0  0  0
   56.0770   29.7920   44.2560 C   0  0  0  0  0  0  0  0  0  0  0  0
   55.9120   28.5990   44.8750 N   0  0  0  0  0  0  0  0  0  0  0  0
   56.8710   28.0620   45.6690 C   0  0  0  0  0  0  0  0  0  0  0  0
   56.6470   26.8190   46.2680 C   0  0  0  0  0  0  0  0  0  0  0  0
   55.6983   26.2914   46.0899 H   0  0  0  0  0  0  0  0  0  0  0  0
   57.6240   26.2360   47.0970 C   0  0  0  0  0  0  0  0  0  0  0  0
   57.4250   24.9870   47.7100 O   0  0  0  0  0  0  0  0  0  0  0  0
   56.6210   23.9420   47.1740 C   0  0  0  0  0  0  0  0  0  0  0  0
   56.1757   23.3632   47.9967 H   0  0  0  0  0  0  0  0  0  0  0  0
   55.8211   24.3752   46.5555 H   0  0  0  0  0  0  0  0  0  0  0  0
   57.2448   23.2799   46.5555 H   0  0  0  0  0  0  0  0  0  0  0  0
   58.8340   26.9170   47.3180 C   0  0  0  0  0  0  0  0  0  0  0  0
   59.8470   26.3480   48.1570 N   0  0  0  0  0  0  0  0  0  0  0  0
   59.6220   25.6110   48.8600 H   0  0  0  0  0  0  0  0  0  0  0  0
   60.8400   26.6630   48.0810 H   0  0  0  0  0  0  0  0  0  0  0  0
   59.0570   28.1650   46.7180 C   0  0  0  0  0  0  0  0  0  0  0  0
   60.0057   28.6914   46.8991 H   0  0  0  0  0  0  0  0  0  0  0  0
   58.0830   28.7550   45.8860 C   0  0  0  0  0  0  0  0  0  0  0  0
   58.2780   30.0230   45.2810 C   0  0  0  0  0  0  0  0  0  0  0  0
   59.3970   30.6590   45.5310 N   0  0  0  0  0  0  0  0  0  0  0  0
   59.6140   31.8650   46.2720 C   0  0  0  0  0  0  0  0  0  0  0  0
   58.5320   32.6910   46.6200 C   0  0  0  0  0  0  0  0  0  0  0  0
   57.5166   32.4378   46.2812 H   0  0  0  0  0  0  0  0  0  0  0  0
   58.7440   33.8340   47.3960 C   0  0  0  0  0  0  0  0  0  0  0  0
   57.8984   34.4892   47.6521 H   0  0  0  0  0  0  0  0  0  0  0  0
   60.0310   34.1450   47.8470 C   0  0  0  0  0  0  0  0  0  0  0  0
   60.1987   35.0496   48.4500 H   0  0  0  0  0  0  0  0  0  0  0  0
   61.1060   33.3050   47.5310 C   0  0  0  0  0  0  0  0  0  0  0  0
   62.8590   33.7200   48.1650 Br  0  0  0  0  0  0  0  0  0  0  0  0
   60.8940   32.1600   46.7550 C   0  0  0  0  0  0  0  0  0  0  0  0
   61.7354   31.4902   46.5241 H   0  0  0  0  0  0  0  0  0  0  0  0
   57.2570   30.5270   44.4210 C   0  0  0  0  0  0  0  0  0  0  0  0
   57.3980   31.7130   43.6090 C   0  0  0  0  0  0  0  0  0  0  0  0
   57.5030   32.6690   42.9660 N   0  0  0  0  0  0  0  0  0  0  0  0
  1  2  1  0
  2  3  1  0
  3  4  1  0
  4  5  2  0
  5  6  1  0
  5  7  1  0
  7  8  1  0
  8  9  1  0
  9 10  1  0
  9 11  1  0
  9 12  1  0
  7 13  2  0
 13 14  1  0
 14 15  1  0
 14 16  1  0
 13 17  1  0
 17 18  1  0
 17 19  2  0
 19 20  1  0
 20 21  2  0
 21 22  1  0
 22 23  2  0
 23 24  1  0
 23 25  1  0
 25 26  1  0
 25 27  2  0
 27 28  1  0
 27 29  1  0
 29 30  1  0
 29 31  2  0
 31 32  1  0
 20 33  1  0
 33 34  1  0
 34 35  3  0
 33  2  2  0
 19  4  1  0
 31 22  1  0
M  CHG  1   3  -1
M  END
>  <UniqueID>  (18) 
15

>  <SMILES>  (18) 
COc1cc2[n-]cc(C#N)/c(=N\c3cccc(Br)c3)c2cc1N

>  <Energy>  (18) 
57.37044641427818

>  <Genealogy>  (18) 
COc1cc2[n-]cc(C#N)c(=Nc3cccc(Br)c3)c2cc1N (protonated)
COc1cc2[n-]cc(C#N)/c(=N\c3cccc(Br)c3)c2cc1N (cis-trans isomerization)
COc1cc2[n-]cc(C#N)/c(=N\c3cccc(Br)c3)c2cc1N (3D coordinates assigned)
COc1cc2[n-]cc(C#N)/c(=N\c3cccc(Br)c3)c2cc1N (optimized conformer: 57.37044641427818 kcal/mol)

>  <smiles>  (18) 
COc1cc2[nH]cc(C#N)c(=Nc3cccc(Br)c3)c2cc1N

>  <score_type>  (18) 
oracle

>  <origin>  (18) 
adg

>  <m_score__min__energy>  (18) 
-8.2400000000000002

>  <m_primary>  (18) 
energy

$$$$
18:0
     RDKit          3D

 53 58  0  0  0  0  0  0  0  0999 V2000
   57.0220   21.4950   43.3950 C   0  0  0  0  0  0  0  0  0  0  0  0
   56.1890   22.4650   44.0240 O   0  0  0  0  0  0  0  0  0  0  0  0
   56.5780   23.7840   44.2990 C   0  0  0  0  0  0  0  0  0  0  0  0
   57.3540   24.4590   43.3520 C   0  0  0  0  0  0  0  0  0  0  0  0
   57.7670   25.7760   43.5770 C   0  0  0  0  0  0  0  0  0  0  0  0
   57.4090   26.4420   44.7630 C   0  0  0  0  0  0  0  0  0  0  0  0
   57.8480   27.8400   45.0050 C   0  0  0  0  0  0  0  0  0  0  0  0
   57.2710   28.9020   44.2870 C   0  0  0  0  0  0  0  0  0  0  0  0
   57.6790   30.2180   44.5120 C   0  0  0  0  0  0  0  0  0  0  0  0
   58.6690   30.4970   45.4570 C   0  0  0  0  0  0  0  0  0  0  0  0
   59.0470   31.7560   45.6590 O   0  0  0  0  0  0  0  0  0  0  0  0
   59.9820   32.0930   46.5400 C   0  0  0  0  0  0  0  0  0  0  0  0
   60.3240   33.4390   46.6980 C   0  0  0  0  0  0  0  0  0  0  0  0
   61.3060   33.8130   47.6190 C   0  0  0  0  0  0  0  0  0  0  0  0
   61.9620   32.8440   48.3970 C   0  0  0  0  0  0  0  0  0  0  0  0
   63.0070   33.2470   49.3740 C   0  0  0  0  0  0  0  0  0  0  0  0
   62.7050   34.1550   50.4040 C   0  0  0  0  0  0  0  0  0  0  0  0
   63.6830   34.5360   51.3270 C   0  0  0  0  0  0  0  0  0  0  0  0
   64.9810   34.0180   51.2350 C   0  0  0  0  0  0  0  0  0  0  0  0
   65.9700   34.3950   52.1580 C   0  0  0  0  0  0  0  0  0  0  0  0
   67.2620   33.8720   52.0540 C   0  0  0  0  0  0  0  0  0  0  0  0
   67.5750   32.9700   51.0340 C   0  0  0  0  0  0  0  0  0  0  0  0
   66.6000   32.5860   50.1090 C   0  0  0  0  0  0  0  0  0  0  0  0
   65.2970   33.1030   50.2030 C   0  0  0  0  0  0  0  0  0  0  0  0
   64.3100   32.7250   49.2800 C   0  0  0  0  0  0  0  0  0  0  0  0
   61.6180   31.4890   48.2390 C   0  0  0  0  0  0  0  0  0  0  0  0
   60.6300   31.1050   47.3130 C   0  0  0  0  0  0  0  0  0  0  0  0
   60.2590   29.7610   47.1300 C   0  0  0  0  0  0  0  0  0  0  0  0
   60.8140   28.8480   47.8040 O   0  0  0  0  0  0  0  0  0  0  0  0
   59.2630   29.4450   46.1900 C   0  0  0  0  0  0  0  0  0  0  0  0
   58.8460   28.1210   45.9570 C   0  0  0  0  0  0  0  0  0  0  0  0
   56.6290   25.7620   45.7150 C   0  0  0  0  0  0  0  0  0  0  0  0
   56.2150   24.4460   45.4870 C   0  0  0  0  0  0  0  0  0  0  0  0
   57.5346   20.8981   44.1637 H   0  0  0  0  0  0  0  0  0  0  0  0
   56.4058   20.8339   42.7679 H   0  0  0  0  0  0  0  0  0  0  0  0
   57.7686   22.0042   42.7679 H   0  0  0  0  0  0  0  0  0  0  0  0
   57.6425   23.9492   42.4209 H   0  0  0  0  0  0  0  0  0  0  0  0
   58.3758   26.2944   42.8216 H   0  0  0  0  0  0  0  0  0  0  0  0
   56.4903   28.6940   43.5405 H   0  0  0  0  0  0  0  0  0  0  0  0
   57.2188   31.0389   43.9425 H   0  0  0  0  0  0  0  0  0  0  0  0
   59.8179   34.2071   46.0948 H   0  0  0  0  0  0  0  0  0  0  0  0
   61.5678   34.8750   47.7360 H   0  0  0  0  0  0  0  0  0  0  0  0
   61.6893   34.5696   50.4842 H   0  0  0  0  0  0  0  0  0  0  0  0
   63.4322   35.2457   52.1291 H   0  0  0  0  0  0  0  0  0  0  0  0
   65.7275   35.1030   52.9641 H   0  0  0  0  0  0  0  0  0  0  0  0
   68.0347   34.1715   52.7774 H   0  0  0  0  0  0  0  0  0  0  0  0
   68.5931   32.5603   50.9586 H   0  0  0  0  0  0  0  0  0  0  0  0
   66.8533   31.8779   49.3062 H   0  0  0  0  0  0  0  0  0  0  0  0
   64.5570   32.0151   48.4768 H   0  0  0  0  0  0  0  0  0  0  0  0
   62.1254   30.7233   48.8442 H   0  0  0  0  0  0  0  0  0  0  0  0
   59.3046   27.2978   46.5245 H   0  0  0  0  0  0  0  0  0  0  0  0
   56.3419   26.2699   46.6475 H   0  0  0  0  0  0  0  0  0  0  0  0
   55.6033   23.9260   46.2389 H   0  0  0  0  0  0  0  0  0  0  0  0
  1  2  1  0
  2  3  1  0
  3  4  2  0
  4  5  1  0
  5  6  2  0
  6  7  1  0
  7  8  2  0
  8  9  1  0
  9 10  2  0
 10 11  1  0
 11 12  1  0
 12 13  2  0
 13 14  1  0
 14 15  2  0
 15 16  1  0
 16 17  2  0
 17 18  1  0
 18 19  2  0
 19 20  1  0
 20 21  2  0
 21 22  1  0
 22 23  2  0
 23 24  1  0
 24 25  2  0
 15 26  1  0
 26 27  2  0
 27 28  1  0
 28 29  2  0
 28 30  1  0
 30 31  2  0
  6 32  1  0
 32 33  2  0
 33  3  1  0
 31  7  1  0
 30 10  1  0
 27 12  1  0
 25 16  1  0
 24 19  1  0
  1 34  1  0
  1 35  1  0
  1 36  1  0
  4 37  1  0
  5 38  1  0
  8 39  1  0
  9 40  1  0
 13 41  1  0
 14 42  1  0
 17 43  1  0
 18 44  1  0
 20 45  1  0
 21 46  1  0
 22 47  1  0
 23 48  1  0
 25 49  1  0
 26 50  1  0
 31 51  1  0
 32 52  1  0
 33 53  1  0
M  END
>  <UniqueID>  (19) 
16

>  <SMILES>  (19) 
COc1ccc(-c2ccc3oc4ccc(-c5ccc6ccccc6c5)cc4c(=O)c3c2)cc1

>  <Energy>  (19) 
83.87933822302394

>  <Genealogy>  (19) 
COc1ccc(-c2ccc3oc4ccc(-c5ccc6ccccc6c5)cc4c(=O)c3c2)cc1 (3D coordinates assigned)
COc1ccc(-c2ccc3oc4ccc(-c5ccc6ccccc6c5)cc4c(=O)c3c2)cc1 (optimized conformer: 83.87933822302394 kcal/mol)

>  <smiles>  (19) 
COc1ccc(-c2ccc3oc4ccc(-c5ccc6ccccc6c5)cc4c(=O)c3c2)cc1

>  <score_type>  (19) 
oracle

>  <origin>  (19) 
adg

>  <m_score__min__energy>  (19) 
-8.9700000000000006

>  <m_primary>  (19) 
energy

$$$$
19:0
     RDKit          3D

 52 56  0  0  0  0  0  0  0  0999 V2000
   52.1020   29.2210   51.3350 O   0  0  0  0  0  0  0  0  0  0  0  0
   52.5000   30.0670   52.3900 C   0  0  2  0  0  0  0  0  0  0  0  0
   51.2320   30.6290   53.0880 C   0  0  0  0  0  0  0  0  0  0  0  0
   51.5530   31.0900   54.3530 F   0  0  0  0  0  0  0  0  0  0  0  0
   50.7040   31.6830   52.3620 F   0  0  0  0  0  0  0  0  0  0  0  0
   50.2610   29.6490   53.2050 F   0  0  0  0  0  0  0  0  0  0  0  0
   53.3100   31.2380   51.7680 C   0  0  0  0  0  0  0  0  0  0  0  0
   54.7880   30.8610   51.6190 C   0  0  0  0  0  0  0  0  0  0  0  0
   55.4310   30.6670   52.9450 N   0  0  2  0  0  0  0  0  0  0  0  0
   56.7220   29.9410   52.8320 C   0  0  0  0  0  0  0  0  0  0  0  0
   57.7590   30.6750   52.0230 C   0  0  0  0  0  0  0  0  0  0  0  0
   59.0940   30.8150   52.3540 C   0  0  0  0  0  0  0  0  0  0  0  0
   59.6620   31.5350   51.3250 C   0  0  0  0  0  0  0  0  0  0  0  0
   58.6370   31.7900   50.4330 C   0  0  0  0  0  0  0  0  0  0  0  0
   58.7480   32.5210   49.1630 C   0  0  0  0  0  0  0  0  0  0  0  0
   58.3600   32.0150   47.9240 C   0  0  0  0  0  0  0  0  0  0  0  0
   58.6590   33.0140   47.0150 C   0  0  0  0  0  0  0  0  0  0  0  0
   58.5450   33.0870   45.6190 C   0  0  0  0  0  0  0  0  0  0  0  0
   57.9380   32.0090   44.8080 C   0  0  0  0  0  0  0  0  0  0  0  0
   57.5600   32.0890   43.4710 C   0  0  0  0  0  0  0  0  0  0  0  0
   57.0510   30.8880   42.9640 C   0  0  0  0  0  0  0  0  0  0  0  0
   57.0360   29.8530   43.8890 C   0  0  0  0  0  0  0  0  0  0  0  0
   57.6600   30.4350   45.3370 S   0  0  0  0  0  0  0  0  0  0  0  0
   59.0440   34.2530   45.0010 C   0  0  0  0  0  0  0  0  0  0  0  0
   59.6080   35.2860   45.7820 C   0  0  0  0  0  0  0  0  0  0  0  0
   59.6880   35.1650   47.1390 N   0  0  0  0  0  0  0  0  0  0  0  0
   59.2150   34.0410   47.7310 C   0  0  0  0  0  0  0  0  0  0  0  0
   59.2720   33.7640   49.0420 N   0  0  0  0  0  0  0  0  0  0  0  0
   57.5160   31.2690   50.8780 O   0  0  0  0  0  0  0  0  0  0  0  0
   54.5290   30.0940   53.9860 C   0  0  0  0  0  0  0  0  0  0  0  0
   53.3830   29.2550   53.3930 C   0  0  0  0  0  0  0  0  0  0  0  0
   52.3770   28.2930   51.5590 H   0  0  0  0  0  0  0  0  0  0  0  0
   53.2271   32.1199   52.4202 H   0  0  0  0  0  0  0  0  0  0  0  0
   52.9009   31.4582   50.7710 H   0  0  0  0  0  0  0  0  0  0  0  0
   55.3108   31.6657   51.0813 H   0  0  0  0  0  0  0  0  0  0  0  0
   54.8511   29.9155   51.0603 H   0  0  0  0  0  0  0  0  0  0  0  0
   55.6870   31.6270   53.2820 H   0  0  0  0  0  0  0  0  0  0  0  0
   57.1205   29.7810   53.8447 H   0  0  0  0  0  0  0  0  0  0  0  0
   56.5152   28.9957   52.3089 H   0  0  0  0  0  0  0  0  0  0  0  0
   59.5986   30.4311   53.2529 H   0  0  0  0  0  0  0  0  0  0  0  0
   60.7139   31.8432   51.2326 H   0  0  0  0  0  0  0  0  0  0  0  0
   57.9122   31.0325   47.7139 H   0  0  0  0  0  0  0  0  0  0  0  0
   57.6523   33.0066   42.8714 H   0  0  0  0  0  0  0  0  0  0  0  0
   56.6959   30.7747   41.9291 H   0  0  0  0  0  0  0  0  0  0  0  0
   56.6777   28.8292   43.7060 H   0  0  0  0  0  0  0  0  0  0  0  0
   58.9937   34.3580   43.9072 H   0  0  0  0  0  0  0  0  0  0  0  0
   59.9859   36.1956   45.2923 H   0  0  0  0  0  0  0  0  0  0  0  0
   59.6620   34.3710   49.7960 H   0  0  0  0  0  0  0  0  0  0  0  0
   54.0940   30.9209   54.5666 H   0  0  0  0  0  0  0  0  0  0  0  0
   55.1352   29.4252   54.6147 H   0  0  0  0  0  0  0  0  0  0  0  0
   52.7452   28.8987   54.2153 H   0  0  0  0  0  0  0  0  0  0  0  0
   53.8344   28.4192   52.8384 H   0  0  0  0  0  0  0  0  0  0  0  0
  2  1  1  6
  2  3  1  0
  3  4  1  0
  3  5  1  0
  3  6  1  0
  2  7  1  0
  7  8  1  0
  8  9  1  0
  9 10  1  0
 10 11  1  0
 11 12  2  0
 12 13  1  0
 13 14  2  0
 14 15  1  0
 15 16  2  0
 16 17  1  0
 17 18  2  0
 18 19  1  0
 19 20  2  0
 20 21  1  0
 21 22  2  0
 22 23  1  0
 18 24  1  0
 24 25  2  0
 25 26  1  0
 26 27  2  0
 27 28  1  0
 14 29  1  0
  9 30  1  0
 30 31  1  0
 31  2  1  0
 29 11  1  0
 28 15  1  0
 27 17  1  0
 23 19  1  0
  1 32  1  0
  7 33  1  0
  7 34  1  0
  8 35  1  0
  8 36  1  0
  9 37  1  1
 10 38  1  0
 10 39  1  0
 12 40  1  0
 13 41  1  0
 16 42  1  0
 20 43  1  0
 21 44  1  0
 22 45  1  0
 24 46  1  0
 25 47  1  0
 28 48  1  0
 30 49  1  0
 30 50  1  0
 31 51  1  0
 31 52  1  0
M  CHG  1   9   1
M  END
>  <UniqueID>  (20) 
17

>  <SMILES>  (20) 
OC1(C(F)(F)F)CC[NH+](Cc2ccc(-c3cc4c(-c5cccs5)ccnc4[nH]3)o2)CC1

>  <Energy>  (20) 
158.42935020695964

>  <Genealogy>  (20) 
OC1(C(F)(F)F)CC[NH+](Cc2ccc(-c3cc4c(-c5cccs5)ccnc4[nH]3)o2)CC1 (protonated)
OC1(C(F)(F)F)CC[NH+](Cc2ccc(-c3cc4c(-c5cccs5)ccnc4[nH]3)o2)CC1 (3D coordinates assigned)
OC1(C(F)(F)F)CC[NH+](Cc2ccc(-c3cc4c(-c5cccs5)ccnc4[nH]3)o2)CC1 (nonaromatic ring conformer: 158.42935020695964 kcal/mol)

>  <smiles>  (20) 
OC1(C(F)(F)F)CCN(Cc2ccc(-c3cc4c(-c5cccs5)ccnc4[nH]3)o2)CC1

>  <score_type>  (20) 
oracle

>  <origin>  (20) 
adg

>  <m_score__min__energy>  (20) 
-6.46

>  <m_primary>  (20) 
energy

$$$$
20:0
     RDKit          3D

 43 45  0  0  0  0  0  0  0  0999 V2000
   57.0460   31.1030   42.6730 C   0  0  0  0  0  0  0  0  0  0  0  0
   57.2580   30.8890   44.1070 N   0  0  0  0  0  0  0  0  0  0  0  0
   56.7240   29.6980   44.7120 C   0  0  0  0  0  0  0  0  0  0  0  0
   55.4760   29.5930   44.8610 O   0  0  0  0  0  0  0  0  0  0  0  0
   57.6180   28.6140   45.1850 C   0  0  0  0  0  0  0  0  0  0  0  0
   57.0900   27.4810   45.8290 C   0  0  0  0  0  0  0  0  0  0  0  0
   57.9350   26.4530   46.2590 C   0  0  0  0  0  0  0  0  0  0  0  0
   59.3130   26.5440   46.0480 C   0  0  0  0  0  0  0  0  0  0  0  0
   59.8480   27.6630   45.4050 C   0  0  0  0  0  0  0  0  0  0  0  0
   59.0050   28.6900   44.9680 C   0  0  0  0  0  0  0  0  0  0  0  0
   57.8050   31.9360   44.9420 C   0  0  0  0  0  0  0  0  0  0  0  0
   57.0590   33.0900   45.2410 C   0  0  0  0  0  0  0  0  0  0  0  0
   57.6060   34.1010   46.0330 C   0  0  0  0  0  0  0  0  0  0  0  0
   58.9040   33.9790   46.5330 C   0  0  0  0  0  0  0  0  0  0  0  0
   59.6720   32.8380   46.2470 C   0  0  0  0  0  0  0  0  0  0  0  0
   61.0190   32.7150   46.7550 N   0  0  0  0  0  0  0  0  0  0  0  0
   61.5490   31.4070   47.1650 C   0  0  0  0  0  0  0  0  0  0  0  0
   62.6590   31.5920   48.2090 C   0  0  0  0  0  0  0  0  0  0  0  0
   63.7500   32.4790   47.7500 N   0  0  0  0  0  0  0  0  0  0  0  0
   63.3600   33.4610   46.7200 C   0  0  0  0  0  0  0  0  0  0  0  0
   61.8940   33.8900   46.8390 C   0  0  0  0  0  0  0  0  0  0  0  0
   59.1120   31.8220   45.4530 C   0  0  0  0  0  0  0  0  0  0  0  0
   56.2787   31.8776   42.5274 H   0  0  0  0  0  0  0  0  0  0  0  0
   57.9882   31.4281   42.2076 H   0  0  0  0  0  0  0  0  0  0  0  0
   56.7120   30.1639   42.2076 H   0  0  0  0  0  0  0  0  0  0  0  0
   56.0055   27.4028   45.9956 H   0  0  0  0  0  0  0  0  0  0  0  0
   57.5139   25.5713   46.7642 H   0  0  0  0  0  0  0  0  0  0  0  0
   59.9764   25.7351   46.3879 H   0  0  0  0  0  0  0  0  0  0  0  0
   60.9334   27.7364   45.2422 H   0  0  0  0  0  0  0  0  0  0  0  0
   59.4301   29.5630   44.4511 H   0  0  0  0  0  0  0  0  0  0  0  0
   56.0372   33.1967   44.8480 H   0  0  0  0  0  0  0  0  0  0  0  0
   57.0120   34.9975   46.2642 H   0  0  0  0  0  0  0  0  0  0  0  0
   59.3279   34.7814   47.1547 H   0  0  0  0  0  0  0  0  0  0  0  0
   60.7371   30.8054   47.5997 H   0  0  0  0  0  0  0  0  0  0  0  0
   61.9642   30.8945   46.2847 H   0  0  0  0  0  0  0  0  0  0  0  0
   62.2154   32.0251   49.1176 H   0  0  0  0  0  0  0  0  0  0  0  0
   63.1000   30.6017   48.3955 H   0  0  0  0  0  0  0  0  0  0  0  0
   64.5190   31.8860   47.3580 H   0  0  0  0  0  0  0  0  0  0  0  0
   63.9971   34.3517   46.8235 H   0  0  0  0  0  0  0  0  0  0  0  0
   63.4880   32.9820   45.7381 H   0  0  0  0  0  0  0  0  0  0  0  0
   61.7385   34.3916   47.8055 H   0  0  0  0  0  0  0  0  0  0  0  0
   61.6518   34.5801   46.0174 H   0  0  0  0  0  0  0  0  0  0  0  0
   59.7046   30.9232   45.2272 H   0  0  0  0  0  0  0  0  0  0  0  0
  1  2  1  0
  2  3  1  0
  3  4  2  0
  3  5  1  0
  5  6  2  0
  6  7  1  0
  7  8  2  0
  8  9  1  0
  9 10  2  0
  2 11  1  0
 11 12  2  0
 12 13  1  0
 13 14  2  0
 14 15  1  0
 15 16  1  0
 16 17  1  0
 17 18  1  0
 18 19  1  0
 19 20  1  0
 20 21  1  0
 15 22  2  0
 10  5  1  0
 22 11  1  0
 21 16  1  0
  1 23  1  0
  1 24  1  0
  1 25  1  0
  6 26  1  0
  7 27  1  0
  8 28  1  0
  9 29  1  0
 10 30  1  0
 12 31  1  0
 13 32  1  0
 14 33  1  0
 17 34  1  0
 17 35  1  0
 18 36  1  0
 18 37  1  0
 19 38  1  0
 20 39  1  0
 20 40  1  0
 21 41  1  0
 21 42  1  0
 22 43  1  0
M  END
>  <UniqueID>  (21) 
18

>  <SMILES>  (21) 
CN(C(=O)c1ccccc1)c1cccc(N2CCNCC2)c1

>  <Energy>  (21) 
61.28517347188939

>  <Genealogy>  (21) 
CN(C(=O)c1ccccc1)c1cccc(N2CCNCC2)c1 (3D coordinates assigned)
CN(C(=O)c1ccccc1)c1cccc(N2CCNCC2)c1 (nonaromatic ring conformer: 61.28517347188939 kcal/mol)

>  <smiles>  (21) 
CN(C(=O)c1ccccc1)c1cccc(N2CCNCC2)c1

>  <score_type>  (21) 
oracle

>  <origin>  (21) 
adg

>  <m_score__min__energy>  (21) 
-8.3399999999999999

>  <m_primary>  (21) 
energy

$$$$
21:0
     RDKit          3D

 35 37  0  0  0  0  0  0  0  0999 V2000
   58.8200   24.6250   45.9790 C   0  0  0  0  0  0  0  0  0  0  0  0
   57.6380   24.0840   45.2310 C   0  0  0  0  0  0  0  0  0  0  0  0
   57.6860   22.8550   44.5510 C   0  0  0  0  0  0  0  0  0  0  0  0
   56.5010   22.5200   43.9110 C   0  0  0  0  0  0  0  0  0  0  0  0
   55.3910   23.7490   44.1890 S   0  0  0  0  0  0  0  0  0  0  0  0
   56.3950   24.7220   45.1260 C   0  0  0  0  0  0  0  0  0  0  0  0
   55.9800   26.0160   45.7000 C   0  0  0  0  0  0  0  0  0  0  0  0
   54.7670   26.2040   45.9860 O   0  0  0  0  0  0  0  0  0  0  0  0
   56.9370   27.0530   45.9410 N   0  0  0  0  0  0  0  0  0  0  0  0
   57.7520   27.6610   44.8960 C   0  0  0  0  0  0  0  0  0  0  0  0
   57.5470   29.1420   44.8790 C   0  0  0  0  0  0  0  0  0  0  0  0
   56.4300   29.8230   44.4410 C   0  0  0  0  0  0  0  0  0  0  0  0
   56.6000   31.1390   44.6700 N   0  0  0  0  0  0  0  0  0  0  0  0
   57.7860   31.3090   45.2390 N   0  0  0  0  0  0  0  0  0  0  0  0
   58.2990   32.5960   45.6440 C   0  0  0  0  0  0  0  0  0  0  0  0
   58.4710   32.8840   47.0120 C   0  0  0  0  0  0  0  0  0  0  0  0
   58.9650   34.1270   47.4190 C   0  0  0  0  0  0  0  0  0  0  0  0
   59.2900   35.0980   46.4700 C   0  0  0  0  0  0  0  0  0  0  0  0
   59.1190   34.8280   45.1110 C   0  0  0  0  0  0  0  0  0  0  0  0
   58.6250   33.5870   44.6970 C   0  0  0  0  0  0  0  0  0  0  0  0
   58.3870   30.1080   45.3900 C   0  0  0  0  0  0  0  0  0  0  0  0
   58.6387   24.5420   47.0608 H   0  0  0  0  0  0  0  0  0  0  0  0
   59.7179   24.0482   45.7124 H   0  0  0  0  0  0  0  0  0  0  0  0
   58.9704   25.6816   45.7124 H   0  0  0  0  0  0  0  0  0  0  0  0
   58.5815   22.2166   44.5281 H   0  0  0  0  0  0  0  0  0  0  0  0
   56.3202   21.6077   43.3236 H   0  0  0  0  0  0  0  0  0  0  0  0
   58.8127   27.4430   45.0891 H   0  0  0  0  0  0  0  0  0  0  0  0
   57.4553   27.2458   43.9215 H   0  0  0  0  0  0  0  0  0  0  0  0
   55.5432   29.3647   43.9790 H   0  0  0  0  0  0  0  0  0  0  0  0
   58.2147   32.1251   47.7659 H   0  0  0  0  0  0  0  0  0  0  0  0
   59.0980   34.3405   48.4899 H   0  0  0  0  0  0  0  0  0  0  0  0
   59.6803   36.0745   46.7926 H   0  0  0  0  0  0  0  0  0  0  0  0
   59.3736   35.5938   44.3636 H   0  0  0  0  0  0  0  0  0  0  0  0
   58.4900   33.3831   43.6245 H   0  0  0  0  0  0  0  0  0  0  0  0
   59.3743   29.9321   45.8419 H   0  0  0  0  0  0  0  0  0  0  0  0
  1  2  1  0
  2  3  1  0
  3  4  2  0
  4  5  1  0
  5  6  1  0
  6  7  1  0
  7  8  2  0
  7  9  1  0
  9 10  1  0
 10 11  1  0
 11 12  1  0
 12 13  2  0
 13 14  1  0
 14 15  1  0
 15 16  2  0
 16 17  1  0
 17 18  2  0
 18 19  1  0
 19 20  2  0
 14 21  1  0
  6  2  2  0
 21 11  2  0
 20 15  1  0
  1 22  1  0
  1 23  1  0
  1 24  1  0
  3 25  1  0
  4 26  1  0
 10 27  1  0
 10 28  1  0
 12 29  1  0
 16 30  1  0
 17 31  1  0
 18 32  1  0
 19 33  1  0
 20 34  1  0
 21 35  1  0
M  CHG  1   9  -1
M  END
>  <UniqueID>  (22) 
19

>  <SMILES>  (22) 
Cc1ccsc1C(=O)[N-]Cc1cnn(-c2ccccc2)c1

>  <Energy>  (22) 
92.40333404332092

>  <Genealogy>  (22) 
Cc1ccsc1C(=O)[N-]Cc1cnn(-c2ccccc2)c1 (protonated)
Cc1ccsc1C(=O)[N-]Cc1cnn(-c2ccccc2)c1 (3D coordinates assigned)
Cc1ccsc1C(=O)[N-]Cc1cnn(-c2ccccc2)c1 (optimized conformer: 92.40333404332092 kcal/mol)

>  <smiles>  (22) 
Cc1ccsc1C(=O)NCc1cnn(-c2ccccc2)c1

>  <score_type>  (22) 
oracle

>  <origin>  (22) 
adg

>  <m_score__min__energy>  (22) 
-10.029999999999999

>  <m_primary>  (22) 
energy

$$$$
22:0
     RDKit          3D

 45 47  0  0  0  0  0  0  0  0999 V2000
   56.9990   25.4030   46.4050 C   0  0  0  0  0  0  0  0  0  0  0  0
   56.2820   26.6850   45.9780 C   0  0  0  0  0  0  0  0  0  0  0  0
   57.2560   27.8390   45.6340 C   0  0  1  0  0  0  0  0  0  0  0  0
   58.5620   27.3040   44.9810 C   0  0  0  0  0  0  0  0  0  0  0  0
   59.4770   28.3620   44.4410 N   0  0  2  0  0  0  0  0  0  0  0  0
   60.7040   28.5120   45.2500 C   0  0  0  0  0  0  0  0  0  0  0  0
   60.4030   29.1200   46.6180 C   0  0  0  0  0  0  0  0  0  0  0  0
   59.6320   30.3990   46.4740 C   0  0  0  0  0  0  0  0  0  0  0  0
   59.6380   31.3130   47.5350 C   0  0  0  0  0  0  0  0  0  0  0  0
   58.9710   32.5460   47.4260 C   0  0  0  0  0  0  0  0  0  0  0  0
   58.9590   33.4820   48.4720 O   0  0  0  0  0  0  0  0  0  0  0  0
   59.8860   34.5540   48.6090 C   0  0  0  0  0  0  0  0  0  0  0  0
   58.3030   32.8660   46.2380 C   0  0  0  0  0  0  0  0  0  0  0  0
   57.6720   34.1180   46.1480 O   0  0  0  0  0  0  0  0  0  0  0  0
   56.9970   34.6010   44.9910 C   0  0  0  0  0  0  0  0  0  0  0  0
   58.2830   31.9410   45.1790 C   0  0  0  0  0  0  0  0  0  0  0  0
   58.8960   30.6790   45.3020 C   0  0  0  0  0  0  0  0  0  0  0  0
   58.8440   29.6830   44.1320 C   0  0  2  0  0  0  0  0  0  0  0  0
   57.4030   29.4670   43.6210 C   0  0  0  0  0  0  0  0  0  0  0  0
   56.5940   28.8350   44.7100 C   0  0  0  0  0  0  0  0  0  0  0  0
   55.4300   29.1700   44.8760 O   0  0  0  0  0  0  0  0  0  0  0  0
   57.0296   25.3484   47.5032 H   0  0  0  0  0  0  0  0  0  0  0  0
   56.4576   24.5310   46.0094 H   0  0  0  0  0  0  0  0  0  0  0  0
   58.0254   25.4078   46.0094 H   0  0  0  0  0  0  0  0  0  0  0  0
   55.6713   26.4656   45.0898 H   0  0  0  0  0  0  0  0  0  0  0  0
   55.6675   27.0163   46.8281 H   0  0  0  0  0  0  0  0  0  0  0  0
   57.5206   28.3401   46.5768 H   0  0  0  0  0  0  0  0  0  0  0  0
   59.1136   26.7303   45.7404 H   0  0  0  0  0  0  0  0  0  0  0  0
   58.2495   26.6969   44.1186 H   0  0  0  0  0  0  0  0  0  0  0  0
   59.8150   27.9920   43.5190 H   0  0  0  0  0  0  0  0  0  0  0  0
   61.1615   27.5218   45.3920 H   0  0  0  0  0  0  0  0  0  0  0  0
   61.3885   29.1873   44.7158 H   0  0  0  0  0  0  0  0  0  0  0  0
   59.8097   28.4056   47.2076 H   0  0  0  0  0  0  0  0  0  0  0  0
   61.3549   29.3370   47.1248 H   0  0  0  0  0  0  0  0  0  0  0  0
   60.1707   31.0634   48.4645 H   0  0  0  0  0  0  0  0  0  0  0  0
   60.0595   34.7546   49.6766 H   0  0  0  0  0  0  0  0  0  0  0  0
   60.8367   34.2803   48.1281 H   0  0  0  0  0  0  0  0  0  0  0  0
   59.4780   35.4553   48.1281 H   0  0  0  0  0  0  0  0  0  0  0  0
   56.1379   35.2158   45.2976 H   0  0  0  0  0  0  0  0  0  0  0  0
   57.6885   35.2106   44.3908 H   0  0  0  0  0  0  0  0  0  0  0  0
   56.6432   33.7498   44.3908 H   0  0  0  0  0  0  0  0  0  0  0  0
   57.7797   32.2078   44.2380 H   0  0  0  0  0  0  0  0  0  0  0  0
   59.4405   30.1516   43.3354 H   0  0  0  0  0  0  0  0  0  0  0  0
   56.9595   30.4352   43.3456 H   0  0  0  0  0  0  0  0  0  0  0  0
   57.4145   28.8129   42.7367 H   0  0  0  0  0  0  0  0  0  0  0  0
  1  2  1  0
  2  3  1  0
  3  4  1  0
  4  5  1  0
  5  6  1  0
  6  7  1  0
  7  8  1  0
  8  9  2  0
  9 10  1  0
 10 11  1  0
 11 12  1  0
 10 13  2  0
 13 14  1  0
 14 15  1  0
 13 16  1  0
 16 17  2  0
 17 18  1  0
 18 19  1  0
 19 20  1  0
 20 21  2  0
 20  3  1  0
 18  5  1  0
 17  8  1  0
  1 22  1  0
  1 23  1  0
  1 24  1  0
  2 25  1  0
  2 26  1  0
  3 27  1  1
  4 28  1  0
  4 29  1  0
  5 30  1  6
  6 31  1  0
  6 32  1  0
  7 33  1  0
  7 34  1  0
  9 35  1  0
 12 36  1  0
 12 37  1  0
 12 38  1  0
 15 39  1  0
 15 40  1  0
 15 41  1  0
 16 42  1  0
 18 43  1  6
 19 44  1  0
 19 45  1  0
M  CHG  1   5   1
M  END
>  <UniqueID>  (23) 
20

>  <SMILES>  (23) 
CC[C@H]1C[N@@H+]2CCc3cc(OC)c(OC)cc3C2CC1=O

>  <Energy>  (23) 
57.896129724762424

>  <Genealogy>  (23) 
CCC1C[NH+]2CCc3cc(OC)c(OC)cc3C2CC1=O (protonated)
CC[C@H]1C[N@@H+]2CCc3cc(OC)c(OC)cc3C2CC1=O (chirality)
CC[C@H]1C[N@@H+]2CCc3cc(OC)c(OC)cc3C2CC1=O (3D coordinates assigned)
CC[C@H]1C[N@@H+]2CCc3cc(OC)c(OC)cc3C2CC1=O (nonaromatic ring conformer: 57.896129724762424 kcal/mol)

>  <smiles>  (23) 
CCC1CN2CCc3cc(OC)c(OC)cc3C2CC1=O

>  <score_type>  (23) 
oracle

>  <origin>  (23) 
adg

>  <m_score__min__energy>  (23) 
-5.0700000000000003

>  <m_primary>  (23) 
energy

$$$$
23:0
     RDKit          3D

 57 60  0  0  0  0  0  0  0  0999 V2000
   65.9230   32.5570   50.1030 C   0  0  0  0  0  0  0  0  0  0  0  0
   64.9390   33.5580   49.9630 O   0  0  0  0  0  0  0  0  0  0  0  0
   63.7950   33.4500   49.1590 C   0  0  0  0  0  0  0  0  0  0  0  0
   63.8580   33.1010   47.7890 C   0  0  0  0  0  0  0  0  0  0  0  0
   62.6820   32.9350   47.0500 C   0  0  0  0  0  0  0  0  0  0  0  0
   61.4230   33.1160   47.6600 C   0  0  0  0  0  0  0  0  0  0  0  0
   60.1740   32.8670   46.8880 C   0  0  0  0  0  0  0  0  0  0  0  0
   59.9230   31.6000   46.3490 C   0  0  0  0  0  0  0  0  0  0  0  0
   58.7480   31.3310   45.6790 N   0  0  0  0  0  0  0  0  0  0  0  0
   58.5460   29.9550   45.1570 C   0  0  2  0  0  0  0  0  0  0  0  0
   57.8980   29.9370   43.7500 C   0  0  0  0  0  0  0  0  0  0  0  0
   57.4250   28.6290   43.4100 O   0  0  0  0  0  0  0  0  0  0  0  0
   58.1510   27.4610   43.6310 C   0  0  0  0  0  0  0  0  0  0  0  0
   58.2710   26.8910   44.8350 C   0  0  0  0  0  0  0  0  0  0  0  0
   58.2190   27.6020   46.1710 C   0  0  2  0  0  0  0  0  0  0  0  0
   57.3810   26.8370   47.0470 O   0  0  0  0  0  0  0  0  0  0  0  0
   56.3690   25.9890   46.5950 C   0  0  0  0  0  0  0  0  0  0  0  0
   55.3540   26.4480   45.9930 O   0  0  0  0  0  0  0  0  0  0  0  0
   56.5050   24.5130   46.8010 C   0  0  0  0  0  0  0  0  0  0  0  0
   56.6260   23.8110   45.4790 C   0  0  0  0  0  0  0  0  0  0  0  0
   55.6640   24.0280   44.4780 C   0  0  0  0  0  0  0  0  0  0  0  0
   55.7690   23.3800   43.2460 C   0  0  0  0  0  0  0  0  0  0  0  0
   56.8320   22.5110   42.9950 C   0  0  0  0  0  0  0  0  0  0  0  0
   57.7990   22.2990   43.9760 C   0  0  0  0  0  0  0  0  0  0  0  0
   57.7050   22.9510   45.2110 C   0  0  0  0  0  0  0  0  0  0  0  0
   57.7560   29.0830   46.1520 C   0  0  0  0  0  0  0  0  0  0  0  0
   57.7670   32.3030   45.6240 C   0  0  0  0  0  0  0  0  0  0  0  0
   56.6070   32.0480   45.1660 O   0  0  0  0  0  0  0  0  0  0  0  0
   58.0110   33.5530   46.1010 N   0  0  0  0  0  0  0  0  0  0  0  0
   59.1820   33.8560   46.7270 C   0  0  0  0  0  0  0  0  0  0  0  0
   59.3530   35.0170   47.1890 O   0  0  0  0  0  0  0  0  0  0  0  0
   61.3630   33.5060   49.0160 C   0  0  0  0  0  0  0  0  0  0  0  0
   62.5420   33.6700   49.7550 C   0  0  0  0  0  0  0  0  0  0  0  0
   66.1066   32.3702   51.1714 H   0  0  0  0  0  0  0  0  0  0  0  0
   65.5743   31.6305   49.6234 H   0  0  0  0  0  0  0  0  0  0  0  0
   66.8553   32.8897   49.6234 H   0  0  0  0  0  0  0  0  0  0  0  0
   64.8350   32.9598   47.3036 H   0  0  0  0  0  0  0  0  0  0  0  0
   62.7393   32.6615   45.9861 H   0  0  0  0  0  0  0  0  0  0  0  0
   60.6754   30.8056   46.4617 H   0  0  0  0  0  0  0  0  0  0  0  0
   59.5481   29.5153   45.0450 H   0  0  0  0  0  0  0  0  0  0  0  0
   57.0509   30.6386   43.7370 H   0  0  0  0  0  0  0  0  0  0  0  0
   58.6602   30.2320   43.0137 H   0  0  0  0  0  0  0  0  0  0  0  0
   58.6496   26.9845   42.7741 H   0  0  0  0  0  0  0  0  0  0  0  0
   58.4219   25.8016   44.8568 H   0  0  0  0  0  0  0  0  0  0  0  0
   59.2608   27.6619   46.5189 H   0  0  0  0  0  0  0  0  0  0  0  0
   57.4039   24.3119   47.4022 H   0  0  0  0  0  0  0  0  0  0  0  0
   55.6112   24.1408   47.3232 H   0  0  0  0  0  0  0  0  0  0  0  0
   54.8236   24.7123   44.6662 H   0  0  0  0  0  0  0  0  0  0  0  0
   55.0102   23.5551   42.4691 H   0  0  0  0  0  0  0  0  0  0  0  0
   56.9063   21.9952   42.0263 H   0  0  0  0  0  0  0  0  0  0  0  0
   58.6391   21.6168   43.7790 H   0  0  0  0  0  0  0  0  0  0  0  0
   58.4793   22.7896   45.9755 H   0  0  0  0  0  0  0  0  0  0  0  0
   56.6920   29.1128   45.8743 H   0  0  0  0  0  0  0  0  0  0  0  0
   57.9332   29.4931   47.1572 H   0  0  0  0  0  0  0  0  0  0  0  0
   57.2780   34.2890   46.0090 H   0  0  0  0  0  0  0  0  0  0  0  0
   60.3877   33.6815   49.4934 H   0  0  0  0  0  0  0  0  0  0  0  0
   62.4861   33.9736   50.8108 H   0  0  0  0  0  0  0  0  0  0  0  0
  1  2  1  0
  2  3  1  0
  3  4  2  0
  4  5  1  0
  5  6  2  0
  6  7  1  0
  7  8  2  0
  8  9  1  0
  9 10  1  0
 10 11  1  0
 11 12  1  0
 12 13  1  0
 13 14  2  0
 14 15  1  0
 15 16  1  0
 16 17  1  0
 17 18  2  0
 17 19  1  0
 19 20  1  0
 20 21  2  0
 21 22  1  0
 22 23  2  0
 23 24  1  0
 24 25  2  0
 15 26  1  0
  9 27  1  0
 27 28  2  0
 27 29  1  0
 29 30  1  0
 30 31  2  0
  6 32  1  0
 32 33  2  0
 33  3  1  0
 30  7  1  0
 26 10  1  0
 25 20  1  0
  1 34  1  0
  1 35  1  0
  1 36  1  0
  4 37  1  0
  5 38  1  0
  8 39  1  0
 10 40  1  6
 11 41  1  0
 11 42  1  0
 13 43  1  0
 14 44  1  0
 15 45  1  1
 19 46  1  0
 19 47  1  0
 21 48  1  0
 22 49  1  0
 23 50  1  0
 24 51  1  0
 25 52  1  0
 26 53  1  0
 26 54  1  0
 29 55  1  0
 32 56  1  0
 33 57  1  0
M  END
>  <UniqueID>  (24) 
21

>  <SMILES>  (24) 
COc1ccc(-c2cn([C@@H]3COC=C[C@H](OC(=O)Cc4ccccc4)C3)c(=O)[nH]c2=O)cc1

>  <Energy>  (24) 
85.3567899700763

>  <Genealogy>  (24) 
COc1ccc(-c2cn([C@@H]3COC=C[C@H](OC(=O)Cc4ccccc4)C3)c(=O)[nH]c2=O)cc1 (chirality)
COc1ccc(-c2cn([C@@H]3COC=C[C@H](OC(=O)Cc4ccccc4)C3)c(=O)[nH]c2=O)cc1 (3D coordinates assigned)
COc1ccc(-c2cn([C@@H]3COC=C[C@H](OC(=O)Cc4ccccc4)C3)c(=O)[nH]c2=O)cc1 (nonaromatic ring conformer: 85.3567899700763 kcal/mol)

>  <smiles>  (24) 
COc1ccc(-c2cn(C3COC=CC(OC(=O)Cc4ccccc4)C3)c(=O)[nH]c2=O)cc1

>  <score_type>  (24) 
oracle

>  <origin>  (24) 
adg

>  <m_score__min__energy>  (24) 
-7.6699999999999999

>  <m_primary>  (24) 
energy

$$$$
24:0
     RDKit          3D

 47 48  0  0  0  0  0  0  0  0999 V2000
   61.3950   33.8890   47.8660 C   0  0  0  0  0  0  0  0  0  0  0  0
   60.7380   33.6440   46.5100 C   0  0  0  0  0  0  0  0  0  0  0  0
   59.4370   34.3430   46.4380 N   0  0  0  0  0  0  0  0  0  0  0  0
   58.9080   34.4100   45.0520 C   0  0  0  0  0  0  0  0  0  0  0  0
   57.3900   34.2040   44.9440 C   0  0  0  0  0  0  0  0  0  0  0  0
   58.4660   33.7990   47.4150 C   0  0  0  0  0  0  0  0  0  0  0  0
   58.5020   32.3020   47.4280 C   0  0  0  0  0  0  0  0  0  0  0  0
   58.6570   31.6910   48.5200 O   0  0  0  0  0  0  0  0  0  0  0  0
   58.3810   31.5780   46.1980 N   0  0  0  0  0  0  0  0  0  0  0  0
   58.1990   30.1600   46.0830 C   0  0  0  0  0  0  0  0  0  0  0  0
   59.0950   29.3200   46.7520 C   0  0  0  0  0  0  0  0  0  0  0  0
   58.9660   27.9330   46.6700 C   0  0  0  0  0  0  0  0  0  0  0  0
   57.9380   27.3610   45.9120 C   0  0  0  0  0  0  0  0  0  0  0  0
   57.8360   25.9280   45.8300 N   0  0  0  0  0  0  0  0  0  0  0  0
   56.5880   25.2230   45.7280 C   0  0  0  0  0  0  0  0  0  0  0  0
   55.5060   25.8030   46.0180 O   0  0  0  0  0  0  0  0  0  0  0  0
   56.5590   23.8060   45.3220 C   0  0  0  0  0  0  0  0  0  0  0  0
   56.6960   23.3300   44.0220 C   0  0  0  0  0  0  0  0  0  0  0  0
   56.6440   21.9340   43.9350 C   0  0  0  0  0  0  0  0  0  0  0  0
   56.4710   21.3040   45.1600 C   0  0  0  0  0  0  0  0  0  0  0  0
   56.3820   22.4870   46.3520 S   0  0  0  0  0  0  0  0  0  0  0  0
   57.0710   28.1980   45.1890 C   0  0  0  0  0  0  0  0  0  0  0  0
   57.2000   29.6000   45.2580 C   0  0  0  0  0  0  0  0  0  0  0  0
   56.3820   30.4530   44.5000 O   0  0  0  0  0  0  0  0  0  0  0  0
   56.6370   30.8390   43.1530 C   0  0  0  0  0  0  0  0  0  0  0  0
   60.6897   33.6260   48.6681 H   0  0  0  0  0  0  0  0  0  0  0  0
   62.2982   33.2672   47.9535 H   0  0  0  0  0  0  0  0  0  0  0  0
   61.6706   34.9503   47.9535 H   0  0  0  0  0  0  0  0  0  0  0  0
   61.3971   34.0205   45.7138 H   0  0  0  0  0  0  0  0  0  0  0  0
   60.5723   32.5641   46.3818 H   0  0  0  0  0  0  0  0  0  0  0  0
   59.1517   35.3995   44.6378 H   0  0  0  0  0  0  0  0  0  0  0  0
   59.3780   33.5858   44.4954 H   0  0  0  0  0  0  0  0  0  0  0  0
   56.9553   34.1450   45.9527 H   0  0  0  0  0  0  0  0  0  0  0  0
   56.9429   35.0497   44.4010 H   0  0  0  0  0  0  0  0  0  0  0  0
   57.1845   33.2697   44.4010 H   0  0  0  0  0  0  0  0  0  0  0  0
   58.7164   34.1739   48.4184 H   0  0  0  0  0  0  0  0  0  0  0  0
   57.4560   34.1235   47.1243 H   0  0  0  0  0  0  0  0  0  0  0  0
   59.9093   29.7569   47.3486 H   0  0  0  0  0  0  0  0  0  0  0  0
   59.6766   27.2853   47.2044 H   0  0  0  0  0  0  0  0  0  0  0  0
   58.7120   25.3700   45.9420 H   0  0  0  0  0  0  0  0  0  0  0  0
   56.8317   23.9856   43.1492 H   0  0  0  0  0  0  0  0  0  0  0  0
   56.7320   21.3871   42.9847 H   0  0  0  0  0  0  0  0  0  0  0  0
   56.4037   20.2182   45.3229 H   0  0  0  0  0  0  0  0  0  0  0  0
   56.2832   27.7543   44.5625 H   0  0  0  0  0  0  0  0  0  0  0  0
   57.2433   31.7568   43.1431 H   0  0  0  0  0  0  0  0  0  0  0  0
   57.1817   30.0341   42.6378 H   0  0  0  0  0  0  0  0  0  0  0  0
   55.6829   31.0242   42.6378 H   0  0  0  0  0  0  0  0  0  0  0  0
  1  2  1  0
  2  3  1  0
  3  4  1  0
  4  5  1  0
  3  6  1  0
  6  7  1  0
  7  8  2  0
  7  9  1  0
  9 10  1  0
 10 11  2  0
 11 12  1  0
 12 13  2  0
 13 14  1  0
 14 15  1  0
 15 16  2  0
 15 17  1  0
 17 18  2  0
 18 19  1  0
 19 20  2  0
 20 21  1  0
 13 22  1  0
 22 23  2  0
 23 24  1  0
 24 25  1  0
 23 10  1  0
 21 17  1  0
  1 26  1  0
  1 27  1  0
  1 28  1  0
  2 29  1  0
  2 30  1  0
  4 31  1  0
  4 32  1  0
  5 33  1  0
  5 34  1  0
  5 35  1  0
  6 36  1  0
  6 37  1  0
 11 38  1  0
 12 39  1  0
 14 40  1  0
 18 41  1  0
 19 42  1  0
 20 43  1  0
 22 44  1  0
 25 45  1  0
 25 46  1  0
 25 47  1  0
M  CHG  1   9  -1
M  END
>  <UniqueID>  (25) 
22

>  <SMILES>  (25) 
CCN(CC)CC(=O)[N-]c1ccc(NC(=O)c2cccs2)cc1OC

>  <Energy>  (25) 
79.7859385194976

>  <Genealogy>  (25) 
CCN(CC)CC(=O)[N-]c1ccc(NC(=O)c2cccs2)cc1OC (protonated)
CCN(CC)CC(=O)[N-]c1ccc(NC(=O)c2cccs2)cc1OC (3D coordinates assigned)
CCN(CC)CC(=O)[N-]c1ccc(NC(=O)c2cccs2)cc1OC (optimized conformer: 79.7859385194976 kcal/mol)

>  <smiles>  (25) 
CCN(CC)CC(=O)Nc1ccc(NC(=O)c2cccs2)cc1OC

>  <score_type>  (25) 
oracle

>  <origin>  (25) 
adg

>  <m_score__min__energy>  (25) 
-9.5399999999999991

>  <m_primary>  (25) 
energy

$$$$
25:0
     RDKit          3D

 52 57  0  0  0  0  0  0  0  0999 V2000
   55.9800   22.3000   48.4670 C   0  0  0  0  0  0  0  0  0  0  0  0
   56.9990   22.8700   47.6510 O   0  0  0  0  0  0  0  0  0  0  0  0
   56.9950   24.1940   47.1880 C   0  0  0  0  0  0  0  0  0  0  0  0
   56.0570   24.6620   46.2480 C   0  0  0  0  0  0  0  0  0  0  0  0
   56.0920   25.9900   45.8130 C   0  0  0  0  0  0  0  0  0  0  0  0
   57.0680   26.8710   46.3120 C   0  0  0  0  0  0  0  0  0  0  0  0
   57.1500   28.2100   45.8960 C   0  0  0  0  0  0  0  0  0  0  0  0
   56.3410   28.6610   45.0390 O   0  0  0  0  0  0  0  0  0  0  0  0
   58.1530   29.0410   46.4260 C   0  0  0  0  0  0  0  0  0  0  0  0
   58.2840   30.4300   45.9290 C   0  0  0  0  0  0  0  0  0  0  0  0
   57.9790   30.7280   44.5930 C   0  0  0  0  0  0  0  0  0  0  0  0
   58.1440   32.0290   44.1200 C   0  0  0  0  0  0  0  0  0  0  0  0
   58.6060   33.0290   44.9820 C   0  0  0  0  0  0  0  0  0  0  0  0
   58.7900   34.3450   44.5310 C   0  0  0  0  0  0  0  0  0  0  0  0
   59.2540   35.3280   45.4100 C   0  0  0  0  0  0  0  0  0  0  0  0
   59.5360   35.0040   46.7400 C   0  0  0  0  0  0  0  0  0  0  0  0
   59.3560   33.6960   47.2000 C   0  0  0  0  0  0  0  0  0  0  0  0
   58.8900   32.7000   46.3270 C   0  0  0  0  0  0  0  0  0  0  0  0
   58.7170   31.4180   46.7650 N   0  0  0  0  0  0  0  0  0  0  0  0
   59.0390   28.5010   47.3940 C   0  0  0  0  0  0  0  0  0  0  0  0
   60.0880   29.3110   48.0630 C   0  0  0  0  0  0  0  0  0  0  0  0
   60.2840   29.2140   49.4500 C   0  0  0  0  0  0  0  0  0  0  0  0
   61.2660   29.9930   50.0690 C   0  0  0  0  0  0  0  0  0  0  0  0
   62.0440   30.8710   49.3050 C   0  0  0  0  0  0  0  0  0  0  0  0
   63.0420   31.6620   49.8900 C   0  0  0  0  0  0  0  0  0  0  0  0
   63.8040   32.5270   49.0960 C   0  0  0  0  0  0  0  0  0  0  0  0
   63.5720   32.6060   47.7180 C   0  0  0  0  0  0  0  0  0  0  0  0
   62.5760   31.8210   47.1270 C   0  0  0  0  0  0  0  0  0  0  0  0
   61.8100   30.9550   47.9150 C   0  0  0  0  0  0  0  0  0  0  0  0
   60.8450   30.1890   47.3440 N   0  0  0  0  0  0  0  0  0  0  0  0
   58.9300   27.2210   47.7440 O   0  0  0  0  0  0  0  0  0  0  0  0
   58.0060   26.4040   47.2540 C   0  0  0  0  0  0  0  0  0  0  0  0
   57.9650   25.0740   47.6820 C   0  0  0  0  0  0  0  0  0  0  0  0
   56.2362   22.4433   49.5271 H   0  0  0  0  0  0  0  0  0  0  0  0
   55.0200   22.7921   48.2520 H   0  0  0  0  0  0  0  0  0  0  0  0
   55.8969   21.2244   48.2520 H   0  0  0  0  0  0  0  0  0  0  0  0
   55.2914   23.9779   45.8532 H   0  0  0  0  0  0  0  0  0  0  0  0
   55.3546   26.3467   45.0788 H   0  0  0  0  0  0  0  0  0  0  0  0
   57.6111   29.9385   43.9211 H   0  0  0  0  0  0  0  0  0  0  0  0
   57.9115   32.2684   43.0718 H   0  0  0  0  0  0  0  0  0  0  0  0
   58.5689   34.6033   43.4849 H   0  0  0  0  0  0  0  0  0  0  0  0
   59.3975   36.3589   45.0541 H   0  0  0  0  0  0  0  0  0  0  0  0
   59.9010   35.7812   47.4276 H   0  0  0  0  0  0  0  0  0  0  0  0
   59.5799   33.4468   48.2478 H   0  0  0  0  0  0  0  0  0  0  0  0
   58.9420   31.1780   47.7590 H   0  0  0  0  0  0  0  0  0  0  0  0
   59.6667   28.5272   50.0477 H   0  0  0  0  0  0  0  0  0  0  0  0
   61.4271   29.9162   51.1544 H   0  0  0  0  0  0  0  0  0  0  0  0
   63.2265   31.6031   50.9728 H   0  0  0  0  0  0  0  0  0  0  0  0
   64.5876   33.1466   49.5565 H   0  0  0  0  0  0  0  0  0  0  0  0
   64.1741   33.2868   47.0983 H   0  0  0  0  0  0  0  0  0  0  0  0
   62.3953   31.8846   46.0438 H   0  0  0  0  0  0  0  0  0  0  0  0
   58.7028   24.7151   48.4147 H   0  0  0  0  0  0  0  0  0  0  0  0
  1  2  1  0
  2  3  1  0
  3  4  2  0
  4  5  1  0
  5  6  2  0
  6  7  1  0
  7  8  2  0
  7  9  1  0
  9 10  1  0
 10 11  2  0
 11 12  1  0
 12 13  2  0
 13 14  1  0
 14 15  2  0
 15 16  1  0
 16 17  2  0
 17 18  1  0
 18 19  2  0
  9 20  2  0
 20 21  1  0
 21 22  2  0
 22 23  1  0
 23 24  2  0
 24 25  1  0
 25 26  2  0
 26 27  1  0
 27 28  2  0
 28 29  1  0
 29 30  2  0
 20 31  1  0
 31 32  1  0
 32 33  2  0
 33  3  1  0
 32  6  1  0
 19 10  1  0
 30 21  1  0
 18 13  1  0
 29 24  1  0
  1 34  1  0
  1 35  1  0
  1 36  1  0
  4 37  1  0
  5 38  1  0
 11 39  1  0
 12 40  1  0
 14 41  1  0
 15 42  1  0
 16 43  1  0
 17 44  1  0
 19 45  1  0
 22 46  1  0
 23 47  1  0
 25 48  1  0
 26 49  1  0
 27 50  1  0
 28 51  1  0
 33 52  1  0
M  CHG  1  19   1
M  END
>  <UniqueID>  (26) 
23

>  <SMILES>  (26) 
COc1ccc2c(=O)c(-c3ccc4ccccc4[nH+]3)c(-c3ccc4ccccc4n3)oc2c1

>  <Energy>  (26) 
82.11422952951101

>  <Genealogy>  (26) 
COc1ccc2c(=O)c(-c3ccc4ccccc4[nH+]3)c(-c3ccc4ccccc4n3)oc2c1 (protonated)
COc1ccc2c(=O)c(-c3ccc4ccccc4[nH+]3)c(-c3ccc4ccccc4n3)oc2c1 (3D coordinates assigned)
COc1ccc2c(=O)c(-c3ccc4ccccc4[nH+]3)c(-c3ccc4ccccc4n3)oc2c1 (optimized conformer: 82.11422952951101 kcal/mol)

>  <smiles>  (26) 
COc1ccc2c(=O)c(-c3ccc4ccccc4n3)c(-c3ccc4ccccc4n3)oc2c1

>  <score_type>  (26) 
oracle

>  <origin>  (26) 
adg

>  <m_score__min__energy>  (26) 
-7.9400000000000004

>  <m_primary>  (26) 
energy

$$$$
26:0
     RDKit          3D

 38 40  0  0  1  0  0  0  0  0999 V2000
   54.8450   24.8010   45.6120 C   0  0  0  0  0  0  0  0  0  0  0  0
   55.1630   26.1130   46.0400 O   0  0  0  0  0  0  0  0  0  0  0  0
   56.4860   26.5670   45.9650 C   0  0  0  0  0  0  0  0  0  0  0  0
   57.5470   25.8010   46.3730 C   0  0  0  0  0  0  0  0  0  0  0  0
   58.8050   26.3290   46.2610 C   0  0  0  0  0  0  0  0  0  0  0  0
   58.9930   27.6090   45.7460 C   0  0  0  0  0  0  0  0  0  0  0  0
   57.9470   28.4020   45.3280 C   0  0  0  0  0  0  0  0  0  0  0  0
   58.1300   29.7700   44.7750 C   0  0  0  0  0  0  0  0  0  0  0  0
   57.7680   30.8010   45.6790 N   0  0  0  0  0  0  0  0  0  0  0  0
   58.0850   32.0420   45.6190 C   0  0  0  0  0  0  0  0  0  0  0  0
   57.2300   32.8800   45.0360 N   0  0  0  0  0  0  0  0  0  0  0  0
   57.4350   34.2080   44.9010 C   0  0  0  0  0  0  0  0  0  0  0  0
   58.5880   34.6800   45.4000 N   0  0  0  0  0  0  0  0  0  0  0  0
   59.4930   33.8760   46.0020 C   0  0  0  0  0  0  0  0  0  0  0  0
   61.0790   34.2190   46.7420 S   0  0  0  0  0  0  0  0  0  0  0  0
   61.3910   32.5260   47.2030 C   0  0  0  0  0  0  0  0  0  0  0  0
   62.5950   32.0060   47.9050 C   0  0  0  0  0  0  0  0  0  0  0  0
   60.2700   31.8190   46.7640 C   0  0  0  0  0  0  0  0  0  0  0  0
   60.2240   30.3180   47.0130 C   0  0  0  0  0  0  0  0  0  0  0  0
   59.3070   32.5050   46.1540 C   0  0  0  0  0  0  0  0  0  0  0  0
   56.6740   27.8320   45.4570 C   0  0  0  0  0  0  0  0  0  0  0  0
   54.6888   24.1567   46.4898 H   0  0  0  0  0  0  0  0  0  0  0  0
   53.9267   24.8252   45.0069 H   0  0  0  0  0  0  0  0  0  0  0  0
   55.6725   24.4021   45.0069 H   0  0  0  0  0  0  0  0  0  0  0  0
   57.3919   24.7905   46.7790 H   0  0  0  0  0  0  0  0  0  0  0  0
   59.6751   25.7368   46.5807 H   0  0  0  0  0  0  0  0  0  0  0  0
   60.0174   28.0025   45.6699 H   0  0  0  0  0  0  0  0  0  0  0  0
   59.1893   29.8981   44.5075 H   0  0  0  0  0  0  0  0  0  0  0  0
   57.4648   29.8572   43.9032 H   0  0  0  0  0  0  0  0  0  0  0  0
   56.3420   32.5170   44.6520 H   0  0  0  0  0  0  0  0  0  0  0  0
   56.7004   34.8640   44.4110 H   0  0  0  0  0  0  0  0  0  0  0  0
   62.4425   32.0719   48.9924 H   0  0  0  0  0  0  0  0  0  0  0  0
   62.7603   30.9563   47.6209 H   0  0  0  0  0  0  0  0  0  0  0  0
   63.4725   32.6053   47.6209 H   0  0  0  0  0  0  0  0  0  0  0  0
   60.2181   30.1260   48.0961 H   0  0  0  0  0  0  0  0  0  0  0  0
   59.3126   29.8992   46.5614 H   0  0  0  0  0  0  0  0  0  0  0  0
   61.1080   29.8441   46.5614 H   0  0  0  0  0  0  0  0  0  0  0  0
   55.7958   28.4147   45.1419 H   0  0  0  0  0  0  0  0  0  0  0  0
  1  2  1  0
  2  3  1  0
  3  4  2  0
  4  5  1  0
  5  6  2  0
  6  7  1  0
  7  8  1  0
  8  9  1  0
  9 10  2  0
 10 11  1  0
 11 12  1  0
 12 13  2  0
 13 14  1  0
 14 15  1  0
 15 16  1  0
 16 17  1  0
 16 18  2  0
 18 19  1  0
 18 20  1  0
  7 21  2  0
 21  3  1  0
 20 10  1  0
 20 14  2  0
  1 22  1  0
  1 23  1  0
  1 24  1  0
  4 25  1  0
  5 26  1  0
  6 27  1  0
  8 28  1  0
  8 29  1  0
 11 30  1  0
 12 31  1  0
 17 32  1  0
 17 33  1  0
 17 34  1  0
 19 35  1  0
 19 36  1  0
 19 37  1  0
 21 38  1  0
M  END
>  <smiles>  (27) 
COc1cccc(CN=c2[nH]cnc3sc(C)c(C)c23)c1

>  <score_type>  (27) 
oracle

>  <origin>  (27) 
adg

>  <m_score__min__energy>  (27) 
-7.5599999999999996

>  <m_primary>  (27) 
energy

$$$$
27:0
     RDKit          3D

 30 32  0  0  0  0  0  0  0  0999 V2000
   66.3860   32.7300   49.7990 C   0  0  0  0  0  0  0  0  0  0  0  0
   64.9070   32.9740   49.6950 C   0  0  0  0  0  0  0  0  0  0  0  0
   64.3250   33.0770   48.4590 N   0  0  0  0  0  0  0  0  0  0  0  0
   62.9920   33.2970   48.3730 C   0  0  0  0  0  0  0  0  0  0  0  0
   62.2880   33.4200   47.2350 N   0  0  0  0  0  0  0  0  0  0  0  0
   61.0350   33.6240   47.7230 C   0  0  0  0  0  0  0  0  0  0  0  0
   59.8470   33.8240   46.8660 C   0  0  0  0  0  0  0  0  0  0  0  0
   59.9430   34.5750   45.6790 C   0  0  0  0  0  0  0  0  0  0  0  0
   58.8180   34.7620   44.8700 C   0  0  0  0  0  0  0  0  0  0  0  0
   57.5900   34.2070   45.2360 C   0  0  0  0  0  0  0  0  0  0  0  0
   57.4840   33.4620   46.4130 C   0  0  0  0  0  0  0  0  0  0  0  0
   58.6060   33.2700   47.2260 C   0  0  0  0  0  0  0  0  0  0  0  0
   60.9870   33.6230   49.0800 N   0  0  0  0  0  0  0  0  0  0  0  0
   62.2320   33.4160   49.4620 N   0  0  0  0  0  0  0  0  0  0  0  0
   62.7240   33.3280   50.7250 C   0  0  0  0  0  0  0  0  0  0  0  0
   61.8240   33.4690   51.9220 C   0  0  0  0  0  0  0  0  0  0  0  0
   64.1120   33.0980   50.8670 C   0  0  0  0  0  0  0  0  0  0  0  0
   64.8400   32.9680   52.4710 Cl  0  0  0  0  0  0  0  0  0  0  0  0
   66.6761   32.6821   50.8590 H   0  0  0  0  0  0  0  0  0  0  0  0
   66.6361   31.7784   49.3071 H   0  0  0  0  0  0  0  0  0  0  0  0
   66.9285   33.5508   49.3071 H   0  0  0  0  0  0  0  0  0  0  0  0
   64.8920   32.9890   47.5850 H   0  0  0  0  0  0  0  0  0  0  0  0
   60.9072   35.0165   45.3868 H   0  0  0  0  0  0  0  0  0  0  0  0
   58.9005   35.3479   43.9427 H   0  0  0  0  0  0  0  0  0  0  0  0
   56.7066   34.3564   44.5979 H   0  0  0  0  0  0  0  0  0  0  0  0
   56.5163   33.0255   46.7010 H   0  0  0  0  0  0  0  0  0  0  0  0
   58.5169   32.6826   48.1517 H   0  0  0  0  0  0  0  0  0  0  0  0
   62.4200   33.3756   52.8419 H   0  0  0  0  0  0  0  0  0  0  0  0
   61.3360   34.4546   51.8997 H   0  0  0  0  0  0  0  0  0  0  0  0
   61.0579   32.6799   51.8997 H   0  0  0  0  0  0  0  0  0  0  0  0
  1  2  1  0
  2  3  2  0
  3  4  1  0
  4  5  2  0
  5  6  1  0
  6  7  1  0
  7  8  2  0
  8  9  1  0
  9 10  2  0
 10 11  1  0
 11 12  2  0
  6 13  2  0
 13 14  1  0
 14 15  1  0
 15 16  1  0
 15 17  2  0
 17 18  1  0
 17  2  1  0
 14  4  1  0
 12  7  1  0
  1 19  1  0
  1 20  1  0
  1 21  1  0
  3 22  1  0
  8 23  1  0
  9 24  1  0
 10 25  1  0
 11 26  1  0
 12 27  1  0
 16 28  1  0
 16 29  1  0
 16 30  1  0
M  CHG  1   3   1
M  END
>  <UniqueID>  (28) 
24

>  <SMILES>  (28) 
Cc1[nH+]c2nc(-c3ccccc3)nn2c(C)c1Cl

>  <Energy>  (28) 
72.69767710708506

>  <Genealogy>  (28) 
Cc1[nH+]c2nc(-c3ccccc3)nn2c(C)c1Cl (protonated)
Cc1[nH+]c2nc(-c3ccccc3)nn2c(C)c1Cl (3D coordinates assigned)
Cc1[nH+]c2nc(-c3ccccc3)nn2c(C)c1Cl (optimized conformer: 72.69767710708506 kcal/mol)

>  <smiles>  (28) 
Cc1nc2nc(-c3ccccc3)nn2c(C)c1Cl

>  <score_type>  (28) 
oracle

>  <origin>  (28) 
adg

>  <m_score__min__energy>  (28) 
-5.5899999999999999

>  <m_primary>  (28) 
energy

$$$$
28:0
     RDKit          3D

 40 40  0  0  0  0  0  0  0  0999 V2000
   61.5170   30.9910   47.2020 C   0  0  0  0  0  0  0  0  0  0  0  0
   60.7580   29.9500   46.3800 C   0  0  0  0  0  0  0  0  0  0  0  0
   60.3040   28.8170   47.2170 N   0  0  0  0  0  0  0  0  0  0  0  0
   59.1520   29.1110   48.1040 C   0  0  0  0  0  0  0  0  0  0  0  0
   59.5430   29.4300   49.5540 C   0  0  0  0  0  0  0  0  0  0  0  0
   60.1240   27.5690   46.4360 C   0  0  0  0  0  0  0  0  0  0  0  0
   59.6000   27.9070   45.0380 C   0  0  0  0  0  0  0  0  0  0  0  0
   58.0680   27.8230   44.9750 C   0  0  0  0  0  0  0  0  0  0  0  0
   57.5510   28.3280   43.6960 N   0  0  0  0  0  0  0  0  0  0  0  0
   56.5290   29.7270   43.9010 S   0  0  0  0  0  0  0  0  0  0  0  0
   55.4290   29.3930   44.8690 O   0  0  0  0  0  0  0  0  0  0  0  0
   55.8970   30.0710   42.5800 O   0  0  0  0  0  0  0  0  0  0  0  0
   57.4150   31.1210   44.5210 C   0  0  0  0  0  0  0  0  0  0  0  0
   57.7160   32.1900   43.6670 C   0  0  0  0  0  0  0  0  0  0  0  0
   58.3830   33.3170   44.1570 C   0  0  0  0  0  0  0  0  0  0  0  0
   58.7490   33.3830   45.5050 C   0  0  0  0  0  0  0  0  0  0  0  0
   59.6380   34.9330   46.1790 Br  0  0  0  0  0  0  0  0  0  0  0  0
   58.4490   32.3200   46.3630 C   0  0  0  0  0  0  0  0  0  0  0  0
   57.7820   31.1930   45.8740 C   0  0  0  0  0  0  0  0  0  0  0  0
   61.3705   30.7900   48.2735 H   0  0  0  0  0  0  0  0  0  0  0  0
   62.5892   30.9370   46.9621 H   0  0  0  0  0  0  0  0  0  0  0  0
   61.1377   31.9953   46.9621 H   0  0  0  0  0  0  0  0  0  0  0  0
   59.8802   30.4287   45.9214 H   0  0  0  0  0  0  0  0  0  0  0  0
   61.4392   29.5570   45.6109 H   0  0  0  0  0  0  0  0  0  0  0  0
   58.6119   29.9768   47.6933 H   0  0  0  0  0  0  0  0  0  0  0  0
   58.5348   28.2010   48.1347 H   0  0  0  0  0  0  0  0  0  0  0  0
   58.8774   28.8870   50.2412 H   0  0  0  0  0  0  0  0  0  0  0  0
   60.5836   29.1199   49.7299 H   0  0  0  0  0  0  0  0  0  0  0  0
   59.4481   30.5117   49.7299 H   0  0  0  0  0  0  0  0  0  0  0  0
   61.0897   27.0495   46.3489 H   0  0  0  0  0  0  0  0  0  0  0  0
   59.4002   26.9189   46.9493 H   0  0  0  0  0  0  0  0  0  0  0  0
   59.9129   28.9286   44.7765 H   0  0  0  0  0  0  0  0  0  0  0  0
   60.0149   27.1762   44.3282 H   0  0  0  0  0  0  0  0  0  0  0  0
   57.7629   26.7729   45.0938 H   0  0  0  0  0  0  0  0  0  0  0  0
   57.6557   28.4456   45.7827 H   0  0  0  0  0  0  0  0  0  0  0  0
   56.9490   27.5780   43.2860 H   0  0  0  0  0  0  0  0  0  0  0  0
   57.4265   32.1426   42.6068 H   0  0  0  0  0  0  0  0  0  0  0  0
   58.6200   34.1523   43.4816 H   0  0  0  0  0  0  0  0  0  0  0  0
   58.7381   32.3708   47.4231 H   0  0  0  0  0  0  0  0  0  0  0  0
   57.5440   30.3599   46.5517 H   0  0  0  0  0  0  0  0  0  0  0  0
  1  2  1  0
  2  3  1  0
  3  4  1  0
  4  5  1  0
  3  6  1  0
  6  7  1  0
  7  8  1  0
  8  9  1  0
  9 10  1  0
 10 11  2  0
 10 12  2  0
 10 13  1  0
 13 14  2  0
 14 15  1  0
 15 16  2  0
 16 17  1  0
 16 18  1  0
 18 19  2  0
 19 13  1  0
  1 20  1  0
  1 21  1  0
  1 22  1  0
  2 23  1  0
  2 24  1  0
  4 25  1  0
  4 26  1  0
  5 27  1  0
  5 28  1  0
  5 29  1  0
  6 30  1  0
  6 31  1  0
  7 32  1  0
  7 33  1  0
  8 34  1  0
  8 35  1  0
  9 36  1  0
 14 37  1  0
 15 38  1  0
 18 39  1  0
 19 40  1  0
M  END
>  <UniqueID>  (29) 
25

>  <SMILES>  (29) 
CCN(CC)CCCNS(=O)(=O)c1ccc(Br)cc1

>  <Energy>  (29) 
32.80187113087392

>  <Genealogy>  (29) 
CCN(CC)CCCNS(=O)(=O)c1ccc(Br)cc1 (3D coordinates assigned)
CCN(CC)CCCNS(=O)(=O)c1ccc(Br)cc1 (optimized conformer: 32.80187113087392 kcal/mol)

>  <smiles>  (29) 
CCN(CC)CCCNS(=O)(=O)c1ccc(Br)cc1

>  <score_type>  (29) 
oracle

>  <origin>  (29) 
adg

>  <m_score__min__energy>  (29) 
-7.0899999999999999

>  <m_primary>  (29) 
energy

$$$$
29:0
     RDKit          3D

 33 34  0  0  0  0  0  0  0  0999 V2000
   58.0769   28.6399   43.1572 H   0  0  0  0  0  0  0  0  0  0  0  0
   57.3050   29.1660   43.7380 C   0  0  0  0  0  0  0  0  0  0  0  0
   56.8700   30.4690   43.6100 C   0  0  0  0  0  0  0  0  0  0  0  0
   57.3780   31.4730   42.6310 C   0  0  0  0  0  0  0  0  0  0  0  0
   57.8102   32.3272   43.1727 H   0  0  0  0  0  0  0  0  0  0  0  0
   58.1506   31.0106   41.9991 H   0  0  0  0  0  0  0  0  0  0  0  0
   56.5478   31.8216   41.9991 H   0  0  0  0  0  0  0  0  0  0  0  0
   55.9400   30.7050   44.5070 O   0  0  0  0  0  0  0  0  0  0  0  0
   55.7100   29.6500   45.2330 N   0  0  0  0  0  0  0  0  0  0  0  0
   56.5340   28.6880   44.7720 C   0  0  0  0  0  0  0  0  0  0  0  0
   56.6310   27.4860   45.2630 N   0  0  0  0  0  0  0  0  0  0  0  0
   57.8200   26.8440   45.7510 C   0  0  0  0  0  0  0  0  0  0  0  0
   58.6760   26.4550   44.9130 O   0  0  0  0  0  0  0  0  0  0  0  0
   58.0750   26.6280   47.2200 C   0  0  0  0  0  0  0  0  0  0  0  0
   58.1301   25.5470   47.4162 H   0  0  0  0  0  0  0  0  0  0  0  0
   57.2500   27.0913   47.7809 H   0  0  0  0  0  0  0  0  0  0  0  0
   59.6380   27.4080   47.7630 S   0  0  0  0  0  0  0  0  0  0  0  0
   59.2380   29.0160   47.0840 C   0  0  0  0  0  0  0  0  0  0  0  0
   57.9760   29.4850   46.9690 N   0  0  0  0  0  0  0  0  0  0  0  0
   57.9230   30.7060   46.4380 N   0  0  0  0  0  0  0  0  0  0  0  0
   57.0190   31.2120   46.3290 H   0  0  0  0  0  0  0  0  0  0  0  0
   59.1430   31.2070   46.1220 C   0  0  0  0  0  0  0  0  0  0  0  0
   59.3590   32.3900   45.6290 N   0  0  0  0  0  0  0  0  0  0  0  0
   58.4010   33.4520   45.5310 C   0  0  0  0  0  0  0  0  0  0  0  0
   57.1740   33.1750   45.6090 O   0  0  0  0  0  0  0  0  0  0  0  0
   58.8280   34.8920   45.4420 C   0  0  0  0  0  0  0  0  0  0  0  0
   57.9337   35.5283   45.3685 H   0  0  0  0  0  0  0  0  0  0  0  0
   59.4629   35.0144   44.5521 H   0  0  0  0  0  0  0  0  0  0  0  0
   59.6320   35.3020   46.6720 C   0  0  0  0  0  0  0  0  0  0  0  0
   59.0803   35.0207   47.5811 H   0  0  0  0  0  0  0  0  0  0  0  0
   60.6057   34.7904   46.6609 H   0  0  0  0  0  0  0  0  0  0  0  0
   59.7897   36.3906   46.6609 H   0  0  0  0  0  0  0  0  0  0  0  0
   60.3720   30.1300   46.5200 S   0  0  0  0  0  0  0  0  0  0  0  0
  1  2  1  0
  2  3  2  0
  3  4  1  0
  4  5  1  0
  4  6  1  0
  4  7  1  0
  3  8  1  0
  8  9  1  0
  9 10  1  0
 10 11  2  0
 11 12  1  0
 12 13  2  0
 12 14  1  0
 14 15  1  0
 14 16  1  0
 14 17  1  0
 17 18  1  0
 18 19  2  0
 19 20  1  0
 20 21  1  0
 20 22  1  0
 22 23  2  3
 23 24  1  0
 24 25  2  0
 24 26  1  0
 26 27  1  0
 26 28  1  0
 26 29  1  0
 29 30  1  0
 29 31  1  0
 29 32  1  0
 22 33  1  0
 10  2  1  0
 33 18  1  0
M  CHG  1   9  -1
M  END
>  <UniqueID>  (30) 
26

>  <SMILES>  (30) 
CCC(=O)N=c1[nH]nc(SCC(=O)/N=c2/cc(C)o[n-]2)s1

>  <Energy>  (30) 
100.88004663058013

>  <Genealogy>  (30) 
CCC(=O)N=c1[nH]nc(SCC(=O)N=c2cc(C)o[n-]2)s1 (protonated)
CCC(=O)N=c1[nH]nc(SCC(=O)/N=c2/cc(C)o[n-]2)s1 (cis-trans isomerization)
CCC(=O)N=c1[nH]nc(SCC(=O)/N=c2/cc(C)o[n-]2)s1 (3D coordinates assigned)
CCC(=O)N=c1[nH]nc(SCC(=O)/N=c2/cc(C)o[n-]2)s1 (optimized conformer: 100.88004663058013 kcal/mol)

>  <smiles>  (30) 
CCC(=O)N=c1[nH]nc(SCC(=O)N=c2cc(C)o[nH]2)s1

>  <score_type>  (30) 
oracle

>  <origin>  (30) 
adg

>  <m_score__min__energy>  (30) 
-9.8200000000000003

>  <m_primary>  (30) 
energy

$$$$
30:0
     RDKit          3D

 35 36  0  0  0  0  0  0  0  0999 V2000
   60.0550   28.9920   45.1340 C   0  0  0  0  0  0  0  0  0  0  0  0
   58.6590   28.4010   45.2190 C   0  0  0  0  0  0  0  0  0  0  0  0
   57.5450   29.1940   44.8330 C   0  0  0  0  0  0  0  0  0  0  0  0
   57.6780   30.5390   44.1330 C   0  0  0  0  0  0  0  0  0  0  0  0
   57.0640   31.5990   44.9430 N   0  0  0  0  0  0  0  0  0  0  0  0
   57.8040   31.8100   46.1930 C   0  0  0  0  0  0  0  0  0  0  0  0
   58.5060   33.1380   46.1430 C   0  0  0  0  0  0  0  0  0  0  0  0
   59.0370   33.7070   47.3120 C   0  0  0  0  0  0  0  0  0  0  0  0
   59.6580   34.9600   47.2660 C   0  0  0  0  0  0  0  0  0  0  0  0
   59.7440   35.6550   46.0560 C   0  0  0  0  0  0  0  0  0  0  0  0
   59.2040   35.1010   44.8920 C   0  0  0  0  0  0  0  0  0  0  0  0
   58.5820   33.8490   44.9340 C   0  0  0  0  0  0  0  0  0  0  0  0
   56.2630   28.6800   45.0640 C   0  0  0  0  0  0  0  0  0  0  0  0
   55.2350   29.3470   44.7650 O   0  0  0  0  0  0  0  0  0  0  0  0
   56.1130   27.4600   45.6190 N   0  0  0  0  0  0  0  0  0  0  0  0
   57.1720   26.6740   45.9240 C   0  0  0  0  0  0  0  0  0  0  0  0
   56.8490   25.2240   46.6310 S   0  0  0  0  0  0  0  0  0  0  0  0
   58.4560   27.1060   45.6640 N   0  0  0  0  0  0  0  0  0  0  0  0
   59.6060   26.2030   45.8770 C   0  0  0  0  0  0  0  0  0  0  0  0
   60.4456   29.1574   46.1489 H   0  0  0  0  0  0  0  0  0  0  0  0
   60.7155   28.2963   44.5957 H   0  0  0  0  0  0  0  0  0  0  0  0
   60.0152   29.9505   44.5957 H   0  0  0  0  0  0  0  0  0  0  0  0
   58.7439   30.7670   43.9849 H   0  0  0  0  0  0  0  0  0  0  0  0
   57.1645   30.4887   43.1615 H   0  0  0  0  0  0  0  0  0  0  0  0
   56.0970   31.2840   45.1950 H   0  0  0  0  0  0  0  0  0  0  0  0
   57.1028   31.7978   47.0405 H   0  0  0  0  0  0  0  0  0  0  0  0
   58.5463   31.0080   46.3189 H   0  0  0  0  0  0  0  0  0  0  0  0
   58.9645   33.1658   48.2669 H   0  0  0  0  0  0  0  0  0  0  0  0
   60.0789   35.3986   48.1827 H   0  0  0  0  0  0  0  0  0  0  0  0
   60.2367   36.6378   46.0201 H   0  0  0  0  0  0  0  0  0  0  0  0
   59.2683   35.6506   43.9413 H   0  0  0  0  0  0  0  0  0  0  0  0
   58.1510   33.4198   44.0175 H   0  0  0  0  0  0  0  0  0  0  0  0
   59.7738   26.0712   46.9561 H   0  0  0  0  0  0  0  0  0  0  0  0
   59.3955   25.2264   45.4167 H   0  0  0  0  0  0  0  0  0  0  0  0
   60.5048   26.6392   45.4167 H   0  0  0  0  0  0  0  0  0  0  0  0
  1  2  1  0
  2  3  2  0
  3  4  1  0
  4  5  1  0
  5  6  1  0
  6  7  1  0
  7  8  2  0
  8  9  1  0
  9 10  2  0
 10 11  1  0
 11 12  2  0
  3 13  1  0
 13 14  2  0
 13 15  1  0
 15 16  1  0
 16 17  2  0
 16 18  1  0
 18 19  1  0
 18  2  1  0
 12  7  1  0
  1 20  1  0
  1 21  1  0
  1 22  1  0
  4 23  1  0
  4 24  1  0
  5 25  1  0
  6 26  1  0
  6 27  1  0
  8 28  1  0
  9 29  1  0
 10 30  1  0
 11 31  1  0
 12 32  1  0
 19 33  1  0
 19 34  1  0
 19 35  1  0
M  CHG  1  15  -1
M  END
>  <UniqueID>  (31) 
27

>  <SMILES>  (31) 
Cc1c(CNCc2ccccc2)c(=O)[n-]c(=S)n1C

>  <Energy>  (31) 
47.00228888957513

>  <Genealogy>  (31) 
Cc1c(CNCc2ccccc2)c(=O)[n-]c(=S)n1C (protonated)
Cc1c(CNCc2ccccc2)c(=O)[n-]c(=S)n1C (3D coordinates assigned)
Cc1c(CNCc2ccccc2)c(=O)[n-]c(=S)n1C (optimized conformer: 47.00228888957513 kcal/mol)

>  <smiles>  (31) 
Cc1c(CNCc2ccccc2)c(=O)[nH]c(=S)n1C

>  <score_type>  (31) 
oracle

>  <origin>  (31) 
adg

>  <m_score__min__energy>  (31) 
-8.9399999999999995

>  <m_primary>  (31) 
energy

$$$$
31:0
     RDKit          3D

 37 38  0  0  0  0  0  0  0  0999 V2000
   57.7690   32.0090   44.0060 C   0  0  0  0  0  0  0  0  0  0  0  0
   57.7870   33.4830   44.3950 C   0  0  0  0  0  0  0  0  0  0  0  0
   58.3720   33.6640   45.7300 N   0  0  0  0  0  0  0  0  0  0  0  0
   57.7380   33.0210   46.8940 C   0  0  0  0  0  0  0  0  0  0  0  0
   58.5180   31.7830   47.3290 C   0  0  0  0  0  0  0  0  0  0  0  0
   59.4670   34.5880   45.9020 C   0  0  0  0  0  0  0  0  0  0  0  0
   59.4870   35.6560   45.2320 O   0  0  0  0  0  0  0  0  0  0  0  0
   60.5700   34.3120   46.8480 C   0  0  0  0  0  0  0  0  0  0  0  0
   60.3900   34.4850   48.2270 C   0  0  0  0  0  0  0  0  0  0  0  0
   61.4310   34.2090   49.1170 C   0  0  0  0  0  0  0  0  0  0  0  0
   62.6720   33.7440   48.6460 C   0  0  0  0  0  0  0  0  0  0  0  0
   63.7650   33.4580   49.6070 C   0  0  0  0  0  0  0  0  0  0  0  0
   63.6640   33.6610   50.9370 N   0  0  0  0  0  0  0  0  0  0  0  0
   64.8110   33.3000   51.4330 O   0  0  0  0  0  0  0  0  0  0  0  0
   65.6010   32.8890   50.4700 C   0  0  0  0  0  0  0  0  0  0  0  0
   66.9980   32.3980   50.6630 C   0  0  0  0  0  0  0  0  0  0  0  0
   67.1180   31.1250   50.1390 F   0  0  0  0  0  0  0  0  0  0  0  0
   67.8770   33.2450   50.0160 F   0  0  0  0  0  0  0  0  0  0  0  0
   67.3060   32.3660   52.0100 F   0  0  0  0  0  0  0  0  0  0  0  0
   64.9810   32.9690   49.2800 N   0  0  0  0  0  0  0  0  0  0  0  0
   62.8420   33.5540   47.2630 C   0  0  0  0  0  0  0  0  0  0  0  0
   61.7980   33.8290   46.3740 C   0  0  0  0  0  0  0  0  0  0  0  0
   57.7614   31.3899   44.9152 H   0  0  0  0  0  0  0  0  0  0  0  0
   56.8682   31.7978   43.4111 H   0  0  0  0  0  0  0  0  0  0  0  0
   58.6644   31.7758   43.4111 H   0  0  0  0  0  0  0  0  0  0  0  0
   58.3851   34.0423   43.6605 H   0  0  0  0  0  0  0  0  0  0  0  0
   56.7522   33.8558   44.4105 H   0  0  0  0  0  0  0  0  0  0  0  0
   57.7069   33.7377   47.7279 H   0  0  0  0  0  0  0  0  0  0  0  0
   56.7205   32.7123   46.6121 H   0  0  0  0  0  0  0  0  0  0  0  0
   58.5478   31.7357   48.4276 H   0  0  0  0  0  0  0  0  0  0  0  0
   58.0242   30.8818   46.9364 H   0  0  0  0  0  0  0  0  0  0  0  0
   59.5440   31.8394   46.9364 H   0  0  0  0  0  0  0  0  0  0  0  0
   59.4226   34.8405   48.6113 H   0  0  0  0  0  0  0  0  0  0  0  0
   61.2786   34.3568   50.1963 H   0  0  0  0  0  0  0  0  0  0  0  0
   65.3680   32.7110   48.3450 H   0  0  0  0  0  0  0  0  0  0  0  0
   63.8042   33.1860   46.8772 H   0  0  0  0  0  0  0  0  0  0  0  0
   61.9412   33.6653   45.2957 H   0  0  0  0  0  0  0  0  0  0  0  0
  1  2  1  0
  2  3  1  0
  3  4  1  0
  4  5  1  0
  3  6  1  0
  6  7  2  0
  6  8  1  0
  8  9  2  0
  9 10  1  0
 10 11  2  0
 11 12  1  0
 12 13  2  0
 13 14  1  0
 14 15  1  0
 15 16  1  0
 16 17  1  0
 16 18  1  0
 16 19  1  0
 15 20  2  0
 11 21  1  0
 21 22  2  0
 22  8  1  0
 20 12  1  0
  1 23  1  0
  1 24  1  0
  1 25  1  0
  2 26  1  0
  2 27  1  0
  4 28  1  0
  4 29  1  0
  5 30  1  0
  5 31  1  0
  5 32  1  0
  9 33  1  0
 10 34  1  0
 20 35  1  0
 21 36  1  0
 22 37  1  0
M  CHG  1  20   1
M  END
>  <UniqueID>  (32) 
28

>  <SMILES>  (32) 
CCN(CC)C(=O)c1ccc(-c2noc(C(F)(F)F)[nH+]2)cc1

>  <Energy>  (32) 
70.334268031192

>  <Genealogy>  (32) 
CCN(CC)C(=O)c1ccc(-c2noc(C(F)(F)F)[nH+]2)cc1 (protonated)
CCN(CC)C(=O)c1ccc(-c2noc(C(F)(F)F)[nH+]2)cc1 (3D coordinates assigned)
CCN(CC)C(=O)c1ccc(-c2noc(C(F)(F)F)[nH+]2)cc1 (optimized conformer: 70.334268031192 kcal/mol)

>  <smiles>  (32) 
CCN(CC)C(=O)c1ccc(-c2noc(C(F)(F)F)n2)cc1

>  <score_type>  (32) 
oracle

>  <origin>  (32) 
adg

>  <m_score__min__energy>  (32) 
-5.04

>  <m_primary>  (32) 
energy

$$$$
32:0
     RDKit          3D

 51 53  0  0  0  0  0  0  0  0999 V2000
   59.7180   34.6660   48.0270 C   0  0  0  0  0  0  0  0  0  0  0  0
   59.0950   33.9800   46.8530 C   0  0  0  0  0  0  0  0  0  0  0  0
   58.3330   32.8180   47.0330 C   0  0  0  0  0  0  0  0  0  0  0  0
   57.7700   32.1890   45.9220 C   0  0  0  0  0  0  0  0  0  0  0  0
   57.9720   32.7180   44.6390 C   0  0  0  0  0  0  0  0  0  0  0  0
   57.4070   32.0370   43.4240 C   0  0  0  0  0  0  0  0  0  0  0  0
   57.7020   30.6070   43.4670 N   0  0  0  0  0  0  0  0  0  0  0  0
   56.9280   29.6870   44.2520 C   0  0  0  0  0  0  0  0  0  0  0  0
   55.8590   30.0740   44.8010 O   0  0  0  0  0  0  0  0  0  0  0  0
   57.3990   28.2630   44.4400 C   0  0  1  0  0  0  0  0  0  0  0  0
   58.9000   28.1420   44.1180 C   0  0  0  0  0  0  0  0  0  0  0  0
   59.8110   28.6600   45.2420 C   0  0  0  0  0  0  0  0  0  0  0  0
   59.1970   28.5260   46.6480 C   0  0  0  0  0  0  0  0  0  0  0  0
   58.1820   27.4610   46.7340 N   0  0  0  0  0  0  0  0  0  0  0  0
   58.7390   26.0970   46.6160 C   0  0  0  0  0  0  0  0  0  0  0  0
   57.7560   25.0890   47.2140 C   0  0  0  0  0  0  0  0  0  0  0  0
   56.7790   24.6170   46.1760 C   0  0  0  0  0  0  0  0  0  0  0  0
   57.2190   23.9070   45.0480 C   0  0  0  0  0  0  0  0  0  0  0  0
   56.2820   23.4560   44.1150 C   0  0  0  0  0  0  0  0  0  0  0  0
   54.9230   23.7080   44.3180 C   0  0  0  0  0  0  0  0  0  0  0  0
   54.5200   24.4070   45.4580 C   0  0  0  0  0  0  0  0  0  0  0  0
   55.4470   24.8380   46.3550 N   0  0  0  0  0  0  0  0  0  0  0  0
   57.0240   27.7100   45.8460 C   0  0  0  0  0  0  0  0  0  0  0  0
   58.7590   33.8700   44.5010 C   0  0  0  0  0  0  0  0  0  0  0  0
   59.2940   34.4680   45.5990 N   0  0  0  0  0  0  0  0  0  0  0  0
   59.3234   34.2315   48.9574 H   0  0  0  0  0  0  0  0  0  0  0  0
   60.8093   34.5317   47.9935 H   0  0  0  0  0  0  0  0  0  0  0  0
   59.4795   35.7393   47.9935 H   0  0  0  0  0  0  0  0  0  0  0  0
   58.1800   32.4053   48.0411 H   0  0  0  0  0  0  0  0  0  0  0  0
   57.1676   31.2779   46.0525 H   0  0  0  0  0  0  0  0  0  0  0  0
   56.3170   32.1830   43.3990 H   0  0  0  0  0  0  0  0  0  0  0  0
   57.8637   32.4718   42.5227 H   0  0  0  0  0  0  0  0  0  0  0  0
   58.5360   30.2600   42.9420 H   0  0  0  0  0  0  0  0  0  0  0  0
   56.8666   27.6222   43.7217 H   0  0  0  0  0  0  0  0  0  0  0  0
   59.1339   27.0819   43.9408 H   0  0  0  0  0  0  0  0  0  0  0  0
   59.0925   28.7650   43.2321 H   0  0  0  0  0  0  0  0  0  0  0  0
   60.7511   28.0894   45.2178 H   0  0  0  0  0  0  0  0  0  0  0  0
   59.9668   29.7336   45.0603 H   0  0  0  0  0  0  0  0  0  0  0  0
   60.0026   28.3009   47.3623 H   0  0  0  0  0  0  0  0  0  0  0  0
   58.6961   29.4774   46.8803 H   0  0  0  0  0  0  0  0  0  0  0  0
   58.9063   25.8602   45.5549 H   0  0  0  0  0  0  0  0  0  0  0  0
   59.6938   26.0435   47.1596 H   0  0  0  0  0  0  0  0  0  0  0  0
   58.3162   24.2252   47.6013 H   0  0  0  0  0  0  0  0  0  0  0  0
   57.1986   25.5791   48.0259 H   0  0  0  0  0  0  0  0  0  0  0  0
   58.2906   23.7077   44.9001 H   0  0  0  0  0  0  0  0  0  0  0  0
   56.6134   22.9040   43.2231 H   0  0  0  0  0  0  0  0  0  0  0  0
   54.1780   23.3595   43.5875 H   0  0  0  0  0  0  0  0  0  0  0  0
   53.4525   24.6090   45.6304 H   0  0  0  0  0  0  0  0  0  0  0  0
   56.4846   26.7611   45.7098 H   0  0  0  0  0  0  0  0  0  0  0  0
   56.4139   28.4837   46.3352 H   0  0  0  0  0  0  0  0  0  0  0  0
   58.9442   34.2913   43.5019 H   0  0  0  0  0  0  0  0  0  0  0  0
  1  2  1  0
  2  3  2  0
  3  4  1  0
  4  5  2  0
  5  6  1  0
  6  7  1  0
  7  8  1  0
  8  9  2  0
  8 10  1  0
 10 11  1  0
 11 12  1  0
 12 13  1  0
 13 14  1  0
 14 15  1  0
 15 16  1  0
 16 17  1  0
 17 18  2  0
 18 19  1  0
 19 20  2  0
 20 21  1  0
 21 22  2  0
 14 23  1  0
  5 24  1  0
 24 25  2  0
 25  2  1  0
 23 10  1  0
 22 17  1  0
  1 26  1  0
  1 27  1  0
  1 28  1  0
  3 29  1  0
  4 30  1  0
  6 31  1  0
  6 32  1  0
  7 33  1  0
 10 34  1  6
 11 35  1  0
 11 36  1  0
 12 37  1  0
 12 38  1  0
 13 39  1  0
 13 40  1  0
 15 41  1  0
 15 42  1  0
 16 43  1  0
 16 44  1  0
 18 45  1  0
 19 46  1  0
 20 47  1  0
 21 48  1  0
 23 49  1  0
 23 50  1  0
 24 51  1  0
M  END
>  <UniqueID>  (33) 
29

>  <SMILES>  (33) 
Cc1ccc(CNC(=O)[C@H]2CCCN(CCc3ccccn3)C2)cn1

>  <Energy>  (33) 
58.16196715953119

>  <Genealogy>  (33) 
Cc1ccc(CNC(=O)[C@H]2CCCN(CCc3ccccn3)C2)cn1 (chirality)
Cc1ccc(CNC(=O)[C@H]2CCCN(CCc3ccccn3)C2)cn1 (3D coordinates assigned)
Cc1ccc(CNC(=O)[C@H]2CCCN(CCc3ccccn3)C2)cn1 (nonaromatic ring conformer: 58.16196715953119 kcal/mol)

>  <smiles>  (33) 
Cc1ccc(CNC(=O)C2CCCN(CCc3ccccn3)C2)cn1

>  <score_type>  (33) 
oracle

>  <origin>  (33) 
adg

>  <m_score__min__energy>  (33) 
-9.0199999999999996

>  <m_primary>  (33) 
energy

$$$$
33:0
     RDKit          3D

 43 45  0  0  0  0  0  0  0  0999 V2000
   56.2700   29.6100   42.5520 C   0  0  0  0  0  0  0  0  0  0  0  0
   55.5610   29.7650   43.8960 C   0  0  0  0  0  0  0  0  0  0  0  0
   56.4240   30.4720   44.8720 N   0  0  0  0  0  0  0  0  0  0  0  0
   57.4470   29.5800   45.4670 C   0  0  0  0  0  0  0  0  0  0  0  0
   58.8020   29.6280   44.7490 C   0  0  0  0  0  0  0  0  0  0  0  0
   57.0210   31.7100   44.3210 C   0  0  0  0  0  0  0  0  0  0  0  0
   57.2180   32.6720   45.3540 O   0  0  0  0  0  0  0  0  0  0  0  0
   58.4040   32.8360   46.0880 C   0  0  0  0  0  0  0  0  0  0  0  0
   58.5680   32.0870   47.2560 C   0  0  0  0  0  0  0  0  0  0  0  0
   59.7320   32.2060   48.0200 C   0  0  0  0  0  0  0  0  0  0  0  0
   60.7610   33.0810   47.6280 C   0  0  0  0  0  0  0  0  0  0  0  0
   61.9960   33.2000   48.4450 C   0  0  0  0  0  0  0  0  0  0  0  0
   62.1300   33.8990   49.6540 C   0  0  0  0  0  0  0  0  0  0  0  0
   63.4230   33.8260   50.1830 C   0  0  0  0  0  0  0  0  0  0  0  0
   63.8640   34.4200   51.3700 C   0  0  0  0  0  0  0  0  0  0  0  0
   65.2040   34.2480   51.7560 C   0  0  0  0  0  0  0  0  0  0  0  0
   66.0850   33.4910   50.9590 C   0  0  0  0  0  0  0  0  0  0  0  0
   65.6330   32.9000   49.7680 C   0  0  0  0  0  0  0  0  0  0  0  0
   64.3010   33.0840   49.4080 C   0  0  0  0  0  0  0  0  0  0  0  0
   63.4970   32.5070   48.0570 S   0  0  0  0  0  0  0  0  0  0  0  0
   60.5890   33.8410   46.4550 C   0  0  0  0  0  0  0  0  0  0  0  0
   59.4240   33.7200   45.6930 C   0  0  0  0  0  0  0  0  0  0  0  0
   57.3317   29.3779   42.7221 H   0  0  0  0  0  0  0  0  0  0  0  0
   55.8026   28.7928   41.9830 H   0  0  0  0  0  0  0  0  0  0  0  0
   56.1863   30.5477   41.9830 H   0  0  0  0  0  0  0  0  0  0  0  0
   54.6354   30.3412   43.7503 H   0  0  0  0  0  0  0  0  0  0  0  0
   55.3328   28.7637   44.2900 H   0  0  0  0  0  0  0  0  0  0  0  0
   57.5990   29.8770   46.5152 H   0  0  0  0  0  0  0  0  0  0  0  0
   57.0698   28.5511   45.3720 H   0  0  0  0  0  0  0  0  0  0  0  0
   59.6109   29.6567   45.4939 H   0  0  0  0  0  0  0  0  0  0  0  0
   58.9151   28.7333   44.1191 H   0  0  0  0  0  0  0  0  0  0  0  0
   58.8515   30.5285   44.1191 H   0  0  0  0  0  0  0  0  0  0  0  0
   57.9905   31.4702   43.8600 H   0  0  0  0  0  0  0  0  0  0  0  0
   56.3371   32.1305   43.5690 H   0  0  0  0  0  0  0  0  0  0  0  0
   57.7735   31.3973   47.5771 H   0  0  0  0  0  0  0  0  0  0  0  0
   59.8446   31.6093   48.9372 H   0  0  0  0  0  0  0  0  0  0  0  0
   61.3059   34.4463   50.1349 H   0  0  0  0  0  0  0  0  0  0  0  0
   63.1742   35.0112   51.9902 H   0  0  0  0  0  0  0  0  0  0  0  0
   65.5676   34.7076   52.6869 H   0  0  0  0  0  0  0  0  0  0  0  0
   67.1319   33.3622   51.2710 H   0  0  0  0  0  0  0  0  0  0  0  0
   66.3126   32.3082   49.1372 H   0  0  0  0  0  0  0  0  0  0  0  0
   61.3792   34.5364   46.1356 H   0  0  0  0  0  0  0  0  0  0  0  0
   59.3040   34.3198   44.7787 H   0  0  0  0  0  0  0  0  0  0  0  0
  1  2  1  0
  2  3  1  0
  3  4  1  0
  4  5  1  0
  3  6  1  0
  6  7  1  0
  7  8  1  0
  8  9  2  0
  9 10  1  0
 10 11  2  0
 11 12  1  0
 12 13  2  0
 13 14  1  0
 14 15  2  0
 15 16  1  0
 16 17  2  0
 17 18  1  0
 18 19  2  0
 19 20  1  0
 11 21  1  0
 21 22  2  0
 22  8  1  0
 20 12  1  0
 19 14  1  0
  1 23  1  0
  1 24  1  0
  1 25  1  0
  2 26  1  0
  2 27  1  0
  4 28  1  0
  4 29  1  0
  5 30  1  0
  5 31  1  0
  5 32  1  0
  6 33  1  0
  6 34  1  0
  9 35  1  0
 10 36  1  0
 13 37  1  0
 15 38  1  0
 16 39  1  0
 17 40  1  0
 18 41  1  0
 21 42  1  0
 22 43  1  0
M  END
>  <UniqueID>  (34) 
30

>  <SMILES>  (34) 
CCN(CC)COc1ccc(-c2cc3ccccc3s2)cc1

>  <Energy>  (34) 
78.14590012649384

>  <Genealogy>  (34) 
CCN(CC)COc1ccc(-c2cc3ccccc3s2)cc1 (3D coordinates assigned)
CCN(CC)COc1ccc(-c2cc3ccccc3s2)cc1 (optimized conformer: 78.14590012649384 kcal/mol)

>  <smiles>  (34) 
CCN(CC)COc1ccc(-c2cc3ccccc3s2)cc1

>  <score_type>  (34) 
oracle

>  <origin>  (34) 
adg

>  <m_score__min__energy>  (34) 
-7.0300000000000002

>  <m_primary>  (34) 
energy

$$$$
34:0
     RDKit          3D

 46 49  0  0  0  0  0  0  0  0999 V2000
   59.5090   31.7180   49.8240 C   0  0  0  0  0  0  0  0  0  0  0  0
   59.0950   31.8170   48.3870 C   0  0  0  0  0  0  0  0  0  0  0  0
   58.5170   30.7920   47.6690 C   0  0  0  0  0  0  0  0  0  0  0  0
   58.3280   31.2670   46.3860 C   0  0  0  0  0  0  0  0  0  0  0  0
   57.8000   30.4470   45.2740 C   0  0  0  0  0  0  0  0  0  0  0  0
   56.6500   29.9440   45.3880 O   0  0  0  0  0  0  0  0  0  0  0  0
   58.6180   30.1120   44.0510 C   0  0  0  0  0  0  0  0  0  0  0  0
   59.2360   28.7740   44.1590 N   0  0  0  0  0  0  0  0  0  0  0  0
   58.2590   27.7440   43.8980 C   0  0  0  0  0  0  0  0  0  0  0  0
   57.7070   27.5830   42.7760 O   0  0  0  0  0  0  0  0  0  0  0  0
   58.0260   26.8920   45.0530 C   0  0  0  0  0  0  0  0  0  0  0  0
   57.1800   25.7970   45.2290 C   0  0  0  0  0  0  0  0  0  0  0  0
   57.1900   25.1510   46.4790 C   0  0  0  0  0  0  0  0  0  0  0  0
   58.0380   25.6080   47.5110 C   0  0  0  0  0  0  0  0  0  0  0  0
   58.8830   26.7130   47.3000 C   0  0  0  0  0  0  0  0  0  0  0  0
   58.8460   27.3330   46.0520 C   0  0  0  0  0  0  0  0  0  0  0  0
   59.5960   28.4610   45.5230 C   0  0  0  0  0  0  0  0  0  0  0  0
   60.4960   29.0710   46.1610 O   0  0  0  0  0  0  0  0  0  0  0  0
   58.7750   32.5880   46.3780 C   0  0  0  0  0  0  0  0  0  0  0  0
   58.7140   33.5170   45.1950 C   0  0  0  0  0  0  0  0  0  0  0  0
   59.2470   32.9160   47.6100 N   0  0  0  0  0  0  0  0  0  0  0  0
   59.9010   34.1650   48.0260 C   0  0  0  0  0  0  0  0  0  0  0  0
   61.3760   33.9580   48.1800 C   0  0  0  0  0  0  0  0  0  0  0  0
   62.1070   34.0990   49.3530 C   0  0  0  0  0  0  0  0  0  0  0  0
   63.4700   33.8270   49.1890 C   0  0  0  0  0  0  0  0  0  0  0  0
   63.8150   33.4640   47.8930 C   0  0  0  0  0  0  0  0  0  0  0  0
   62.4220   33.4850   46.9520 S   0  0  0  0  0  0  0  0  0  0  0  0
   58.6432   31.9250   50.4701 H   0  0  0  0  0  0  0  0  0  0  0  0
   59.8850   30.7046   50.0283 H   0  0  0  0  0  0  0  0  0  0  0  0
   60.3027   32.4517   50.0283 H   0  0  0  0  0  0  0  0  0  0  0  0
   58.2571   29.7913   48.0445 H   0  0  0  0  0  0  0  0  0  0  0  0
   57.9634   30.1325   43.1672 H   0  0  0  0  0  0  0  0  0  0  0  0
   59.4230   30.8563   43.9613 H   0  0  0  0  0  0  0  0  0  0  0  0
   60.0590   28.6500   43.5250 H   0  0  0  0  0  0  0  0  0  0  0  0
   56.5255   25.4494   44.4161 H   0  0  0  0  0  0  0  0  0  0  0  0
   56.5337   24.2855   46.6530 H   0  0  0  0  0  0  0  0  0  0  0  0
   58.0381   25.0974   48.4853 H   0  0  0  0  0  0  0  0  0  0  0  0
   59.5515   27.0761   48.0945 H   0  0  0  0  0  0  0  0  0  0  0  0
   58.6457   34.5565   45.5482 H   0  0  0  0  0  0  0  0  0  0  0  0
   59.6221   33.3955   44.5862 H   0  0  0  0  0  0  0  0  0  0  0  0
   57.8296   33.2778   44.5862 H   0  0  0  0  0  0  0  0  0  0  0  0
   59.7215   34.9386   47.2649 H   0  0  0  0  0  0  0  0  0  0  0  0
   59.4829   34.4807   48.9932 H   0  0  0  0  0  0  0  0  0  0  0  0
   61.6597   34.3945   50.3135 H   0  0  0  0  0  0  0  0  0  0  0  0
   64.1998   33.8943   50.0093 H   0  0  0  0  0  0  0  0  0  0  0  0
   64.8257   33.2071   47.5429 H   0  0  0  0  0  0  0  0  0  0  0  0
  1  2  1  0
  2  3  2  0
  3  4  1  0
  4  5  1  0
  5  6  2  0
  5  7  1  0
  7  8  1  0
  8  9  1  0
  9 10  2  0
  9 11  1  0
 11 12  2  0
 12 13  1  0
 13 14  2  0
 14 15  1  0
 15 16  2  0
 16 17  1  0
 17 18  2  0
  4 19  2  0
 19 20  1  0
 19 21  1  0
 21 22  1  0
 22 23  1  0
 23 24  2  0
 24 25  1  0
 25 26  2  0
 26 27  1  0
 21  2  1  0
 27 23  1  0
 17  8  1  0
 16 11  1  0
  1 28  1  0
  1 29  1  0
  1 30  1  0
  3 31  1  0
  7 32  1  0
  7 33  1  0
  8 34  1  0
 12 35  1  0
 13 36  1  0
 14 37  1  0
 15 38  1  0
 20 39  1  0
 20 40  1  0
 20 41  1  0
 22 42  1  0
 22 43  1  0
 24 44  1  0
 25 45  1  0
 26 46  1  0
M  CHG  1   8   1
M  END
>  <UniqueID>  (35) 
31

>  <SMILES>  (35) 
Cc1cc(C(=O)C[NH+]2C(=O)c3ccccc3C2=O)c(C)n1Cc1cccs1

>  <Energy>  (35) 
128.3597029817743

>  <Genealogy>  (35) 
Cc1cc(C(=O)C[NH+]2C(=O)c3ccccc3C2=O)c(C)n1Cc1cccs1 (protonated)
Cc1cc(C(=O)C[NH+]2C(=O)c3ccccc3C2=O)c(C)n1Cc1cccs1 (3D coordinates assigned)
Cc1cc(C(=O)C[NH+]2C(=O)c3ccccc3C2=O)c(C)n1Cc1cccs1 (nonaromatic ring conformer: 128.3597029817743 kcal/mol)

>  <smiles>  (35) 
Cc1cc(C(=O)CN2C(=O)c3ccccc3C2=O)c(C)n1Cc1cccs1

>  <score_type>  (35) 
oracle

>  <origin>  (35) 
adg

>  <m_score__min__energy>  (35) 
-7.6600000000000001

>  <m_primary>  (35) 
energy

$$$$
35:0
     RDKit          3D

 46 48  0  0  0  0  0  0  0  0999 V2000
   55.8880   24.0990   44.4700 C   0  0  0  0  0  0  0  0  0  0  0  0
   56.9070   24.8860   45.1670 N   0  0  0  0  0  0  0  0  0  0  0  0
   58.1320   24.2230   45.6260 C   0  0  0  0  0  0  0  0  0  0  0  0
   56.5670   26.1890   45.6770 C   0  0  0  0  0  0  0  0  0  0  0  0
   55.3720   26.4390   45.9980 O   0  0  0  0  0  0  0  0  0  0  0  0
   57.5880   27.2470   45.8400 C   0  0  0  0  0  0  0  0  0  0  0  0
   58.1330   27.5110   47.1060 C   0  0  0  0  0  0  0  0  0  0  0  0
   59.0780   28.5270   47.2700 C   0  0  0  0  0  0  0  0  0  0  0  0
   59.4820   29.3100   46.1750 C   0  0  0  0  0  0  0  0  0  0  0  0
   60.5260   30.3920   46.3660 C   0  0  0  0  0  0  0  0  0  0  0  0
   60.0600   31.6040   47.0900 N   0  0  1  0  0  0  0  0  0  0  0  0
   60.9670   32.7900   46.9190 C   0  0  0  0  0  0  0  0  0  0  0  0
   60.1560   34.0910   46.7100 C   0  0  2  0  0  0  0  0  0  0  0  0
   59.1640   34.2190   47.8970 C   0  0  0  0  0  0  0  0  0  0  0  0
   58.2150   32.9790   47.9610 C   0  0  0  0  0  0  0  0  0  0  0  0
   58.6230   31.9620   46.8600 C   0  0  1  0  0  0  0  0  0  0  0  0
   58.4890   32.6780   45.5750 N   0  0  0  0  0  0  0  0  0  0  0  0
   57.4090   32.4310   44.6230 C   0  0  0  0  0  0  0  0  0  0  0  0
   59.3240   33.8380   45.4910 C   0  0  0  0  0  0  0  0  0  0  0  0
   59.3410   34.5900   44.4800 O   0  0  0  0  0  0  0  0  0  0  0  0
   58.9440   29.0360   44.9070 C   0  0  0  0  0  0  0  0  0  0  0  0
   57.9940   28.0250   44.7450 C   0  0  0  0  0  0  0  0  0  0  0  0
   55.2421   23.6001   45.2075 H   0  0  0  0  0  0  0  0  0  0  0  0
   55.2792   24.7636   43.8394 H   0  0  0  0  0  0  0  0  0  0  0  0
   56.3772   23.3420   43.8394 H   0  0  0  0  0  0  0  0  0  0  0  0
   58.1528   24.2117   46.7257 H   0  0  0  0  0  0  0  0  0  0  0  0
   58.1535   23.1901   45.2483 H   0  0  0  0  0  0  0  0  0  0  0  0
   59.0085   24.7699   45.2483 H   0  0  0  0  0  0  0  0  0  0  0  0
   57.8145   26.9149   47.9738 H   0  0  0  0  0  0  0  0  0  0  0  0
   59.5093   28.7156   48.2642 H   0  0  0  0  0  0  0  0  0  0  0  0
   61.3642   29.9594   46.9320 H   0  0  0  0  0  0  0  0  0  0  0  0
   60.8032   30.7288   45.3562 H   0  0  0  0  0  0  0  0  0  0  0  0
   60.1340   31.3350   48.1020 H   0  0  0  0  0  0  0  0  0  0  0  0
   61.5908   32.8970   47.8187 H   0  0  0  0  0  0  0  0  0  0  0  0
   61.5928   32.6238   46.0298 H   0  0  0  0  0  0  0  0  0  0  0  0
   60.7988   34.9799   46.6278 H   0  0  0  0  0  0  0  0  0  0  0  0
   59.7321   34.2876   48.8364 H   0  0  0  0  0  0  0  0  0  0  0  0
   58.5546   35.1232   47.7522 H   0  0  0  0  0  0  0  0  0  0  0  0
   58.2982   32.5034   48.9494 H   0  0  0  0  0  0  0  0  0  0  0  0
   57.1761   33.3016   47.7975 H   0  0  0  0  0  0  0  0  0  0  0  0
   58.0093   31.0492   46.8678 H   0  0  0  0  0  0  0  0  0  0  0  0
   56.4790   32.2183   45.1706 H   0  0  0  0  0  0  0  0  0  0  0  0
   57.2671   33.3199   43.9907 H   0  0  0  0  0  0  0  0  0  0  0  0
   57.6676   31.5688   43.9907 H   0  0  0  0  0  0  0  0  0  0  0  0
   59.2729   29.6214   44.0357 H   0  0  0  0  0  0  0  0  0  0  0  0
   57.5608   27.8372   43.7515 H   0  0  0  0  0  0  0  0  0  0  0  0
  1  2  1  0
  2  3  1  0
  2  4  1  0
  4  5  2  0
  4  6  1  0
  6  7  2  0
  7  8  1  0
  8  9  2  0
  9 10  1  0
 10 11  1  0
 11 12  1  0
 12 13  1  0
 13 14  1  0
 14 15  1  0
 15 16  1  0
 16 17  1  0
 17 18  1  0
 17 19  1  0
 19 20  2  0
  9 21  1  0
 21 22  2  0
 22  6  1  0
 16 11  1  0
 19 13  1  0
  1 23  1  0
  1 24  1  0
  1 25  1  0
  3 26  1  0
  3 27  1  0
  3 28  1  0
  7 29  1  0
  8 30  1  0
 10 31  1  0
 10 32  1  0
 11 33  1  1
 12 34  1  0
 12 35  1  0
 13 36  1  6
 14 37  1  0
 14 38  1  0
 15 39  1  0
 15 40  1  0
 16 41  1  6
 18 42  1  0
 18 43  1  0
 18 44  1  0
 21 45  1  0
 22 46  1  0
M  CHG  1  11   1
M  END
>  <UniqueID>  (36) 
32

>  <SMILES>  (36) 
CN(C)C(=O)c1ccc(C[N@H+]2C[C@@H]3CCC2N(C)C3=O)cc1

>  <Energy>  (36) 
72.61323637847207

>  <Genealogy>  (36) 
CN(C)C(=O)c1ccc(C[NH+]2CC3CCC2N(C)C3=O)cc1 (protonated)
CN(C)C(=O)c1ccc(C[N@H+]2C[C@@H]3CCC2N(C)C3=O)cc1 (chirality)
CN(C)C(=O)c1ccc(C[N@H+]2C[C@@H]3CCC2N(C)C3=O)cc1 (3D coordinates assigned)
CN(C)C(=O)c1ccc(C[N@H+]2C[C@@H]3CCC2N(C)C3=O)cc1 (nonaromatic ring conformer: 72.61323637847207 kcal/mol)

>  <smiles>  (36) 
CN(C)C(=O)c1ccc(CN2CC3CCC2N(C)C3=O)cc1

>  <score_type>  (36) 
oracle

>  <origin>  (36) 
adg

>  <m_score__min__energy>  (36) 
-5.7699999999999996

>  <m_primary>  (36) 
energy

$$$$
36:0
     RDKit          3D

 39 41  0  0  1  0  0  0  0  0999 V2000
   57.4900   32.3410   41.0600 C   0  0  0  0  0  0  0  0  0  0  0  0
   57.9980   32.2830   42.4890 C   0  0  0  0  0  0  0  0  0  0  0  0
   57.5300   31.0620   43.1030 N   0  0  0  0  0  0  0  0  0  0  0  0
   56.8490   31.0750   44.3780 C   0  0  0  0  0  0  0  0  0  0  0  0
   56.6330   32.1170   45.0070 O   0  0  0  0  0  0  0  0  0  0  0  0
   56.4390   29.8060   44.8650 N   0  0  0  0  0  0  0  0  0  0  0  0
   57.2250   29.0310   45.5190 C   0  0  0  0  0  0  0  0  0  0  0  0
   58.1490   29.5200   46.4570 C   0  0  0  0  0  0  0  0  0  0  0  0
   58.9230   28.5970   47.0820 C   0  0  0  0  0  0  0  0  0  0  0  0
   59.8460   29.0000   48.0070 C   0  0  0  0  0  0  0  0  0  0  0  0
   60.0050   30.1750   48.2910 N   0  0  0  0  0  0  0  0  0  0  0  0
   60.5860   31.2650   47.7340 C   0  0  0  0  0  0  0  0  0  0  0  0
   61.9600   31.5630   47.9220 C   0  0  0  0  0  0  0  0  0  0  0  0
   62.4040   32.7610   47.4050 C   0  0  0  0  0  0  0  0  0  0  0  0
   61.6070   33.6540   46.7380 C   0  0  0  0  0  0  0  0  0  0  0  0
   60.2900   33.3690   46.5560 C   0  0  0  0  0  0  0  0  0  0  0  0
   59.1730   34.6190   45.6220 Br  0  0  0  0  0  0  0  0  0  0  0  0
   59.7840   32.2040   47.0410 C   0  0  0  0  0  0  0  0  0  0  0  0
   60.6180   28.0640   48.6320 N   0  0  0  0  0  0  0  0  0  0  0  0
   60.5340   26.7510   48.3950 C   0  0  0  0  0  0  0  0  0  0  0  0
   59.6250   26.3510   47.4820 N   0  0  0  0  0  0  0  0  0  0  0  0
   58.8370   27.2480   46.8400 C   0  0  0  0  0  0  0  0  0  0  0  0
   57.9260   26.8030   45.9200 C   0  0  0  0  0  0  0  0  0  0  0  0
   57.1690   27.7230   45.3100 N   0  0  0  0  0  0  0  0  0  0  0  0
   56.3971   32.4658   41.0642 H   0  0  0  0  0  0  0  0  0  0  0  0
   57.9542   33.1920   40.5401 H   0  0  0  0  0  0  0  0  0  0  0  0
   57.7505   31.4073   40.5401 H   0  0  0  0  0  0  0  0  0  0  0  0
   59.0979   32.2991   42.4908 H   0  0  0  0  0  0  0  0  0  0  0  0
   57.6244   33.1505   43.0528 H   0  0  0  0  0  0  0  0  0  0  0  0
   57.6880   30.1310   42.6100 H   0  0  0  0  0  0  0  0  0  0  0  0
   58.2405   30.5946   46.6736 H   0  0  0  0  0  0  0  0  0  0  0  0
   62.6350   30.8749   48.4520 H   0  0  0  0  0  0  0  0  0  0  0  0
   63.4658   33.0165   47.5362 H   0  0  0  0  0  0  0  0  0  0  0  0
   62.0292   34.5939   46.3529 H   0  0  0  0  0  0  0  0  0  0  0  0
   58.7169   31.9837   46.8902 H   0  0  0  0  0  0  0  0  0  0  0  0
   61.3420   28.3510   49.3540 H   0  0  0  0  0  0  0  0  0  0  0  0
   61.1769   26.0296   48.9206 H   0  0  0  0  0  0  0  0  0  0  0  0
   57.8204   25.7322   45.6913 H   0  0  0  0  0  0  0  0  0  0  0  0
   56.4820   27.3800   44.6160 H   0  0  0  0  0  0  0  0  0  0  0  0
  1  2  1  0
  2  3  1  0
  3  4  1  0
  4  5  2  0
  4  6  1  0
  6  7  2  0
  7  8  1  0
  8  9  2  0
  9 10  1  0
 10 11  2  0
 11 12  1  0
 12 13  2  0
 13 14  1  0
 14 15  2  0
 15 16  1  0
 16 17  1  0
 16 18  2  0
 10 19  1  0
 19 20  1  0
 20 21  2  0
 21 22  1  0
 22 23  2  0
 23 24  1  0
 24  7  1  0
 22  9  1  0
 18 12  1  0
  1 25  1  0
  1 26  1  0
  1 27  1  0
  2 28  1  0
  2 29  1  0
  3 30  1  0
  8 31  1  0
 13 32  1  0
 14 33  1  0
 15 34  1  0
 18 35  1  0
 19 36  1  0
 20 37  1  0
 23 38  1  0
 24 39  1  0
M  END
>  <smiles>  (37) 
CCNC(=O)N=c1cc2c(=Nc3cccc(Br)c3)[nH]cnc2c[nH]1

>  <score_type>  (37) 
oracle

>  <origin>  (37) 
adg

>  <m_score__min__energy>  (37) 
-8.4299999999999997

>  <m_primary>  (37) 
energy

$$$$
37:0
     RDKit          3D

 70 72  0  0  0  0  0  0  0  0999 V2000
   60.7700   27.6090   48.7020 H   0  0  0  0  0  0  0  0  0  0  0  0
   60.6340   27.2440   47.7300 N   0  0  0  0  0  0  0  0  0  0  0  0
   59.5400   27.3950   47.0490 C   0  0  0  0  0  0  0  0  0  0  0  0
   59.3660   28.5890   46.4420 N   0  0  0  0  0  0  0  0  0  0  0  0
   58.3980   29.1590   45.6890 C   0  0  0  0  0  0  0  0  0  0  0  0
   58.6700   30.4730   45.2670 C   0  0  0  0  0  0  0  0  0  0  0  0
   59.6293   30.9339   45.5450 H   0  0  0  0  0  0  0  0  0  0  0  0
   57.7580   31.2130   44.5040 C   0  0  0  0  0  0  0  0  0  0  0  0
   58.0780   32.6090   44.1090 C   0  0  0  0  0  0  0  0  0  0  0  0
   58.4950   32.8390   42.9390 O   0  0  0  0  0  0  0  0  0  0  0  0
   57.9000   33.7040   45.0240 N   0  0  0  0  0  0  0  0  0  0  0  0
   57.3670   33.5530   45.9070 H   0  0  0  0  0  0  0  0  0  0  0  0
   58.5960   34.9800   44.8460 C   0  0  0  0  0  0  0  0  0  0  0  0
   59.1268   34.9688   43.8826 H   0  0  0  0  0  0  0  0  0  0  0  0
   57.8525   35.7904   44.8672 H   0  0  0  0  0  0  0  0  0  0  0  0
   59.6070   35.2160   45.9720 C   0  0  0  0  0  0  0  0  0  0  0  0
   60.5829   35.4668   45.5307 H   0  0  0  0  0  0  0  0  0  0  0  0
   59.2408   36.0412   46.6004 H   0  0  0  0  0  0  0  0  0  0  0  0
   59.7590   33.9910   46.8360 C   0  0  0  0  0  0  0  0  0  0  0  0
   60.8070   33.0920   46.6010 C   0  0  0  0  0  0  0  0  0  0  0  0
   61.5095   33.2747   45.7745 H   0  0  0  0  0  0  0  0  0  0  0  0
   60.9650   31.9640   47.4110 C   0  0  0  0  0  0  0  0  0  0  0  0
   61.7870   31.2611   47.2103 H   0  0  0  0  0  0  0  0  0  0  0  0
   60.0820   31.7170   48.4830 C   0  0  0  0  0  0  0  0  0  0  0  0
   60.2400   30.5410   49.3180 N   0  0  0  0  0  0  0  0  0  0  0  0
   61.5440   30.2170   49.9100 C   0  0  0  0  0  0  0  0  0  0  0  0
   61.4638   30.2369   51.0069 H   0  0  0  0  0  0  0  0  0  0  0  0
   61.8560   29.2140   49.5833 H   0  0  0  0  0  0  0  0  0  0  0  0
   62.2891   30.9573   49.5833 H   0  0  0  0  0  0  0  0  0  0  0  0
   59.0950   29.6680   49.6000 C   0  0  0  0  0  0  0  0  0  0  0  0
   58.9674   29.5707   50.6882 H   0  0  0  0  0  0  0  0  0  0  0  0
   58.1850   30.1036   49.1616 H   0  0  0  0  0  0  0  0  0  0  0  0
   59.2742   28.6752   49.1616 H   0  0  0  0  0  0  0  0  0  0  0  0
   59.0420   32.6370   48.7200 C   0  0  0  0  0  0  0  0  0  0  0  0
   58.3472   32.4688   49.5560 H   0  0  0  0  0  0  0  0  0  0  0  0
   58.8830   33.7610   47.9050 C   0  0  0  0  0  0  0  0  0  0  0  0
   58.0653   34.4693   48.1039 H   0  0  0  0  0  0  0  0  0  0  0  0
   56.5370   30.6230   44.1700 C   0  0  0  0  0  0  0  0  0  0  0  0
   55.7971   31.1913   43.5872 H   0  0  0  0  0  0  0  0  0  0  0  0
   56.2500   29.3220   44.5690 C   0  0  0  0  0  0  0  0  0  0  0  0
   55.2853   28.8760   44.2854 H   0  0  0  0  0  0  0  0  0  0  0  0
   57.1640   28.5570   45.3290 C   0  0  0  0  0  0  0  0  0  0  0  0
   56.7460   27.2590   45.6540 C   0  0  0  0  0  0  0  0  0  0  0  0
   55.7458   26.9893   45.2840 H   0  0  0  0  0  0  0  0  0  0  0  0
   57.3970   26.2530   46.3730 C   0  0  0  0  0  0  0  0  0  0  0  0
   56.6560   24.9800   46.5470 C   0  0  0  0  0  0  0  0  0  0  0  0
   56.1010   24.7530   47.6600 O   0  0  0  0  0  0  0  0  0  0  0  0
   56.5260   24.0180   45.4720 N   0  0  0  0  0  0  0  0  0  0  0  0
   55.3960   23.0790   45.4800 C   0  0  0  0  0  0  0  0  0  0  0  0
   55.7424   22.0905   45.1440 H   0  0  0  0  0  0  0  0  0  0  0  0
   54.9946   23.0084   46.5017 H   0  0  0  0  0  0  0  0  0  0  0  0
   54.2920   23.5740   44.5420 C   0  0  0  0  0  0  0  0  0  0  0  0
   54.7483   24.1556   43.7274 H   0  0  0  0  0  0  0  0  0  0  0  0
   53.7571   22.6990   44.1441 H   0  0  0  0  0  0  0  0  0  0  0  0
   53.2900   24.4550   45.2800 C   0  0  0  0  0  0  0  0  0  0  0  0
   53.4260   24.3354   46.3650 H   0  0  0  0  0  0  0  0  0  0  0  0
   53.4536   25.5071   45.0037 H   0  0  0  0  0  0  0  0  0  0  0  0
   52.2675   24.1581   45.0037 H   0  0  0  0  0  0  0  0  0  0  0  0
   57.5220   23.9410   44.3920 C   0  0  0  0  0  0  0  0  0  0  0  0
   58.4632   24.3945   44.7363 H   0  0  0  0  0  0  0  0  0  0  0  0
   57.6792   22.8838   44.1319 H   0  0  0  0  0  0  0  0  0  0  0  0
   57.0330   24.6840   43.1490 C   0  0  0  0  0  0  0  0  0  0  0  0
   57.2064   24.0552   42.2633 H   0  0  0  0  0  0  0  0  0  0  0  0
   55.9604   24.8965   43.2687 H   0  0  0  0  0  0  0  0  0  0  0  0
   57.7720   26.0070   42.9730 C   0  0  0  0  0  0  0  0  0  0  0  0
   58.0080   26.4294   43.9609 H   0  0  0  0  0  0  0  0  0  0  0  0
   58.7046   25.8348   42.4156 H   0  0  0  0  0  0  0  0  0  0  0  0
   57.1363   26.7107   42.4156 H   0  0  0  0  0  0  0  0  0  0  0  0
   58.6340   26.3350   47.0060 C   0  0  0  0  0  0  0  0  0  0  0  0
   58.9424   25.4315   47.5525 H   0  0  0  0  0  0  0  0  0  0  0  0
  1  2  1  0
  2  3  2  0
  3  4  1  0
  4  5  2  0
  5  6  1  0
  6  7  1  0
  6  8  2  0
  8  9  1  0
  9 10  2  0
  9 11  1  0
 11 12  1  0
 11 13  1  0
 13 14  1  0
 13 15  1  0
 13 16  1  0
 16 17  1  0
 16 18  1  0
 16 19  1  0
 19 20  2  0
 20 21  1  0
 20 22  1  0
 22 23  1  0
 22 24  2  0
 24 25  1  0
 25 26  1  0
 26 27  1  0
 26 28  1  0
 26 29  1  0
 25 30  1  0
 30 31  1  0
 30 32  1  0
 30 33  1  0
 24 34  1  0
 34 35  1  0
 34 36  2  0
 36 37  1  0
  8 38  1  0
 38 39  1  0
 38 40  2  0
 40 41  1  0
 40 42  1  0
 42 43  2  0
 43 44  1  0
 43 45  1  0
 45 46  1  0
 46 47  2  0
 46 48  1  0
 48 49  1  0
 49 50  1  0
 49 51  1  0
 49 52  1  0
 52 53  1  0
 52 54  1  0
 52 55  1  0
 55 56  1  0
 55 57  1  0
 55 58  1  0
 48 59  1  0
 59 60  1  0
 59 61  1  0
 59 62  1  0
 62 63  1  0
 62 64  1  0
 62 65  1  0
 65 66  1  0
 65 67  1  0
 65 68  1  0
 45 69  2  0
 69 70  1  0
 69  3  1  0
 42  5  1  0
 36 19  1  0
M  END
>  <UniqueID>  (38) 
33

>  <SMILES>  (38) 
[H]/N=c1\cc(C(=O)N(CCC)CCC)cc2ccc(C(=O)NCCc3ccc(N(C)C)cc3)cc2n1

>  <Energy>  (38) 
92.81876016183742

>  <Genealogy>  (38) 
[H]/N=c1\cc(C(=O)N(CCC)CCC)cc2ccc(C(=O)NCCc3ccc(N(C)C)cc3)cc2n1 (cis-trans isomerization)
[H]/N=c1\cc(C(=O)N(CCC)CCC)cc2ccc(C(=O)NCCc3ccc(N(C)C)cc3)cc2n1 (3D coordinates assigned)
[H]/N=c1\cc(C(=O)N(CCC)CCC)cc2ccc(C(=O)NCCc3ccc(N(C)C)cc3)cc2n1 (optimized conformer: 92.81876016183742 kcal/mol)

>  <smiles>  (38) 
CCCN(CCC)C(=O)c1cc(=N)nc2cc(C(=O)NCCc3ccc(N(C)C)cc3)ccc2c1

>  <score_type>  (38) 
oracle

>  <origin>  (38) 
adg

>  <m_score__min__energy>  (38) 
-9.0700000000000003

>  <m_primary>  (38) 
energy

$$$$
38:0
     RDKit          3D

 41 43  0  0  0  0  0  0  0  0999 V2000
   60.0820   28.5950   46.2430 C   0  0  0  0  0  0  0  0  0  0  0  0
   58.8610   29.3150   45.7300 C   0  0  0  0  0  0  0  0  0  0  0  0
   58.9280   30.7050   45.5500 C   0  0  0  0  0  0  0  0  0  0  0  0
   57.7960   31.4220   45.1210 C   0  0  0  0  0  0  0  0  0  0  0  0
   57.8250   32.8580   44.9350 N   0  0  0  0  0  0  0  0  0  0  0  0
   57.2360   33.7200   45.9650 C   0  0  0  0  0  0  0  0  0  0  0  0
   58.4290   33.4620   43.7410 C   0  0  0  0  0  0  0  0  0  0  0  0
   56.6430   30.7400   44.8810 N   0  0  0  0  0  0  0  0  0  0  0  0
   56.5450   29.3940   45.0260 C   0  0  0  0  0  0  0  0  0  0  0  0
   57.6540   28.6370   45.4290 C   0  0  0  0  0  0  0  0  0  0  0  0
   57.5040   27.1690   45.5340 C   0  0  0  0  0  0  0  0  0  0  0  0
   57.3980   26.5160   46.7100 N   0  0  0  0  0  0  0  0  0  0  0  0
   57.2230   25.2400   46.4060 N   0  0  0  0  0  0  0  0  0  0  0  0
   57.0270   24.1970   47.4090 C   0  0  0  0  0  0  0  0  0  0  0  0
   57.2210   25.1230   45.0590 C   0  0  0  0  0  0  0  0  0  0  0  0
   57.0240   23.8730   44.2930 C   0  0  0  0  0  0  0  0  0  0  0  0
   56.0260   23.7730   43.3120 C   0  0  0  0  0  0  0  0  0  0  0  0
   55.8570   22.5710   42.6200 C   0  0  0  0  0  0  0  0  0  0  0  0
   56.6480   21.5030   42.9040 N   0  0  0  0  0  0  0  0  0  0  0  0
   57.6140   21.5660   43.8580 C   0  0  0  0  0  0  0  0  0  0  0  0
   57.8150   22.7490   44.5740 C   0  0  0  0  0  0  0  0  0  0  0  0
   57.3770   26.3310   44.4840 N   0  0  0  0  0  0  0  0  0  0  0  0
   60.0750   28.5991   47.3430 H   0  0  0  0  0  0  0  0  0  0  0  0
   60.0748   27.5566   45.8802 H   0  0  0  0  0  0  0  0  0  0  0  0
   60.9872   29.1039   45.8802 H   0  0  0  0  0  0  0  0  0  0  0  0
   59.8708   31.2370   45.7454 H   0  0  0  0  0  0  0  0  0  0  0  0
   57.4997   33.3341   46.9608 H   0  0  0  0  0  0  0  0  0  0  0  0
   57.6248   34.7429   45.8534 H   0  0  0  0  0  0  0  0  0  0  0  0
   56.1417   33.7295   45.8534 H   0  0  0  0  0  0  0  0  0  0  0  0
   59.1763   34.2093   44.0462 H   0  0  0  0  0  0  0  0  0  0  0  0
   58.9167   32.6796   43.1411 H   0  0  0  0  0  0  0  0  0  0  0  0
   57.6466   33.9497   43.1411 H   0  0  0  0  0  0  0  0  0  0  0  0
   55.5867   28.8926   44.8255 H   0  0  0  0  0  0  0  0  0  0  0  0
   57.1093   24.6352   48.4146 H   0  0  0  0  0  0  0  0  0  0  0  0
   56.0293   23.7509   47.2840 H   0  0  0  0  0  0  0  0  0  0  0  0
   57.7947   23.4192   47.2840 H   0  0  0  0  0  0  0  0  0  0  0  0
   55.3807   24.6355   43.0891 H   0  0  0  0  0  0  0  0  0  0  0  0
   55.0820   22.4890   41.8437 H   0  0  0  0  0  0  0  0  0  0  0  0
   58.2383   20.6847   44.0667 H   0  0  0  0  0  0  0  0  0  0  0  0
   58.5893   22.7987   45.3538 H   0  0  0  0  0  0  0  0  0  0  0  0
   57.3680   26.5590   43.4670 H   0  0  0  0  0  0  0  0  0  0  0  0
  1  2  1  0
  2  3  2  0
  3  4  1  0
  4  5  1  0
  5  6  1  0
  5  7  1  0
  4  8  2  0
  8  9  1  0
  9 10  2  0
 10 11  1  0
 11 12  2  0
 12 13  1  0
 13 14  1  0
 13 15  1  0
 15 16  1  0
 16 17  2  0
 17 18  1  0
 18 19  2  0
 19 20  1  0
 20 21  2  0
 15 22  2  0
 10  2  1  0
 22 11  1  0
 21 16  1  0
  1 23  1  0
  1 24  1  0
  1 25  1  0
  3 26  1  0
  6 27  1  0
  6 28  1  0
  6 29  1  0
  7 30  1  0
  7 31  1  0
  7 32  1  0
  9 33  1  0
 14 34  1  0
 14 35  1  0
 14 36  1  0
 17 37  1  0
 18 38  1  0
 20 39  1  0
 21 40  1  0
 22 41  1  0
M  CHG  1  22   1
M  END
>  <UniqueID>  (39) 
34

>  <SMILES>  (39) 
Cc1cc(N(C)C)ncc1-c1nn(C)c(-c2ccncc2)[nH+]1

>  <Energy>  (39) 
87.71228698494632

>  <Genealogy>  (39) 
Cc1cc(N(C)C)ncc1-c1nn(C)c(-c2ccncc2)[nH+]1 (protonated)
Cc1cc(N(C)C)ncc1-c1nn(C)c(-c2ccncc2)[nH+]1 (3D coordinates assigned)
Cc1cc(N(C)C)ncc1-c1nn(C)c(-c2ccncc2)[nH+]1 (optimized conformer: 87.71228698494632 kcal/mol)

>  <smiles>  (39) 
Cc1cc(N(C)C)ncc1-c1nc(-c2ccncc2)n(C)n1

>  <score_type>  (39) 
oracle

>  <origin>  (39) 
adg

>  <m_score__min__energy>  (39) 
-5.6500000000000004

>  <m_primary>  (39) 
energy

$$$$
39:0
     RDKit          3D

 35 38  0  0  0  0  0  0  0  0999 V2000
   56.3910   30.8580   42.0930 F   0  0  0  0  0  0  0  0  0  0  0  0
   56.2890   29.8270   43.0100 C   0  0  0  0  0  0  0  0  0  0  0  0
   56.7260   28.6550   42.4230 F   0  0  0  0  0  0  0  0  0  0  0  0
   54.9570   29.6820   43.3580 F   0  0  0  0  0  0  0  0  0  0  0  0
   57.1440   30.1320   44.2160 C   0  0  0  0  0  0  0  0  0  0  0  0
   57.5900   31.4380   44.5140 C   0  0  0  0  0  0  0  0  0  0  0  0
   58.3680   31.6800   45.6730 C   0  0  0  0  0  0  0  0  0  0  0  0
   58.8570   33.0310   46.0220 C   0  0  0  0  0  0  0  0  0  0  0  0
   59.1360   33.5330   47.2930 C   0  0  0  0  0  0  0  0  0  0  0  0
   59.5850   34.8600   47.2800 C   0  0  0  0  0  0  0  0  0  0  0  0
   59.6650   35.4130   46.0090 C   0  0  0  0  0  0  0  0  0  0  0  0
   59.1740   34.2490   44.9020 S   0  0  0  0  0  0  0  0  0  0  0  0
   58.6710   30.6350   46.4970 N   0  0  0  0  0  0  0  0  0  0  0  0
   58.2370   29.4170   46.1960 N   0  0  0  0  0  0  0  0  0  0  0  0
   58.4070   28.2810   46.8790 C   0  0  0  0  0  0  0  0  0  0  0  0
   57.7480   27.2960   46.1590 C   0  0  0  0  0  0  0  0  0  0  0  0
   57.5940   25.8700   46.5780 C   0  0  0  0  0  0  0  0  0  0  0  0
   57.4710   25.0210   45.3980 N   0  0  0  0  0  0  0  0  0  0  0  0
   57.6310   23.6840   45.3630 C   0  0  0  0  0  0  0  0  0  0  0  0
   57.3450   23.2550   44.0820 C   0  0  0  0  0  0  0  0  0  0  0  0
   57.3820   21.4630   43.4330 Br  0  0  0  0  0  0  0  0  0  0  0  0
   57.0010   24.3910   43.3760 C   0  0  0  0  0  0  0  0  0  0  0  0
   57.0830   25.4470   44.2070 N   0  0  0  0  0  0  0  0  0  0  0  0
   57.1600   27.8220   45.0530 N   0  0  0  0  0  0  0  0  0  0  0  0
   57.4990   29.1270   45.1190 C   0  0  0  0  0  0  0  0  0  0  0  0
   57.3323   32.2711   43.8435 H   0  0  0  0  0  0  0  0  0  0  0  0
   59.0154   32.9450   48.2148 H   0  0  0  0  0  0  0  0  0  0  0  0
   59.8499   35.4131   48.1932 H   0  0  0  0  0  0  0  0  0  0  0  0
   59.9928   36.4352   45.7688 H   0  0  0  0  0  0  0  0  0  0  0  0
   58.9585   28.1531   47.8221 H   0  0  0  0  0  0  0  0  0  0  0  0
   58.4758   25.5625   47.1593 H   0  0  0  0  0  0  0  0  0  0  0  0
   56.6898   25.7677   47.1961 H   0  0  0  0  0  0  0  0  0  0  0  0
   57.9357   23.0465   46.2060 H   0  0  0  0  0  0  0  0  0  0  0  0
   56.7098   24.4269   42.3159 H   0  0  0  0  0  0  0  0  0  0  0  0
   56.8630   26.4400   43.9670 H   0  0  0  0  0  0  0  0  0  0  0  0
  1  2  1  0
  2  3  1  0
  2  4  1  0
  2  5  1  0
  5  6  2  0
  6  7  1  0
  7  8  1  0
  8  9  2  0
  9 10  1  0
 10 11  2  0
 11 12  1  0
  7 13  2  0
 13 14  1  0
 14 15  1  0
 15 16  2  0
 16 17  1  0
 17 18  1  0
 18 19  1  0
 19 20  2  0
 20 21  1  0
 20 22  1  0
 22 23  2  0
 16 24  1  0
 24 25  2  0
 25  5  1  0
 12  8  1  0
 25 14  1  0
 23 18  1  0
  6 26  1  0
  9 27  1  0
 10 28  1  0
 11 29  1  0
 15 30  1  0
 17 31  1  0
 17 32  1  0
 19 33  1  0
 22 34  1  0
 23 35  1  0
M  CHG  1  23   1
M  END
>  <UniqueID>  (40) 
35

>  <SMILES>  (40) 
FC(F)(F)c1cc(-c2cccs2)nn2cc(Cn3cc(Br)c[nH+]3)nc12

>  <Energy>  (40) 
130.85109640732657

>  <Genealogy>  (40) 
FC(F)(F)c1cc(-c2cccs2)nn2cc(Cn3cc(Br)c[nH+]3)nc12 (protonated)
FC(F)(F)c1cc(-c2cccs2)nn2cc(Cn3cc(Br)c[nH+]3)nc12 (3D coordinates assigned)
FC(F)(F)c1cc(-c2cccs2)nn2cc(Cn3cc(Br)c[nH+]3)nc12 (optimized conformer: 130.85109640732657 kcal/mol)

>  <smiles>  (40) 
FC(F)(F)c1cc(-c2cccs2)nn2cc(Cn3cc(Br)cn3)nc12

>  <score_type>  (40) 
oracle

>  <origin>  (40) 
adg

>  <m_score__min__energy>  (40) 
-6.2999999999999998

>  <m_primary>  (40) 
energy

$$$$
40:0
     RDKit          3D

 59 63  0  0  0  0  0  0  0  0999 V2000
   58.5530   34.5900   45.0460 C   0  0  0  0  0  0  0  0  0  0  0  0
   57.6020   33.5100   45.5590 C   0  0  0  0  0  0  0  0  0  0  0  0
   57.3570   32.4070   44.5300 C   0  0  0  0  0  0  0  0  0  0  0  0
   57.1280   31.1550   45.1800 O   0  0  0  0  0  0  0  0  0  0  0  0
   57.7240   29.9460   44.7860 C   0  0  0  0  0  0  0  0  0  0  0  0
   57.2010   29.1800   43.7230 C   0  0  0  0  0  0  0  0  0  0  0  0
   57.7850   27.9590   43.3740 C   0  0  0  0  0  0  0  0  0  0  0  0
   58.8900   27.4810   44.0820 C   0  0  0  0  0  0  0  0  0  0  0  0
   59.4150   28.2260   45.1390 C   0  0  0  0  0  0  0  0  0  0  0  0
   58.8500   29.4670   45.4880 C   0  0  0  0  0  0  0  0  0  0  0  0
   59.4030   30.2010   46.6420 C   0  0  0  0  0  0  0  0  0  0  0  0
   59.6260   29.6200   47.8360 N   0  0  0  0  0  0  0  0  0  0  0  0
   60.1420   30.5530   48.5700 O   0  0  0  0  0  0  0  0  0  0  0  0
   60.2580   31.6550   47.8720 C   0  0  0  0  0  0  0  0  0  0  0  0
   60.8240   32.9380   48.4240 C   0  0  1  0  0  0  0  0  0  0  0  0
   60.5870   34.1110   47.5130 C   0  0  0  0  0  0  0  0  0  0  0  0
   59.7420   34.5970   48.6460 C   0  0  0  0  0  0  0  0  0  0  0  0
   60.0170   33.4630   49.5490 N   0  0  0  0  0  0  0  0  0  0  0  0
   59.7670   33.1870   50.9320 C   0  0  0  0  0  0  0  0  0  0  0  0
   60.3430   33.8830   51.8120 O   0  0  0  0  0  0  0  0  0  0  0  0
   58.8620   32.0960   51.3430 C   0  0  0  0  0  0  0  0  0  0  0  0
   57.5020   32.3860   51.5310 C   0  0  0  0  0  0  0  0  0  0  0  0
   56.6070   31.3860   51.9200 C   0  0  0  0  0  0  0  0  0  0  0  0
   57.0570   30.0680   52.1100 C   0  0  0  0  0  0  0  0  0  0  0  0
   56.1970   29.0220   52.4840 O   0  0  0  0  0  0  0  0  0  0  0  0
   54.8490   29.2010   52.9110 C   0  0  0  0  0  0  0  0  0  0  0  0
   58.4120   29.7770   51.9300 C   0  0  0  0  0  0  0  0  0  0  0  0
   59.3290   30.7790   51.5750 C   0  0  0  0  0  0  0  0  0  0  0  0
   60.7320   30.4610   51.5560 N   0  0  0  0  0  0  0  0  0  0  0  0
   61.5580   30.6790   52.5670 N   0  0  0  0  0  0  0  0  0  0  0  0
   62.7600   30.2000   52.1860 C   0  0  0  0  0  0  0  0  0  0  0  0
   62.6270   29.6790   50.9170 C   0  0  0  0  0  0  0  0  0  0  0  0
   61.3450   29.8490   50.5560 N   0  0  0  0  0  0  0  0  0  0  0  0
   59.7830   31.4970   46.6180 N   0  0  0  0  0  0  0  0  0  0  0  0
   59.0114   35.1106   45.8998 H   0  0  0  0  0  0  0  0  0  0  0  0
   59.3402   34.1250   44.4344 H   0  0  0  0  0  0  0  0  0  0  0  0
   57.9921   35.3121   44.4344 H   0  0  0  0  0  0  0  0  0  0  0  0
   58.0363   33.0584   46.4631 H   0  0  0  0  0  0  0  0  0  0  0  0
   56.6350   33.9899   45.7702 H   0  0  0  0  0  0  0  0  0  0  0  0
   56.4760   32.6665   43.9246 H   0  0  0  0  0  0  0  0  0  0  0  0
   58.2460   32.3164   43.8886 H   0  0  0  0  0  0  0  0  0  0  0  0
   56.3270   29.5464   43.1646 H   0  0  0  0  0  0  0  0  0  0  0  0
   57.3731   27.3728   42.5393 H   0  0  0  0  0  0  0  0  0  0  0  0
   59.3459   26.5185   43.8068 H   0  0  0  0  0  0  0  0  0  0  0  0
   60.2768   27.8404   45.7035 H   0  0  0  0  0  0  0  0  0  0  0  0
   61.8692   32.6635   48.6297 H   0  0  0  0  0  0  0  0  0  0  0  0
   61.4731   34.7220   47.2858 H   0  0  0  0  0  0  0  0  0  0  0  0
   60.2307   34.0208   46.4762 H   0  0  0  0  0  0  0  0  0  0  0  0
   60.0906   35.5575   49.0533 H   0  0  0  0  0  0  0  0  0  0  0  0
   58.6868   34.8148   48.4246 H   0  0  0  0  0  0  0  0  0  0  0  0
   57.1367   33.4111   51.3705 H   0  0  0  0  0  0  0  0  0  0  0  0
   55.5464   31.6311   52.0781 H   0  0  0  0  0  0  0  0  0  0  0  0
   54.8102   29.2062   54.0103 H   0  0  0  0  0  0  0  0  0  0  0  0
   54.4664   30.1578   52.5261 H   0  0  0  0  0  0  0  0  0  0  0  0
   54.2300   28.3772   52.5261 H   0  0  0  0  0  0  0  0  0  0  0  0
   58.7662   28.7449   52.0689 H   0  0  0  0  0  0  0  0  0  0  0  0
   63.6837   30.2214   52.7830 H   0  0  0  0  0  0  0  0  0  0  0  0
   63.4203   29.2126   50.3145 H   0  0  0  0  0  0  0  0  0  0  0  0
   60.9060   29.5620   49.6500 H   0  0  0  0  0  0  0  0  0  0  0  0
  1  2  1  0
  2  3  1  0
  3  4  1  0
  4  5  1  0
  5  6  2  0
  6  7  1  0
  7  8  2  0
  8  9  1  0
  9 10  2  0
 10 11  1  0
 11 12  2  0
 12 13  1  0
 13 14  1  0
 14 15  1  0
 15 16  1  0
 16 17  1  0
 17 18  1  0
 18 19  1  0
 19 20  2  0
 19 21  1  0
 21 22  2  0
 22 23  1  0
 23 24  2  0
 24 25  1  0
 25 26  1  0
 24 27  1  0
 27 28  2  0
 28 29  1  0
 29 30  1  0
 30 31  2  0
 31 32  1  0
 32 33  2  0
 14 34  2  0
 10  5  1  0
 34 11  1  0
 18 15  1  0
 28 21  1  0
 33 29  1  0
  1 35  1  0
  1 36  1  0
  1 37  1  0
  2 38  1  0
  2 39  1  0
  3 40  1  0
  3 41  1  0
  6 42  1  0
  7 43  1  0
  8 44  1  0
  9 45  1  0
 15 46  1  1
 16 47  1  0
 16 48  1  0
 17 49  1  0
 17 50  1  0
 22 51  1  0
 23 52  1  0
 26 53  1  0
 26 54  1  0
 26 55  1  0
 27 56  1  0
 31 57  1  0
 32 58  1  0
 33 59  1  0
M  CHG  1  33   1
M  END
>  <UniqueID>  (41) 
36

>  <SMILES>  (41) 
CCCOc1ccccc1-c1noc([C@H]2CCN2C(=O)c2ccc(OC)cc2-n2ncc[nH+]2)n1

>  <Energy>  (41) 
181.12108440263097

>  <Genealogy>  (41) 
CCCOc1ccccc1-c1noc(C2CCN2C(=O)c2ccc(OC)cc2-n2ncc[nH+]2)n1 (protonated)
CCCOc1ccccc1-c1noc([C@H]2CCN2C(=O)c2ccc(OC)cc2-n2ncc[nH+]2)n1 (chirality)
CCCOc1ccccc1-c1noc([C@H]2CCN2C(=O)c2ccc(OC)cc2-n2ncc[nH+]2)n1 (3D coordinates assigned)
CCCOc1ccccc1-c1noc([C@H]2CCN2C(=O)c2ccc(OC)cc2-n2ncc[nH+]2)n1 (nonaromatic ring conformer: 181.12108440263097 kcal/mol)

>  <smiles>  (41) 
CCCOc1ccccc1-c1noc(C2CCN2C(=O)c2ccc(OC)cc2-n2nccn2)n1

>  <score_type>  (41) 
oracle

>  <origin>  (41) 
adg

>  <m_score__min__energy>  (41) 
-7.5199999999999996

>  <m_primary>  (41) 
energy

$$$$
41:0
     RDKit          3D

 21 22  0  0  0  0  0  0  0  0999 V2000
   56.2680   29.6340   42.4190 C   0  0  0  0  0  0  0  0  0  0  0  0
   56.7700   30.4110   43.5910 C   0  0  0  0  0  0  0  0  0  0  0  0
   57.5000   31.5790   43.5330 C   0  0  0  0  0  0  0  0  0  0  0  0
   57.6490   31.9330   44.8620 C   0  0  0  0  0  0  0  0  0  0  0  0
   58.3600   33.1110   45.4050 C   0  0  0  0  0  0  0  0  0  0  0  0
   58.6040   34.2170   44.5750 C   0  0  0  0  0  0  0  0  0  0  0  0
   59.2740   35.3280   45.0850 C   0  0  0  0  0  0  0  0  0  0  0  0
   59.6960   35.3350   46.4130 C   0  0  0  0  0  0  0  0  0  0  0  0
   59.4410   34.2220   47.2170 C   0  0  0  0  0  0  0  0  0  0  0  0
   60.0140   34.2190   49.0410 Br  0  0  0  0  0  0  0  0  0  0  0  0
   58.7850   33.1430   46.7050 N   0  0  0  0  0  0  0  0  0  0  0  0
   57.0360   31.0350   45.6040 O   0  0  0  0  0  0  0  0  0  0  0  0
   56.4890   30.1080   44.8720 N   0  0  0  0  0  0  0  0  0  0  0  0
   55.7030   28.7594   42.7737 H   0  0  0  0  0  0  0  0  0  0  0  0
   55.6112   30.2725   41.8099 H   0  0  0  0  0  0  0  0  0  0  0  0
   57.1200   29.2977   41.8099 H   0  0  0  0  0  0  0  0  0  0  0  0
   57.8747   32.1043   42.6422 H   0  0  0  0  0  0  0  0  0  0  0  0
   58.2681   34.2068   43.5276 H   0  0  0  0  0  0  0  0  0  0  0  0
   59.4692   36.1976   44.4402 H   0  0  0  0  0  0  0  0  0  0  0  0
   60.2244   36.2080   46.8237 H   0  0  0  0  0  0  0  0  0  0  0  0
   58.6120   32.3310   47.3380 H   0  0  0  0  0  0  0  0  0  0  0  0
  1  2  1  0
  2  3  1  0
  3  4  2  0
  4  5  1  0
  5  6  2  0
  6  7  1  0
  7  8  2  0
  8  9  1  0
  9 10  1  0
  9 11  2  0
  4 12  1  0
 12 13  1  0
 13  2  2  0
 11  5  1  0
  1 14  1  0
  1 15  1  0
  1 16  1  0
  3 17  1  0
  6 18  1  0
  7 19  1  0
  8 20  1  0
 11 21  1  0
M  CHG  1  11   1
M  END
>  <UniqueID>  (42) 
37

>  <SMILES>  (42) 
Cc1cc(-c2cccc(Br)[nH+]2)on1

>  <Energy>  (42) 
50.98981988680418

>  <Genealogy>  (42) 
Cc1cc(-c2cccc(Br)[nH+]2)on1 (protonated)
Cc1cc(-c2cccc(Br)[nH+]2)on1 (3D coordinates assigned)
Cc1cc(-c2cccc(Br)[nH+]2)on1 (optimized conformer: 50.98981988680418 kcal/mol)

>  <smiles>  (42) 
Cc1cc(-c2cccc(Br)n2)on1

>  <score_type>  (42) 
oracle

>  <origin>  (42) 
adg

>  <m_score__min__energy>  (42) 
-5.1900000000000004

>  <m_primary>  (42) 
energy

$$$$
42:0
     RDKit          3D

 24 25  0  0  0  0  0  0  0  0999 V2000
   59.8480   34.5730   47.8870 C   0  0  0  0  0  0  0  0  0  0  0  0
   59.1640   33.6830   46.8920 C   0  0  0  0  0  0  0  0  0  0  0  0
   58.2560   34.2210   45.9690 C   0  0  0  0  0  0  0  0  0  0  0  0
   57.6460   33.3980   45.0180 C   0  0  0  0  0  0  0  0  0  0  0  0
   57.9490   32.0290   44.9660 C   0  0  0  0  0  0  0  0  0  0  0  0
   57.3140   31.1790   43.9970 N   0  0  0  0  0  0  0  0  0  0  0  0
   56.6510   30.0260   44.2050 C   0  0  0  0  0  0  0  0  0  0  0  0
   56.3870   29.4540   45.4470 O   0  0  0  0  0  0  0  0  0  0  0  0
   56.2350   29.5180   42.9960 C   0  0  0  0  0  0  0  0  0  0  0  0
   56.6280   30.3500   42.0090 N   0  0  0  0  0  0  0  0  0  0  0  0
   57.2760   31.3450   42.6570 C   0  0  0  0  0  0  0  0  0  0  0  0
   57.8980   32.4390   41.9810 N   0  0  0  0  0  0  0  0  0  0  0  0
   57.7260   32.6160   40.7580 O   0  0  0  0  0  0  0  0  0  0  0  0
   58.8650   31.4930   45.8850 C   0  0  0  0  0  0  0  0  0  0  0  0
   59.4760   32.3160   46.8350 C   0  0  0  0  0  0  0  0  0  0  0  0
   59.5960   34.2451   48.9063 H   0  0  0  0  0  0  0  0  0  0  0  0
   60.9369   34.5160   47.7422 H   0  0  0  0  0  0  0  0  0  0  0  0
   59.5127   35.6106   47.7422 H   0  0  0  0  0  0  0  0  0  0  0  0
   58.0226   35.2957   45.9934 H   0  0  0  0  0  0  0  0  0  0  0  0
   56.9245   33.8259   44.3065 H   0  0  0  0  0  0  0  0  0  0  0  0
   55.5770   29.7170   45.9940 H   0  0  0  0  0  0  0  0  0  0  0  0
   55.6722   28.5833   42.8563 H   0  0  0  0  0  0  0  0  0  0  0  0
   59.1031   30.4194   45.8572 H   0  0  0  0  0  0  0  0  0  0  0  0
   60.2044   31.8905   47.5409 H   0  0  0  0  0  0  0  0  0  0  0  0
  1  2  1  0
  2  3  2  0
  3  4  1  0
  4  5  2  0
  5  6  1  0
  6  7  1  0
  7  8  1  0
  7  9  2  0
  9 10  1  0
 10 11  2  0
 11 12  1  0
 12 13  2  0
  5 14  1  0
 14 15  2  0
 15  2  1  0
 11  6  1  0
  1 16  1  0
  1 17  1  0
  1 18  1  0
  3 19  1  0
  4 20  1  0
  8 21  1  0
  9 22  1  0
 14 23  1  0
 15 24  1  0
M  END
>  <UniqueID>  (43) 
38

>  <SMILES>  (43) 
Cc1ccc(-n2c(O)cnc2N=O)cc1

>  <Energy>  (43) 
60.38648210512229

>  <Genealogy>  (43) 
Cc1ccc(-n2c(O)cnc2N=O)cc1 (3D coordinates assigned)
Cc1ccc(-n2c(O)cnc2N=O)cc1 (optimized conformer: 60.38648210512229 kcal/mol)

>  <smiles>  (43) 
Cc1ccc(-n2c(O)cnc2N=O)cc1

>  <score_type>  (43) 
oracle

>  <origin>  (43) 
adg

>  <m_score__min__energy>  (43) 
-6.7199999999999998

>  <m_primary>  (43) 
energy

$$$$
43:0
     RDKit          3D

 42 43  0  0  0  0  0  0  0  0999 V2000
   60.3320   29.5440   48.7240 C   0  0  0  0  0  0  0  0  0  0  0  0
   60.8670   30.0820   47.4000 C   0  0  0  0  0  0  0  0  0  0  0  0
   59.8470   30.9570   46.7130 C   0  0  0  0  0  0  0  0  0  0  0  0
   58.8330   30.3350   45.9650 C   0  0  0  0  0  0  0  0  0  0  0  0
   57.8580   31.0920   45.3220 C   0  0  0  0  0  0  0  0  0  0  0  0
   57.8710   32.4800   45.4240 C   0  0  0  0  0  0  0  0  0  0  0  0
   58.8730   33.1370   46.1570 C   0  0  0  0  0  0  0  0  0  0  0  0
   58.7910   34.6420   46.2880 C   0  0  0  0  0  0  0  0  0  0  0  0
   59.1910   35.3250   44.9830 C   0  0  0  0  0  0  0  0  0  0  0  0
   59.8850   32.3730   46.7930 C   0  0  0  0  0  0  0  0  0  0  0  0
   60.9410   33.0310   47.5230 N   0  0  0  0  0  0  0  0  0  0  0  0
   60.6540   33.4990   48.8900 C   0  0  0  0  0  0  0  0  0  0  0  0
   61.8570   33.3700   49.8450 C   0  0  0  0  0  0  0  0  0  0  0  0
   63.2190   33.8330   49.2900 C   0  0  0  0  0  0  0  0  0  0  0  0
   63.8990   32.8200   48.4630 N   0  0  0  0  0  0  0  0  0  0  0  0
   63.3970   32.6610   47.0800 C   0  0  0  0  0  0  0  0  0  0  0  0
   62.1260   33.4740   46.7620 C   0  0  0  0  0  0  0  0  0  0  0  0
   60.8379   30.0528   49.5578 H   0  0  0  0  0  0  0  0  0  0  0  0
   59.2493   29.7290   48.7843 H   0  0  0  0  0  0  0  0  0  0  0  0
   60.5231   28.4624   48.7843 H   0  0  0  0  0  0  0  0  0  0  0  0
   61.7743   30.6731   47.5935 H   0  0  0  0  0  0  0  0  0  0  0  0
   61.0920   29.2287   46.7433 H   0  0  0  0  0  0  0  0  0  0  0  0
   58.8096   29.2380   45.8868 H   0  0  0  0  0  0  0  0  0  0  0  0
   57.0756   30.5923   44.7320 H   0  0  0  0  0  0  0  0  0  0  0  0
   57.0876   33.0692   44.9249 H   0  0  0  0  0  0  0  0  0  0  0  0
   57.7589   34.9257   46.5413 H   0  0  0  0  0  0  0  0  0  0  0  0
   59.4834   34.9641   47.0798 H   0  0  0  0  0  0  0  0  0  0  0  0
   59.7352   36.2543   45.2073 H   0  0  0  0  0  0  0  0  0  0  0  0
   59.8381   34.6526   44.4006 H   0  0  0  0  0  0  0  0  0  0  0  0
   58.2880   35.5604   44.4006 H   0  0  0  0  0  0  0  0  0  0  0  0
   60.3588   34.5576   48.8416 H   0  0  0  0  0  0  0  0  0  0  0  0
   59.8513   32.8621   49.2901 H   0  0  0  0  0  0  0  0  0  0  0  0
   61.6391   33.9682   50.7420 H   0  0  0  0  0  0  0  0  0  0  0  0
   61.9676   32.2923   50.0355 H   0  0  0  0  0  0  0  0  0  0  0  0
   63.0561   34.7305   48.6751 H   0  0  0  0  0  0  0  0  0  0  0  0
   63.8685   34.0286   50.1560 H   0  0  0  0  0  0  0  0  0  0  0  0
   63.8040   31.9010   48.9550 H   0  0  0  0  0  0  0  0  0  0  0  0
   64.9210   33.0440   48.4270 H   0  0  0  0  0  0  0  0  0  0  0  0
   64.1905   32.9798   46.3880 H   0  0  0  0  0  0  0  0  0  0  0  0
   63.1261   31.6010   46.9662 H   0  0  0  0  0  0  0  0  0  0  0  0
   62.3189   34.5303   47.0008 H   0  0  0  0  0  0  0  0  0  0  0  0
   61.9022   33.3230   45.6956 H   0  0  0  0  0  0  0  0  0  0  0  0
  1  2  1  0
  2  3  1  0
  3  4  2  0
  4  5  1  0
  5  6  2  0
  6  7  1  0
  7  8  1  0
  8  9  1  0
  7 10  2  0
 10 11  1  0
 11 12  1  0
 12 13  1  0
 13 14  1  0
 14 15  1  0
 15 16  1  0
 16 17  1  0
 10  3  1  0
 17 11  1  0
  1 18  1  0
  1 19  1  0
  1 20  1  0
  2 21  1  0
  2 22  1  0
  4 23  1  0
  5 24  1  0
  6 25  1  0
  8 26  1  0
  8 27  1  0
  9 28  1  0
  9 29  1  0
  9 30  1  0
 12 31  1  0
 12 32  1  0
 13 33  1  0
 13 34  1  0
 14 35  1  0
 14 36  1  0
 15 37  1  0
 15 38  1  0
 16 39  1  0
 16 40  1  0
 17 41  1  0
 17 42  1  0
M  CHG  1  15   1
M  END
>  <UniqueID>  (44) 
39

>  <SMILES>  (44) 
CCc1cccc(CC)c1N1CCC[NH2+]CC1

>  <Energy>  (44) 
51.38567655552748

>  <Genealogy>  (44) 
CCc1cccc(CC)c1N1CCC[NH2+]CC1 (protonated)
CCc1cccc(CC)c1N1CCC[NH2+]CC1 (3D coordinates assigned)
CCc1cccc(CC)c1N1CCC[NH2+]CC1 (nonaromatic ring conformer: 51.38567655552748 kcal/mol)

>  <smiles>  (44) 
CCc1cccc(CC)c1N1CCCNCC1

>  <score_type>  (44) 
oracle

>  <origin>  (44) 
adg

>  <m_score__min__energy>  (44) 
-2.8399999999999999

>  <m_primary>  (44) 
energy

$$$$
44:0
     RDKit          3D

 34 34  0  0  0  0  0  0  0  0999 V2000
   58.0160   33.7340   46.5610 C   0  0  0  0  0  0  0  0  0  0  0  0
   58.8980   33.0050   45.5470 C   0  0  0  0  0  0  0  0  0  0  0  0
   58.4440   33.2410   44.0920 C   0  0  0  0  0  0  0  0  0  0  0  0
   58.4670   32.0120   43.2780 N   0  0  0  0  0  0  0  0  0  0  0  0
   57.4010   31.9830   42.2640 C   0  0  0  0  0  0  0  0  0  0  0  0
   56.6470   30.6440   42.2960 C   0  0  0  0  0  0  0  0  0  0  0  0
   57.3440   29.6400   43.1120 N   0  0  0  0  0  0  0  0  0  0  0  0
   56.8520   29.6790   44.7840 S   0  0  0  0  0  0  0  0  0  0  0  0
   56.7050   31.1090   45.2240 O   0  0  0  0  0  0  0  0  0  0  0  0
   55.5130   29.0100   44.9130 O   0  0  0  0  0  0  0  0  0  0  0  0
   57.9950   28.8320   45.8270 C   0  0  0  0  0  0  0  0  0  0  0  0
   57.7030   27.5330   46.2660 C   0  0  0  0  0  0  0  0  0  0  0  0
   58.6090   26.8450   47.0780 C   0  0  0  0  0  0  0  0  0  0  0  0
   59.8110   27.4510   47.4560 C   0  0  0  0  0  0  0  0  0  0  0  0
   60.1050   28.7470   47.0250 C   0  0  0  0  0  0  0  0  0  0  0  0
   59.2000   29.4390   46.2150 C   0  0  0  0  0  0  0  0  0  0  0  0
   58.3346   33.4706   47.5804 H   0  0  0  0  0  0  0  0  0  0  0  0
   58.1116   34.8202   46.4161 H   0  0  0  0  0  0  0  0  0  0  0  0
   56.9672   33.4356   46.4161 H   0  0  0  0  0  0  0  0  0  0  0  0
   59.9320   33.3639   45.6565 H   0  0  0  0  0  0  0  0  0  0  0  0
   58.8204   31.9268   45.7507 H   0  0  0  0  0  0  0  0  0  0  0  0
   57.4170   33.6349   44.1041 H   0  0  0  0  0  0  0  0  0  0  0  0
   59.1494   33.9519   43.6370 H   0  0  0  0  0  0  0  0  0  0  0  0
   58.3770   31.1690   43.8910 H   0  0  0  0  0  0  0  0  0  0  0  0
   56.6920   32.8000   42.4638 H   0  0  0  0  0  0  0  0  0  0  0  0
   57.8584   32.1041   41.2710 H   0  0  0  0  0  0  0  0  0  0  0  0
   55.6447   30.8107   42.7174 H   0  0  0  0  0  0  0  0  0  0  0  0
   56.5868   30.2629   41.2659 H   0  0  0  0  0  0  0  0  0  0  0  0
   58.3630   29.8760   43.0990 H   0  0  0  0  0  0  0  0  0  0  0  0
   56.7580   27.0538   45.9705 H   0  0  0  0  0  0  0  0  0  0  0  0
   58.3762   25.8258   47.4200 H   0  0  0  0  0  0  0  0  0  0  0  0
   60.5249   26.9076   48.0925 H   0  0  0  0  0  0  0  0  0  0  0  0
   61.0503   29.2237   47.3236 H   0  0  0  0  0  0  0  0  0  0  0  0
   59.4324   30.4610   45.8810 H   0  0  0  0  0  0  0  0  0  0  0  0
  1  2  1  0
  2  3  1  0
  3  4  1  0
  4  5  1  0
  5  6  1  0
  6  7  1  0
  7  8  1  0
  8  9  2  0
  8 10  2  0
  8 11  1  0
 11 12  2  0
 12 13  1  0
 13 14  2  0
 14 15  1  0
 15 16  2  0
 16 11  1  0
  1 17  1  0
  1 18  1  0
  1 19  1  0
  2 20  1  0
  2 21  1  0
  3 22  1  0
  3 23  1  0
  4 24  1  0
  5 25  1  0
  5 26  1  0
  6 27  1  0
  6 28  1  0
  7 29  1  0
 12 30  1  0
 13 31  1  0
 14 32  1  0
 15 33  1  0
 16 34  1  0
M  END
>  <UniqueID>  (45) 
40

>  <SMILES>  (45) 
CCCNCCNS(=O)(=O)c1ccccc1

>  <Energy>  (45) 
27.77778542100654

>  <Genealogy>  (45) 
CCCNCCNS(=O)(=O)c1ccccc1 (3D coordinates assigned)
CCCNCCNS(=O)(=O)c1ccccc1 (optimized conformer: 27.77778542100654 kcal/mol)

>  <smiles>  (45) 
CCCNCCNS(=O)(=O)c1ccccc1

>  <score_type>  (45) 
oracle

>  <origin>  (45) 
adg

>  <m_score__min__energy>  (45) 
-5.8099999999999996

>  <m_primary>  (45) 
energy

$$$$
45:0
     RDKit          3D

 38 40  0  0  0  0  0  0  0  0999 V2000
   58.7000   24.6030   46.2910 C   0  0  0  0  0  0  0  0  0  0  0  0
   58.6400   26.0860   46.0160 C   0  0  0  0  0  0  0  0  0  0  0  0
   59.8300   26.8370   46.0390 C   0  0  0  0  0  0  0  0  0  0  0  0
   61.0250   26.2430   46.2890 F   0  0  0  0  0  0  0  0  0  0  0  0
   59.8010   28.2110   45.8080 C   0  0  0  0  0  0  0  0  0  0  0  0
   58.5960   28.8550   45.5370 C   0  0  0  0  0  0  0  0  0  0  0  0
   57.3950   28.1270   45.4790 C   0  0  0  0  0  0  0  0  0  0  0  0
   56.1750   28.7480   45.1650 O   0  0  0  0  0  0  0  0  0  0  0  0
   55.9500   29.5710   44.0240 C   0  0  0  0  0  0  0  0  0  0  0  0
   56.8130   30.7900   44.1260 C   0  0  0  0  0  0  0  0  0  0  0  0
   57.3490   31.3810   42.9730 C   0  0  0  0  0  0  0  0  0  0  0  0
   58.1170   32.5410   43.0860 C   0  0  0  0  0  0  0  0  0  0  0  0
   58.3370   33.1100   44.3460 C   0  0  0  0  0  0  0  0  0  0  0  0
   59.1010   34.2770   44.4970 C   0  0  0  0  0  0  0  0  0  0  0  0
   59.2990   34.8240   45.7690 C   0  0  0  0  0  0  0  0  0  0  0  0
   58.7330   34.2120   46.8930 C   0  0  0  0  0  0  0  0  0  0  0  0
   57.9690   33.0490   46.7520 C   0  0  0  0  0  0  0  0  0  0  0  0
   57.7680   32.4940   45.4840 C   0  0  0  0  0  0  0  0  0  0  0  0
   57.0260   31.3630   45.3420 N   0  0  0  0  0  0  0  0  0  0  0  0
   57.4120   26.7340   45.7200 C   0  0  0  0  0  0  0  0  0  0  0  0
   56.1430   25.9700   45.6400 C   0  0  0  0  0  0  0  0  0  0  0  0
   56.0520   24.7890   44.8420 N   0  0  0  0  0  0  0  0  0  0  0  0
   55.1320   26.3610   46.2820 O   0  0  0  0  0  0  0  0  0  0  0  0
   58.7069   24.4316   47.3775 H   0  0  0  0  0  0  0  0  0  0  0  0
   57.8210   24.1121   45.8479 H   0  0  0  0  0  0  0  0  0  0  0  0
   59.6158   24.1847   45.8479 H   0  0  0  0  0  0  0  0  0  0  0  0
   60.7354   28.7905   45.8399 H   0  0  0  0  0  0  0  0  0  0  0  0
   58.5842   29.9417   45.3671 H   0  0  0  0  0  0  0  0  0  0  0  0
   56.2053   29.0135   43.1108 H   0  0  0  0  0  0  0  0  0  0  0  0
   54.8914   29.8670   43.9815 H   0  0  0  0  0  0  0  0  0  0  0  0
   57.1653   30.9331   41.9852 H   0  0  0  0  0  0  0  0  0  0  0  0
   58.5482   33.0068   42.1876 H   0  0  0  0  0  0  0  0  0  0  0  0
   59.5444   34.7619   43.6148 H   0  0  0  0  0  0  0  0  0  0  0  0
   59.9009   35.7372   45.8861 H   0  0  0  0  0  0  0  0  0  0  0  0
   58.8895   34.6472   47.8911 H   0  0  0  0  0  0  0  0  0  0  0  0
   57.5263   32.5709   47.6382 H   0  0  0  0  0  0  0  0  0  0  0  0
   56.8450   24.4880   44.2340 H   0  0  0  0  0  0  0  0  0  0  0  0
   55.1660   24.2350   44.8210 H   0  0  0  0  0  0  0  0  0  0  0  0
  1  2  1  0
  2  3  2  0
  3  4  1  0
  3  5  1  0
  5  6  2  0
  6  7  1  0
  7  8  1  0
  8  9  1  0
  9 10  1  0
 10 11  2  0
 11 12  1  0
 12 13  2  0
 13 14  1  0
 14 15  2  0
 15 16  1  0
 16 17  2  0
 17 18  1  0
 18 19  2  0
  7 20  2  0
 20 21  1  0
 21 22  1  0
 21 23  2  0
 20  2  1  0
 19 10  1  0
 18 13  1  0
  1 24  1  0
  1 25  1  0
  1 26  1  0
  5 27  1  0
  6 28  1  0
  9 29  1  0
  9 30  1  0
 11 31  1  0
 12 32  1  0
 14 33  1  0
 15 34  1  0
 16 35  1  0
 17 36  1  0
 22 37  1  0
 22 38  1  0
M  END
>  <UniqueID>  (46) 
41

>  <SMILES>  (46) 
Cc1c(F)ccc(OCc2ccc3ccccc3n2)c1C(N)=O

>  <Energy>  (46) 
48.318036052974264

>  <Genealogy>  (46) 
Cc1c(F)ccc(OCc2ccc3ccccc3n2)c1C(N)=O (3D coordinates assigned)
Cc1c(F)ccc(OCc2ccc3ccccc3n2)c1C(N)=O (optimized conformer: 48.318036052974264 kcal/mol)

>  <smiles>  (46) 
Cc1c(F)ccc(OCc2ccc3ccccc3n2)c1C(N)=O

>  <score_type>  (46) 
oracle

>  <origin>  (46) 
adg

>  <m_score__min__energy>  (46) 
-9.1099999999999994

>  <m_primary>  (46) 
energy

$$$$
46:0
     RDKit          3D

 51 54  0  0  0  0  0  0  0  0999 V2000
   63.3580   33.0130   47.2170 C   0  0  0  0  0  0  0  0  0  0  0  0
   62.4950   32.0570   47.8250 O   0  0  0  0  0  0  0  0  0  0  0  0
   61.5050   32.3620   48.7720 C   0  0  0  0  0  0  0  0  0  0  0  0
   61.6890   33.3790   49.7320 C   0  0  0  0  0  0  0  0  0  0  0  0
   60.6760   33.6860   50.6420 C   0  0  0  0  0  0  0  0  0  0  0  0
   59.4690   32.9880   50.6070 C   0  0  0  0  0  0  0  0  0  0  0  0
   59.2730   31.9760   49.6660 C   0  0  0  0  0  0  0  0  0  0  0  0
   60.2870   31.6460   48.7480 C   0  0  0  0  0  0  0  0  0  0  0  0
   60.0690   30.5880   47.7930 N   0  0  0  0  0  0  0  0  0  0  0  0
   60.6470   30.6800   46.4470 C   0  0  0  0  0  0  0  0  0  0  0  0
   60.7380   29.2850   45.8180 C   0  0  0  0  0  0  0  0  0  0  0  0
   59.4290   28.5800   45.7730 N   0  0  0  0  0  0  0  0  0  0  0  0
   58.7920   28.6760   44.4430 C   0  0  0  0  0  0  0  0  0  0  0  0
   57.4710   29.3850   44.5360 C   0  0  0  0  0  0  0  0  0  0  0  0
   56.3260   28.7890   44.9200 N   0  0  0  0  0  0  0  0  0  0  0  0
   55.4090   29.7470   44.8830 N   0  0  0  0  0  0  0  0  0  0  0  0
   55.9590   30.8890   44.4970 N   0  0  0  0  0  0  0  0  0  0  0  0
   57.2470   30.6890   44.2840 N   0  0  0  0  0  0  0  0  0  0  0  0
   58.1790   31.7170   43.8230 C   0  0  0  0  0  0  0  0  0  0  0  0
   58.4210   32.7350   44.9050 C   0  0  0  0  0  0  0  0  0  0  0  0
   59.2300   33.8590   44.6640 C   0  0  0  0  0  0  0  0  0  0  0  0
   59.4290   34.8120   45.6670 C   0  0  0  0  0  0  0  0  0  0  0  0
   58.8290   34.6480   46.9180 C   0  0  0  0  0  0  0  0  0  0  0  0
   58.0360   33.5270   47.1720 C   0  0  0  0  0  0  0  0  0  0  0  0
   57.8360   32.5700   46.1720 C   0  0  0  0  0  0  0  0  0  0  0  0
   58.4740   28.9890   46.8330 C   0  0  0  0  0  0  0  0  0  0  0  0
   59.1820   29.4620   48.1080 C   0  0  0  0  0  0  0  0  0  0  0  0
   63.8769   33.5878   47.9983 H   0  0  0  0  0  0  0  0  0  0  0  0
   64.0985   32.4930   46.5915 H   0  0  0  0  0  0  0  0  0  0  0  0
   62.7652   33.6966   46.5915 H   0  0  0  0  0  0  0  0  0  0  0  0
   62.6380   33.9344   49.7638 H   0  0  0  0  0  0  0  0  0  0  0  0
   60.8299   34.4797   51.3879 H   0  0  0  0  0  0  0  0  0  0  0  0
   58.6705   33.2354   51.3220 H   0  0  0  0  0  0  0  0  0  0  0  0
   58.3174   31.4316   49.6418 H   0  0  0  0  0  0  0  0  0  0  0  0
   60.0098   31.3212   45.8202 H   0  0  0  0  0  0  0  0  0  0  0  0
   61.6567   31.1108   46.5167 H   0  0  0  0  0  0  0  0  0  0  0  0
   61.1158   29.3882   44.7901 H   0  0  0  0  0  0  0  0  0  0  0  0
   61.4129   28.6849   46.4459 H   0  0  0  0  0  0  0  0  0  0  0  0
   59.4543   29.2343   43.7650 H   0  0  0  0  0  0  0  0  0  0  0  0
   58.6211   27.6595   44.0589 H   0  0  0  0  0  0  0  0  0  0  0  0
   59.1341   31.2437   43.5515 H   0  0  0  0  0  0  0  0  0  0  0  0
   57.7442   32.2242   42.9491 H   0  0  0  0  0  0  0  0  0  0  0  0
   59.7084   33.9891   43.6821 H   0  0  0  0  0  0  0  0  0  0  0  0
   60.0589   35.6923   45.4711 H   0  0  0  0  0  0  0  0  0  0  0  0
   58.9814   35.4027   47.7037 H   0  0  0  0  0  0  0  0  0  0  0  0
   57.5684   33.3966   48.1591 H   0  0  0  0  0  0  0  0  0  0  0  0
   57.2178   31.6838   46.3782 H   0  0  0  0  0  0  0  0  0  0  0  0
   57.8513   29.8106   46.4494 H   0  0  0  0  0  0  0  0  0  0  0  0
   57.8663   28.1100   47.0937 H   0  0  0  0  0  0  0  0  0  0  0  0
   58.4314   29.7830   48.8453 H   0  0  0  0  0  0  0  0  0  0  0  0
   59.7769   28.6347   48.5224 H   0  0  0  0  0  0  0  0  0  0  0  0
  1  2  1  0
  2  3  1  0
  3  4  2  0
  4  5  1  0
  5  6  2  0
  6  7  1  0
  7  8  2  0
  8  9  1  0
  9 10  1  0
 10 11  1  0
 11 12  1  0
 12 13  1  0
 13 14  1  0
 14 15  2  0
 15 16  1  0
 16 17  2  0
 17 18  1  0
 18 19  1  0
 19 20  1  0
 20 21  2  0
 21 22  1  0
 22 23  2  0
 23 24  1  0
 24 25  2  0
 12 26  1  0
 26 27  1  0
  8  3  1  0
 27  9  1  0
 18 14  1  0
 25 20  1  0
  1 28  1  0
  1 29  1  0
  1 30  1  0
  4 31  1  0
  5 32  1  0
  6 33  1  0
  7 34  1  0
 10 35  1  0
 10 36  1  0
 11 37  1  0
 11 38  1  0
 13 39  1  0
 13 40  1  0
 19 41  1  0
 19 42  1  0
 21 43  1  0
 22 44  1  0
 23 45  1  0
 24 46  1  0
 25 47  1  0
 26 48  1  0
 26 49  1  0
 27 50  1  0
 27 51  1  0
M  END
>  <UniqueID>  (47) 
42

>  <SMILES>  (47) 
COc1ccccc1N1CCN(Cc2nnnn2Cc2ccccc2)CC1

>  <Energy>  (47) 
101.23615045905277

>  <Genealogy>  (47) 
COc1ccccc1N1CCN(Cc2nnnn2Cc2ccccc2)CC1 (3D coordinates assigned)
COc1ccccc1N1CCN(Cc2nnnn2Cc2ccccc2)CC1 (nonaromatic ring conformer: 101.23615045905277 kcal/mol)

>  <smiles>  (47) 
COc1ccccc1N1CCN(Cc2nnnn2Cc2ccccc2)CC1

>  <score_type>  (47) 
oracle

>  <origin>  (47) 
adg

>  <m_score__min__energy>  (47) 
-8.5299999999999994

>  <m_primary>  (47) 
energy

$$$$
47:0
     RDKit          3D

 36 37  0  0  0  0  0  0  0  0999 V2000
   60.4244   29.8489   44.5804 H   0  0  0  0  0  0  0  0  0  0  0  0
   59.7600   29.6980   45.4440 C   0  0  0  0  0  0  0  0  0  0  0  0
   58.4520   29.4600   45.2180 C   0  0  0  0  0  0  0  0  0  0  0  0
   57.4630   30.5700   45.1880 C   0  0  0  0  0  0  0  0  0  0  0  0
   56.2730   30.3200   44.8520 O   0  0  0  0  0  0  0  0  0  0  0  0
   57.8460   31.9660   45.5170 C   0  0  0  0  0  0  0  0  0  0  0  0
   57.9230   32.9520   44.5130 C   0  0  0  0  0  0  0  0  0  0  0  0
   57.6946   32.6892   43.4695 H   0  0  0  0  0  0  0  0  0  0  0  0
   58.2880   34.2620   44.8360 C   0  0  0  0  0  0  0  0  0  0  0  0
   58.3383   35.0278   44.0479 H   0  0  0  0  0  0  0  0  0  0  0  0
   58.5890   34.6010   46.1570 C   0  0  0  0  0  0  0  0  0  0  0  0
   58.8749   35.6330   46.4086 H   0  0  0  0  0  0  0  0  0  0  0  0
   58.5270   33.6300   47.1580 C   0  0  0  0  0  0  0  0  0  0  0  0
   58.7657   33.8975   48.1979 H   0  0  0  0  0  0  0  0  0  0  0  0
   58.1620   32.3180   46.8410 C   0  0  0  0  0  0  0  0  0  0  0  0
   58.1218   31.5558   47.6331 H   0  0  0  0  0  0  0  0  0  0  0  0
   57.9710   28.0570   45.0900 C   0  0  0  0  0  0  0  0  0  0  0  0
   57.3070   27.4200   46.1560 C   0  0  0  0  0  0  0  0  0  0  0  0
   57.1238   27.9691   47.0914 H   0  0  0  0  0  0  0  0  0  0  0  0
   56.8790   26.0950   46.0340 C   0  0  0  0  0  0  0  0  0  0  0  0
   56.3613   25.6063   46.8725 H   0  0  0  0  0  0  0  0  0  0  0  0
   57.1070   25.3900   44.8500 C   0  0  0  0  0  0  0  0  0  0  0  0
   56.7674   24.3480   44.7554 H   0  0  0  0  0  0  0  0  0  0  0  0
   57.7670   26.0100   43.7860 C   0  0  0  0  0  0  0  0  0  0  0  0
   57.9478   25.4545   42.8539 H   0  0  0  0  0  0  0  0  0  0  0  0
   58.1980   27.3340   43.9030 C   0  0  0  0  0  0  0  0  0  0  0  0
   58.7184   27.8151   43.0618 H   0  0  0  0  0  0  0  0  0  0  0  0
   60.3230   29.7630   46.7640 N   0  0  0  0  0  0  0  0  0  0  0  0
   61.2740   30.8240   47.1080 C   0  0  0  0  0  0  0  0  0  0  0  0
   61.3494   30.9082   48.2022 H   0  0  0  0  0  0  0  0  0  0  0  0
   62.2619   30.5806   46.6900 H   0  0  0  0  0  0  0  0  0  0  0  0
   60.9243   31.7795   46.6900 H   0  0  0  0  0  0  0  0  0  0  0  0
   60.3050   28.5520   47.5800 C   0  0  0  0  0  0  0  0  0  0  0  0
   60.3091   28.8274   48.6450 H   0  0  0  0  0  0  0  0  0  0  0  0
   59.3981   27.9716   47.3548 H   0  0  0  0  0  0  0  0  0  0  0  0
   61.1942   27.9449   47.3548 H   0  0  0  0  0  0  0  0  0  0  0  0
  1  2  1  0
  2  3  2  0
  3  4  1  0
  4  5  2  0
  4  6  1  0
  6  7  2  0
  7  8  1  0
  7  9  1  0
  9 10  1  0
  9 11  2  0
 11 12  1  0
 11 13  1  0
 13 14  1  0
 13 15  2  0
 15 16  1  0
  3 17  1  0
 17 18  2  0
 18 19  1  0
 18 20  1  0
 20 21  1  0
 20 22  2  0
 22 23  1  0
 22 24  1  0
 24 25  1  0
 24 26  2  0
 26 27  1  0
  2 28  1  0
 28 29  1  0
 29 30  1  0
 29 31  1  0
 29 32  1  0
 28 33  1  0
 33 34  1  0
 33 35  1  0
 33 36  1  0
 15  6  1  0
 26 17  1  0
M  END
>  <UniqueID>  (48) 
43

>  <SMILES>  (48) 
CN(C)/C=C(\C(=O)c1ccccc1)c1ccccc1

>  <Energy>  (48) 
48.86946488401018

>  <Genealogy>  (48) 
CN(C)/C=C(\C(=O)c1ccccc1)c1ccccc1 (cis-trans isomerization)
CN(C)/C=C(\C(=O)c1ccccc1)c1ccccc1 (3D coordinates assigned)
CN(C)/C=C(\C(=O)c1ccccc1)c1ccccc1 (optimized conformer: 48.86946488401018 kcal/mol)

>  <smiles>  (48) 
CN(C)C=C(C(=O)c1ccccc1)c1ccccc1

>  <score_type>  (48) 
oracle

>  <origin>  (48) 
adg

>  <m_score__min__energy>  (48) 
-6.7699999999999996

>  <m_primary>  (48) 
energy

$$$$
48:0
     RDKit          3D

 51 53  0  0  0  0  0  0  0  0999 V2000
   60.4430   28.5120   47.6650 C   0  0  0  0  0  0  0  0  0  0  0  0
   59.4270   28.5700   46.5750 C   0  0  0  0  0  0  0  0  0  0  0  0
   58.3120   29.3850   46.5600 C   0  0  0  0  0  0  0  0  0  0  0  0
   57.6610   29.0970   45.3770 C   0  0  0  0  0  0  0  0  0  0  0  0
   56.4210   29.7360   44.9020 C   0  0  0  0  0  0  0  0  0  0  0  0
   55.3470   29.0800   44.8460 O   0  0  0  0  0  0  0  0  0  0  0  0
   56.4480   31.1080   44.4950 N   0  0  0  0  0  0  0  0  0  0  0  0
   57.6260   31.7650   43.9360 C   0  0  0  0  0  0  0  0  0  0  0  0
   57.7800   33.1960   44.4710 C   0  0  0  0  0  0  0  0  0  0  0  0
   58.6440   33.2400   45.6750 N   0  0  0  0  0  0  0  0  0  0  0  0
   59.3340   34.5520   45.8170 C   0  0  0  0  0  0  0  0  0  0  0  0
   59.6490   34.9430   47.2750 C   0  0  0  0  0  0  0  0  0  0  0  0
   59.8170   33.7530   48.1130 N   0  0  0  0  0  0  0  0  0  0  0  0
   60.9480   33.6370   48.9930 C   0  0  0  0  0  0  0  0  0  0  0  0
   60.7570   33.8660   50.3640 C   0  0  0  0  0  0  0  0  0  0  0  0
   61.8150   33.7220   51.2620 C   0  0  0  0  0  0  0  0  0  0  0  0
   63.0730   33.3400   50.8010 C   0  0  0  0  0  0  0  0  0  0  0  0
   63.2820   33.1130   49.4390 C   0  0  0  0  0  0  0  0  0  0  0  0
   62.2340   33.2810   48.5110 C   0  0  0  0  0  0  0  0  0  0  0  0
   62.4930   33.0170   47.0420 C   0  0  0  0  0  0  0  0  0  0  0  0
   61.5050   32.1910   46.5420 F   0  0  0  0  0  0  0  0  0  0  0  0
   63.7190   32.4010   46.8550 F   0  0  0  0  0  0  0  0  0  0  0  0
   62.5070   34.2000   46.3250 F   0  0  0  0  0  0  0  0  0  0  0  0
   58.8400   32.6630   48.0450 C   0  0  0  0  0  0  0  0  0  0  0  0
   57.8730   32.8810   46.8810 C   0  0  0  0  0  0  0  0  0  0  0  0
   58.4220   28.1210   44.7480 C   0  0  0  0  0  0  0  0  0  0  0  0
   58.1460   27.4760   43.4300 C   0  0  0  0  0  0  0  0  0  0  0  0
   59.4670   27.8290   45.4900 O   0  0  0  0  0  0  0  0  0  0  0  0
   59.9360   28.5409   48.6408 H   0  0  0  0  0  0  0  0  0  0  0  0
   61.0200   27.5795   47.5791 H   0  0  0  0  0  0  0  0  0  0  0  0
   61.1224   29.3728   47.5791 H   0  0  0  0  0  0  0  0  0  0  0  0
   58.0070   30.1105   47.3285 H   0  0  0  0  0  0  0  0  0  0  0  0
   58.5206   31.1845   44.2057 H   0  0  0  0  0  0  0  0  0  0  0  0
   57.5066   31.8162   42.8437 H   0  0  0  0  0  0  0  0  0  0  0  0
   58.2286   33.8236   43.6869 H   0  0  0  0  0  0  0  0  0  0  0  0
   56.7829   33.5675   44.7500 H   0  0  0  0  0  0  0  0  0  0  0  0
   60.2810   34.5064   45.2592 H   0  0  0  0  0  0  0  0  0  0  0  0
   58.6465   35.3161   45.4251 H   0  0  0  0  0  0  0  0  0  0  0  0
   60.5775   35.5324   47.2968 H   0  0  0  0  0  0  0  0  0  0  0  0
   58.8086   35.5333   47.6690 H   0  0  0  0  0  0  0  0  0  0  0  0
   59.7643   34.1617   50.7341 H   0  0  0  0  0  0  0  0  0  0  0  0
   61.6559   33.9101   52.3341 H   0  0  0  0  0  0  0  0  0  0  0  0
   63.9036   33.2169   51.5116 H   0  0  0  0  0  0  0  0  0  0  0  0
   64.2756   32.7995   49.0862 H   0  0  0  0  0  0  0  0  0  0  0  0
   59.3704   31.7102   47.9011 H   0  0  0  0  0  0  0  0  0  0  0  0
   58.2668   32.6406   48.9836 H   0  0  0  0  0  0  0  0  0  0  0  0
   57.3063   31.9568   46.6946 H   0  0  0  0  0  0  0  0  0  0  0  0
   57.1717   33.6916   47.1280 H   0  0  0  0  0  0  0  0  0  0  0  0
   57.7181   26.4760   43.5936 H   0  0  0  0  0  0  0  0  0  0  0  0
   57.4326   28.0918   42.8627 H   0  0  0  0  0  0  0  0  0  0  0  0
   59.0840   27.3851   42.8627 H   0  0  0  0  0  0  0  0  0  0  0  0
  1  2  1  0
  2  3  2  0
  3  4  1  0
  4  5  1  0
  5  6  2  0
  5  7  1  0
  7  8  1  0
  8  9  1  0
  9 10  1  0
 10 11  1  0
 11 12  1  0
 12 13  1  0
 13 14  1  0
 14 15  2  0
 15 16  1  0
 16 17  2  0
 17 18  1  0
 18 19  2  0
 19 20  1  0
 20 21  1  0
 20 22  1  0
 20 23  1  0
 13 24  1  0
 24 25  1  0
  4 26  2  0
 26 27  1  0
 26 28  1  0
 28  2  1  0
 25 10  1  0
 19 14  1  0
  1 29  1  0
  1 30  1  0
  1 31  1  0
  3 32  1  0
  8 33  1  0
  8 34  1  0
  9 35  1  0
  9 36  1  0
 11 37  1  0
 11 38  1  0
 12 39  1  0
 12 40  1  0
 15 41  1  0
 16 42  1  0
 17 43  1  0
 18 44  1  0
 24 45  1  0
 24 46  1  0
 25 47  1  0
 25 48  1  0
 27 49  1  0
 27 50  1  0
 27 51  1  0
M  CHG  1   7  -1
M  END
>  <UniqueID>  (49) 
44

>  <SMILES>  (49) 
Cc1cc(C(=O)[N-]CCN2CCN(c3ccccc3C(F)(F)F)CC2)c(C)o1

>  <Energy>  (49) 
86.31000020223728

>  <Genealogy>  (49) 
Cc1cc(C(=O)[N-]CCN2CCN(c3ccccc3C(F)(F)F)CC2)c(C)o1 (protonated)
Cc1cc(C(=O)[N-]CCN2CCN(c3ccccc3C(F)(F)F)CC2)c(C)o1 (3D coordinates assigned)
Cc1cc(C(=O)[N-]CCN2CCN(c3ccccc3C(F)(F)F)CC2)c(C)o1 (nonaromatic ring conformer: 86.31000020223728 kcal/mol)

>  <smiles>  (49) 
Cc1cc(C(=O)NCCN2CCN(c3ccccc3C(F)(F)F)CC2)c(C)o1

>  <score_type>  (49) 
oracle

>  <origin>  (49) 
adg

>  <m_score__min__energy>  (49) 
-9.7100000000000009

>  <m_primary>  (49) 
energy

$$$$
49:0
     RDKit          3D

 43 45  0  0  0  0  0  0  0  0999 V2000
   59.4948   30.6054   47.5603 H   0  0  0  0  0  0  0  0  0  0  0  0
   59.9990   30.7810   48.5220 C   0  0  0  0  0  0  0  0  0  0  0  0
   61.3330   30.6500   48.5770 C   0  0  0  0  0  0  0  0  0  0  0  0
   61.7526   29.6536   48.7799 H   0  0  0  0  0  0  0  0  0  0  0  0
   62.2690   31.7810   48.3780 C   0  0  0  0  0  0  0  0  0  0  0  0
   62.8910   31.9310   47.1320 C   0  0  0  0  0  0  0  0  0  0  0  0
   62.6924   31.2177   46.3185 H   0  0  0  0  0  0  0  0  0  0  0  0
   63.7650   32.9980   46.9400 C   0  0  0  0  0  0  0  0  0  0  0  0
   64.2708   33.1280   45.9719 H   0  0  0  0  0  0  0  0  0  0  0  0
   63.9920   33.8770   47.9480 N   0  0  0  0  0  0  0  0  0  0  0  0
   63.3740   33.7360   49.1480 C   0  0  0  0  0  0  0  0  0  0  0  0
   63.5673   34.4610   49.9524 H   0  0  0  0  0  0  0  0  0  0  0  0
   62.5160   32.7010   49.3600 N   0  0  0  0  0  0  0  0  0  0  0  0
   62.0320   32.6520   50.2820 H   0  0  0  0  0  0  0  0  0  0  0  0
   59.1700   31.1520   49.6980 C   0  0  0  0  0  0  0  0  0  0  0  0
   58.3280   30.2140   50.3270 C   0  0  0  0  0  0  0  0  0  0  0  0
   58.2697   29.1888   49.9327 H   0  0  0  0  0  0  0  0  0  0  0  0
   57.5650   30.5660   51.4450 C   0  0  0  0  0  0  0  0  0  0  0  0
   56.7430   29.5870   52.0240 O   0  0  0  0  0  0  0  0  0  0  0  0
   55.5480   29.8650   52.7470 C   0  0  0  0  0  0  0  0  0  0  0  0
   55.7532   29.8173   53.8266 H   0  0  0  0  0  0  0  0  0  0  0  0
   55.1874   30.8710   52.4864 H   0  0  0  0  0  0  0  0  0  0  0  0
   54.7804   29.1214   52.4864 H   0  0  0  0  0  0  0  0  0  0  0  0
   57.6470   31.8740   51.9490 C   0  0  0  0  0  0  0  0  0  0  0  0
   57.0457   32.1627   52.8237 H   0  0  0  0  0  0  0  0  0  0  0  0
   58.4880   32.8090   51.3450 C   0  0  0  0  0  0  0  0  0  0  0  0
   58.5493   33.8291   51.7519 H   0  0  0  0  0  0  0  0  0  0  0  0
   59.2590   32.4600   50.2200 C   0  0  0  0  0  0  0  0  0  0  0  0
   60.1100   33.3850   49.5930 O   0  0  0  0  0  0  0  0  0  0  0  0
   59.6820   34.5910   48.9670 C   0  0  0  0  0  0  0  0  0  0  0  0
   58.8408   35.0209   49.5305 H   0  0  0  0  0  0  0  0  0  0  0  0
   60.5101   35.3148   48.9479 H   0  0  0  0  0  0  0  0  0  0  0  0
   59.2440   34.2830   47.5650 C   0  0  0  0  0  0  0  0  0  0  0  0
   58.1270   33.4610   47.3370 C   0  0  0  0  0  0  0  0  0  0  0  0
   57.5927   33.0131   48.1878 H   0  0  0  0  0  0  0  0  0  0  0  0
   57.6930   33.2110   46.0310 C   0  0  0  0  0  0  0  0  0  0  0  0
   56.8241   32.5595   45.8563 H   0  0  0  0  0  0  0  0  0  0  0  0
   58.3620   33.7880   44.9470 C   0  0  0  0  0  0  0  0  0  0  0  0
   58.0217   33.5870   43.9204 H   0  0  0  0  0  0  0  0  0  0  0  0
   59.4630   34.6200   45.1680 C   0  0  0  0  0  0  0  0  0  0  0  0
   59.9865   35.0764   44.3150 H   0  0  0  0  0  0  0  0  0  0  0  0
   59.9000   34.8730   46.4720 C   0  0  0  0  0  0  0  0  0  0  0  0
   60.7606   35.5365   46.6425 H   0  0  0  0  0  0  0  0  0  0  0  0
  1  2  1  0
  2  3  2  0
  3  4  1  0
  3  5  1  0
  5  6  2  0
  6  7  1  0
  6  8  1  0
  8  9  1  0
  8 10  2  0
 10 11  1  0
 11 12  1  0
 11 13  2  0
 13 14  1  0
  2 15  1  0
 15 16  2  0
 16 17  1  0
 16 18  1  0
 18 19  1  0
 19 20  1  0
 20 21  1  0
 20 22  1  0
 20 23  1  0
 18 24  2  0
 24 25  1  0
 24 26  1  0
 26 27  1  0
 26 28  2  0
 28 29  1  0
 29 30  1  0
 30 31  1  0
 30 32  1  0
 30 33  1  0
 33 34  2  0
 34 35  1  0
 34 36  1  0
 36 37  1  0
 36 38  2  0
 38 39  1  0
 38 40  1  0
 40 41  1  0
 40 42  2  0
 42 43  1  0
 13  5  1  0
 28 15  1  0
 42 33  1  0
M  CHG  1  13   1
M  END
>  <UniqueID>  (50) 
45

>  <SMILES>  (50) 
COc1ccc(OCc2ccccc2)c(/C=C/c2ccnc[nH+]2)c1

>  <Energy>  (50) 
50.03336553881459

>  <Genealogy>  (50) 
COc1ccc(OCc2ccccc2)c(C=Cc2ccnc[nH+]2)c1 (protonated)
COc1ccc(OCc2ccccc2)c(/C=C/c2ccnc[nH+]2)c1 (cis-trans isomerization)
COc1ccc(OCc2ccccc2)c(/C=C/c2ccnc[nH+]2)c1 (3D coordinates assigned)
COc1ccc(OCc2ccccc2)c(/C=C/c2ccnc[nH+]2)c1 (optimized conformer: 50.03336553881459 kcal/mol)

>  <smiles>  (50) 
COc1ccc(OCc2ccccc2)c(C=Cc2ccncn2)c1

>  <score_type>  (50) 
oracle

>  <origin>  (50) 
adg

>  <m_score__min__energy>  (50) 
-5.3300000000000001

>  <m_primary>  (50) 
energy

$$$$
