0:0
     RDKit          3D

 24 25  0  0  0  0  0  0  0  0999 V2000
   56.3660   29.3150   42.9030 O   0  0  0  0  0  0  0  0  0  0  0  0
   56.5020   29.5410   44.1350 C   0  0  0  0  0  0  0  0  0  0  0  0
   55.8950   28.6370   45.0690 N   0  0  0  0  0  0  0  0  0  0  0  0
   56.5020   27.4620   45.6260 C   0  0  0  0  0  0  0  0  0  0  0  0
   57.8820   27.4480   45.8530 C   0  0  0  0  0  0  0  0  0  0  0  0
   58.4870   26.3200   46.4100 C   0  0  0  0  0  0  0  0  0  0  0  0
   57.7000   25.2180   46.7500 C   0  0  0  0  0  0  0  0  0  0  0  0
   56.3560   25.2540   46.5460 N   0  0  0  0  0  0  0  0  0  0  0  0
   55.7430   26.3390   46.0030 C   0  0  0  0  0  0  0  0  0  0  0  0
   57.2320   30.7540   44.5750 C   0  0  0  0  0  0  0  0  0  0  0  0
   57.3900   31.8530   43.7120 C   0  0  0  0  0  0  0  0  0  0  0  0
   58.0860   32.9900   44.1360 C   0  0  0  0  0  0  0  0  0  0  0  0
   58.6400   33.0370   45.4180 C   0  0  0  0  0  0  0  0  0  0  0  0
   59.5890   34.5910   45.9930 Br  0  0  0  0  0  0  0  0  0  0  0  0
   58.5030   31.9420   46.2770 C   0  0  0  0  0  0  0  0  0  0  0  0
   57.8070   30.8050   45.8580 C   0  0  0  0  0  0  0  0  0  0  0  0
   58.4909   28.3263   45.5925 H   0  0  0  0  0  0  0  0  0  0  0  0
   59.5737   26.2995   46.5795 H   0  0  0  0  0  0  0  0  0  0  0  0
   58.1670   24.3210   47.1827 H   0  0  0  0  0  0  0  0  0  0  0  0
   54.6526   26.3390   45.8582 H   0  0  0  0  0  0  0  0  0  0  0  0
   56.9641   31.8184   42.6984 H   0  0  0  0  0  0  0  0  0  0  0  0
   58.1975   33.8493   43.4584 H   0  0  0  0  0  0  0  0  0  0  0  0
   58.9439   31.9758   47.2842 H   0  0  0  0  0  0  0  0  0  0  0  0
   57.7081   29.9443   46.5357 H   0  0  0  0  0  0  0  0  0  0  0  0
  1  2  2  0
  2  3  1  0
  3  4  1  0
  4  5  2  0
  5  6  1  0
  6  7  2  0
  7  8  1  0
  8  9  2  0
  2 10  1  0
 10 11  2  0
 11 12  1  0
 12 13  2  0
 13 14  1  0
 13 15  1  0
 15 16  2  0
  9  4  1  0
 16 10  1  0
  5 17  1  0
  6 18  1  0
  7 19  1  0
  9 20  1  0
 11 21  1  0
 12 22  1  0
 15 23  1  0
 16 24  1  0
M  CHG  1   3  -1
M  END
>  <UniqueID>  (1) 
1

>  <SMILES>  (1) 
O=C([N-]c1cccnc1)c1ccc(Br)cc1

>  <Energy>  (1) 
32.55458900657946

>  <Genealogy>  (1) 
O=C([N-]c1cccnc1)c1ccc(Br)cc1 (protonated)
O=C([N-]c1cccnc1)c1ccc(Br)cc1 (3D coordinates assigned)
O=C([N-]c1cccnc1)c1ccc(Br)cc1 (optimized conformer: 32.55458900657946 kcal/mol)

>  <smiles>  (1) 
O=C(Nc1cccnc1)c1ccc(Br)cc1

>  <score_type>  (1) 
oracle

>  <origin>  (1) 
adg

>  <m_score__min__energy>  (1) 
-8.25

>  <m_primary>  (1) 
energy

$$$$
1:0
     RDKit          3D

 46 49  0  0  0  0  0  0  0  0999 V2000
   56.2400   30.0710   43.9220 C   0  0  0  0  0  0  0  0  0  0  0  0
   56.5220   29.6420   45.2500 O   0  0  0  0  0  0  0  0  0  0  0  0
   57.7770   29.7510   45.8660 C   0  0  0  0  0  0  0  0  0  0  0  0
   58.1850   28.8940   46.9050 C   0  0  0  0  0  0  0  0  0  0  0  0
   59.4470   29.0400   47.4890 C   0  0  0  0  0  0  0  0  0  0  0  0
   60.3210   30.0520   47.0470 C   0  0  0  0  0  0  0  0  0  0  0  0
   61.6000   30.2550   47.5930 O   0  0  0  0  0  0  0  0  0  0  0  0
   61.9390   31.1440   48.6610 C   0  0  0  0  0  0  0  0  0  0  0  0
   61.9480   32.6020   48.1880 C   0  0  0  0  0  0  0  0  0  0  0  0
   60.9760   33.4920   48.9710 C   0  0  0  0  0  0  0  0  0  0  0  0
   59.6280   33.3910   48.4040 N   0  0  0  0  0  0  0  0  0  0  0  0
   58.5410   32.6980   48.8660 C   0  0  0  0  0  0  0  0  0  0  0  0
   58.4610   31.9180   50.1260 C   0  0  0  0  0  0  0  0  0  0  0  0
   58.9100   30.6070   50.2690 C   0  0  0  0  0  0  0  0  0  0  0  0
   58.7010   30.0740   51.5460 C   0  0  0  0  0  0  0  0  0  0  0  0
   58.0740   30.9480   52.4210 C   0  0  0  0  0  0  0  0  0  0  0  0
   57.7870   32.3830   51.6000 S   0  0  0  0  0  0  0  0  0  0  0  0
   57.4860   32.7370   48.0100 N   0  0  0  0  0  0  0  0  0  0  0  0
   57.9390   33.4740   46.9840 C   0  0  0  0  0  0  0  0  0  0  0  0
   57.2580   33.8010   45.8130 C   0  0  0  0  0  0  0  0  0  0  0  0
   57.9450   34.5550   44.8450 C   0  0  0  0  0  0  0  0  0  0  0  0
   59.2830   34.9490   45.0650 C   0  0  0  0  0  0  0  0  0  0  0  0
   59.9430   34.5980   46.2580 C   0  0  0  0  0  0  0  0  0  0  0  0
   59.2260   33.8610   47.2070 C   0  0  0  0  0  0  0  0  0  0  0  0
   59.9130   30.8960   46.0080 C   0  0  0  0  0  0  0  0  0  0  0  0
   58.6520   30.7480   45.4250 C   0  0  0  0  0  0  0  0  0  0  0  0
   55.6360   30.9898   43.9540 H   0  0  0  0  0  0  0  0  0  0  0  0
   57.1836   30.2707   43.3930 H   0  0  0  0  0  0  0  0  0  0  0  0
   55.6825   29.2840   43.3930 H   0  0  0  0  0  0  0  0  0  0  0  0
   57.5067   28.1041   47.2600 H   0  0  0  0  0  0  0  0  0  0  0  0
   59.7585   28.3616   48.2970 H   0  0  0  0  0  0  0  0  0  0  0  0
   61.1998   31.0333   49.4681 H   0  0  0  0  0  0  0  0  0  0  0  0
   62.9469   30.8884   49.0199 H   0  0  0  0  0  0  0  0  0  0  0  0
   62.9651   33.0032   48.3084 H   0  0  0  0  0  0  0  0  0  0  0  0
   61.6256   32.6086   47.1363 H   0  0  0  0  0  0  0  0  0  0  0  0
   60.9532   33.1682   50.0220 H   0  0  0  0  0  0  0  0  0  0  0  0
   61.3149   34.5365   48.9069 H   0  0  0  0  0  0  0  0  0  0  0  0
   59.3852   30.0426   49.4531 H   0  0  0  0  0  0  0  0  0  0  0  0
   59.0059   29.0558   51.8294 H   0  0  0  0  0  0  0  0  0  0  0  0
   57.8112   30.7378   53.4683 H   0  0  0  0  0  0  0  0  0  0  0  0
   56.2183   33.4802   45.6513 H   0  0  0  0  0  0  0  0  0  0  0  0
   57.4374   34.8394   43.9115 H   0  0  0  0  0  0  0  0  0  0  0  0
   59.8132   35.5341   44.2991 H   0  0  0  0  0  0  0  0  0  0  0  0
   60.9872   34.8932   46.4380 H   0  0  0  0  0  0  0  0  0  0  0  0
   60.5913   31.6831   45.6470 H   0  0  0  0  0  0  0  0  0  0  0  0
   58.3450   31.4220   44.6117 H   0  0  0  0  0  0  0  0  0  0  0  0
  1  2  1  0
  2  3  1  0
  3  4  2  0
  4  5  1  0
  5  6  2  0
  6  7  1  0
  7  8  1  0
  8  9  1  0
  9 10  1  0
 10 11  1  0
 11 12  1  0
 12 13  1  0
 13 14  2  0
 14 15  1  0
 15 16  2  0
 16 17  1  0
 12 18  2  0
 18 19  1  0
 19 20  2  0
 20 21  1  0
 21 22  2  0
 22 23  1  0
 23 24  2  0
  6 25  1  0
 25 26  2  0
 26  3  1  0
 24 11  1  0
 17 13  1  0
 24 19  1  0
  1 27  1  0
  1 28  1  0
  1 29  1  0
  4 30  1  0
  5 31  1  0
  8 32  1  0
  8 33  1  0
  9 34  1  0
  9 35  1  0
 10 36  1  0
 10 37  1  0
 14 38  1  0
 15 39  1  0
 16 40  1  0
 20 41  1  0
 21 42  1  0
 22 43  1  0
 23 44  1  0
 25 45  1  0
 26 46  1  0
M  END
>  <UniqueID>  (2) 
2

>  <SMILES>  (2) 
COc1ccc(OCCCn2c(-c3cccs3)nc3ccccc32)cc1

>  <Energy>  (2) 
113.0096847272274

>  <Genealogy>  (2) 
COc1ccc(OCCCn2c(-c3cccs3)nc3ccccc32)cc1 (3D coordinates assigned)
COc1ccc(OCCCn2c(-c3cccs3)nc3ccccc32)cc1 (optimized conformer: 113.0096847272274 kcal/mol)

>  <smiles>  (2) 
COc1ccc(OCCCn2c(-c3cccs3)nc3ccccc32)cc1

>  <score_type>  (2) 
oracle

>  <origin>  (2) 
adg

>  <m_score__min__energy>  (2) 
-7.6299999999999999

>  <m_primary>  (2) 
energy

$$$$
2:0
     RDKit          3D

 46 49  0  0  1  0  0  0  0  0999 V2000
   55.5290   23.6790   47.7890 C   0  0  0  0  0  0  0  0  0  0  0  0
   55.5460   24.6360   46.7650 O   0  0  0  0  0  0  0  0  0  0  0  0
   55.9110   24.2800   45.4930 C   0  0  0  0  0  0  0  0  0  0  0  0
   55.3150   23.1830   44.8840 C   0  0  0  0  0  0  0  0  0  0  0  0
   55.6940   22.8410   43.6050 C   0  0  0  0  0  0  0  0  0  0  0  0
   56.6460   23.5600   42.9230 C   0  0  0  0  0  0  0  0  0  0  0  0
   57.2130   24.6400   43.5640 C   0  0  0  0  0  0  0  0  0  0  0  0
   56.8810   25.0380   44.8390 C   0  0  0  0  0  0  0  0  0  0  0  0
   57.5210   26.2250   45.5040 C   0  0  0  0  0  0  0  0  0  0  0  0
   56.5730   27.2380   45.8340 N   0  0  0  0  0  0  0  0  0  0  0  0
   56.5690   28.4600   45.4510 C   0  0  0  0  0  0  0  0  0  0  0  0
   55.5560   28.9650   44.7290 N   0  0  0  0  0  0  0  0  0  0  0  0
   55.6160   30.2330   44.3680 C   0  0  0  0  0  0  0  0  0  0  0  0
   56.6280   31.0690   44.6720 N   0  0  0  0  0  0  0  0  0  0  0  0
   57.6850   30.6150   45.4040 C   0  0  0  0  0  0  0  0  0  0  0  0
   57.6200   29.2890   45.7810 C   0  0  0  0  0  0  0  0  0  0  0  0
   58.7590   29.0640   46.4870 N   0  0  0  0  0  0  0  0  0  0  0  0
   59.4630   30.2090   46.5240 C   0  0  0  0  0  0  0  0  0  0  0  0
   58.8160   31.1840   45.8590 N   0  0  0  0  0  0  0  0  0  0  0  0
   59.1820   32.5480   45.6400 C   0  0  2  0  0  0  0  0  0  0  0  0
   59.6520   33.0920   46.9940 C   0  0  0  0  0  0  0  0  0  0  0  0
   60.0790   34.5210   46.8780 C   0  0  0  0  0  0  0  0  0  0  0  0
   59.6160   35.2260   45.6580 C   0  0  0  0  0  0  0  0  0  0  0  0
   58.5350   34.5780   44.8830 C   0  0  0  0  0  0  0  0  0  0  0  0
   58.0980   33.3520   45.3120 O   0  0  0  0  0  0  0  0  0  0  0  0
   55.5380   24.1862   48.7651 H   0  0  0  0  0  0  0  0  0  0  0  0
   54.6198   23.0658   47.7028 H   0  0  0  0  0  0  0  0  0  0  0  0
   56.4158   23.0339   47.7028 H   0  0  0  0  0  0  0  0  0  0  0  0
   54.5515   22.5961   45.4156 H   0  0  0  0  0  0  0  0  0  0  0  0
   55.2244   21.9733   43.1186 H   0  0  0  0  0  0  0  0  0  0  0  0
   56.9449   23.2831   41.9012 H   0  0  0  0  0  0  0  0  0  0  0  0
   57.9769   25.2189   43.0242 H   0  0  0  0  0  0  0  0  0  0  0  0
   58.0153   25.8890   46.4275 H   0  0  0  0  0  0  0  0  0  0  0  0
   58.2429   26.6581   44.7960 H   0  0  0  0  0  0  0  0  0  0  0  0
   54.7770   28.3210   44.4930 H   0  0  0  0  0  0  0  0  0  0  0  0
   54.7804   30.6360   43.7769 H   0  0  0  0  0  0  0  0  0  0  0  0
   60.4331   30.3318   47.0278 H   0  0  0  0  0  0  0  0  0  0  0  0
   59.9232   32.5690   44.8274 H   0  0  0  0  0  0  0  0  0  0  0  0
   58.8258   33.0209   47.7168 H   0  0  0  0  0  0  0  0  0  0  0  0
   60.5120   32.4954   47.3322 H   0  0  0  0  0  0  0  0  0  0  0  0
   59.6896   35.0636   47.7520 H   0  0  0  0  0  0  0  0  0  0  0  0
   61.1774   34.5056   46.8208 H   0  0  0  0  0  0  0  0  0  0  0  0
   59.2566   36.2196   45.9640 H   0  0  0  0  0  0  0  0  0  0  0  0
   60.4858   35.2377   44.9847 H   0  0  0  0  0  0  0  0  0  0  0  0
   57.6702   35.2578   44.8913 H   0  0  0  0  0  0  0  0  0  0  0  0
   58.9742   34.3887   43.8924 H   0  0  0  0  0  0  0  0  0  0  0  0
  1  2  1  0
  2  3  1  0
  3  4  2  0
  4  5  1  0
  5  6  2  0
  6  7  1  0
  7  8  2  0
  8  9  1  0
  9 10  1  0
 10 11  2  0
 11 12  1  0
 12 13  1  0
 13 14  2  0
 14 15  1  0
 15 16  2  0
 16 17  1  0
 17 18  2  0
 18 19  1  0
 19 20  1  0
 20 21  1  0
 21 22  1  0
 22 23  1  0
 23 24  1  0
 24 25  1  0
  8  3  1  0
 16 11  1  0
 25 20  1  0
 19 15  1  0
  1 26  1  0
  1 27  1  0
  1 28  1  0
  4 29  1  0
  5 30  1  0
  6 31  1  0
  7 32  1  0
  9 33  1  0
  9 34  1  0
 12 35  1  0
 13 36  1  0
 18 37  1  0
 20 38  1  6
 21 39  1  0
 21 40  1  0
 22 41  1  0
 22 42  1  0
 23 43  1  0
 23 44  1  0
 24 45  1  0
 24 46  1  0
M  END
>  <smiles>  (3) 
COc1ccccc1CN=c1[nH]cnc2c1ncn2C1CCCCO1

>  <score_type>  (3) 
oracle

>  <origin>  (3) 
adg

>  <m_score__min__energy>  (3) 
-7.8799999999999999

>  <m_primary>  (3) 
energy

$$$$
3:0
     RDKit          3D

 53 54  0  0  0  0  0  0  0  0999 V2000
   57.8120   25.5570   47.1890 C   0  0  0  0  0  0  0  0  0  0  0  0
   58.6490   25.5130   46.1490 C   0  0  0  0  0  0  0  0  0  0  0  0
   59.7280   26.5420   45.9580 C   0  0  0  0  0  0  0  0  0  0  0  0
   59.1630   27.9350   46.0630 C   0  0  0  0  0  0  0  0  0  0  0  0
   59.8220   28.9030   46.8310 C   0  0  0  0  0  0  0  0  0  0  0  0
   59.3210   30.2150   46.9140 C   0  0  0  0  0  0  0  0  0  0  0  0
   59.9570   31.2090   47.6760 O   0  0  0  0  0  0  0  0  0  0  0  0
   59.9050   31.2950   49.0980 C   0  0  0  0  0  0  0  0  0  0  0  0
   58.1550   30.5580   46.2110 C   0  0  0  0  0  0  0  0  0  0  0  0
   57.6900   31.8780   46.3120 O   0  0  0  0  0  0  0  0  0  0  0  0
   57.6290   32.7840   45.2450 C   0  0  0  0  0  0  0  0  0  0  0  0
   57.3960   32.3880   44.0700 O   0  0  0  0  0  0  0  0  0  0  0  0
   57.9430   34.2250   45.4920 C   0  0  0  0  0  0  0  0  0  0  0  0
   58.9310   34.3670   46.6550 C   0  0  0  0  0  0  0  0  0  0  0  0
   60.3880   34.1950   46.1680 C   0  0  0  0  0  0  0  0  0  0  0  0
   61.3030   33.5640   47.1540 N   0  0  0  0  0  0  0  0  0  0  0  0
   61.2330   34.2200   48.4820 C   0  0  0  0  0  0  0  0  0  0  0  0
   62.4000   33.7810   49.3910 C   0  0  0  0  0  0  0  0  0  0  0  0
   62.9270   32.5410   48.9640 O   0  0  0  0  0  0  0  0  0  0  0  0
   63.5660   32.6910   47.7080 C   0  0  0  0  0  0  0  0  0  0  0  0
   62.7000   33.4640   46.6830 C   0  0  0  0  0  0  0  0  0  0  0  0
   57.4630   29.5810   45.4640 C   0  0  0  0  0  0  0  0  0  0  0  0
   56.2480   29.9260   44.8490 O   0  0  0  0  0  0  0  0  0  0  0  0
   55.9520   29.7290   43.4700 C   0  0  0  0  0  0  0  0  0  0  0  0
   57.9900   28.2790   45.3760 C   0  0  0  0  0  0  0  0  0  0  0  0
   57.0326   24.7888   47.3006 H   0  0  0  0  0  0  0  0  0  0  0  0
   57.9021   26.3614   47.9339 H   0  0  0  0  0  0  0  0  0  0  0  0
   58.5460   24.7022   45.4127 H   0  0  0  0  0  0  0  0  0  0  0  0
   60.4976   26.4056   46.7320 H   0  0  0  0  0  0  0  0  0  0  0  0
   60.1651   26.4131   44.9568 H   0  0  0  0  0  0  0  0  0  0  0  0
   60.7400   28.6350   47.3745 H   0  0  0  0  0  0  0  0  0  0  0  0
   60.4269   30.4319   49.5369 H   0  0  0  0  0  0  0  0  0  0  0  0
   60.3925   32.2245   49.4272 H   0  0  0  0  0  0  0  0  0  0  0  0
   58.8554   31.2950   49.4272 H   0  0  0  0  0  0  0  0  0  0  0  0
   58.3873   34.6595   44.5844 H   0  0  0  0  0  0  0  0  0  0  0  0
   57.0128   34.7530   45.7487 H   0  0  0  0  0  0  0  0  0  0  0  0
   58.8172   35.3647   47.1040 H   0  0  0  0  0  0  0  0  0  0  0  0
   58.7145   33.5839   47.3965 H   0  0  0  0  0  0  0  0  0  0  0  0
   60.3751   33.5691   45.2635 H   0  0  0  0  0  0  0  0  0  0  0  0
   60.7767   35.2083   45.9884 H   0  0  0  0  0  0  0  0  0  0  0  0
   60.9530   32.5840   47.2820 H   0  0  0  0  0  0  0  0  0  0  0  0
   61.2773   35.3105   48.3449 H   0  0  0  0  0  0  0  0  0  0  0  0
   60.2895   33.9243   48.9641 H   0  0  0  0  0  0  0  0  0  0  0  0
   63.1930   34.5424   49.3536 H   0  0  0  0  0  0  0  0  0  0  0  0
   62.0250   33.6705   50.4192 H   0  0  0  0  0  0  0  0  0  0  0  0
   64.5082   33.2389   47.8562 H   0  0  0  0  0  0  0  0  0  0  0  0
   63.7395   31.6835   47.3021 H   0  0  0  0  0  0  0  0  0  0  0  0
   63.1110   34.4760   46.5526 H   0  0  0  0  0  0  0  0  0  0  0  0
   62.7140   32.9218   45.7260 H   0  0  0  0  0  0  0  0  0  0  0  0
   55.0398   29.1219   43.3739 H   0  0  0  0  0  0  0  0  0  0  0  0
   55.7962   30.7042   42.9855 H   0  0  0  0  0  0  0  0  0  0  0  0
   56.7914   29.2088   42.9855 H   0  0  0  0  0  0  0  0  0  0  0  0
   57.4768   27.5240   44.7624 H   0  0  0  0  0  0  0  0  0  0  0  0
  1  2  2  0
  2  3  1  0
  3  4  1  0
  4  5  2  0
  5  6  1  0
  6  7  1  0
  7  8  1  0
  6  9  2  0
  9 10  1  0
 10 11  1  0
 11 12  2  0
 11 13  1  0
 13 14  1  0
 14 15  1  0
 15 16  1  0
 16 17  1  0
 17 18  1  0
 18 19  1  0
 19 20  1  0
 20 21  1  0
  9 22  1  0
 22 23  1  0
 23 24  1  0
 22 25  2  0
 25  4  1  0
 21 16  1  0
  1 26  1  0
  1 27  1  0
  2 28  1  0
  3 29  1  0
  3 30  1  0
  5 31  1  0
  8 32  1  0
  8 33  1  0
  8 34  1  0
 13 35  1  0
 13 36  1  0
 14 37  1  0
 14 38  1  0
 15 39  1  0
 15 40  1  0
 16 41  1  0
 17 42  1  0
 17 43  1  0
 18 44  1  0
 18 45  1  0
 20 46  1  0
 20 47  1  0
 21 48  1  0
 21 49  1  0
 24 50  1  0
 24 51  1  0
 24 52  1  0
 25 53  1  0
M  CHG  1  16   1
M  END
>  <UniqueID>  (4) 
3

>  <SMILES>  (4) 
C=CCc1cc(OC)c(OC(=O)CCC[NH+]2CCOCC2)c(OC)c1

>  <Energy>  (4) 
62.01951366393445

>  <Genealogy>  (4) 
C=CCc1cc(OC)c(OC(=O)CCC[NH+]2CCOCC2)c(OC)c1 (protonated)
C=CCc1cc(OC)c(OC(=O)CCC[NH+]2CCOCC2)c(OC)c1 (3D coordinates assigned)
C=CCc1cc(OC)c(OC(=O)CCC[NH+]2CCOCC2)c(OC)c1 (nonaromatic ring conformer: 62.01951366393445 kcal/mol)

>  <smiles>  (4) 
C=CCc1cc(OC)c(OC(=O)CCCN2CCOCC2)c(OC)c1

>  <score_type>  (4) 
oracle

>  <origin>  (4) 
adg

>  <m_score__min__energy>  (4) 
-5.1299999999999999

>  <m_primary>  (4) 
energy

$$$$
4:0
     RDKit          3D

 58 60  0  0  0  0  0  0  0  0999 V2000
   63.6550   33.1730   47.4380 C   0  0  0  0  0  0  0  0  0  0  0  0
   63.7670   32.3270   48.7060 C   0  0  0  0  0  0  0  0  0  0  0  0
   64.5970   32.9670   49.7560 N   0  0  0  0  0  0  0  0  0  0  0  0
   65.4550   31.9610   50.4230 C   0  0  0  0  0  0  0  0  0  0  0  0
   66.9130   32.4180   50.5010 C   0  0  0  0  0  0  0  0  0  0  0  0
   63.8480   33.8470   50.6960 C   0  0  0  0  0  0  0  0  0  0  0  0
   63.5000   33.2200   52.0650 C   0  0  0  0  0  0  0  0  0  0  0  0
   62.1750   33.6370   52.5300 N   0  0  0  0  0  0  0  0  0  0  0  0
   60.9680   32.9310   52.1830 C   0  0  0  0  0  0  0  0  0  0  0  0
   60.3420   32.1110   53.1360 C   0  0  0  0  0  0  0  0  0  0  0  0
   59.1910   31.3950   52.8180 C   0  0  0  0  0  0  0  0  0  0  0  0
   58.6300   31.4700   51.5330 C   0  0  0  0  0  0  0  0  0  0  0  0
   57.4700   30.7510   51.1950 O   0  0  0  0  0  0  0  0  0  0  0  0
   56.2950   30.6810   51.9980 C   0  0  0  0  0  0  0  0  0  0  0  0
   59.2410   32.2860   50.5590 C   0  0  0  0  0  0  0  0  0  0  0  0
   58.7070   32.3780   49.3020 N   0  0  0  0  0  0  0  0  0  0  0  0
   59.2590   33.1660   48.3320 C   0  0  0  0  0  0  0  0  0  0  0  0
   58.6500   33.2290   46.9800 C   0  0  0  0  0  0  0  0  0  0  0  0
   58.7730   34.3860   46.1910 C   0  0  0  0  0  0  0  0  0  0  0  0
   58.1950   34.4410   44.9220 C   0  0  0  0  0  0  0  0  0  0  0  0
   57.4880   33.3450   44.4250 C   0  0  0  0  0  0  0  0  0  0  0  0
   57.3540   32.1810   45.1900 C   0  0  0  0  0  0  0  0  0  0  0  0
   56.6360   31.1060   44.6440 O   0  0  0  0  0  0  0  0  0  0  0  0
   56.9360   30.4900   43.3950 C   0  0  0  0  0  0  0  0  0  0  0  0
   57.9370   32.1280   46.4710 C   0  0  0  0  0  0  0  0  0  0  0  0
   60.4070   33.9120   48.6250 C   0  0  0  0  0  0  0  0  0  0  0  0
   60.9780   33.8410   49.8910 C   0  0  0  0  0  0  0  0  0  0  0  0
   60.4140   33.0190   50.8820 C   0  0  0  0  0  0  0  0  0  0  0  0
   63.5152   34.2289   47.7129 H   0  0  0  0  0  0  0  0  0  0  0  0
   64.5750   33.0674   46.8443 H   0  0  0  0  0  0  0  0  0  0  0  0
   62.7942   32.8316   46.8443 H   0  0  0  0  0  0  0  0  0  0  0  0
   62.7566   32.1630   49.1088 H   0  0  0  0  0  0  0  0  0  0  0  0
   64.2562   31.3813   48.4296 H   0  0  0  0  0  0  0  0  0  0  0  0
   65.0796   31.7935   51.4433 H   0  0  0  0  0  0  0  0  0  0  0  0
   65.4188   31.0348   49.8306 H   0  0  0  0  0  0  0  0  0  0  0  0
   67.2120   32.5117   51.5554 H   0  0  0  0  0  0  0  0  0  0  0  0
   67.5563   31.6784   50.0018 H   0  0  0  0  0  0  0  0  0  0  0  0
   67.0190   33.3925   50.0018 H   0  0  0  0  0  0  0  0  0  0  0  0
   64.4588   34.7432   50.8798 H   0  0  0  0  0  0  0  0  0  0  0  0
   62.8848   34.0572   50.2081 H   0  0  0  0  0  0  0  0  0  0  0  0
   63.5160   32.1242   51.9698 H   0  0  0  0  0  0  0  0  0  0  0  0
   64.2447   33.5625   52.7986 H   0  0  0  0  0  0  0  0  0  0  0  0
   62.0890   34.5820   52.9650 H   0  0  0  0  0  0  0  0  0  0  0  0
   60.7669   32.0334   54.1476 H   0  0  0  0  0  0  0  0  0  0  0  0
   58.7155   30.7630   53.5825 H   0  0  0  0  0  0  0  0  0  0  0  0
   56.5761   30.6977   53.0614 H   0  0  0  0  0  0  0  0  0  0  0  0
   55.6475   31.5422   51.7763 H   0  0  0  0  0  0  0  0  0  0  0  0
   55.7543   29.7491   51.7763 H   0  0  0  0  0  0  0  0  0  0  0  0
   57.8330   31.8530   49.0740 H   0  0  0  0  0  0  0  0  0  0  0  0
   59.3285   35.2537   46.5764 H   0  0  0  0  0  0  0  0  0  0  0  0
   58.2969   35.3505   44.3118 H   0  0  0  0  0  0  0  0  0  0  0  0
   57.0329   33.3966   43.4249 H   0  0  0  0  0  0  0  0  0  0  0  0
   57.4113   29.5140   43.5723 H   0  0  0  0  0  0  0  0  0  0  0  0
   56.0067   30.3469   42.8241 H   0  0  0  0  0  0  0  0  0  0  0  0
   57.6216   31.1334   42.8241 H   0  0  0  0  0  0  0  0  0  0  0  0
   57.8339   31.2173   47.0793 H   0  0  0  0  0  0  0  0  0  0  0  0
   60.8573   34.5543   47.8538 H   0  0  0  0  0  0  0  0  0  0  0  0
   61.8773   34.4322   50.1185 H   0  0  0  0  0  0  0  0  0  0  0  0
  1  2  1  0
  2  3  1  0
  3  4  1  0
  4  5  1  0
  3  6  1  0
  6  7  1  0
  7  8  1  0
  8  9  1  0
  9 10  2  0
 10 11  1  0
 11 12  2  0
 12 13  1  0
 13 14  1  0
 12 15  1  0
 15 16  2  0
 16 17  1  0
 17 18  1  0
 18 19  2  0
 19 20  1  0
 20 21  2  0
 21 22  1  0
 22 23  1  0
 23 24  1  0
 22 25  2  0
 17 26  2  0
 26 27  1  0
 27 28  2  0
 28  9  1  0
 28 15  1  0
 25 18  1  0
  1 29  1  0
  1 30  1  0
  1 31  1  0
  2 32  1  0
  2 33  1  0
  4 34  1  0
  4 35  1  0
  5 36  1  0
  5 37  1  0
  5 38  1  0
  6 39  1  0
  6 40  1  0
  7 41  1  0
  7 42  1  0
  8 43  1  0
 10 44  1  0
 11 45  1  0
 14 46  1  0
 14 47  1  0
 14 48  1  0
 16 49  1  0
 19 50  1  0
 20 51  1  0
 21 52  1  0
 24 53  1  0
 24 54  1  0
 24 55  1  0
 25 56  1  0
 26 57  1  0
 27 58  1  0
M  CHG  1  16   1
M  END
>  <UniqueID>  (5) 
4

>  <SMILES>  (5) 
CCN(CC)CCNc1ccc(OC)c2[nH+]c(-c3cccc(OC)c3)ccc12

>  <Energy>  (5) 
73.83163340908175

>  <Genealogy>  (5) 
CCN(CC)CCNc1ccc(OC)c2[nH+]c(-c3cccc(OC)c3)ccc12 (protonated)
CCN(CC)CCNc1ccc(OC)c2[nH+]c(-c3cccc(OC)c3)ccc12 (3D coordinates assigned)
CCN(CC)CCNc1ccc(OC)c2[nH+]c(-c3cccc(OC)c3)ccc12 (optimized conformer: 73.83163340908175 kcal/mol)

>  <smiles>  (5) 
CCN(CC)CCNc1ccc(OC)c2nc(-c3cccc(OC)c3)ccc12

>  <score_type>  (5) 
oracle

>  <origin>  (5) 
adg

>  <m_score__min__energy>  (5) 
-5.6299999999999999

>  <m_primary>  (5) 
energy

$$$$
5:0
     RDKit          3D

 29 31  0  0  0  0  0  0  0  0999 V2000
   56.6330   23.5890   43.3390 C   0  0  0  0  0  0  0  0  0  0  0  0
   57.1350   24.1770   44.5330 O   0  0  0  0  0  0  0  0  0  0  0  0
   57.4110   25.5450   44.6860 C   0  0  0  0  0  0  0  0  0  0  0  0
   57.8340   26.3550   43.6160 C   0  0  0  0  0  0  0  0  0  0  0  0
   58.0940   27.7130   43.8200 C   0  0  0  0  0  0  0  0  0  0  0  0
   57.9300   28.2890   45.0910 C   0  0  0  0  0  0  0  0  0  0  0  0
   58.2060   29.6850   45.3120 N   0  0  0  0  0  0  0  0  0  0  0  0
   59.5890   30.2940   46.0240 S   0  0  0  0  0  0  0  0  0  0  0  0
   59.2110   31.9150   45.9460 C   0  0  0  0  0  0  0  0  0  0  0  0
   59.9300   33.0280   46.3700 C   0  0  0  0  0  0  0  0  0  0  0  0
   59.3520   34.2930   46.1810 C   0  0  0  0  0  0  0  0  0  0  0  0
   58.0810   34.4130   45.5820 C   0  0  0  0  0  0  0  0  0  0  0  0
   57.3750   33.2690   45.1650 C   0  0  0  0  0  0  0  0  0  0  0  0
   57.9600   32.0130   45.3540 C   0  0  0  0  0  0  0  0  0  0  0  0
   57.4130   30.7580   45.0130 C   0  0  0  0  0  0  0  0  0  0  0  0
   56.2690   30.6330   44.4990 O   0  0  0  0  0  0  0  0  0  0  0  0
   57.5200   27.4740   46.1580 C   0  0  0  0  0  0  0  0  0  0  0  0
   57.2580   26.1160   45.9540 C   0  0  0  0  0  0  0  0  0  0  0  0
   55.9384   22.7754   43.5949 H   0  0  0  0  0  0  0  0  0  0  0  0
   56.1031   24.3516   42.7494 H   0  0  0  0  0  0  0  0  0  0  0  0
   57.4693   23.1853   42.7494 H   0  0  0  0  0  0  0  0  0  0  0  0
   57.9606   25.9175   42.6147 H   0  0  0  0  0  0  0  0  0  0  0  0
   58.4300   28.3363   42.9782 H   0  0  0  0  0  0  0  0  0  0  0  0
   60.9195   32.9201   46.8382 H   0  0  0  0  0  0  0  0  0  0  0  0
   59.8932   35.1954   46.5017 H   0  0  0  0  0  0  0  0  0  0  0  0
   57.6374   35.4094   45.4394 H   0  0  0  0  0  0  0  0  0  0  0  0
   56.3826   33.3611   44.6996 H   0  0  0  0  0  0  0  0  0  0  0  0
   57.4040   27.9073   47.1624 H   0  0  0  0  0  0  0  0  0  0  0  0
   56.9288   25.4913   46.7974 H   0  0  0  0  0  0  0  0  0  0  0  0
  1  2  1  0
  2  3  1  0
  3  4  2  0
  4  5  1  0
  5  6  2  0
  6  7  1  0
  7  8  1  0
  8  9  1  0
  9 10  2  0
 10 11  1  0
 11 12  2  0
 12 13  1  0
 13 14  2  0
 14 15  1  0
 15 16  2  0
  6 17  1  0
 17 18  2  0
 18  3  1  0
 15  7  1  0
 14  9  1  0
  1 19  1  0
  1 20  1  0
  1 21  1  0
  4 22  1  0
  5 23  1  0
 10 24  1  0
 11 25  1  0
 12 26  1  0
 13 27  1  0
 17 28  1  0
 18 29  1  0
M  END
>  <UniqueID>  (6) 
5

>  <SMILES>  (6) 
COc1ccc(-n2sc3ccccc3c2=O)cc1

>  <Energy>  (6) 
75.80893693423843

>  <Genealogy>  (6) 
COc1ccc(-n2sc3ccccc3c2=O)cc1 (3D coordinates assigned)
COc1ccc(-n2sc3ccccc3c2=O)cc1 (optimized conformer: 75.80893693423843 kcal/mol)

>  <smiles>  (6) 
COc1ccc(-n2sc3ccccc3c2=O)cc1

>  <score_type>  (6) 
oracle

>  <origin>  (6) 
adg

>  <m_score__min__energy>  (6) 
-6.4500000000000002

>  <m_primary>  (6) 
energy

$$$$
6:0
     RDKit          3D

 52 55  0  0  0  0  0  0  0  0999 V2000
   56.1090   29.8370   43.4580 C   0  0  0  0  0  0  0  0  0  0  0  0
   56.4030   30.0840   44.8290 O   0  0  0  0  0  0  0  0  0  0  0  0
   57.4110   30.9490   45.2790 C   0  0  0  0  0  0  0  0  0  0  0  0
   58.4520   30.5190   46.1250 C   0  0  0  0  0  0  0  0  0  0  0  0
   59.4380   31.4150   46.5480 C   0  0  0  0  0  0  0  0  0  0  0  0
   59.3950   32.7590   46.1370 C   0  0  0  0  0  0  0  0  0  0  0  0
   60.3600   33.7050   46.5310 C   0  0  0  0  0  0  0  0  0  0  0  0
   61.4350   33.3520   47.4100 N   0  0  0  0  0  0  0  0  0  0  0  0
   61.2730   33.5370   48.8530 C   0  0  0  0  0  0  0  0  0  0  0  0
   62.1000   32.4980   49.6100 C   0  0  0  0  0  0  0  0  0  0  0  0
   63.4950   32.4810   49.1450 N   0  0  0  0  0  0  0  0  0  0  0  0
   64.4980   31.9060   50.0060 C   0  0  0  0  0  0  0  0  0  0  0  0
   64.1910   30.9440   50.7620 O   0  0  0  0  0  0  0  0  0  0  0  0
   65.8870   32.4820   50.1030 C   0  0  0  0  0  0  0  0  0  0  0  0
   65.9780   33.5340   51.2150 C   0  0  0  0  0  0  0  0  0  0  0  0
   67.2630   34.2380   51.1760 N   0  0  0  0  0  0  0  0  0  0  0  0
   68.3590   33.8500   50.5060 C   0  0  0  0  0  0  0  0  0  0  0  0
   69.3370   34.8010   50.6950 C   0  0  0  0  0  0  0  0  0  0  0  0
   68.8650   35.7850   51.4870 N   0  0  0  0  0  0  0  0  0  0  0  0
   67.5960   35.4120   51.7600 C   0  0  0  0  0  0  0  0  0  0  0  0
   66.6900   36.2090   52.6440 C   0  0  0  0  0  0  0  0  0  0  0  0
   63.8680   33.1110   47.8690 C   0  0  0  0  0  0  0  0  0  0  0  0
   62.7390   33.0050   46.8350 C   0  0  0  0  0  0  0  0  0  0  0  0
   60.2730   34.9820   46.0700 N   0  0  0  0  0  0  0  0  0  0  0  0
   59.2660   35.3700   45.2460 C   0  0  0  0  0  0  0  0  0  0  0  0
   58.3180   34.4780   44.8600 N   0  0  0  0  0  0  0  0  0  0  0  0
   58.3580   33.1880   45.2820 C   0  0  0  0  0  0  0  0  0  0  0  0
   57.3740   32.2860   44.8630 C   0  0  0  0  0  0  0  0  0  0  0  0
   55.2687   29.1310   43.3846 H   0  0  0  0  0  0  0  0  0  0  0  0
   55.8379   30.7823   42.9651 H   0  0  0  0  0  0  0  0  0  0  0  0
   56.9933   29.4069   42.9651 H   0  0  0  0  0  0  0  0  0  0  0  0
   58.4893   29.4704   46.4552 H   0  0  0  0  0  0  0  0  0  0  0  0
   60.2497   31.0677   47.2041 H   0  0  0  0  0  0  0  0  0  0  0  0
   61.6125   34.5456   49.1312 H   0  0  0  0  0  0  0  0  0  0  0  0
   60.2118   33.4145   49.1156 H   0  0  0  0  0  0  0  0  0  0  0  0
   62.0832   32.7397   50.6830 H   0  0  0  0  0  0  0  0  0  0  0  0
   61.6616   31.5059   49.4268 H   0  0  0  0  0  0  0  0  0  0  0  0
   66.5972   31.6702   50.3189 H   0  0  0  0  0  0  0  0  0  0  0  0
   66.1292   32.9670   49.1458 H   0  0  0  0  0  0  0  0  0  0  0  0
   65.1652   34.2638   51.0857 H   0  0  0  0  0  0  0  0  0  0  0  0
   65.8905   33.0232   52.1852 H   0  0  0  0  0  0  0  0  0  0  0  0
   68.4590   32.9314   49.9092 H   0  0  0  0  0  0  0  0  0  0  0  0
   70.3489   34.7636   50.2654 H   0  0  0  0  0  0  0  0  0  0  0  0
   66.9281   35.9995   53.6973 H   0  0  0  0  0  0  0  0  0  0  0  0
   66.8311   37.2811   52.4424 H   0  0  0  0  0  0  0  0  0  0  0  0
   65.6446   35.9324   52.4424 H   0  0  0  0  0  0  0  0  0  0  0  0
   64.0903   34.1735   48.0471 H   0  0  0  0  0  0  0  0  0  0  0  0
   64.7492   32.5864   47.4711 H   0  0  0  0  0  0  0  0  0  0  0  0
   62.9541   33.6908   46.0023 H   0  0  0  0  0  0  0  0  0  0  0  0
   62.6916   31.9621   46.4884 H   0  0  0  0  0  0  0  0  0  0  0  0
   59.2181   36.4098   44.8902 H   0  0  0  0  0  0  0  0  0  0  0  0
   56.5649   32.6295   44.2017 H   0  0  0  0  0  0  0  0  0  0  0  0
  1  2  1  0
  2  3  1  0
  3  4  2  0
  4  5  1  0
  5  6  2  0
  6  7  1  0
  7  8  1  0
  8  9  1  0
  9 10  1  0
 10 11  1  0
 11 12  1  0
 12 13  2  0
 12 14  1  0
 14 15  1  0
 15 16  1  0
 16 17  1  0
 17 18  2  0
 18 19  1  0
 19 20  2  0
 20 21  1  0
 11 22  1  0
 22 23  1  0
  7 24  2  0
 24 25  1  0
 25 26  2  0
 26 27  1  0
 27 28  2  0
 28  3  1  0
 27  6  1  0
 23  8  1  0
 20 16  1  0
  1 29  1  0
  1 30  1  0
  1 31  1  0
  4 32  1  0
  5 33  1  0
  9 34  1  0
  9 35  1  0
 10 36  1  0
 10 37  1  0
 14 38  1  0
 14 39  1  0
 15 40  1  0
 15 41  1  0
 17 42  1  0
 18 43  1  0
 21 44  1  0
 21 45  1  0
 21 46  1  0
 22 47  1  0
 22 48  1  0
 23 49  1  0
 23 50  1  0
 25 51  1  0
 28 52  1  0
M  END
>  <UniqueID>  (7) 
6

>  <SMILES>  (7) 
COc1ccc2c(N3CCN(C(=O)CCn4ccnc4C)CC3)ncnc2c1

>  <Energy>  (7) 
88.19046477657598

>  <Genealogy>  (7) 
COc1ccc2c(N3CCN(C(=O)CCn4ccnc4C)CC3)ncnc2c1 (3D coordinates assigned)
COc1ccc2c(N3CCN(C(=O)CCn4ccnc4C)CC3)ncnc2c1 (nonaromatic ring conformer: 88.19046477657598 kcal/mol)

>  <smiles>  (7) 
COc1ccc2c(N3CCN(C(=O)CCn4ccnc4C)CC3)ncnc2c1

>  <score_type>  (7) 
oracle

>  <origin>  (7) 
adg

>  <m_score__min__energy>  (7) 
-7.8499999999999996

>  <m_primary>  (7) 
energy

$$$$
7:0
     RDKit          3D

 33 35  0  0  0  0  0  0  0  0999 V2000
   56.0914   21.9539   48.5552 H   0  0  0  0  0  0  0  0  0  0  0  0
   56.1180   22.4970   47.5990 C   0  0  0  0  0  0  0  0  0  0  0  0
   55.8990   23.8760   47.5750 C   0  0  0  0  0  0  0  0  0  0  0  0
   55.6815   24.4122   48.5105 H   0  0  0  0  0  0  0  0  0  0  0  0
   55.9550   24.5790   46.3660 C   0  0  0  0  0  0  0  0  0  0  0  0
   55.6830   25.9890   46.3610 N   0  0  0  0  0  0  0  0  0  0  0  0
   56.4620   26.9480   45.9450 C   0  0  0  0  0  0  0  0  0  0  0  0
   55.9010   27.9860   45.2670 N   0  0  0  0  0  0  0  0  0  0  0  0
   56.6310   29.0370   44.8060 C   0  0  0  0  0  0  0  0  0  0  0  0
   56.0060   30.0760   44.1080 C   0  0  0  0  0  0  0  0  0  0  0  0
   54.9206   30.0452   43.9319 H   0  0  0  0  0  0  0  0  0  0  0  0
   56.7610   31.1540   43.6340 C   0  0  0  0  0  0  0  0  0  0  0  0
   56.2682   31.9697   43.0846 H   0  0  0  0  0  0  0  0  0  0  0  0
   58.1410   31.1970   43.8570 C   0  0  0  0  0  0  0  0  0  0  0  0
   58.7305   32.0466   43.4819 H   0  0  0  0  0  0  0  0  0  0  0  0
   58.7740   30.1640   44.5550 C   0  0  0  0  0  0  0  0  0  0  0  0
   59.8594   30.2017   44.7293 H   0  0  0  0  0  0  0  0  0  0  0  0
   58.0230   29.0790   45.0330 C   0  0  0  0  0  0  0  0  0  0  0  0
   58.6240   28.0340   45.7420 C   0  0  0  0  0  0  0  0  0  0  0  0
   59.7070   28.0510   45.9341 H   0  0  0  0  0  0  0  0  0  0  0  0
   57.8490   26.9690   46.2060 C   0  0  0  0  0  0  0  0  0  0  0  0
   58.3172   26.1504   46.7722 H   0  0  0  0  0  0  0  0  0  0  0  0
   56.1700   23.8750   45.1680 C   0  0  0  0  0  0  0  0  0  0  0  0
   56.1687   24.4139   44.2091 H   0  0  0  0  0  0  0  0  0  0  0  0
   56.3860   22.4900   45.1890 C   0  0  0  0  0  0  0  0  0  0  0  0
   56.6980   21.6290   43.6840 S   0  0  0  0  0  0  0  0  0  0  0  0
   55.8920   22.2320   42.5680 O   0  0  0  0  0  0  0  0  0  0  0  0
   58.1570   21.7350   43.3370 O   0  0  0  0  0  0  0  0  0  0  0  0
   56.2670   19.9660   43.8700 N   0  0  0  0  0  0  0  0  0  0  0  0
   56.9800   19.5350   44.5010 H   0  0  0  0  0  0  0  0  0  0  0  0
   56.3820   19.5140   42.9350 H   0  0  0  0  0  0  0  0  0  0  0  0
   56.3710   21.8050   46.4110 C   0  0  0  0  0  0  0  0  0  0  0  0
   56.5585   20.7214   46.4357 H   0  0  0  0  0  0  0  0  0  0  0  0
  1  2  1  0
  2  3  2  0
  3  4  1  0
  3  5  1  0
  5  6  1  0
  6  7  2  0
  7  8  1  0
  8  9  1  0
  9 10  2  0
 10 11  1  0
 10 12  1  0
 12 13  1  0
 12 14  2  0
 14 15  1  0
 14 16  1  0
 16 17  1  0
 16 18  2  0
 18 19  1  0
 19 20  1  0
 19 21  2  0
 21 22  1  0
  5 23  2  0
 23 24  1  0
 23 25  1  0
 25 26  1  0
 26 27  2  0
 26 28  2  0
 26 29  1  0
 29 30  1  0
 29 31  1  0
 25 32  2  0
 32 33  1  0
 32  2  1  0
 21  7  1  0
 18  9  1  0
M  CHG  1   8  -1
M  END
>  <UniqueID>  (8) 
7

>  <SMILES>  (8) 
NS(=O)(=O)c1cccc(/N=c2\ccc3ccccc3[n-]2)c1

>  <Energy>  (8) 
46.78833586236725

>  <Genealogy>  (8) 
NS(=O)(=O)c1cccc(N=c2ccc3ccccc3[n-]2)c1 (protonated)
NS(=O)(=O)c1cccc(/N=c2\ccc3ccccc3[n-]2)c1 (cis-trans isomerization)
NS(=O)(=O)c1cccc(/N=c2\ccc3ccccc3[n-]2)c1 (3D coordinates assigned)
NS(=O)(=O)c1cccc(/N=c2\ccc3ccccc3[n-]2)c1 (optimized conformer: 46.78833586236725 kcal/mol)

>  <smiles>  (8) 
NS(=O)(=O)c1cccc(N=c2ccc3ccccc3[nH]2)c1

>  <score_type>  (8) 
oracle

>  <origin>  (8) 
adg

>  <m_score__min__energy>  (8) 
-10.289999999999999

>  <m_primary>  (8) 
energy

$$$$
8:0
     RDKit          3D

 56 58  0  0  0  0  0  0  0  0999 V2000
   62.5200   33.8270   49.3580 C   0  0  0  0  0  0  0  0  0  0  0  0
   61.4960   34.0550   48.2860 C   0  0  0  0  0  0  0  0  0  0  0  0
   60.2340   34.5710   48.6170 C   0  0  0  0  0  0  0  0  0  0  0  0
   59.2590   34.7340   47.6290 C   0  0  0  0  0  0  0  0  0  0  0  0
   59.5350   34.3830   46.2970 C   0  0  0  0  0  0  0  0  0  0  0  0
   58.4610   34.4960   45.2430 C   0  0  0  0  0  0  0  0  0  0  0  0
   57.3920   33.4120   45.4120 C   0  0  0  0  0  0  0  0  0  0  0  0
   58.0090   32.0880   45.4990 N   0  0  0  0  0  0  0  0  0  0  0  0
   57.4410   30.9320   44.8650 C   0  0  0  0  0  0  0  0  0  0  0  0
   56.2310   30.9320   44.5100 O   0  0  0  0  0  0  0  0  0  0  0  0
   58.2940   29.7410   44.5440 C   0  0  0  0  0  0  0  0  0  0  0  0
   58.7070   29.0330   45.7620 N   0  0  0  0  0  0  0  0  0  0  0  0
   58.0880   27.7870   46.1390 C   0  0  0  0  0  0  0  0  0  0  0  0
   56.8350   27.4310   45.6110 C   0  0  0  0  0  0  0  0  0  0  0  0
   56.2420   26.2120   45.9520 C   0  0  0  0  0  0  0  0  0  0  0  0
   56.8870   25.3360   46.8390 C   0  0  0  0  0  0  0  0  0  0  0  0
   56.2650   24.0140   47.1790 C   0  0  0  0  0  0  0  0  0  0  0  0
   58.1470   25.6780   47.3510 C   0  0  0  0  0  0  0  0  0  0  0  0
   58.7420   26.8950   47.0080 C   0  0  0  0  0  0  0  0  0  0  0  0
   59.9440   29.7330   46.7680 S   0  0  0  0  0  0  0  0  0  0  0  0
   60.5430   30.9360   46.0860 O   0  0  0  0  0  0  0  0  0  0  0  0
   61.0310   28.7190   47.0100 O   0  0  0  0  0  0  0  0  0  0  0  0
   59.2440   30.2660   48.2950 C   0  0  0  0  0  0  0  0  0  0  0  0
   58.8680   31.6040   48.4840 C   0  0  0  0  0  0  0  0  0  0  0  0
   58.3490   32.0200   49.7130 C   0  0  0  0  0  0  0  0  0  0  0  0
   58.1970   31.1010   50.7550 C   0  0  0  0  0  0  0  0  0  0  0  0
   58.5700   29.7680   50.5710 C   0  0  0  0  0  0  0  0  0  0  0  0
   59.0970   29.3520   49.3470 C   0  0  0  0  0  0  0  0  0  0  0  0
   60.7920   33.8500   45.9710 C   0  0  0  0  0  0  0  0  0  0  0  0
   61.7650   33.6820   46.9600 C   0  0  0  0  0  0  0  0  0  0  0  0
   62.0468   33.9324   50.3454 H   0  0  0  0  0  0  0  0  0  0  0  0
   62.9369   32.8140   49.2574 H   0  0  0  0  0  0  0  0  0  0  0  0
   63.3273   34.5674   49.2574 H   0  0  0  0  0  0  0  0  0  0  0  0
   60.0111   34.8483   49.6579 H   0  0  0  0  0  0  0  0  0  0  0  0
   58.2715   35.1388   47.8954 H   0  0  0  0  0  0  0  0  0  0  0  0
   57.9840   35.4839   45.3233 H   0  0  0  0  0  0  0  0  0  0  0  0
   58.9306   34.3667   44.2567 H   0  0  0  0  0  0  0  0  0  0  0  0
   56.8226   33.6065   46.3328 H   0  0  0  0  0  0  0  0  0  0  0  0
   56.7235   33.4346   44.5387 H   0  0  0  0  0  0  0  0  0  0  0  0
   58.9880   32.0410   45.8570 H   0  0  0  0  0  0  0  0  0  0  0  0
   57.7207   29.0518   43.9065 H   0  0  0  0  0  0  0  0  0  0  0  0
   59.1979   30.0927   44.0251 H   0  0  0  0  0  0  0  0  0  0  0  0
   56.3172   28.1168   44.9243 H   0  0  0  0  0  0  0  0  0  0  0  0
   55.2665   25.9383   45.5237 H   0  0  0  0  0  0  0  0  0  0  0  0
   56.2130   23.9036   48.2722 H   0  0  0  0  0  0  0  0  0  0  0  0
   55.2502   23.9669   46.7571 H   0  0  0  0  0  0  0  0  0  0  0  0
   56.8756   23.2021   46.7571 H   0  0  0  0  0  0  0  0  0  0  0  0
   58.6697   24.9846   48.0262 H   0  0  0  0  0  0  0  0  0  0  0  0
   59.7277   27.1570   47.4200 H   0  0  0  0  0  0  0  0  0  0  0  0
   58.9819   32.3273   47.6631 H   0  0  0  0  0  0  0  0  0  0  0  0
   58.0600   33.0711   49.8604 H   0  0  0  0  0  0  0  0  0  0  0  0
   57.7834   31.4279   51.7204 H   0  0  0  0  0  0  0  0  0  0  0  0
   58.4485   29.0451   51.3912 H   0  0  0  0  0  0  0  0  0  0  0  0
   59.3979   28.3031   49.2079 H   0  0  0  0  0  0  0  0  0  0  0  0
   61.0122   33.5632   44.9321 H   0  0  0  0  0  0  0  0  0  0  0  0
   62.7448   33.2560   46.6983 H   0  0  0  0  0  0  0  0  0  0  0  0
  1  2  1  0
  2  3  2  0
  3  4  1  0
  4  5  2  0
  5  6  1  0
  6  7  1  0
  7  8  1  0
  8  9  1  0
  9 10  2  0
  9 11  1  0
 11 12  1  0
 12 13  1  0
 13 14  2  0
 14 15  1  0
 15 16  2  0
 16 17  1  0
 16 18  1  0
 18 19  2  0
 12 20  1  0
 20 21  2  0
 20 22  2  0
 20 23  1  0
 23 24  2  0
 24 25  1  0
 25 26  2  0
 26 27  1  0
 27 28  2  0
  5 29  1  0
 29 30  2  0
 30  2  1  0
 19 13  1  0
 28 23  1  0
  1 31  1  0
  1 32  1  0
  1 33  1  0
  3 34  1  0
  4 35  1  0
  6 36  1  0
  6 37  1  0
  7 38  1  0
  7 39  1  0
  8 40  1  0
 11 41  1  0
 11 42  1  0
 14 43  1  0
 15 44  1  0
 17 45  1  0
 17 46  1  0
 17 47  1  0
 18 48  1  0
 19 49  1  0
 24 50  1  0
 25 51  1  0
 26 52  1  0
 27 53  1  0
 28 54  1  0
 29 55  1  0
 30 56  1  0
M  END
>  <UniqueID>  (9) 
8

>  <SMILES>  (9) 
Cc1ccc(CCNC(=O)CN(c2ccc(C)cc2)S(=O)(=O)c2ccccc2)cc1

>  <Energy>  (9) 
53.31230131140534

>  <Genealogy>  (9) 
Cc1ccc(CCNC(=O)CN(c2ccc(C)cc2)S(=O)(=O)c2ccccc2)cc1 (3D coordinates assigned)
Cc1ccc(CCNC(=O)CN(c2ccc(C)cc2)S(=O)(=O)c2ccccc2)cc1 (optimized conformer: 53.31230131140534 kcal/mol)

>  <smiles>  (9) 
Cc1ccc(CCNC(=O)CN(c2ccc(C)cc2)S(=O)(=O)c2ccccc2)cc1

>  <score_type>  (9) 
oracle

>  <origin>  (9) 
adg

>  <m_score__min__energy>  (9) 
-9.0299999999999994

>  <m_primary>  (9) 
energy

$$$$
9:0
     RDKit          3D

 41 44  0  0  0  0  0  0  0  0999 V2000
   58.5070   29.1110   46.7230 C   0  0  0  0  0  0  0  0  0  0  0  0
   57.5810   30.0990   46.2860 O   0  0  0  0  0  0  0  0  0  0  0  0
   57.2600   30.3030   44.9390 C   0  0  0  0  0  0  0  0  0  0  0  0
   56.6160   29.3300   44.2330 N   0  0  0  0  0  0  0  0  0  0  0  0
   56.3100   29.4770   42.9180 C   0  0  0  0  0  0  0  0  0  0  0  0
   56.6630   30.6460   42.2460 C   0  0  0  0  0  0  0  0  0  0  0  0
   57.3210   31.6610   42.9380 C   0  0  0  0  0  0  0  0  0  0  0  0
   57.6210   31.5070   44.3020 C   0  0  0  0  0  0  0  0  0  0  0  0
   58.3100   32.5940   45.0380 C   0  0  0  0  0  0  0  0  0  0  0  0
   58.3780   33.8890   44.4980 C   0  0  0  0  0  0  0  0  0  0  0  0
   59.0530   34.9050   45.1800 C   0  0  0  0  0  0  0  0  0  0  0  0
   59.6670   34.6390   46.4060 C   0  0  0  0  0  0  0  0  0  0  0  0
   59.6010   33.3540   46.9630 C   0  0  0  0  0  0  0  0  0  0  0  0
   60.2370   33.0730   48.2250 N   0  0  0  0  0  0  0  0  0  0  0  0
   59.4480   32.7480   49.3030 C   0  0  0  0  0  0  0  0  0  0  0  0
   58.1910   32.7190   49.1940 O   0  0  0  0  0  0  0  0  0  0  0  0
   60.0230   32.4310   50.5350 C   0  0  0  0  0  0  0  0  0  0  0  0
   61.4050   32.4350   50.6760 C   0  0  0  0  0  0  0  0  0  0  0  0
   62.2110   32.7680   49.5860 C   0  0  0  0  0  0  0  0  0  0  0  0
   63.6060   32.7830   49.7050 C   0  0  0  0  0  0  0  0  0  0  0  0
   64.3920   33.1290   48.6090 C   0  0  0  0  0  0  0  0  0  0  0  0
   63.7770   33.4680   47.4050 C   0  0  0  0  0  0  0  0  0  0  0  0
   62.4200   33.4540   47.2950 N   0  0  0  0  0  0  0  0  0  0  0  0
   61.6120   33.0990   48.3460 C   0  0  0  0  0  0  0  0  0  0  0  0
   58.9070   32.3400   46.2850 C   0  0  0  0  0  0  0  0  0  0  0  0
   58.5278   29.0888   47.8226 H   0  0  0  0  0  0  0  0  0  0  0  0
   58.1992   28.1260   46.3421 H   0  0  0  0  0  0  0  0  0  0  0  0
   59.5098   29.3544   46.3421 H   0  0  0  0  0  0  0  0  0  0  0  0
   55.7833   28.6731   42.3830 H   0  0  0  0  0  0  0  0  0  0  0  0
   56.4243   30.7663   41.1790 H   0  0  0  0  0  0  0  0  0  0  0  0
   57.6064   32.5856   42.4148 H   0  0  0  0  0  0  0  0  0  0  0  0
   57.8970   34.1047   43.5325 H   0  0  0  0  0  0  0  0  0  0  0  0
   59.1009   35.9165   44.7503 H   0  0  0  0  0  0  0  0  0  0  0  0
   60.2037   35.4397   46.9359 H   0  0  0  0  0  0  0  0  0  0  0  0
   59.3826   32.1784   51.3930 H   0  0  0  0  0  0  0  0  0  0  0  0
   61.8623   32.1768   51.6426 H   0  0  0  0  0  0  0  0  0  0  0  0
   64.0801   32.5219   50.6626 H   0  0  0  0  0  0  0  0  0  0  0  0
   65.4888   33.1348   48.6926 H   0  0  0  0  0  0  0  0  0  0  0  0
   64.3923   33.7488   46.5375 H   0  0  0  0  0  0  0  0  0  0  0  0
   62.0220   33.7380   46.3730 H   0  0  0  0  0  0  0  0  0  0  0  0
   58.8296   31.3384   46.7330 H   0  0  0  0  0  0  0  0  0  0  0  0
  1  2  1  0
  2  3  1  0
  3  4  2  0
  4  5  1  0
  5  6  2  0
  6  7  1  0
  7  8  2  0
  8  9  1  0
  9 10  2  0
 10 11  1  0
 11 12  2  0
 12 13  1  0
 13 14  1  0
 14 15  1  0
 15 16  2  0
 15 17  1  0
 17 18  2  0
 18 19  1  0
 19 20  2  0
 20 21  1  0
 21 22  2  0
 22 23  1  0
 23 24  2  0
 13 25  2  0
  8  3  1  0
 25  9  1  0
 24 14  1  0
 24 19  1  0
  1 26  1  0
  1 27  1  0
  1 28  1  0
  5 29  1  0
  6 30  1  0
  7 31  1  0
 10 32  1  0
 11 33  1  0
 12 34  1  0
 17 35  1  0
 18 36  1  0
 20 37  1  0
 21 38  1  0
 22 39  1  0
 23 40  1  0
 25 41  1  0
M  CHG  1  23   1
M  END
>  <UniqueID>  (10) 
9

>  <SMILES>  (10) 
COc1ncccc1-c1cccc(-n2c(=O)ccc3ccc[nH+]c32)c1

>  <Energy>  (10) 
64.85847494021307

>  <Genealogy>  (10) 
COc1ncccc1-c1cccc(-n2c(=O)ccc3ccc[nH+]c32)c1 (protonated)
COc1ncccc1-c1cccc(-n2c(=O)ccc3ccc[nH+]c32)c1 (3D coordinates assigned)
COc1ncccc1-c1cccc(-n2c(=O)ccc3ccc[nH+]c32)c1 (optimized conformer: 64.85847494021307 kcal/mol)

>  <smiles>  (10) 
COc1ncccc1-c1cccc(-n2c(=O)ccc3cccnc32)c1

>  <score_type>  (10) 
oracle

>  <origin>  (10) 
adg

>  <m_score__min__energy>  (10) 
-6.6200000000000001

>  <m_primary>  (10) 
energy

$$$$
10:0
     RDKit          3D

 49 52  0  0  0  0  0  0  0  0999 V2000
   59.0070   29.9230   45.2050 C   0  0  0  0  0  0  0  0  0  0  0  0
   59.0240   30.0920   46.7080 C   0  0  0  0  0  0  0  0  0  0  0  0
   59.0950   28.9820   47.5790 C   0  0  0  0  0  0  0  0  0  0  0  0
   59.0290   27.5800   47.1190 C   0  0  0  0  0  0  0  0  0  0  0  0
   60.1000   26.7580   46.7800 C   0  0  0  0  0  0  0  0  0  0  0  0
   59.7060   25.5110   46.2810 C   0  0  0  0  0  0  0  0  0  0  0  0
   58.3290   25.3510   46.2020 C   0  0  0  0  0  0  0  0  0  0  0  0
   57.6040   26.7660   46.7460 S   0  0  0  0  0  0  0  0  0  0  0  0
   59.2350   29.1940   48.9120 N   0  0  0  0  0  0  0  0  0  0  0  0
   59.2690   30.4370   49.4560 C   0  0  0  0  0  0  0  0  0  0  0  0
   59.4080   30.5800   50.8910 N   0  0  0  0  0  0  0  0  0  0  0  0
   58.8970   29.5270   51.7790 C   0  0  0  0  0  0  0  0  0  0  0  0
   57.4730   29.8470   52.2600 C   0  0  0  0  0  0  0  0  0  0  0  0
   57.2590   31.2980   52.7410 C   0  0  0  0  0  0  0  0  0  0  0  0
   57.3560   32.3590   51.6210 C   0  0  0  0  0  0  0  0  0  0  0  0
   58.7840   32.9110   51.4500 C   0  0  0  0  0  0  0  0  0  0  0  0
   59.8660   31.8250   51.5240 C   0  0  0  0  0  0  0  0  0  0  0  0
   59.1320   31.5210   48.6390 N   0  0  0  0  0  0  0  0  0  0  0  0
   58.9960   31.3800   47.2900 C   0  0  0  0  0  0  0  0  0  0  0  0
   58.8300   32.5970   46.4670 C   0  0  0  0  0  0  0  0  0  0  0  0
   57.6380   32.7780   45.7480 C   0  0  0  0  0  0  0  0  0  0  0  0
   57.4570   33.9190   44.9610 C   0  0  0  0  0  0  0  0  0  0  0  0
   58.4650   34.8820   44.8810 C   0  0  0  0  0  0  0  0  0  0  0  0
   59.6610   34.7020   45.5800 C   0  0  0  0  0  0  0  0  0  0  0  0
   59.8530   33.5620   46.3710 C   0  0  0  0  0  0  0  0  0  0  0  0
   61.3950   33.3530   47.1940 Cl  0  0  0  0  0  0  0  0  0  0  0  0
   58.8997   28.8567   44.9571 H   0  0  0  0  0  0  0  0  0  0  0  0
   58.1608   30.4846   44.7824 H   0  0  0  0  0  0  0  0  0  0  0  0
   59.9481   30.3048   44.7824 H   0  0  0  0  0  0  0  0  0  0  0  0
   61.1520   27.0587   46.8931 H   0  0  0  0  0  0  0  0  0  0  0  0
   60.4204   24.7308   45.9796 H   0  0  0  0  0  0  0  0  0  0  0  0
   57.8035   24.4530   45.8450 H   0  0  0  0  0  0  0  0  0  0  0  0
   58.8850   28.5721   51.2331 H   0  0  0  0  0  0  0  0  0  0  0  0
   59.5551   29.4635   52.6581 H   0  0  0  0  0  0  0  0  0  0  0  0
   56.7805   29.6579   51.4266 H   0  0  0  0  0  0  0  0  0  0  0  0
   57.2908   29.2031   53.1330 H   0  0  0  0  0  0  0  0  0  0  0  0
   56.2596   31.3667   53.1953 H   0  0  0  0  0  0  0  0  0  0  0  0
   58.0678   31.5167   53.4537 H   0  0  0  0  0  0  0  0  0  0  0  0
   57.0398   31.9001   50.6726 H   0  0  0  0  0  0  0  0  0  0  0  0
   56.7050   33.2001   51.9016 H   0  0  0  0  0  0  0  0  0  0  0  0
   58.8522   33.4060   50.4701 H   0  0  0  0  0  0  0  0  0  0  0  0
   58.9655   33.6097   52.2800 H   0  0  0  0  0  0  0  0  0  0  0  0
   60.7687   32.1809   51.0058 H   0  0  0  0  0  0  0  0  0  0  0  0
   60.0843   31.6199   52.5824 H   0  0  0  0  0  0  0  0  0  0  0  0
   59.1040   32.4860   49.0330 H   0  0  0  0  0  0  0  0  0  0  0  0
   56.8435   32.0193   45.8041 H   0  0  0  0  0  0  0  0  0  0  0  0
   56.5189   34.0585   44.4038 H   0  0  0  0  0  0  0  0  0  0  0  0
   58.3172   35.7828   44.2672 H   0  0  0  0  0  0  0  0  0  0  0  0
   60.4558   35.4591   45.5089 H   0  0  0  0  0  0  0  0  0  0  0  0
  1  2  1  0
  2  3  2  0
  3  4  1  0
  4  5  2  0
  5  6  1  0
  6  7  2  0
  7  8  1  0
  3  9  1  0
  9 10  2  0
 10 11  1  0
 11 12  1  0
 12 13  1  0
 13 14  1  0
 14 15  1  0
 15 16  1  0
 16 17  1  0
 10 18  1  0
 18 19  2  0
 19 20  1  0
 20 21  2  0
 21 22  1  0
 22 23  2  0
 23 24  1  0
 24 25  2  0
 25 26  1  0
 19  2  1  0
 25 20  1  0
  8  4  1  0
 17 11  1  0
  1 27  1  0
  1 28  1  0
  1 29  1  0
  5 30  1  0
  6 31  1  0
  7 32  1  0
 12 33  1  0
 12 34  1  0
 13 35  1  0
 13 36  1  0
 14 37  1  0
 14 38  1  0
 15 39  1  0
 15 40  1  0
 16 41  1  0
 16 42  1  0
 17 43  1  0
 17 44  1  0
 18 45  1  0
 21 46  1  0
 22 47  1  0
 23 48  1  0
 24 49  1  0
M  CHG  1  18   1
M  END
>  <UniqueID>  (11) 
10

>  <SMILES>  (11) 
Cc1c(-c2cccs2)nc(N2CCCCCC2)[nH+]c1-c1ccccc1Cl

>  <Energy>  (11) 
93.78567000425915

>  <Genealogy>  (11) 
Cc1c(-c2cccs2)nc(N2CCCCCC2)[nH+]c1-c1ccccc1Cl (protonated)
Cc1c(-c2cccs2)nc(N2CCCCCC2)[nH+]c1-c1ccccc1Cl (3D coordinates assigned)
Cc1c(-c2cccs2)nc(N2CCCCCC2)[nH+]c1-c1ccccc1Cl (nonaromatic ring conformer: 93.78567000425915 kcal/mol)

>  <smiles>  (11) 
Cc1c(-c2cccs2)nc(N2CCCCCC2)nc1-c1ccccc1Cl

>  <score_type>  (11) 
oracle

>  <origin>  (11) 
adg

>  <m_score__min__energy>  (11) 
-4.3899999999999997

>  <m_primary>  (11) 
energy

$$$$
11:0
     RDKit          3D

 38 38  0  0  0  0  0  0  0  0999 V2000
   55.7320   29.7650   44.1050 C   0  0  0  0  0  0  0  0  0  0  0  0
   56.6310   30.4660   43.0910 C   0  0  0  0  0  0  0  0  0  0  0  0
   57.7020   31.3160   43.7890 C   0  0  0  0  0  0  0  0  0  0  0  0
   57.3360   31.6000   45.1960 N   0  0  0  0  0  0  0  0  0  0  0  0
   58.2340   30.9890   46.2060 C   0  0  0  0  0  0  0  0  0  0  0  0
   59.3130   30.0660   45.6040 C   0  0  0  0  0  0  0  0  0  0  0  0
   58.8270   28.6200   45.5460 C   0  0  0  0  0  0  0  0  0  0  0  0
   57.0960   33.0440   45.4360 C   0  0  0  0  0  0  0  0  0  0  0  0
   58.3510   33.8530   45.0890 C   0  0  0  0  0  0  0  0  0  0  0  0
   59.3110   33.9160   46.2480 C   0  0  0  0  0  0  0  0  0  0  0  0
   58.8530   34.2580   47.5320 C   0  0  0  0  0  0  0  0  0  0  0  0
   59.7560   34.3830   48.5920 C   0  0  0  0  0  0  0  0  0  0  0  0
   61.1210   34.1710   48.3780 C   0  0  0  0  0  0  0  0  0  0  0  0
   61.5860   33.8350   47.1030 C   0  0  0  0  0  0  0  0  0  0  0  0
   63.3010   33.5810   46.8340 Cl  0  0  0  0  0  0  0  0  0  0  0  0
   60.6850   33.7110   46.0390 C   0  0  0  0  0  0  0  0  0  0  0  0
   56.0595   30.0204   45.1236 H   0  0  0  0  0  0  0  0  0  0  0  0
   54.6919   30.0929   43.9612 H   0  0  0  0  0  0  0  0  0  0  0  0
   55.7965   28.6763   43.9612 H   0  0  0  0  0  0  0  0  0  0  0  0
   57.1261   29.7077   42.4666 H   0  0  0  0  0  0  0  0  0  0  0  0
   56.0073   31.1305   42.4750 H   0  0  0  0  0  0  0  0  0  0  0  0
   58.6580   30.7722   43.7709 H   0  0  0  0  0  0  0  0  0  0  0  0
   57.7865   32.2733   43.2538 H   0  0  0  0  0  0  0  0  0  0  0  0
   58.7373   31.7974   46.7565 H   0  0  0  0  0  0  0  0  0  0  0  0
   57.6050   30.3638   46.8567 H   0  0  0  0  0  0  0  0  0  0  0  0
   59.5501   30.4068   44.5853 H   0  0  0  0  0  0  0  0  0  0  0  0
   60.2071   30.1094   46.2433 H   0  0  0  0  0  0  0  0  0  0  0  0
   58.6977   28.2353   46.5684 H   0  0  0  0  0  0  0  0  0  0  0  0
   57.8652   28.5775   45.0139 H   0  0  0  0  0  0  0  0  0  0  0  0
   59.5679   28.0052   45.0139 H   0  0  0  0  0  0  0  0  0  0  0  0
   56.2596   33.3830   44.8071 H   0  0  0  0  0  0  0  0  0  0  0  0
   56.8525   33.1962   46.4979 H   0  0  0  0  0  0  0  0  0  0  0  0
   58.8552   33.3795   44.2337 H   0  0  0  0  0  0  0  0  0  0  0  0
   58.0406   34.8796   44.8445 H   0  0  0  0  0  0  0  0  0  0  0  0
   57.7798   34.4280   47.7036 H   0  0  0  0  0  0  0  0  0  0  0  0
   59.3919   34.6485   49.5955 H   0  0  0  0  0  0  0  0  0  0  0  0
   61.8299   34.2686   49.2134 H   0  0  0  0  0  0  0  0  0  0  0  0
   61.0541   33.4521   45.0356 H   0  0  0  0  0  0  0  0  0  0  0  0
  1  2  1  0
  2  3  1  0
  3  4  1  0
  4  5  1  0
  5  6  1  0
  6  7  1  0
  4  8  1  0
  8  9  1  0
  9 10  1  0
 10 11  2  0
 11 12  1  0
 12 13  2  0
 13 14  1  0
 14 15  1  0
 14 16  2  0
 16 10  1  0
  1 17  1  0
  1 18  1  0
  1 19  1  0
  2 20  1  0
  2 21  1  0
  3 22  1  0
  3 23  1  0
  5 24  1  0
  5 25  1  0
  6 26  1  0
  6 27  1  0
  7 28  1  0
  7 29  1  0
  7 30  1  0
  8 31  1  0
  8 32  1  0
  9 33  1  0
  9 34  1  0
 11 35  1  0
 12 36  1  0
 13 37  1  0
 16 38  1  0
M  END
>  <UniqueID>  (12) 
11

>  <SMILES>  (12) 
CCCN(CCC)CCc1cccc(Cl)c1

>  <Energy>  (12) 
29.88454843216278

>  <Genealogy>  (12) 
CCCN(CCC)CCc1cccc(Cl)c1 (3D coordinates assigned)
CCCN(CCC)CCc1cccc(Cl)c1 (optimized conformer: 29.88454843216278 kcal/mol)

>  <smiles>  (12) 
CCCN(CCC)CCc1cccc(Cl)c1

>  <score_type>  (12) 
oracle

>  <origin>  (12) 
adg

>  <m_score__min__energy>  (12) 
-6.2699999999999996

>  <m_primary>  (12) 
energy

$$$$
12:0
     RDKit          3D

 47 49  0  0  0  0  0  0  0  0999 V2000
   58.0960   32.2640   49.1740 O   0  0  0  0  0  0  0  0  0  0  0  0
   58.9850   33.2500   48.7140 C   0  0  0  0  0  0  0  0  0  0  0  0
   59.1280   33.2240   47.1600 C   0  0  2  0  0  0  0  0  0  0  0  0
   60.2880   32.2410   46.7580 C   0  0  0  0  0  0  0  0  0  0  0  0
   61.6290   32.4890   47.4240 C   0  0  0  0  0  0  0  0  0  0  0  0
   62.5210   33.4490   46.9090 C   0  0  0  0  0  0  0  0  0  0  0  0
   63.7580   33.6680   47.5210 C   0  0  0  0  0  0  0  0  0  0  0  0
   64.1320   32.9150   48.6360 C   0  0  0  0  0  0  0  0  0  0  0  0
   65.3340   33.1260   49.2250 F   0  0  0  0  0  0  0  0  0  0  0  0
   63.2740   31.9290   49.1300 C   0  0  0  0  0  0  0  0  0  0  0  0
   62.0350   31.7080   48.5200 C   0  0  0  0  0  0  0  0  0  0  0  0
   59.4990   34.6650   46.7110 C   0  0  0  0  0  0  0  0  0  0  0  0
   59.2780   34.8970   45.2210 C   0  0  0  0  0  0  0  0  0  0  0  0
   57.8220   34.6100   44.8720 C   0  0  0  0  0  0  0  0  0  0  0  0
   57.4340   33.2120   45.1610 N   0  0  1  0  0  0  0  0  0  0  0  0
   57.9270   32.2370   44.1570 C   0  0  0  0  0  0  0  0  0  0  0  0
   57.6100   30.8070   44.5380 C   0  0  0  0  0  0  0  0  0  0  0  0
   58.6290   29.9310   44.9380 C   0  0  0  0  0  0  0  0  0  0  0  0
   58.3220   28.6180   45.2970 C   0  0  0  0  0  0  0  0  0  0  0  0
   56.9940   28.1900   45.2540 C   0  0  0  0  0  0  0  0  0  0  0  0
   56.0140   29.0480   44.8660 N   0  0  0  0  0  0  0  0  0  0  0  0
   56.2880   30.3330   44.5100 C   0  0  0  0  0  0  0  0  0  0  0  0
   57.7270   32.8090   46.5670 C   0  0  0  0  0  0  0  0  0  0  0  0
   57.2560   32.7250   49.4310 H   0  0  0  0  0  0  0  0  0  0  0  0
   58.6103   34.2378   49.0203 H   0  0  0  0  0  0  0  0  0  0  0  0
   59.9741   33.0486   49.1512 H   0  0  0  0  0  0  0  0  0  0  0  0
   59.9684   31.2201   47.0142 H   0  0  0  0  0  0  0  0  0  0  0  0
   60.4556   32.4029   45.6830 H   0  0  0  0  0  0  0  0  0  0  0  0
   62.2420   34.0310   46.0182 H   0  0  0  0  0  0  0  0  0  0  0  0
   64.4387   34.4353   47.1236 H   0  0  0  0  0  0  0  0  0  0  0  0
   63.5734   31.3258   49.9998 H   0  0  0  0  0  0  0  0  0  0  0  0
   61.3728   30.9166   48.9010 H   0  0  0  0  0  0  0  0  0  0  0  0
   58.8786   35.3785   47.2732 H   0  0  0  0  0  0  0  0  0  0  0  0
   60.5710   34.8078   46.9120 H   0  0  0  0  0  0  0  0  0  0  0  0
   59.5151   35.9423   44.9736 H   0  0  0  0  0  0  0  0  0  0  0  0
   59.9321   34.2261   44.6447 H   0  0  0  0  0  0  0  0  0  0  0  0
   57.1795   35.2827   45.4591 H   0  0  0  0  0  0  0  0  0  0  0  0
   57.6993   34.7738   43.7912 H   0  0  0  0  0  0  0  0  0  0  0  0
   56.3880   33.1890   45.0850 H   0  0  0  0  0  0  0  0  0  0  0  0
   57.4545   32.4577   43.1885 H   0  0  0  0  0  0  0  0  0  0  0  0
   59.0213   32.3352   44.1030 H   0  0  0  0  0  0  0  0  0  0  0  0
   59.6720   30.2793   44.9689 H   0  0  0  0  0  0  0  0  0  0  0  0
   59.1184   27.9272   45.6107 H   0  0  0  0  0  0  0  0  0  0  0  0
   56.7404   27.1570   45.5345 H   0  0  0  0  0  0  0  0  0  0  0  0
   55.4719   31.0020   44.1995 H   0  0  0  0  0  0  0  0  0  0  0  0
   56.9517   33.2551   47.2072 H   0  0  0  0  0  0  0  0  0  0  0  0
   57.7420   31.7093   46.5488 H   0  0  0  0  0  0  0  0  0  0  0  0
  1  2  1  0
  3  2  1  1
  3  4  1  0
  4  5  1  0
  5  6  2  0
  6  7  1  0
  7  8  2  0
  8  9  1  0
  8 10  1  0
 10 11  2  0
  3 12  1  0
 12 13  1  0
 13 14  1  0
 14 15  1  0
 15 16  1  0
 16 17  1  0
 17 18  2  0
 18 19  1  0
 19 20  2  0
 20 21  1  0
 21 22  2  0
 15 23  1  0
 23  3  1  0
 11  5  1  0
 22 17  1  0
  1 24  1  0
  2 25  1  0
  2 26  1  0
  4 27  1  0
  4 28  1  0
  6 29  1  0
  7 30  1  0
 10 31  1  0
 11 32  1  0
 12 33  1  0
 12 34  1  0
 13 35  1  0
 13 36  1  0
 14 37  1  0
 14 38  1  0
 15 39  1  1
 16 40  1  0
 16 41  1  0
 18 42  1  0
 19 43  1  0
 20 44  1  0
 22 45  1  0
 23 46  1  0
 23 47  1  0
M  CHG  1  15   1
M  END
>  <UniqueID>  (13) 
12

>  <SMILES>  (13) 
OC[C@]1(Cc2ccc(F)cc2)CCC[N@@H+](Cc2cccnc2)C1

>  <Energy>  (13) 
61.10733322333042

>  <Genealogy>  (13) 
OCC1(Cc2ccc(F)cc2)CCC[NH+](Cc2cccnc2)C1 (protonated)
OC[C@]1(Cc2ccc(F)cc2)CCC[N@@H+](Cc2cccnc2)C1 (chirality)
OC[C@]1(Cc2ccc(F)cc2)CCC[N@@H+](Cc2cccnc2)C1 (3D coordinates assigned)
OC[C@]1(Cc2ccc(F)cc2)CCC[N@@H+](Cc2cccnc2)C1 (nonaromatic ring conformer: 61.10733322333042 kcal/mol)

>  <smiles>  (13) 
OCC1(Cc2ccc(F)cc2)CCCN(Cc2cccnc2)C1

>  <score_type>  (13) 
oracle

>  <origin>  (13) 
adg

>  <m_score__min__energy>  (13) 
-6.0599999999999996

>  <m_primary>  (13) 
energy

$$$$
13:0
     RDKit          3D

 34 35  0  0  0  0  0  0  0  0999 V2000
   63.0640   33.8340   48.3660 C   0  0  0  0  0  0  0  0  0  0  0  0
   61.6520   33.7260   47.8710 C   0  0  0  0  0  0  0  0  0  0  0  0
   61.3670   33.8550   46.5030 C   0  0  0  0  0  0  0  0  0  0  0  0
   60.0480   33.7870   46.0480 C   0  0  0  0  0  0  0  0  0  0  0  0
   58.9900   33.6070   46.9560 C   0  0  0  0  0  0  0  0  0  0  0  0
   57.6290   33.5240   46.4830 N   0  0  0  0  0  0  0  0  0  0  0  0
   57.5200   33.8970   45.0610 C   0  0  0  0  0  0  0  0  0  0  0  0
   57.3930   32.6830   44.1330 C   0  0  0  0  0  0  0  0  0  0  0  0
   57.0490   31.5220   44.8850 O   0  0  0  0  0  0  0  0  0  0  0  0
   58.0050   30.6680   45.4390 C   0  0  0  0  0  0  0  0  0  0  0  0
   58.7620   29.8450   44.5970 C   0  0  0  0  0  0  0  0  0  0  0  0
   59.7140   28.9870   45.1500 C   0  0  0  0  0  0  0  0  0  0  0  0
   59.9020   28.9590   46.5340 C   0  0  0  0  0  0  0  0  0  0  0  0
   59.1290   29.7930   47.3450 C   0  0  0  0  0  0  0  0  0  0  0  0
   58.2070   30.6220   46.7860 N   0  0  0  0  0  0  0  0  0  0  0  0
   59.2780   33.4930   48.3270 C   0  0  0  0  0  0  0  0  0  0  0  0
   60.5980   33.5600   48.7820 C   0  0  0  0  0  0  0  0  0  0  0  0
   63.0679   33.8343   49.4660 H   0  0  0  0  0  0  0  0  0  0  0  0
   63.6482   32.9779   47.9975 H   0  0  0  0  0  0  0  0  0  0  0  0
   63.5112   34.7690   47.9975 H   0  0  0  0  0  0  0  0  0  0  0  0
   62.1862   34.0104   45.7855 H   0  0  0  0  0  0  0  0  0  0  0  0
   59.8359   33.8749   44.9722 H   0  0  0  0  0  0  0  0  0  0  0  0
   57.0370   34.1800   47.0430 H   0  0  0  0  0  0  0  0  0  0  0  0
   57.2420   32.5630   46.6340 H   0  0  0  0  0  0  0  0  0  0  0  0
   56.6310   34.5318   44.9319 H   0  0  0  0  0  0  0  0  0  0  0  0
   58.4446   34.4262   44.7871 H   0  0  0  0  0  0  0  0  0  0  0  0
   56.6094   32.8773   43.3859 H   0  0  0  0  0  0  0  0  0  0  0  0
   58.3569   32.5127   43.6310 H   0  0  0  0  0  0  0  0  0  0  0  0
   58.6079   29.8742   43.5082 H   0  0  0  0  0  0  0  0  0  0  0  0
   60.3142   28.3351   44.4982 H   0  0  0  0  0  0  0  0  0  0  0  0
   60.6505   28.2876   46.9801 H   0  0  0  0  0  0  0  0  0  0  0  0
   59.2660   29.7793   48.4364 H   0  0  0  0  0  0  0  0  0  0  0  0
   58.4588   33.3500   49.0470 H   0  0  0  0  0  0  0  0  0  0  0  0
   60.8112   33.4823   49.8583 H   0  0  0  0  0  0  0  0  0  0  0  0
  1  2  1  0
  2  3  2  0
  3  4  1  0
  4  5  2  0
  5  6  1  0
  6  7  1  0
  7  8  1  0
  8  9  1  0
  9 10  1  0
 10 11  2  0
 11 12  1  0
 12 13  2  0
 13 14  1  0
 14 15  2  0
  5 16  1  0
 16 17  2  0
 17  2  1  0
 15 10  1  0
  1 18  1  0
  1 19  1  0
  1 20  1  0
  3 21  1  0
  4 22  1  0
  6 23  1  0
  6 24  1  0
  7 25  1  0
  7 26  1  0
  8 27  1  0
  8 28  1  0
 11 29  1  0
 12 30  1  0
 13 31  1  0
 14 32  1  0
 16 33  1  0
 17 34  1  0
M  CHG  1   6   1
M  END
>  <UniqueID>  (14) 
13

>  <SMILES>  (14) 
Cc1ccc([NH2+]CCOc2ccccn2)cc1

>  <Energy>  (14) 
31.57014371370856

>  <Genealogy>  (14) 
Cc1ccc([NH2+]CCOc2ccccn2)cc1 (protonated)
Cc1ccc([NH2+]CCOc2ccccn2)cc1 (3D coordinates assigned)
Cc1ccc([NH2+]CCOc2ccccn2)cc1 (optimized conformer: 31.57014371370856 kcal/mol)

>  <smiles>  (14) 
Cc1ccc(NCCOc2ccccn2)cc1

>  <score_type>  (14) 
oracle

>  <origin>  (14) 
adg

>  <m_score__min__energy>  (14) 
-4.0300000000000002

>  <m_primary>  (14) 
energy

$$$$
14:0
     RDKit          3D

 29 31  0  0  0  0  0  0  0  0999 V2000
   63.9270   34.0740   51.4230 C   0  0  0  0  0  0  0  0  0  0  0  0
   63.7600   33.6760   49.9930 C   0  0  0  0  0  0  0  0  0  0  0  0
   64.7080   33.0780   49.1660 C   0  0  0  0  0  0  0  0  0  0  0  0
   64.1440   32.8220   47.9660 N   0  0  0  0  0  0  0  0  0  0  0  0
   62.8840   33.2210   48.0110 N   0  0  0  0  0  0  0  0  0  0  0  0
   61.9650   33.1310   47.0160 C   0  0  0  0  0  0  0  0  0  0  0  0
   60.6560   33.6040   47.2580 C   0  0  0  0  0  0  0  0  0  0  0  0
   59.6120   33.5300   46.2040 C   0  0  0  0  0  0  0  0  0  0  0  0
   58.9750   34.5860   45.5640 C   0  0  0  0  0  0  0  0  0  0  0  0
   58.1020   34.1020   44.6610 N   0  0  0  0  0  0  0  0  0  0  0  0
   58.1550   32.7820   44.7200 N   0  0  0  0  0  0  0  0  0  0  0  0
   57.3970   31.8980   43.8460 C   0  0  0  0  0  0  0  0  0  0  0  0
   59.0670   32.3950   45.6310 C   0  0  0  0  0  0  0  0  0  0  0  0
   60.3620   34.1480   48.5360 C   0  0  0  0  0  0  0  0  0  0  0  0
   61.3490   34.2170   49.5320 C   0  0  0  0  0  0  0  0  0  0  0  0
   62.6160   33.7370   49.2190 C   0  0  0  0  0  0  0  0  0  0  0  0
   63.5838   33.2562   52.0737 H   0  0  0  0  0  0  0  0  0  0  0  0
   64.9883   34.2820   51.6242 H   0  0  0  0  0  0  0  0  0  0  0  0
   63.3319   34.9770   51.6242 H   0  0  0  0  0  0  0  0  0  0  0  0
   65.7475   32.8511   49.4451 H   0  0  0  0  0  0  0  0  0  0  0  0
   64.6070   32.3750   47.1430 H   0  0  0  0  0  0  0  0  0  0  0  0
   62.2341   32.6985   46.0410 H   0  0  0  0  0  0  0  0  0  0  0  0
   59.1561   35.6524   45.7642 H   0  0  0  0  0  0  0  0  0  0  0  0
   56.8009   31.2028   44.4554 H   0  0  0  0  0  0  0  0  0  0  0  0
   56.7269   32.4963   43.2112 H   0  0  0  0  0  0  0  0  0  0  0  0
   58.0905   31.3270   43.2112 H   0  0  0  0  0  0  0  0  0  0  0  0
   59.3329   31.3564   45.8772 H   0  0  0  0  0  0  0  0  0  0  0  0
   59.3488   34.5199   48.7483 H   0  0  0  0  0  0  0  0  0  0  0  0
   61.1279   34.6359   50.5248 H   0  0  0  0  0  0  0  0  0  0  0  0
  1  2  1  0
  2  3  1  0
  3  4  2  0
  4  5  1  0
  5  6  1  0
  6  7  2  0
  7  8  1  0
  8  9  1  0
  9 10  2  0
 10 11  1  0
 11 12  1  0
 11 13  1  0
  7 14  1  0
 14 15  2  0
 15 16  1  0
 16  2  2  0
 16  5  1  0
 13  8  2  0
  1 17  1  0
  1 18  1  0
  1 19  1  0
  3 20  1  0
  4 21  1  0
  6 22  1  0
  9 23  1  0
 12 24  1  0
 12 25  1  0
 12 26  1  0
 13 27  1  0
 14 28  1  0
 15 29  1  0
M  CHG  1   4   1
M  END
>  <UniqueID>  (15) 
14

>  <SMILES>  (15) 
Cc1c[nH+]n2cc(-c3cnn(C)c3)ccc12

>  <Energy>  (15) 
97.18533048155597

>  <Genealogy>  (15) 
Cc1c[nH+]n2cc(-c3cnn(C)c3)ccc12 (protonated)
Cc1c[nH+]n2cc(-c3cnn(C)c3)ccc12 (3D coordinates assigned)
Cc1c[nH+]n2cc(-c3cnn(C)c3)ccc12 (optimized conformer: 97.18533048155597 kcal/mol)

>  <smiles>  (15) 
Cc1cnn2cc(-c3cnn(C)c3)ccc12

>  <score_type>  (15) 
oracle

>  <origin>  (15) 
adg

>  <m_score__min__energy>  (15) 
-4.9500000000000002

>  <m_primary>  (15) 
energy

$$$$
15:0
     RDKit          3D

 32 34  0  0  0  0  0  0  0  0999 V2000
   57.0380   30.5540   43.1700 C   0  0  0  0  0  0  0  0  0  0  0  0
   56.7040   30.9080   44.5070 O   0  0  0  0  0  0  0  0  0  0  0  0
   57.3830   31.8740   45.2640 C   0  0  0  0  0  0  0  0  0  0  0  0
   57.2890   33.2140   44.8710 C   0  0  0  0  0  0  0  0  0  0  0  0
   57.9470   34.2140   45.5930 C   0  0  0  0  0  0  0  0  0  0  0  0
   58.7160   33.8850   46.7200 C   0  0  0  0  0  0  0  0  0  0  0  0
   59.3910   34.9710   47.5150 C   0  0  0  0  0  0  0  0  0  0  0  0
   60.3960   34.3910   48.4080 N   0  0  0  0  0  0  0  0  0  0  0  0
   60.2810   34.1270   49.7330 C   0  0  0  0  0  0  0  0  0  0  0  0
   59.2670   34.4230   50.4200 O   0  0  0  0  0  0  0  0  0  0  0  0
   61.3440   33.5230   50.2370 O   0  0  0  0  0  0  0  0  0  0  0  0
   62.1740   33.3740   49.2310 C   0  0  0  0  0  0  0  0  0  0  0  0
   63.4350   32.7870   49.2280 C   0  0  0  0  0  0  0  0  0  0  0  0
   64.1300   32.7440   48.0030 C   0  0  0  0  0  0  0  0  0  0  0  0
   63.5500   33.2830   46.8310 C   0  0  0  0  0  0  0  0  0  0  0  0
   62.2710   33.8700   46.8700 C   0  0  0  0  0  0  0  0  0  0  0  0
   61.6100   33.8960   48.0990 C   0  0  0  0  0  0  0  0  0  0  0  0
   58.8080   32.5440   47.1200 C   0  0  0  0  0  0  0  0  0  0  0  0
   58.1500   31.5440   46.3980 C   0  0  0  0  0  0  0  0  0  0  0  0
   57.7929   29.7539   43.1802 H   0  0  0  0  0  0  0  0  0  0  0  0
   56.1364   30.2008   42.6481 H   0  0  0  0  0  0  0  0  0  0  0  0
   57.4430   31.4336   42.6481 H   0  0  0  0  0  0  0  0  0  0  0  0
   56.6924   33.4825   43.9867 H   0  0  0  0  0  0  0  0  0  0  0  0
   57.8616   35.2639   45.2762 H   0  0  0  0  0  0  0  0  0  0  0  0
   59.8798   35.6757   46.8262 H   0  0  0  0  0  0  0  0  0  0  0  0
   58.6363   35.4983   48.1170 H   0  0  0  0  0  0  0  0  0  0  0  0
   63.8733   32.3719   50.1475 H   0  0  0  0  0  0  0  0  0  0  0  0
   65.1301   32.2883   47.9579 H   0  0  0  0  0  0  0  0  0  0  0  0
   64.1030   33.2432   45.8809 H   0  0  0  0  0  0  0  0  0  0  0  0
   61.8096   34.2926   45.9653 H   0  0  0  0  0  0  0  0  0  0  0  0
   59.4014   32.2775   48.0070 H   0  0  0  0  0  0  0  0  0  0  0  0
   58.2317   30.4945   46.7171 H   0  0  0  0  0  0  0  0  0  0  0  0
  1  2  1  0
  2  3  1  0
  3  4  2  0
  4  5  1  0
  5  6  2  0
  6  7  1  0
  7  8  1  0
  8  9  1  0
  9 10  2  0
  9 11  1  0
 11 12  1  0
 12 13  2  0
 13 14  1  0
 14 15  2  0
 15 16  1  0
 16 17  2  0
  6 18  1  0
 18 19  2  0
 19  3  1  0
 17  8  1  0
 17 12  1  0
  1 20  1  0
  1 21  1  0
  1 22  1  0
  4 23  1  0
  5 24  1  0
  7 25  1  0
  7 26  1  0
 13 27  1  0
 14 28  1  0
 15 29  1  0
 16 30  1  0
 18 31  1  0
 19 32  1  0
M  END
>  <UniqueID>  (16) 
15

>  <SMILES>  (16) 
COc1ccc(Cn2c(=O)oc3ccccc32)cc1

>  <Energy>  (16) 
73.93499679327103

>  <Genealogy>  (16) 
COc1ccc(Cn2c(=O)oc3ccccc32)cc1 (3D coordinates assigned)
COc1ccc(Cn2c(=O)oc3ccccc32)cc1 (optimized conformer: 73.93499679327103 kcal/mol)

>  <smiles>  (16) 
COc1ccc(Cn2c(=O)oc3ccccc32)cc1

>  <score_type>  (16) 
oracle

>  <origin>  (16) 
adg

>  <m_score__min__energy>  (16) 
-6.75

>  <m_primary>  (16) 
energy

$$$$
16:0
     RDKit          3D

 49 51  0  0  0  0  0  0  0  0999 V2000
   63.7830   32.9500   49.4550 C   0  0  0  0  0  0  0  0  0  0  0  0
   62.6750   33.8660   49.8770 C   0  0  0  0  0  0  0  0  0  0  0  0
   62.9710   34.9620   50.4200 O   0  0  0  0  0  0  0  0  0  0  0  0
   61.2970   33.4930   49.6730 N   0  0  0  0  0  0  0  0  0  0  0  0
   60.4020   33.0570   50.7510 C   0  0  0  0  0  0  0  0  0  0  0  0
   59.0320   32.7750   50.0960 C   0  0  0  0  0  0  0  0  0  0  0  0
   59.2680   33.0850   48.6610 C   0  0  0  0  0  0  0  0  0  0  0  0
   58.3510   32.9940   47.6140 C   0  0  0  0  0  0  0  0  0  0  0  0
   58.7710   33.3340   46.3160 C   0  0  0  0  0  0  0  0  0  0  0  0
   57.6380   33.2140   44.9720 S   0  0  0  0  0  0  0  0  0  0  0  0
   56.5030   34.1720   45.2000 O   0  0  0  0  0  0  0  0  0  0  0  0
   58.3220   33.5850   43.6860 O   0  0  0  0  0  0  0  0  0  0  0  0
   57.0070   31.5970   44.8780 N   0  0  0  0  0  0  0  0  0  0  0  0
   57.6990   30.8140   43.8500 C   0  0  0  0  0  0  0  0  0  0  0  0
   56.9660   29.4960   43.5820 C   0  0  0  0  0  0  0  0  0  0  0  0
   56.2680   29.0030   44.8120 C   0  0  0  0  0  0  0  0  0  0  0  0
   55.1460   29.4830   45.1250 O   0  0  0  0  0  0  0  0  0  0  0  0
   56.9270   28.0570   45.6620 N   0  0  0  0  0  0  0  0  0  0  0  0
   57.9680   28.3260   46.6130 C   0  0  0  0  0  0  0  0  0  0  0  0
   58.5490   27.2480   47.2920 C   0  0  0  0  0  0  0  0  0  0  0  0
   59.5500   27.4640   48.2440 C   0  0  0  0  0  0  0  0  0  0  0  0
   59.9830   28.7660   48.5310 C   0  0  0  0  0  0  0  0  0  0  0  0
   61.0260   29.0020   49.5830 C   0  0  0  0  0  0  0  0  0  0  0  0
   59.3750   29.8510   47.8840 C   0  0  0  0  0  0  0  0  0  0  0  0
   58.3750   29.6360   46.9310 C   0  0  0  0  0  0  0  0  0  0  0  0
   60.1000   33.7480   46.0980 C   0  0  0  0  0  0  0  0  0  0  0  0
   61.0070   33.8260   47.1670 C   0  0  0  0  0  0  0  0  0  0  0  0
   60.5610   33.4890   48.4520 C   0  0  0  0  0  0  0  0  0  0  0  0
   64.2793   32.5397   50.3468 H   0  0  0  0  0  0  0  0  0  0  0  0
   63.3693   32.1267   48.8542 H   0  0  0  0  0  0  0  0  0  0  0  0
   64.5139   33.5111   48.8542 H   0  0  0  0  0  0  0  0  0  0  0  0
   60.7927   32.1436   51.2233 H   0  0  0  0  0  0  0  0  0  0  0  0
   60.3182   33.8252   51.5338 H   0  0  0  0  0  0  0  0  0  0  0  0
   58.7409   31.7226   50.2290 H   0  0  0  0  0  0  0  0  0  0  0  0
   58.2152   33.3665   50.5353 H   0  0  0  0  0  0  0  0  0  0  0  0
   57.3188   32.6625   47.8002 H   0  0  0  0  0  0  0  0  0  0  0  0
   57.7409   31.3987   42.9192 H   0  0  0  0  0  0  0  0  0  0  0  0
   58.7145   30.5856   44.2059 H   0  0  0  0  0  0  0  0  0  0  0  0
   56.2225   29.6545   42.7870 H   0  0  0  0  0  0  0  0  0  0  0  0
   57.7066   28.7421   43.2767 H   0  0  0  0  0  0  0  0  0  0  0  0
   58.2151   26.2227   47.0746 H   0  0  0  0  0  0  0  0  0  0  0  0
   59.9995   26.6088   48.7699 H   0  0  0  0  0  0  0  0  0  0  0  0
   60.5716   28.8992   50.5795 H   0  0  0  0  0  0  0  0  0  0  0  0
   61.8338   28.2639   49.4705 H   0  0  0  0  0  0  0  0  0  0  0  0
   61.4374   30.0159   49.4705 H   0  0  0  0  0  0  0  0  0  0  0  0
   59.6866   30.8774   48.1276 H   0  0  0  0  0  0  0  0  0  0  0  0
   57.9043   30.4934   46.4277 H   0  0  0  0  0  0  0  0  0  0  0  0
   60.4296   34.0122   45.0823 H   0  0  0  0  0  0  0  0  0  0  0  0
   62.0463   34.1451   46.9992 H   0  0  0  0  0  0  0  0  0  0  0  0
  1  2  1  0
  2  3  2  0
  2  4  1  0
  4  5  1  0
  5  6  1  0
  6  7  1  0
  7  8  2  0
  8  9  1  0
  9 10  1  0
 10 11  2  0
 10 12  2  0
 10 13  1  0
 13 14  1  0
 14 15  1  0
 15 16  1  0
 16 17  2  0
 16 18  1  0
 18 19  1  0
 19 20  2  0
 20 21  1  0
 21 22  2  0
 22 23  1  0
 22 24  1  0
 24 25  2  0
  9 26  2  0
 26 27  1  0
 27 28  2  0
 28  4  1  0
 28  7  1  0
 25 19  1  0
  1 29  1  0
  1 30  1  0
  1 31  1  0
  5 32  1  0
  5 33  1  0
  6 34  1  0
  6 35  1  0
  8 36  1  0
 14 37  1  0
 14 38  1  0
 15 39  1  0
 15 40  1  0
 20 41  1  0
 21 42  1  0
 23 43  1  0
 23 44  1  0
 23 45  1  0
 24 46  1  0
 25 47  1  0
 26 48  1  0
 27 49  1  0
M  CHG  2  13  -1  18  -1
M  END
>  <UniqueID>  (17) 
16

>  <SMILES>  (17) 
CC(=O)N1CCc2cc(S(=O)(=O)[N-]CCC(=O)[N-]c3ccc(C)cc3)ccc21

>  <Energy>  (17) 
64.84832776819323

>  <Genealogy>  (17) 
CC(=O)N1CCc2cc(S(=O)(=O)[N-]CCC(=O)[N-]c3ccc(C)cc3)ccc21 (protonated)
CC(=O)N1CCc2cc(S(=O)(=O)[N-]CCC(=O)[N-]c3ccc(C)cc3)ccc21 (3D coordinates assigned)
CC(=O)N1CCc2cc(S(=O)(=O)[N-]CCC(=O)[N-]c3ccc(C)cc3)ccc21 (nonaromatic ring conformer: 64.84832776819323 kcal/mol)

>  <smiles>  (17) 
CC(=O)N1CCc2cc(S(=O)(=O)NCCC(=O)Nc3ccc(C)cc3)ccc21

>  <score_type>  (17) 
oracle

>  <origin>  (17) 
adg

>  <m_score__min__energy>  (17) 
-12.01

>  <m_primary>  (17) 
energy

$$$$
17:0
     RDKit          3D

 49 52  0  0  0  0  0  0  0  0999 V2000
   56.5966   25.9900   46.2653 H   0  0  0  0  0  0  0  0  0  0  0  0
   56.9320   26.8450   45.6600 C   0  0  0  0  0  0  0  0  0  0  0  0
   56.2530   28.0230   45.6210 N   0  0  0  0  0  0  0  0  0  0  0  0
   56.8620   28.9160   44.8090 C   0  0  0  0  0  0  0  0  0  0  0  0
   56.4300   30.1230   44.5900 N   0  0  0  0  0  0  0  0  0  0  0  0
   56.9000   31.0150   43.5680 C   0  0  0  0  0  0  0  0  0  0  0  0
   56.6580   30.7990   42.3490 O   0  0  0  0  0  0  0  0  0  0  0  0
   57.6710   32.2340   43.9610 C   0  0  0  0  0  0  0  0  0  0  0  0
   57.6506   32.9569   43.1321 H   0  0  0  0  0  0  0  0  0  0  0  0
   58.7068   31.9398   44.1858 H   0  0  0  0  0  0  0  0  0  0  0  0
   56.9450   33.0060   45.4470 S   0  0  0  0  0  0  0  0  0  0  0  0
   58.4890   33.7380   46.0030 C   0  0  0  0  0  0  0  0  0  0  0  0
   58.8760   34.9830   45.6610 N   0  0  0  0  0  0  0  0  0  0  0  0
   60.0850   35.1460   46.1760 N   0  0  0  0  0  0  0  0  0  0  0  0
   60.6490   36.0200   46.0910 H   0  0  0  0  0  0  0  0  0  0  0  0
   60.4250   34.0150   46.8220 C   0  0  0  0  0  0  0  0  0  0  0  0
   61.7060   33.8360   47.5420 C   0  0  0  0  0  0  0  0  0  0  0  0
   62.8550   33.4410   46.8410 C   0  0  0  0  0  0  0  0  0  0  0  0
   62.8034   33.2745   45.7549 H   0  0  0  0  0  0  0  0  0  0  0  0
   64.0650   33.2580   47.5160 C   0  0  0  0  0  0  0  0  0  0  0  0
   64.9591   32.9379   46.9610 H   0  0  0  0  0  0  0  0  0  0  0  0
   64.1430   33.4800   48.8920 C   0  0  0  0  0  0  0  0  0  0  0  0
   65.0940   33.3190   49.4208 H   0  0  0  0  0  0  0  0  0  0  0  0
   63.0110   33.9080   49.6020 C   0  0  0  0  0  0  0  0  0  0  0  0
   63.0820   34.1160   51.0860 C   0  0  0  0  0  0  0  0  0  0  0  0
   62.7679   33.1959   51.6006 H   0  0  0  0  0  0  0  0  0  0  0  0
   64.1150   34.3622   51.3727 H   0  0  0  0  0  0  0  0  0  0  0  0
   62.4151   34.9424   51.3727 H   0  0  0  0  0  0  0  0  0  0  0  0
   61.7940   34.0780   48.9250 C   0  0  0  0  0  0  0  0  0  0  0  0
   60.9016   34.4031   49.4800 H   0  0  0  0  0  0  0  0  0  0  0  0
   59.4310   33.1020   46.7330 N   0  0  0  0  0  0  0  0  0  0  0  0
   59.4310   31.7260   47.1480 C   0  0  0  0  0  0  0  0  0  0  0  0
   59.8890   30.7250   46.2810 C   0  0  0  0  0  0  0  0  0  0  0  0
   60.2544   30.9942   45.2790 H   0  0  0  0  0  0  0  0  0  0  0  0
   59.8840   29.3850   46.6830 C   0  0  0  0  0  0  0  0  0  0  0  0
   60.2466   28.6058   45.9965 H   0  0  0  0  0  0  0  0  0  0  0  0
   59.4170   29.0300   47.9620 C   0  0  0  0  0  0  0  0  0  0  0  0
   59.3900   27.7020   48.4120 O   0  0  0  0  0  0  0  0  0  0  0  0
   59.9030   26.5950   47.6780 C   0  0  0  0  0  0  0  0  0  0  0  0
   60.2599   25.8249   48.3777 H   0  0  0  0  0  0  0  0  0  0  0  0
   59.1078   26.1748   47.0446 H   0  0  0  0  0  0  0  0  0  0  0  0
   60.7376   26.9301   47.0446 H   0  0  0  0  0  0  0  0  0  0  0  0
   58.9620   30.0340   48.8260 C   0  0  0  0  0  0  0  0  0  0  0  0
   58.5962   29.7667   49.8284 H   0  0  0  0  0  0  0  0  0  0  0  0
   58.9690   31.3720   48.4250 C   0  0  0  0  0  0  0  0  0  0  0  0
   58.6108   32.1517   49.1133 H   0  0  0  0  0  0  0  0  0  0  0  0
   58.2540   28.2910   44.1140 S   0  0  0  0  0  0  0  0  0  0  0  0
   58.0820   26.8010   44.8780 C   0  0  0  0  0  0  0  0  0  0  0  0
   58.7610   25.9415   44.7766 H   0  0  0  0  0  0  0  0  0  0  0  0
  1  2  1  0
  2  3  1  0
  3  4  1  0
  4  5  2  0
  5  6  1  0
  6  7  2  0
  6  8  1  0
  8  9  1  0
  8 10  1  0
  8 11  1  0
 11 12  1  0
 12 13  2  0
 13 14  1  0
 14 15  1  0
 14 16  2  0
 16 17  1  0
 17 18  2  0
 18 19  1  0
 18 20  1  0
 20 21  1  0
 20 22  2  0
 22 23  1  0
 22 24  1  0
 24 25  1  0
 25 26  1  0
 25 27  1  0
 25 28  1  0
 24 29  2  0
 29 30  1  0
 16 31  1  0
 31 32  1  0
 32 33  2  0
 33 34  1  0
 33 35  1  0
 35 36  1  0
 35 37  2  0
 37 38  1  0
 38 39  1  0
 39 40  1  0
 39 41  1  0
 39 42  1  0
 37 43  1  0
 43 44  1  0
 43 45  2  0
 45 46  1  0
  4 47  1  0
 47 48  1  0
 48 49  1  0
 48  2  2  0
 31 12  1  0
 45 32  1  0
 29 17  1  0
M  CHG  2   3  -1  14   1
M  END
>  <UniqueID>  (18) 
17

>  <SMILES>  (18) 
COc1ccc(-n2c(SCC(=O)/N=c3\[n-]ccs3)n[nH+]c2-c2cccc(C)c2)cc1

>  <Energy>  (18) 
122.64249241434945

>  <Genealogy>  (18) 
COc1ccc(-n2c(SCC(=O)N=c3[n-]ccs3)n[nH+]c2-c2cccc(C)c2)cc1 (protonated)
COc1ccc(-n2c(SCC(=O)/N=c3\[n-]ccs3)n[nH+]c2-c2cccc(C)c2)cc1 (cis-trans isomerization)
COc1ccc(-n2c(SCC(=O)/N=c3\[n-]ccs3)n[nH+]c2-c2cccc(C)c2)cc1 (3D coordinates assigned)
COc1ccc(-n2c(SCC(=O)/N=c3\[n-]ccs3)n[nH+]c2-c2cccc(C)c2)cc1 (optimized conformer: 122.64249241434945 kcal/mol)

>  <smiles>  (18) 
COc1ccc(-n2c(SCC(=O)N=c3[nH]ccs3)nnc2-c2cccc(C)c2)cc1

>  <score_type>  (18) 
oracle

>  <origin>  (18) 
adg

>  <m_score__min__energy>  (18) 
-9.2400000000000002

>  <m_primary>  (18) 
energy

$$$$
18:0
     RDKit          3D

 36 39  0  0  0  0  0  0  0  0999 V2000
   58.1445   34.5532   47.5325 H   0  0  0  0  0  0  0  0  0  0  0  0
   58.8010   34.2490   46.7040 C   0  0  0  0  0  0  0  0  0  0  0  0
   60.0410   34.7520   46.6400 C   0  0  0  0  0  0  0  0  0  0  0  0
   60.2150   35.6206   45.9879 H   0  0  0  0  0  0  0  0  0  0  0  0
   61.1930   34.2050   47.3980 C   0  0  0  0  0  0  0  0  0  0  0  0
   61.0930   34.1070   48.7940 C   0  0  0  0  0  0  0  0  0  0  0  0
   60.1685   34.4272   49.2968 H   0  0  0  0  0  0  0  0  0  0  0  0
   62.1550   33.6070   49.5530 C   0  0  0  0  0  0  0  0  0  0  0  0
   62.0555   33.5311   50.6459 H   0  0  0  0  0  0  0  0  0  0  0  0
   63.3500   33.2000   48.9320 C   0  0  0  0  0  0  0  0  0  0  0  0
   64.4580   32.6820   49.6980 N   0  0  0  0  0  0  0  0  0  0  0  0
   65.6530   33.2440   49.7430 N   0  0  0  0  0  0  0  0  0  0  0  0
   66.3960   32.4600   50.5470 C   0  0  0  0  0  0  0  0  0  0  0  0
   67.8070   32.7660   50.9200 C   0  0  0  0  0  0  0  0  0  0  0  0
   67.9004   32.7863   52.0158 H   0  0  0  0  0  0  0  0  0  0  0  0
   68.4711   31.9910   50.5097 H   0  0  0  0  0  0  0  0  0  0  0  0
   68.0904   33.7465   50.5097 H   0  0  0  0  0  0  0  0  0  0  0  0
   65.7040   31.4110   51.0390 N   0  0  0  0  0  0  0  0  0  0  0  0
   64.4910   31.5800   50.4760 C   0  0  0  0  0  0  0  0  0  0  0  0
   63.6363   30.9051   50.6311 H   0  0  0  0  0  0  0  0  0  0  0  0
   63.4560   33.3180   47.5350 C   0  0  0  0  0  0  0  0  0  0  0  0
   64.3864   33.0138   47.0332 H   0  0  0  0  0  0  0  0  0  0  0  0
   62.3940   33.8170   46.7760 C   0  0  0  0  0  0  0  0  0  0  0  0
   62.4977   33.9071   45.6846 H   0  0  0  0  0  0  0  0  0  0  0  0
   58.2900   33.3020   45.7000 C   0  0  0  0  0  0  0  0  0  0  0  0
   57.5650   32.1920   46.0000 N   0  0  0  0  0  0  0  0  0  0  0  0
   57.2340   31.5170   44.8710 C   0  0  0  0  0  0  0  0  0  0  0  0
   56.5090   30.3690   44.8670 N   0  0  0  0  0  0  0  0  0  0  0  0
   56.2180   29.7500   43.6840 C   0  0  0  0  0  0  0  0  0  0  0  0
   55.6319   28.8192   43.6848 H   0  0  0  0  0  0  0  0  0  0  0  0
   56.6630   30.2950   42.4630 C   0  0  0  0  0  0  0  0  0  0  0  0
   56.4247   29.7914   41.5145 H   0  0  0  0  0  0  0  0  0  0  0  0
   57.4110   31.4820   42.4610 C   0  0  0  0  0  0  0  0  0  0  0  0
   57.7699   31.9279   41.5217 H   0  0  0  0  0  0  0  0  0  0  0  0
   57.6820   32.0740   43.6890 C   0  0  0  0  0  0  0  0  0  0  0  0
   58.5380   33.4760   44.0320 S   0  0  0  0  0  0  0  0  0  0  0  0
  1  2  1  0
  2  3  2  0
  3  4  1  0
  3  5  1  0
  5  6  2  0
  6  7  1  0
  6  8  1  0
  8  9  1  0
  8 10  2  0
 10 11  1  0
 11 12  1  0
 12 13  2  0
 13 14  1  0
 14 15  1  0
 14 16  1  0
 14 17  1  0
 13 18  1  0
 18 19  2  0
 19 20  1  0
 10 21  1  0
 21 22  1  0
 21 23  2  0
 23 24  1  0
  2 25  1  0
 25 26  2  0
 26 27  1  0
 27 28  2  0
 28 29  1  0
 29 30  1  0
 29 31  2  0
 31 32  1  0
 31 33  1  0
 33 34  1  0
 33 35  2  0
 35 36  1  0
 23  5  1  0
 36 25  1  0
 19 11  1  0
 35 27  1  0
M  END
>  <UniqueID>  (19) 
18

>  <SMILES>  (19) 
Cc1ncn(-c2ccc(/C=C/c3nc4ncccc4s3)cc2)n1

>  <Energy>  (19) 
111.4694083211116

>  <Genealogy>  (19) 
Cc1ncn(-c2ccc(/C=C/c3nc4ncccc4s3)cc2)n1 (cis-trans isomerization)
Cc1ncn(-c2ccc(/C=C/c3nc4ncccc4s3)cc2)n1 (3D coordinates assigned)
Cc1ncn(-c2ccc(/C=C/c3nc4ncccc4s3)cc2)n1 (optimized conformer: 111.4694083211116 kcal/mol)

>  <smiles>  (19) 
Cc1ncn(-c2ccc(C=Cc3nc4ncccc4s3)cc2)n1

>  <score_type>  (19) 
oracle

>  <origin>  (19) 
adg

>  <m_score__min__energy>  (19) 
-8.6699999999999999

>  <m_primary>  (19) 
energy

$$$$
19:0
     RDKit          3D

 33 35  0  0  0  0  0  0  0  0999 V2000
   56.1940   30.2010   44.8650 O   0  0  0  0  0  0  0  0  0  0  0  0
   57.4240   30.4530   44.9920 C   0  0  0  0  0  0  0  0  0  0  0  0
   58.4010   29.4280   44.7410 N   0  0  0  0  0  0  0  0  0  0  0  0
   58.0790   28.0440   44.5320 C   0  0  0  0  0  0  0  0  0  0  0  0
   58.1060   27.4660   43.2400 C   0  0  0  0  0  0  0  0  0  0  0  0
   57.7620   26.1180   43.0580 C   0  0  0  0  0  0  0  0  0  0  0  0
   57.3820   25.3640   44.1670 C   0  0  0  0  0  0  0  0  0  0  0  0
   57.3320   25.9200   45.4180 C   0  0  0  0  0  0  0  0  0  0  0  0
   57.6670   27.2600   45.6280 C   0  0  0  0  0  0  0  0  0  0  0  0
   56.8890   24.9500   46.4440 C   0  0  0  0  0  0  0  0  0  0  0  0
   56.6670   23.6450   45.6530 C   0  0  0  0  0  0  0  0  0  0  0  0
   56.9780   23.9390   44.1730 C   0  0  0  0  0  0  0  0  0  0  0  0
   57.8490   31.8240   45.3490 C   0  0  0  0  0  0  0  0  0  0  0  0
   57.4600   32.9030   44.5340 C   0  0  0  0  0  0  0  0  0  0  0  0
   57.8320   34.2090   44.8590 C   0  0  0  0  0  0  0  0  0  0  0  0
   58.5950   34.4560   46.0000 C   0  0  0  0  0  0  0  0  0  0  0  0
   58.9900   33.3960   46.8190 C   0  0  0  0  0  0  0  0  0  0  0  0
   58.6230   32.0820   46.5040 C   0  0  0  0  0  0  0  0  0  0  0  0
   59.2640   30.6780   47.6470 Br  0  0  0  0  0  0  0  0  0  0  0  0
   59.4050   29.7060   44.6530 H   0  0  0  0  0  0  0  0  0  0  0  0
   58.3984   28.0774   42.3736 H   0  0  0  0  0  0  0  0  0  0  0  0
   57.7917   25.6637   42.0566 H   0  0  0  0  0  0  0  0  0  0  0  0
   57.6099   27.6973   46.6357 H   0  0  0  0  0  0  0  0  0  0  0  0
   57.6632   24.8139   47.2134 H   0  0  0  0  0  0  0  0  0  0  0  0
   55.9854   25.2808   46.9770 H   0  0  0  0  0  0  0  0  0  0  0  0
   57.3393   22.8596   46.0288 H   0  0  0  0  0  0  0  0  0  0  0  0
   55.6305   23.2951   45.7679 H   0  0  0  0  0  0  0  0  0  0  0  0
   57.7963   23.2992   43.8110 H   0  0  0  0  0  0  0  0  0  0  0  0
   56.1209   23.7395   43.5130 H   0  0  0  0  0  0  0  0  0  0  0  0
   56.8575   32.7160   43.6329 H   0  0  0  0  0  0  0  0  0  0  0  0
   57.5227   35.0446   44.2139 H   0  0  0  0  0  0  0  0  0  0  0  0
   58.8857   35.4858   46.2549 H   0  0  0  0  0  0  0  0  0  0  0  0
   59.5932   33.5946   47.7172 H   0  0  0  0  0  0  0  0  0  0  0  0
  1  2  2  0
  2  3  1  0
  3  4  1  0
  4  5  2  0
  5  6  1  0
  6  7  2  0
  7  8  1  0
  8  9  2  0
  8 10  1  0
 10 11  1  0
 11 12  1  0
  2 13  1  0
 13 14  2  0
 14 15  1  0
 15 16  2  0
 16 17  1  0
 17 18  2  0
 18 19  1  0
  9  4  1  0
 18 13  1  0
 12  7  1  0
  3 20  1  0
  5 21  1  0
  6 22  1  0
  9 23  1  0
 10 24  1  0
 10 25  1  0
 11 26  1  0
 11 27  1  0
 12 28  1  0
 12 29  1  0
 14 30  1  0
 15 31  1  0
 16 32  1  0
 17 33  1  0
M  END
>  <UniqueID>  (20) 
19

>  <SMILES>  (20) 
O=C(Nc1ccc2c(c1)CCC2)c1ccccc1Br

>  <Energy>  (20) 
51.37039496503451

>  <Genealogy>  (20) 
O=C(Nc1ccc2c(c1)CCC2)c1ccccc1Br (3D coordinates assigned)
O=C(Nc1ccc2c(c1)CCC2)c1ccccc1Br (nonaromatic ring conformer: 51.37039496503451 kcal/mol)

>  <smiles>  (20) 
O=C(Nc1ccc2c(c1)CCC2)c1ccccc1Br

>  <score_type>  (20) 
oracle

>  <origin>  (20) 
adg

>  <m_score__min__energy>  (20) 
-7.7300000000000004

>  <m_primary>  (20) 
energy

$$$$
20:0
     RDKit          3D

 43 46  0  0  0  0  0  0  0  0999 V2000
   62.1370   33.8620   46.4250 C   0  0  0  0  0  0  0  0  0  0  0  0
   60.6810   33.9010   46.4150 N   0  0  0  0  0  0  0  0  0  0  0  0
   59.9510   33.7600   45.3150 N   0  0  0  0  0  0  0  0  0  0  0  0
   58.6690   33.5570   45.6980 C   0  0  0  0  0  0  0  0  0  0  0  0
   57.5620   33.1670   44.7530 C   0  0  0  0  0  0  0  0  0  0  0  0
   57.1270   31.7630   44.9040 N   0  0  0  0  0  0  0  0  0  0  0  0
   56.6440   31.1690   43.6430 C   0  0  0  0  0  0  0  0  0  0  0  0
   56.3110   29.6760   43.8410 C   0  0  0  0  0  0  0  0  0  0  0  0
   56.2740   29.3410   45.2140 O   0  0  0  0  0  0  0  0  0  0  0  0
   57.5630   29.4970   45.7820 C   0  0  0  0  0  0  0  0  0  0  0  0
   58.1450   30.9050   45.5360 C   0  0  0  0  0  0  0  0  0  0  0  0
   58.6060   33.5880   47.0790 C   0  0  0  0  0  0  0  0  0  0  0  0
   59.8740   33.7930   47.4870 C   0  0  0  0  0  0  0  0  0  0  0  0
   60.1390   33.1490   48.7930 C   0  0  0  0  0  0  0  0  0  0  0  0
   58.8400   32.5390   49.1140 N   0  0  0  0  0  0  0  0  0  0  0  0
   58.5170   32.0480   50.4270 C   0  0  0  0  0  0  0  0  0  0  0  0
   57.8650   30.9760   50.5460 O   0  0  0  0  0  0  0  0  0  0  0  0
   58.9470   32.7560   51.6480 C   0  0  0  0  0  0  0  0  0  0  0  0
   60.2510   32.7060   52.1670 C   0  0  0  0  0  0  0  0  0  0  0  0
   60.4270   33.4810   53.3050 C   0  0  0  0  0  0  0  0  0  0  0  0
   58.9700   34.2400   53.6510 S   0  0  0  0  0  0  0  0  0  0  0  0
   58.0990   33.5970   52.3650 C   0  0  0  0  0  0  0  0  0  0  0  0
   57.8490   32.7670   48.0510 C   0  0  0  0  0  0  0  0  0  0  0  0
   62.4964   33.8524   47.4646 H   0  0  0  0  0  0  0  0  0  0  0  0
   62.4830   32.9543   45.9090 H   0  0  0  0  0  0  0  0  0  0  0  0
   62.5311   34.7499   45.9090 H   0  0  0  0  0  0  0  0  0  0  0  0
   56.6978   33.8215   44.9397 H   0  0  0  0  0  0  0  0  0  0  0  0
   57.9545   33.2766   43.7313 H   0  0  0  0  0  0  0  0  0  0  0  0
   55.7388   31.7013   43.3156 H   0  0  0  0  0  0  0  0  0  0  0  0
   57.4334   31.2593   42.8823 H   0  0  0  0  0  0  0  0  0  0  0  0
   55.3290   29.4644   43.3929 H   0  0  0  0  0  0  0  0  0  0  0  0
   57.0946   29.0757   43.3557 H   0  0  0  0  0  0  0  0  0  0  0  0
   57.4945   29.3271   46.8666 H   0  0  0  0  0  0  0  0  0  0  0  0
   58.2325   28.7677   45.3026 H   0  0  0  0  0  0  0  0  0  0  0  0
   58.4499   31.3469   46.4961 H   0  0  0  0  0  0  0  0  0  0  0  0
   59.0172   30.8261   44.8704 H   0  0  0  0  0  0  0  0  0  0  0  0
   60.9267   32.3859   48.7078 H   0  0  0  0  0  0  0  0  0  0  0  0
   60.4984   33.8479   49.5627 H   0  0  0  0  0  0  0  0  0  0  0  0
   61.0566   32.1092   51.7145 H   0  0  0  0  0  0  0  0  0  0  0  0
   61.3593   33.5806   53.8803 H   0  0  0  0  0  0  0  0  0  0  0  0
   57.0444   33.8040   52.1308 H   0  0  0  0  0  0  0  0  0  0  0  0
   57.5230   31.8177   47.6010 H   0  0  0  0  0  0  0  0  0  0  0  0
   56.9262   33.2483   48.4072 H   0  0  0  0  0  0  0  0  0  0  0  0
  1  2  1  0
  2  3  1  0
  3  4  2  0
  4  5  1  0
  5  6  1  0
  6  7  1  0
  7  8  1  0
  8  9  1  0
  9 10  1  0
 10 11  1  0
  4 12  1  0
 12 13  2  0
 13 14  1  0
 14 15  1  0
 15 16  1  0
 16 17  2  0
 16 18  1  0
 18 19  1  0
 19 20  2  0
 20 21  1  0
 21 22  1  0
 15 23  1  0
 13  2  1  0
 22 18  2  0
 11  6  1  0
 23 12  1  0
  1 24  1  0
  1 25  1  0
  1 26  1  0
  5 27  1  0
  5 28  1  0
  7 29  1  0
  7 30  1  0
  8 31  1  0
  8 32  1  0
 10 33  1  0
 10 34  1  0
 11 35  1  0
 11 36  1  0
 14 37  1  0
 14 38  1  0
 19 39  1  0
 20 40  1  0
 22 41  1  0
 23 42  1  0
 23 43  1  0
M  END
>  <UniqueID>  (21) 
20

>  <SMILES>  (21) 
Cn1nc(CN2CCOCC2)c2c1CN(C(=O)c1ccsc1)C2

>  <Energy>  (21) 
141.015545765124

>  <Genealogy>  (21) 
Cn1nc(CN2CCOCC2)c2c1CN(C(=O)c1ccsc1)C2 (3D coordinates assigned)
Cn1nc(CN2CCOCC2)c2c1CN(C(=O)c1ccsc1)C2 (nonaromatic ring conformer: 141.015545765124 kcal/mol)

>  <smiles>  (21) 
Cn1nc(CN2CCOCC2)c2c1CN(C(=O)c1ccsc1)C2

>  <score_type>  (21) 
oracle

>  <origin>  (21) 
adg

>  <m_score__min__energy>  (21) 
-7.2699999999999996

>  <m_primary>  (21) 
energy

$$$$
21:0
     RDKit          3D

 44 47  0  0  0  0  0  0  0  0999 V2000
   58.9010   34.0210   44.5250 C   0  0  0  0  0  0  0  0  0  0  0  0
   59.2920   35.0210   45.6250 C   0  0  0  0  0  0  0  0  0  0  0  0
   58.8950   34.6030   46.9880 N   0  0  0  0  0  0  0  0  0  0  0  0
   60.0400   34.4960   47.9220 C   0  0  0  0  0  0  0  0  0  0  0  0
   59.6250   33.8430   49.2440 C   0  0  0  0  0  0  0  0  0  0  0  0
   59.0160   32.5300   48.9980 N   0  0  0  0  0  0  0  0  0  0  0  0
   58.6350   31.7110   50.1160 C   0  0  0  0  0  0  0  0  0  0  0  0
   57.3960   31.8760   50.6730 N   0  0  0  0  0  0  0  0  0  0  0  0
   56.9320   31.0430   51.6500 C   0  0  0  0  0  0  0  0  0  0  0  0
   57.6900   30.0050   52.0900 N   0  0  0  0  0  0  0  0  0  0  0  0
   58.9220   29.8260   51.5600 C   0  0  0  0  0  0  0  0  0  0  0  0
   59.9980   28.6070   51.9540 S   0  0  0  0  0  0  0  0  0  0  0  0
   61.1990   29.1340   50.8920 C   0  0  0  0  0  0  0  0  0  0  0  0
   60.7660   30.2860   50.2290 C   0  0  0  0  0  0  0  0  0  0  0  0
   61.6760   31.0430   49.3490 C   0  0  0  0  0  0  0  0  0  0  0  0
   61.5730   30.9150   47.9550 C   0  0  0  0  0  0  0  0  0  0  0  0
   62.4460   31.6210   47.1190 C   0  0  0  0  0  0  0  0  0  0  0  0
   63.4390   32.4360   47.6720 C   0  0  0  0  0  0  0  0  0  0  0  0
   64.2820   33.1210   46.8610 F   0  0  0  0  0  0  0  0  0  0  0  0
   63.5690   32.5350   49.0600 C   0  0  0  0  0  0  0  0  0  0  0  0
   62.6930   31.8370   49.8980 C   0  0  0  0  0  0  0  0  0  0  0  0
   59.4510   30.6640   50.5940 C   0  0  0  0  0  0  0  0  0  0  0  0
   58.5000   32.2150   47.6600 C   0  0  0  0  0  0  0  0  0  0  0  0
   57.9210   33.4810   47.0190 C   0  0  0  0  0  0  0  0  0  0  0  0
   58.5375   33.0913   44.9870 H   0  0  0  0  0  0  0  0  0  0  0  0
   58.1064   34.4551   43.9004 H   0  0  0  0  0  0  0  0  0  0  0  0
   59.7793   33.8010   43.9004 H   0  0  0  0  0  0  0  0  0  0  0  0
   60.3847   35.1460   45.6062 H   0  0  0  0  0  0  0  0  0  0  0  0
   58.7546   35.9564   45.4101 H   0  0  0  0  0  0  0  0  0  0  0  0
   60.8276   33.8872   47.4541 H   0  0  0  0  0  0  0  0  0  0  0  0
   60.4064   35.5105   48.1375 H   0  0  0  0  0  0  0  0  0  0  0  0
   60.5133   33.7169   49.8804 H   0  0  0  0  0  0  0  0  0  0  0  0
   58.8892   34.4890   49.7452 H   0  0  0  0  0  0  0  0  0  0  0  0
   56.7640   32.6300   50.3230 H   0  0  0  0  0  0  0  0  0  0  0  0
   55.9360   31.2137   52.0846 H   0  0  0  0  0  0  0  0  0  0  0  0
   62.1735   28.6457   50.7441 H   0  0  0  0  0  0  0  0  0  0  0  0
   60.8052   30.2590   47.5189 H   0  0  0  0  0  0  0  0  0  0  0  0
   62.3510   31.5347   46.0265 H   0  0  0  0  0  0  0  0  0  0  0  0
   64.3612   33.1626   49.4941 H   0  0  0  0  0  0  0  0  0  0  0  0
   62.8022   31.9112   50.9900 H   0  0  0  0  0  0  0  0  0  0  0  0
   59.3181   31.8294   47.0339 H   0  0  0  0  0  0  0  0  0  0  0  0
   57.7095   31.4547   47.7439 H   0  0  0  0  0  0  0  0  0  0  0  0
   57.6200   33.2473   45.9871 H   0  0  0  0  0  0  0  0  0  0  0  0
   57.0636   33.8011   47.6293 H   0  0  0  0  0  0  0  0  0  0  0  0
  1  2  1  0
  2  3  1  0
  3  4  1  0
  4  5  1  0
  5  6  1  0
  6  7  1  0
  7  8  2  0
  8  9  1  0
  9 10  2  0
 10 11  1  0
 11 12  1  0
 12 13  1  0
 13 14  2  0
 14 15  1  0
 15 16  2  0
 16 17  1  0
 17 18  2  0
 18 19  1  0
 18 20  1  0
 20 21  2  0
 14 22  1  0
  6 23  1  0
 23 24  1  0
 24  3  1  0
 22  7  1  0
 22 11  2  0
 21 15  1  0
  1 25  1  0
  1 26  1  0
  1 27  1  0
  2 28  1  0
  2 29  1  0
  4 30  1  0
  4 31  1  0
  5 32  1  0
  5 33  1  0
  8 34  1  0
  9 35  1  0
 13 36  1  0
 16 37  1  0
 17 38  1  0
 20 39  1  0
 21 40  1  0
 23 41  1  0
 23 42  1  0
 24 43  1  0
 24 44  1  0
M  CHG  1   8   1
M  END
>  <UniqueID>  (22) 
21

>  <SMILES>  (22) 
CCN1CCN(c2[nH+]cnc3scc(-c4ccc(F)cc4)c23)CC1

>  <Energy>  (22) 
98.4612132001968

>  <Genealogy>  (22) 
CCN1CCN(c2[nH+]cnc3scc(-c4ccc(F)cc4)c23)CC1 (protonated)
CCN1CCN(c2[nH+]cnc3scc(-c4ccc(F)cc4)c23)CC1 (3D coordinates assigned)
CCN1CCN(c2[nH+]cnc3scc(-c4ccc(F)cc4)c23)CC1 (nonaromatic ring conformer: 98.4612132001968 kcal/mol)

>  <smiles>  (22) 
CCN1CCN(c2ncnc3scc(-c4ccc(F)cc4)c23)CC1

>  <score_type>  (22) 
oracle

>  <origin>  (22) 
adg

>  <m_score__min__energy>  (22) 
-5.4699999999999998

>  <m_primary>  (22) 
energy

$$$$
22:0
     RDKit          3D

 31 33  0  0  0  0  0  0  0  0999 V2000
   60.7350   28.2850   45.2660 C   0  0  0  0  0  0  0  0  0  0  0  0
   59.7710   29.1400   46.1140 C   0  0  2  0  0  0  0  0  0  0  0  0
   59.4300   28.4270   47.4380 C   0  0  0  0  0  0  0  0  0  0  0  0
   58.7400   27.1930   47.2790 O   0  0  0  0  0  0  0  0  0  0  0  0
   57.8810   27.1330   46.1450 C   0  0  0  0  0  0  0  0  0  0  0  0
   57.4010   28.4920   45.6100 C   0  0  0  0  0  0  0  0  0  0  0  0
   58.5220   29.4220   45.3860 N   0  0  0  0  0  0  0  0  0  0  0  0
   58.2560   30.7040   44.7340 C   0  0  0  0  0  0  0  0  0  0  0  0
   58.0910   30.7540   43.3680 N   0  0  0  0  0  0  0  0  0  0  0  0
   57.8490   31.9220   42.7050 C   0  0  0  0  0  0  0  0  0  0  0  0
   57.7690   33.0870   43.3930 N   0  0  0  0  0  0  0  0  0  0  0  0
   57.9260   33.0630   44.7100 N   0  0  0  0  0  0  0  0  0  0  0  0
   57.8880   34.1180   45.5350 C   0  0  0  0  0  0  0  0  0  0  0  0
   58.1090   33.6740   46.8220 C   0  0  0  0  0  0  0  0  0  0  0  0
   58.2880   32.2970   46.7560 C   0  0  0  0  0  0  0  0  0  0  0  0
   58.1640   31.9440   45.4160 C   0  0  0  0  0  0  0  0  0  0  0  0
   61.3907   27.7035   45.9307 H   0  0  0  0  0  0  0  0  0  0  0  0
   60.1549   27.5990   44.6313 H   0  0  0  0  0  0  0  0  0  0  0  0
   61.3468   28.9429   44.6313 H   0  0  0  0  0  0  0  0  0  0  0  0
   60.2824   30.0902   46.3274 H   0  0  0  0  0  0  0  0  0  0  0  0
   60.3697   28.2293   47.9745 H   0  0  0  0  0  0  0  0  0  0  0  0
   58.7541   29.0963   47.9905 H   0  0  0  0  0  0  0  0  0  0  0  0
   58.4224   26.6215   45.3356 H   0  0  0  0  0  0  0  0  0  0  0  0
   56.9772   26.6010   46.4767 H   0  0  0  0  0  0  0  0  0  0  0  0
   56.8749   28.3332   44.6571 H   0  0  0  0  0  0  0  0  0  0  0  0
   56.7336   28.9378   46.3622 H   0  0  0  0  0  0  0  0  0  0  0  0
   58.1300   29.8930   42.7810 H   0  0  0  0  0  0  0  0  0  0  0  0
   57.7189   31.9180   41.6127 H   0  0  0  0  0  0  0  0  0  0  0  0
   57.7106   35.1617   45.2364 H   0  0  0  0  0  0  0  0  0  0  0  0
   58.1382   34.2935   47.7305 H   0  0  0  0  0  0  0  0  0  0  0  0
   58.4885   31.6190   47.5986 H   0  0  0  0  0  0  0  0  0  0  0  0
  1  2  1  0
  2  3  1  0
  3  4  1  0
  4  5  1  0
  5  6  1  0
  6  7  1  0
  7  8  1  0
  8  9  2  0
  9 10  1  0
 10 11  2  0
 11 12  1  0
 12 13  1  0
 13 14  2  0
 14 15  1  0
 15 16  2  0
  7  2  1  0
 16  8  1  0
 16 12  1  0
  1 17  1  0
  1 18  1  0
  1 19  1  0
  2 20  1  1
  3 21  1  0
  3 22  1  0
  5 23  1  0
  5 24  1  0
  6 25  1  0
  6 26  1  0
  9 27  1  0
 10 28  1  0
 13 29  1  0
 14 30  1  0
 15 31  1  0
M  CHG  1   9   1
M  END
>  <UniqueID>  (23) 
22

>  <SMILES>  (23) 
C[C@@H]1COCCN1c1[nH+]cnn2cccc12

>  <Energy>  (23) 
84.7014673097786

>  <Genealogy>  (23) 
CC1COCCN1c1[nH+]cnn2cccc12 (protonated)
C[C@@H]1COCCN1c1[nH+]cnn2cccc12 (chirality)
C[C@@H]1COCCN1c1[nH+]cnn2cccc12 (3D coordinates assigned)
C[C@@H]1COCCN1c1[nH+]cnn2cccc12 (nonaromatic ring conformer: 84.7014673097786 kcal/mol)

>  <smiles>  (23) 
CC1COCCN1c1ncnn2cccc12

>  <score_type>  (23) 
oracle

>  <origin>  (23) 
adg

>  <m_score__min__energy>  (23) 
-4.1799999999999997

>  <m_primary>  (23) 
energy

$$$$
23:0
     RDKit          3D

 37 39  0  0  0  0  0  0  0  0999 V2000
   56.7990   31.9799   43.6115 H   0  0  0  0  0  0  0  0  0  0  0  0
   57.3070   31.7350   44.5560 C   0  0  0  0  0  0  0  0  0  0  0  0
   57.6570   30.4540   44.8290 N   0  0  0  0  0  0  0  0  0  0  0  0
   58.2580   30.1060   45.9720 N   0  0  0  0  0  0  0  0  0  0  0  0
   58.6090   28.7220   46.1600 C   0  0  0  0  0  0  0  0  0  0  0  0
   59.9580   28.3220   46.2000 C   0  0  0  0  0  0  0  0  0  0  0  0
   60.7553   29.0741   46.1066 H   0  0  0  0  0  0  0  0  0  0  0  0
   60.2890   26.9720   46.3580 C   0  0  0  0  0  0  0  0  0  0  0  0
   61.3448   26.6658   46.3964 H   0  0  0  0  0  0  0  0  0  0  0  0
   59.2800   26.0130   46.4670 C   0  0  0  0  0  0  0  0  0  0  0  0
   59.5421   24.9525   46.5964 H   0  0  0  0  0  0  0  0  0  0  0  0
   57.9380   26.3980   46.4120 C   0  0  0  0  0  0  0  0  0  0  0  0
   57.1448   25.6403   46.4938 H   0  0  0  0  0  0  0  0  0  0  0  0
   57.6030   27.7460   46.2530 C   0  0  0  0  0  0  0  0  0  0  0  0
   56.5455   28.0441   46.2004 H   0  0  0  0  0  0  0  0  0  0  0  0
   58.5220   31.0510   46.9300 C   0  0  0  0  0  0  0  0  0  0  0  0
   58.9830   30.7100   48.0550 O   0  0  0  0  0  0  0  0  0  0  0  0
   58.2430   32.4040   46.6700 C   0  0  0  0  0  0  0  0  0  0  0  0
   58.5540   33.4310   47.6280 N   0  0  0  0  0  0  0  0  0  0  0  0
   59.5870   34.1850   47.5950 N   0  0  0  0  0  0  0  0  0  0  0  0
   60.8940   33.8350   48.0830 C   0  0  0  0  0  0  0  0  0  0  0  0
   61.1990   34.0540   49.4320 C   0  0  0  0  0  0  0  0  0  0  0  0
   60.4426   34.4918   50.1000 H   0  0  0  0  0  0  0  0  0  0  0  0
   62.4600   33.7190   49.9340 C   0  0  0  0  0  0  0  0  0  0  0  0
   62.6873   33.8780   50.9984 H   0  0  0  0  0  0  0  0  0  0  0  0
   63.4330   33.1820   49.0850 C   0  0  0  0  0  0  0  0  0  0  0  0
   65.1520   32.7150   49.7730 Br  0  0  0  0  0  0  0  0  0  0  0  0
   63.1490   32.9970   47.7280 C   0  0  0  0  0  0  0  0  0  0  0  0
   63.9178   32.5867   47.0567 H   0  0  0  0  0  0  0  0  0  0  0  0
   61.8890   33.3330   47.2240 C   0  0  0  0  0  0  0  0  0  0  0  0
   61.6748   33.2045   46.1527 H   0  0  0  0  0  0  0  0  0  0  0  0
   57.5940   32.7400   45.4780 C   0  0  0  0  0  0  0  0  0  0  0  0
   57.1650   34.4430   45.0970 S   0  0  0  0  0  0  0  0  0  0  0  0
   58.8960   34.9550   44.8630 C   0  0  0  0  0  0  0  0  0  0  0  0
   59.3725   35.0960   45.8443 H   0  0  0  0  0  0  0  0  0  0  0  0
   59.4355   34.1780   44.3016 H   0  0  0  0  0  0  0  0  0  0  0  0
   58.9260   35.9005   44.3016 H   0  0  0  0  0  0  0  0  0  0  0  0
  1  2  1  0
  2  3  2  0
  3  4  1  0
  4  5  1  0
  5  6  2  0
  6  7  1  0
  6  8  1  0
  8  9  1  0
  8 10  2  0
 10 11  1  0
 10 12  1  0
 12 13  1  0
 12 14  2  0
 14 15  1  0
  4 16  1  0
 16 17  2  0
 16 18  1  0
 18 19  1  0
 19 20  2  0
 20 21  1  0
 21 22  2  0
 22 23  1  0
 22 24  1  0
 24 25  1  0
 24 26  2  0
 26 27  1  0
 26 28  1  0
 28 29  1  0
 28 30  2  0
 30 31  1  0
 18 32  2  0
 32 33  1  0
 33 34  1  0
 34 35  1  0
 34 36  1  0
 34 37  1  0
 32  2  1  0
 14  5  1  0
 30 21  1  0
M  END
>  <UniqueID>  (24) 
23

>  <SMILES>  (24) 
CSc1cnn(-c2ccccc2)c(=O)c1/N=N\c1ccc(Br)cc1

>  <Energy>  (24) 
57.276256845115

>  <Genealogy>  (24) 
CSc1cnn(-c2ccccc2)c(=O)c1/N=N\c1ccc(Br)cc1 (cis-trans isomerization)
CSc1cnn(-c2ccccc2)c(=O)c1/N=N\c1ccc(Br)cc1 (3D coordinates assigned)
CSc1cnn(-c2ccccc2)c(=O)c1/N=N\c1ccc(Br)cc1 (optimized conformer: 57.276256845115 kcal/mol)

>  <smiles>  (24) 
CSc1cnn(-c2ccccc2)c(=O)c1N=Nc1ccc(Br)cc1

>  <score_type>  (24) 
oracle

>  <origin>  (24) 
adg

>  <m_score__min__energy>  (24) 
-7.6600000000000001

>  <m_primary>  (24) 
energy

$$$$
24:0
     RDKit          3D

 24 24  0  0  0  0  0  0  0  0999 V2000
   57.0230   27.5230   45.5910 C   0  0  0  0  0  0  0  0  0  0  0  0
   55.9540   28.3960   45.2470 O   0  0  0  0  0  0  0  0  0  0  0  0
   56.1640   29.6500   44.6660 C   0  0  0  0  0  0  0  0  0  0  0  0
   55.2020   30.4440   44.4840 O   0  0  0  0  0  0  0  0  0  0  0  0
   57.5520   30.0690   44.3050 C   0  0  0  0  0  0  0  0  0  0  0  0
   57.8350   31.4390   44.8550 C   0  0  0  0  0  0  0  0  0  0  0  0
   57.7840   32.5630   44.0160 C   0  0  0  0  0  0  0  0  0  0  0  0
   58.0690   33.8340   44.5230 C   0  0  0  0  0  0  0  0  0  0  0  0
   58.4210   33.9910   45.8650 C   0  0  0  0  0  0  0  0  0  0  0  0
   58.5080   32.8730   46.7090 C   0  0  0  0  0  0  0  0  0  0  0  0
   58.8550   33.0450   48.1580 C   0  0  0  0  0  0  0  0  0  0  0  0
   58.2020   31.6000   46.2030 C   0  0  0  0  0  0  0  0  0  0  0  0
   57.1043   27.4566   46.6860 H   0  0  0  0  0  0  0  0  0  0  0  0
   56.8276   26.5230   45.1765 H   0  0  0  0  0  0  0  0  0  0  0  0
   57.9638   27.9143   45.1765 H   0  0  0  0  0  0  0  0  0  0  0  0
   58.2706   29.3513   44.7275 H   0  0  0  0  0  0  0  0  0  0  0  0
   57.6486   30.0927   43.2095 H   0  0  0  0  0  0  0  0  0  0  0  0
   57.5187   32.4432   42.9552 H   0  0  0  0  0  0  0  0  0  0  0  0
   58.0159   34.7126   43.8632 H   0  0  0  0  0  0  0  0  0  0  0  0
   58.6310   34.9950   46.2624 H   0  0  0  0  0  0  0  0  0  0  0  0
   58.0421   32.6421   48.7800 H   0  0  0  0  0  0  0  0  0  0  0  0
   59.7875   32.5048   48.3783 H   0  0  0  0  0  0  0  0  0  0  0  0
   58.9898   34.1142   48.3783 H   0  0  0  0  0  0  0  0  0  0  0  0
   58.2496   30.7228   46.8650 H   0  0  0  0  0  0  0  0  0  0  0  0
  1  2  1  0
  2  3  1  0
  3  4  2  0
  3  5  1  0
  5  6  1  0
  6  7  2  0
  7  8  1  0
  8  9  2  0
  9 10  1  0
 10 11  1  0
 10 12  2  0
 12  6  1  0
  1 13  1  0
  1 14  1  0
  1 15  1  0
  5 16  1  0
  5 17  1  0
  7 18  1  0
  8 19  1  0
  9 20  1  0
 11 21  1  0
 11 22  1  0
 11 23  1  0
 12 24  1  0
M  END
>  <UniqueID>  (25) 
24

>  <SMILES>  (25) 
COC(=O)Cc1cccc(C)c1

>  <Energy>  (25) 
16.996891193098097

>  <Genealogy>  (25) 
COC(=O)Cc1cccc(C)c1 (3D coordinates assigned)
COC(=O)Cc1cccc(C)c1 (optimized conformer: 16.996891193098097 kcal/mol)

>  <smiles>  (25) 
COC(=O)Cc1cccc(C)c1

>  <score_type>  (25) 
oracle

>  <origin>  (25) 
adg

>  <m_score__min__energy>  (25) 
-5.3300000000000001

>  <m_primary>  (25) 
energy

$$$$
25:0
     RDKit          3D

 47 48  0  0  1  0  0  0  0  0999 V2000
   58.0790   32.3790   41.1560 C   0  0  0  0  0  0  0  0  0  0  0  0
   57.7730   32.0270   42.5760 C   0  0  0  0  0  0  0  0  0  0  0  0
   57.8870   32.9660   43.5750 C   0  0  0  0  0  0  0  0  0  0  0  0
   57.1140   30.5040   44.2000 C   0  0  0  0  0  0  0  0  0  0  0  0
   56.7350   29.3160   44.4990 N   0  0  0  0  0  0  0  0  0  0  0  0
   57.5630   33.4670   47.1630 C   0  0  0  0  0  0  0  0  0  0  0  0
   58.5500   32.6350   47.9000 C   0  0  0  0  0  0  0  0  0  0  0  0
   58.8120   31.3310   47.4020 N   0  0  0  0  0  0  0  0  0  0  0  0
   58.8800   30.4490   48.5820 C   0  0  0  0  0  0  0  0  0  0  0  0
   60.0890   31.1720   46.7350 C   0  0  0  0  0  0  0  0  0  0  0  0
   57.2230   31.4140   45.1790 N   0  0  0  0  0  0  0  0  0  0  0  0
   57.6130   32.6620   44.8740 C   0  0  0  0  0  0  0  0  0  0  0  0
   57.7330   33.5750   45.7580 N   0  0  0  0  0  0  0  0  0  0  0  0
   57.3940   28.0870   44.1650 C   0  0  0  0  0  0  0  0  0  0  0  0
   58.4840   27.7570   45.1500 C   0  0  0  0  0  0  0  0  0  0  0  0
   59.7740   28.2140   44.9960 C   0  0  0  0  0  0  0  0  0  0  0  0
   60.7000   27.8430   45.9680 C   0  0  0  0  0  0  0  0  0  0  0  0
   60.3590   27.0520   47.0480 C   0  0  0  0  0  0  0  0  0  0  0  0
   59.0600   26.6040   47.1860 C   0  0  0  0  0  0  0  0  0  0  0  0
   58.1060   26.9550   46.2340 C   0  0  0  0  0  0  0  0  0  0  0  0
   56.6870   26.4940   46.3440 C   0  0  0  0  0  0  0  0  0  0  0  0
   57.3770   30.7690   42.9110 N   0  0  0  0  0  0  0  0  0  0  0  0
   58.8005   33.2090   41.1313 H   0  0  0  0  0  0  0  0  0  0  0  0
   58.5087   31.5043   40.6458 H   0  0  0  0  0  0  0  0  0  0  0  0
   57.1530   32.6828   40.6458 H   0  0  0  0  0  0  0  0  0  0  0  0
   58.2071   33.9867   43.3185 H   0  0  0  0  0  0  0  0  0  0  0  0
   57.6072   34.4832   47.5817 H   0  0  0  0  0  0  0  0  0  0  0  0
   56.5999   32.9524   47.2956 H   0  0  0  0  0  0  0  0  0  0  0  0
   59.5037   33.1831   47.9055 H   0  0  0  0  0  0  0  0  0  0  0  0
   58.0950   32.4708   48.8880 H   0  0  0  0  0  0  0  0  0  0  0  0
   58.8331   31.0571   49.4975 H   0  0  0  0  0  0  0  0  0  0  0  0
   58.0333   29.7470   48.5643 H   0  0  0  0  0  0  0  0  0  0  0  0
   59.8243   29.8851   48.5643 H   0  0  0  0  0  0  0  0  0  0  0  0
   60.8856   31.0728   47.4870 H   0  0  0  0  0  0  0  0  0  0  0  0
   60.0643   30.2700   46.1059 H   0  0  0  0  0  0  0  0  0  0  0  0
   60.2862   32.0525   46.1059 H   0  0  0  0  0  0  0  0  0  0  0  0
   57.0240   31.1990   46.1620 H   0  0  0  0  0  0  0  0  0  0  0  0
   56.6538   27.2733   44.1659 H   0  0  0  0  0  0  0  0  0  0  0  0
   57.8514   28.2009   43.1711 H   0  0  0  0  0  0  0  0  0  0  0  0
   60.0608   28.8450   44.1419 H   0  0  0  0  0  0  0  0  0  0  0  0
   61.7388   28.1919   45.8724 H   0  0  0  0  0  0  0  0  0  0  0  0
   61.1192   26.7801   47.7951 H   0  0  0  0  0  0  0  0  0  0  0  0
   58.7804   25.9735   48.0429 H   0  0  0  0  0  0  0  0  0  0  0  0
   56.4117   26.4046   47.4052 H   0  0  0  0  0  0  0  0  0  0  0  0
   56.0254   27.2234   45.8538 H   0  0  0  0  0  0  0  0  0  0  0  0
   56.5805   25.5150   45.8538 H   0  0  0  0  0  0  0  0  0  0  0  0
   57.2940   30.0670   42.1580 H   0  0  0  0  0  0  0  0  0  0  0  0
  1  2  1  0
  2  3  2  0
  3  4  1  0
  4  5  2  0
  5  6  1  0
  6  7  1  0
  7  8  1  0
  8  9  1  0
  8 10  1  0
  4 11  1  0
 11 12  1  0
 12 13  2  0
 13 14  1  0
 14 15  1  0
 15 16  2  0
 16 17  1  0
 17 18  2  0
 18 19  1  0
 19 20  2  0
 20 21  1  0
 12 22  1  0
 22  2  1  0
 20 15  1  0
  1 23  1  0
  1 24  1  0
  1 25  1  0
  3 26  1  0
  6 27  1  0
  6 28  1  0
  7 29  1  0
  7 30  1  0
  9 31  1  0
  9 32  1  0
  9 33  1  0
 10 34  1  0
 10 35  1  0
 10 36  1  0
 11 37  1  0
 14 38  1  0
 14 39  1  0
 16 40  1  0
 17 41  1  0
 18 42  1  0
 19 43  1  0
 21 44  1  0
 21 45  1  0
 21 46  1  0
 22 47  1  0
M  END
>  <smiles>  (26) 
Cc1cc(=NCCN(C)C)[nH]c(=NCc2ccccc2C)[nH]1

>  <score_type>  (26) 
oracle

>  <origin>  (26) 
adg

>  <m_score__min__energy>  (26) 
-7.8099999999999996

>  <m_primary>  (26) 
energy

$$$$
26:0
     RDKit          3D

 37 39  0  0  0  0  0  0  0  0999 V2000
   62.7860   34.2090   50.8900 C   0  0  0  0  0  0  0  0  0  0  0  0
   63.7660   33.8230   49.7900 C   0  0  0  0  0  0  0  0  0  0  0  0
   63.0990   32.9940   48.7890 N   0  0  0  0  0  0  0  0  0  0  0  0
   61.7830   32.9970   48.5060 C   0  0  0  0  0  0  0  0  0  0  0  0
   61.5620   32.1230   47.4500 C   0  0  0  0  0  0  0  0  0  0  0  0
   60.2670   31.8030   46.7960 C   0  0  0  0  0  0  0  0  0  0  0  0
   59.4160   32.8310   46.3560 C   0  0  0  0  0  0  0  0  0  0  0  0
   58.2110   32.5320   45.7240 C   0  0  0  0  0  0  0  0  0  0  0  0
   57.8230   31.2040   45.5310 C   0  0  0  0  0  0  0  0  0  0  0  0
   58.6410   30.1480   45.9850 C   0  0  0  0  0  0  0  0  0  0  0  0
   59.8750   30.4660   46.5950 C   0  0  0  0  0  0  0  0  0  0  0  0
   58.2540   28.6890   45.7060 C   0  0  0  0  0  0  0  0  0  0  0  0
   58.4280   27.8200   46.9660 C   0  0  0  0  0  0  0  0  0  0  0  0
   59.1340   28.1420   44.5730 C   0  0  0  0  0  0  0  0  0  0  0  0
   56.8830   28.5550   45.3000 O   0  0  0  0  0  0  0  0  0  0  0  0
   56.1240   29.5950   44.7700 C   0  0  0  0  0  0  0  0  0  0  0  0
   55.0090   29.3560   44.2390 O   0  0  0  0  0  0  0  0  0  0  0  0
   56.5910   30.9320   44.8690 N   0  0  0  0  0  0  0  0  0  0  0  0
   62.8200   31.6240   47.1310 C   0  0  0  0  0  0  0  0  0  0  0  0
   63.7250   32.1780   47.9570 N   0  0  0  0  0  0  0  0  0  0  0  0
   63.2470   34.0274   51.8721 H   0  0  0  0  0  0  0  0  0  0  0  0
   62.5307   35.2748   50.7962 H   0  0  0  0  0  0  0  0  0  0  0  0
   61.8724   33.6035   50.7962 H   0  0  0  0  0  0  0  0  0  0  0  0
   64.1504   34.7347   49.3093 H   0  0  0  0  0  0  0  0  0  0  0  0
   64.5965   33.2534   50.2325 H   0  0  0  0  0  0  0  0  0  0  0  0
   61.0143   33.5903   49.0228 H   0  0  0  0  0  0  0  0  0  0  0  0
   59.7038   33.8812   46.5120 H   0  0  0  0  0  0  0  0  0  0  0  0
   57.5605   33.3473   45.3745 H   0  0  0  0  0  0  0  0  0  0  0  0
   60.5420   29.6535   46.9190 H   0  0  0  0  0  0  0  0  0  0  0  0
   58.3029   28.4449   47.8626 H   0  0  0  0  0  0  0  0  0  0  0  0
   57.6720   27.0209   46.9676 H   0  0  0  0  0  0  0  0  0  0  0  0
   59.4334   27.3736   46.9676 H   0  0  0  0  0  0  0  0  0  0  0  0
   59.9941   27.6073   45.0023 H   0  0  0  0  0  0  0  0  0  0  0  0
   58.5450   27.4506   43.9525 H   0  0  0  0  0  0  0  0  0  0  0  0
   59.4933   28.9762   43.9525 H   0  0  0  0  0  0  0  0  0  0  0  0
   63.0386   30.8968   46.3351 H   0  0  0  0  0  0  0  0  0  0  0  0
   64.7560   32.0100   47.9440 H   0  0  0  0  0  0  0  0  0  0  0  0
  1  2  1  0
  2  3  1  0
  3  4  1  0
  4  5  2  0
  5  6  1  0
  6  7  2  0
  7  8  1  0
  8  9  2  0
  9 10  1  0
 10 11  2  0
 10 12  1  0
 12 13  1  0
 12 14  1  0
 12 15  1  0
 15 16  1  0
 16 17  2  0
 16 18  1  0
  5 19  1  0
 19 20  2  0
 20  3  1  0
 11  6  1  0
 18  9  1  0
  1 21  1  0
  1 22  1  0
  1 23  1  0
  2 24  1  0
  2 25  1  0
  4 26  1  0
  7 27  1  0
  8 28  1  0
 11 29  1  0
 13 30  1  0
 13 31  1  0
 13 32  1  0
 14 33  1  0
 14 34  1  0
 14 35  1  0
 19 36  1  0
 20 37  1  0
M  CHG  2  18  -1  20   1
M  END
>  <UniqueID>  (27) 
25

>  <SMILES>  (27) 
CCn1cc(-c2ccc3c(c2)C(C)(C)OC(=O)[N-]3)c[nH+]1

>  <Energy>  (27) 
67.84107917536546

>  <Genealogy>  (27) 
CCn1cc(-c2ccc3c(c2)C(C)(C)OC(=O)[N-]3)c[nH+]1 (protonated)
CCn1cc(-c2ccc3c(c2)C(C)(C)OC(=O)[N-]3)c[nH+]1 (3D coordinates assigned)
CCn1cc(-c2ccc3c(c2)C(C)(C)OC(=O)[N-]3)c[nH+]1 (nonaromatic ring conformer: 67.84107917536546 kcal/mol)

>  <smiles>  (27) 
CCn1cc(-c2ccc3c(c2)C(C)(C)OC(=O)N3)cn1

>  <score_type>  (27) 
oracle

>  <origin>  (27) 
adg

>  <m_score__min__energy>  (27) 
-7.7699999999999996

>  <m_primary>  (27) 
energy

$$$$
27:0
     RDKit          3D

 46 48  0  0  0  0  0  0  0  0999 V2000
   56.7020   26.3610   45.9770 C   0  0  0  0  0  0  0  0  0  0  0  0
   55.9090   27.4920   45.6320 O   0  0  0  0  0  0  0  0  0  0  0  0
   56.4290   28.7360   45.2450 C   0  0  0  0  0  0  0  0  0  0  0  0
   55.7280   29.6180   44.3980 C   0  0  0  0  0  0  0  0  0  0  0  0
   56.2890   30.8480   44.0420 C   0  0  0  0  0  0  0  0  0  0  0  0
   57.5500   31.2210   44.5330 C   0  0  0  0  0  0  0  0  0  0  0  0
   58.1690   32.5300   44.1200 C   0  0  0  0  0  0  0  0  0  0  0  0
   57.4020   33.7040   44.7460 C   0  0  0  0  0  0  0  0  0  0  0  0
   58.0580   34.2820   45.9380 N   0  0  0  0  0  0  0  0  0  0  0  0
   59.2880   35.0680   45.7140 C   0  0  0  0  0  0  0  0  0  0  0  0
   60.5660   34.2600   45.9710 C   0  0  0  0  0  0  0  0  0  0  0  0
   60.4620   33.5450   47.2430 N   0  0  0  0  0  0  0  0  0  0  0  0
   61.6140   33.3940   48.0940 C   0  0  0  0  0  0  0  0  0  0  0  0
   61.6750   34.0370   49.3430 C   0  0  0  0  0  0  0  0  0  0  0  0
   62.7960   33.8840   50.1640 C   0  0  0  0  0  0  0  0  0  0  0  0
   63.8640   33.0850   49.7470 C   0  0  0  0  0  0  0  0  0  0  0  0
   63.8120   32.4390   48.5090 C   0  0  0  0  0  0  0  0  0  0  0  0
   62.6920   32.5920   47.6850 C   0  0  0  0  0  0  0  0  0  0  0  0
   59.2890   32.6950   47.4450 C   0  0  0  0  0  0  0  0  0  0  0  0
   58.0070   33.4930   47.1860 C   0  0  0  0  0  0  0  0  0  0  0  0
   58.2530   30.3360   45.3640 C   0  0  0  0  0  0  0  0  0  0  0  0
   57.6920   29.1060   45.7200 C   0  0  0  0  0  0  0  0  0  0  0  0
   56.7620   26.2755   47.0720 H   0  0  0  0  0  0  0  0  0  0  0  0
   56.2430   25.4512   45.5628 H   0  0  0  0  0  0  0  0  0  0  0  0
   57.7138   26.4825   45.5628 H   0  0  0  0  0  0  0  0  0  0  0  0
   54.7355   29.3374   44.0156 H   0  0  0  0  0  0  0  0  0  0  0  0
   55.7394   31.5271   43.3736 H   0  0  0  0  0  0  0  0  0  0  0  0
   59.2154   32.5590   44.4578 H   0  0  0  0  0  0  0  0  0  0  0  0
   58.1238   32.6170   43.0244 H   0  0  0  0  0  0  0  0  0  0  0  0
   57.3016   34.4952   43.9884 H   0  0  0  0  0  0  0  0  0  0  0  0
   56.4300   33.3095   45.0769 H   0  0  0  0  0  0  0  0  0  0  0  0
   59.2968   35.4169   44.6708 H   0  0  0  0  0  0  0  0  0  0  0  0
   59.2785   35.9070   46.4254 H   0  0  0  0  0  0  0  0  0  0  0  0
   60.7076   33.5345   45.1564 H   0  0  0  0  0  0  0  0  0  0  0  0
   61.4238   34.9473   46.0137 H   0  0  0  0  0  0  0  0  0  0  0  0
   60.8352   34.6645   49.6762 H   0  0  0  0  0  0  0  0  0  0  0  0
   62.8375   34.3926   51.1385 H   0  0  0  0  0  0  0  0  0  0  0  0
   64.7458   32.9646   50.3935 H   0  0  0  0  0  0  0  0  0  0  0  0
   64.6527   31.8095   48.1821 H   0  0  0  0  0  0  0  0  0  0  0  0
   62.6554   32.0814   46.7114 H   0  0  0  0  0  0  0  0  0  0  0  0
   59.3335   31.8432   46.7504 H   0  0  0  0  0  0  0  0  0  0  0  0
   59.2827   32.3325   48.4835 H   0  0  0  0  0  0  0  0  0  0  0  0
   57.1638   32.7896   47.1213 H   0  0  0  0  0  0  0  0  0  0  0  0
   57.8884   34.2025   48.0182 H   0  0  0  0  0  0  0  0  0  0  0  0
   59.2505   30.6112   45.7373 H   0  0  0  0  0  0  0  0  0  0  0  0
   58.2482   28.4233   46.3791 H   0  0  0  0  0  0  0  0  0  0  0  0
  1  2  1  0
  2  3  1  0
  3  4  2  0
  4  5  1  0
  5  6  2  0
  6  7  1  0
  7  8  1  0
  8  9  1  0
  9 10  1  0
 10 11  1  0
 11 12  1  0
 12 13  1  0
 13 14  2  0
 14 15  1  0
 15 16  2  0
 16 17  1  0
 17 18  2  0
 12 19  1  0
 19 20  1  0
  6 21  1  0
 21 22  2  0
 22  3  1  0
 20  9  1  0
 18 13  1  0
  1 23  1  0
  1 24  1  0
  1 25  1  0
  4 26  1  0
  5 27  1  0
  7 28  1  0
  7 29  1  0
  8 30  1  0
  8 31  1  0
 10 32  1  0
 10 33  1  0
 11 34  1  0
 11 35  1  0
 14 36  1  0
 15 37  1  0
 16 38  1  0
 17 39  1  0
 18 40  1  0
 19 41  1  0
 19 42  1  0
 20 43  1  0
 20 44  1  0
 21 45  1  0
 22 46  1  0
M  END
>  <UniqueID>  (28) 
26

>  <SMILES>  (28) 
COc1ccc(CCN2CCN(c3ccccc3)CC2)cc1

>  <Energy>  (28) 
58.589633738137316

>  <Genealogy>  (28) 
COc1ccc(CCN2CCN(c3ccccc3)CC2)cc1 (3D coordinates assigned)
COc1ccc(CCN2CCN(c3ccccc3)CC2)cc1 (nonaromatic ring conformer: 58.589633738137316 kcal/mol)

>  <smiles>  (28) 
COc1ccc(CCN2CCN(c3ccccc3)CC2)cc1

>  <score_type>  (28) 
oracle

>  <origin>  (28) 
adg

>  <m_score__min__energy>  (28) 
-7.75

>  <m_primary>  (28) 
energy

$$$$
28:0
     RDKit          3D

 25 27  0  0  0  0  0  0  0  0999 V2000
   59.2170   29.0110   52.7160 C   0  0  0  0  0  0  0  0  0  0  0  0
   57.8240   29.5430   52.5690 C   0  0  0  0  0  0  0  0  0  0  0  0
   57.5910   30.7260   51.8190 C   0  0  0  0  0  0  0  0  0  0  0  0
   56.2860   31.2210   51.6400 C   0  0  0  0  0  0  0  0  0  0  0  0
   55.2410   30.5000   52.2150 C   0  0  0  0  0  0  0  0  0  0  0  0
   55.4550   29.3480   52.9280 C   0  0  0  0  0  0  0  0  0  0  0  0
   56.7340   28.8320   53.1220 C   0  0  0  0  0  0  0  0  0  0  0  0
   54.2800   28.8460   53.3630 N   0  0  0  0  0  0  0  0  0  0  0  0
   53.3650   29.7270   52.8930 C   0  0  0  0  0  0  0  0  0  0  0  0
   51.9850   29.6560   53.0740 C   0  0  0  0  0  0  0  0  0  0  0  0
   51.2000   30.6720   52.5030 C   0  0  0  0  0  0  0  0  0  0  0  0
   51.8030   31.7180   51.7760 C   0  0  0  0  0  0  0  0  0  0  0  0
   51.0210   32.7190   51.2130 O   0  0  0  0  0  0  0  0  0  0  0  0
   53.1980   31.7420   51.6230 C   0  0  0  0  0  0  0  0  0  0  0  0
   53.9190   30.7420   52.1920 N   0  0  0  0  0  0  0  0  0  0  0  0
   59.4628   28.9171   53.7841 H   0  0  0  0  0  0  0  0  0  0  0  0
   59.2850   28.0236   52.2359 H   0  0  0  0  0  0  0  0  0  0  0  0
   59.9258   29.7017   52.2359 H   0  0  0  0  0  0  0  0  0  0  0  0
   58.4413   31.2622   51.3723 H   0  0  0  0  0  0  0  0  0  0  0  0
   56.0978   32.1417   51.0682 H   0  0  0  0  0  0  0  0  0  0  0  0
   56.8911   27.9015   53.6871 H   0  0  0  0  0  0  0  0  0  0  0  0
   54.1170   27.9830   53.9280 H   0  0  0  0  0  0  0  0  0  0  0  0
   51.5267   28.8340   53.6435 H   0  0  0  0  0  0  0  0  0  0  0  0
   50.1069   30.6508   52.6243 H   0  0  0  0  0  0  0  0  0  0  0  0
   53.6923   32.5468   51.0591 H   0  0  0  0  0  0  0  0  0  0  0  0
  1  2  1  0
  2  3  2  0
  3  4  1  0
  4  5  2  0
  5  6  1  0
  6  7  2  0
  6  8  1  0
  8  9  2  0
  9 10  1  0
 10 11  2  0
 11 12  1  0
 12 13  1  0
 12 14  2  0
 14 15  1  0
  7  2  1  0
 15  9  1  0
 15  5  1  0
  1 16  1  0
  1 17  1  0
  1 18  1  0
  3 19  1  0
  4 20  1  0
  7 21  1  0
  8 22  1  0
 10 23  1  0
 11 24  1  0
 14 25  1  0
M  CHG  2   8   1  13  -1
M  END
>  <UniqueID>  (29) 
27

>  <SMILES>  (29) 
Cc1ccc2c(c1)[nH+]c1ccc([O-])cn12

>  <Energy>  (29) 
71.47206303097109

>  <Genealogy>  (29) 
Cc1ccc2c(c1)[nH+]c1ccc([O-])cn12 (protonated)
Cc1ccc2c(c1)[nH+]c1ccc([O-])cn12 (3D coordinates assigned)
Cc1ccc2c(c1)[nH+]c1ccc([O-])cn12 (optimized conformer: 71.47206303097109 kcal/mol)

>  <smiles>  (29) 
Cc1ccc2c(c1)nc1ccc(O)cn12

>  <score_type>  (29) 
oracle

>  <origin>  (29) 
adg

>  <m_score__min__energy>  (29) 
-7.8700000000000001

>  <m_primary>  (29) 
energy

$$$$
29:0
     RDKit          3D

 41 44  0  0  0  0  0  0  0  0999 V2000
   56.6860   30.3940   43.8380 C   0  0  0  0  0  0  0  0  0  0  0  0
   56.5140   31.3580   44.8710 O   0  0  0  0  0  0  0  0  0  0  0  0
   57.4750   32.3160   45.2280 C   0  0  0  0  0  0  0  0  0  0  0  0
   57.3780   33.6640   44.8370 C   0  0  0  0  0  0  0  0  0  0  0  0
   58.3570   34.5810   45.2270 C   0  0  0  0  0  0  0  0  0  0  0  0
   59.4420   34.1640   46.0000 C   0  0  0  0  0  0  0  0  0  0  0  0
   59.5660   32.8170   46.3760 C   0  0  0  0  0  0  0  0  0  0  0  0
   60.6920   32.3670   47.2180 C   0  0  0  0  0  0  0  0  0  0  0  0
   61.4620   33.2200   47.9220 N   0  0  0  0  0  0  0  0  0  0  0  0
   62.3980   32.4210   48.4770 C   0  0  0  0  0  0  0  0  0  0  0  0
   63.4840   32.9150   49.3460 C   0  0  0  0  0  0  0  0  0  0  0  0
   63.1870   33.7370   50.4440 C   0  0  0  0  0  0  0  0  0  0  0  0
   64.2220   34.1990   51.2580 C   0  0  0  0  0  0  0  0  0  0  0  0
   65.5380   33.8400   50.9760 C   0  0  0  0  0  0  0  0  0  0  0  0
   65.8030   33.0210   49.8770 C   0  0  0  0  0  0  0  0  0  0  0  0
   64.7840   32.5780   49.0900 N   0  0  0  0  0  0  0  0  0  0  0  0
   62.2360   31.1550   48.1590 O   0  0  0  0  0  0  0  0  0  0  0  0
   61.1800   31.0780   47.3860 C   0  0  0  0  0  0  0  0  0  0  0  0
   60.6340   29.8060   46.8750 C   0  0  0  0  0  0  0  0  0  0  0  0
   59.9360   28.9410   47.7310 C   0  0  0  0  0  0  0  0  0  0  0  0
   59.4020   27.7540   47.2240 C   0  0  0  0  0  0  0  0  0  0  0  0
   59.5580   27.4450   45.8720 C   0  0  0  0  0  0  0  0  0  0  0  0
   60.2450   28.3340   45.0440 C   0  0  0  0  0  0  0  0  0  0  0  0
   60.7580   29.4840   45.5570 N   0  0  0  0  0  0  0  0  0  0  0  0
   58.5680   31.9050   46.0030 C   0  0  0  0  0  0  0  0  0  0  0  0
   56.8625   29.4047   44.2854 H   0  0  0  0  0  0  0  0  0  0  0  0
   55.7800   30.3584   43.2152 H   0  0  0  0  0  0  0  0  0  0  0  0
   57.5484   30.6739   43.2152 H   0  0  0  0  0  0  0  0  0  0  0  0
   56.5287   33.9969   44.2223 H   0  0  0  0  0  0  0  0  0  0  0  0
   58.2726   35.6351   44.9240 H   0  0  0  0  0  0  0  0  0  0  0  0
   60.2025   34.8934   46.3157 H   0  0  0  0  0  0  0  0  0  0  0  0
   62.1452   34.0153   50.6615 H   0  0  0  0  0  0  0  0  0  0  0  0
   63.9992   34.8450   52.1200 H   0  0  0  0  0  0  0  0  0  0  0  0
   66.3602   34.1983   51.6129 H   0  0  0  0  0  0  0  0  0  0  0  0
   66.8390   32.7324   49.6459 H   0  0  0  0  0  0  0  0  0  0  0  0
   65.0200   31.9670   48.2760 H   0  0  0  0  0  0  0  0  0  0  0  0
   59.8101   29.1957   48.7937 H   0  0  0  0  0  0  0  0  0  0  0  0
   58.8601   27.0648   47.8884 H   0  0  0  0  0  0  0  0  0  0  0  0
   59.1441   26.5113   45.4635 H   0  0  0  0  0  0  0  0  0  0  0  0
   60.3715   28.1042   43.9757 H   0  0  0  0  0  0  0  0  0  0  0  0
   58.6440   30.8551   46.3224 H   0  0  0  0  0  0  0  0  0  0  0  0
  1  2  1  0
  2  3  1  0
  3  4  2  0
  4  5  1  0
  5  6  2  0
  6  7  1  0
  7  8  1  0
  8  9  1  0
  9 10  2  0
 10 11  1  0
 11 12  2  0
 12 13  1  0
 13 14  2  0
 14 15  1  0
 15 16  2  0
 10 17  1  0
 17 18  1  0
 18 19  1  0
 19 20  2  0
 20 21  1  0
 21 22  2  0
 22 23  1  0
 23 24  2  0
  7 25  2  0
 25  3  1  0
 18  8  2  0
 24 19  1  0
 16 11  1  0
  1 26  1  0
  1 27  1  0
  1 28  1  0
  4 29  1  0
  5 30  1  0
  6 31  1  0
 12 32  1  0
 13 33  1  0
 14 34  1  0
 15 35  1  0
 16 36  1  0
 20 37  1  0
 21 38  1  0
 22 39  1  0
 23 40  1  0
 25 41  1  0
M  CHG  1  16   1
M  END
>  <UniqueID>  (30) 
28

>  <SMILES>  (30) 
COc1cccc(-c2nc(-c3cccc[nH+]3)oc2-c2ccccn2)c1

>  <Energy>  (30) 
81.73752761891717

>  <Genealogy>  (30) 
COc1cccc(-c2nc(-c3cccc[nH+]3)oc2-c2ccccn2)c1 (protonated)
COc1cccc(-c2nc(-c3cccc[nH+]3)oc2-c2ccccn2)c1 (3D coordinates assigned)
COc1cccc(-c2nc(-c3cccc[nH+]3)oc2-c2ccccn2)c1 (optimized conformer: 81.73752761891717 kcal/mol)

>  <smiles>  (30) 
COc1cccc(-c2nc(-c3ccccn3)oc2-c2ccccn2)c1

>  <score_type>  (30) 
oracle

>  <origin>  (30) 
adg

>  <m_score__min__energy>  (30) 
-6.3300000000000001

>  <m_primary>  (30) 
energy

$$$$
30:0
     RDKit          3D

 56 58  0  0  0  0  0  0  0  0999 V2000
   60.2910   28.1420   47.7310 C   0  0  0  0  0  0  0  0  0  0  0  0
   59.0530   27.5740   47.1010 C   0  0  0  0  0  0  0  0  0  0  0  0
   58.7120   26.2290   47.3030 C   0  0  0  0  0  0  0  0  0  0  0  0
   57.5410   25.7110   46.7470 C   0  0  0  0  0  0  0  0  0  0  0  0
   56.6950   26.5320   45.9970 C   0  0  0  0  0  0  0  0  0  0  0  0
   57.0190   27.8890   45.7950 C   0  0  0  0  0  0  0  0  0  0  0  0
   56.2170   28.7660   45.0430 O   0  0  0  0  0  0  0  0  0  0  0  0
   56.6790   29.7070   44.0720 C   0  0  0  0  0  0  0  0  0  0  0  0
   56.3600   31.1510   44.4760 C   0  0  0  0  0  0  0  0  0  0  0  0
   57.6000   31.9190   44.7300 N   0  0  0  0  0  0  0  0  0  0  0  0
   58.0570   31.8230   46.1430 C   0  0  0  0  0  0  0  0  0  0  0  0
   57.6870   33.0630   46.9700 C   0  0  0  0  0  0  0  0  0  0  0  0
   58.3230   34.3720   46.3930 C   0  0  0  0  0  0  0  0  0  0  0  0
   59.5730   34.7810   47.1180 N   0  0  1  0  0  0  0  0  0  0  0  0
   59.6400   34.1970   48.4780 C   0  0  0  0  0  0  0  0  0  0  0  0
   60.8380   34.4730   46.3840 C   0  0  0  0  0  0  0  0  0  0  0  0
   61.7310   33.4610   47.0750 C   0  0  0  0  0  0  0  0  0  0  0  0
   62.9100   33.8780   47.7190 C   0  0  0  0  0  0  0  0  0  0  0  0
   63.7360   32.9450   48.3520 C   0  0  0  0  0  0  0  0  0  0  0  0
   63.3880   31.5910   48.3580 C   0  0  0  0  0  0  0  0  0  0  0  0
   62.2120   31.1700   47.7350 C   0  0  0  0  0  0  0  0  0  0  0  0
   61.3830   32.1000   47.0990 C   0  0  0  0  0  0  0  0  0  0  0  0
   58.5600   34.2110   44.8610 C   0  0  0  0  0  0  0  0  0  0  0  0
   57.4960   33.3090   44.2280 C   0  0  0  0  0  0  0  0  0  0  0  0
   58.1930   28.4000   46.3610 C   0  0  0  0  0  0  0  0  0  0  0  0
   60.1978   28.0992   48.8262 H   0  0  0  0  0  0  0  0  0  0  0  0
   61.1659   27.5552   47.4143 H   0  0  0  0  0  0  0  0  0  0  0  0
   60.4168   29.1879   47.4143 H   0  0  0  0  0  0  0  0  0  0  0  0
   59.3689   25.5804   47.9011 H   0  0  0  0  0  0  0  0  0  0  0  0
   57.2834   24.6526   46.8999 H   0  0  0  0  0  0  0  0  0  0  0  0
   55.7730   26.1181   45.5627 H   0  0  0  0  0  0  0  0  0  0  0  0
   57.7685   29.6006   43.9644 H   0  0  0  0  0  0  0  0  0  0  0  0
   56.1636   29.4975   43.1231 H   0  0  0  0  0  0  0  0  0  0  0  0
   55.7972   31.6353   43.6644 H   0  0  0  0  0  0  0  0  0  0  0  0
   55.7648   31.1320   45.4009 H   0  0  0  0  0  0  0  0  0  0  0  0
   57.5909   30.9400   46.6046 H   0  0  0  0  0  0  0  0  0  0  0  0
   59.1542   31.7448   46.1332 H   0  0  0  0  0  0  0  0  0  0  0  0
   56.5925   33.1728   46.9730 H   0  0  0  0  0  0  0  0  0  0  0  0
   58.0784   32.9184   47.9878 H   0  0  0  0  0  0  0  0  0  0  0  0
   57.6105   35.1942   46.5552 H   0  0  0  0  0  0  0  0  0  0  0  0
   59.5430   35.8210   47.2390 H   0  0  0  0  0  0  0  0  0  0  0  0
   59.5481   34.9982   49.2260 H   0  0  0  0  0  0  0  0  0  0  0  0
   58.8185   33.4772   48.6088 H   0  0  0  0  0  0  0  0  0  0  0  0
   60.6031   33.6820   48.6088 H   0  0  0  0  0  0  0  0  0  0  0  0
   60.5731   34.0779   45.3922 H   0  0  0  0  0  0  0  0  0  0  0  0
   61.4083   35.4122   46.3323 H   0  0  0  0  0  0  0  0  0  0  0  0
   63.1832   34.9435   47.7244 H   0  0  0  0  0  0  0  0  0  0  0  0
   64.6612   33.2765   48.8461 H   0  0  0  0  0  0  0  0  0  0  0  0
   64.0409   30.8575   48.8536 H   0  0  0  0  0  0  0  0  0  0  0  0
   61.9367   30.1051   47.7442 H   0  0  0  0  0  0  0  0  0  0  0  0
   60.4540   31.7641   46.6152 H   0  0  0  0  0  0  0  0  0  0  0  0
   58.5194   35.2021   44.3855 H   0  0  0  0  0  0  0  0  0  0  0  0
   59.5458   33.7476   44.7077 H   0  0  0  0  0  0  0  0  0  0  0  0
   56.4992   33.7046   44.4728 H   0  0  0  0  0  0  0  0  0  0  0  0
   57.6539   33.2975   43.1394 H   0  0  0  0  0  0  0  0  0  0  0  0
   58.4445   29.4621   46.2240 H   0  0  0  0  0  0  0  0  0  0  0  0
  1  2  1  0
  2  3  2  0
  3  4  1  0
  4  5  2  0
  5  6  1  0
  6  7  1  0
  7  8  1  0
  8  9  1  0
  9 10  1  0
 10 11  1  0
 11 12  1  0
 12 13  1  0
 13 14  1  0
 14 15  1  0
 14 16  1  0
 16 17  1  0
 17 18  2  0
 18 19  1  0
 19 20  2  0
 20 21  1  0
 21 22  2  0
 13 23  1  0
 23 24  1  0
  6 25  2  0
 25  2  1  0
 24 10  1  0
 22 17  1  0
  1 26  1  0
  1 27  1  0
  1 28  1  0
  3 29  1  0
  4 30  1  0
  5 31  1  0
  8 32  1  0
  8 33  1  0
  9 34  1  0
  9 35  1  0
 11 36  1  0
 11 37  1  0
 12 38  1  0
 12 39  1  0
 13 40  1  0
 14 41  1  1
 15 42  1  0
 15 43  1  0
 15 44  1  0
 16 45  1  0
 16 46  1  0
 18 47  1  0
 19 48  1  0
 20 49  1  0
 21 50  1  0
 22 51  1  0
 23 52  1  0
 23 53  1  0
 24 54  1  0
 24 55  1  0
 25 56  1  0
M  CHG  1  14   1
M  END
>  <UniqueID>  (31) 
29

>  <SMILES>  (31) 
Cc1cccc(OCCN2CCC([N@@H+](C)Cc3ccccc3)CC2)c1

>  <Energy>  (31) 
75.54564043241936

>  <Genealogy>  (31) 
Cc1cccc(OCCN2CCC([NH+](C)Cc3ccccc3)CC2)c1 (protonated)
Cc1cccc(OCCN2CCC([N@@H+](C)Cc3ccccc3)CC2)c1 (chirality)
Cc1cccc(OCCN2CCC([N@@H+](C)Cc3ccccc3)CC2)c1 (3D coordinates assigned)
Cc1cccc(OCCN2CCC([N@@H+](C)Cc3ccccc3)CC2)c1 (nonaromatic ring conformer: 75.54564043241936 kcal/mol)

>  <smiles>  (31) 
Cc1cccc(OCCN2CCC(N(C)Cc3ccccc3)CC2)c1

>  <score_type>  (31) 
oracle

>  <origin>  (31) 
adg

>  <m_score__min__energy>  (31) 
-6.6699999999999999

>  <m_primary>  (31) 
energy

$$$$
31:0
     RDKit          3D

 32 33  0  0  0  0  0  0  0  0999 V2000
   55.1640   26.1410   45.9960 O   0  0  0  0  0  0  0  0  0  0  0  0
   56.3500   25.9130   45.6360 C   0  0  0  0  0  0  0  0  0  0  0  0
   57.5910   27.1730   45.9660 S   0  0  0  0  0  0  0  0  0  0  0  0
   58.2610   27.1930   44.2640 C   0  0  0  0  0  0  0  0  0  0  0  0
   57.5680   28.2440   43.3910 C   0  0  0  0  0  0  0  0  0  0  0  0
   57.9970   29.5950   43.7530 N   0  0  0  0  0  0  0  0  0  0  0  0
   57.2330   30.4360   44.6320 C   0  0  0  0  0  0  0  0  0  0  0  0
   56.1920   29.9880   45.1860 O   0  0  0  0  0  0  0  0  0  0  0  0
   57.6530   31.8230   44.9010 C   0  0  0  0  0  0  0  0  0  0  0  0
   57.7440   32.4150   46.1570 C   0  0  0  0  0  0  0  0  0  0  0  0
   58.1630   33.7500   46.1120 C   0  0  0  0  0  0  0  0  0  0  0  0
   58.4020   34.2180   44.8270 C   0  0  0  0  0  0  0  0  0  0  0  0
   58.0920   32.9680   43.7470 S   0  0  0  0  0  0  0  0  0  0  0  0
   56.6910   24.6270   44.9760 C   0  0  0  0  0  0  0  0  0  0  0  0
   55.8630   24.0760   43.9770 C   0  0  0  0  0  0  0  0  0  0  0  0
   56.1970   22.8620   43.3690 C   0  0  0  0  0  0  0  0  0  0  0  0
   57.3570   22.1840   43.7450 C   0  0  0  0  0  0  0  0  0  0  0  0
   58.1870   22.7180   44.7320 C   0  0  0  0  0  0  0  0  0  0  0  0
   57.8590   23.9310   45.3450 C   0  0  0  0  0  0  0  0  0  0  0  0
   59.3365   27.4196   44.3076 H   0  0  0  0  0  0  0  0  0  0  0  0
   58.0825   26.2047   43.8151 H   0  0  0  0  0  0  0  0  0  0  0  0
   57.8195   28.0576   42.3365 H   0  0  0  0  0  0  0  0  0  0  0  0
   56.4820   28.1682   43.5486 H   0  0  0  0  0  0  0  0  0  0  0  0
   58.9140   29.9310   43.3860 H   0  0  0  0  0  0  0  0  0  0  0  0
   57.5099   31.8863   47.0927 H   0  0  0  0  0  0  0  0  0  0  0  0
   58.2910   34.3705   47.0112 H   0  0  0  0  0  0  0  0  0  0  0  0
   58.7365   35.2317   44.5615 H   0  0  0  0  0  0  0  0  0  0  0  0
   54.9475   24.6049   43.6736 H   0  0  0  0  0  0  0  0  0  0  0  0
   55.5430   22.4401   42.5916 H   0  0  0  0  0  0  0  0  0  0  0  0
   57.6172   21.2295   43.2641 H   0  0  0  0  0  0  0  0  0  0  0  0
   59.1014   22.1832   45.0283 H   0  0  0  0  0  0  0  0  0  0  0  0
   58.5184   24.3454   46.1219 H   0  0  0  0  0  0  0  0  0  0  0  0
  1  2  2  0
  2  3  1  0
  3  4  1  0
  4  5  1  0
  5  6  1  0
  6  7  1  0
  7  8  2  0
  7  9  1  0
  9 10  2  0
 10 11  1  0
 11 12  2  0
 12 13  1  0
  2 14  1  0
 14 15  2  0
 15 16  1  0
 16 17  2  0
 17 18  1  0
 18 19  2  0
 13  9  1  0
 19 14  1  0
  4 20  1  0
  4 21  1  0
  5 22  1  0
  5 23  1  0
  6 24  1  0
 10 25  1  0
 11 26  1  0
 12 27  1  0
 15 28  1  0
 16 29  1  0
 17 30  1  0
 18 31  1  0
 19 32  1  0
M  END
>  <UniqueID>  (32) 
30

>  <SMILES>  (32) 
O=C(SCCNC(=O)c1cccs1)c1ccccc1

>  <Energy>  (32) 
52.02251804384782

>  <Genealogy>  (32) 
O=C(SCCNC(=O)c1cccs1)c1ccccc1 (3D coordinates assigned)
O=C(SCCNC(=O)c1cccs1)c1ccccc1 (optimized conformer: 52.02251804384782 kcal/mol)

>  <smiles>  (32) 
O=C(SCCNC(=O)c1cccs1)c1ccccc1

>  <score_type>  (32) 
oracle

>  <origin>  (32) 
adg

>  <m_score__min__energy>  (32) 
-7.54

>  <m_primary>  (32) 
energy

$$$$
32:0
     RDKit          3D

 41 41  0  0  0  0  0  0  0  0999 V2000
   59.2820   33.1620   47.8840 C   0  0  0  0  0  0  0  0  0  0  0  0
   58.8480   34.3960   47.0960 C   0  0  0  0  0  0  0  0  0  0  0  0
   57.8150   34.0740   46.0020 C   0  0  0  0  0  0  0  0  0  0  0  0
   58.4480   33.8290   44.6120 C   0  0  0  0  0  0  0  0  0  0  0  0
   57.7980   32.6510   43.8370 C   0  0  1  0  0  0  0  0  0  0  0  0
   58.1520   32.6400   42.3240 C   0  0  0  0  0  0  0  0  0  0  0  0
   57.1160   31.9680   41.4170 C   0  0  0  0  0  0  0  0  0  0  0  0
   58.1360   31.2960   44.5000 C   0  0  0  0  0  0  0  0  0  0  0  0
   56.9900   30.7780   45.2420 N   0  0  0  0  0  0  0  0  0  0  0  0
   56.5440   29.4200   45.1680 C   0  0  0  0  0  0  0  0  0  0  0  0
   55.3450   29.1640   44.8700 O   0  0  0  0  0  0  0  0  0  0  0  0
   57.4600   28.3630   45.4840 N   0  0  0  0  0  0  0  0  0  0  0  0
   57.1610   26.9650   45.3360 C   0  0  0  0  0  0  0  0  0  0  0  0
   57.7670   26.2380   44.2990 C   0  0  0  0  0  0  0  0  0  0  0  0
   57.4770   24.8820   44.1220 C   0  0  0  0  0  0  0  0  0  0  0  0
   56.5680   24.2440   44.9700 C   0  0  0  0  0  0  0  0  0  0  0  0
   55.9420   24.9630   45.9920 C   0  0  0  0  0  0  0  0  0  0  0  0
   56.2300   26.3190   46.1720 C   0  0  0  0  0  0  0  0  0  0  0  0
   59.2087   33.3705   48.9616 H   0  0  0  0  0  0  0  0  0  0  0  0
   58.6277   32.3153   47.6290 H   0  0  0  0  0  0  0  0  0  0  0  0
   60.3223   32.9113   47.6290 H   0  0  0  0  0  0  0  0  0  0  0  0
   58.4051   35.1210   47.7947 H   0  0  0  0  0  0  0  0  0  0  0  0
   59.7413   34.8012   46.5981 H   0  0  0  0  0  0  0  0  0  0  0  0
   57.2638   33.1694   46.2984 H   0  0  0  0  0  0  0  0  0  0  0  0
   57.1568   34.9504   45.9090 H   0  0  0  0  0  0  0  0  0  0  0  0
   58.3370   34.7444   44.0122 H   0  0  0  0  0  0  0  0  0  0  0  0
   59.5031   33.5656   44.7777 H   0  0  0  0  0  0  0  0  0  0  0  0
   56.7108   32.8080   43.8944 H   0  0  0  0  0  0  0  0  0  0  0  0
   58.2679   33.6829   41.9939 H   0  0  0  0  0  0  0  0  0  0  0  0
   59.0722   32.0448   42.2299 H   0  0  0  0  0  0  0  0  0  0  0  0
   56.3530   31.4731   42.0358 H   0  0  0  0  0  0  0  0  0  0  0  0
   56.6368   32.7277   40.7820 H   0  0  0  0  0  0  0  0  0  0  0  0
   57.6144   31.2207   40.7820 H   0  0  0  0  0  0  0  0  0  0  0  0
   58.4161   30.5732   43.7195 H   0  0  0  0  0  0  0  0  0  0  0  0
   58.9697   31.4466   45.2017 H   0  0  0  0  0  0  0  0  0  0  0  0
   58.3540   28.6310   45.9540 H   0  0  0  0  0  0  0  0  0  0  0  0
   58.4744   26.7386   43.6215 H   0  0  0  0  0  0  0  0  0  0  0  0
   57.9649   24.3167   43.3143 H   0  0  0  0  0  0  0  0  0  0  0  0
   56.3450   23.1756   44.8332 H   0  0  0  0  0  0  0  0  0  0  0  0
   55.2220   24.4614   46.6553 H   0  0  0  0  0  0  0  0  0  0  0  0
   55.7270   26.8841   46.9705 H   0  0  0  0  0  0  0  0  0  0  0  0
  1  2  1  0
  2  3  1  0
  3  4  1  0
  4  5  1  0
  5  6  1  0
  6  7  1  0
  5  8  1  0
  8  9  1  0
  9 10  1  0
 10 11  2  0
 10 12  1  0
 12 13  1  0
 13 14  2  0
 14 15  1  0
 15 16  2  0
 16 17  1  0
 17 18  2  0
 18 13  1  0
  1 19  1  0
  1 20  1  0
  1 21  1  0
  2 22  1  0
  2 23  1  0
  3 24  1  0
  3 25  1  0
  4 26  1  0
  4 27  1  0
  5 28  1  6
  6 29  1  0
  6 30  1  0
  7 31  1  0
  7 32  1  0
  7 33  1  0
  8 34  1  0
  8 35  1  0
 12 36  1  0
 14 37  1  0
 15 38  1  0
 16 39  1  0
 17 40  1  0
 18 41  1  0
M  CHG  1   9  -1
M  END
>  <UniqueID>  (33) 
31

>  <SMILES>  (33) 
CCCC[C@@H](CC)C[N-]C(=O)Nc1ccccc1

>  <Energy>  (33) 
32.71031295865955

>  <Genealogy>  (33) 
CCCCC(CC)C[N-]C(=O)Nc1ccccc1 (protonated)
CCCC[C@@H](CC)C[N-]C(=O)Nc1ccccc1 (chirality)
CCCC[C@@H](CC)C[N-]C(=O)Nc1ccccc1 (3D coordinates assigned)
CCCC[C@@H](CC)C[N-]C(=O)Nc1ccccc1 (optimized conformer: 32.71031295865955 kcal/mol)

>  <smiles>  (33) 
CCCCC(CC)CNC(=O)Nc1ccccc1

>  <score_type>  (33) 
oracle

>  <origin>  (33) 
adg

>  <m_score__min__energy>  (33) 
-8.2200000000000006

>  <m_primary>  (33) 
energy

$$$$
33:0
     RDKit          3D

 38 41  0  0  0  0  0  0  0  0999 V2000
   58.3000   22.0940   45.2920 C   0  0  0  0  0  0  0  0  0  0  0  0
   58.0030   22.9650   46.3780 O   0  0  0  0  0  0  0  0  0  0  0  0
   57.9950   24.3660   46.2890 C   0  0  0  0  0  0  0  0  0  0  0  0
   56.8280   25.1280   46.4790 C   0  0  0  0  0  0  0  0  0  0  0  0
   56.8710   26.5220   46.3780 C   0  0  0  0  0  0  0  0  0  0  0  0
   58.0790   27.1780   46.0810 C   0  0  0  0  0  0  0  0  0  0  0  0
   58.1340   28.6140   45.9820 N   0  0  0  0  0  0  0  0  0  0  0  0
   59.1490   29.3660   46.4070 N   0  0  0  0  0  0  0  0  0  0  0  0
   58.8270   30.6500   46.1290 C   0  0  0  0  0  0  0  0  0  0  0  0
   59.5590   31.8120   46.3770 C   0  0  0  0  0  0  0  0  0  0  0  0
   60.8170   31.7970   46.9990 C   0  0  0  0  0  0  0  0  0  0  0  0
   61.5000   32.9940   47.2200 C   0  0  0  0  0  0  0  0  0  0  0  0
   60.9380   34.2090   46.8240 C   0  0  0  0  0  0  0  0  0  0  0  0
   59.6860   34.2400   46.2020 C   0  0  0  0  0  0  0  0  0  0  0  0
   58.9750   33.0460   45.9680 C   0  0  0  0  0  0  0  0  0  0  0  0
   57.6940   33.0360   45.3330 C   0  0  0  0  0  0  0  0  0  0  0  0
   57.0180   34.2930   44.8720 C   0  0  0  0  0  0  0  0  0  0  0  0
   57.0540   31.8470   45.1340 N   0  0  0  0  0  0  0  0  0  0  0  0
   57.6320   30.7200   45.5360 N   0  0  0  0  0  0  0  0  0  0  0  0
   57.2130   29.4520   45.4460 C   0  0  0  0  0  0  0  0  0  0  0  0
   56.1310   29.0950   44.9060 O   0  0  0  0  0  0  0  0  0  0  0  0
   59.2420   26.4130   45.8990 C   0  0  0  0  0  0  0  0  0  0  0  0
   59.1970   25.0200   46.0000 C   0  0  0  0  0  0  0  0  0  0  0  0
   58.6319   21.1208   45.6827 H   0  0  0  0  0  0  0  0  0  0  0  0
   57.3987   21.9542   44.6770 H   0  0  0  0  0  0  0  0  0  0  0  0
   59.0989   22.5340   44.6770 H   0  0  0  0  0  0  0  0  0  0  0  0
   55.8770   24.6249   46.7081 H   0  0  0  0  0  0  0  0  0  0  0  0
   55.9538   27.1094   46.5319 H   0  0  0  0  0  0  0  0  0  0  0  0
   60.0090   29.0100   46.8800 H   0  0  0  0  0  0  0  0  0  0  0  0
   61.2646   30.8422   47.3122 H   0  0  0  0  0  0  0  0  0  0  0  0
   62.4855   32.9799   47.7084 H   0  0  0  0  0  0  0  0  0  0  0  0
   61.4833   35.1475   47.0023 H   0  0  0  0  0  0  0  0  0  0  0  0
   59.2531   35.2030   45.8932 H   0  0  0  0  0  0  0  0  0  0  0  0
   56.7018   34.8810   45.7462 H   0  0  0  0  0  0  0  0  0  0  0  0
   57.7192   34.8853   44.2659 H   0  0  0  0  0  0  0  0  0  0  0  0
   56.1372   34.0345   44.2659 H   0  0  0  0  0  0  0  0  0  0  0  0
   60.1955   26.9137   45.6753 H   0  0  0  0  0  0  0  0  0  0  0  0
   60.1150   24.4327   45.8509 H   0  0  0  0  0  0  0  0  0  0  0  0
  1  2  1  0
  2  3  1  0
  3  4  2  0
  4  5  1  0
  5  6  2  0
  6  7  1  0
  7  8  1  0
  8  9  2  0
  9 10  1  0
 10 11  2  0
 11 12  1  0
 12 13  2  0
 13 14  1  0
 14 15  2  0
 15 16  1  0
 16 17  1  0
 16 18  2  0
 18 19  1  0
 19 20  1  0
 20 21  2  0
  6 22  1  0
 22 23  2  0
 23  3  1  0
 20  7  1  0
 19  9  1  0
 15 10  1  0
  1 24  1  0
  1 25  1  0
  1 26  1  0
  4 27  1  0
  5 28  1  0
  8 29  1  0
 11 30  1  0
 12 31  1  0
 13 32  1  0
 14 33  1  0
 17 34  1  0
 17 35  1  0
 17 36  1  0
 22 37  1  0
 23 38  1  0
M  CHG  1   8   1
M  END
>  <UniqueID>  (34) 
32

>  <SMILES>  (34) 
COc1ccc(-n2[nH+]c3c4ccccc4c(C)nn3c2=O)cc1

>  <Energy>  (34) 
97.94937579717414

>  <Genealogy>  (34) 
COc1ccc(-n2[nH+]c3c4ccccc4c(C)nn3c2=O)cc1 (protonated)
COc1ccc(-n2[nH+]c3c4ccccc4c(C)nn3c2=O)cc1 (3D coordinates assigned)
COc1ccc(-n2[nH+]c3c4ccccc4c(C)nn3c2=O)cc1 (optimized conformer: 97.94937579717414 kcal/mol)

>  <smiles>  (34) 
COc1ccc(-n2nc3c4ccccc4c(C)nn3c2=O)cc1

>  <score_type>  (34) 
oracle

>  <origin>  (34) 
adg

>  <m_score__min__energy>  (34) 
-6.4199999999999999

>  <m_primary>  (34) 
energy

$$$$
34:0
     RDKit          3D

 45 47  0  0  0  0  0  0  0  0999 V2000
   59.2228   29.2008   44.7335 H   0  0  0  0  0  0  0  0  0  0  0  0
   58.2490   28.7530   44.9810 C   0  0  0  0  0  0  0  0  0  0  0  0
   57.9960   27.1820   45.5260 S   0  0  0  0  0  0  0  0  0  0  0  0
   56.3250   27.3800   45.6210 C   0  0  0  0  0  0  0  0  0  0  0  0
   55.4680   26.4760   45.9950 N   0  0  0  0  0  0  0  0  0  0  0  0
   55.7640   25.0560   46.1720 C   0  0  0  0  0  0  0  0  0  0  0  0
   54.9064   24.5660   46.6562 H   0  0  0  0  0  0  0  0  0  0  0  0
   56.6632   24.9577   46.7979 H   0  0  0  0  0  0  0  0  0  0  0  0
   56.0280   24.3880   44.8260 C   0  0  0  0  0  0  0  0  0  0  0  0
   56.4277   23.3765   44.9908 H   0  0  0  0  0  0  0  0  0  0  0  0
   55.0880   24.3228   44.2584 H   0  0  0  0  0  0  0  0  0  0  0  0
   56.7586   24.9830   44.2584 H   0  0  0  0  0  0  0  0  0  0  0  0
   55.9450   28.6170   45.2440 N   0  0  0  0  0  0  0  0  0  0  0  0
   57.0110   29.3900   44.8970 C   0  0  0  0  0  0  0  0  0  0  0  0
   56.8500   30.8200   44.4350 C   0  0  0  0  0  0  0  0  0  0  0  0
   57.4208   30.9487   43.5036 H   0  0  0  0  0  0  0  0  0  0  0  0
   55.7718   30.9904   44.2988 H   0  0  0  0  0  0  0  0  0  0  0  0
   57.3220   31.8270   45.4130 N   0  0  0  0  0  0  0  0  0  0  0  0
   56.6970   33.1540   45.2660 C   0  0  0  0  0  0  0  0  0  0  0  0
   56.2072   33.2300   44.2840 H   0  0  0  0  0  0  0  0  0  0  0  0
   55.9371   33.3087   46.0461 H   0  0  0  0  0  0  0  0  0  0  0  0
   57.7940   34.2010   45.3790 C   0  0  0  0  0  0  0  0  0  0  0  0
   57.6352   35.0081   44.6486 H   0  0  0  0  0  0  0  0  0  0  0  0
   57.8132   34.6745   46.3717 H   0  0  0  0  0  0  0  0  0  0  0  0
   59.0760   33.4570   45.0790 C   0  0  0  0  0  0  0  0  0  0  0  0
   59.3313   33.5413   44.0124 H   0  0  0  0  0  0  0  0  0  0  0  0
   59.9302   33.8631   45.6406 H   0  0  0  0  0  0  0  0  0  0  0  0
   58.7860   32.0040   45.4480 C   0  0  1  0  0  0  0  0  0  0  0  0
   59.2930   31.3460   44.7269 H   0  0  0  0  0  0  0  0  0  0  0  0
   59.3370   31.6130   46.8360 C   0  0  0  0  0  0  0  0  0  0  0  0
   58.5429   31.7557   47.5837 H   0  0  0  0  0  0  0  0  0  0  0  0
   59.6595   30.5626   46.7836 H   0  0  0  0  0  0  0  0  0  0  0  0
   60.5000   32.4170   47.2260 N   0  0  0  0  0  0  0  0  0  0  0  0
   61.7450   32.1060   46.9120 N   0  0  0  0  0  0  0  0  0  0  0  0
   62.5060   33.0940   47.4210 C   0  0  0  0  0  0  0  0  0  0  0  0
   63.9940   33.1010   47.3540 C   0  0  0  0  0  0  0  0  0  0  0  0
   64.4069   33.1029   48.3735 H   0  0  0  0  0  0  0  0  0  0  0  0
   64.3412   32.2045   46.8195 H   0  0  0  0  0  0  0  0  0  0  0  0
   64.3327   34.0008   46.8195 H   0  0  0  0  0  0  0  0  0  0  0  0
   61.7820   34.0390   48.0610 N   0  0  0  0  0  0  0  0  0  0  0  0
   60.5230   33.5820   47.9070 C   0  0  0  0  0  0  0  0  0  0  0  0
   59.3190   34.3220   48.3970 C   0  0  0  0  0  0  0  0  0  0  0  0
   59.3133   34.3255   49.4970 H   0  0  0  0  0  0  0  0  0  0  0  0
   59.3494   35.3575   48.0272 H   0  0  0  0  0  0  0  0  0  0  0  0
   58.4088   33.8272   48.0272 H   0  0  0  0  0  0  0  0  0  0  0  0
  1  2  1  0
  2  3  1  0
  3  4  1  0
  4  5  2  0
  5  6  1  0
  6  7  1  0
  6  8  1  0
  6  9  1  0
  9 10  1  0
  9 11  1  0
  9 12  1  0
  4 13  1  0
 13 14  1  0
 14 15  1  0
 15 16  1  0
 15 17  1  0
 15 18  1  0
 18 19  1  0
 19 20  1  0
 19 21  1  0
 19 22  1  0
 22 23  1  0
 22 24  1  0
 22 25  1  0
 25 26  1  0
 25 27  1  0
 25 28  1  0
 28 29  1  6
 28 30  1  0
 30 31  1  0
 30 32  1  0
 30 33  1  0
 33 34  1  0
 34 35  2  0
 35 36  1  0
 36 37  1  0
 36 38  1  0
 36 39  1  0
 35 40  1  0
 40 41  2  0
 41 42  1  0
 42 43  1  0
 42 44  1  0
 42 45  1  0
 14  2  2  0
 28 18  1  0
 41 33  1  0
M  CHG  1  13  -1
M  END
>  <UniqueID>  (35) 
33

>  <SMILES>  (35) 
CC/N=c1/[n-]c(CN2CCC[C@H]2Cn2nc(C)nc2C)cs1

>  <Energy>  (35) 
106.23894640691975

>  <Genealogy>  (35) 
CCN=c1[n-]c(CN2CCCC2Cn2nc(C)nc2C)cs1 (protonated)
CCN=c1[n-]c(CN2CCC[C@H]2Cn2nc(C)nc2C)cs1 (chirality)
CC/N=c1/[n-]c(CN2CCC[C@H]2Cn2nc(C)nc2C)cs1 (cis-trans isomerization)
CC/N=c1/[n-]c(CN2CCC[C@H]2Cn2nc(C)nc2C)cs1 (3D coordinates assigned)
CC/N=c1/[n-]c(CN2CCC[C@H]2Cn2nc(C)nc2C)cs1 (nonaromatic ring conformer: 106.23894640691975 kcal/mol)

>  <smiles>  (35) 
CCN=c1[nH]c(CN2CCCC2Cn2nc(C)nc2C)cs1

>  <score_type>  (35) 
oracle

>  <origin>  (35) 
adg

>  <m_score__min__energy>  (35) 
-10.23

>  <m_primary>  (35) 
energy

$$$$
35:0
     RDKit          3D

 49 51  0  0  0  0  0  0  0  0999 V2000
   57.6410   33.8930   45.4540 C   0  0  0  0  0  0  0  0  0  0  0  0
   57.1520   32.5430   44.9330 C   0  0  0  0  0  0  0  0  0  0  0  0
   58.1940   31.5080   45.1260 N   0  0  0  0  0  0  0  0  0  0  0  0
   58.1900   31.0090   46.5240 C   0  0  0  0  0  0  0  0  0  0  0  0
   59.5110   31.2780   47.1880 C   0  0  0  0  0  0  0  0  0  0  0  0
   59.9760   30.4630   48.2310 C   0  0  0  0  0  0  0  0  0  0  0  0
   61.2440   30.6890   48.7700 C   0  0  0  0  0  0  0  0  0  0  0  0
   62.0380   31.7290   48.2710 C   0  0  0  0  0  0  0  0  0  0  0  0
   63.3300   31.9620   48.7650 C   0  0  0  0  0  0  0  0  0  0  0  0
   64.1010   33.0030   48.2380 C   0  0  0  0  0  0  0  0  0  0  0  0
   63.5870   33.8150   47.2210 C   0  0  0  0  0  0  0  0  0  0  0  0
   62.3000   33.5900   46.7240 C   0  0  0  0  0  0  0  0  0  0  0  0
   61.5240   32.5490   47.2430 C   0  0  0  0  0  0  0  0  0  0  0  0
   60.2850   32.3050   46.7370 N   0  0  0  0  0  0  0  0  0  0  0  0
   58.0210   30.4060   44.1450 C   0  0  0  0  0  0  0  0  0  0  0  0
   57.9630   29.0590   44.8300 C   0  0  0  0  0  0  0  0  0  0  0  0
   59.1570   28.3900   45.1350 C   0  0  0  0  0  0  0  0  0  0  0  0
   59.1300   27.1220   45.7050 C   0  0  0  0  0  0  0  0  0  0  0  0
   57.9140   26.5050   45.9820 C   0  0  0  0  0  0  0  0  0  0  0  0
   56.6960   27.1580   45.7070 C   0  0  0  0  0  0  0  0  0  0  0  0
   55.4690   26.5310   45.9760 O   0  0  0  0  0  0  0  0  0  0  0  0
   55.1500   25.1840   45.6410 C   0  0  0  0  0  0  0  0  0  0  0  0
   56.7210   28.4600   45.1390 C   0  0  0  0  0  0  0  0  0  0  0  0
   55.5580   29.2000   44.8430 O   0  0  0  0  0  0  0  0  0  0  0  0
   55.1700   29.7030   43.5700 C   0  0  0  0  0  0  0  0  0  0  0  0
   57.6379   33.8845   46.5540 H   0  0  0  0  0  0  0  0  0  0  0  0
   58.6631   34.0775   45.0916 H   0  0  0  0  0  0  0  0  0  0  0  0
   56.9742   34.6893   45.0916 H   0  0  0  0  0  0  0  0  0  0  0  0
   56.2441   32.2502   45.4808 H   0  0  0  0  0  0  0  0  0  0  0  0
   56.9323   32.6329   43.8589 H   0  0  0  0  0  0  0  0  0  0  0  0
   57.3930   31.5173   47.0865 H   0  0  0  0  0  0  0  0  0  0  0  0
   58.0153   29.9230   46.5113 H   0  0  0  0  0  0  0  0  0  0  0  0
   59.3454   29.6508   48.6218 H   0  0  0  0  0  0  0  0  0  0  0  0
   61.6184   30.0517   49.5846 H   0  0  0  0  0  0  0  0  0  0  0  0
   63.7362   31.3267   49.5659 H   0  0  0  0  0  0  0  0  0  0  0  0
   65.1149   33.1840   48.6243 H   0  0  0  0  0  0  0  0  0  0  0  0
   64.1977   34.6331   46.8113 H   0  0  0  0  0  0  0  0  0  0  0  0
   61.8982   34.2311   45.9256 H   0  0  0  0  0  0  0  0  0  0  0  0
   57.0849   30.5653   43.5897 H   0  0  0  0  0  0  0  0  0  0  0  0
   58.8853   30.4105   43.4645 H   0  0  0  0  0  0  0  0  0  0  0  0
   60.1225   28.8720   44.9217 H   0  0  0  0  0  0  0  0  0  0  0  0
   60.0727   26.6051   45.9376 H   0  0  0  0  0  0  0  0  0  0  0  0
   57.9034   25.4962   46.4205 H   0  0  0  0  0  0  0  0  0  0  0  0
   55.0117   24.5998   46.5627 H   0  0  0  0  0  0  0  0  0  0  0  0
   54.2220   25.1629   45.0508 H   0  0  0  0  0  0  0  0  0  0  0  0
   55.9700   24.7489   45.0508 H   0  0  0  0  0  0  0  0  0  0  0  0
   54.5032   30.5674   43.7050 H   0  0  0  0  0  0  0  0  0  0  0  0
   56.0645   30.0138   43.0104 H   0  0  0  0  0  0  0  0  0  0  0  0
   54.6422   28.9167   43.0104 H   0  0  0  0  0  0  0  0  0  0  0  0
  1  2  1  0
  2  3  1  0
  3  4  1  0
  4  5  1  0
  5  6  2  0
  6  7  1  0
  7  8  2  0
  8  9  1  0
  9 10  2  0
 10 11  1  0
 11 12  2  0
 12 13  1  0
 13 14  2  0
  3 15  1  0
 15 16  1  0
 16 17  2  0
 17 18  1  0
 18 19  2  0
 19 20  1  0
 20 21  1  0
 21 22  1  0
 20 23  2  0
 23 24  1  0
 24 25  1  0
 14  5  1  0
 23 16  1  0
 13  8  1  0
  1 26  1  0
  1 27  1  0
  1 28  1  0
  2 29  1  0
  2 30  1  0
  4 31  1  0
  4 32  1  0
  6 33  1  0
  7 34  1  0
  9 35  1  0
 10 36  1  0
 11 37  1  0
 12 38  1  0
 15 39  1  0
 15 40  1  0
 17 41  1  0
 18 42  1  0
 19 43  1  0
 22 44  1  0
 22 45  1  0
 22 46  1  0
 25 47  1  0
 25 48  1  0
 25 49  1  0
M  END
>  <UniqueID>  (36) 
34

>  <SMILES>  (36) 
CCN(Cc1ccc2ccccc2n1)Cc1cccc(OC)c1OC

>  <Energy>  (36) 
51.22831383760678

>  <Genealogy>  (36) 
CCN(Cc1ccc2ccccc2n1)Cc1cccc(OC)c1OC (3D coordinates assigned)
CCN(Cc1ccc2ccccc2n1)Cc1cccc(OC)c1OC (optimized conformer: 51.22831383760678 kcal/mol)

>  <smiles>  (36) 
CCN(Cc1ccc2ccccc2n1)Cc1cccc(OC)c1OC

>  <score_type>  (36) 
oracle

>  <origin>  (36) 
adg

>  <m_score__min__energy>  (36) 
-8.4100000000000001

>  <m_primary>  (36) 
energy

$$$$
36:0
     RDKit          3D

 42 44  0  0  0  0  0  0  0  0999 V2000
   61.7420   33.6380   46.7180 C   0  0  0  0  0  0  0  0  0  0  0  0
   60.5770   34.2970   47.4550 C   0  0  0  0  0  0  0  0  0  0  0  0
   59.5150   34.8490   46.4910 C   0  0  0  0  0  0  0  0  0  0  0  0
   59.0290   33.8170   45.4970 C   0  0  0  0  0  0  0  0  0  0  0  0
   59.0390   34.0530   44.1590 N   0  0  0  0  0  0  0  0  0  0  0  0
   58.4150   32.9800   43.6490 C   0  0  0  0  0  0  0  0  0  0  0  0
   58.1400   32.7270   42.3140 C   0  0  0  0  0  0  0  0  0  0  0  0
   57.4260   31.5560   42.0150 C   0  0  0  0  0  0  0  0  0  0  0  0
   57.0100   30.7030   43.0150 N   0  0  0  0  0  0  0  0  0  0  0  0
   56.2370   29.5060   42.6650 C   0  0  0  0  0  0  0  0  0  0  0  0
   57.2750   30.9880   44.3380 C   0  0  0  0  0  0  0  0  0  0  0  0
   56.8450   30.2370   45.2530 O   0  0  0  0  0  0  0  0  0  0  0  0
   58.0150   32.1390   44.6390 C   0  0  0  0  0  0  0  0  0  0  0  0
   58.4060   32.6460   45.8290 N   0  0  0  0  0  0  0  0  0  0  0  0
   58.1660   32.0840   47.1680 C   0  0  0  0  0  0  0  0  0  0  0  0
   59.1910   31.0360   47.5230 C   0  0  0  0  0  0  0  0  0  0  0  0
   59.9180   31.2250   48.5360 O   0  0  0  0  0  0  0  0  0  0  0  0
   59.3690   29.7970   46.7310 C   0  0  0  0  0  0  0  0  0  0  0  0
   60.2630   29.7460   45.6490 C   0  0  0  0  0  0  0  0  0  0  0  0
   60.4010   28.5770   44.8970 C   0  0  0  0  0  0  0  0  0  0  0  0
   59.6550   27.4420   45.2250 C   0  0  0  0  0  0  0  0  0  0  0  0
   58.7750   27.4740   46.3090 C   0  0  0  0  0  0  0  0  0  0  0  0
   58.6330   28.6450   47.0620 C   0  0  0  0  0  0  0  0  0  0  0  0
   62.4570   33.2336   47.4496 H   0  0  0  0  0  0  0  0  0  0  0  0
   61.3617   32.8213   46.0869 H   0  0  0  0  0  0  0  0  0  0  0  0
   62.2461   34.3847   46.0869 H   0  0  0  0  0  0  0  0  0  0  0  0
   60.1055   33.5503   48.1109 H   0  0  0  0  0  0  0  0  0  0  0  0
   60.9791   35.1423   48.0328 H   0  0  0  0  0  0  0  0  0  0  0  0
   58.6553   35.2011   47.0801 H   0  0  0  0  0  0  0  0  0  0  0  0
   59.9807   35.6649   45.9188 H   0  0  0  0  0  0  0  0  0  0  0  0
   58.4679   33.4157   41.5214 H   0  0  0  0  0  0  0  0  0  0  0  0
   57.1949   31.3153   40.9668 H   0  0  0  0  0  0  0  0  0  0  0  0
   55.9096   28.9991   43.5847 H   0  0  0  0  0  0  0  0  0  0  0  0
   55.3564   29.7980   42.0740 H   0  0  0  0  0  0  0  0  0  0  0  0
   56.8654   28.8235   42.0740 H   0  0  0  0  0  0  0  0  0  0  0  0
   58.2137   32.8953   47.9093 H   0  0  0  0  0  0  0  0  0  0  0  0
   57.1740   31.6086   47.1685 H   0  0  0  0  0  0  0  0  0  0  0  0
   60.8593   30.6338   45.3917 H   0  0  0  0  0  0  0  0  0  0  0  0
   61.0975   28.5499   44.0460 H   0  0  0  0  0  0  0  0  0  0  0  0
   59.7608   26.5233   44.6294 H   0  0  0  0  0  0  0  0  0  0  0  0
   58.1931   26.5781   46.5711 H   0  0  0  0  0  0  0  0  0  0  0  0
   57.9419   28.6646   47.9176 H   0  0  0  0  0  0  0  0  0  0  0  0
  1  2  1  0
  2  3  1  0
  3  4  1  0
  4  5  2  0
  5  6  1  0
  6  7  1  0
  7  8  2  0
  8  9  1  0
  9 10  1  0
  9 11  1  0
 11 12  2  0
 11 13  1  0
 13 14  1  0
 14 15  1  0
 15 16  1  0
 16 17  2  0
 16 18  1  0
 18 19  2  0
 19 20  1  0
 20 21  2  0
 21 22  1  0
 22 23  2  0
 14  4  1  0
 23 18  1  0
 13  6  2  0
  1 24  1  0
  1 25  1  0
  1 26  1  0
  2 27  1  0
  2 28  1  0
  3 29  1  0
  3 30  1  0
  7 31  1  0
  8 32  1  0
 10 33  1  0
 10 34  1  0
 10 35  1  0
 15 36  1  0
 15 37  1  0
 19 38  1  0
 20 39  1  0
 21 40  1  0
 22 41  1  0
 23 42  1  0
M  END
>  <UniqueID>  (37) 
35

>  <SMILES>  (37) 
CCCc1nc2ccn(C)c(=O)c2n1CC(=O)c1ccccc1

>  <Energy>  (37) 
82.70326027305452

>  <Genealogy>  (37) 
CCCc1nc2ccn(C)c(=O)c2n1CC(=O)c1ccccc1 (3D coordinates assigned)
CCCc1nc2ccn(C)c(=O)c2n1CC(=O)c1ccccc1 (optimized conformer: 82.70326027305452 kcal/mol)

>  <smiles>  (37) 
CCCc1nc2ccn(C)c(=O)c2n1CC(=O)c1ccccc1

>  <score_type>  (37) 
oracle

>  <origin>  (37) 
adg

>  <m_score__min__energy>  (37) 
-7.0099999999999998

>  <m_primary>  (37) 
energy

$$$$
37:0
     RDKit          3D

 50 52  0  0  0  0  0  0  0  0999 V2000
   63.1050   31.5760   47.3990 C   0  0  0  0  0  0  0  0  0  0  0  0
   63.7610   32.8270   47.0100 N   0  0  0  0  0  0  0  0  0  0  0  0
   63.6570   33.8370   48.0710 C   0  0  0  0  0  0  0  0  0  0  0  0
   62.2680   33.8330   48.6780 C   0  0  0  0  0  0  0  0  0  0  0  0
   62.1740   33.6610   50.0710 C   0  0  0  0  0  0  0  0  0  0  0  0
   60.9340   33.6580   50.7100 C   0  0  0  0  0  0  0  0  0  0  0  0
   59.7680   33.8290   49.9700 C   0  0  0  0  0  0  0  0  0  0  0  0
   59.8370   34.0100   48.5880 C   0  0  0  0  0  0  0  0  0  0  0  0
   61.0760   34.0260   47.9220 C   0  0  0  0  0  0  0  0  0  0  0  0
   61.0630   34.1960   46.4190 C   0  0  0  0  0  0  0  0  0  0  0  0
   59.7210   33.9410   45.8890 N   0  0  0  0  0  0  0  0  0  0  0  0
   58.8830   34.9570   45.2500 C   0  0  0  0  0  0  0  0  0  0  0  0
   57.6300   34.2130   44.7290 C   0  0  0  0  0  0  0  0  0  0  0  0
   57.9120   32.7900   45.0610 C   0  0  0  0  0  0  0  0  0  0  0  0
   57.1200   31.6760   44.7830 C   0  0  0  0  0  0  0  0  0  0  0  0
   57.5610   30.4000   45.1980 C   0  0  0  0  0  0  0  0  0  0  0  0
   56.7290   29.2040   44.8990 C   0  0  0  0  0  0  0  0  0  0  0  0
   55.4720   29.3300   44.8750 O   0  0  0  0  0  0  0  0  0  0  0  0
   57.3250   27.9170   44.6020 N   0  0  0  0  0  0  0  0  0  0  0  0
   57.6510   27.2160   45.8530 C   0  0  0  0  0  0  0  0  0  0  0  0
   58.5320   28.0790   43.7720 C   0  0  0  0  0  0  0  0  0  0  0  0
   58.8010   30.2900   45.8770 C   0  0  0  0  0  0  0  0  0  0  0  0
   59.5750   31.4290   46.1440 C   0  0  0  0  0  0  0  0  0  0  0  0
   59.1030   32.6740   45.7200 C   0  0  0  0  0  0  0  0  0  0  0  0
   63.0687   31.5068   48.4962 H   0  0  0  0  0  0  0  0  0  0  0  0
   62.0815   31.5581   46.9964 H   0  0  0  0  0  0  0  0  0  0  0  0
   63.6723   30.7239   46.9964 H   0  0  0  0  0  0  0  0  0  0  0  0
   64.7770   32.6140   46.8730 H   0  0  0  0  0  0  0  0  0  0  0  0
   64.3950   33.6141   48.8557 H   0  0  0  0  0  0  0  0  0  0  0  0
   63.8509   34.8287   47.6364 H   0  0  0  0  0  0  0  0  0  0  0  0
   63.0905   33.5271   50.6643 H   0  0  0  0  0  0  0  0  0  0  0  0
   60.8779   33.5203   51.7999 H   0  0  0  0  0  0  0  0  0  0  0  0
   58.7908   33.8215   50.4750 H   0  0  0  0  0  0  0  0  0  0  0  0
   58.9096   34.1420   48.0114 H   0  0  0  0  0  0  0  0  0  0  0  0
   61.3629   35.2241   46.1677 H   0  0  0  0  0  0  0  0  0  0  0  0
   61.7662   33.4778   45.9720 H   0  0  0  0  0  0  0  0  0  0  0  0
   58.5937   35.7276   45.9797 H   0  0  0  0  0  0  0  0  0  0  0  0
   59.4180   35.4643   44.4336 H   0  0  0  0  0  0  0  0  0  0  0  0
   56.7221   34.5644   45.2411 H   0  0  0  0  0  0  0  0  0  0  0  0
   57.4482   34.3762   43.6565 H   0  0  0  0  0  0  0  0  0  0  0  0
   56.1655   31.7896   44.2482 H   0  0  0  0  0  0  0  0  0  0  0  0
   56.6590   27.3280   44.0490 H   0  0  0  0  0  0  0  0  0  0  0  0
   57.3603   27.8412   46.7101 H   0  0  0  0  0  0  0  0  0  0  0  0
   57.1039   26.2625   45.8923 H   0  0  0  0  0  0  0  0  0  0  0  0
   58.7327   27.0200   45.8923 H   0  0  0  0  0  0  0  0  0  0  0  0
   59.4112   28.1970   44.4225 H   0  0  0  0  0  0  0  0  0  0  0  0
   58.6623   27.1903   43.1370 H   0  0  0  0  0  0  0  0  0  0  0  0
   58.4234   28.9706   43.1370 H   0  0  0  0  0  0  0  0  0  0  0  0
   59.1598   29.3009   46.1978 H   0  0  0  0  0  0  0  0  0  0  0  0
   60.5339   31.3439   46.6763 H   0  0  0  0  0  0  0  0  0  0  0  0
  1  2  1  0
  2  3  1  0
  3  4  1  0
  4  5  2  0
  5  6  1  0
  6  7  2  0
  7  8  1  0
  8  9  2  0
  9 10  1  0
 10 11  1  0
 11 12  1  0
 12 13  1  0
 13 14  1  0
 14 15  2  0
 15 16  1  0
 16 17  1  0
 17 18  2  0
 17 19  1  0
 19 20  1  0
 19 21  1  0
 16 22  2  0
 22 23  1  0
 23 24  2  0
  9  4  1  0
 24 11  1  0
 24 14  1  0
  1 25  1  0
  1 26  1  0
  1 27  1  0
  2 28  1  0
  3 29  1  0
  3 30  1  0
  5 31  1  0
  6 32  1  0
  7 33  1  0
  8 34  1  0
 10 35  1  0
 10 36  1  0
 12 37  1  0
 12 38  1  0
 13 39  1  0
 13 40  1  0
 15 41  1  0
 19 42  1  0
 20 43  1  0
 20 44  1  0
 20 45  1  0
 21 46  1  0
 21 47  1  0
 21 48  1  0
 22 49  1  0
 23 50  1  0
M  CHG  1  19   1
M  END
>  <UniqueID>  (38) 
36

>  <SMILES>  (38) 
CNCc1ccccc1CN1CCc2cc(C(=O)[NH+](C)C)ccc21

>  <Energy>  (38) 
68.44272773401113

>  <Genealogy>  (38) 
CNCc1ccccc1CN1CCc2cc(C(=O)[NH+](C)C)ccc21 (protonated)
CNCc1ccccc1CN1CCc2cc(C(=O)[NH+](C)C)ccc21 (3D coordinates assigned)
CNCc1ccccc1CN1CCc2cc(C(=O)[NH+](C)C)ccc21 (nonaromatic ring conformer: 68.44272773401113 kcal/mol)

>  <smiles>  (38) 
CNCc1ccccc1CN1CCc2cc(C(=O)N(C)C)ccc21

>  <score_type>  (38) 
oracle

>  <origin>  (38) 
adg

>  <m_score__min__energy>  (38) 
-7.21

>  <m_primary>  (38) 
energy

$$$$
38:0
     RDKit          3D

 41 43  0  0  0  0  0  0  0  0999 V2000
   60.5500   33.8680   49.5560 C   0  0  0  0  0  0  0  0  0  0  0  0
   61.8370   33.5160   48.8750 C   0  0  0  0  0  0  0  0  0  0  0  0
   63.0890   33.8660   49.4070 C   0  0  0  0  0  0  0  0  0  0  0  0
   64.1640   33.4630   48.6280 C   0  0  0  0  0  0  0  0  0  0  0  0
   63.5590   32.6800   47.2710 S   0  0  0  0  0  0  0  0  0  0  0  0
   61.9270   32.8300   47.6570 C   0  0  0  0  0  0  0  0  0  0  0  0
   60.8080   32.3780   46.8010 C   0  0  0  0  0  0  0  0  0  0  0  0
   60.6840   31.1490   46.5470 O   0  0  0  0  0  0  0  0  0  0  0  0
   59.8470   33.3100   46.2680 N   0  0  0  0  0  0  0  0  0  0  0  0
   60.0800   34.7470   46.2530 C   0  0  0  0  0  0  0  0  0  0  0  0
   59.2640   35.2780   45.0840 C   0  0  0  0  0  0  0  0  0  0  0  0
   58.1810   34.2340   44.8590 C   0  0  0  0  0  0  0  0  0  0  0  0
   58.7940   32.9140   45.3350 C   0  0  2  0  0  0  0  0  0  0  0  0
   57.7670   31.9810   46.0350 C   0  0  0  0  0  0  0  0  0  0  0  0
   57.2590   30.8350   45.2430 N   0  0  0  0  0  0  0  0  0  0  0  0
   56.7350   31.1530   43.9150 C   0  0  0  0  0  0  0  0  0  0  0  0
   56.7160   29.8410   43.1330 C   0  0  0  0  0  0  0  0  0  0  0  0
   57.4490   28.8300   44.0060 C   0  0  0  0  0  0  0  0  0  0  0  0
   58.1160   29.6620   45.0840 C   0  0  0  0  0  0  0  0  0  0  0  0
   60.6897   33.8298   50.6464 H   0  0  0  0  0  0  0  0  0  0  0  0
   60.2445   34.8827   49.2608 H   0  0  0  0  0  0  0  0  0  0  0  0
   59.7707   33.1500   49.2608 H   0  0  0  0  0  0  0  0  0  0  0  0
   63.2065   34.4104   50.3556 H   0  0  0  0  0  0  0  0  0  0  0  0
   65.2268   33.6276   48.8588 H   0  0  0  0  0  0  0  0  0  0  0  0
   59.7418   35.2013   47.1960 H   0  0  0  0  0  0  0  0  0  0  0  0
   61.1484   34.9865   46.1475 H   0  0  0  0  0  0  0  0  0  0  0  0
   58.8174   36.2517   45.3339 H   0  0  0  0  0  0  0  0  0  0  0  0
   59.8798   35.4371   44.1865 H   0  0  0  0  0  0  0  0  0  0  0  0
   57.2829   34.4766   45.4460 H   0  0  0  0  0  0  0  0  0  0  0  0
   57.8670   34.1864   43.8058 H   0  0  0  0  0  0  0  0  0  0  0  0
   59.1678   32.3295   44.4814 H   0  0  0  0  0  0  0  0  0  0  0  0
   58.2469   31.5753   46.9379 H   0  0  0  0  0  0  0  0  0  0  0  0
   56.8868   32.6125   46.2261 H   0  0  0  0  0  0  0  0  0  0  0  0
   55.7173   31.5625   43.9957 H   0  0  0  0  0  0  0  0  0  0  0  0
   57.3565   31.9082   43.4116 H   0  0  0  0  0  0  0  0  0  0  0  0
   55.6804   29.5151   42.9557 H   0  0  0  0  0  0  0  0  0  0  0  0
   57.1936   29.9485   42.1480 H   0  0  0  0  0  0  0  0  0  0  0  0
   56.7403   28.1158   44.4505 H   0  0  0  0  0  0  0  0  0  0  0  0
   58.1744   28.2343   43.4324 H   0  0  0  0  0  0  0  0  0  0  0  0
   58.1765   29.0972   46.0260 H   0  0  0  0  0  0  0  0  0  0  0  0
   59.1463   29.9373   44.8144 H   0  0  0  0  0  0  0  0  0  0  0  0
  1  2  1  0
  2  3  1  0
  3  4  2  0
  4  5  1  0
  5  6  1  0
  6  7  1  0
  7  8  2  0
  7  9  1  0
  9 10  1  0
 10 11  1  0
 11 12  1  0
 12 13  1  0
 13 14  1  0
 14 15  1  0
 15 16  1  0
 16 17  1  0
 17 18  1  0
 18 19  1  0
  6  2  2  0
 13  9  1  0
 19 15  1  0
  1 20  1  0
  1 21  1  0
  1 22  1  0
  3 23  1  0
  4 24  1  0
 10 25  1  0
 10 26  1  0
 11 27  1  0
 11 28  1  0
 12 29  1  0
 12 30  1  0
 13 31  1  6
 14 32  1  0
 14 33  1  0
 16 34  1  0
 16 35  1  0
 17 36  1  0
 17 37  1  0
 18 38  1  0
 18 39  1  0
 19 40  1  0
 19 41  1  0
M  END
>  <UniqueID>  (39) 
37

>  <SMILES>  (39) 
Cc1ccsc1C(=O)N1CCC[C@@H]1CN1CCCC1

>  <Energy>  (39) 
79.7941205634029

>  <Genealogy>  (39) 
Cc1ccsc1C(=O)N1CCC[C@@H]1CN1CCCC1 (chirality)
Cc1ccsc1C(=O)N1CCC[C@@H]1CN1CCCC1 (3D coordinates assigned)
Cc1ccsc1C(=O)N1CCC[C@@H]1CN1CCCC1 (nonaromatic ring conformer: 79.7941205634029 kcal/mol)

>  <smiles>  (39) 
Cc1ccsc1C(=O)N1CCCC1CN1CCCC1

>  <score_type>  (39) 
oracle

>  <origin>  (39) 
adg

>  <m_score__min__energy>  (39) 
-7.3399999999999999

>  <m_primary>  (39) 
energy

$$$$
39:0
     RDKit          3D

 41 44  0  0  0  0  0  0  0  0999 V2000
   57.4420   34.2050   44.7460 C   0  0  0  0  0  0  0  0  0  0  0  0
   58.3620   34.0730   45.8670 N   0  0  0  0  0  0  0  0  0  0  0  0
   59.5760   33.4950   45.8260 C   0  0  0  0  0  0  0  0  0  0  0  0
   60.1630   33.6400   47.0690 C   0  0  0  0  0  0  0  0  0  0  0  0
   61.4920   33.1340   47.4920 C   0  0  0  0  0  0  0  0  0  0  0  0
   62.6490   33.8620   47.1670 C   0  0  0  0  0  0  0  0  0  0  0  0
   63.9070   33.3920   47.5430 C   0  0  0  0  0  0  0  0  0  0  0  0
   64.0060   32.1950   48.2460 C   0  0  0  0  0  0  0  0  0  0  0  0
   62.8830   31.5030   48.5690 N   0  0  0  0  0  0  0  0  0  0  0  0
   61.6360   31.9390   48.2300 C   0  0  0  0  0  0  0  0  0  0  0  0
   60.5060   31.1960   48.5960 O   0  0  0  0  0  0  0  0  0  0  0  0
   59.8130   30.3050   47.7650 C   0  0  0  0  0  0  0  0  0  0  0  0
   58.6320   30.7420   47.1550 C   0  0  0  0  0  0  0  0  0  0  0  0
   57.9020   29.8850   46.3250 C   0  0  0  0  0  0  0  0  0  0  0  0
   58.3360   28.5670   46.1130 C   0  0  0  0  0  0  0  0  0  0  0  0
   57.5730   27.6570   45.1910 C   0  0  0  0  0  0  0  0  0  0  0  0
   57.2110   26.3890   45.9000 C   0  0  0  0  0  0  0  0  0  0  0  0
   58.3140   25.2590   46.4880 S   0  0  0  0  0  0  0  0  0  0  0  0
   57.1030   24.3090   47.1650 C   0  0  0  0  0  0  0  0  0  0  0  0
   57.3090   23.2360   47.7880 O   0  0  0  0  0  0  0  0  0  0  0  0
   55.8700   24.8240   46.9760 N   0  0  0  0  0  0  0  0  0  0  0  0
   55.9320   25.9880   46.2760 C   0  0  0  0  0  0  0  0  0  0  0  0
   54.7880   26.7150   45.9710 O   0  0  0  0  0  0  0  0  0  0  0  0
   59.5140   28.1230   46.7320 C   0  0  0  0  0  0  0  0  0  0  0  0
   60.2440   28.9820   47.5610 C   0  0  0  0  0  0  0  0  0  0  0  0
   59.2270   34.3300   47.8250 C   0  0  0  0  0  0  0  0  0  0  0  0
   58.1440   34.5890   47.0670 N   0  0  0  0  0  0  0  0  0  0  0  0
   56.4201   34.3516   45.1257 H   0  0  0  0  0  0  0  0  0  0  0  0
   57.7330   35.0706   44.1328 H   0  0  0  0  0  0  0  0  0  0  0  0
   57.4779   33.2925   44.1328 H   0  0  0  0  0  0  0  0  0  0  0  0
   60.0237   32.9942   44.9549 H   0  0  0  0  0  0  0  0  0  0  0  0
   62.5620   34.8082   46.6128 H   0  0  0  0  0  0  0  0  0  0  0  0
   64.8122   33.9618   47.2864 H   0  0  0  0  0  0  0  0  0  0  0  0
   64.9934   31.8096   48.5399 H   0  0  0  0  0  0  0  0  0  0  0  0
   58.2749   31.7677   47.3296 H   0  0  0  0  0  0  0  0  0  0  0  0
   56.9845   30.2451   45.8366 H   0  0  0  0  0  0  0  0  0  0  0  0
   56.6543   28.1629   44.8592 H   0  0  0  0  0  0  0  0  0  0  0  0
   58.2030   27.4155   44.3223 H   0  0  0  0  0  0  0  0  0  0  0  0
   59.8657   27.0942   46.5648 H   0  0  0  0  0  0  0  0  0  0  0  0
   61.1583   28.6211   48.0549 H   0  0  0  0  0  0  0  0  0  0  0  0
   59.3499   34.6204   48.8789 H   0  0  0  0  0  0  0  0  0  0  0  0
  1  2  1  0
  2  3  1  0
  3  4  2  0
  4  5  1  0
  5  6  2  0
  6  7  1  0
  7  8  2  0
  8  9  1  0
  9 10  2  0
 10 11  1  0
 11 12  1  0
 12 13  2  0
 13 14  1  0
 14 15  2  0
 15 16  1  0
 16 17  1  0
 17 18  1  0
 18 19  1  0
 19 20  2  0
 19 21  1  0
 21 22  1  0
 22 23  1  0
 15 24  1  0
 24 25  2  0
  4 26  1  0
 26 27  2  0
 27  2  1  0
 10  5  1  0
 25 12  1  0
 22 17  2  0
  1 28  1  0
  1 29  1  0
  1 30  1  0
  3 31  1  0
  6 32  1  0
  7 33  1  0
  8 34  1  0
 13 35  1  0
 14 36  1  0
 16 37  1  0
 16 38  1  0
 24 39  1  0
 25 40  1  0
 26 41  1  0
M  CHG  2  21  -1  23  -1
M  END
>  <UniqueID>  (40) 
38

>  <SMILES>  (40) 
Cn1cc(-c2cccnc2Oc2ccc(Cc3sc(=O)[n-]c3[O-])cc2)cn1

>  <Energy>  (40) 
112.94634837777322

>  <Genealogy>  (40) 
Cn1cc(-c2cccnc2Oc2ccc(Cc3sc(=O)[n-]c3[O-])cc2)cn1 (protonated)
Cn1cc(-c2cccnc2Oc2ccc(Cc3sc(=O)[n-]c3[O-])cc2)cn1 (3D coordinates assigned)
Cn1cc(-c2cccnc2Oc2ccc(Cc3sc(=O)[n-]c3[O-])cc2)cn1 (optimized conformer: 112.94634837777322 kcal/mol)

>  <smiles>  (40) 
Cn1cc(-c2cccnc2Oc2ccc(Cc3sc(=O)[nH]c3O)cc2)cn1

>  <score_type>  (40) 
oracle

>  <origin>  (40) 
adg

>  <m_score__min__energy>  (40) 
-14.49

>  <m_primary>  (40) 
energy

$$$$
40:0
     RDKit          3D

 21 21  0  0  0  0  0  0  0  0999 V2000
   57.7660   31.9670   42.7300 C   0  0  0  0  0  0  0  0  0  0  0  0
   57.1870   30.9260   43.6820 C   0  0  0  0  0  0  0  0  0  0  0  0
   56.9460   31.4980   44.9660 O   0  0  0  0  0  0  0  0  0  0  0  0
   57.4030   32.7660   45.3460 C   0  0  0  0  0  0  0  0  0  0  0  0
   56.6440   33.7690   45.2470 O   0  0  0  0  0  0  0  0  0  0  0  0
   58.7810   32.9280   45.8590 C   0  0  0  0  0  0  0  0  0  0  0  0
   59.3880   34.1920   45.9150 C   0  0  0  0  0  0  0  0  0  0  0  0
   60.6890   34.3250   46.4020 C   0  0  0  0  0  0  0  0  0  0  0  0
   61.3780   33.1900   46.8330 C   0  0  0  0  0  0  0  0  0  0  0  0
   63.0140   33.3420   47.4480 Cl  0  0  0  0  0  0  0  0  0  0  0  0
   60.7820   31.9670   46.7760 N   0  0  0  0  0  0  0  0  0  0  0  0
   59.5140   31.8150   46.3040 C   0  0  0  0  0  0  0  0  0  0  0  0
   58.2199   32.7832   43.3112 H   0  0  0  0  0  0  0  0  0  0  0  0
   58.5328   31.4978   42.0960 H   0  0  0  0  0  0  0  0  0  0  0  0
   56.9630   32.3710   42.0960 H   0  0  0  0  0  0  0  0  0  0  0  0
   56.2392   30.5480   43.2711 H   0  0  0  0  0  0  0  0  0  0  0  0
   57.9099   30.1040   43.7903 H   0  0  0  0  0  0  0  0  0  0  0  0
   58.8366   35.0807   45.5740 H   0  0  0  0  0  0  0  0  0  0  0  0
   61.1670   35.3147   46.4458 H   0  0  0  0  0  0  0  0  0  0  0  0
   61.3060   31.1240   47.1010 H   0  0  0  0  0  0  0  0  0  0  0  0
   59.0601   30.8136   46.2708 H   0  0  0  0  0  0  0  0  0  0  0  0
  1  2  1  0
  2  3  1  0
  3  4  1  0
  4  5  2  0
  4  6  1  0
  6  7  2  0
  7  8  1  0
  8  9  2  0
  9 10  1  0
  9 11  1  0
 11 12  2  0
 12  6  1  0
  1 13  1  0
  1 14  1  0
  1 15  1  0
  2 16  1  0
  2 17  1  0
  7 18  1  0
  8 19  1  0
 11 20  1  0
 12 21  1  0
M  CHG  1  11   1
M  END
>  <UniqueID>  (41) 
39

>  <SMILES>  (41) 
CCOC(=O)c1ccc(Cl)[nH+]c1

>  <Energy>  (41) 
15.647234391750496

>  <Genealogy>  (41) 
CCOC(=O)c1ccc(Cl)[nH+]c1 (protonated)
CCOC(=O)c1ccc(Cl)[nH+]c1 (3D coordinates assigned)
CCOC(=O)c1ccc(Cl)[nH+]c1 (optimized conformer: 15.647234391750496 kcal/mol)

>  <smiles>  (41) 
CCOC(=O)c1ccc(Cl)nc1

>  <score_type>  (41) 
oracle

>  <origin>  (41) 
adg

>  <m_score__min__energy>  (41) 
-3.4300000000000002

>  <m_primary>  (41) 
energy

$$$$
41:0
     RDKit          3D

 41 43  0  0  0  0  0  0  0  0999 V2000
   63.6910   32.1700   47.5040 C   0  0  0  0  0  0  0  0  0  0  0  0
   62.8920   33.1070   48.4110 C   0  0  0  0  0  0  0  0  0  0  0  0
   61.4580   33.1150   48.0420 N   0  0  0  0  0  0  0  0  0  0  0  0
   60.4960   32.5620   48.8630 C   0  0  0  0  0  0  0  0  0  0  0  0
   60.8900   31.7830   50.4510 S   0  0  0  0  0  0  0  0  0  0  0  0
   60.8370   30.0460   49.8750 C   0  0  0  0  0  0  0  0  0  0  0  0
   59.6270   29.7670   49.0410 C   0  0  0  0  0  0  0  0  0  0  0  0
   58.4840   30.0760   49.4750 O   0  0  0  0  0  0  0  0  0  0  0  0
   59.7910   29.1450   47.7600 N   0  0  0  0  0  0  0  0  0  0  0  0
   58.9690   29.2920   46.5920 C   0  0  0  0  0  0  0  0  0  0  0  0
   57.8240   28.5040   46.3650 C   0  0  0  0  0  0  0  0  0  0  0  0
   57.0170   28.7390   45.2490 C   0  0  0  0  0  0  0  0  0  0  0  0
   57.3330   29.7680   44.3570 C   0  0  0  0  0  0  0  0  0  0  0  0
   56.3030   30.0780   42.9710 Cl  0  0  0  0  0  0  0  0  0  0  0  0
   58.4610   30.5630   44.5820 C   0  0  0  0  0  0  0  0  0  0  0  0
   59.2720   30.3250   45.6950 C   0  0  0  0  0  0  0  0  0  0  0  0
   59.1820   32.6180   48.5130 N   0  0  0  0  0  0  0  0  0  0  0  0
   58.7800   33.1600   47.3340 C   0  0  0  0  0  0  0  0  0  0  0  0
   57.4200   33.1690   46.9810 C   0  0  0  0  0  0  0  0  0  0  0  0
   57.0170   33.6950   45.7520 C   0  0  0  0  0  0  0  0  0  0  0  0
   57.9630   34.2290   44.8750 C   0  0  0  0  0  0  0  0  0  0  0  0
   59.3160   34.2410   45.2240 C   0  0  0  0  0  0  0  0  0  0  0  0
   59.7350   33.7030   46.4580 C   0  0  0  0  0  0  0  0  0  0  0  0
   61.0820   33.6880   46.8500 C   0  0  0  0  0  0  0  0  0  0  0  0
   61.9510   34.2130   46.0960 O   0  0  0  0  0  0  0  0  0  0  0  0
   64.2816   31.4774   48.1216 H   0  0  0  0  0  0  0  0  0  0  0  0
   62.9996   31.5966   46.8690 H   0  0  0  0  0  0  0  0  0  0  0  0
   64.3664   32.7621   46.8690 H   0  0  0  0  0  0  0  0  0  0  0  0
   62.9925   32.7696   49.4532 H   0  0  0  0  0  0  0  0  0  0  0  0
   63.2877   34.1267   48.2937 H   0  0  0  0  0  0  0  0  0  0  0  0
   61.7362   29.8437   49.2745 H   0  0  0  0  0  0  0  0  0  0  0  0
   60.7949   29.3960   50.7615 H   0  0  0  0  0  0  0  0  0  0  0  0
   57.5640   27.7001   47.0694 H   0  0  0  0  0  0  0  0  0  0  0  0
   56.1304   28.1125   45.0717 H   0  0  0  0  0  0  0  0  0  0  0  0
   58.7099   31.3753   43.8833 H   0  0  0  0  0  0  0  0  0  0  0  0
   60.1570   30.9548   45.8686 H   0  0  0  0  0  0  0  0  0  0  0  0
   58.4700   32.2140   49.1640 H   0  0  0  0  0  0  0  0  0  0  0  0
   56.6706   32.7605   47.6749 H   0  0  0  0  0  0  0  0  0  0  0  0
   55.9526   33.6887   45.4743 H   0  0  0  0  0  0  0  0  0  0  0  0
   57.6425   34.6413   43.9069 H   0  0  0  0  0  0  0  0  0  0  0  0
   60.0565   34.6715   44.5338 H   0  0  0  0  0  0  0  0  0  0  0  0
  1  2  1  0
  2  3  1  0
  3  4  1  0
  4  5  1  0
  5  6  1  0
  6  7  1  0
  7  8  2  0
  7  9  1  0
  9 10  1  0
 10 11  2  0
 11 12  1  0
 12 13  2  0
 13 14  1  0
 13 15  1  0
 15 16  2  0
  4 17  2  0
 17 18  1  0
 18 19  2  0
 19 20  1  0
 20 21  2  0
 21 22  1  0
 22 23  2  0
 23 24  1  0
 24 25  2  0
 24  3  1  0
 16 10  1  0
 23 18  1  0
  1 26  1  0
  1 27  1  0
  1 28  1  0
  2 29  1  0
  2 30  1  0
  6 31  1  0
  6 32  1  0
 11 33  1  0
 12 34  1  0
 15 35  1  0
 16 36  1  0
 17 37  1  0
 19 38  1  0
 20 39  1  0
 21 40  1  0
 22 41  1  0
M  CHG  2   9  -1  17   1
M  END
>  <UniqueID>  (42) 
40

>  <SMILES>  (42) 
CCn1c(SCC(=O)[N-]c2ccc(Cl)cc2)[nH+]c2ccccc2c1=O

>  <Energy>  (42) 
46.295626021294915

>  <Genealogy>  (42) 
CCn1c(SCC(=O)[N-]c2ccc(Cl)cc2)[nH+]c2ccccc2c1=O (protonated)
CCn1c(SCC(=O)[N-]c2ccc(Cl)cc2)[nH+]c2ccccc2c1=O (3D coordinates assigned)
CCn1c(SCC(=O)[N-]c2ccc(Cl)cc2)[nH+]c2ccccc2c1=O (optimized conformer: 46.295626021294915 kcal/mol)

>  <smiles>  (42) 
CCn1c(SCC(=O)Nc2ccc(Cl)cc2)nc2ccccc2c1=O

>  <score_type>  (42) 
oracle

>  <origin>  (42) 
adg

>  <m_score__min__energy>  (42) 
-7.96

>  <m_primary>  (42) 
energy

$$$$
42:0
     RDKit          3D

 60 62  0  0  0  0  0  0  0  0999 V2000
   55.4900   30.4930   52.0190 C   0  0  0  0  0  0  0  0  0  0  0  0
   56.8160   30.3030   51.5710 O   0  0  0  0  0  0  0  0  0  0  0  0
   57.7170   31.0530   52.3640 C   0  0  0  0  0  0  0  0  0  0  0  0
   57.7090   32.5200   51.9270 C   0  0  0  0  0  0  0  0  0  0  0  0
   58.4130   32.6700   50.6580 N   0  0  0  0  0  0  0  0  0  0  0  0
   59.6220   33.2400   50.4920 C   0  0  0  0  0  0  0  0  0  0  0  0
   59.8950   33.2840   49.1400 C   0  0  0  0  0  0  0  0  0  0  0  0
   61.0510   34.0090   48.4970 C   0  0  0  0  0  0  0  0  0  0  0  0
   61.9490   33.0790   47.7700 N   0  0  1  0  0  0  0  0  0  0  0  0
   62.6760   33.7640   46.6830 C   0  0  0  0  0  0  0  0  0  0  0  0
   62.8670   32.3520   48.6840 C   0  0  0  0  0  0  0  0  0  0  0  0
   62.3970   30.9140   49.0460 C   0  0  0  0  0  0  0  0  0  0  0  0
   61.0080   30.6110   48.6370 N   0  0  0  0  0  0  0  0  0  0  0  0
   60.8670   30.0360   47.2800 C   0  0  0  0  0  0  0  0  0  0  0  0
   60.3910   28.5720   47.3380 C   0  0  0  0  0  0  0  0  0  0  0  0
   59.1460   28.4070   48.0060 O   0  0  0  0  0  0  0  0  0  0  0  0
   58.9300   29.3360   49.0640 C   0  0  0  0  0  0  0  0  0  0  0  0
   60.2200   29.9110   49.6730 C   0  0  0  0  0  0  0  0  0  0  0  0
   58.7730   32.7250   48.5340 C   0  0  0  0  0  0  0  0  0  0  0  0
   58.4920   32.6200   47.0880 C   0  0  0  0  0  0  0  0  0  0  0  0
   58.5370   33.7710   46.2870 C   0  0  0  0  0  0  0  0  0  0  0  0
   58.2940   33.6870   44.9130 C   0  0  0  0  0  0  0  0  0  0  0  0
   57.9780   32.4530   44.3240 C   0  0  0  0  0  0  0  0  0  0  0  0
   57.7630   32.3540   42.8440 C   0  0  0  0  0  0  0  0  0  0  0  0
   57.9240   31.3030   45.1250 C   0  0  0  0  0  0  0  0  0  0  0  0
   58.1670   31.3870   46.5000 C   0  0  0  0  0  0  0  0  0  0  0  0
   57.8820   32.3760   49.4820 N   0  0  0  0  0  0  0  0  0  0  0  0
   55.4714   30.4957   53.1188 H   0  0  0  0  0  0  0  0  0  0  0  0
   55.1104   31.4547   51.6435 H   0  0  0  0  0  0  0  0  0  0  0  0
   54.8556   29.6766   51.6435 H   0  0  0  0  0  0  0  0  0  0  0  0
   57.4145   30.9864   53.4195 H   0  0  0  0  0  0  0  0  0  0  0  0
   58.7312   30.6460   52.2381 H   0  0  0  0  0  0  0  0  0  0  0  0
   56.6691   32.8584   51.8081 H   0  0  0  0  0  0  0  0  0  0  0  0
   58.2151   33.1261   52.6928 H   0  0  0  0  0  0  0  0  0  0  0  0
   60.2781   33.6069   51.2950 H   0  0  0  0  0  0  0  0  0  0  0  0
   60.6557   34.7502   47.7868 H   0  0  0  0  0  0  0  0  0  0  0  0
   61.6344   34.4955   49.2926 H   0  0  0  0  0  0  0  0  0  0  0  0
   61.3620   32.3370   47.3170 H   0  0  0  0  0  0  0  0  0  0  0  0
   63.4124   34.4578   47.1147 H   0  0  0  0  0  0  0  0  0  0  0  0
   63.1946   33.0186   46.0621 H   0  0  0  0  0  0  0  0  0  0  0  0
   61.9628   34.3260   46.0621 H   0  0  0  0  0  0  0  0  0  0  0  0
   63.8521   32.2816   48.1997 H   0  0  0  0  0  0  0  0  0  0  0  0
   62.8950   32.9222   49.6242 H   0  0  0  0  0  0  0  0  0  0  0  0
   63.0673   30.1965   48.5501 H   0  0  0  0  0  0  0  0  0  0  0  0
   62.4283   30.8371   50.1429 H   0  0  0  0  0  0  0  0  0  0  0  0
   60.1333   30.6290   46.7142 H   0  0  0  0  0  0  0  0  0  0  0  0
   61.8508   30.0615   46.7886 H   0  0  0  0  0  0  0  0  0  0  0  0
   60.2861   28.1988   46.3086 H   0  0  0  0  0  0  0  0  0  0  0  0
   61.1429   28.0094   47.9107 H   0  0  0  0  0  0  0  0  0  0  0  0
   58.3315   30.1716   48.6722 H   0  0  0  0  0  0  0  0  0  0  0  0
   58.4196   28.7855   49.8680 H   0  0  0  0  0  0  0  0  0  0  0  0
   59.9592   30.6207   50.4720 H   0  0  0  0  0  0  0  0  0  0  0  0
   60.8209   29.0860   50.0834 H   0  0  0  0  0  0  0  0  0  0  0  0
   58.7649   34.7457   46.7431 H   0  0  0  0  0  0  0  0  0  0  0  0
   58.3507   34.5922   44.2906 H   0  0  0  0  0  0  0  0  0  0  0  0
   56.7802   31.9015   42.6457 H   0  0  0  0  0  0  0  0  0  0  0  0
   57.7999   33.3598   42.4000 H   0  0  0  0  0  0  0  0  0  0  0  0
   58.5512   31.7281   42.4000 H   0  0  0  0  0  0  0  0  0  0  0  0
   57.6893   30.3297   44.6695 H   0  0  0  0  0  0  0  0  0  0  0  0
   58.1032   30.4830   47.1235 H   0  0  0  0  0  0  0  0  0  0  0  0
  1  2  1  0
  2  3  1  0
  3  4  1  0
  4  5  1  0
  5  6  1  0
  6  7  2  0
  7  8  1  0
  8  9  1  0
  9 10  1  0
  9 11  1  0
 11 12  1  0
 12 13  1  0
 13 14  1  0
 14 15  1  0
 15 16  1  0
 16 17  1  0
 17 18  1  0
  7 19  1  0
 19 20  1  0
 20 21  2  0
 21 22  1  0
 22 23  2  0
 23 24  1  0
 23 25  1  0
 25 26  2  0
 19 27  2  0
 27  5  1  0
 18 13  1  0
 26 20  1  0
  1 28  1  0
  1 29  1  0
  1 30  1  0
  3 31  1  0
  3 32  1  0
  4 33  1  0
  4 34  1  0
  6 35  1  0
  8 36  1  0
  8 37  1  0
  9 38  1  6
 10 39  1  0
 10 40  1  0
 10 41  1  0
 11 42  1  0
 11 43  1  0
 12 44  1  0
 12 45  1  0
 14 46  1  0
 14 47  1  0
 15 48  1  0
 15 49  1  0
 17 50  1  0
 17 51  1  0
 18 52  1  0
 18 53  1  0
 21 54  1  0
 22 55  1  0
 24 56  1  0
 24 57  1  0
 24 58  1  0
 25 59  1  0
 26 60  1  0
M  CHG  1   9   1
M  END
>  <UniqueID>  (43) 
41

>  <SMILES>  (43) 
COCCn1cc(C[N@@H+](C)CCN2CCOCC2)c(-c2ccc(C)cc2)n1

>  <Energy>  (43) 
112.00509579902149

>  <Genealogy>  (43) 
COCCn1cc(C[NH+](C)CCN2CCOCC2)c(-c2ccc(C)cc2)n1 (protonated)
COCCn1cc(C[N@@H+](C)CCN2CCOCC2)c(-c2ccc(C)cc2)n1 (chirality)
COCCn1cc(C[N@@H+](C)CCN2CCOCC2)c(-c2ccc(C)cc2)n1 (3D coordinates assigned)
COCCn1cc(C[N@@H+](C)CCN2CCOCC2)c(-c2ccc(C)cc2)n1 (nonaromatic ring conformer: 112.00509579902149 kcal/mol)

>  <smiles>  (43) 
COCCn1cc(CN(C)CCN2CCOCC2)c(-c2ccc(C)cc2)n1

>  <score_type>  (43) 
oracle

>  <origin>  (43) 
adg

>  <m_score__min__energy>  (43) 
-5.54

>  <m_primary>  (43) 
energy

$$$$
43:0
     RDKit          3D

 49 51  0  0  0  0  0  0  0  0999 V2000
   58.5609   34.3067   49.4868 H   0  0  0  0  0  0  0  0  0  0  0  0
   59.6210   34.1390   49.2460 C   0  0  0  0  0  0  0  0  0  0  0  0
   60.5730   33.8380   50.1300 C   0  0  0  0  0  0  0  0  0  0  0  0
   60.3410   33.5960   51.5900 C   0  0  0  0  0  0  0  0  0  0  0  0
   60.8632   32.6774   51.8957 H   0  0  0  0  0  0  0  0  0  0  0  0
   60.7268   34.4499   52.1662 H   0  0  0  0  0  0  0  0  0  0  0  0
   58.8770   33.4450   51.8500 C   0  0  0  0  0  0  0  0  0  0  0  0
   58.2800   34.2880   52.5740 O   0  0  0  0  0  0  0  0  0  0  0  0
   58.1770   32.4000   51.2400 O   0  0  0  0  0  0  0  0  0  0  0  0
   58.7170   31.0920   51.0670 C   0  0  0  0  0  0  0  0  0  0  0  0
   59.6828   31.0269   51.5894 H   0  0  0  0  0  0  0  0  0  0  0  0
   58.0114   30.3575   51.4825 H   0  0  0  0  0  0  0  0  0  0  0  0
   58.9260   30.7930   49.5860 C   0  0  0  0  0  0  0  0  0  0  0  0
   59.5532   29.8958   49.4780 H   0  0  0  0  0  0  0  0  0  0  0  0
   57.9516   30.6192   49.1059 H   0  0  0  0  0  0  0  0  0  0  0  0
   59.4239   31.6484   49.1059 H   0  0  0  0  0  0  0  0  0  0  0  0
   61.8340   33.6380   49.4130 C   0  0  0  0  0  0  0  0  0  0  0  0
   63.0690   33.2070   49.9020 C   0  0  0  0  0  0  0  0  0  0  0  0
   63.2277   33.0585   50.9803 H   0  0  0  0  0  0  0  0  0  0  0  0
   64.1030   32.9680   48.9830 C   0  0  0  0  0  0  0  0  0  0  0  0
   65.3120   32.5420   49.4230 F   0  0  0  0  0  0  0  0  0  0  0  0
   63.8790   33.1350   47.6020 C   0  0  0  0  0  0  0  0  0  0  0  0
   64.6914   32.9328   46.8885 H   0  0  0  0  0  0  0  0  0  0  0  0
   62.6250   33.5580   47.1300 C   0  0  0  0  0  0  0  0  0  0  0  0
   62.4355   33.6615   46.0514 H   0  0  0  0  0  0  0  0  0  0  0  0
   61.6210   33.8450   48.0650 C   0  0  0  0  0  0  0  0  0  0  0  0
   60.2070   34.2120   47.9010 C   0  0  0  0  0  0  0  0  0  0  0  0
   59.5250   34.5670   46.8020 C   0  0  0  0  0  0  0  0  0  0  0  0
   59.4150   35.6407   46.5899 H   0  0  0  0  0  0  0  0  0  0  0  0
   58.9140   33.6140   45.8610 C   0  0  0  0  0  0  0  0  0  0  0  0
   58.4300   32.3880   46.3310 C   0  0  0  0  0  0  0  0  0  0  0  0
   58.5297   32.1318   47.3961 H   0  0  0  0  0  0  0  0  0  0  0  0
   57.8200   31.4870   45.4520 C   0  0  0  0  0  0  0  0  0  0  0  0
   57.4618   30.5159   45.8244 H   0  0  0  0  0  0  0  0  0  0  0  0
   57.6630   31.8170   44.0960 C   0  0  0  0  0  0  0  0  0  0  0  0
   57.0430   30.8330   43.1370 C   0  0  0  0  0  0  0  0  0  0  0  0
   57.7733   30.5960   42.3493 H   0  0  0  0  0  0  0  0  0  0  0  0
   56.1382   31.2938   42.7139 H   0  0  0  0  0  0  0  0  0  0  0  0
   56.6300   29.5320   43.8380 C   0  0  0  0  0  0  0  0  0  0  0  0
   55.7771   29.0953   43.2977 H   0  0  0  0  0  0  0  0  0  0  0  0
   56.3656   29.7806   44.8764 H   0  0  0  0  0  0  0  0  0  0  0  0
   57.7620   28.5060   43.8790 C   0  0  0  0  0  0  0  0  0  0  0  0
   58.0130   28.2785   44.9256 H   0  0  0  0  0  0  0  0  0  0  0  0
   57.4407   27.5850   43.3705 H   0  0  0  0  0  0  0  0  0  0  0  0
   58.6471   28.9160   43.3705 H   0  0  0  0  0  0  0  0  0  0  0  0
   58.1230   33.0600   43.6310 C   0  0  0  0  0  0  0  0  0  0  0  0
   58.0035   33.3268   42.5706 H   0  0  0  0  0  0  0  0  0  0  0  0
   58.7320   33.9590   44.5110 C   0  0  0  0  0  0  0  0  0  0  0  0
   59.0700   34.9399   44.1456 H   0  0  0  0  0  0  0  0  0  0  0  0
  1  2  1  0
  2  3  2  0
  3  4  1  0
  4  5  1  0
  4  6  1  0
  4  7  1  0
  7  8  2  0
  7  9  1  0
  9 10  1  0
 10 11  1  0
 10 12  1  0
 10 13  1  0
 13 14  1  0
 13 15  1  0
 13 16  1  0
  3 17  1  0
 17 18  2  0
 18 19  1  0
 18 20  1  0
 20 21  1  0
 20 22  2  0
 22 23  1  0
 22 24  1  0
 24 25  1  0
 24 26  2  0
 26 27  1  0
 27 28  2  0
 28 29  1  0
 28 30  1  0
 30 31  2  0
 31 32  1  0
 31 33  1  0
 33 34  1  0
 33 35  2  0
 35 36  1  0
 36 37  1  0
 36 38  1  0
 36 39  1  0
 39 40  1  0
 39 41  1  0
 39 42  1  0
 42 43  1  0
 42 44  1  0
 42 45  1  0
 35 46  1  0
 46 47  1  0
 46 48  2  0
 48 49  1  0
 27  2  1  0
 48 30  1  0
 26 17  1  0
M  END
>  <UniqueID>  (44) 
42

>  <SMILES>  (44) 
CCCc1ccc(/C=C2/C=C(CC(=O)OCC)c3cc(F)ccc32)cc1

>  <Energy>  (44) 
73.03034580817774

>  <Genealogy>  (44) 
CCCc1ccc(/C=C2/C=C(CC(=O)OCC)c3cc(F)ccc32)cc1 (cis-trans isomerization)
CCCc1ccc(/C=C2/C=C(CC(=O)OCC)c3cc(F)ccc32)cc1 (3D coordinates assigned)
CCCc1ccc(/C=C2/C=C(CC(=O)OCC)c3cc(F)ccc32)cc1 (nonaromatic ring conformer: 73.03034580817774 kcal/mol)

>  <smiles>  (44) 
CCCc1ccc(C=C2C=C(CC(=O)OCC)c3cc(F)ccc32)cc1

>  <score_type>  (44) 
oracle

>  <origin>  (44) 
adg

>  <m_score__min__energy>  (44) 
-8.3000000000000007

>  <m_primary>  (44) 
energy

$$$$
44:0
     RDKit          3D

 46 48  0  0  0  0  0  0  0  0999 V2000
   60.0260   28.8630   45.0220 C   0  0  0  0  0  0  0  0  0  0  0  0
   59.0280   28.1390   44.1200 C   0  0  0  0  0  0  0  0  0  0  0  0
   57.6030   28.1200   44.6910 C   0  0  0  0  0  0  0  0  0  0  0  0
   56.5720   29.4480   44.0740 S   0  0  0  0  0  0  0  0  0  0  0  0
   55.2720   29.4330   44.8290 O   0  0  0  0  0  0  0  0  0  0  0  0
   56.2670   29.2430   42.6170 O   0  0  0  0  0  0  0  0  0  0  0  0
   57.3540   31.0120   44.3040 C   0  0  0  0  0  0  0  0  0  0  0  0
   57.5640   31.8590   43.2110 C   0  0  0  0  0  0  0  0  0  0  0  0
   58.1870   33.0940   43.3910 C   0  0  0  0  0  0  0  0  0  0  0  0
   58.5930   33.4950   44.6650 C   0  0  0  0  0  0  0  0  0  0  0  0
   58.3760   32.6690   45.7830 C   0  0  0  0  0  0  0  0  0  0  0  0
   58.7800   33.1980   47.1560 C   0  0  2  0  0  0  0  0  0  0  0  0
   59.4360   34.5760   47.2210 C   0  0  0  0  0  0  0  0  0  0  0  0
   60.0740   34.5940   48.5960 C   0  0  0  0  0  0  0  0  0  0  0  0
   60.1280   33.1320   49.0450 C   0  0  0  0  0  0  0  0  0  0  0  0
   59.6410   32.2850   47.9370 N   0  0  0  0  0  0  0  0  0  0  0  0
   60.7750   31.7190   47.1600 C   0  0  0  0  0  0  0  0  0  0  0  0
   62.0440   32.4450   47.4810 C   0  0  0  0  0  0  0  0  0  0  0  0
   62.5810   33.4940   46.7610 C   0  0  0  0  0  0  0  0  0  0  0  0
   63.7400   33.8410   47.4210 C   0  0  0  0  0  0  0  0  0  0  0  0
   63.8420   32.9800   48.4960 C   0  0  0  0  0  0  0  0  0  0  0  0
   62.8180   32.1580   48.5020 O   0  0  0  0  0  0  0  0  0  0  0  0
   57.7540   31.4170   45.5860 C   0  0  0  0  0  0  0  0  0  0  0  0
   59.7699   28.6772   46.0755 H   0  0  0  0  0  0  0  0  0  0  0  0
   61.0408   28.4896   44.8200 H   0  0  0  0  0  0  0  0  0  0  0  0
   59.9860   29.9436   44.8200 H   0  0  0  0  0  0  0  0  0  0  0  0
   59.0071   28.6455   43.1438 H   0  0  0  0  0  0  0  0  0  0  0  0
   59.3610   27.0941   44.0351 H   0  0  0  0  0  0  0  0  0  0  0  0
   57.1334   27.1615   44.4248 H   0  0  0  0  0  0  0  0  0  0  0  0
   57.6875   28.2534   45.7796 H   0  0  0  0  0  0  0  0  0  0  0  0
   57.2371   31.5505   42.2070 H   0  0  0  0  0  0  0  0  0  0  0  0
   58.3587   33.7532   42.5273 H   0  0  0  0  0  0  0  0  0  0  0  0
   59.0884   34.4683   44.7963 H   0  0  0  0  0  0  0  0  0  0  0  0
   57.7761   33.2817   47.5979 H   0  0  0  0  0  0  0  0  0  0  0  0
   60.1951   34.6886   46.4329 H   0  0  0  0  0  0  0  0  0  0  0  0
   58.7235   35.3997   47.0662 H   0  0  0  0  0  0  0  0  0  0  0  0
   61.0881   35.0169   48.5431 H   0  0  0  0  0  0  0  0  0  0  0  0
   59.5024   35.2151   49.3013 H   0  0  0  0  0  0  0  0  0  0  0  0
   61.1638   32.8581   49.2943 H   0  0  0  0  0  0  0  0  0  0  0  0
   59.4991   32.9870   49.9358 H   0  0  0  0  0  0  0  0  0  0  0  0
   60.8924   30.6551   47.4136 H   0  0  0  0  0  0  0  0  0  0  0  0
   60.5623   31.8315   46.0866 H   0  0  0  0  0  0  0  0  0  0  0  0
   62.1698   33.9558   45.8513 H   0  0  0  0  0  0  0  0  0  0  0  0
   64.4422   34.6421   47.1469 H   0  0  0  0  0  0  0  0  0  0  0  0
   64.6570   32.9824   49.2348 H   0  0  0  0  0  0  0  0  0  0  0  0
   57.5815   30.7530   46.4458 H   0  0  0  0  0  0  0  0  0  0  0  0
  1  2  1  0
  2  3  1  0
  3  4  1  0
  4  5  2  0
  4  6  2  0
  4  7  1  0
  7  8  2  0
  8  9  1  0
  9 10  2  0
 10 11  1  0
 11 12  1  0
 12 13  1  0
 13 14  1  0
 14 15  1  0
 15 16  1  0
 16 17  1  0
 17 18  1  0
 18 19  2  0
 19 20  1  0
 20 21  2  0
 21 22  1  0
 11 23  2  0
 23  7  1  0
 16 12  1  0
 22 18  1  0
  1 24  1  0
  1 25  1  0
  1 26  1  0
  2 27  1  0
  2 28  1  0
  3 29  1  0
  3 30  1  0
  8 31  1  0
  9 32  1  0
 10 33  1  0
 12 34  1  1
 13 35  1  0
 13 36  1  0
 14 37  1  0
 14 38  1  0
 15 39  1  0
 15 40  1  0
 17 41  1  0
 17 42  1  0
 19 43  1  0
 20 44  1  0
 21 45  1  0
 23 46  1  0
M  END
>  <UniqueID>  (45) 
43

>  <SMILES>  (45) 
CCCS(=O)(=O)c1cccc([C@@H]2CCCN2Cc2ccco2)c1

>  <Energy>  (45) 
74.55231022155793

>  <Genealogy>  (45) 
CCCS(=O)(=O)c1cccc([C@@H]2CCCN2Cc2ccco2)c1 (chirality)
CCCS(=O)(=O)c1cccc([C@@H]2CCCN2Cc2ccco2)c1 (3D coordinates assigned)
CCCS(=O)(=O)c1cccc([C@@H]2CCCN2Cc2ccco2)c1 (nonaromatic ring conformer: 74.55231022155793 kcal/mol)

>  <smiles>  (45) 
CCCS(=O)(=O)c1cccc(C2CCCN2Cc2ccco2)c1

>  <score_type>  (45) 
oracle

>  <origin>  (45) 
adg

>  <m_score__min__energy>  (45) 
-8.4900000000000002

>  <m_primary>  (45) 
energy

$$$$
45:0
     RDKit          3D

 42 44  0  0  0  0  0  0  0  0999 V2000
   52.2830   31.2960   51.2260 C   0  0  0  0  0  0  0  0  0  0  0  0
   53.2550   30.1500   50.9730 C   0  0  0  0  0  0  0  0  0  0  0  0
   54.4410   30.3000   51.8110 N   0  0  0  0  0  0  0  0  0  0  0  0
   54.8170   29.4740   52.8070 C   0  0  0  0  0  0  0  0  0  0  0  0
   56.0380   29.9050   53.2880 C   0  0  0  0  0  0  0  0  0  0  0  0
   57.0320   29.0740   54.4690 Cl  0  0  0  0  0  0  0  0  0  0  0  0
   56.3610   31.0140   52.5200 C   0  0  0  0  0  0  0  0  0  0  0  0
   57.5990   31.8100   52.5790 C   0  0  0  0  0  0  0  0  0  0  0  0
   58.0100   32.2170   53.6990 O   0  0  0  0  0  0  0  0  0  0  0  0
   58.3500   32.1140   51.3920 N   0  0  0  0  0  0  0  0  0  0  0  0
   58.9160   33.4630   51.2410 C   0  0  0  0  0  0  0  0  0  0  0  0
   59.8990   33.5310   50.0700 C   0  0  0  0  0  0  0  0  0  0  0  0
   59.3230   32.8480   48.9060 N   0  0  0  0  0  0  0  0  0  0  0  0
   59.1670   33.5360   47.6500 C   0  0  0  0  0  0  0  0  0  0  0  0
   60.0740   34.5410   47.2710 C   0  0  0  0  0  0  0  0  0  0  0  0
   59.9310   35.1980   46.0450 C   0  0  0  0  0  0  0  0  0  0  0  0
   58.8850   34.8540   45.1840 C   0  0  0  0  0  0  0  0  0  0  0  0
   57.9830   33.8510   45.5470 C   0  0  0  0  0  0  0  0  0  0  0  0
   58.1230   33.1920   46.7720 C   0  0  0  0  0  0  0  0  0  0  0  0
   58.8300   31.4700   49.0460 C   0  0  0  0  0  0  0  0  0  0  0  0
   58.7920   31.0190   50.5150 C   0  0  0  0  0  0  0  0  0  0  0  0
   55.3770   31.2170   51.6240 N   0  0  0  0  0  0  0  0  0  0  0  0
   52.1605   31.4404   52.3096 H   0  0  0  0  0  0  0  0  0  0  0  0
   52.6784   32.2184   50.7755 H   0  0  0  0  0  0  0  0  0  0  0  0
   51.3085   31.0565   50.7755 H   0  0  0  0  0  0  0  0  0  0  0  0
   52.7613   29.1959   51.2097 H   0  0  0  0  0  0  0  0  0  0  0  0
   53.5586   30.1639   49.9158 H   0  0  0  0  0  0  0  0  0  0  0  0
   54.2494   28.6061   53.1738 H   0  0  0  0  0  0  0  0  0  0  0  0
   58.0976   34.1761   51.0626 H   0  0  0  0  0  0  0  0  0  0  0  0
   59.4601   33.7142   52.1634 H   0  0  0  0  0  0  0  0  0  0  0  0
   60.0956   34.5834   49.8172 H   0  0  0  0  0  0  0  0  0  0  0  0
   60.8412   33.0393   50.3538 H   0  0  0  0  0  0  0  0  0  0  0  0
   60.9014   34.8122   47.9432 H   0  0  0  0  0  0  0  0  0  0  0  0
   60.6424   35.9863   45.7578 H   0  0  0  0  0  0  0  0  0  0  0  0
   58.7721   35.3730   44.2207 H   0  0  0  0  0  0  0  0  0  0  0  0
   57.1613   33.5793   44.8680 H   0  0  0  0  0  0  0  0  0  0  0  0
   57.4126   32.3998   47.0510 H   0  0  0  0  0  0  0  0  0  0  0  0
   57.8132   31.4126   48.6304 H   0  0  0  0  0  0  0  0  0  0  0  0
   59.5192   30.8056   48.5041 H   0  0  0  0  0  0  0  0  0  0  0  0
   58.0938   30.1748   50.6140 H   0  0  0  0  0  0  0  0  0  0  0  0
   59.8065   30.7177   50.8152 H   0  0  0  0  0  0  0  0  0  0  0  0
   55.3490   31.9570   50.8860 H   0  0  0  0  0  0  0  0  0  0  0  0
  1  2  1  0
  2  3  1  0
  3  4  1  0
  4  5  2  0
  5  6  1  0
  5  7  1  0
  7  8  1  0
  8  9  2  0
  8 10  1  0
 10 11  1  0
 11 12  1  0
 12 13  1  0
 13 14  1  0
 14 15  2  0
 15 16  1  0
 16 17  2  0
 17 18  1  0
 18 19  2  0
 13 20  1  0
 20 21  1  0
  7 22  2  0
 22  3  1  0
 21 10  1  0
 19 14  1  0
  1 23  1  0
  1 24  1  0
  1 25  1  0
  2 26  1  0
  2 27  1  0
  4 28  1  0
 11 29  1  0
 11 30  1  0
 12 31  1  0
 12 32  1  0
 15 33  1  0
 16 34  1  0
 17 35  1  0
 18 36  1  0
 19 37  1  0
 20 38  1  0
 20 39  1  0
 21 40  1  0
 21 41  1  0
 22 42  1  0
M  CHG  1  22   1
M  END
>  <UniqueID>  (46) 
44

>  <SMILES>  (46) 
CCn1cc(Cl)c(C(=O)N2CCN(c3ccccc3)CC2)[nH+]1

>  <Energy>  (46) 
79.39571754521776

>  <Genealogy>  (46) 
CCn1cc(Cl)c(C(=O)N2CCN(c3ccccc3)CC2)[nH+]1 (protonated)
CCn1cc(Cl)c(C(=O)N2CCN(c3ccccc3)CC2)[nH+]1 (3D coordinates assigned)
CCn1cc(Cl)c(C(=O)N2CCN(c3ccccc3)CC2)[nH+]1 (nonaromatic ring conformer: 79.39571754521776 kcal/mol)

>  <smiles>  (46) 
CCn1cc(Cl)c(C(=O)N2CCN(c3ccccc3)CC2)n1

>  <score_type>  (46) 
oracle

>  <origin>  (46) 
adg

>  <m_score__min__energy>  (46) 
-6.04

>  <m_primary>  (46) 
energy

$$$$
46:0
     RDKit          3D

 40 41  0  0  0  0  0  0  0  0999 V2000
   62.6140   33.8360   48.6610 C   0  0  0  0  0  0  0  0  0  0  0  0
   61.3170   33.8080   47.9080 C   0  0  0  0  0  0  0  0  0  0  0  0
   60.1040   33.6360   48.5940 C   0  0  0  0  0  0  0  0  0  0  0  0
   58.8990   33.5790   47.8870 C   0  0  0  0  0  0  0  0  0  0  0  0
   58.8950   33.6940   46.4930 C   0  0  0  0  0  0  0  0  0  0  0  0
   57.3430   33.6330   45.5890 S   0  0  0  0  0  0  0  0  0  0  0  0
   58.0560   32.9370   44.0510 C   0  0  0  0  0  0  0  0  0  0  0  0
   57.3960   31.6100   43.6740 C   0  0  0  0  0  0  0  0  0  0  0  0
   56.8220   30.9690   44.8640 N   0  0  0  0  0  0  0  0  0  0  0  0
   56.2490   29.6610   44.5250 C   0  0  0  0  0  0  0  0  0  0  0  0
   57.0170   28.5360   45.2280 C   0  0  0  0  0  0  0  0  0  0  0  0
   58.3700   29.0060   45.7000 C   0  0  0  0  0  0  0  0  0  0  0  0
   59.5030   28.8290   44.8880 C   0  0  0  0  0  0  0  0  0  0  0  0
   60.7510   29.3020   45.3080 C   0  0  0  0  0  0  0  0  0  0  0  0
   60.8750   29.9580   46.5360 C   0  0  0  0  0  0  0  0  0  0  0  0
   59.7520   30.1410   47.3470 C   0  0  0  0  0  0  0  0  0  0  0  0
   58.5030   29.6700   46.9310 C   0  0  0  0  0  0  0  0  0  0  0  0
   60.1040   33.8320   45.8040 C   0  0  0  0  0  0  0  0  0  0  0  0
   61.3110   33.8820   46.5060 C   0  0  0  0  0  0  0  0  0  0  0  0
   62.4105   33.8316   49.7420 H   0  0  0  0  0  0  0  0  0  0  0  0
   63.2107   32.9505   48.3966 H   0  0  0  0  0  0  0  0  0  0  0  0
   63.1719   34.7464   48.3966 H   0  0  0  0  0  0  0  0  0  0  0  0
   60.1017   33.5459   49.6903 H   0  0  0  0  0  0  0  0  0  0  0  0
   57.9513   33.4433   48.4287 H   0  0  0  0  0  0  0  0  0  0  0  0
   57.9066   33.6554   43.2315 H   0  0  0  0  0  0  0  0  0  0  0  0
   59.1269   32.7521   44.2215 H   0  0  0  0  0  0  0  0  0  0  0  0
   56.5967   31.7975   42.9419 H   0  0  0  0  0  0  0  0  0  0  0  0
   58.1560   30.9433   43.2404 H   0  0  0  0  0  0  0  0  0  0  0  0
   56.0410   31.5760   45.2050 H   0  0  0  0  0  0  0  0  0  0  0  0
   55.1965   29.6340   44.8437 H   0  0  0  0  0  0  0  0  0  0  0  0
   56.3216   29.5136   43.4373 H   0  0  0  0  0  0  0  0  0  0  0  0
   56.4345   28.1927   46.0956 H   0  0  0  0  0  0  0  0  0  0  0  0
   57.1660   27.7165   44.5095 H   0  0  0  0  0  0  0  0  0  0  0  0
   59.4085   28.3169   43.9190 H   0  0  0  0  0  0  0  0  0  0  0  0
   61.6359   29.1574   44.6708 H   0  0  0  0  0  0  0  0  0  0  0  0
   61.8568   30.3302   46.8640 H   0  0  0  0  0  0  0  0  0  0  0  0
   59.8507   30.6562   48.3139 H   0  0  0  0  0  0  0  0  0  0  0  0
   57.6205   29.8200   47.5704 H   0  0  0  0  0  0  0  0  0  0  0  0
   60.1048   33.9014   44.7062 H   0  0  0  0  0  0  0  0  0  0  0  0
   62.2599   33.9797   45.9583 H   0  0  0  0  0  0  0  0  0  0  0  0
  1  2  1  0
  2  3  2  0
  3  4  1  0
  4  5  2  0
  5  6  1  0
  6  7  1  0
  7  8  1  0
  8  9  1  0
  9 10  1  0
 10 11  1  0
 11 12  1  0
 12 13  2  0
 13 14  1  0
 14 15  2  0
 15 16  1  0
 16 17  2  0
  5 18  1  0
 18 19  2  0
 19  2  1  0
 17 12  1  0
  1 20  1  0
  1 21  1  0
  1 22  1  0
  3 23  1  0
  4 24  1  0
  7 25  1  0
  7 26  1  0
  8 27  1  0
  8 28  1  0
  9 29  1  0
 10 30  1  0
 10 31  1  0
 11 32  1  0
 11 33  1  0
 13 34  1  0
 14 35  1  0
 15 36  1  0
 16 37  1  0
 17 38  1  0
 18 39  1  0
 19 40  1  0
M  END
>  <UniqueID>  (47) 
45

>  <SMILES>  (47) 
Cc1ccc(SCCNCCc2ccccc2)cc1

>  <Energy>  (47) 
28.528783506983835

>  <Genealogy>  (47) 
Cc1ccc(SCCNCCc2ccccc2)cc1 (3D coordinates assigned)
Cc1ccc(SCCNCCc2ccccc2)cc1 (optimized conformer: 28.528783506983835 kcal/mol)

>  <smiles>  (47) 
Cc1ccc(SCCNCCc2ccccc2)cc1

>  <score_type>  (47) 
oracle

>  <origin>  (47) 
adg

>  <m_score__min__energy>  (47) 
-6.75

>  <m_primary>  (47) 
energy

$$$$
47:0
     RDKit          3D

 47 48  0  0  0  0  0  0  0  0999 V2000
   63.3840   32.3410   47.1730 C   0  0  0  0  0  0  0  0  0  0  0  0
   62.9180   33.7940   47.1680 C   0  0  0  0  0  0  0  0  0  0  0  0
   61.7350   34.0410   48.1220 C   0  0  0  0  0  0  0  0  0  0  0  0
   60.4240   33.8730   47.4200 N   0  0  0  0  0  0  0  0  0  0  0  0
   60.0160   35.1460   46.7500 C   0  0  0  0  0  0  0  0  0  0  0  0
   58.9070   34.9360   45.7000 C   0  0  0  0  0  0  0  0  0  0  0  0
   59.2450   33.8510   44.6830 C   0  0  0  0  0  0  0  0  0  0  0  0
   59.3780   33.3520   48.3670 C   0  0  2  0  0  0  0  0  0  0  0  0
   59.9940   32.4280   49.4490 C   0  0  0  0  0  0  0  0  0  0  0  0
   60.5600   31.2670   48.8390 O   0  0  0  0  0  0  0  0  0  0  0  0
   59.9470   30.6270   47.7560 C   0  0  0  0  0  0  0  0  0  0  0  0
   60.4680   29.4210   47.2830 C   0  0  0  0  0  0  0  0  0  0  0  0
   59.8640   28.7720   46.2070 C   0  0  0  0  0  0  0  0  0  0  0  0
   58.7320   29.3210   45.6000 C   0  0  0  0  0  0  0  0  0  0  0  0
   58.1940   30.5390   46.0610 C   0  0  0  0  0  0  0  0  0  0  0  0
   57.0530   31.1120   45.4800 O   0  0  0  0  0  0  0  0  0  0  0  0
   56.7460   31.0800   44.0890 C   0  0  0  0  0  0  0  0  0  0  0  0
   55.9020   29.8830   43.7990 C   0  0  0  0  0  0  0  0  0  0  0  0
   55.1450   29.2730   44.8410 N   0  0  0  0  0  0  0  0  0  0  0  0
   55.8560   29.4130   42.6300 O   0  0  0  0  0  0  0  0  0  0  0  0
   58.8240   31.2060   47.1310 C   0  0  0  0  0  0  0  0  0  0  0  0
   58.2740   32.5070   47.6770 C   0  0  0  0  0  0  0  0  0  0  0  0
   63.4949   31.9951   48.2113 H   0  0  0  0  0  0  0  0  0  0  0  0
   62.6413   31.7159   46.6557 H   0  0  0  0  0  0  0  0  0  0  0  0
   64.3517   32.2645   46.6557 H   0  0  0  0  0  0  0  0  0  0  0  0
   63.7580   34.4342   47.4756 H   0  0  0  0  0  0  0  0  0  0  0  0
   62.5785   34.0309   46.1489 H   0  0  0  0  0  0  0  0  0  0  0  0
   61.7901   33.3235   48.9540 H   0  0  0  0  0  0  0  0  0  0  0  0
   61.7993   35.0744   48.4933 H   0  0  0  0  0  0  0  0  0  0  0  0
   59.6480   35.8446   47.5158 H   0  0  0  0  0  0  0  0  0  0  0  0
   60.8981   35.5440   46.2270 H   0  0  0  0  0  0  0  0  0  0  0  0
   57.9808   34.6516   46.2209 H   0  0  0  0  0  0  0  0  0  0  0  0
   58.7948   35.8805   45.1475 H   0  0  0  0  0  0  0  0  0  0  0  0
   59.5320   32.9298   45.2113 H   0  0  0  0  0  0  0  0  0  0  0  0
   58.3659   33.6532   44.0521 H   0  0  0  0  0  0  0  0  0  0  0  0
   60.0809   34.1874   44.0521 H   0  0  0  0  0  0  0  0  0  0  0  0
   58.9400   34.2638   48.7992 H   0  0  0  0  0  0  0  0  0  0  0  0
   60.7805   32.9750   49.9896 H   0  0  0  0  0  0  0  0  0  0  0  0
   59.2045   32.1179   50.1494 H   0  0  0  0  0  0  0  0  0  0  0  0
   61.3566   28.9821   47.7602 H   0  0  0  0  0  0  0  0  0  0  0  0
   60.2803   27.8243   45.8347 H   0  0  0  0  0  0  0  0  0  0  0  0
   58.2573   28.7988   44.7562 H   0  0  0  0  0  0  0  0  0  0  0  0
   56.1975   31.9925   43.8124 H   0  0  0  0  0  0  0  0  0  0  0  0
   57.6775   31.0248   43.5065 H   0  0  0  0  0  0  0  0  0  0  0  0
   55.1110   29.6970   45.7940 H   0  0  0  0  0  0  0  0  0  0  0  0
   57.8457   33.0890   46.8476 H   0  0  0  0  0  0  0  0  0  0  0  0
   57.5065   32.2668   48.4275 H   0  0  0  0  0  0  0  0  0  0  0  0
  1  2  1  0
  2  3  1  0
  3  4  1  0
  4  5  1  0
  5  6  1  0
  6  7  1  0
  4  8  1  0
  8  9  1  0
  9 10  1  0
 10 11  1  0
 11 12  2  0
 12 13  1  0
 13 14  2  0
 14 15  1  0
 15 16  1  0
 16 17  1  0
 17 18  1  0
 18 19  1  0
 18 20  2  0
 15 21  2  0
 21 22  1  0
 22  8  1  0
 21 11  1  0
  1 23  1  0
  1 24  1  0
  1 25  1  0
  2 26  1  0
  2 27  1  0
  3 28  1  0
  3 29  1  0
  5 30  1  0
  5 31  1  0
  6 32  1  0
  6 33  1  0
  7 34  1  0
  7 35  1  0
  7 36  1  0
  8 37  1  1
  9 38  1  0
  9 39  1  0
 12 40  1  0
 13 41  1  0
 14 42  1  0
 17 43  1  0
 17 44  1  0
 19 45  1  0
 22 46  1  0
 22 47  1  0
M  CHG  1  19  -1
M  END
>  <UniqueID>  (48) 
46

>  <SMILES>  (48) 
CCCN(CCC)[C@@H]1COc2cccc(OCC([NH-])=O)c2C1

>  <Energy>  (48) 
50.18025785302923

>  <Genealogy>  (48) 
CCCN(CCC)C1COc2cccc(OCC([NH-])=O)c2C1 (protonated)
CCCN(CCC)[C@@H]1COc2cccc(OCC([NH-])=O)c2C1 (chirality)
CCCN(CCC)[C@@H]1COc2cccc(OCC([NH-])=O)c2C1 (3D coordinates assigned)
CCCN(CCC)[C@@H]1COc2cccc(OCC([NH-])=O)c2C1 (nonaromatic ring conformer: 50.18025785302923 kcal/mol)

>  <smiles>  (48) 
CCCN(CCC)C1COc2cccc(OCC(N)=O)c2C1

>  <score_type>  (48) 
oracle

>  <origin>  (48) 
adg

>  <m_score__min__energy>  (48) 
-9.7799999999999994

>  <m_primary>  (48) 
energy

$$$$
