0:0
     RDKit          3D

 33 33  0  0  0  0  0  0  0  0999 V2000
   55.1320   24.7480   45.5600 C   0  0  0  0  0  0  0  0  0  0  0  0
   55.9760   25.8170   46.2260 C   0  0  0  0  0  0  0  0  0  0  0  0
   55.5680   27.0920   45.8000 O   0  0  0  0  0  0  0  0  0  0  0  0
   56.6350   27.7100   45.2490 N   0  0  0  0  0  0  0  0  0  0  0  0
   56.2240   29.0580   44.8730 C   0  0  0  0  0  0  0  0  0  0  0  0
   57.0610   29.5070   43.6970 C   0  0  0  0  0  0  0  0  0  0  0  0
   58.4030   30.0740   44.1750 C   0  0  0  0  0  0  0  0  0  0  0  0
   58.1660   31.4310   44.7300 C   0  0  0  0  0  0  0  0  0  0  0  0
   58.2500   31.5780   46.0990 C   0  0  0  0  0  0  0  0  0  0  0  0
   58.5610   30.4700   47.0280 C   0  0  0  0  0  0  0  0  0  0  0  0
   58.0340   32.8320   46.6610 C   0  0  0  0  0  0  0  0  0  0  0  0
   57.7360   33.9430   45.8860 C   0  0  0  0  0  0  0  0  0  0  0  0
   57.6610   33.7530   44.5200 C   0  0  0  0  0  0  0  0  0  0  0  0
   57.8710   32.5180   43.9250 C   0  0  0  0  0  0  0  0  0  0  0  0
   57.7680   32.3070   42.1790 Cl  0  0  0  0  0  0  0  0  0  0  0  0
   54.6456   24.1319   46.3306 H   0  0  0  0  0  0  0  0  0  0  0  0
   54.3641   25.2248   44.9331 H   0  0  0  0  0  0  0  0  0  0  0  0
   55.7740   24.1117   44.9331 H   0  0  0  0  0  0  0  0  0  0  0  0
   55.8600   25.7441   47.3174 H   0  0  0  0  0  0  0  0  0  0  0  0
   57.0300   25.6663   45.9497 H   0  0  0  0  0  0  0  0  0  0  0  0
   56.8570   27.1510   44.3810 H   0  0  0  0  0  0  0  0  0  0  0  0
   55.1605   29.0563   44.5918 H   0  0  0  0  0  0  0  0  0  0  0  0
   56.3674   29.7447   45.7203 H   0  0  0  0  0  0  0  0  0  0  0  0
   57.2465   28.6474   43.0361 H   0  0  0  0  0  0  0  0  0  0  0  0
   56.5167   30.2938   43.1541 H   0  0  0  0  0  0  0  0  0  0  0  0
   58.8256   29.4224   44.9540 H   0  0  0  0  0  0  0  0  0  0  0  0
   59.1121   30.1268   43.3357 H   0  0  0  0  0  0  0  0  0  0  0  0
   58.4621   30.8225   48.0653 H   0  0  0  0  0  0  0  0  0  0  0  0
   57.8614   29.6390   46.8548 H   0  0  0  0  0  0  0  0  0  0  0  0
   59.5909   30.1244   46.8548 H   0  0  0  0  0  0  0  0  0  0  0  0
   58.1016   32.9459   47.7530 H   0  0  0  0  0  0  0  0  0  0  0  0
   57.5670   34.9311   46.3389 H   0  0  0  0  0  0  0  0  0  0  0  0
   57.4254   34.6152   43.8788 H   0  0  0  0  0  0  0  0  0  0  0  0
  1  2  1  0
  2  3  1  0
  3  4  1  0
  4  5  1  0
  5  6  1  0
  6  7  1  0
  7  8  1  0
  8  9  2  0
  9 10  1  0
  9 11  1  0
 11 12  2  0
 12 13  1  0
 13 14  2  0
 14 15  1  0
 14  8  1  0
  1 16  1  0
  1 17  1  0
  1 18  1  0
  2 19  1  0
  2 20  1  0
  4 21  1  0
  5 22  1  0
  5 23  1  0
  6 24  1  0
  6 25  1  0
  7 26  1  0
  7 27  1  0
 10 28  1  0
 10 29  1  0
 10 30  1  0
 11 31  1  0
 12 32  1  0
 13 33  1  0
M  END
>  <smiles>  (1) 
CCONCCCc1c(C)cccc1Cl

>  <score_type>  (1) 
oracle

>  <origin>  (1) 
adg

>  <m_score__min__energy>  (1) 
-6.0199999999999996

>  <m_primary>  (1) 
energy

$$$$
1:0
     RDKit          3D

 78 82  0  0  0  0  0  0  0  0999 V2000
   56.2950   26.1720   45.9770 C   0  0  0  0  0  0  0  0  0  0  0  0
   57.5380   26.1900   46.8830 C   0  0  0  0  0  0  0  0  0  0  0  0
   58.0320   27.5200   47.1090 N   0  0  0  0  0  0  0  0  0  0  0  0
   59.2610   27.8260   46.4620 C   0  0  0  0  0  0  0  0  0  0  0  0
   59.7860   29.2490   46.8780 C   0  0  0  0  0  0  0  0  0  0  0  0
   58.5680   30.0190   47.2890 N   0  0  0  0  0  0  0  0  0  0  0  0
   58.3200   31.3270   46.7150 C   0  0  0  0  0  0  0  0  0  0  0  0
   58.1580   31.5270   45.4320 C   0  0  0  0  0  0  0  0  0  0  0  0
   57.5760   30.5000   44.6710 C   0  0  0  0  0  0  0  0  0  0  0  0
   57.3180   30.6730   43.3650 C   0  0  0  0  0  0  0  0  0  0  0  0
   57.6400   31.8970   42.8040 C   0  0  0  0  0  0  0  0  0  0  0  0
   58.2010   32.9180   43.5210 C   0  0  0  0  0  0  0  0  0  0  0  0
   58.4560   32.7290   44.8410 C   0  0  0  0  0  0  0  0  0  0  0  0
   58.9330   33.7550   45.6120 N   0  0  0  0  0  0  0  0  0  0  0  0
   59.2480   34.9530   44.9070 C   0  0  0  0  0  0  0  0  0  0  0  0
   59.0750   33.5300   46.9170 C   0  0  0  0  0  0  0  0  0  0  0  0
   59.6320   34.6120   47.6490 C   0  0  0  0  0  0  0  0  0  0  0  0
   59.7810   34.2490   48.9670 C   0  0  0  0  0  0  0  0  0  0  0  0
   59.4940   33.1400   49.5530 C   0  0  0  0  0  0  0  0  0  0  0  0
   58.8210   31.8040   48.7420 C   0  0  0  0  0  0  0  0  0  0  0  0
   58.8170   31.1350   49.8930 N   0  0  0  0  0  0  0  0  0  0  0  0
   59.3270   29.7390   49.9700 C   0  0  0  0  0  0  0  0  0  0  0  0
   60.4480   29.6350   50.9270 C   0  0  0  0  0  0  0  0  0  0  0  0
   61.8190   29.3040   50.4970 C   0  0  0  0  0  0  0  0  0  0  0  0
   62.7770   30.3700   50.4450 N   0  0  0  0  0  0  0  0  0  0  0  0
   63.6030   30.4750   51.5350 C   0  0  0  0  0  0  0  0  0  0  0  0
   64.5770   31.4200   51.6830 C   0  0  0  0  0  0  0  0  0  0  0  0
   64.7790   32.3660   50.6730 C   0  0  0  0  0  0  0  0  0  0  0  0
   65.8210   33.2850   50.8620 N   0  0  0  0  0  0  0  0  0  0  0  0
   67.1550   33.0940   50.2660 C   0  0  0  0  0  0  0  0  0  0  0  0
   65.5800   34.4780   51.6850 C   0  0  0  0  0  0  0  0  0  0  0  0
   63.9570   32.2650   49.5850 C   0  0  0  0  0  0  0  0  0  0  0  0
   64.1260   33.1870   48.5790 C   0  0  0  0  0  0  0  0  0  0  0  0
   63.3280   33.1810   47.4250 C   0  0  0  0  0  0  0  0  0  0  0  0
   62.3480   32.1840   47.3410 C   0  0  0  0  0  0  0  0  0  0  0  0
   62.2000   31.2690   48.3650 C   0  0  0  0  0  0  0  0  0  0  0  0
   62.9750   31.2720   49.4940 C   0  0  0  0  0  0  0  0  0  0  0  0
   58.8300   32.4540   47.6280 C   0  0  0  0  0  0  0  0  0  0  0  0
   55.3879   26.1589   46.5992 H   0  0  0  0  0  0  0  0  0  0  0  0
   56.2911   27.0702   45.3420 H   0  0  0  0  0  0  0  0  0  0  0  0
   56.3171   25.2741   45.3420 H   0  0  0  0  0  0  0  0  0  0  0  0
   57.2751   25.7414   47.8523 H   0  0  0  0  0  0  0  0  0  0  0  0
   58.3304   25.6196   46.3764 H   0  0  0  0  0  0  0  0  0  0  0  0
   57.3090   28.1990   46.7840 H   0  0  0  0  0  0  0  0  0  0  0  0
   60.0109   27.0714   46.7416 H   0  0  0  0  0  0  0  0  0  0  0  0
   59.0920   27.8220   45.3751 H   0  0  0  0  0  0  0  0  0  0  0  0
   60.4917   29.1683   47.7179 H   0  0  0  0  0  0  0  0  0  0  0  0
   60.3234   29.7430   46.0551 H   0  0  0  0  0  0  0  0  0  0  0  0
   58.0520   29.5010   47.9640 H   0  0  0  0  0  0  0  0  0  0  0  0
   57.3285   29.5418   45.1512 H   0  0  0  0  0  0  0  0  0  0  0  0
   56.8669   29.8710   42.7622 H   0  0  0  0  0  0  0  0  0  0  0  0
   57.4358   32.0555   41.7348 H   0  0  0  0  0  0  0  0  0  0  0  0
   58.4414   33.8758   43.0363 H   0  0  0  0  0  0  0  0  0  0  0  0
   59.4595   35.7573   45.6270 H   0  0  0  0  0  0  0  0  0  0  0  0
   60.1324   34.7847   44.2750 H   0  0  0  0  0  0  0  0  0  0  0  0
   58.3952   35.2415   44.2750 H   0  0  0  0  0  0  0  0  0  0  0  0
   59.9028   35.5908   47.2263 H   0  0  0  0  0  0  0  0  0  0  0  0
   60.2105   35.0239   49.6189 H   0  0  0  0  0  0  0  0  0  0  0  0
   59.6935   33.0512   50.6311 H   0  0  0  0  0  0  0  0  0  0  0  0
   58.5740   31.4810   50.8880 H   0  0  0  0  0  0  0  0  0  0  0  0
   58.5123   29.0763   50.2973 H   0  0  0  0  0  0  0  0  0  0  0  0
   59.6888   29.4434   48.9741 H   0  0  0  0  0  0  0  0  0  0  0  0
   60.5116   30.6099   51.4326 H   0  0  0  0  0  0  0  0  0  0  0  0
   60.1696   28.7449   51.5102 H   0  0  0  0  0  0  0  0  0  0  0  0
   62.2079   28.5465   51.1934 H   0  0  0  0  0  0  0  0  0  0  0  0
   61.7112   28.9759   49.4526 H   0  0  0  0  0  0  0  0  0  0  0  0
   63.4712   29.7457   52.3479 H   0  0  0  0  0  0  0  0  0  0  0  0
   65.1986   31.4373   52.5904 H   0  0  0  0  0  0  0  0  0  0  0  0
   67.9022   32.9870   51.0662 H   0  0  0  0  0  0  0  0  0  0  0  0
   67.1520   32.1871   49.6435 H   0  0  0  0  0  0  0  0  0  0  0  0
   67.4066   33.9653   49.6435 H   0  0  0  0  0  0  0  0  0  0  0  0
   65.6349   34.2063   52.7495 H   0  0  0  0  0  0  0  0  0  0  0  0
   66.3427   35.2383   51.4608 H   0  0  0  0  0  0  0  0  0  0  0  0
   64.5820   34.8826   51.4608 H   0  0  0  0  0  0  0  0  0  0  0  0
   64.9099   33.9518   48.6820 H   0  0  0  0  0  0  0  0  0  0  0  0
   63.4654   33.9234   46.6250 H   0  0  0  0  0  0  0  0  0  0  0  0
   61.6948   32.1295   46.4576 H   0  0  0  0  0  0  0  0  0  0  0  0
   61.4203   30.4991   48.2688 H   0  0  0  0  0  0  0  0  0  0  0  0
  1  2  1  0
  2  3  1  0
  3  4  1  0
  4  5  1  0
  5  6  1  0
  6  7  1  0
  7  8  2  0
  8  9  1  0
  9 10  2  0
 10 11  1  0
 11 12  2  0
 12 13  1  0
 13 14  2  0
 14 15  1  0
 14 16  1  0
 16 17  2  0
 17 18  1  0
 18 19  2  0
 19 20  1  0
 20 21  1  0
 21 22  1  0
 22 23  1  0
 23 24  1  0
 24 25  1  0
 25 26  2  0
 26 27  1  0
 27 28  2  0
 28 29  1  0
 29 30  1  0
 29 31  1  0
 28 32  1  0
 32 33  2  0
 33 34  1  0
 34 35  2  0
 35 36  1  0
 36 37  2  0
 20 38  2  0
 38  7  1  0
 13  8  1  0
 38 16  1  0
 37 25  1  0
 37 32  1  0
  1 39  1  0
  1 40  1  0
  1 41  1  0
  2 42  1  0
  2 43  1  0
  3 44  1  0
  4 45  1  0
  4 46  1  0
  5 47  1  0
  5 48  1  0
  6 49  1  0
  9 50  1  0
 10 51  1  0
 11 52  1  0
 12 53  1  0
 15 54  1  0
 15 55  1  0
 15 56  1  0
 17 57  1  0
 18 58  1  0
 19 59  1  0
 21 60  1  0
 22 61  1  0
 22 62  1  0
 23 63  1  0
 23 64  1  0
 24 65  1  0
 24 66  1  0
 26 67  1  0
 27 68  1  0
 30 69  1  0
 30 70  1  0
 30 71  1  0
 31 72  1  0
 31 73  1  0
 31 74  1  0
 33 75  1  0
 34 76  1  0
 35 77  1  0
 36 78  1  0
M  CHG  2  14   1  25   1
M  END
>  <smiles>  (2) 
CCNCCNc1c2ccccc2[n+](C)c2cccc(NCCC[n+]3ccc(N(C)C)c4ccccc43)c12

>  <score_type>  (2) 
oracle

>  <origin>  (2) 
adg

>  <m_score__min__energy>  (2) 
-6

>  <m_primary>  (2) 
energy

$$$$
2:0
     RDKit          3D

 53 55  0  0  0  0  0  0  0  0999 V2000
   60.6390   28.8650   44.9300 C   0  0  0  0  0  0  0  0  0  0  0  0
   59.3430   28.2010   44.5020 C   0  0  0  0  0  0  0  0  0  0  0  0
   58.4490   27.9810   45.5530 O   0  0  0  0  0  0  0  0  0  0  0  0
   58.2700   28.8160   46.6550 C   0  0  0  0  0  0  0  0  0  0  0  0
   57.4250   29.7420   46.5430 O   0  0  0  0  0  0  0  0  0  0  0  0
   59.0360   28.6390   47.9180 C   0  0  0  0  0  0  0  0  0  0  0  0
   58.9220   29.8430   48.8220 C   0  0  0  0  0  0  0  0  0  0  0  0
   60.2290   30.5200   48.8610 C   0  0  0  0  0  0  0  0  0  0  0  0
   61.2610   30.0460   49.6890 C   0  0  0  0  0  0  0  0  0  0  0  0
   62.3600   30.8640   49.5960 C   0  0  0  0  0  0  0  0  0  0  0  0
   61.9740   31.8530   48.6850 C   0  0  0  0  0  0  0  0  0  0  0  0
   62.7460   32.9110   48.2630 C   0  0  0  0  0  0  0  0  0  0  0  0
   62.2250   33.8020   47.3590 C   0  0  0  0  0  0  0  0  0  0  0  0
   60.9170   33.5460   46.9360 C   0  0  0  0  0  0  0  0  0  0  0  0
   60.4260   34.4550   46.0100 C   0  0  0  0  0  0  0  0  0  0  0  0
   59.1530   34.2380   45.5480 C   0  0  0  0  0  0  0  0  0  0  0  0
   58.3940   33.1860   45.9670 C   0  0  0  0  0  0  0  0  0  0  0  0
   56.9800   32.9610   45.4250 C   0  0  0  0  0  0  0  0  0  0  0  0
   56.9380   31.6570   44.9490 N   0  0  0  0  0  0  0  0  0  0  0  0
   57.3810   31.2310   43.7110 C   0  0  0  0  0  0  0  0  0  0  0  0
   56.6450   30.2150   42.9190 C   0  0  0  0  0  0  0  0  0  0  0  0
   55.3740   29.7430   43.4980 C   0  0  0  0  0  0  0  0  0  0  0  0
   55.5780   29.2320   44.8810 N   0  0  0  0  0  0  0  0  0  0  0  0
   58.9200   32.2870   46.9050 C   0  0  0  0  0  0  0  0  0  0  0  0
   60.1900   32.4700   47.3930 C   0  0  0  0  0  0  0  0  0  0  0  0
   60.7180   31.6130   48.2780 N   0  0  0  0  0  0  0  0  0  0  0  0
   60.6918   28.8921   46.0284 H   0  0  0  0  0  0  0  0  0  0  0  0
   61.4918   28.2927   44.5359 H   0  0  0  0  0  0  0  0  0  0  0  0
   60.6727   29.8914   44.5359 H   0  0  0  0  0  0  0  0  0  0  0  0
   58.8521   28.8457   43.7581 H   0  0  0  0  0  0  0  0  0  0  0  0
   59.6076   27.2143   44.0942 H   0  0  0  0  0  0  0  0  0  0  0  0
   58.6465   27.7580   48.4491 H   0  0  0  0  0  0  0  0  0  0  0  0
   60.0967   28.5094   47.6568 H   0  0  0  0  0  0  0  0  0  0  0  0
   58.1587   30.5311   48.4298 H   0  0  0  0  0  0  0  0  0  0  0  0
   58.6285   29.5291   49.8346 H   0  0  0  0  0  0  0  0  0  0  0  0
   61.1974   29.1481   50.3212 H   0  0  0  0  0  0  0  0  0  0  0  0
   63.3231   30.7644   50.1181 H   0  0  0  0  0  0  0  0  0  0  0  0
   63.7690   33.0409   48.6460 H   0  0  0  0  0  0  0  0  0  0  0  0
   62.8003   34.6639   46.9900 H   0  0  0  0  0  0  0  0  0  0  0  0
   61.0281   35.3078   45.6634 H   0  0  0  0  0  0  0  0  0  0  0  0
   58.7292   34.9380   44.8129 H   0  0  0  0  0  0  0  0  0  0  0  0
   56.2403   33.0955   46.2280 H   0  0  0  0  0  0  0  0  0  0  0  0
   56.7425   33.6810   44.6280 H   0  0  0  0  0  0  0  0  0  0  0  0
   56.6580   30.9320   45.6390 H   0  0  0  0  0  0  0  0  0  0  0  0
   57.4406   32.1297   43.0794 H   0  0  0  0  0  0  0  0  0  0  0  0
   58.3070   30.6962   43.9688 H   0  0  0  0  0  0  0  0  0  0  0  0
   56.4249   30.6509   41.9333 H   0  0  0  0  0  0  0  0  0  0  0  0
   57.3013   29.3330   42.8836 H   0  0  0  0  0  0  0  0  0  0  0  0
   54.6582   30.5778   43.5244 H   0  0  0  0  0  0  0  0  0  0  0  0
   54.9862   28.9241   42.8743 H   0  0  0  0  0  0  0  0  0  0  0  0
   56.5690   28.8720   44.9490 H   0  0  0  0  0  0  0  0  0  0  0  0
   55.5570   30.0650   45.5120 H   0  0  0  0  0  0  0  0  0  0  0  0
   58.3154   31.4352   47.2499 H   0  0  0  0  0  0  0  0  0  0  0  0
  1  2  1  0
  2  3  1  0
  3  4  1  0
  4  5  2  0
  4  6  1  0
  6  7  1  0
  7  8  1  0
  8  9  2  0
  9 10  1  0
 10 11  2  0
 11 12  1  0
 12 13  2  0
 13 14  1  0
 14 15  2  0
 15 16  1  0
 16 17  2  0
 17 18  1  0
 18 19  1  0
 19 20  1  0
 20 21  1  0
 21 22  1  0
 22 23  1  0
 17 24  1  0
 24 25  2  0
 25 26  1  0
 26  8  1  0
 26 11  1  0
 25 14  1  0
  1 27  1  0
  1 28  1  0
  1 29  1  0
  2 30  1  0
  2 31  1  0
  6 32  1  0
  6 33  1  0
  7 34  1  0
  7 35  1  0
  9 36  1  0
 10 37  1  0
 12 38  1  0
 13 39  1  0
 15 40  1  0
 16 41  1  0
 18 42  1  0
 18 43  1  0
 19 44  1  0
 20 45  1  0
 20 46  1  0
 21 47  1  0
 21 48  1  0
 22 49  1  0
 22 50  1  0
 23 51  1  0
 23 52  1  0
 24 53  1  0
M  END
>  <smiles>  (3) 
CCOC(=O)CCc1ccc2ccc3ccc(CNCCCN)cc3n12

>  <score_type>  (3) 
oracle

>  <origin>  (3) 
adg

>  <m_score__min__energy>  (3) 
-7.04

>  <m_primary>  (3) 
energy

$$$$
3:0
     RDKit          3D

 46 48  0  0  1  0  0  0  0  0999 V2000
   50.9370   24.2850   43.4240 C   0  0  0  0  0  0  0  0  0  0  0  0
   51.3720   23.9870   44.8610 C   0  0  0  0  0  0  0  0  0  0  0  0
   52.5230   23.1980   44.8640 O   0  0  0  0  0  0  0  0  0  0  0  0
   53.4880   23.5970   45.7410 C   0  0  0  0  0  0  0  0  0  0  0  0
   54.5960   24.4340   45.2140 C   0  0  0  0  0  0  0  0  0  0  0  0
   54.9980   25.5040   45.9430 O   0  0  0  0  0  0  0  0  0  0  0  0
   56.2710   25.5260   46.3910 C   0  0  0  0  0  0  0  0  0  0  0  0
   57.0000   26.8250   46.0590 C   0  0  0  0  0  0  0  0  0  0  0  0
   56.1330   27.8290   45.5040 N   0  0  0  0  0  0  0  0  0  0  0  0
   56.7530   29.1400   45.3080 C   0  0  0  0  0  0  0  0  0  0  0  0
   57.4260   29.9400   45.7620 N   0  0  0  0  0  0  0  0  0  0  0  0
   57.8360   31.1040   45.3100 C   0  0  0  0  0  0  0  0  0  0  0  0
   58.6620   32.0750   45.8780 C   0  0  0  0  0  0  0  0  0  0  0  0
   59.1910   31.9560   47.0360 N   0  0  0  0  0  0  0  0  0  0  0  0
   60.5560   32.2280   47.3240 C   0  0  0  0  0  0  0  0  0  0  0  0
   60.8530   33.5130   47.7420 C   0  0  0  0  0  0  0  0  0  0  0  0
   62.1600   33.8510   48.0410 C   0  0  0  0  0  0  0  0  0  0  0  0
   63.1940   32.9280   47.9310 C   0  0  0  0  0  0  0  0  0  0  0  0
   64.4850   33.2660   48.2260 F   0  0  0  0  0  0  0  0  0  0  0  0
   62.8630   31.6400   47.5050 C   0  0  0  0  0  0  0  0  0  0  0  0
   61.5600   31.2920   47.2050 C   0  0  0  0  0  0  0  0  0  0  0  0
   58.9110   33.1790   45.1780 N   0  0  0  0  0  0  0  0  0  0  0  0
   58.4510   33.4780   43.9640 C   0  0  0  0  0  0  0  0  0  0  0  0
   57.6400   32.5420   43.3870 N   0  0  0  0  0  0  0  0  0  0  0  0
   57.3520   31.4010   44.0480 C   0  0  0  0  0  0  0  0  0  0  0  0
   56.3540   29.9850   43.6240 S   0  0  0  0  0  0  0  0  0  0  0  0
   50.0296   24.9066   43.4370 H   0  0  0  0  0  0  0  0  0  0  0  0
   51.7420   24.8222   42.9011 H   0  0  0  0  0  0  0  0  0  0  0  0
   50.7268   23.3403   42.9011 H   0  0  0  0  0  0  0  0  0  0  0  0
   51.5795   24.9337   45.3812 H   0  0  0  0  0  0  0  0  0  0  0  0
   50.5645   23.4445   45.3745 H   0  0  0  0  0  0  0  0  0  0  0  0
   52.9916   24.1720   46.5366 H   0  0  0  0  0  0  0  0  0  0  0  0
   53.9734   22.6642   46.0639 H   0  0  0  0  0  0  0  0  0  0  0  0
   55.4698   23.7772   45.0912 H   0  0  0  0  0  0  0  0  0  0  0  0
   54.1885   24.8728   44.2913 H   0  0  0  0  0  0  0  0  0  0  0  0
   56.2598   25.4002   47.4837 H   0  0  0  0  0  0  0  0  0  0  0  0
   56.8099   24.7096   45.8880 H   0  0  0  0  0  0  0  0  0  0  0  0
   57.4492   27.2208   46.9818 H   0  0  0  0  0  0  0  0  0  0  0  0
   57.7610   26.5909   45.3000 H   0  0  0  0  0  0  0  0  0  0  0  0
   55.1440   27.7030   45.2450 H   0  0  0  0  0  0  0  0  0  0  0  0
   60.0531   34.2622   47.8360 H   0  0  0  0  0  0  0  0  0  0  0  0
   62.3871   34.8745   48.3738 H   0  0  0  0  0  0  0  0  0  0  0  0
   63.6574   30.8856   47.4061 H   0  0  0  0  0  0  0  0  0  0  0  0
   61.3248   30.2703   46.8720 H   0  0  0  0  0  0  0  0  0  0  0  0
   58.7082   34.4200   43.4576 H   0  0  0  0  0  0  0  0  0  0  0  0
   57.2320   32.6850   42.4390 H   0  0  0  0  0  0  0  0  0  0  0  0
  1  2  1  0
  2  3  1  0
  3  4  1  0
  4  5  1  0
  5  6  1  0
  6  7  1  0
  7  8  1  0
  8  9  1  0
  9 10  1  0
 10 11  2  0
 11 12  1  0
 12 13  1  0
 13 14  2  0
 14 15  1  0
 15 16  2  0
 16 17  1  0
 17 18  2  0
 18 19  1  0
 18 20  1  0
 20 21  2  0
 13 22  1  0
 22 23  2  0
 23 24  1  0
 24 25  1  0
 25 26  1  0
 26 10  1  0
 25 12  2  0
 21 15  1  0
  1 27  1  0
  1 28  1  0
  1 29  1  0
  2 30  1  0
  2 31  1  0
  4 32  1  0
  4 33  1  0
  5 34  1  0
  5 35  1  0
  7 36  1  0
  7 37  1  0
  8 38  1  0
  8 39  1  0
  9 40  1  0
 16 41  1  0
 17 42  1  0
 20 43  1  0
 21 44  1  0
 23 45  1  0
 24 46  1  0
M  END
>  <smiles>  (4) 
CCOCCOCCNc1nc2c(=Nc3ccc(F)cc3)nc[nH]c2s1

>  <score_type>  (4) 
oracle

>  <origin>  (4) 
adg

>  <m_score__min__energy>  (4) 
-7.71

>  <m_primary>  (4) 
energy

$$$$
4:0
     RDKit          3D

 50 52  0  0  1  0  0  0  0  0999 V2000
   57.4010   33.6520   45.2990 C   0  0  0  0  0  0  0  0  0  0  0  0
   57.7280   32.2040   45.1670 C   0  0  0  0  0  0  0  0  0  0  0  0
   56.6650   31.3780   44.8690 O   0  0  0  0  0  0  0  0  0  0  0  0
   56.7710   30.6610   43.7060 C   0  0  0  0  0  0  0  0  0  0  0  0
   55.5050   29.7370   43.7020 C   0  0  0  0  0  0  0  0  0  0  0  0
   55.5390   29.0380   44.8470 O   0  0  0  0  0  0  0  0  0  0  0  0
   56.6710   28.5200   45.3210 C   0  0  0  0  0  0  0  0  0  0  0  0
   57.4080   27.4370   44.6220 C   0  0  1  0  0  0  0  0  0  0  0  0
   58.8510   27.8430   44.3480 C   0  0  0  0  0  0  0  0  0  0  0  0
   59.5580   28.2780   45.6000 C   0  0  0  0  0  0  0  0  0  0  0  0
   59.4910   27.2150   46.6640 C   0  0  0  0  0  0  0  0  0  0  0  0
   58.8690   25.9570   46.1200 C   0  0  0  0  0  0  0  0  0  0  0  0
   57.5760   26.2810   45.5720 N   0  0  0  0  0  0  0  0  0  0  0  0
   56.3950   25.5490   45.8810 C   0  0  0  0  0  0  0  0  0  0  0  0
   55.2610   26.0830   45.9950 O   0  0  0  0  0  0  0  0  0  0  0  0
   56.5290   24.1090   46.0730 C   0  0  0  0  0  0  0  0  0  0  0  0
   56.5060   23.6210   47.3580 C   0  0  0  0  0  0  0  0  0  0  0  0
   56.6340   22.2470   47.5220 C   0  0  0  0  0  0  0  0  0  0  0  0
   56.7790   21.3870   46.4490 C   0  0  0  0  0  0  0  0  0  0  0  0
   56.7980   21.9080   45.1680 C   0  0  0  0  0  0  0  0  0  0  0  0
   56.9220   21.3310   43.9620 N   0  0  0  0  0  0  0  0  0  0  0  0
   56.8820   22.2750   42.9870 C   0  0  0  0  0  0  0  0  0  0  0  0
   56.7250   23.5050   43.6070 C   0  0  0  0  0  0  0  0  0  0  0  0
   56.6740   23.2720   44.9700 C   0  0  0  0  0  0  0  0  0  0  0  0
   57.3408   33.9187   46.3645 H   0  0  0  0  0  0  0  0  0  0  0  0
   58.1865   34.2509   44.8150 H   0  0  0  0  0  0  0  0  0  0  0  0
   56.4343   33.8552   44.8150 H   0  0  0  0  0  0  0  0  0  0  0  0
   58.4744   32.0972   44.3661 H   0  0  0  0  0  0  0  0  0  0  0  0
   58.0885   31.8855   46.1562 H   0  0  0  0  0  0  0  0  0  0  0  0
   56.7668   31.3311   42.8337 H   0  0  0  0  0  0  0  0  0  0  0  0
   57.7086   30.0884   43.6500 H   0  0  0  0  0  0  0  0  0  0  0  0
   54.5902   30.3462   43.6558 H   0  0  0  0  0  0  0  0  0  0  0  0
   55.5034   29.0687   42.8283 H   0  0  0  0  0  0  0  0  0  0  0  0
   57.3761   29.3594   45.4123 H   0  0  0  0  0  0  0  0  0  0  0  0
   56.3205   28.0049   46.2275 H   0  0  0  0  0  0  0  0  0  0  0  0
   56.8477   27.2097   43.7031 H   0  0  0  0  0  0  0  0  0  0  0  0
   59.3865   26.9840   43.9174 H   0  0  0  0  0  0  0  0  0  0  0  0
   58.8392   28.6933   43.6502 H   0  0  0  0  0  0  0  0  0  0  0  0
   60.6127   28.4820   45.3634 H   0  0  0  0  0  0  0  0  0  0  0  0
   59.0625   29.1828   45.9818 H   0  0  0  0  0  0  0  0  0  0  0  0
   60.5089   26.9916   47.0160 H   0  0  0  0  0  0  0  0  0  0  0  0
   58.8726   27.5847   47.4952 H   0  0  0  0  0  0  0  0  0  0  0  0
   59.5109   25.5377   45.3312 H   0  0  0  0  0  0  0  0  0  0  0  0
   58.7601   25.2144   46.9242 H   0  0  0  0  0  0  0  0  0  0  0  0
   56.3908   24.2917   48.2223 H   0  0  0  0  0  0  0  0  0  0  0  0
   56.6195   21.8295   48.5396 H   0  0  0  0  0  0  0  0  0  0  0  0
   56.8779   20.3036   46.6120 H   0  0  0  0  0  0  0  0  0  0  0  0
   57.0320   20.3020   43.8420 H   0  0  0  0  0  0  0  0  0  0  0  0
   56.9598   22.0967   41.9043 H   0  0  0  0  0  0  0  0  0  0  0  0
   56.6542   24.4831   43.1087 H   0  0  0  0  0  0  0  0  0  0  0  0
  1  2  1  0
  2  3  1  0
  3  4  1  0
  4  5  1  0
  5  6  1  0
  6  7  1  0
  7  8  1  0
  8  9  1  0
  9 10  1  0
 10 11  1  0
 11 12  1  0
 12 13  1  0
 13 14  1  0
 14 15  2  0
 14 16  1  0
 16 17  2  0
 17 18  1  0
 18 19  2  0
 19 20  1  0
 20 21  1  0
 21 22  1  0
 22 23  2  0
 23 24  1  0
 13  8  1  0
 24 16  1  0
 24 20  2  0
  1 25  1  0
  1 26  1  0
  1 27  1  0
  2 28  1  0
  2 29  1  0
  4 30  1  0
  4 31  1  0
  5 32  1  0
  5 33  1  0
  7 34  1  0
  7 35  1  0
  8 36  1  6
  9 37  1  0
  9 38  1  0
 10 39  1  0
 10 40  1  0
 11 41  1  0
 11 42  1  0
 12 43  1  0
 12 44  1  0
 17 45  1  0
 18 46  1  0
 19 47  1  0
 21 48  1  0
 22 49  1  0
 23 50  1  0
M  END
>  <smiles>  (5) 
CCOCCOCC1CCCCN1C(=O)c1cccc2[nH]ccc12

>  <score_type>  (5) 
oracle

>  <origin>  (5) 
adg

>  <m_score__min__energy>  (5) 
-8.1099999999999994

>  <m_primary>  (5) 
energy

$$$$
5:0
     RDKit          3D

 50 52  0  0  0  0  0  0  0  0999 V2000
   56.2850   29.7390   43.2770 C   0  0  0  0  0  0  0  0  0  0  0  0
   56.1540   30.4700   44.4760 O   0  0  0  0  0  0  0  0  0  0  0  0
   57.0910   31.3480   44.9520 C   0  0  0  0  0  0  0  0  0  0  0  0
   57.0140   32.7040   44.8710 C   0  0  0  0  0  0  0  0  0  0  0  0
   58.0110   33.5250   45.3810 C   0  0  0  0  0  0  0  0  0  0  0  0
   59.1350   33.0160   45.9990 C   0  0  0  0  0  0  0  0  0  0  0  0
   59.2110   31.6340   46.0790 C   0  0  0  0  0  0  0  0  0  0  0  0
   58.2160   30.8090   45.5700 C   0  0  0  0  0  0  0  0  0  0  0  0
   60.2980   31.0260   46.6720 C   0  0  0  0  0  0  0  0  0  0  0  0
   60.3530   29.6090   46.7420 N   0  0  0  0  0  0  0  0  0  0  0  0
   60.0600   28.9330   48.0280 C   0  0  0  0  0  0  0  0  0  0  0  0
   60.0190   27.4780   47.7570 C   0  0  0  0  0  0  0  0  0  0  0  0
   59.7700   27.0080   46.3850 C   0  0  0  0  0  0  0  0  0  0  0  0
   58.8260   27.7760   45.6260 N   0  0  0  0  0  0  0  0  0  0  0  0
   57.5090   27.0570   45.6950 C   0  0  0  0  0  0  0  0  0  0  0  0
   59.1330   27.8170   44.1880 C   0  0  0  0  0  0  0  0  0  0  0  0
   61.2800   31.8560   47.1680 C   0  0  0  0  0  0  0  0  0  0  0  0
   62.3700   31.2370   47.7550 C   0  0  0  0  0  0  0  0  0  0  0  0
   63.4010   31.9930   48.2710 C   0  0  0  0  0  0  0  0  0  0  0  0
   63.3130   33.3610   48.1840 C   0  0  0  0  0  0  0  0  0  0  0  0
   62.2100   33.9700   47.5890 C   0  0  0  0  0  0  0  0  0  0  0  0
   61.1610   33.2270   47.0650 C   0  0  0  0  0  0  0  0  0  0  0  0
   60.0960   33.8300   46.4840 N   0  0  0  0  0  0  0  0  0  0  0  0
   59.9890   35.2700   46.4070 C   0  0  0  0  0  0  0  0  0  0  0  0
   56.4746   28.6811   43.5114 H   0  0  0  0  0  0  0  0  0  0  0  0
   55.3572   29.8244   42.6922 H   0  0  0  0  0  0  0  0  0  0  0  0
   57.1254   30.1413   42.6922 H   0  0  0  0  0  0  0  0  0  0  0  0
   56.1382   33.1623   44.3884 H   0  0  0  0  0  0  0  0  0  0  0  0
   57.9014   34.6157   45.2895 H   0  0  0  0  0  0  0  0  0  0  0  0
   58.3182   29.7172   45.6563 H   0  0  0  0  0  0  0  0  0  0  0  0
   60.5990   29.0670   45.8860 H   0  0  0  0  0  0  0  0  0  0  0  0
   60.8490   29.1580   48.7607 H   0  0  0  0  0  0  0  0  0  0  0  0
   59.1025   29.2805   48.4431 H   0  0  0  0  0  0  0  0  0  0  0  0
   60.9913   27.0665   48.0657 H   0  0  0  0  0  0  0  0  0  0  0  0
   59.1356   27.1338   48.3147 H   0  0  0  0  0  0  0  0  0  0  0  0
   60.7280   27.0203   45.8445 H   0  0  0  0  0  0  0  0  0  0  0  0
   59.3281   26.0059   46.4870 H   0  0  0  0  0  0  0  0  0  0  0  0
   57.2293   26.9043   46.7478 H   0  0  0  0  0  0  0  0  0  0  0  0
   56.7362   27.6584   45.1938 H   0  0  0  0  0  0  0  0  0  0  0  0
   57.5970   26.0818   45.1938 H   0  0  0  0  0  0  0  0  0  0  0  0
   60.2144   27.9614   44.0479 H   0  0  0  0  0  0  0  0  0  0  0  0
   58.8260   26.8699   43.7204 H   0  0  0  0  0  0  0  0  0  0  0  0
   58.5882   28.6504   43.7204 H   0  0  0  0  0  0  0  0  0  0  0  0
   62.4137   30.1392   47.8099 H   0  0  0  0  0  0  0  0  0  0  0  0
   64.2721   31.5128   48.7405 H   0  0  0  0  0  0  0  0  0  0  0  0
   64.1239   33.9839   48.5894 H   0  0  0  0  0  0  0  0  0  0  0  0
   62.1694   35.0678   47.5331 H   0  0  0  0  0  0  0  0  0  0  0  0
   59.9578   35.6902   47.4231 H   0  0  0  0  0  0  0  0  0  0  0  0
   60.8596   35.6742   45.8697 H   0  0  0  0  0  0  0  0  0  0  0  0
   59.0682   35.5411   45.8697 H   0  0  0  0  0  0  0  0  0  0  0  0
  1  2  1  0
  2  3  1  0
  3  4  2  0
  4  5  1  0
  5  6  2  0
  6  7  1  0
  7  8  2  0
  7  9  1  0
  9 10  1  0
 10 11  1  0
 11 12  1  0
 12 13  1  0
 13 14  1  0
 14 15  1  0
 14 16  1  0
  9 17  2  0
 17 18  1  0
 18 19  2  0
 19 20  1  0
 20 21  2  0
 21 22  1  0
 22 23  2  0
 23 24  1  0
  8  3  1  0
 22 17  1  0
 23  6  1  0
  1 25  1  0
  1 26  1  0
  1 27  1  0
  4 28  1  0
  5 29  1  0
  8 30  1  0
 10 31  1  0
 11 32  1  0
 11 33  1  0
 12 34  1  0
 12 35  1  0
 13 36  1  0
 13 37  1  0
 15 38  1  0
 15 39  1  0
 15 40  1  0
 16 41  1  0
 16 42  1  0
 16 43  1  0
 18 44  1  0
 19 45  1  0
 20 46  1  0
 21 47  1  0
 24 48  1  0
 24 49  1  0
 24 50  1  0
M  CHG  1  23   1
M  END
>  <smiles>  (6) 
COc1ccc2c(c1)c(NCCCN(C)C)c1ccccc1[n+]2C

>  <score_type>  (6) 
oracle

>  <origin>  (6) 
adg

>  <m_score__min__energy>  (6) 
-5.5099999999999998

>  <m_primary>  (6) 
energy

$$$$
6:0
     RDKit          3D

 75 74  0  0  1  0  0  0  0  0999 V2000
   64.2620   31.8040   50.6040 C   0  0  0  0  0  0  0  0  0  0  0  0
   62.8170   31.5800   50.2250 C   0  0  0  0  0  0  0  0  0  0  0  0
   62.5340   31.9960   48.8850 N   0  0  0  0  0  0  0  0  0  0  0  0
   63.6470   31.9190   48.0000 C   0  0  0  0  0  0  0  0  0  0  0  0
   63.7320   33.0670   47.0630 C   0  0  0  0  0  0  0  0  0  0  0  0
   62.4610   33.7190   46.6660 C   0  0  0  0  0  0  0  0  0  0  0  0
   61.3460   33.5720   47.4910 N   0  0  0  0  0  0  0  0  0  0  0  0
   60.7710   34.6490   48.1760 C   0  0  0  0  0  0  0  0  0  0  0  0
   60.0410   34.2050   49.4500 C   0  0  0  0  0  0  0  0  0  0  0  0
   59.9360   32.7450   49.4680 N   0  0  0  0  0  0  0  0  0  0  0  0
   58.5260   32.4470   49.5020 C   0  0  0  0  0  0  0  0  0  0  0  0
   57.8210   32.6520   48.2080 C   0  0  0  0  0  0  0  0  0  0  0  0
   58.6270   32.4990   47.0300 N   0  0  0  0  0  0  0  0  0  0  0  0
   58.7320   33.6490   46.1890 C   0  0  0  0  0  0  0  0  0  0  0  0
   58.8050   33.2020   44.7390 C   0  0  0  0  0  0  0  0  0  0  0  0
   57.4350   32.8100   44.2520 C   0  0  0  0  0  0  0  0  0  0  0  0
   56.9770   31.6220   44.8320 N   0  0  0  0  0  0  0  0  0  0  0  0
   56.5390   30.6140   43.9810 C   0  0  0  0  0  0  0  0  0  0  0  0
   56.3000   29.3230   44.7640 C   0  0  0  0  0  0  0  0  0  0  0  0
   57.3240   29.2400   45.8600 C   0  0  0  0  0  0  0  0  0  0  0  0
   58.6100   29.7430   45.4490 N   0  0  0  0  0  0  0  0  0  0  0  0
   59.5960   28.7130   45.5820 C   0  0  0  0  0  0  0  0  0  0  0  0
   60.9930   29.2090   45.2700 C   0  0  0  0  0  0  0  0  0  0  0  0
   61.5020   30.1110   46.3320 C   0  0  0  0  0  0  0  0  0  0  0  0
   60.7910   30.9100   47.0200 N   0  0  0  0  0  0  0  0  0  0  0  0
   60.0040   30.4320   48.0170 O   0  0  0  0  0  0  0  0  0  0  0  0
   60.5130   29.5950   49.0390 C   0  0  0  0  0  0  0  0  0  0  0  0
   59.3960   29.3660   50.0470 C   0  0  0  0  0  0  0  0  0  0  0  0
   64.3556   31.8185   51.6999 H   0  0  0  0  0  0  0  0  0  0  0  0
   64.8789   30.9908   50.1940 H   0  0  0  0  0  0  0  0  0  0  0  0
   64.6037   32.7658   50.1940 H   0  0  0  0  0  0  0  0  0  0  0  0
   62.5896   30.5078   50.3176 H   0  0  0  0  0  0  0  0  0  0  0  0
   62.1950   32.1837   50.9022 H   0  0  0  0  0  0  0  0  0  0  0  0
   61.6210   31.7000   48.5480 H   0  0  0  0  0  0  0  0  0  0  0  0
   64.5686   31.8888   48.5998 H   0  0  0  0  0  0  0  0  0  0  0  0
   63.5182   31.0111   47.3924 H   0  0  0  0  0  0  0  0  0  0  0  0
   64.3622   33.8339   47.5370 H   0  0  0  0  0  0  0  0  0  0  0  0
   64.1326   32.6408   46.1314 H   0  0  0  0  0  0  0  0  0  0  0  0
   62.6624   34.7972   46.5832 H   0  0  0  0  0  0  0  0  0  0  0  0
   62.1755   33.2035   45.7371 H   0  0  0  0  0  0  0  0  0  0  0  0
   60.7640   32.7240   47.4140 H   0  0  0  0  0  0  0  0  0  0  0  0
   61.5658   35.3575   48.4523 H   0  0  0  0  0  0  0  0  0  0  0  0
   60.0310   35.1157   47.5092 H   0  0  0  0  0  0  0  0  0  0  0  0
   60.6044   34.5431   50.3322 H   0  0  0  0  0  0  0  0  0  0  0  0
   59.0332   34.6455   49.4678 H   0  0  0  0  0  0  0  0  0  0  0  0
   60.3000   32.4230   48.5350 H   0  0  0  0  0  0  0  0  0  0  0  0
   58.4043   31.3942   49.7966 H   0  0  0  0  0  0  0  0  0  0  0  0
   58.0750   33.1490   50.2188 H   0  0  0  0  0  0  0  0  0  0  0  0
   56.9985   31.9237   48.1519 H   0  0  0  0  0  0  0  0  0  0  0  0
   57.4883   33.7005   48.2101 H   0  0  0  0  0  0  0  0  0  0  0  0
   59.6050   32.2830   47.3820 H   0  0  0  0  0  0  0  0  0  0  0  0
   57.8505   34.2913   46.3321 H   0  0  0  0  0  0  0  0  0  0  0  0
   59.6393   34.2146   46.4477 H   0  0  0  0  0  0  0  0  0  0  0  0
   59.1886   34.0279   44.1219 H   0  0  0  0  0  0  0  0  0  0  0  0
   59.4778   32.3352   44.6615 H   0  0  0  0  0  0  0  0  0  0  0  0
   56.7293   33.6171   44.4983 H   0  0  0  0  0  0  0  0  0  0  0  0
   57.5017   32.6464   43.1663 H   0  0  0  0  0  0  0  0  0  0  0  0
   57.3040   31.4250   45.7480 H   0  0  0  0  0  0  0  0  0  0  0  0
   55.5995   30.9267   43.5019 H   0  0  0  0  0  0  0  0  0  0  0  0
   57.3096   30.4312   43.2176 H   0  0  0  0  0  0  0  0  0  0  0  0
   55.2897   29.3333   45.1989 H   0  0  0  0  0  0  0  0  0  0  0  0
   56.3877   28.4530   44.0966 H   0  0  0  0  0  0  0  0  0  0  0  0
   56.9715   29.8307   46.7184 H   0  0  0  0  0  0  0  0  0  0  0  0
   57.4474   28.1794   46.1242 H   0  0  0  0  0  0  0  0  0  0  0  0
   58.8660   30.4890   46.1620 H   0  0  0  0  0  0  0  0  0  0  0  0
   59.5770   28.3368   46.6155 H   0  0  0  0  0  0  0  0  0  0  0  0
   59.3523   27.9194   44.8604 H   0  0  0  0  0  0  0  0  0  0  0  0
   61.6675   28.3445   45.1823 H   0  0  0  0  0  0  0  0  0  0  0  0
   60.9548   29.7746   44.3273 H   0  0  0  0  0  0  0  0  0  0  0  0
   62.5816   30.0868   46.5413 H   0  0  0  0  0  0  0  0  0  0  0  0
   60.8346   28.6340   48.6111 H   0  0  0  0  0  0  0  0  0  0  0  0
   61.3811   30.0640   49.5251 H   0  0  0  0  0  0  0  0  0  0  0  0
   59.7998   29.4488   51.0669 H   0  0  0  0  0  0  0  0  0  0  0  0
   58.6101   30.1217   49.9014 H   0  0  0  0  0  0  0  0  0  0  0  0
   58.9708   28.3620   49.9014 H   0  0  0  0  0  0  0  0  0  0  0  0
  1  2  1  0
  2  3  1  0
  3  4  1  0
  4  5  1  0
  5  6  1  0
  6  7  1  0
  7  8  1  0
  8  9  1  0
  9 10  1  0
 10 11  1  0
 11 12  1  0
 12 13  1  0
 13 14  1  0
 14 15  1  0
 15 16  1  0
 16 17  1  0
 17 18  1  0
 18 19  1  0
 19 20  1  0
 20 21  1  0
 21 22  1  0
 22 23  1  0
 23 24  1  0
 24 25  2  0
 25 26  1  0
 26 27  1  0
 27 28  1  0
  1 29  1  0
  1 30  1  0
  1 31  1  0
  2 32  1  0
  2 33  1  0
  3 34  1  0
  4 35  1  0
  4 36  1  0
  5 37  1  0
  5 38  1  0
  6 39  1  0
  6 40  1  0
  7 41  1  0
  8 42  1  0
  8 43  1  0
  9 44  1  0
  9 45  1  0
 10 46  1  0
 11 47  1  0
 11 48  1  0
 12 49  1  0
 12 50  1  0
 13 51  1  0
 14 52  1  0
 14 53  1  0
 15 54  1  0
 15 55  1  0
 16 56  1  0
 16 57  1  0
 17 58  1  0
 18 59  1  0
 18 60  1  0
 19 61  1  0
 19 62  1  0
 20 63  1  0
 20 64  1  0
 21 65  1  0
 22 66  1  0
 22 67  1  0
 23 68  1  0
 23 69  1  0
 24 70  1  0
 27 71  1  0
 27 72  1  0
 28 73  1  0
 28 74  1  0
 28 75  1  0
M  END
>  <smiles>  (7) 
CCNCCCNCCNCCNCCCNCCCNCCC=NOCC

>  <score_type>  (7) 
oracle

>  <origin>  (7) 
adg

>  <m_score__min__energy>  (7) 
-3.25

>  <m_primary>  (7) 
energy

$$$$
7:0
     RDKit          3D

 42 45  0  0  0  0  0  0  0  0999 V2000
   59.6450   34.9410   46.0170 C   0  0  0  0  0  0  0  0  0  0  0  0
   59.8510   33.5450   46.2950 N   0  0  0  0  0  0  0  0  0  0  0  0
   58.9600   32.5230   46.0780 C   0  0  0  0  0  0  0  0  0  0  0  0
   57.3500   32.7660   45.3810 S   0  0  0  0  0  0  0  0  0  0  0  0
   57.1110   31.7210   43.9450 C   0  0  0  0  0  0  0  0  0  0  0  0
   56.7680   30.3350   44.4260 C   0  0  0  0  0  0  0  0  0  0  0  0
   55.6140   29.8680   44.3750 O   0  0  0  0  0  0  0  0  0  0  0  0
   57.8290   29.5650   44.9470 N   0  0  0  0  0  0  0  0  0  0  0  0
   57.7840   28.2540   45.4270 C   0  0  0  0  0  0  0  0  0  0  0  0
   58.9970   27.5840   45.6350 C   0  0  0  0  0  0  0  0  0  0  0  0
   59.0570   26.2810   46.0620 C   0  0  0  0  0  0  0  0  0  0  0  0
   57.9210   25.5670   46.3110 C   0  0  0  0  0  0  0  0  0  0  0  0
   56.7010   26.1880   46.1190 C   0  0  0  0  0  0  0  0  0  0  0  0
   56.6550   27.5160   45.6830 C   0  0  0  0  0  0  0  0  0  0  0  0
   55.5700   25.4490   46.3690 O   0  0  0  0  0  0  0  0  0  0  0  0
   55.5320   24.0590   46.2610 C   0  0  0  0  0  0  0  0  0  0  0  0
   56.8820   23.3850   46.2430 C   0  0  0  0  0  0  0  0  0  0  0  0
   57.8960   24.2460   46.7440 O   0  0  0  0  0  0  0  0  0  0  0  0
   59.5660   31.3930   46.4830 N   0  0  0  0  0  0  0  0  0  0  0  0
   60.7690   31.7000   46.9240 N   0  0  0  0  0  0  0  0  0  0  0  0
   60.9860   33.0490   46.8210 C   0  0  0  0  0  0  0  0  0  0  0  0
   62.2430   33.7050   47.2120 C   0  0  0  0  0  0  0  0  0  0  0  0
   63.4490   32.8850   47.5590 C   0  0  0  0  0  0  0  0  0  0  0  0
   63.4150   33.8570   46.3810 C   0  0  0  0  0  0  0  0  0  0  0  0
   59.5632   35.4952   46.9637 H   0  0  0  0  0  0  0  0  0  0  0  0
   60.4956   35.3289   45.4374 H   0  0  0  0  0  0  0  0  0  0  0  0
   58.7186   35.0666   45.4374 H   0  0  0  0  0  0  0  0  0  0  0  0
   56.2894   32.1158   43.3292 H   0  0  0  0  0  0  0  0  0  0  0  0
   58.0260   31.6969   43.3349 H   0  0  0  0  0  0  0  0  0  0  0  0
   58.7800   30.0480   44.9680 H   0  0  0  0  0  0  0  0  0  0  0  0
   59.9375   28.1232   45.4489 H   0  0  0  0  0  0  0  0  0  0  0  0
   60.0377   25.8040   46.2060 H   0  0  0  0  0  0  0  0  0  0  0  0
   55.6725   27.9893   45.5391 H   0  0  0  0  0  0  0  0  0  0  0  0
   54.9651   23.6653   47.1175 H   0  0  0  0  0  0  0  0  0  0  0  0
   55.0644   23.8381   45.2901 H   0  0  0  0  0  0  0  0  0  0  0  0
   56.8392   22.4805   46.8675 H   0  0  0  0  0  0  0  0  0  0  0  0
   57.1279   23.1281   45.2021 H   0  0  0  0  0  0  0  0  0  0  0  0
   61.6081   34.4456   47.7205 H   0  0  0  0  0  0  0  0  0  0  0  0
   64.0417   33.1162   48.4564 H   0  0  0  0  0  0  0  0  0  0  0  0
   63.6697   31.8169   47.7022 H   0  0  0  0  0  0  0  0  0  0  0  0
   63.9990   34.7883   46.4212 H   0  0  0  0  0  0  0  0  0  0  0  0
   63.6162   33.7750   45.3027 H   0  0  0  0  0  0  0  0  0  0  0  0
  1  2  1  0
  2  3  1  0
  3  4  1  0
  4  5  1  0
  5  6  1  0
  6  7  2  0
  6  8  1  0
  8  9  1  0
  9 10  2  0
 10 11  1  0
 11 12  2  0
 12 13  1  0
 13 14  2  0
 13 15  1  0
 15 16  1  0
 16 17  1  0
 17 18  1  0
  3 19  2  0
 19 20  1  0
 20 21  2  0
 21 22  1  0
 22 23  1  0
 23 24  1  0
 21  2  1  0
 24 22  1  0
 14  9  1  0
 18 12  1  0
  1 25  1  0
  1 26  1  0
  1 27  1  0
  5 28  1  0
  5 29  1  0
  8 30  1  0
 10 31  1  0
 11 32  1  0
 14 33  1  0
 16 34  1  0
 16 35  1  0
 17 36  1  0
 17 37  1  0
 22 38  1  0
 23 39  1  0
 23 40  1  0
 24 41  1  0
 24 42  1  0
M  END
>  <smiles>  (8) 
Cn1c(SCC(=O)Nc2ccc3c(c2)OCCO3)nnc1C1CC1

>  <score_type>  (8) 
oracle

>  <origin>  (8) 
adg

>  <m_score__min__energy>  (8) 
-8.3599999999999994

>  <m_primary>  (8) 
energy

$$$$
9:0
     RDKit          3D

 86 90  0  0  0  0  0  0  0  0999 V2000
   58.3780   32.3220   50.5060 C   0  0  0  0  0  0  0  0  0  0  0  0
   57.4320   31.4730   51.3290 C   0  0  0  0  0  0  0  0  0  0  0  0
   57.7360   30.0790   51.0950 N   0  0  0  0  0  0  0  0  0  0  0  0
   59.1640   29.9010   51.2650 C   0  0  0  0  0  0  0  0  0  0  0  0
   59.8670   29.5440   49.9650 C   0  0  0  0  0  0  0  0  0  0  0  0
   58.8850   29.3900   48.9970 O   0  0  0  0  0  0  0  0  0  0  0  0
   59.0750   28.3080   48.1860 C   0  0  0  0  0  0  0  0  0  0  0  0
   60.3170   28.2780   47.3750 C   0  0  0  0  0  0  0  0  0  0  0  0
   60.6160   29.3630   46.5140 N   0  0  0  0  0  0  0  0  0  0  0  0
   59.7860   30.4710   46.2350 C   0  0  0  0  0  0  0  0  0  0  0  0
   58.6690   30.4560   45.4430 C   0  0  0  0  0  0  0  0  0  0  0  0
   58.3030   29.3210   44.7700 C   0  0  0  0  0  0  0  0  0  0  0  0
   57.2080   29.2240   43.9450 C   0  0  0  0  0  0  0  0  0  0  0  0
   56.3990   30.3350   43.7610 C   0  0  0  0  0  0  0  0  0  0  0  0
   56.7420   31.5050   44.4280 C   0  0  0  0  0  0  0  0  0  0  0  0
   57.8550   31.5740   45.2560 C   0  0  0  0  0  0  0  0  0  0  0  0
   58.1410   32.7230   45.8500 N   0  0  0  0  0  0  0  0  0  0  0  0
   57.2730   33.8680   45.6340 C   0  0  0  0  0  0  0  0  0  0  0  0
   59.2300   32.7920   46.6370 C   0  0  0  0  0  0  0  0  0  0  0  0
   59.6870   33.8640   47.3130 N   0  0  0  0  0  0  0  0  0  0  0  0
   60.8030   33.4930   47.9610 C   0  0  0  0  0  0  0  0  0  0  0  0
   61.6290   34.2300   48.7730 C   0  0  0  0  0  0  0  0  0  0  0  0
   62.7300   33.5870   49.3130 C   0  0  0  0  0  0  0  0  0  0  0  0
   63.0360   32.2740   49.0830 C   0  0  0  0  0  0  0  0  0  0  0  0
   64.0950   31.5740   49.5710 O   0  0  0  0  0  0  0  0  0  0  0  0
   65.2500   31.9710   50.2270 C   0  0  0  0  0  0  0  0  0  0  0  0
   65.2760   31.7820   51.7100 C   0  0  0  0  0  0  0  0  0  0  0  0
   65.8380   30.5230   52.1450 N   0  0  0  0  0  0  0  0  0  0  0  0
   65.8380   30.4060   53.5930 C   0  0  0  0  0  0  0  0  0  0  0  0
   67.2190   30.4540   51.7270 C   0  0  0  0  0  0  0  0  0  0  0  0
   67.4810   29.2300   50.8520 C   0  0  0  0  0  0  0  0  0  0  0  0
   67.1730   28.0040   51.5340 N   0  0  0  0  0  0  0  0  0  0  0  0
   67.1550   26.9390   50.5300 C   0  0  0  0  0  0  0  0  0  0  0  0
   68.2320   27.6660   52.4720 C   0  0  0  0  0  0  0  0  0  0  0  0
   65.8820   28.1430   52.1600 C   0  0  0  0  0  0  0  0  0  0  0  0
   65.1390   29.3620   51.6470 C   0  0  0  0  0  0  0  0  0  0  0  0
   62.1540   31.5770   48.2450 C   0  0  0  0  0  0  0  0  0  0  0  0
   61.0490   32.1650   47.6860 C   0  0  0  0  0  0  0  0  0  0  0  0
   60.0680   31.7010   46.8520 C   0  0  0  0  0  0  0  0  0  0  0  0
   59.0265   32.9040   51.1773 H   0  0  0  0  0  0  0  0  0  0  0  0
   58.9972   31.6709   49.8714 H   0  0  0  0  0  0  0  0  0  0  0  0
   57.7974   33.0078   49.8714 H   0  0  0  0  0  0  0  0  0  0  0  0
   57.5599   31.7054   52.3965 H   0  0  0  0  0  0  0  0  0  0  0  0
   56.3919   31.6831   51.0391 H   0  0  0  0  0  0  0  0  0  0  0  0
   57.4010   29.7040   50.2020 H   0  0  0  0  0  0  0  0  0  0  0  0
   59.5923   30.8375   51.6516 H   0  0  0  0  0  0  0  0  0  0  0  0
   59.3149   29.0666   51.9657 H   0  0  0  0  0  0  0  0  0  0  0  0
   60.5578   30.3499   49.6763 H   0  0  0  0  0  0  0  0  0  0  0  0
   60.4522   28.6195   50.0784 H   0  0  0  0  0  0  0  0  0  0  0  0
   59.0749   27.4121   48.8242 H   0  0  0  0  0  0  0  0  0  0  0  0
   58.2579   28.3575   47.4513 H   0  0  0  0  0  0  0  0  0  0  0  0
   61.1568   28.1883   48.0797 H   0  0  0  0  0  0  0  0  0  0  0  0
   60.1532   27.4381   46.6838 H   0  0  0  0  0  0  0  0  0  0  0  0
   61.5590   29.3710   46.0100 H   0  0  0  0  0  0  0  0  0  0  0  0
   58.9284   28.4252   44.8985 H   0  0  0  0  0  0  0  0  0  0  0  0
   56.9762   28.2764   43.4368 H   0  0  0  0  0  0  0  0  0  0  0  0
   55.5146   30.2917   43.1084 H   0  0  0  0  0  0  0  0  0  0  0  0
   56.1157   32.3997   44.2968 H   0  0  0  0  0  0  0  0  0  0  0  0
   56.9608   34.2798   46.6051 H   0  0  0  0  0  0  0  0  0  0  0  0
   57.8163   34.6381   45.0667 H   0  0  0  0  0  0  0  0  0  0  0  0
   56.3848   33.5529   45.0667 H   0  0  0  0  0  0  0  0  0  0  0  0
   59.2570   34.8220   47.3380 H   0  0  0  0  0  0  0  0  0  0  0  0
   61.4242   35.2895   48.9862 H   0  0  0  0  0  0  0  0  0  0  0  0
   63.3986   34.1670   49.9661 H   0  0  0  0  0  0  0  0  0  0  0  0
   66.0882   31.3987   49.8029 H   0  0  0  0  0  0  0  0  0  0  0  0
   65.3126   33.0582   50.0720 H   0  0  0  0  0  0  0  0  0  0  0  0
   65.8731   32.5947   52.1493 H   0  0  0  0  0  0  0  0  0  0  0  0
   64.2280   31.7885   52.0442 H   0  0  0  0  0  0  0  0  0  0  0  0
   66.8751   30.3765   53.9585 H   0  0  0  0  0  0  0  0  0  0  0  0
   65.3195   31.2717   54.0308 H   0  0  0  0  0  0  0  0  0  0  0  0
   65.3195   29.4812   53.8861 H   0  0  0  0  0  0  0  0  0  0  0  0
   67.4646   31.3609   51.1550 H   0  0  0  0  0  0  0  0  0  0  0  0
   67.8472   30.3748   52.6265 H   0  0  0  0  0  0  0  0  0  0  0  0
   66.8577   29.2997   49.9483 H   0  0  0  0  0  0  0  0  0  0  0  0
   68.5512   29.2173   50.5979 H   0  0  0  0  0  0  0  0  0  0  0  0
   67.1385   25.9610   51.0332 H   0  0  0  0  0  0  0  0  0  0  0  0
   66.2585   27.0430   49.9012 H   0  0  0  0  0  0  0  0  0  0  0  0
   68.0545   27.0127   49.9012 H   0  0  0  0  0  0  0  0  0  0  0  0
   67.8618   27.7842   53.5011 H   0  0  0  0  0  0  0  0  0  0  0  0
   68.5445   26.6235   52.3122 H   0  0  0  0  0  0  0  0  0  0  0  0
   69.0906   28.3347   52.3122 H   0  0  0  0  0  0  0  0  0  0  0  0
   65.2837   27.2448   51.9469 H   0  0  0  0  0  0  0  0  0  0  0  0
   66.0366   28.2655   53.2422 H   0  0  0  0  0  0  0  0  0  0  0  0
   65.1348   29.3666   50.5470 H   0  0  0  0  0  0  0  0  0  0  0  0
   64.0934   29.3569   51.9885 H   0  0  0  0  0  0  0  0  0  0  0  0
   62.3565   30.5178   48.0278 H   0  0  0  0  0  0  0  0  0  0  0  0
  1  2  1  0
  2  3  1  0
  3  4  1  0
  4  5  1  0
  5  6  1  0
  6  7  1  0
  7  8  1  0
  8  9  1  0
  9 10  1  0
 10 11  2  0
 11 12  1  0
 12 13  2  0
 13 14  1  0
 14 15  2  0
 15 16  1  0
 16 17  2  0
 17 18  1  0
 17 19  1  0
 19 20  1  0
 20 21  1  0
 21 22  2  0
 22 23  1  0
 23 24  2  0
 24 25  1  0
 25 26  1  0
 26 27  1  0
 27 28  1  0
 28 29  1  0
 28 30  1  0
 30 31  1  0
 31 32  1  0
 32 33  1  0
 32 34  1  0
 32 35  1  0
 35 36  1  0
 24 37  1  0
 37 38  2  0
 38 39  1  0
 39 10  1  0
 16 11  1  0
 39 19  2  0
 38 21  1  0
 36 28  1  0
  1 40  1  0
  1 41  1  0
  1 42  1  0
  2 43  1  0
  2 44  1  0
  3 45  1  0
  4 46  1  0
  4 47  1  0
  5 48  1  0
  5 49  1  0
  7 50  1  0
  7 51  1  0
  8 52  1  0
  8 53  1  0
  9 54  1  0
 12 55  1  0
 13 56  1  0
 14 57  1  0
 15 58  1  0
 18 59  1  0
 18 60  1  0
 18 61  1  0
 20 62  1  0
 22 63  1  0
 23 64  1  0
 26 65  1  0
 26 66  1  0
 27 67  1  0
 27 68  1  0
 29 69  1  0
 29 70  1  0
 29 71  1  0
 30 72  1  0
 30 73  1  0
 31 74  1  0
 31 75  1  0
 33 76  1  0
 33 77  1  0
 33 78  1  0
 34 79  1  0
 34 80  1  0
 34 81  1  0
 35 82  1  0
 35 83  1  0
 36 84  1  0
 36 85  1  0
 37 86  1  0
M  CHG  3  17   1  28   1  32   1
M  END
>  <smiles>  (9) 
CCNCCOCCNc1c2ccccc2[n+](C)c2[nH]c3ccc(OCC[N+]4(C)CC[N+](C)(C)CC4)cc3c12

>  <score_type>  (9) 
oracle

>  <origin>  (9) 
adg

>  <m_score__min__energy>  (9) 
-4.96

>  <m_primary>  (9) 
energy

$$$$
10:0
     RDKit          3D

 45 47  0  0  1  0  0  0  0  0999 V2000
   64.0940   32.7710   49.7360 C   0  0  0  0  0  0  0  0  0  0  0  0
   62.6190   32.9680   49.6530 C   0  0  0  0  0  0  0  0  0  0  0  0
   62.1250   33.0410   48.2900 N   0  0  0  0  0  0  0  0  0  0  0  0
   63.0240   32.6670   47.2340 C   0  0  0  0  0  0  0  0  0  0  0  0
   63.3900   33.8360   46.3460 C   0  0  0  0  0  0  0  0  0  0  0  0
   60.7910   33.4880   48.0910 C   0  0  0  0  0  0  0  0  0  0  0  0
   60.1550   33.8020   49.1540 O   0  0  0  0  0  0  0  0  0  0  0  0
   60.1080   33.6190   46.8240 C   0  0  2  0  0  0  0  0  0  0  0  0
   59.2320   34.8220   46.7260 C   0  0  0  0  0  0  0  0  0  0  0  0
   58.5760   34.9660   45.3750 C   0  0  0  0  0  0  0  0  0  0  0  0
   58.9780   33.8450   44.4080 C   0  0  0  0  0  0  0  0  0  0  0  0
   58.7260   32.5760   45.1140 C   0  0  0  0  0  0  0  0  0  0  0  0
   59.3120   32.4500   46.3830 C   0  0  0  0  0  0  0  0  0  0  0  0
   58.9590   31.2540   46.8440 N   0  0  0  0  0  0  0  0  0  0  0  0
   59.3200   30.6970   48.1160 C   0  0  0  0  0  0  0  0  0  0  0  0
   58.1800   30.5940   45.9490 C   0  0  0  0  0  0  0  0  0  0  0  0
   57.5620   29.3710   45.9150 C   0  0  0  0  0  0  0  0  0  0  0  0
   56.8000   28.9370   44.8370 C   0  0  0  0  0  0  0  0  0  0  0  0
   56.6720   29.8010   43.7530 C   0  0  0  0  0  0  0  0  0  0  0  0
   55.9320   29.4080   42.6780 F   0  0  0  0  0  0  0  0  0  0  0  0
   57.2810   31.0510   43.7450 C   0  0  0  0  0  0  0  0  0  0  0  0
   58.0250   31.4180   44.8530 C   0  0  0  0  0  0  0  0  0  0  0  0
   64.3996   32.7302   50.7919 H   0  0  0  0  0  0  0  0  0  0  0  0
   64.3666   31.8285   49.2387 H   0  0  0  0  0  0  0  0  0  0  0  0
   64.6044   33.6090   49.2387 H   0  0  0  0  0  0  0  0  0  0  0  0
   62.1252   32.1250   50.1586 H   0  0  0  0  0  0  0  0  0  0  0  0
   62.3915   33.9308   50.1339 H   0  0  0  0  0  0  0  0  0  0  0  0
   63.9438   32.2612   47.6805 H   0  0  0  0  0  0  0  0  0  0  0  0
   62.5143   31.9185   46.6095 H   0  0  0  0  0  0  0  0  0  0  0  0
   63.6606   34.7002   46.9705 H   0  0  0  0  0  0  0  0  0  0  0  0
   64.2449   33.5605   45.7110 H   0  0  0  0  0  0  0  0  0  0  0  0
   62.5306   34.0972   45.7110 H   0  0  0  0  0  0  0  0  0  0  0  0
   60.9691   33.7155   46.1463 H   0  0  0  0  0  0  0  0  0  0  0  0
   58.4454   34.7459   47.4911 H   0  0  0  0  0  0  0  0  0  0  0  0
   59.8691   35.7058   46.8779 H   0  0  0  0  0  0  0  0  0  0  0  0
   57.4843   34.9433   45.5080 H   0  0  0  0  0  0  0  0  0  0  0  0
   58.9090   35.9199   44.9401 H   0  0  0  0  0  0  0  0  0  0  0  0
   58.3717   33.8974   43.4917 H   0  0  0  0  0  0  0  0  0  0  0  0
   60.0336   33.9336   44.1116 H   0  0  0  0  0  0  0  0  0  0  0  0
   58.9122   31.3262   48.9208 H   0  0  0  0  0  0  0  0  0  0  0  0
   58.9086   29.6804   48.2012 H   0  0  0  0  0  0  0  0  0  0  0  0
   60.4160   30.6574   48.2012 H   0  0  0  0  0  0  0  0  0  0  0  0
   57.6744   28.7022   46.7810 H   0  0  0  0  0  0  0  0  0  0  0  0
   56.3166   27.9489   44.8401 H   0  0  0  0  0  0  0  0  0  0  0  0
   57.1747   31.7277   42.8843 H   0  0  0  0  0  0  0  0  0  0  0  0
  1  2  1  0
  2  3  1  0
  3  4  1  0
  4  5  1  0
  3  6  1  0
  6  7  2  0
  6  8  1  0
  8  9  1  0
  9 10  1  0
 10 11  1  0
 11 12  1  0
 12 13  2  0
 13 14  1  0
 14 15  1  0
 14 16  1  0
 16 17  2  0
 17 18  1  0
 18 19  2  0
 19 20  1  0
 19 21  1  0
 21 22  2  0
 13  8  1  0
 22 16  1  0
 22 12  1  0
  1 23  1  0
  1 24  1  0
  1 25  1  0
  2 26  1  0
  2 27  1  0
  4 28  1  0
  4 29  1  0
  5 30  1  0
  5 31  1  0
  5 32  1  0
  8 33  1  6
  9 34  1  0
  9 35  1  0
 10 36  1  0
 10 37  1  0
 11 38  1  0
 11 39  1  0
 15 40  1  0
 15 41  1  0
 15 42  1  0
 17 43  1  0
 18 44  1  0
 21 45  1  0
M  END
>  <smiles>  (10) 
CCN(CC)C(=O)C1CCCc2c1n(C)c1ccc(F)cc21

>  <score_type>  (10) 
oracle

>  <origin>  (10) 
adg

>  <m_score__min__energy>  (10) 
-8.2200000000000006

>  <m_primary>  (10) 
energy

$$$$
11:0
     RDKit          3D

 57 59  0  0  0  0  0  0  0  0999 V2000
   58.5490   31.9030   49.8190 C   0  0  0  0  0  0  0  0  0  0  0  0
   59.2140   32.9380   50.6800 C   0  0  0  0  0  0  0  0  0  0  0  0
   60.3010   33.5540   50.0970 O   0  0  0  0  0  0  0  0  0  0  0  0
   61.4530   33.5320   50.8550 C   0  0  0  0  0  0  0  0  0  0  0  0
   62.6850   33.8650   50.0380 C   0  0  0  0  0  0  0  0  0  0  0  0
   62.3750   34.2170   48.6880 N   0  0  0  0  0  0  0  0  0  0  0  0
   63.3320   33.8150   47.7050 C   0  0  0  0  0  0  0  0  0  0  0  0
   63.7600   32.3670   47.8140 C   0  0  0  0  0  0  0  0  0  0  0  0
   62.6550   31.4390   47.4980 C   0  0  0  0  0  0  0  0  0  0  0  0
   61.3330   31.8340   47.8410 N   0  0  0  0  0  0  0  0  0  0  0  0
   60.2510   31.4410   47.0240 C   0  0  0  0  0  0  0  0  0  0  0  0
   59.6000   32.4630   46.3190 C   0  0  0  0  0  0  0  0  0  0  0  0
   58.5400   32.1390   45.5010 C   0  0  0  0  0  0  0  0  0  0  0  0
   58.1210   30.8490   45.3720 N   0  0  0  0  0  0  0  0  0  0  0  0
   57.0120   30.4770   44.5190 C   0  0  0  0  0  0  0  0  0  0  0  0
   58.7360   29.8600   46.0430 C   0  0  0  0  0  0  0  0  0  0  0  0
   58.3000   28.5490   45.9180 C   0  0  0  0  0  0  0  0  0  0  0  0
   58.9180   27.5310   46.6100 C   0  0  0  0  0  0  0  0  0  0  0  0
   59.9880   27.8300   47.4410 C   0  0  0  0  0  0  0  0  0  0  0  0
   60.4160   29.1360   47.5610 C   0  0  0  0  0  0  0  0  0  0  0  0
   59.8060   30.1500   46.8760 C   0  0  0  0  0  0  0  0  0  0  0  0
   57.7800   33.1440   44.7130 C   0  0  0  0  0  0  0  0  0  0  0  0
   58.2860   34.5390   44.8730 C   0  0  0  0  0  0  0  0  0  0  0  0
   58.8880   34.7830   46.2420 C   0  0  0  0  0  0  0  0  0  0  0  0
   60.0730   33.8770   46.4800 C   0  0  0  0  0  0  0  0  0  0  0  0
   58.0652   31.1500   50.4584 H   0  0  0  0  0  0  0  0  0  0  0  0
   57.7917   32.3859   49.1839 H   0  0  0  0  0  0  0  0  0  0  0  0
   59.3030   31.4149   49.1839 H   0  0  0  0  0  0  0  0  0  0  0  0
   58.4707   33.7113   50.9237 H   0  0  0  0  0  0  0  0  0  0  0  0
   59.5924   32.4102   51.5678 H   0  0  0  0  0  0  0  0  0  0  0  0
   61.3568   34.2685   51.6663 H   0  0  0  0  0  0  0  0  0  0  0  0
   61.5765   32.5129   51.2503 H   0  0  0  0  0  0  0  0  0  0  0  0
   63.2029   34.7118   50.5121 H   0  0  0  0  0  0  0  0  0  0  0  0
   63.3169   32.9650   50.0092 H   0  0  0  0  0  0  0  0  0  0  0  0
   61.4240   33.9670   48.3980 H   0  0  0  0  0  0  0  0  0  0  0  0
   62.8907   33.9706   46.7095 H   0  0  0  0  0  0  0  0  0  0  0  0
   64.2322   34.4249   47.8711 H   0  0  0  0  0  0  0  0  0  0  0  0
   64.5870   32.1871   47.1114 H   0  0  0  0  0  0  0  0  0  0  0  0
   64.0732   32.1821   48.8521 H   0  0  0  0  0  0  0  0  0  0  0  0
   62.6734   31.2663   46.4118 H   0  0  0  0  0  0  0  0  0  0  0  0
   62.8495   30.5565   48.1251 H   0  0  0  0  0  0  0  0  0  0  0  0
   61.0830   32.4240   48.6900 H   0  0  0  0  0  0  0  0  0  0  0  0
   56.1518   30.1885   45.1409 H   0  0  0  0  0  0  0  0  0  0  0  0
   56.7352   31.3315   43.8840 H   0  0  0  0  0  0  0  0  0  0  0  0
   57.3064   29.6284   43.8840 H   0  0  0  0  0  0  0  0  0  0  0  0
   57.4503   28.3196   45.2581 H   0  0  0  0  0  0  0  0  0  0  0  0
   58.5675   26.4936   46.5051 H   0  0  0  0  0  0  0  0  0  0  0  0
   60.4928   27.0294   48.0016 H   0  0  0  0  0  0  0  0  0  0  0  0
   61.2652   29.3662   48.2212 H   0  0  0  0  0  0  0  0  0  0  0  0
   57.8434   32.8714   43.6492 H   0  0  0  0  0  0  0  0  0  0  0  0
   56.7461   33.1319   45.0884 H   0  0  0  0  0  0  0  0  0  0  0  0
   59.0566   34.7247   44.1103 H   0  0  0  0  0  0  0  0  0  0  0  0
   57.4306   35.2208   44.7570 H   0  0  0  0  0  0  0  0  0  0  0  0
   59.2166   35.8306   46.3092 H   0  0  0  0  0  0  0  0  0  0  0  0
   58.1243   34.5697   47.0044 H   0  0  0  0  0  0  0  0  0  0  0  0
   60.8644   34.0938   45.7475 H   0  0  0  0  0  0  0  0  0  0  0  0
   60.4848   34.0350   47.4877 H   0  0  0  0  0  0  0  0  0  0  0  0
  1  2  1  0
  2  3  1  0
  3  4  1  0
  4  5  1  0
  5  6  1  0
  6  7  1  0
  7  8  1  0
  8  9  1  0
  9 10  1  0
 10 11  1  0
 11 12  2  0
 12 13  1  0
 13 14  2  0
 14 15  1  0
 14 16  1  0
 16 17  2  0
 17 18  1  0
 18 19  2  0
 19 20  1  0
 20 21  2  0
 13 22  1  0
 22 23  1  0
 23 24  1  0
 24 25  1  0
 21 11  1  0
 25 12  1  0
 21 16  1  0
  1 26  1  0
  1 27  1  0
  1 28  1  0
  2 29  1  0
  2 30  1  0
  4 31  1  0
  4 32  1  0
  5 33  1  0
  5 34  1  0
  6 35  1  0
  7 36  1  0
  7 37  1  0
  8 38  1  0
  8 39  1  0
  9 40  1  0
  9 41  1  0
 10 42  1  0
 15 43  1  0
 15 44  1  0
 15 45  1  0
 17 46  1  0
 18 47  1  0
 19 48  1  0
 20 49  1  0
 22 50  1  0
 22 51  1  0
 23 52  1  0
 23 53  1  0
 24 54  1  0
 24 55  1  0
 25 56  1  0
 25 57  1  0
M  CHG  1  14   1
M  END
>  <smiles>  (11) 
CCOCCNCCCNc1c2c([n+](C)c3ccccc13)CCCC2

>  <score_type>  (11) 
oracle

>  <origin>  (11) 
adg

>  <m_score__min__energy>  (11) 
-5.7300000000000004

>  <m_primary>  (11) 
energy

$$$$
12:0
     RDKit          3D

 70 73  0  0  0  0  0  0  0  0999 V2000
   63.4060   31.9100   49.3940 C   0  0  0  0  0  0  0  0  0  0  0  0
   64.1470   33.0840   48.7870 C   0  0  0  0  0  0  0  0  0  0  0  0
   63.9150   33.1110   47.3340 N   0  0  0  0  0  0  0  0  0  0  0  0
   62.5300   32.7460   47.0980 C   0  0  0  0  0  0  0  0  0  0  0  0
   61.5960   33.9050   47.4170 C   0  0  0  0  0  0  0  0  0  0  0  0
   60.5020   34.0240   46.3790 C   0  0  0  0  0  0  0  0  0  0  0  0
   59.3380   34.7970   46.9620 C   0  0  0  0  0  0  0  0  0  0  0  0
   58.2370   33.8430   47.2630 N   0  0  0  0  0  0  0  0  0  0  0  0
   58.5620   32.4860   47.0880 C   0  0  0  0  0  0  0  0  0  0  0  0
   58.2620   31.9700   45.8190 C   0  0  0  0  0  0  0  0  0  0  0  0
   57.7290   32.8150   44.8490 C   0  0  0  0  0  0  0  0  0  0  0  0
   57.4070   32.4020   43.5780 C   0  0  0  0  0  0  0  0  0  0  0  0
   57.6290   31.0860   43.2620 C   0  0  0  0  0  0  0  0  0  0  0  0
   58.1650   30.2270   44.2250 C   0  0  0  0  0  0  0  0  0  0  0  0
   58.4760   30.6590   45.4800 C   0  0  0  0  0  0  0  0  0  0  0  0
   58.9950   29.8420   46.4100 N   0  0  0  0  0  0  0  0  0  0  0  0
   59.2480   28.4560   46.1620 C   0  0  0  0  0  0  0  0  0  0  0  0
   59.2950   30.3180   47.6440 C   0  0  0  0  0  0  0  0  0  0  0  0
   59.8280   29.4270   48.5500 C   0  0  0  0  0  0  0  0  0  0  0  0
   60.1540   29.8580   49.8120 C   0  0  0  0  0  0  0  0  0  0  0  0
   59.9400   31.1790   50.1460 C   0  0  0  0  0  0  0  0  0  0  0  0
   59.4080   32.1120   49.2680 C   0  0  0  0  0  0  0  0  0  0  0  0
   59.2680   33.4410   49.7010 N   0  0  0  0  0  0  0  0  0  0  0  0
   59.9160   33.8400   50.9740 C   0  0  0  0  0  0  0  0  0  0  0  0
   58.9010   34.1890   52.0050 C   0  0  0  0  0  0  0  0  0  0  0  0
   58.9720   33.2920   53.2190 C   0  0  0  0  0  0  0  0  0  0  0  0
   58.1360   32.1310   53.0000 N   0  0  0  0  0  0  0  0  0  0  0  0
   58.4340   30.9250   53.5330 C   0  0  0  0  0  0  0  0  0  0  0  0
   57.6240   29.8300   53.3110 C   0  0  0  0  0  0  0  0  0  0  0  0
   56.4770   29.9510   52.5280 C   0  0  0  0  0  0  0  0  0  0  0  0
   56.1770   31.1950   51.9850 C   0  0  0  0  0  0  0  0  0  0  0  0
   57.0330   32.2400   52.2490 C   0  0  0  0  0  0  0  0  0  0  0  0
   59.0900   31.6380   48.0130 C   0  0  0  0  0  0  0  0  0  0  0  0
   63.4484   31.9772   50.4911 H   0  0  0  0  0  0  0  0  0  0  0  0
   62.3563   31.9296   49.0658 H   0  0  0  0  0  0  0  0  0  0  0  0
   63.8753   30.9708   49.0658 H   0  0  0  0  0  0  0  0  0  0  0  0
   63.7809   34.0199   49.2344 H   0  0  0  0  0  0  0  0  0  0  0  0
   65.2241   32.9803   48.9849 H   0  0  0  0  0  0  0  0  0  0  0  0
   64.5480   32.3690   46.9660 H   0  0  0  0  0  0  0  0  0  0  0  0
   62.4073   32.4660   46.0413 H   0  0  0  0  0  0  0  0  0  0  0  0
   62.2747   31.9007   47.7540 H   0  0  0  0  0  0  0  0  0  0  0  0
   61.1388   33.7370   48.4033 H   0  0  0  0  0  0  0  0  0  0  0  0
   62.1815   34.8362   47.4160 H   0  0  0  0  0  0  0  0  0  0  0  0
   60.8895   34.5541   45.4965 H   0  0  0  0  0  0  0  0  0  0  0  0
   60.1650   33.0195   46.0834 H   0  0  0  0  0  0  0  0  0  0  0  0
   59.6544   35.3014   47.8869 H   0  0  0  0  0  0  0  0  0  0  0  0
   58.9925   35.5544   46.2430 H   0  0  0  0  0  0  0  0  0  0  0  0
   57.3080   34.1960   47.6150 H   0  0  0  0  0  0  0  0  0  0  0  0
   57.5565   33.8686   45.1138 H   0  0  0  0  0  0  0  0  0  0  0  0
   56.9864   33.1018   42.8409 H   0  0  0  0  0  0  0  0  0  0  0  0
   57.3868   30.7093   42.2573 H   0  0  0  0  0  0  0  0  0  0  0  0
   58.3408   29.1732   43.9632 H   0  0  0  0  0  0  0  0  0  0  0  0
   59.3451   27.9239   47.1198 H   0  0  0  0  0  0  0  0  0  0  0  0
   58.4132   28.0279   45.5877 H   0  0  0  0  0  0  0  0  0  0  0  0
   60.1803   28.3505   45.5877 H   0  0  0  0  0  0  0  0  0  0  0  0
   59.9912   28.3774   48.2640 H   0  0  0  0  0  0  0  0  0  0  0  0
   60.5801   29.1592   50.5469 H   0  0  0  0  0  0  0  0  0  0  0  0
   60.2049   31.5098   51.1611 H   0  0  0  0  0  0  0  0  0  0  0  0
   58.7980   34.2360   49.2700 H   0  0  0  0  0  0  0  0  0  0  0  0
   60.5296   33.0046   51.3422 H   0  0  0  0  0  0  0  0  0  0  0  0
   60.5414   34.7251   50.7855 H   0  0  0  0  0  0  0  0  0  0  0  0
   59.0671   35.2283   52.3249 H   0  0  0  0  0  0  0  0  0  0  0  0
   57.9075   34.0572   51.5517 H   0  0  0  0  0  0  0  0  0  0  0  0
   60.0120   32.9719   53.3800 H   0  0  0  0  0  0  0  0  0  0  0  0
   58.6201   33.8399   54.1055 H   0  0  0  0  0  0  0  0  0  0  0  0
   59.3358   30.8148   54.1531 H   0  0  0  0  0  0  0  0  0  0  0  0
   57.8846   28.8574   53.7539 H   0  0  0  0  0  0  0  0  0  0  0  0
   55.8256   29.0838   52.3444 H   0  0  0  0  0  0  0  0  0  0  0  0
   55.2817   31.3400   51.3626 H   0  0  0  0  0  0  0  0  0  0  0  0
   56.7967   33.2237   51.8171 H   0  0  0  0  0  0  0  0  0  0  0  0
  1  2  1  0
  2  3  1  0
  3  4  1  0
  4  5  1  0
  5  6  1  0
  6  7  1  0
  7  8  1  0
  8  9  1  0
  9 10  2  0
 10 11  1  0
 11 12  2  0
 12 13  1  0
 13 14  2  0
 14 15  1  0
 15 16  2  0
 16 17  1  0
 16 18  1  0
 18 19  2  0
 19 20  1  0
 20 21  2  0
 21 22  1  0
 22 23  1  0
 23 24  1  0
 24 25  1  0
 25 26  1  0
 26 27  1  0
 27 28  2  0
 28 29  1  0
 29 30  2  0
 30 31  1  0
 31 32  2  0
 22 33  2  0
 33  9  1  0
 15 10  1  0
 33 18  1  0
 32 27  1  0
  1 34  1  0
  1 35  1  0
  1 36  1  0
  2 37  1  0
  2 38  1  0
  3 39  1  0
  4 40  1  0
  4 41  1  0
  5 42  1  0
  5 43  1  0
  6 44  1  0
  6 45  1  0
  7 46  1  0
  7 47  1  0
  8 48  1  0
 11 49  1  0
 12 50  1  0
 13 51  1  0
 14 52  1  0
 17 53  1  0
 17 54  1  0
 17 55  1  0
 19 56  1  0
 20 57  1  0
 21 58  1  0
 23 59  1  0
 24 60  1  0
 24 61  1  0
 25 62  1  0
 25 63  1  0
 26 64  1  0
 26 65  1  0
 28 66  1  0
 29 67  1  0
 30 68  1  0
 31 69  1  0
 32 70  1  0
M  CHG  2  16   1  27   1
M  END
>  <smiles>  (12) 
CCNCCCCNc1c2ccccc2[n+](C)c2cccc(NCCC[n+]3ccccc3)c12

>  <score_type>  (12) 
oracle

>  <origin>  (12) 
adg

>  <m_score__min__energy>  (12) 
-5.8799999999999999

>  <m_primary>  (12) 
energy

$$$$
13:0
     RDKit          3D

 42 44  0  0  0  0  0  0  0  0999 V2000
   56.5260   30.0530   52.4340 C   0  0  0  0  0  0  0  0  0  0  0  0
   57.3390   30.1030   51.2700 O   0  0  0  0  0  0  0  0  0  0  0  0
   58.1050   31.2180   51.0060 C   0  0  0  0  0  0  0  0  0  0  0  0
   58.1090   32.3250   51.8330 C   0  0  0  0  0  0  0  0  0  0  0  0
   58.8810   33.4500   51.5680 C   0  0  0  0  0  0  0  0  0  0  0  0
   59.6760   33.4700   50.4390 C   0  0  0  0  0  0  0  0  0  0  0  0
   59.6970   32.3740   49.5830 C   0  0  0  0  0  0  0  0  0  0  0  0
   58.9150   31.2790   49.8860 C   0  0  0  0  0  0  0  0  0  0  0  0
   58.9430   30.1460   48.9930 N   0  0  0  0  0  0  0  0  0  0  0  0
   59.6520   28.9530   49.3430 C   0  0  0  0  0  0  0  0  0  0  0  0
   60.2560   28.8830   50.4270 O   0  0  0  0  0  0  0  0  0  0  0  0
   59.6140   27.8420   48.3400 C   0  0  0  0  0  0  0  0  0  0  0  0
   60.2560   28.4320   46.7740 S   0  0  0  0  0  0  0  0  0  0  0  0
   59.2780   29.8140   46.2150 C   0  0  0  0  0  0  0  0  0  0  0  0
   59.7310   31.0680   46.4770 N   0  0  0  0  0  0  0  0  0  0  0  0
   59.0030   32.0980   46.0610 C   0  0  0  0  0  0  0  0  0  0  0  0
   59.4390   33.3800   46.3150 C   0  0  0  0  0  0  0  0  0  0  0  0
   58.6940   34.4500   45.8890 C   0  0  0  0  0  0  0  0  0  0  0  0
   57.5110   34.3110   45.2070 C   0  0  0  0  0  0  0  0  0  0  0  0
   57.0650   33.0270   44.9470 C   0  0  0  0  0  0  0  0  0  0  0  0
   57.8050   31.9630   45.3710 C   0  0  0  0  0  0  0  0  0  0  0  0
   57.3930   30.6590   45.1310 C   0  0  0  0  0  0  0  0  0  0  0  0
   56.3130   30.4690   44.5080 O   0  0  0  0  0  0  0  0  0  0  0  0
   58.1190   29.6040   45.5470 N   0  0  0  0  0  0  0  0  0  0  0  0
   57.6290   28.2730   45.2610 C   0  0  0  0  0  0  0  0  0  0  0  0
   57.1643   30.0923   53.3290 H   0  0  0  0  0  0  0  0  0  0  0  0
   55.8370   30.9105   52.4371 H   0  0  0  0  0  0  0  0  0  0  0  0
   55.9473   29.1176   52.4371 H   0  0  0  0  0  0  0  0  0  0  0  0
   57.4781   32.3155   52.7341 H   0  0  0  0  0  0  0  0  0  0  0  0
   58.8590   34.3136   52.2490 H   0  0  0  0  0  0  0  0  0  0  0  0
   60.2929   34.3532   50.2166 H   0  0  0  0  0  0  0  0  0  0  0  0
   60.3260   32.3804   48.6806 H   0  0  0  0  0  0  0  0  0  0  0  0
   58.4240   30.2370   48.0860 H   0  0  0  0  0  0  0  0  0  0  0  0
   60.2305   27.0039   48.6971 H   0  0  0  0  0  0  0  0  0  0  0  0
   58.5763   27.5020   48.2072 H   0  0  0  0  0  0  0  0  0  0  0  0
   60.3815   33.5449   46.8577 H   0  0  0  0  0  0  0  0  0  0  0  0
   59.0609   35.4646   46.1035 H   0  0  0  0  0  0  0  0  0  0  0  0
   56.9371   35.1900   44.8784 H   0  0  0  0  0  0  0  0  0  0  0  0
   56.1223   32.8662   44.4034 H   0  0  0  0  0  0  0  0  0  0  0  0
   57.4340   27.7433   46.2052 H   0  0  0  0  0  0  0  0  0  0  0  0
   56.6974   28.3422   44.6802 H   0  0  0  0  0  0  0  0  0  0  0  0
   58.3831   27.7216   44.6802 H   0  0  0  0  0  0  0  0  0  0  0  0
  1  2  1  0
  2  3  1  0
  3  4  2  0
  4  5  1  0
  5  6  2  0
  6  7  1  0
  7  8  2  0
  8  9  1  0
  9 10  1  0
 10 11  2  0
 10 12  1  0
 12 13  1  0
 13 14  1  0
 14 15  2  0
 15 16  1  0
 16 17  2  0
 17 18  1  0
 18 19  2  0
 19 20  1  0
 20 21  2  0
 21 22  1  0
 22 23  2  0
 22 24  1  0
 24 25  1  0
  8  3  1  0
 24 14  1  0
 21 16  1  0
  1 26  1  0
  1 27  1  0
  1 28  1  0
  4 29  1  0
  5 30  1  0
  6 31  1  0
  7 32  1  0
  9 33  1  0
 12 34  1  0
 12 35  1  0
 17 36  1  0
 18 37  1  0
 19 38  1  0
 20 39  1  0
 25 40  1  0
 25 41  1  0
 25 42  1  0
M  END
>  <smiles>  (13) 
COc1ccccc1NC(=O)CSc1nc2ccccc2c(=O)n1C

>  <score_type>  (13) 
oracle

>  <origin>  (13) 
adg

>  <m_score__min__energy>  (13) 
-8.5700000000000003

>  <m_primary>  (13) 
energy

$$$$
14:0
     RDKit          3D

 35 36  0  0  0  0  0  0  0  0999 V2000
   56.2880   30.1680   43.3640 C   0  0  0  0  0  0  0  0  0  0  0  0
   56.7750   29.5870   44.6460 C   0  0  0  0  0  0  0  0  0  0  0  0
   57.3380   30.4900   45.5310 O   0  0  0  0  0  0  0  0  0  0  0  0
   58.6670   30.2900   45.8000 C   0  0  0  0  0  0  0  0  0  0  0  0
   58.9700   30.8930   47.1700 C   0  0  0  0  0  0  0  0  0  0  0  0
   59.7150   32.1240   47.0580 N   0  0  0  0  0  0  0  0  0  0  0  0
   59.2620   33.3720   46.8380 C   0  0  0  0  0  0  0  0  0  0  0  0
   57.5490   33.8330   46.6140 S   0  0  0  0  0  0  0  0  0  0  0  0
   57.0780   33.9050   44.8750 C   0  0  0  0  0  0  0  0  0  0  0  0
   58.0660   33.1750   43.9910 C   0  0  0  0  0  0  0  0  0  0  0  0
   60.3160   34.2210   46.8140 N   0  0  0  0  0  0  0  0  0  0  0  0
   61.4450   33.5500   47.0130 C   0  0  0  0  0  0  0  0  0  0  0  0
   62.7910   33.8930   47.0880 C   0  0  0  0  0  0  0  0  0  0  0  0
   63.7680   32.9270   47.3170 C   0  0  0  0  0  0  0  0  0  0  0  0
   63.3930   31.5870   47.4740 C   0  0  0  0  0  0  0  0  0  0  0  0
   62.0460   31.2390   47.3990 C   0  0  0  0  0  0  0  0  0  0  0  0
   61.0720   32.2130   47.1700 C   0  0  0  0  0  0  0  0  0  0  0  0
   55.5947   30.9952   43.5763 H   0  0  0  0  0  0  0  0  0  0  0  0
   57.1431   30.5459   42.7844 H   0  0  0  0  0  0  0  0  0  0  0  0
   55.7665   29.3920   42.7844 H   0  0  0  0  0  0  0  0  0  0  0  0
   55.9212   29.1077   45.1474 H   0  0  0  0  0  0  0  0  0  0  0  0
   57.5788   28.8865   44.3753 H   0  0  0  0  0  0  0  0  0  0  0  0
   58.8873   29.2123   45.8100 H   0  0  0  0  0  0  0  0  0  0  0  0
   59.2881   30.7675   45.0278 H   0  0  0  0  0  0  0  0  0  0  0  0
   58.0211   31.0964   47.6878 H   0  0  0  0  0  0  0  0  0  0  0  0
   59.5804   30.1727   47.7345 H   0  0  0  0  0  0  0  0  0  0  0  0
   56.0864   33.4440   44.7559 H   0  0  0  0  0  0  0  0  0  0  0  0
   57.0639   34.9616   44.5696 H   0  0  0  0  0  0  0  0  0  0  0  0
   58.7926   32.6382   44.6186 H   0  0  0  0  0  0  0  0  0  0  0  0
   57.5280   32.4558   43.3559 H   0  0  0  0  0  0  0  0  0  0  0  0
   58.5955   33.9005   43.3559 H   0  0  0  0  0  0  0  0  0  0  0  0
   63.0888   34.9447   46.9644 H   0  0  0  0  0  0  0  0  0  0  0  0
   64.8281   33.2151   47.3742 H   0  0  0  0  0  0  0  0  0  0  0  0
   64.1558   30.8154   47.6551 H   0  0  0  0  0  0  0  0  0  0  0  0
   61.7471   30.1875   47.5213 H   0  0  0  0  0  0  0  0  0  0  0  0
  1  2  1  0
  2  3  1  0
  3  4  1  0
  4  5  1  0
  5  6  1  0
  6  7  1  0
  7  8  1  0
  8  9  1  0
  9 10  1  0
  7 11  2  0
 11 12  1  0
 12 13  2  0
 13 14  1  0
 14 15  2  0
 15 16  1  0
 16 17  2  0
 17  6  1  0
 17 12  1  0
  1 18  1  0
  1 19  1  0
  1 20  1  0
  2 21  1  0
  2 22  1  0
  4 23  1  0
  4 24  1  0
  5 25  1  0
  5 26  1  0
  9 27  1  0
  9 28  1  0
 10 29  1  0
 10 30  1  0
 10 31  1  0
 13 32  1  0
 14 33  1  0
 15 34  1  0
 16 35  1  0
M  END
>  <smiles>  (14) 
CCOCCn1c(SCC)nc2ccccc21

>  <score_type>  (14) 
oracle

>  <origin>  (14) 
adg

>  <m_score__min__energy>  (14) 
-5.5199999999999996

>  <m_primary>  (14) 
energy

$$$$
15:0
     RDKit          3D

 49 51  0  0  0  0  0  0  0  0999 V2000
   55.2350   29.0590   44.7700 O   0  0  0  0  0  0  0  0  0  0  0  0
   56.1990   29.8490   44.7150 N   0  0  0  0  0  0  0  0  0  0  0  0
   56.0380   31.1950   44.4980 O   0  0  0  0  0  0  0  0  0  0  0  0
   57.5260   29.3540   44.8840 C   0  0  0  0  0  0  0  0  0  0  0  0
   57.9840   28.2930   44.0960 C   0  0  0  0  0  0  0  0  0  0  0  0
   59.2660   27.8540   44.2950 C   0  0  0  0  0  0  0  0  0  0  0  0
   60.1190   28.4050   45.2300 C   0  0  0  0  0  0  0  0  0  0  0  0
   59.6590   29.4660   46.0180 C   0  0  0  0  0  0  0  0  0  0  0  0
   60.5570   30.0660   47.0210 C   0  0  0  0  0  0  0  0  0  0  0  0
   60.0830   29.9720   48.4170 C   0  0  0  0  0  0  0  0  0  0  0  0
   60.9800   30.7540   49.3290 C   0  0  0  0  0  0  0  0  0  0  0  0
   61.9740   31.5580   48.7590 N   0  0  0  0  0  0  0  0  0  0  0  0
   62.3440   32.6460   49.6260 C   0  0  0  0  0  0  0  0  0  0  0  0
   61.1820   33.2340   50.3690 C   0  0  0  0  0  0  0  0  0  0  0  0
   60.0430   33.3660   49.5200 N   0  0  0  0  0  0  0  0  0  0  0  0
   60.1590   34.5730   48.6760 C   0  0  0  0  0  0  0  0  0  0  0  0
   59.3110   34.3690   47.4730 C   0  0  0  0  0  0  0  0  0  0  0  0
   58.2060   33.5430   47.4740 C   0  0  0  0  0  0  0  0  0  0  0  0
   57.4820   33.4180   46.3050 C   0  0  0  0  0  0  0  0  0  0  0  0
   57.8130   34.0790   45.1470 C   0  0  0  0  0  0  0  0  0  0  0  0
   58.9090   34.8890   45.1680 N   0  0  0  0  0  0  0  0  0  0  0  0
   59.6350   35.0280   46.3010 C   0  0  0  0  0  0  0  0  0  0  0  0
   61.8420   32.0570   47.4470 C   0  0  0  0  0  0  0  0  0  0  0  0
   60.6490   31.5600   46.6860 C   0  0  0  0  0  0  0  0  0  0  0  0
   58.3510   29.9210   45.8210 C   0  0  0  0  0  0  0  0  0  0  0  0
   57.3351   27.8260   43.3404 H   0  0  0  0  0  0  0  0  0  0  0  0
   59.6344   27.0205   43.6788 H   0  0  0  0  0  0  0  0  0  0  0  0
   61.1410   28.0174   45.3533 H   0  0  0  0  0  0  0  0  0  0  0  0
   61.5082   29.5158   46.9706 H   0  0  0  0  0  0  0  0  0  0  0  0
   59.0615   30.3752   48.4806 H   0  0  0  0  0  0  0  0  0  0  0  0
   60.0935   28.9164   48.7263 H   0  0  0  0  0  0  0  0  0  0  0  0
   60.3366   31.4115   49.9321 H   0  0  0  0  0  0  0  0  0  0  0  0
   61.5394   29.9847   49.8815 H   0  0  0  0  0  0  0  0  0  0  0  0
   63.0755   32.2750   50.3590 H   0  0  0  0  0  0  0  0  0  0  0  0
   62.7606   33.4415   48.9907 H   0  0  0  0  0  0  0  0  0  0  0  0
   60.9263   32.5774   51.2136 H   0  0  0  0  0  0  0  0  0  0  0  0
   61.4672   34.2336   50.7288 H   0  0  0  0  0  0  0  0  0  0  0  0
   60.0390   32.5730   48.7990 H   0  0  0  0  0  0  0  0  0  0  0  0
   59.8110   35.4547   49.2340 H   0  0  0  0  0  0  0  0  0  0  0  0
   61.2066   34.7387   48.3842 H   0  0  0  0  0  0  0  0  0  0  0  0
   57.9095   32.9982   48.3824 H   0  0  0  0  0  0  0  0  0  0  0  0
   56.6007   32.7597   46.3007 H   0  0  0  0  0  0  0  0  0  0  0  0
   57.2132   33.9585   44.2328 H   0  0  0  0  0  0  0  0  0  0  0  0
   60.5144   35.6887   46.2897 H   0  0  0  0  0  0  0  0  0  0  0  0
   61.7740   33.1533   47.5063 H   0  0  0  0  0  0  0  0  0  0  0  0
   62.7237   31.6976   46.8962 H   0  0  0  0  0  0  0  0  0  0  0  0
   59.7382   32.0853   47.0093 H   0  0  0  0  0  0  0  0  0  0  0  0
   60.7472   31.7351   45.6045 H   0  0  0  0  0  0  0  0  0  0  0  0
   57.9750   30.7542   46.4329 H   0  0  0  0  0  0  0  0  0  0  0  0
  1  2  2  0
  2  3  1  0
  2  4  1  0
  4  5  2  0
  5  6  1  0
  6  7  2  0
  7  8  1  0
  8  9  1  0
  9 10  1  0
 10 11  1  0
 11 12  1  0
 12 13  1  0
 13 14  1  0
 14 15  1  0
 15 16  1  0
 16 17  1  0
 17 18  2  0
 18 19  1  0
 19 20  2  0
 20 21  1  0
 21 22  2  0
 12 23  1  0
 23 24  1  0
  8 25  2  0
 25  4  1  0
 24  9  1  0
 22 17  1  0
  5 26  1  0
  6 27  1  0
  7 28  1  0
  9 29  1  0
 10 30  1  0
 10 31  1  0
 11 32  1  0
 11 33  1  0
 13 34  1  0
 13 35  1  0
 14 36  1  0
 14 37  1  0
 15 38  1  0
 16 39  1  0
 16 40  1  0
 18 41  1  0
 19 42  1  0
 20 43  1  0
 22 44  1  0
 23 45  1  0
 23 46  1  0
 24 47  1  0
 24 48  1  0
 25 49  1  0
M  CHG  2   2   1   3  -1
M  END
>  <smiles>  (15) 
O=[N+]([O-])c1cccc(C2CCN(CCNCc3cccnc3)CC2)c1

>  <score_type>  (15) 
oracle

>  <origin>  (15) 
adg

>  <m_score__min__energy>  (15) 
-8.5500000000000007

>  <m_primary>  (15) 
energy

$$$$
17:0
     RDKit          3D

 39 40  0  0  0  0  0  0  0  0999 V2000
   58.7470   23.8670   45.6060 C   0  0  0  0  0  0  0  0  0  0  0  0
   59.0640   25.2110   46.2340 C   0  0  0  0  0  0  0  0  0  0  0  0
   57.9330   26.0910   46.0570 N   0  0  0  0  0  0  0  0  0  0  0  0
   56.6630   25.7060   46.3160 C   0  0  0  0  0  0  0  0  0  0  0  0
   55.8790   26.7740   46.0410 N   0  0  0  0  0  0  0  0  0  0  0  0
   56.6500   27.8090   45.6170 C   0  0  0  0  0  0  0  0  0  0  0  0
   56.1440   29.0880   45.2430 N   0  0  0  0  0  0  0  0  0  0  0  0
   56.0560   29.4900   43.8780 C   0  0  0  0  0  0  0  0  0  0  0  0
   56.5990   30.8500   43.5800 C   0  0  0  0  0  0  0  0  0  0  0  0
   57.7310   31.2790   44.4370 C   0  0  0  0  0  0  0  0  0  0  0  0
   58.0100   32.7450   44.1560 C   0  0  0  0  0  0  0  0  0  0  0  0
   58.5520   33.4400   45.3500 C   0  0  0  0  0  0  0  0  0  0  0  0
   59.2240   34.6360   45.2350 C   0  0  0  0  0  0  0  0  0  0  0  0
   59.7300   35.2860   46.3450 C   0  0  0  0  0  0  0  0  0  0  0  0
   59.5860   34.7700   47.6170 C   0  0  0  0  0  0  0  0  0  0  0  0
   58.9200   33.5830   47.7460 C   0  0  0  0  0  0  0  0  0  0  0  0
   58.4150   32.9350   46.6390 C   0  0  0  0  0  0  0  0  0  0  0  0
   57.9560   27.3700   45.6280 C   0  0  0  0  0  0  0  0  0  0  0  0
   59.4870   28.3840   45.1320 Br  0  0  0  0  0  0  0  0  0  0  0  0
   58.5718   23.1243   46.3983 H   0  0  0  0  0  0  0  0  0  0  0  0
   57.8455   23.9573   44.9822 H   0  0  0  0  0  0  0  0  0  0  0  0
   59.5938   23.5449   44.9822 H   0  0  0  0  0  0  0  0  0  0  0  0
   59.2638   25.0785   47.3076 H   0  0  0  0  0  0  0  0  0  0  0  0
   59.9523   25.6460   45.7525 H   0  0  0  0  0  0  0  0  0  0  0  0
   56.3330   24.7211   46.6780 H   0  0  0  0  0  0  0  0  0  0  0  0
   55.8400   29.7250   45.9980 H   0  0  0  0  0  0  0  0  0  0  0  0
   56.6130   28.7606   43.2716 H   0  0  0  0  0  0  0  0  0  0  0  0
   54.9829   29.5303   43.6398 H   0  0  0  0  0  0  0  0  0  0  0  0
   56.9412   30.8584   42.5346 H   0  0  0  0  0  0  0  0  0  0  0  0
   55.7798   31.5565   43.7795 H   0  0  0  0  0  0  0  0  0  0  0  0
   57.4668   31.1467   45.4966 H   0  0  0  0  0  0  0  0  0  0  0  0
   58.6233   30.6738   44.2188 H   0  0  0  0  0  0  0  0  0  0  0  0
   58.7421   32.8180   43.3382 H   0  0  0  0  0  0  0  0  0  0  0  0
   57.0608   33.2276   43.8801 H   0  0  0  0  0  0  0  0  0  0  0  0
   59.3611   35.0835   44.2395 H   0  0  0  0  0  0  0  0  0  0  0  0
   60.2615   36.2397   46.2110 H   0  0  0  0  0  0  0  0  0  0  0  0
   59.9921   35.2944   48.4945 H   0  0  0  0  0  0  0  0  0  0  0  0
   58.7857   33.1402   48.7439 H   0  0  0  0  0  0  0  0  0  0  0  0
   57.8835   31.9824   46.7803 H   0  0  0  0  0  0  0  0  0  0  0  0
  1  2  1  0
  2  3  1  0
  3  4  1  0
  4  5  2  0
  5  6  1  0
  6  7  1  0
  7  8  1  0
  8  9  1  0
  9 10  1  0
 10 11  1  0
 11 12  1  0
 12 13  2  0
 13 14  1  0
 14 15  2  0
 15 16  1  0
 16 17  2  0
  6 18  2  0
 18 19  1  0
 18  3  1  0
 17 12  1  0
  1 20  1  0
  1 21  1  0
  1 22  1  0
  2 23  1  0
  2 24  1  0
  4 25  1  0
  7 26  1  0
  8 27  1  0
  8 28  1  0
  9 29  1  0
  9 30  1  0
 10 31  1  0
 10 32  1  0
 11 33  1  0
 11 34  1  0
 13 35  1  0
 14 36  1  0
 15 37  1  0
 16 38  1  0
 17 39  1  0
M  END
>  <smiles>  (16) 
CCn1cnc(NCCCCc2ccccc2)c1Br

>  <score_type>  (16) 
oracle

>  <origin>  (16) 
adg

>  <m_score__min__energy>  (16) 
-7.0499999999999998

>  <m_primary>  (16) 
energy

$$$$
18:0
     RDKit          3D

 40 41  0  0  1  0  0  0  0  0999 V2000
   62.9080   30.8030   51.0850 C   0  0  0  0  0  0  0  0  0  0  0  0
   62.4080   31.0650   49.6980 C   0  0  0  0  0  0  0  0  0  0  0  0
   62.9860   32.0940   48.9980 C   0  0  0  0  0  0  0  0  0  0  0  0
   62.5840   32.4000   47.7170 C   0  0  0  0  0  0  0  0  0  0  0  0
   63.3920   33.8290   46.7510 Br  0  0  0  0  0  0  0  0  0  0  0  0
   61.5790   31.6270   47.1790 C   0  0  0  0  0  0  0  0  0  0  0  0
   60.9900   30.5810   47.8890 C   0  0  0  0  0  0  0  0  0  0  0  0
   59.5550   29.6790   47.0280 Br  0  0  0  0  0  0  0  0  0  0  0  0
   61.3850   30.2680   49.1600 C   0  0  0  0  0  0  0  0  0  0  0  0
   60.8980   29.2850   49.9610 O   0  0  0  0  0  0  0  0  0  0  0  0
   59.6550   29.0680   50.4570 C   0  0  0  0  0  0  0  0  0  0  0  0
   58.7640   30.1830   50.8100 C   0  0  0  0  0  0  0  0  0  0  0  0
   57.5620   30.1470   51.0620 O   0  0  0  0  0  0  0  0  0  0  0  0
   59.3890   31.4780   50.8670 N   0  0  0  0  0  0  0  0  0  0  0  0
   58.6740   32.6770   51.1950 C   0  0  0  0  0  0  0  0  0  0  0  0
   59.4090   33.8380   50.6870 C   0  0  0  0  0  0  0  0  0  0  0  0
   59.9290   34.0040   49.5070 C   0  0  0  0  0  0  0  0  0  0  0  0
   59.2880   33.9440   48.2210 C   0  0  0  0  0  0  0  0  0  0  0  0
   58.3140   33.0890   47.8070 C   0  0  0  0  0  0  0  0  0  0  0  0
   57.8330   33.0400   46.4910 C   0  0  0  0  0  0  0  0  0  0  0  0
   58.3440   33.8920   45.5350 C   0  0  0  0  0  0  0  0  0  0  0  0
   59.3270   34.7600   45.9550 C   0  0  0  0  0  0  0  0  0  0  0  0
   59.8000   34.8070   47.2420 C   0  0  0  0  0  0  0  0  0  0  0  0
   62.1796   31.1847   51.8156 H   0  0  0  0  0  0  0  0  0  0  0  0
   63.0390   29.7204   51.2291 H   0  0  0  0  0  0  0  0  0  0  0  0
   63.8727   31.3115   51.2291 H   0  0  0  0  0  0  0  0  0  0  0  0
   63.7852   32.6853   49.4688 H   0  0  0  0  0  0  0  0  0  0  0  0
   61.2302   31.8412   46.1580 H   0  0  0  0  0  0  0  0  0  0  0  0
   59.1205   28.4698   49.7044 H   0  0  0  0  0  0  0  0  0  0  0  0
   59.8668   28.6149   51.4367 H   0  0  0  0  0  0  0  0  0  0  0  0
   60.4250   31.5920   50.6650 H   0  0  0  0  0  0  0  0  0  0  0  0
   57.6751   32.6456   50.7355 H   0  0  0  0  0  0  0  0  0  0  0  0
   58.5726   32.7564   52.2874 H   0  0  0  0  0  0  0  0  0  0  0  0
   59.5368   34.6731   51.3915 H   0  0  0  0  0  0  0  0  0  0  0  0
   61.0074   34.2200   49.4899 H   0  0  0  0  0  0  0  0  0  0  0  0
   57.8802   32.3984   48.5452 H   0  0  0  0  0  0  0  0  0  0  0  0
   57.0463   32.3203   46.2206 H   0  0  0  0  0  0  0  0  0  0  0  0
   57.9864   33.8791   44.4948 H   0  0  0  0  0  0  0  0  0  0  0  0
   59.7568   35.4541   45.2178 H   0  0  0  0  0  0  0  0  0  0  0  0
   60.5874   35.5277   47.5079 H   0  0  0  0  0  0  0  0  0  0  0  0
  1  2  1  0
  2  3  2  0
  3  4  1  0
  4  5  1  0
  4  6  2  0
  6  7  1  0
  7  8  1  0
  7  9  2  0
  9 10  1  0
 10 11  1  0
 11 12  1  0
 12 13  2  0
 12 14  1  0
 14 15  1  0
 15 16  1  0
 16 17  2  0
 17 18  1  0
 18 19  2  0
 19 20  1  0
 20 21  2  0
 21 22  1  0
 22 23  2  0
  9  2  1  0
 23 18  1  0
  1 24  1  0
  1 25  1  0
  1 26  1  0
  3 27  1  0
  6 28  1  0
 11 29  1  0
 11 30  1  0
 14 31  1  0
 15 32  1  0
 15 33  1  0
 16 34  1  0
 17 35  1  0
 19 36  1  0
 20 37  1  0
 21 38  1  0
 22 39  1  0
 23 40  1  0
M  END
>  <smiles>  (17) 
Cc1cc(Br)cc(Br)c1OCC(=O)NCC=Cc1ccccc1

>  <score_type>  (17) 
oracle

>  <origin>  (17) 
adg

>  <m_score__min__energy>  (17) 
-8.4499999999999993

>  <m_primary>  (17) 
energy

$$$$
19:0
     RDKit          3D

 50 51  0  0  0  0  0  0  0  0999 V2000
   59.8600   33.5400   52.4530 C   0  0  0  0  0  0  0  0  0  0  0  0
   60.9880   33.3990   51.4460 C   0  0  0  0  0  0  0  0  0  0  0  0
   60.4250   33.1520   50.1430 N   0  0  0  0  0  0  0  0  0  0  0  0
   59.1420   32.7890   50.0380 C   0  0  0  0  0  0  0  0  0  0  0  0
   58.5220   32.5320   48.8190 C   0  0  0  0  0  0  0  0  0  0  0  0
   59.2280   32.6470   47.6270 C   0  0  0  0  0  0  0  0  0  0  0  0
   58.6090   32.3580   46.3830 N   0  0  0  0  0  0  0  0  0  0  0  0
   57.7930   33.3120   45.6540 C   0  0  0  0  0  0  0  0  0  0  0  0
   57.9590   33.0940   44.1640 C   0  0  0  0  0  0  0  0  0  0  0  0
   57.4880   31.6870   43.8210 C   0  0  0  0  0  0  0  0  0  0  0  0
   56.8650   31.0430   44.8810 O   0  0  0  0  0  0  0  0  0  0  0  0
   57.1040   29.6920   44.9650 C   0  0  0  0  0  0  0  0  0  0  0  0
   58.5130   29.3340   44.5220 C   0  0  0  0  0  0  0  0  0  0  0  0
   59.4770   29.6310   45.5660 N   0  0  0  0  0  0  0  0  0  0  0  0
   59.0740   29.0980   46.8550 C   0  0  0  0  0  0  0  0  0  0  0  0
   60.7230   28.9670   45.2010 C   0  0  0  0  0  0  0  0  0  0  0  0
   60.5530   33.0240   47.7500 C   0  0  0  0  0  0  0  0  0  0  0  0
   61.3320   33.1640   46.6220 C   0  0  0  0  0  0  0  0  0  0  0  0
   62.6710   33.5450   46.7410 C   0  0  0  0  0  0  0  0  0  0  0  0
   63.2650   33.7930   47.9550 C   0  0  0  0  0  0  0  0  0  0  0  0
   62.4620   33.6450   49.0770 C   0  0  0  0  0  0  0  0  0  0  0  0
   61.1360   33.2710   48.9930 C   0  0  0  0  0  0  0  0  0  0  0  0
   60.2700   33.4887   53.4724 H   0  0  0  0  0  0  0  0  0  0  0  0
   59.3579   34.5079   52.3080 H   0  0  0  0  0  0  0  0  0  0  0  0
   59.1351   32.7255   52.3080 H   0  0  0  0  0  0  0  0  0  0  0  0
   61.5795   34.3261   51.4225 H   0  0  0  0  0  0  0  0  0  0  0  0
   61.6407   32.5617   51.7338 H   0  0  0  0  0  0  0  0  0  0  0  0
   58.5488   32.6889   50.9589 H   0  0  0  0  0  0  0  0  0  0  0  0
   57.4631   32.2350   48.7984 H   0  0  0  0  0  0  0  0  0  0  0  0
   58.7230   31.4220   45.9350 H   0  0  0  0  0  0  0  0  0  0  0  0
   56.7367   33.1740   45.9281 H   0  0  0  0  0  0  0  0  0  0  0  0
   58.1112   34.3334   45.9099 H   0  0  0  0  0  0  0  0  0  0  0  0
   57.3563   33.8308   43.6127 H   0  0  0  0  0  0  0  0  0  0  0  0
   59.0157   33.2145   43.8830 H   0  0  0  0  0  0  0  0  0  0  0  0
   56.7764   31.7512   42.9846 H   0  0  0  0  0  0  0  0  0  0  0  0
   58.3806   31.0988   43.5616 H   0  0  0  0  0  0  0  0  0  0  0  0
   56.9677   29.3715   46.0084 H   0  0  0  0  0  0  0  0  0  0  0  0
   56.3972   29.1799   44.2956 H   0  0  0  0  0  0  0  0  0  0  0  0
   58.5548   28.2599   44.2885 H   0  0  0  0  0  0  0  0  0  0  0  0
   58.7636   29.9312   43.6329 H   0  0  0  0  0  0  0  0  0  0  0  0
   59.5275   29.6978   47.6578 H   0  0  0  0  0  0  0  0  0  0  0  0
   57.9782   29.1379   46.9419 H   0  0  0  0  0  0  0  0  0  0  0  0
   59.4110   28.0545   46.9419 H   0  0  0  0  0  0  0  0  0  0  0  0
   61.2654   28.6780   46.1133 H   0  0  0  0  0  0  0  0  0  0  0  0
   60.4994   28.0685   44.6072 H   0  0  0  0  0  0  0  0  0  0  0  0
   61.3441   29.6537   44.6072 H   0  0  0  0  0  0  0  0  0  0  0  0
   60.8998   32.9759   45.6281 H   0  0  0  0  0  0  0  0  0  0  0  0
   63.2735   33.6506   45.8267 H   0  0  0  0  0  0  0  0  0  0  0  0
   64.3205   34.0928   48.0332 H   0  0  0  0  0  0  0  0  0  0  0  0
   62.8980   33.8325   50.0693 H   0  0  0  0  0  0  0  0  0  0  0  0
  1  2  1  0
  2  3  1  0
  3  4  2  0
  4  5  1  0
  5  6  2  0
  6  7  1  0
  7  8  1  0
  8  9  1  0
  9 10  1  0
 10 11  1  0
 11 12  1  0
 12 13  1  0
 13 14  1  0
 14 15  1  0
 14 16  1  0
  6 17  1  0
 17 18  2  0
 18 19  1  0
 19 20  2  0
 20 21  1  0
 21 22  2  0
 22  3  1  0
 22 17  1  0
  1 23  1  0
  1 24  1  0
  1 25  1  0
  2 26  1  0
  2 27  1  0
  4 28  1  0
  5 29  1  0
  7 30  1  0
  8 31  1  0
  8 32  1  0
  9 33  1  0
  9 34  1  0
 10 35  1  0
 10 36  1  0
 12 37  1  0
 12 38  1  0
 13 39  1  0
 13 40  1  0
 15 41  1  0
 15 42  1  0
 15 43  1  0
 16 44  1  0
 16 45  1  0
 16 46  1  0
 18 47  1  0
 19 48  1  0
 20 49  1  0
 21 50  1  0
M  CHG  1   3   1
M  END
>  <smiles>  (18) 
CC[n+]1ccc(NCCCOCCN(C)C)c2ccccc21

>  <score_type>  (18) 
oracle

>  <origin>  (18) 
adg

>  <m_score__min__energy>  (18) 
-5.1500000000000004

>  <m_primary>  (18) 
energy

$$$$
20:0
     RDKit          3D

 32 34  0  0  0  0  0  0  0  0999 V2000
   59.3560   29.7080   44.8320 C   0  0  0  0  0  0  0  0  0  0  0  0
   57.8890   29.7780   44.8190 N   0  0  0  0  0  0  0  0  0  0  0  0
   57.1780   30.8320   44.3370 C   0  0  0  0  0  0  0  0  0  0  0  0
   57.9520   32.3000   43.6310 S   0  0  0  0  0  0  0  0  0  0  0  0
   57.5930   33.7490   44.6580 C   0  0  0  0  0  0  0  0  0  0  0  0
   58.2910   33.7400   45.9510 C   0  0  0  0  0  0  0  0  0  0  0  0
   57.9400   32.7900   46.8820 C   0  0  0  0  0  0  0  0  0  0  0  0
   58.5470   32.7260   48.1180 C   0  0  0  0  0  0  0  0  0  0  0  0
   59.5290   33.6580   48.3930 C   0  0  0  0  0  0  0  0  0  0  0  0
   59.8760   34.6100   47.4500 C   0  0  0  0  0  0  0  0  0  0  0  0
   59.2710   34.6810   46.2020 C   0  0  0  0  0  0  0  0  0  0  0  0
   59.6220   35.6260   45.2810 F   0  0  0  0  0  0  0  0  0  0  0  0
   55.8570   30.5910   44.4700 N   0  0  0  0  0  0  0  0  0  0  0  0
   55.7770   29.3980   45.0320 N   0  0  0  0  0  0  0  0  0  0  0  0
   57.0090   28.8930   45.2480 C   0  0  0  0  0  0  0  0  0  0  0  0
   57.2630   27.6090   45.8570 C   0  0  0  0  0  0  0  0  0  0  0  0
   58.4720   27.1550   46.4830 C   0  0  0  0  0  0  0  0  0  0  0  0
   58.4710   25.9360   46.9740 C   0  0  0  0  0  0  0  0  0  0  0  0
   57.3470   25.1410   46.8830 C   0  0  0  0  0  0  0  0  0  0  0  0
   56.1430   26.2290   46.0040 S   0  0  0  0  0  0  0  0  0  0  0  0
   59.7131   29.6910   45.8723 H   0  0  0  0  0  0  0  0  0  0  0  0
   59.6840   28.7932   44.3167 H   0  0  0  0  0  0  0  0  0  0  0  0
   59.7696   30.5874   44.3167 H   0  0  0  0  0  0  0  0  0  0  0  0
   57.8957   34.6507   44.1055 H   0  0  0  0  0  0  0  0  0  0  0  0
   56.5144   33.7332   44.8731 H   0  0  0  0  0  0  0  0  0  0  0  0
   57.1538   32.0619   46.6335 H   0  0  0  0  0  0  0  0  0  0  0  0
   58.2607   31.9627   48.8565 H   0  0  0  0  0  0  0  0  0  0  0  0
   60.0385   33.6434   49.3678 H   0  0  0  0  0  0  0  0  0  0  0  0
   60.6616   35.3387   47.6988 H   0  0  0  0  0  0  0  0  0  0  0  0
   59.3610   27.7995   46.5490 H   0  0  0  0  0  0  0  0  0  0  0  0
   59.3758   25.5454   47.4627 H   0  0  0  0  0  0  0  0  0  0  0  0
   57.2038   24.1122   47.2451 H   0  0  0  0  0  0  0  0  0  0  0  0
  1  2  1  0
  2  3  1  0
  3  4  1  0
  4  5  1  0
  5  6  1  0
  6  7  2  0
  7  8  1  0
  8  9  2  0
  9 10  1  0
 10 11  2  0
 11 12  1  0
  3 13  2  0
 13 14  1  0
 14 15  2  0
 15 16  1  0
 16 17  2  0
 17 18  1  0
 18 19  2  0
 19 20  1  0
 15  2  1  0
 20 16  1  0
 11  6  1  0
  1 21  1  0
  1 22  1  0
  1 23  1  0
  5 24  1  0
  5 25  1  0
  7 26  1  0
  8 27  1  0
  9 28  1  0
 10 29  1  0
 17 30  1  0
 18 31  1  0
 19 32  1  0
M  END
>  <smiles>  (19) 
Cn1c(SCc2ccccc2F)nnc1-c1cccs1

>  <score_type>  (19) 
oracle

>  <origin>  (19) 
adg

>  <m_score__min__energy>  (19) 
-7.9000000000000004

>  <m_primary>  (19) 
energy

$$$$
24:0
     RDKit          3D

 62 66  0  0  1  0  0  0  0  0999 V2000
   61.2730   32.7530   53.0930 C   0  0  0  0  0  0  0  0  0  0  0  0
   60.0550   32.4090   52.5030 O   0  0  0  0  0  0  0  0  0  0  0  0
   59.7140   32.7320   51.1990 C   0  0  0  0  0  0  0  0  0  0  0  0
   58.8310   32.0020   50.4330 C   0  0  0  0  0  0  0  0  0  0  0  0
   58.5340   32.3870   49.1230 C   0  0  0  0  0  0  0  0  0  0  0  0
   59.1190   33.5140   48.5540 C   0  0  0  0  0  0  0  0  0  0  0  0
   58.7970   33.8780   47.2190 N   0  0  0  0  0  0  0  0  0  0  0  0
   59.3930   35.0950   46.6170 C   0  0  0  0  0  0  0  0  0  0  0  0
   59.0890   34.9760   45.1320 C   0  0  0  0  0  0  0  0  0  0  0  0
   58.9560   33.5000   45.0400 C   0  0  2  0  0  0  0  0  0  0  0  0
   58.0290   32.9580   44.0140 C   0  0  0  0  0  0  0  0  0  0  0  0
   57.6280   31.7050   44.6300 N   0  0  0  0  0  0  0  0  0  0  0  0
   58.5320   30.6670   44.1600 C   0  0  0  0  0  0  0  0  0  0  0  0
   58.5130   29.4890   45.0870 C   0  0  0  0  0  0  0  0  0  0  0  0
   59.8120   29.2790   45.7620 C   0  0  0  0  0  0  0  0  0  0  0  0
   60.0870   29.9370   47.3740 S   0  0  0  0  0  0  0  0  0  0  0  0
   61.2660   31.2200   47.5540 C   0  0  0  0  0  0  0  0  0  0  0  0
   61.6710   32.2280   46.7720 N   0  0  0  0  0  0  0  0  0  0  0  0
   62.6100   32.9590   47.3430 N   0  0  0  0  0  0  0  0  0  0  0  0
   62.8440   32.4220   48.5510 C   0  0  0  0  0  0  0  0  0  0  0  0
   63.8150   32.9100   49.5390 C   0  0  0  0  0  0  0  0  0  0  0  0
   65.0500   32.3210   49.7180 C   0  0  0  0  0  0  0  0  0  0  0  0
   65.9020   32.8620   50.6860 C   0  0  0  0  0  0  0  0  0  0  0  0
   65.4820   33.9690   51.4330 C   0  0  0  0  0  0  0  0  0  0  0  0
   64.2720   34.5220   51.2370 N   0  0  0  0  0  0  0  0  0  0  0  0
   63.4250   34.0120   50.3000 C   0  0  0  0  0  0  0  0  0  0  0  0
   62.0310   31.3640   48.6880 N   0  0  0  0  0  0  0  0  0  0  0  0
   61.9980   30.5260   49.8730 C   0  0  0  0  0  0  0  0  0  0  0  0
   57.7670   31.8860   46.0850 C   0  0  0  0  0  0  0  0  0  0  0  0
   57.9740   33.3250   46.2210 C   0  0  1  0  0  0  0  0  0  0  0  0
   59.9930   34.2120   49.3530 C   0  0  0  0  0  0  0  0  0  0  0  0
   60.3020   33.8510   50.6490 C   0  0  0  0  0  0  0  0  0  0  0  0
   61.1711   32.7242   54.1879 H   0  0  0  0  0  0  0  0  0  0  0  0
   62.0478   32.0385   52.7779 H   0  0  0  0  0  0  0  0  0  0  0  0
   61.5596   33.7672   52.7779 H   0  0  0  0  0  0  0  0  0  0  0  0
   58.3546   31.1061   50.8577 H   0  0  0  0  0  0  0  0  0  0  0  0
   57.8255   31.7888   48.5313 H   0  0  0  0  0  0  0  0  0  0  0  0
   58.9321   36.0014   47.0364 H   0  0  0  0  0  0  0  0  0  0  0  0
   60.4717   35.1742   46.8171 H   0  0  0  0  0  0  0  0  0  0  0  0
   58.1566   35.4920   44.8592 H   0  0  0  0  0  0  0  0  0  0  0  0
   59.8332   35.4269   44.4590 H   0  0  0  0  0  0  0  0  0  0  0  0
   59.9569   33.0586   44.9244 H   0  0  0  0  0  0  0  0  0  0  0  0
   57.1676   33.6238   43.8570 H   0  0  0  0  0  0  0  0  0  0  0  0
   58.4760   32.8473   43.0150 H   0  0  0  0  0  0  0  0  0  0  0  0
   58.2187   30.3423   43.1568 H   0  0  0  0  0  0  0  0  0  0  0  0
   59.5530   31.0751   44.1272 H   0  0  0  0  0  0  0  0  0  0  0  0
   57.7404   29.6547   45.8523 H   0  0  0  0  0  0  0  0  0  0  0  0
   58.3002   28.5932   44.4851 H   0  0  0  0  0  0  0  0  0  0  0  0
   59.9597   28.1913   45.8340 H   0  0  0  0  0  0  0  0  0  0  0  0
   60.5160   29.8459   45.1351 H   0  0  0  0  0  0  0  0  0  0  0  0
   65.3553   31.4517   49.1171 H   0  0  0  0  0  0  0  0  0  0  0  0
   66.8948   32.4210   50.8592 H   0  0  0  0  0  0  0  0  0  0  0  0
   66.1535   34.3939   52.1936 H   0  0  0  0  0  0  0  0  0  0  0  0
   62.4362   34.4679   50.1439 H   0  0  0  0  0  0  0  0  0  0  0  0
   62.0230   31.1602   50.7714 H   0  0  0  0  0  0  0  0  0  0  0  0
   61.0756   29.9267   49.8727 H   0  0  0  0  0  0  0  0  0  0  0  0
   62.8705   29.8561   49.8727 H   0  0  0  0  0  0  0  0  0  0  0  0
   56.8556   31.5666   46.6116 H   0  0  0  0  0  0  0  0  0  0  0  0
   58.5823   31.2888   46.5192 H   0  0  0  0  0  0  0  0  0  0  0  0
   56.9766   33.7682   46.3576 H   0  0  0  0  0  0  0  0  0  0  0  0
   60.4735   35.1093   48.9359 H   0  0  0  0  0  0  0  0  0  0  0  0
   61.0113   34.4511   51.2379 H   0  0  0  0  0  0  0  0  0  0  0  0
  1  2  1  0
  2  3  1  0
  3  4  2  0
  4  5  1  0
  5  6  2  0
  6  7  1  0
  7  8  1  0
  8  9  1  0
  9 10  1  0
 10 11  1  0
 11 12  1  0
 12 13  1  0
 13 14  1  0
 14 15  1  0
 15 16  1  0
 16 17  1  0
 17 18  2  0
 18 19  1  0
 19 20  2  0
 20 21  1  0
 21 22  2  0
 22 23  1  0
 23 24  2  0
 24 25  1  0
 25 26  2  0
 20 27  1  0
 27 28  1  0
 12 29  1  0
 29 30  1  0
  6 31  1  0
 31 32  2  0
 32  3  1  0
 30  7  1  0
 30 10  1  0
 27 17  1  0
 26 21  1  0
  1 33  1  0
  1 34  1  0
  1 35  1  0
  4 36  1  0
  5 37  1  0
  8 38  1  0
  8 39  1  0
  9 40  1  0
  9 41  1  0
 10 42  1  1
 11 43  1  0
 11 44  1  0
 13 45  1  0
 13 46  1  0
 14 47  1  0
 14 48  1  0
 15 49  1  0
 15 50  1  0
 22 51  1  0
 23 52  1  0
 24 53  1  0
 26 54  1  0
 28 55  1  0
 28 56  1  0
 28 57  1  0
 29 58  1  0
 29 59  1  0
 30 60  1  6
 31 61  1  0
 32 62  1  0
M  END
>  <smiles>  (20) 
COc1ccc(N2CCC3CN(CCCSc4nnc(-c5cccnc5)n4C)CC32)cc1

>  <score_type>  (20) 
oracle

>  <origin>  (20) 
adg

>  <m_score__min__energy>  (20) 
-10.75

>  <m_primary>  (20) 
energy

$$$$
25:0
     RDKit          3D

 36 37  0  0  0  0  0  0  0  0999 V2000
   58.9040   34.2410   46.9810 C   0  0  0  0  0  0  0  0  0  0  0  0
   59.3480   34.3500   45.5020 C   0  0  0  0  0  0  0  0  0  0  0  0
   58.1430   34.1210   44.7050 C   0  0  0  0  0  0  0  0  0  0  0  0
   57.6360   32.7530   44.5570 C   0  0  0  0  0  0  0  0  0  0  0  0
   57.0650   32.0890   45.6160 N   0  0  0  0  0  0  0  0  0  0  0  0
   56.7030   30.8950   45.1970 N   0  0  0  0  0  0  0  0  0  0  0  0
   57.0240   30.7830   43.9180 C   0  0  0  0  0  0  0  0  0  0  0  0
   56.7440   29.3580   42.8780 S   0  0  0  0  0  0  0  0  0  0  0  0
   57.7660   28.0010   43.4800 C   0  0  0  0  0  0  0  0  0  0  0  0
   57.6720   27.9030   44.9600 C   0  0  0  0  0  0  0  0  0  0  0  0
   56.7620   27.2540   45.5440 O   0  0  0  0  0  0  0  0  0  0  0  0
   58.6680   28.5820   45.7830 C   0  0  0  0  0  0  0  0  0  0  0  0
   59.8220   29.0850   45.2050 C   0  0  0  0  0  0  0  0  0  0  0  0
   60.7710   29.7350   46.0020 C   0  0  0  0  0  0  0  0  0  0  0  0
   60.5800   29.8850   47.3550 C   0  0  0  0  0  0  0  0  0  0  0  0
   61.5290   30.5240   48.0990 F   0  0  0  0  0  0  0  0  0  0  0  0
   59.4320   29.3840   47.9300 C   0  0  0  0  0  0  0  0  0  0  0  0
   58.4810   28.7350   47.1420 C   0  0  0  0  0  0  0  0  0  0  0  0
   57.6040   31.9220   43.4990 N   0  0  0  0  0  0  0  0  0  0  0  0
   58.0940   32.2130   42.1930 C   0  0  0  0  0  0  0  0  0  0  0  0
   59.7611   34.4514   47.6376 H   0  0  0  0  0  0  0  0  0  0  0  0
   58.1036   34.9693   47.1782 H   0  0  0  0  0  0  0  0  0  0  0  0
   58.5318   33.2248   47.1782 H   0  0  0  0  0  0  0  0  0  0  0  0
   59.7576   35.3503   45.2980 H   0  0  0  0  0  0  0  0  0  0  0  0
   60.1363   33.6214   45.2617 H   0  0  0  0  0  0  0  0  0  0  0  0
   57.3375   34.7153   45.1610 H   0  0  0  0  0  0  0  0  0  0  0  0
   58.4450   34.4014   43.6851 H   0  0  0  0  0  0  0  0  0  0  0  0
   57.4193   27.0585   43.0310 H   0  0  0  0  0  0  0  0  0  0  0  0
   58.8128   28.1890   43.1992 H   0  0  0  0  0  0  0  0  0  0  0  0
   59.9917   28.9739   44.1239 H   0  0  0  0  0  0  0  0  0  0  0  0
   61.6855   30.1327   45.5378 H   0  0  0  0  0  0  0  0  0  0  0  0
   59.2653   29.4960   49.0115 H   0  0  0  0  0  0  0  0  0  0  0  0
   57.5681   28.3391   47.6110 H   0  0  0  0  0  0  0  0  0  0  0  0
   59.0374   32.7732   42.2717 H   0  0  0  0  0  0  0  0  0  0  0  0
   58.2701   31.2730   41.6495 H   0  0  0  0  0  0  0  0  0  0  0  0
   57.3528   32.8174   41.6495 H   0  0  0  0  0  0  0  0  0  0  0  0
  1  2  1  0
  2  3  1  0
  3  4  1  0
  4  5  2  0
  5  6  1  0
  6  7  2  0
  7  8  1  0
  8  9  1  0
  9 10  1  0
 10 11  2  0
 10 12  1  0
 12 13  2  0
 13 14  1  0
 14 15  2  0
 15 16  1  0
 15 17  1  0
 17 18  2  0
  7 19  1  0
 19 20  1  0
 19  4  1  0
 18 12  1  0
  1 21  1  0
  1 22  1  0
  1 23  1  0
  2 24  1  0
  2 25  1  0
  3 26  1  0
  3 27  1  0
  9 28  1  0
  9 29  1  0
 13 30  1  0
 14 31  1  0
 17 32  1  0
 18 33  1  0
 20 34  1  0
 20 35  1  0
 20 36  1  0
M  END
>  <smiles>  (21) 
CCCc1nnc(SCC(=O)c2ccc(F)cc2)n1C

>  <score_type>  (21) 
oracle

>  <origin>  (21) 
adg

>  <m_score__min__energy>  (21) 
-7.4699999999999998

>  <m_primary>  (21) 
energy

$$$$
26:0
     RDKit          3D

 84 87  0  0  0  0  0  0  0  0999 V2000
   60.7690   29.3360   45.6330 C   0  0  0  0  0  0  0  0  0  0  0  0
   60.6540   30.3340   46.7580 C   0  0  0  0  0  0  0  0  0  0  0  0
   59.4870   30.3240   47.4350 O   0  0  0  0  0  0  0  0  0  0  0  0
   59.4430   30.2720   48.7830 C   0  0  0  0  0  0  0  0  0  0  0  0
   60.3020   29.2620   49.4580 C   0  0  0  0  0  0  0  0  0  0  0  0
   61.5130   29.6180   49.9360 O   0  0  0  0  0  0  0  0  0  0  0  0
   61.7060   29.6810   51.2810 C   0  0  0  0  0  0  0  0  0  0  0  0
   63.0760   30.2410   51.6510 C   0  0  0  0  0  0  0  0  0  0  0  0
   63.0880   31.6470   51.5020 O   0  0  0  0  0  0  0  0  0  0  0  0
   62.8490   32.2110   50.2580 C   0  0  0  0  0  0  0  0  0  0  0  0
   61.6160   32.6980   49.8760 C   0  0  0  0  0  0  0  0  0  0  0  0
   61.3750   33.2540   48.6520 C   0  0  0  0  0  0  0  0  0  0  0  0
   62.4630   33.3120   47.7750 C   0  0  0  0  0  0  0  0  0  0  0  0
   63.7100   32.8350   48.1240 C   0  0  0  0  0  0  0  0  0  0  0  0
   63.9150   32.2730   49.3850 C   0  0  0  0  0  0  0  0  0  0  0  0
   65.1400   31.7940   49.7560 O   0  0  0  0  0  0  0  0  0  0  0  0
   66.2240   32.5520   50.1930 C   0  0  0  0  0  0  0  0  0  0  0  0
   62.3260   33.8950   46.4140 C   0  0  0  0  0  0  0  0  0  0  0  0
   60.8700   33.7370   46.0250 C   0  0  0  0  0  0  0  0  0  0  0  0
   59.9720   34.2950   46.9690 N   0  0  0  0  0  0  0  0  0  0  0  0
   58.6450   34.4610   46.4830 C   0  0  0  0  0  0  0  0  0  0  0  0
   58.5860   34.6680   45.0010 C   0  0  0  0  0  0  0  0  0  0  0  0
   57.9380   33.5120   44.3160 C   0  0  0  0  0  0  0  0  0  0  0  0
   57.2090   32.6000   45.2500 C   0  0  0  0  0  0  0  0  0  0  0  0
   57.7880   31.2530   45.2520 N   0  0  0  0  0  0  0  0  0  0  0  0
   57.0310   30.1170   44.8700 C   0  0  0  0  0  0  0  0  0  0  0  0
   55.8160   30.2050   44.5090 O   0  0  0  0  0  0  0  0  0  0  0  0
   57.6490   28.7950   44.8860 C   0  0  0  0  0  0  0  0  0  0  0  0
   57.5870   27.8260   45.8870 C   0  0  0  0  0  0  0  0  0  0  0  0
   58.3030   26.7380   45.4970 N   0  0  0  0  0  0  0  0  0  0  0  0
   58.5030   25.5090   46.2290 C   0  0  0  0  0  0  0  0  0  0  0  0
   58.0550   24.3950   45.3360 C   0  0  0  0  0  0  0  0  0  0  0  0
   58.8310   23.2440   45.3180 C   0  0  0  0  0  0  0  0  0  0  0  0
   58.5040   22.1550   44.5240 C   0  0  0  0  0  0  0  0  0  0  0  0
   57.3570   22.2780   43.7480 C   0  0  0  0  0  0  0  0  0  0  0  0
   56.9960   21.1040   42.8860 C   0  0  0  0  0  0  0  0  0  0  0  0
   56.5790   23.4220   43.7610 C   0  0  0  0  0  0  0  0  0  0  0  0
   56.9260   24.5020   44.5640 C   0  0  0  0  0  0  0  0  0  0  0  0
   58.7870   27.0280   44.3030 N   0  0  0  0  0  0  0  0  0  0  0  0
   58.4110   28.2380   43.9280 N   0  0  0  0  0  0  0  0  0  0  0  0
   60.0360   33.7630   48.2910 C   0  0  0  0  0  0  0  0  0  0  0  0
   60.8855   28.3249   46.0503 H   0  0  0  0  0  0  0  0  0  0  0  0
   59.8604   29.3748   45.0141 H   0  0  0  0  0  0  0  0  0  0  0  0
   61.6449   29.5804   45.0141 H   0  0  0  0  0  0  0  0  0  0  0  0
   61.4621   30.1284   47.4754 H   0  0  0  0  0  0  0  0  0  0  0  0
   60.7166   31.3253   46.2854 H   0  0  0  0  0  0  0  0  0  0  0  0
   59.7384   31.2618   49.1611 H   0  0  0  0  0  0  0  0  0  0  0  0
   58.4127   29.9676   49.0191 H   0  0  0  0  0  0  0  0  0  0  0  0
   59.7256   28.8736   50.3106 H   0  0  0  0  0  0  0  0  0  0  0  0
   60.5462   28.5568   48.6499 H   0  0  0  0  0  0  0  0  0  0  0  0
   60.9311   30.3278   51.7183 H   0  0  0  0  0  0  0  0  0  0  0  0
   61.6477   28.6555   51.6746 H   0  0  0  0  0  0  0  0  0  0  0  0
   63.3024   29.9850   52.6966 H   0  0  0  0  0  0  0  0  0  0  0  0
   63.8333   29.8040   50.9836 H   0  0  0  0  0  0  0  0  0  0  0  0
   60.7848   32.6353   50.5937 H   0  0  0  0  0  0  0  0  0  0  0  0
   64.5428   32.8977   47.4081 H   0  0  0  0  0  0  0  0  0  0  0  0
   66.2427   32.5651   51.2928 H   0  0  0  0  0  0  0  0  0  0  0  0
   67.1573   32.1087   49.8157 H   0  0  0  0  0  0  0  0  0  0  0  0
   66.1279   33.5808   49.8157 H   0  0  0  0  0  0  0  0  0  0  0  0
   62.6030   34.9595   46.4265 H   0  0  0  0  0  0  0  0  0  0  0  0
   62.9877   33.3894   45.6953 H   0  0  0  0  0  0  0  0  0  0  0  0
   60.7117   34.2344   45.0567 H   0  0  0  0  0  0  0  0  0  0  0  0
   60.6617   32.6580   45.9767 H   0  0  0  0  0  0  0  0  0  0  0  0
   58.0645   33.5612   46.7346 H   0  0  0  0  0  0  0  0  0  0  0  0
   58.2312   35.3628   46.9578 H   0  0  0  0  0  0  0  0  0  0  0  0
   58.0077   35.5795   44.7896 H   0  0  0  0  0  0  0  0  0  0  0  0
   59.6147   34.7624   44.6231 H   0  0  0  0  0  0  0  0  0  0  0  0
   57.2208   33.9013   43.5784 H   0  0  0  0  0  0  0  0  0  0  0  0
   58.7392   32.9225   43.8464 H   0  0  0  0  0  0  0  0  0  0  0  0
   57.2639   33.0135   46.2678 H   0  0  0  0  0  0  0  0  0  0  0  0
   56.1650   32.5248   44.9119 H   0  0  0  0  0  0  0  0  0  0  0  0
   58.7860   31.0790   45.5350 H   0  0  0  0  0  0  0  0  0  0  0  0
   57.0456   27.9259   46.8393 H   0  0  0  0  0  0  0  0  0  0  0  0
   59.5668   25.3875   46.4812 H   0  0  0  0  0  0  0  0  0  0  0  0
   57.9334   25.5134   47.1700 H   0  0  0  0  0  0  0  0  0  0  0  0
   59.7295   23.1944   45.9506 H   0  0  0  0  0  0  0  0  0  0  0  0
   59.1190   21.2431   44.5090 H   0  0  0  0  0  0  0  0  0  0  0  0
   56.7327   20.2477   43.5243 H   0  0  0  0  0  0  0  0  0  0  0  0
   56.1369   21.3658   42.2509 H   0  0  0  0  0  0  0  0  0  0  0  0
   57.8538   20.8379   42.2509 H   0  0  0  0  0  0  0  0  0  0  0  0
   55.6790   23.4772   43.1310 H   0  0  0  0  0  0  0  0  0  0  0  0
   56.3135   25.4156   44.5801 H   0  0  0  0  0  0  0  0  0  0  0  0
   59.7615   34.5574   49.0007 H   0  0  0  0  0  0  0  0  0  0  0  0
   59.3414   32.9111   48.3333 H   0  0  0  0  0  0  0  0  0  0  0  0
  1  2  1  0
  2  3  1  0
  3  4  1  0
  4  5  1  0
  5  6  1  0
  6  7  1  0
  7  8  1  0
  8  9  1  0
  9 10  1  0
 10 11  2  0
 11 12  1  0
 12 13  2  0
 13 14  1  0
 14 15  2  0
 15 16  1  0
 16 17  1  0
 13 18  1  0
 18 19  1  0
 19 20  1  0
 20 21  1  0
 21 22  1  0
 22 23  1  0
 23 24  1  0
 24 25  1  0
 25 26  1  0
 26 27  2  0
 26 28  1  0
 28 29  2  0
 29 30  1  0
 30 31  1  0
 31 32  1  0
 32 33  2  0
 33 34  1  0
 34 35  2  0
 35 36  1  0
 35 37  1  0
 37 38  2  0
 30 39  1  0
 39 40  2  0
 20 41  1  0
 15 10  1  0
 40 28  1  0
 41 12  1  0
 38 32  1  0
  1 42  1  0
  1 43  1  0
  1 44  1  0
  2 45  1  0
  2 46  1  0
  4 47  1  0
  4 48  1  0
  5 49  1  0
  5 50  1  0
  7 51  1  0
  7 52  1  0
  8 53  1  0
  8 54  1  0
 11 55  1  0
 14 56  1  0
 17 57  1  0
 17 58  1  0
 17 59  1  0
 18 60  1  0
 18 61  1  0
 19 62  1  0
 19 63  1  0
 21 64  1  0
 21 65  1  0
 22 66  1  0
 22 67  1  0
 23 68  1  0
 23 69  1  0
 24 70  1  0
 24 71  1  0
 25 72  1  0
 29 73  1  0
 31 74  1  0
 31 75  1  0
 33 76  1  0
 34 77  1  0
 36 78  1  0
 36 79  1  0
 36 80  1  0
 37 81  1  0
 38 82  1  0
 41 83  1  0
 41 84  1  0
M  END
>  <smiles>  (22) 
CCOCCOCCOc1cc2c(cc1OC)CCN(CCCCNC(=O)c1cn(Cc3ccc(C)cc3)nn1)C2

>  <score_type>  (22) 
oracle

>  <origin>  (22) 
adg

>  <m_score__min__energy>  (22) 
-9.1500000000000004

>  <m_primary>  (22) 
energy

$$$$
27:0
     RDKit          3D

 60 62  0  0  0  0  0  0  0  0999 V2000
   59.2190   33.7930   53.6310 C   0  0  0  0  0  0  0  0  0  0  0  0
   58.5320   34.1930   52.3620 C   0  0  0  0  0  0  0  0  0  0  0  0
   58.0800   33.1670   51.5770 O   0  0  0  0  0  0  0  0  0  0  0  0
   57.1600   32.3350   52.1600 C   0  0  0  0  0  0  0  0  0  0  0  0
   57.5370   30.8600   52.0940 C   0  0  0  0  0  0  0  0  0  0  0  0
   58.2710   30.5450   50.9080 N   0  0  0  0  0  0  0  0  0  0  0  0
   59.0650   29.3410   50.9790 C   0  0  0  0  0  0  0  0  0  0  0  0
   60.2210   29.4550   50.0490 C   0  0  0  0  0  0  0  0  0  0  0  0
   59.7710   29.4480   48.5780 C   0  0  0  0  0  0  0  0  0  0  0  0
   58.8310   30.4830   48.2840 N   0  0  0  0  0  0  0  0  0  0  0  0
   58.6480   31.0850   47.0320 C   0  0  0  0  0  0  0  0  0  0  0  0
   58.2220   30.2490   45.9900 C   0  0  0  0  0  0  0  0  0  0  0  0
   58.0030   28.9100   46.2510 C   0  0  0  0  0  0  0  0  0  0  0  0
   57.5780   28.0620   45.2350 C   0  0  0  0  0  0  0  0  0  0  0  0
   57.3930   28.6080   44.0050 C   0  0  0  0  0  0  0  0  0  0  0  0
   57.6130   29.9640   43.7380 C   0  0  0  0  0  0  0  0  0  0  0  0
   58.0350   30.8100   44.7360 C   0  0  0  0  0  0  0  0  0  0  0  0
   58.2330   32.0920   44.4590 N   0  0  0  0  0  0  0  0  0  0  0  0
   58.0590   32.7170   43.1780 C   0  0  0  0  0  0  0  0  0  0  0  0
   58.6440   32.8890   45.4740 C   0  0  0  0  0  0  0  0  0  0  0  0
   58.8610   34.2520   45.2410 C   0  0  0  0  0  0  0  0  0  0  0  0
   59.2710   35.1110   46.2320 C   0  0  0  0  0  0  0  0  0  0  0  0
   59.4710   34.5980   47.5030 C   0  0  0  0  0  0  0  0  0  0  0  0
   59.2720   33.2680   47.7910 C   0  0  0  0  0  0  0  0  0  0  0  0
   59.4590   32.7190   49.0420 O   0  0  0  0  0  0  0  0  0  0  0  0
   60.6560   32.9760   49.7370 C   0  0  0  0  0  0  0  0  0  0  0  0
   61.8980   32.5860   48.9940 C   0  0  0  0  0  0  0  0  0  0  0  0
   58.8560   32.4200   46.7550 C   0  0  0  0  0  0  0  0  0  0  0  0
   58.6277   34.1373   54.4923 H   0  0  0  0  0  0  0  0  0  0  0  0
   59.3151   32.6978   53.6664 H   0  0  0  0  0  0  0  0  0  0  0  0
   60.2189   34.2501   53.6664 H   0  0  0  0  0  0  0  0  0  0  0  0
   57.6676   34.8184   52.6296 H   0  0  0  0  0  0  0  0  0  0  0  0
   59.2940   34.7126   51.7625 H   0  0  0  0  0  0  0  0  0  0  0  0
   57.0559   32.6195   53.2175 H   0  0  0  0  0  0  0  0  0  0  0  0
   56.2212   32.4515   51.5987 H   0  0  0  0  0  0  0  0  0  0  0  0
   58.1548   30.6123   52.9698 H   0  0  0  0  0  0  0  0  0  0  0  0
   56.6069   30.2728   52.0827 H   0  0  0  0  0  0  0  0  0  0  0  0
   58.8280   31.3920   50.6360 H   0  0  0  0  0  0  0  0  0  0  0  0
   59.4329   29.2042   52.0066 H   0  0  0  0  0  0  0  0  0  0  0  0
   58.4476   28.4767   50.6931 H   0  0  0  0  0  0  0  0  0  0  0  0
   60.7525   30.3959   50.2547 H   0  0  0  0  0  0  0  0  0  0  0  0
   60.8778   28.5876   50.2107 H   0  0  0  0  0  0  0  0  0  0  0  0
   60.6557   29.5842   47.9387 H   0  0  0  0  0  0  0  0  0  0  0  0
   59.2753   28.4848   48.3868 H   0  0  0  0  0  0  0  0  0  0  0  0
   58.2180   30.8290   49.0820 H   0  0  0  0  0  0  0  0  0  0  0  0
   58.1652   28.5144   47.2645 H   0  0  0  0  0  0  0  0  0  0  0  0
   57.3988   26.9925   45.4194 H   0  0  0  0  0  0  0  0  0  0  0  0
   57.0562   27.9572   43.1846 H   0  0  0  0  0  0  0  0  0  0  0  0
   57.4472   30.3553   42.7234 H   0  0  0  0  0  0  0  0  0  0  0  0
   57.7664   33.7679   43.3195 H   0  0  0  0  0  0  0  0  0  0  0  0
   59.0039   32.6718   42.6166 H   0  0  0  0  0  0  0  0  0  0  0  0
   57.2734   32.1901   42.6166 H   0  0  0  0  0  0  0  0  0  0  0  0
   58.6975   34.6496   44.2285 H   0  0  0  0  0  0  0  0  0  0  0  0
   59.4360   36.1780   46.0215 H   0  0  0  0  0  0  0  0  0  0  0  0
   59.7988   35.2746   48.3060 H   0  0  0  0  0  0  0  0  0  0  0  0
   60.7061   34.0541   49.9493 H   0  0  0  0  0  0  0  0  0  0  0  0
   60.6286   32.3609   50.6485 H   0  0  0  0  0  0  0  0  0  0  0  0
   62.6923   32.3366   49.7130 H   0  0  0  0  0  0  0  0  0  0  0  0
   61.6875   31.7107   48.3619 H   0  0  0  0  0  0  0  0  0  0  0  0
   62.2257   33.4245   48.3619 H   0  0  0  0  0  0  0  0  0  0  0  0
  1  2  1  0
  2  3  1  0
  3  4  1  0
  4  5  1  0
  5  6  1  0
  6  7  1  0
  7  8  1  0
  8  9  1  0
  9 10  1  0
 10 11  1  0
 11 12  2  0
 12 13  1  0
 13 14  2  0
 14 15  1  0
 15 16  2  0
 16 17  1  0
 17 18  2  0
 18 19  1  0
 18 20  1  0
 20 21  2  0
 21 22  1  0
 22 23  2  0
 23 24  1  0
 24 25  1  0
 25 26  1  0
 26 27  1  0
 24 28  2  0
 28 11  1  0
 17 12  1  0
 28 20  1  0
  1 29  1  0
  1 30  1  0
  1 31  1  0
  2 32  1  0
  2 33  1  0
  4 34  1  0
  4 35  1  0
  5 36  1  0
  5 37  1  0
  6 38  1  0
  7 39  1  0
  7 40  1  0
  8 41  1  0
  8 42  1  0
  9 43  1  0
  9 44  1  0
 10 45  1  0
 13 46  1  0
 14 47  1  0
 15 48  1  0
 16 49  1  0
 19 50  1  0
 19 51  1  0
 19 52  1  0
 21 53  1  0
 22 54  1  0
 23 55  1  0
 26 56  1  0
 26 57  1  0
 27 58  1  0
 27 59  1  0
 27 60  1  0
M  CHG  1  18   1
M  END
>  <smiles>  (23) 
CCOCCNCCCNc1c2ccccc2[n+](C)c2cccc(OCC)c12

>  <score_type>  (23) 
oracle

>  <origin>  (23) 
adg

>  <m_score__min__energy>  (23) 
-5.8200000000000003

>  <m_primary>  (23) 
energy

$$$$
