0:0
     RDKit          3D

 53 55  0  0  0  0  0  0  0  0999 V2000
   62.9540   33.8430   46.4140 C   0  0  0  0  0  0  0  0  0  0  0  0
   63.7590   32.7690   47.1400 C   0  0  0  0  0  0  0  0  0  0  0  0
   63.2980   32.6360   48.5380 N   0  0  0  0  0  0  0  0  0  0  0  0
   64.3570   32.0390   49.3700 C   0  0  0  0  0  0  0  0  0  0  0  0
   62.8630   33.9380   49.0960 C   0  0  0  0  0  0  0  0  0  0  0  0
   62.0370   33.7430   50.3790 C   0  0  0  0  0  0  0  0  0  0  0  0
   60.5150   33.8320   50.1410 C   0  0  0  0  0  0  0  0  0  0  0  0
   59.9100   32.5780   49.4760 C   0  0  0  0  0  0  0  0  0  0  0  0
   60.7040   32.0750   48.3350 N   0  0  0  0  0  0  0  0  0  0  0  0
   59.8670   31.4710   47.3030 C   0  0  0  0  0  0  0  0  0  0  0  0
   59.1710   32.2700   46.3480 C   0  0  0  0  0  0  0  0  0  0  0  0
   59.2590   33.6880   46.3340 C   0  0  0  0  0  0  0  0  0  0  0  0
   58.5110   34.4520   45.4430 C   0  0  0  0  0  0  0  0  0  0  0  0
   57.6490   33.8360   44.5500 C   0  0  0  0  0  0  0  0  0  0  0  0
   57.5650   32.4490   44.5100 C   0  0  0  0  0  0  0  0  0  0  0  0
   58.3540   31.6360   45.3670 C   0  0  0  0  0  0  0  0  0  0  0  0
   58.3230   30.2620   45.2650 N   0  0  0  0  0  0  0  0  0  0  0  0
   57.7540   29.6230   44.0550 C   0  0  0  0  0  0  0  0  0  0  0  0
   58.8560   29.4800   46.2670 C   0  0  0  0  0  0  0  0  0  0  0  0
   58.5880   28.0870   46.3300 C   0  0  0  0  0  0  0  0  0  0  0  0
   59.1800   27.2800   47.2970 C   0  0  0  0  0  0  0  0  0  0  0  0
   60.0430   27.8330   48.2280 C   0  0  0  0  0  0  0  0  0  0  0  0
   60.2900   29.2030   48.2250 C   0  0  0  0  0  0  0  0  0  0  0  0
   59.6790   30.0590   47.2720 C   0  0  0  0  0  0  0  0  0  0  0  0
   62.4646   34.4959   47.1518 H   0  0  0  0  0  0  0  0  0  0  0  0
   63.6272   34.4423   45.7835 H   0  0  0  0  0  0  0  0  0  0  0  0
   62.1899   33.3650   45.7835 H   0  0  0  0  0  0  0  0  0  0  0  0
   63.6292   31.8070   46.6225 H   0  0  0  0  0  0  0  0  0  0  0  0
   64.8204   33.0580   47.1404 H   0  0  0  0  0  0  0  0  0  0  0  0
   64.1103   32.1780   50.4329 H   0  0  0  0  0  0  0  0  0  0  0  0
   64.4347   30.9642   49.1492 H   0  0  0  0  0  0  0  0  0  0  0  0
   65.3168   32.5290   49.1492 H   0  0  0  0  0  0  0  0  0  0  0  0
   63.7512   34.5436   49.3292 H   0  0  0  0  0  0  0  0  0  0  0  0
   62.2341   34.4452   48.3495 H   0  0  0  0  0  0  0  0  0  0  0  0
   62.2683   32.7520   50.7965 H   0  0  0  0  0  0  0  0  0  0  0  0
   62.3082   34.5555   51.0692 H   0  0  0  0  0  0  0  0  0  0  0  0
   60.0210   33.9809   51.1125 H   0  0  0  0  0  0  0  0  0  0  0  0
   60.3494   34.6708   49.4489 H   0  0  0  0  0  0  0  0  0  0  0  0
   59.8426   31.7813   50.2315 H   0  0  0  0  0  0  0  0  0  0  0  0
   58.9234   32.8642   49.0827 H   0  0  0  0  0  0  0  0  0  0  0  0
   61.2460   32.8670   47.9230 H   0  0  0  0  0  0  0  0  0  0  0  0
   61.4720   31.4580   48.6610 H   0  0  0  0  0  0  0  0  0  0  0  0
   59.9325   34.1927   47.0423 H   0  0  0  0  0  0  0  0  0  0  0  0
   58.6044   35.5480   45.4477 H   0  0  0  0  0  0  0  0  0  0  0  0
   57.0313   34.4443   43.8729 H   0  0  0  0  0  0  0  0  0  0  0  0
   56.8735   31.9713   43.8003 H   0  0  0  0  0  0  0  0  0  0  0  0
   57.0501   28.8325   44.3544 H   0  0  0  0  0  0  0  0  0  0  0  0
   57.2240   30.3784   43.4562 H   0  0  0  0  0  0  0  0  0  0  0  0
   58.5655   29.1838   43.4562 H   0  0  0  0  0  0  0  0  0  0  0  0
   57.8990   27.6369   45.6002 H   0  0  0  0  0  0  0  0  0  0  0  0
   58.9622   26.2021   47.3217 H   0  0  0  0  0  0  0  0  0  0  0  0
   60.5345   27.1884   48.9716 H   0  0  0  0  0  0  0  0  0  0  0  0
   60.9716   29.6301   48.9754 H   0  0  0  0  0  0  0  0  0  0  0  0
  1  2  1  0
  2  3  1  0
  3  4  1  0
  3  5  1  0
  5  6  1  0
  6  7  1  0
  7  8  1  0
  8  9  1  0
  9 10  1  0
 10 11  2  0
 11 12  1  0
 12 13  2  0
 13 14  1  0
 14 15  2  0
 15 16  1  0
 16 17  2  0
 17 18  1  0
 17 19  1  0
 19 20  2  0
 20 21  1  0
 21 22  2  0
 22 23  1  0
 23 24  2  0
 24 10  1  0
 16 11  1  0
 24 19  1  0
  1 25  1  0
  1 26  1  0
  1 27  1  0
  2 28  1  0
  2 29  1  0
  4 30  1  0
  4 31  1  0
  4 32  1  0
  5 33  1  0
  5 34  1  0
  6 35  1  0
  6 36  1  0
  7 37  1  0
  7 38  1  0
  8 39  1  0
  8 40  1  0
  9 41  1  0
  9 42  1  0
 12 43  1  0
 13 44  1  0
 14 45  1  0
 15 46  1  0
 18 47  1  0
 18 48  1  0
 18 49  1  0
 20 50  1  0
 21 51  1  0
 22 52  1  0
 23 53  1  0
M  CHG  2   9   1  17   1
M  END
>  <UniqueID>  (1) 
1

>  <SMILES>  (1) 
CCN(C)CCCC[NH2+]c1c2ccccc2[n+](C)c2ccccc12

>  <Energy>  (1) 
82.1694472203334

>  <Genealogy>  (1) 
CCN(C)CCCC[NH2+]c1c2ccccc2[n+](C)c2ccccc12 (protonated)
CCN(C)CCCC[NH2+]c1c2ccccc2[n+](C)c2ccccc12 (3D coordinates assigned)
CCN(C)CCCC[NH2+]c1c2ccccc2[n+](C)c2ccccc12 (optimized conformer: 82.1694472203334 kcal/mol)

>  <smiles>  (1) 
CCN(C)CCCCNc1c2ccccc2[n+](C)c2ccccc12

>  <score_type>  (1) 
oracle

>  <origin>  (1) 
adg

>  <m_score__min__energy>  (1) 
-4

>  <m_primary>  (1) 
energy

$$$$
1:0
     RDKit          3D

 60 60  0  0  0  0  0  0  0  0999 V2000
   65.4290   32.7070   49.9970 C   0  0  0  0  0  0  0  0  0  0  0  0
   64.1450   33.4640   50.3230 C   0  0  0  0  0  0  0  0  0  0  0  0
   63.2730   33.4520   49.2080 O   0  0  0  0  0  0  0  0  0  0  0  0
   63.7690   32.5940   48.2020 C   0  0  0  0  0  0  0  0  0  0  0  0
   62.7060   32.4290   47.1120 C   0  0  0  0  0  0  0  0  0  0  0  0
   61.3220   32.0480   47.6950 C   0  0  0  0  0  0  0  0  0  0  0  0
   60.6150   33.1790   48.3550 N   0  0  0  0  0  0  0  0  0  0  0  0
   60.6440   34.3990   47.4920 C   0  0  0  0  0  0  0  0  0  0  0  0
   59.2480   34.9400   47.1220 C   0  0  0  0  0  0  0  0  0  0  0  0
   58.3560   33.8630   46.6400 N   0  0  0  0  0  0  0  0  0  0  0  0
   58.6720   33.4540   45.2480 C   0  0  0  0  0  0  0  0  0  0  0  0
   57.4030   33.0300   44.4860 C   0  0  0  0  0  0  0  0  0  0  0  0
   57.3740   31.5490   44.0800 C   0  0  0  0  0  0  0  0  0  0  0  0
   56.3620   30.8450   44.7780 O   0  0  0  0  0  0  0  0  0  0  0  0
   56.6740   29.4710   44.8620 C   0  0  0  0  0  0  0  0  0  0  0  0
   57.9250   29.2800   45.7280 C   0  0  0  0  0  0  0  0  0  0  0  0
   58.6580   28.0350   45.3900 N   0  0  0  0  0  0  0  0  0  0  0  0
   59.8760   28.3470   44.6160 C   0  0  0  0  0  0  0  0  0  0  0  0
   57.7670   27.1380   44.6180 C   0  0  0  0  0  0  0  0  0  0  0  0
   58.1440   27.0830   43.1350 C   0  0  0  0  0  0  0  0  0  0  0  0
   58.2710   32.7190   47.5860 C   0  0  0  0  0  0  0  0  0  0  0  0
   59.2390   32.8260   48.7800 C   0  0  0  0  0  0  0  0  0  0  0  0
   65.9284   32.4125   50.9318 H   0  0  0  0  0  0  0  0  0  0  0  0
   65.1860   31.8077   49.4121 H   0  0  0  0  0  0  0  0  0  0  0  0
   66.0983   33.3550   49.4121 H   0  0  0  0  0  0  0  0  0  0  0  0
   63.6474   32.9837   51.1784 H   0  0  0  0  0  0  0  0  0  0  0  0
   64.3961   34.5059   50.5706 H   0  0  0  0  0  0  0  0  0  0  0  0
   64.6802   33.0280   47.7646 H   0  0  0  0  0  0  0  0  0  0  0  0
   64.0071   31.6124   48.6377 H   0  0  0  0  0  0  0  0  0  0  0  0
   62.6103   33.3782   46.5644 H   0  0  0  0  0  0  0  0  0  0  0  0
   63.0281   31.6134   46.4478 H   0  0  0  0  0  0  0  0  0  0  0  0
   60.6907   31.6762   46.8745 H   0  0  0  0  0  0  0  0  0  0  0  0
   61.4995   31.2866   48.4688 H   0  0  0  0  0  0  0  0  0  0  0  0
   61.1510   33.4050   49.2270 H   0  0  0  0  0  0  0  0  0  0  0  0
   61.1899   35.1891   48.0284 H   0  0  0  0  0  0  0  0  0  0  0  0
   61.1330   34.1104   46.5499 H   0  0  0  0  0  0  0  0  0  0  0  0
   58.7980   35.4046   48.0118 H   0  0  0  0  0  0  0  0  0  0  0  0
   59.3677   35.6752   46.3126 H   0  0  0  0  0  0  0  0  0  0  0  0
   59.1386   34.3007   44.7232 H   0  0  0  0  0  0  0  0  0  0  0  0
   59.3567   32.5939   45.2865 H   0  0  0  0  0  0  0  0  0  0  0  0
   56.5328   33.2279   45.1292 H   0  0  0  0  0  0  0  0  0  0  0  0
   57.3867   33.6125   43.5530 H   0  0  0  0  0  0  0  0  0  0  0  0
   57.1807   31.4771   42.9995 H   0  0  0  0  0  0  0  0  0  0  0  0
   58.3464   31.1003   44.3314 H   0  0  0  0  0  0  0  0  0  0  0  0
   55.8294   28.9307   45.3145 H   0  0  0  0  0  0  0  0  0  0  0  0
   56.8645   29.0771   43.8528 H   0  0  0  0  0  0  0  0  0  0  0  0
   58.5958   30.1383   45.5750 H   0  0  0  0  0  0  0  0  0  0  0  0
   57.6009   29.2060   46.7766 H   0  0  0  0  0  0  0  0  0  0  0  0
   60.7051   28.5594   45.3070 H   0  0  0  0  0  0  0  0  0  0  0  0
   60.1380   27.4870   43.9822 H   0  0  0  0  0  0  0  0  0  0  0  0
   59.6923   29.2271   43.9822 H   0  0  0  0  0  0  0  0  0  0  0  0
   57.8350   26.1238   45.0385 H   0  0  0  0  0  0  0  0  0  0  0  0
   56.7436   27.5345   44.6913 H   0  0  0  0  0  0  0  0  0  0  0  0
   59.2282   26.9248   43.0379 H   0  0  0  0  0  0  0  0  0  0  0  0
   57.6077   26.2536   42.6508 H   0  0  0  0  0  0  0  0  0  0  0  0
   57.8670   28.0311   42.6508 H   0  0  0  0  0  0  0  0  0  0  0  0
   57.2438   32.6671   47.9760 H   0  0  0  0  0  0  0  0  0  0  0  0
   58.5542   31.8168   47.0239 H   0  0  0  0  0  0  0  0  0  0  0  0
   58.8702   33.6021   49.4667 H   0  0  0  0  0  0  0  0  0  0  0  0
   59.2790   31.8428   49.2717 H   0  0  0  0  0  0  0  0  0  0  0  0
  1  2  1  0
  2  3  1  0
  3  4  1  0
  4  5  1  0
  5  6  1  0
  6  7  1  0
  7  8  1  0
  8  9  1  0
  9 10  1  0
 10 11  1  0
 11 12  1  0
 12 13  1  0
 13 14  1  0
 14 15  1  0
 15 16  1  0
 16 17  1  0
 17 18  1  0
 17 19  1  0
 19 20  1  0
 10 21  1  0
 21 22  1  0
 22  7  1  0
  1 23  1  0
  1 24  1  0
  1 25  1  0
  2 26  1  0
  2 27  1  0
  4 28  1  0
  4 29  1  0
  5 30  1  0
  5 31  1  0
  6 32  1  0
  6 33  1  0
  7 34  1  0
  8 35  1  0
  8 36  1  0
  9 37  1  0
  9 38  1  0
 11 39  1  0
 11 40  1  0
 12 41  1  0
 12 42  1  0
 13 43  1  0
 13 44  1  0
 15 45  1  0
 15 46  1  0
 16 47  1  0
 16 48  1  0
 18 49  1  0
 18 50  1  0
 18 51  1  0
 19 52  1  0
 19 53  1  0
 20 54  1  0
 20 55  1  0
 20 56  1  0
 21 57  1  0
 21 58  1  0
 22 59  1  0
 22 60  1  0
M  CHG  1   7   1
M  END
>  <UniqueID>  (2) 
2

>  <SMILES>  (2) 
CCOCCC[NH+]1CCN(CCCOCCN(C)CC)CC1

>  <Energy>  (2) 
67.61234047515002

>  <Genealogy>  (2) 
CCOCCC[NH+]1CCN(CCCOCCN(C)CC)CC1 (protonated)
CCOCCC[NH+]1CCN(CCCOCCN(C)CC)CC1 (3D coordinates assigned)
CCOCCC[NH+]1CCN(CCCOCCN(C)CC)CC1 (nonaromatic ring conformer: 67.61234047515002 kcal/mol)

>  <smiles>  (2) 
CCOCCCN1CCN(CCCOCCN(C)CC)CC1

>  <score_type>  (2) 
oracle

>  <origin>  (2) 
adg

>  <m_score__min__energy>  (2) 
-4.0599999999999996

>  <m_primary>  (2) 
energy

$$$$
2:0
     RDKit          3D

 65 67  0  0  0  0  0  0  0  0999 V2000
   61.4460   29.0300   50.4820 C   0  0  0  0  0  0  0  0  0  0  0  0
   59.9680   29.2490   50.7670 C   0  0  0  0  0  0  0  0  0  0  0  0
   59.5180   30.3730   50.0390 O   0  0  0  0  0  0  0  0  0  0  0  0
   58.3680   30.9330   50.6490 C   0  0  0  0  0  0  0  0  0  0  0  0
   58.5240   32.4440   50.8110 C   0  0  0  0  0  0  0  0  0  0  0  0
   59.4390   32.9240   49.8470 O   0  0  0  0  0  0  0  0  0  0  0  0
   60.3590   33.8240   50.4380 C   0  0  0  0  0  0  0  0  0  0  0  0
   61.7970   33.5830   49.9360 C   0  0  0  0  0  0  0  0  0  0  0  0
   62.1430   32.1600   49.7570 N   0  0  0  0  0  0  0  0  0  0  0  0
   62.8720   31.8570   48.5150 C   0  0  0  0  0  0  0  0  0  0  0  0
   61.9490   31.2640   47.4400 C   0  0  0  0  0  0  0  0  0  0  0  0
   60.5860   31.0820   47.9660 N   0  0  0  0  0  0  0  0  0  0  0  0
   59.6230   31.0010   46.8790 C   0  0  0  0  0  0  0  0  0  0  0  0
   59.1580   29.7440   46.4290 C   0  0  0  0  0  0  0  0  0  0  0  0
   58.3710   29.6600   45.2630 C   0  0  0  0  0  0  0  0  0  0  0  0
   57.8770   30.8000   44.6600 N   0  0  0  0  0  0  0  0  0  0  0  0
   56.8670   30.6760   43.5790 C   0  0  0  0  0  0  0  0  0  0  0  0
   55.5760   30.0420   44.1010 C   0  0  0  0  0  0  0  0  0  0  0  0
   58.2910   32.0490   45.0960 C   0  0  0  0  0  0  0  0  0  0  0  0
   57.8900   33.2420   44.4320 C   0  0  0  0  0  0  0  0  0  0  0  0
   58.2660   34.4970   44.9020 C   0  0  0  0  0  0  0  0  0  0  0  0
   59.0490   34.6080   46.0400 C   0  0  0  0  0  0  0  0  0  0  0  0
   59.4860   33.4650   46.7010 C   0  0  0  0  0  0  0  0  0  0  0  0
   59.1480   32.1710   46.2300 C   0  0  0  0  0  0  0  0  0  0  0  0
   58.0620   28.2540   44.7520 C   0  0  0  0  0  0  0  0  0  0  0  0
   59.2950   27.3430   44.8700 C   0  0  0  0  0  0  0  0  0  0  0  0
   59.9490   27.3590   46.2670 C   0  0  0  0  0  0  0  0  0  0  0  0
   59.3900   28.4480   47.1900 C   0  0  0  0  0  0  0  0  0  0  0  0
   61.9945   28.9487   51.4320 H   0  0  0  0  0  0  0  0  0  0  0  0
   61.5745   28.1030   49.9039 H   0  0  0  0  0  0  0  0  0  0  0  0
   61.8378   29.8799   49.9039 H   0  0  0  0  0  0  0  0  0  0  0  0
   59.3981   28.3595   50.4605 H   0  0  0  0  0  0  0  0  0  0  0  0
   59.8199   29.4212   51.8433 H   0  0  0  0  0  0  0  0  0  0  0  0
   57.4891   30.7261   50.0207 H   0  0  0  0  0  0  0  0  0  0  0  0
   58.2406   30.4820   51.6442 H   0  0  0  0  0  0  0  0  0  0  0  0
   57.5486   32.9318   50.6671 H   0  0  0  0  0  0  0  0  0  0  0  0
   58.8988   32.6701   51.8202 H   0  0  0  0  0  0  0  0  0  0  0  0
   60.0619   34.8530   50.1873 H   0  0  0  0  0  0  0  0  0  0  0  0
   60.3447   33.6630   51.5261 H   0  0  0  0  0  0  0  0  0  0  0  0
   61.9144   34.0913   48.9676 H   0  0  0  0  0  0  0  0  0  0  0  0
   62.4727   33.9785   50.7087 H   0  0  0  0  0  0  0  0  0  0  0  0
   61.2620   31.5950   49.7720 H   0  0  0  0  0  0  0  0  0  0  0  0
   63.3176   32.7855   48.1285 H   0  0  0  0  0  0  0  0  0  0  0  0
   63.6474   31.1122   48.7476 H   0  0  0  0  0  0  0  0  0  0  0  0
   61.9150   31.9458   46.5774 H   0  0  0  0  0  0  0  0  0  0  0  0
   62.3445   30.2834   47.1366 H   0  0  0  0  0  0  0  0  0  0  0  0
   60.3360   31.8550   48.6210 H   0  0  0  0  0  0  0  0  0  0  0  0
   60.5390   30.2340   48.5740 H   0  0  0  0  0  0  0  0  0  0  0  0
   56.6408   31.6767   43.1822 H   0  0  0  0  0  0  0  0  0  0  0  0
   57.2784   30.0306   42.7890 H   0  0  0  0  0  0  0  0  0  0  0  0
   55.5842   30.0460   45.2010 H   0  0  0  0  0  0  0  0  0  0  0  0
   54.7119   30.6183   43.7387 H   0  0  0  0  0  0  0  0  0  0  0  0
   55.5037   29.0059   43.7387 H   0  0  0  0  0  0  0  0  0  0  0  0
   57.2689   33.1708   43.5269 H   0  0  0  0  0  0  0  0  0  0  0  0
   57.9409   35.4027   44.3690 H   0  0  0  0  0  0  0  0  0  0  0  0
   59.3254   35.6021   46.4213 H   0  0  0  0  0  0  0  0  0  0  0  0
   60.1046   33.5666   47.6049 H   0  0  0  0  0  0  0  0  0  0  0  0
   57.2409   27.8272   45.3467 H   0  0  0  0  0  0  0  0  0  0  0  0
   57.7751   28.3208   43.6922 H   0  0  0  0  0  0  0  0  0  0  0  0
   58.9873   26.3116   44.6428 H   0  0  0  0  0  0  0  0  0  0  0  0
   60.0444   27.7244   44.1608 H   0  0  0  0  0  0  0  0  0  0  0  0
   59.7817   26.3807   46.7412 H   0  0  0  0  0  0  0  0  0  0  0  0
   61.0179   27.5743   46.1220 H   0  0  0  0  0  0  0  0  0  0  0  0
   58.4349   28.1043   47.6139 H   0  0  0  0  0  0  0  0  0  0  0  0
   60.1214   28.6381   47.9893 H   0  0  0  0  0  0  0  0  0  0  0  0
  1  2  1  0
  2  3  1  0
  3  4  1  0
  4  5  1  0
  5  6  1  0
  6  7  1  0
  7  8  1  0
  8  9  1  0
  9 10  1  0
 10 11  1  0
 11 12  1  0
 12 13  1  0
 13 14  2  0
 14 15  1  0
 15 16  2  0
 16 17  1  0
 17 18  1  0
 16 19  1  0
 19 20  2  0
 20 21  1  0
 21 22  2  0
 22 23  1  0
 23 24  2  0
 15 25  1  0
 25 26  1  0
 26 27  1  0
 27 28  1  0
 24 13  1  0
 28 14  1  0
 24 19  1  0
  1 29  1  0
  1 30  1  0
  1 31  1  0
  2 32  1  0
  2 33  1  0
  4 34  1  0
  4 35  1  0
  5 36  1  0
  5 37  1  0
  7 38  1  0
  7 39  1  0
  8 40  1  0
  8 41  1  0
  9 42  1  0
 10 43  1  0
 10 44  1  0
 11 45  1  0
 11 46  1  0
 12 47  1  0
 12 48  1  0
 17 49  1  0
 17 50  1  0
 18 51  1  0
 18 52  1  0
 18 53  1  0
 20 54  1  0
 21 55  1  0
 22 56  1  0
 23 57  1  0
 25 58  1  0
 25 59  1  0
 26 60  1  0
 26 61  1  0
 27 62  1  0
 27 63  1  0
 28 64  1  0
 28 65  1  0
M  CHG  2  12   1  16   1
M  END
>  <UniqueID>  (3) 
3

>  <SMILES>  (3) 
CCOCCOCCNCC[NH2+]c1c2c([n+](CC)c3ccccc13)CCCC2

>  <Energy>  (3) 
88.30226600755917

>  <Genealogy>  (3) 
CCOCCOCCNCC[NH2+]c1c2c([n+](CC)c3ccccc13)CCCC2 (protonated)
CCOCCOCCNCC[NH2+]c1c2c([n+](CC)c3ccccc13)CCCC2 (3D coordinates assigned)
CCOCCOCCNCC[NH2+]c1c2c([n+](CC)c3ccccc13)CCCC2 (nonaromatic ring conformer: 88.30226600755917 kcal/mol)

>  <smiles>  (3) 
CCOCCOCCNCCNc1c2c([n+](CC)c3ccccc13)CCCC2

>  <score_type>  (3) 
oracle

>  <origin>  (3) 
adg

>  <m_score__min__energy>  (3) 
-3.1699999999999999

>  <m_primary>  (3) 
energy

$$$$
3:0
     RDKit          3D

 50 51  0  0  0  0  0  0  0  0999 V2000
   58.6210   32.7450   51.5110 C   0  0  0  0  0  0  0  0  0  0  0  0
   58.5200   31.9890   50.1940 C   0  0  0  0  0  0  0  0  0  0  0  0
   59.5470   32.4600   49.2530 N   0  0  0  0  0  0  0  0  0  0  0  0
   59.9430   33.8460   49.5540 C   0  0  0  0  0  0  0  0  0  0  0  0
   61.4730   33.9750   49.6170 C   0  0  0  0  0  0  0  0  0  0  0  0
   62.1730   33.3410   48.4080 C   0  0  0  0  0  0  0  0  0  0  0  0
   62.4100   31.9620   48.6300 O   0  0  0  0  0  0  0  0  0  0  0  0
   62.6210   31.7010   50.0030 C   0  0  0  0  0  0  0  0  0  0  0  0
   62.1400   30.2890   50.3510 C   0  0  0  0  0  0  0  0  0  0  0  0
   60.8460   30.0300   49.8350 O   0  0  0  0  0  0  0  0  0  0  0  0
   60.7830   28.7670   49.2030 C   0  0  0  0  0  0  0  0  0  0  0  0
   60.3990   28.9060   47.7260 C   0  0  0  0  0  0  0  0  0  0  0  0
   60.0510   30.2940   47.4160 N   0  0  0  0  0  0  0  0  0  0  0  0
   58.9850   30.6490   46.5170 C   0  0  0  0  0  0  0  0  0  0  0  0
   58.0460   29.6850   46.1270 C   0  0  0  0  0  0  0  0  0  0  0  0
   57.0210   30.0390   45.2470 C   0  0  0  0  0  0  0  0  0  0  0  0
   56.1790   29.1760   44.8830 O   0  0  0  0  0  0  0  0  0  0  0  0
   56.9270   31.2810   44.7880 O   0  0  0  0  0  0  0  0  0  0  0  0
   57.7820   32.2380   45.1310 C   0  0  0  0  0  0  0  0  0  0  0  0
   57.6090   33.5300   44.6210 C   0  0  0  0  0  0  0  0  0  0  0  0
   58.4780   34.5570   44.9950 C   0  0  0  0  0  0  0  0  0  0  0  0
   59.5280   34.2990   45.8790 C   0  0  0  0  0  0  0  0  0  0  0  0
   59.7200   33.0110   46.3890 C   0  0  0  0  0  0  0  0  0  0  0  0
   58.8560   31.9620   46.0140 C   0  0  0  0  0  0  0  0  0  0  0  0
   58.5265   32.0376   52.3480 H   0  0  0  0  0  0  0  0  0  0  0  0
   59.5950   33.2530   51.5684 H   0  0  0  0  0  0  0  0  0  0  0  0
   57.8145   33.4908   51.5684 H   0  0  0  0  0  0  0  0  0  0  0  0
   58.6647   30.9147   50.3807 H   0  0  0  0  0  0  0  0  0  0  0  0
   57.5265   32.1659   49.7561 H   0  0  0  0  0  0  0  0  0  0  0  0
   60.3920   31.8530   49.3790 H   0  0  0  0  0  0  0  0  0  0  0  0
   59.5572   34.5103   48.7667 H   0  0  0  0  0  0  0  0  0  0  0  0
   59.5249   34.1277   50.5317 H   0  0  0  0  0  0  0  0  0  0  0  0
   61.7345   35.0428   49.6545 H   0  0  0  0  0  0  0  0  0  0  0  0
   61.8139   33.4398   50.5155 H   0  0  0  0  0  0  0  0  0  0  0  0
   61.5354   33.4589   47.5194 H   0  0  0  0  0  0  0  0  0  0  0  0
   63.1390   33.8447   48.2557 H   0  0  0  0  0  0  0  0  0  0  0  0
   63.6943   31.7855   50.2285 H   0  0  0  0  0  0  0  0  0  0  0  0
   62.0543   32.4313   50.5993 H   0  0  0  0  0  0  0  0  0  0  0  0
   62.8448   29.5585   49.9271 H   0  0  0  0  0  0  0  0  0  0  0  0
   62.0934   30.2049   51.4468 H   0  0  0  0  0  0  0  0  0  0  0  0
   61.7671   28.2807   49.2738 H   0  0  0  0  0  0  0  0  0  0  0  0
   60.0149   28.1625   49.7076 H   0  0  0  0  0  0  0  0  0  0  0  0
   61.2493   28.5974   47.1001 H   0  0  0  0  0  0  0  0  0  0  0  0
   59.5274   28.2664   47.5229 H   0  0  0  0  0  0  0  0  0  0  0  0
   60.5610   31.0470   47.9320 H   0  0  0  0  0  0  0  0  0  0  0  0
   58.1157   28.6566   46.5112 H   0  0  0  0  0  0  0  0  0  0  0  0
   56.7849   33.7372   43.9225 H   0  0  0  0  0  0  0  0  0  0  0  0
   58.3354   35.5708   44.5927 H   0  0  0  0  0  0  0  0  0  0  0  0
   60.2068   35.1122   46.1754 H   0  0  0  0  0  0  0  0  0  0  0  0
   60.5486   32.8156   47.0856 H   0  0  0  0  0  0  0  0  0  0  0  0
  1  2  1  0
  2  3  1  0
  3  4  1  0
  4  5  1  0
  5  6  1  0
  6  7  1  0
  7  8  1  0
  8  9  1  0
  9 10  1  0
 10 11  1  0
 11 12  1  0
 12 13  1  0
 13 14  1  0
 14 15  2  0
 15 16  1  0
 16 17  2  0
 16 18  1  0
 18 19  1  0
 19 20  2  0
 20 21  1  0
 21 22  2  0
 22 23  1  0
 23 24  2  0
 24 14  1  0
 24 19  1  0
  1 25  1  0
  1 26  1  0
  1 27  1  0
  2 28  1  0
  2 29  1  0
  3 30  1  0
  4 31  1  0
  4 32  1  0
  5 33  1  0
  5 34  1  0
  6 35  1  0
  6 36  1  0
  8 37  1  0
  8 38  1  0
  9 39  1  0
  9 40  1  0
 11 41  1  0
 11 42  1  0
 12 43  1  0
 12 44  1  0
 13 45  1  0
 15 46  1  0
 20 47  1  0
 21 48  1  0
 22 49  1  0
 23 50  1  0
M  END
>  <UniqueID>  (4) 
4

>  <SMILES>  (4) 
CCNCCCOCCOCCNc1cc(=O)oc2ccccc12

>  <Energy>  (4) 
49.98748948744901

>  <Genealogy>  (4) 
CCNCCCOCCOCCNc1cc(=O)oc2ccccc12 (3D coordinates assigned)
CCNCCCOCCOCCNc1cc(=O)oc2ccccc12 (optimized conformer: 49.98748948744901 kcal/mol)

>  <smiles>  (4) 
CCNCCCOCCOCCNc1cc(=O)oc2ccccc12

>  <score_type>  (4) 
oracle

>  <origin>  (4) 
adg

>  <m_score__min__energy>  (4) 
-5.8200000000000003

>  <m_primary>  (4) 
energy

$$$$
4:0
     RDKit          3D

 67 70  0  0  0  0  0  0  0  0999 V2000
   58.1030   33.5570   46.5950 C   0  0  0  0  0  0  0  0  0  0  0  0
   59.3130   34.4960   46.5820 C   0  0  0  0  0  0  0  0  0  0  0  0
   60.5090   33.9480   47.2650 N   0  0  0  0  0  0  0  0  0  0  0  0
   60.6990   34.4230   48.6590 C   0  0  0  0  0  0  0  0  0  0  0  0
   59.7180   33.8360   49.6870 C   0  0  0  0  0  0  0  0  0  0  0  0
   61.7130   33.8890   46.4070 C   0  0  0  0  0  0  0  0  0  0  0  0
   63.0120   33.8230   47.2360 C   0  0  0  0  0  0  0  0  0  0  0  0
   63.5020   32.4460   47.4520 N   0  0  0  0  0  0  0  0  0  0  0  0
   63.1990   31.9550   48.7860 C   0  0  0  0  0  0  0  0  0  0  0  0
   61.9900   31.2720   49.0990 C   0  0  0  0  0  0  0  0  0  0  0  0
   61.0660   30.9100   48.0920 C   0  0  0  0  0  0  0  0  0  0  0  0
   59.8720   30.2470   48.3990 C   0  0  0  0  0  0  0  0  0  0  0  0
   58.9500   29.9290   47.3360 N   0  0  0  0  0  0  0  0  0  0  0  0
   58.6640   28.5690   46.8760 C   0  0  0  0  0  0  0  0  0  0  0  0
   57.7790   28.6020   45.6210 C   0  0  0  0  0  0  0  0  0  0  0  0
   57.4150   29.9890   45.2610 N   0  0  0  0  0  0  0  0  0  0  0  0
   58.5100   30.6970   44.5760 C   0  0  0  0  0  0  0  0  0  0  0  0
   57.8840   31.5740   43.5130 C   0  0  0  0  0  0  0  0  0  0  0  0
   56.6350   30.8260   43.1150 C   0  0  0  0  0  0  0  0  0  0  0  0
   56.2520   30.0250   44.3540 C   0  0  0  0  0  0  0  0  0  0  0  0
   59.6120   29.8930   49.7260 C   0  0  0  0  0  0  0  0  0  0  0  0
   60.5160   30.2120   50.7370 C   0  0  0  0  0  0  0  0  0  0  0  0
   61.7080   30.9240   50.4610 C   0  0  0  0  0  0  0  0  0  0  0  0
   62.5930   31.2640   51.4730 N   0  0  0  0  0  0  0  0  0  0  0  0
   62.2390   31.0610   52.8940 C   0  0  0  0  0  0  0  0  0  0  0  0
   63.8180   31.7870   51.1380 C   0  0  0  0  0  0  0  0  0  0  0  0
   64.8980   32.0160   52.0200 C   0  0  0  0  0  0  0  0  0  0  0  0
   66.0140   32.5620   51.3970 C   0  0  0  0  0  0  0  0  0  0  0  0
   65.6780   32.7460   49.7600 S   0  0  0  0  0  0  0  0  0  0  0  0
   64.1090   32.1400   49.8300 C   0  0  0  0  0  0  0  0  0  0  0  0
   57.8203   33.3376   47.6352 H   0  0  0  0  0  0  0  0  0  0  0  0
   57.2592   34.0391   46.0796 H   0  0  0  0  0  0  0  0  0  0  0  0
   58.3605   32.6200   46.0796 H   0  0  0  0  0  0  0  0  0  0  0  0
   59.5778   34.7044   45.5349 H   0  0  0  0  0  0  0  0  0  0  0  0
   59.0189   35.4015   47.1330 H   0  0  0  0  0  0  0  0  0  0  0  0
   61.7198   34.1593   48.9728 H   0  0  0  0  0  0  0  0  0  0  0  0
   60.5125   35.5069   48.6416 H   0  0  0  0  0  0  0  0  0  0  0  0
   60.0791   34.0521   50.7033 H   0  0  0  0  0  0  0  0  0  0  0  0
   58.7253   34.2887   49.5466 H   0  0  0  0  0  0  0  0  0  0  0  0
   59.6477   32.7473   49.5466 H   0  0  0  0  0  0  0  0  0  0  0  0
   61.6520   32.9936   45.7709 H   0  0  0  0  0  0  0  0  0  0  0  0
   61.7433   34.8067   45.8013 H   0  0  0  0  0  0  0  0  0  0  0  0
   63.7917   34.3915   46.7079 H   0  0  0  0  0  0  0  0  0  0  0  0
   62.7867   34.2461   48.2261 H   0  0  0  0  0  0  0  0  0  0  0  0
   63.0780   31.8080   46.7400 H   0  0  0  0  0  0  0  0  0  0  0  0
   64.5280   32.4190   47.2570 H   0  0  0  0  0  0  0  0  0  0  0  0
   61.2905   31.1549   47.0434 H   0  0  0  0  0  0  0  0  0  0  0  0
   58.3980   30.7050   46.9030 H   0  0  0  0  0  0  0  0  0  0  0  0
   59.6101   28.0604   46.6388 H   0  0  0  0  0  0  0  0  0  0  0  0
   58.1326   28.0278   47.6726 H   0  0  0  0  0  0  0  0  0  0  0  0
   58.3268   28.1457   44.7833 H   0  0  0  0  0  0  0  0  0  0  0  0
   56.8555   28.0423   45.8306 H   0  0  0  0  0  0  0  0  0  0  0  0
   59.0659   31.3162   45.2954 H   0  0  0  0  0  0  0  0  0  0  0  0
   59.2142   29.9820   44.1256 H   0  0  0  0  0  0  0  0  0  0  0  0
   57.6339   32.5647   43.9203 H   0  0  0  0  0  0  0  0  0  0  0  0
   58.5579   31.7572   42.6631 H   0  0  0  0  0  0  0  0  0  0  0  0
   55.8326   31.5277   42.8434 H   0  0  0  0  0  0  0  0  0  0  0  0
   56.7970   30.1829   42.2374 H   0  0  0  0  0  0  0  0  0  0  0  0
   55.4012   30.5056   44.8592 H   0  0  0  0  0  0  0  0  0  0  0  0
   55.9620   29.0028   44.0694 H   0  0  0  0  0  0  0  0  0  0  0  0
   58.6841   29.3571   49.9746 H   0  0  0  0  0  0  0  0  0  0  0  0
   60.2991   29.9044   51.7706 H   0  0  0  0  0  0  0  0  0  0  0  0
   63.0159   31.5065   53.5327 H   0  0  0  0  0  0  0  0  0  0  0  0
   61.2721   31.5419   53.1033 H   0  0  0  0  0  0  0  0  0  0  0  0
   62.1656   29.9836   53.1033 H   0  0  0  0  0  0  0  0  0  0  0  0
   64.8593   31.7847   53.0947 H   0  0  0  0  0  0  0  0  0  0  0  0
   66.9592   32.8291   51.8922 H   0  0  0  0  0  0  0  0  0  0  0  0
  1  2  1  0
  2  3  1  0
  3  4  1  0
  4  5  1  0
  3  6  1  0
  6  7  1  0
  7  8  1  0
  8  9  1  0
  9 10  2  0
 10 11  1  0
 11 12  2  0
 12 13  1  0
 13 14  1  0
 14 15  1  0
 15 16  1  0
 16 17  1  0
 17 18  1  0
 18 19  1  0
 19 20  1  0
 12 21  1  0
 21 22  2  0
 22 23  1  0
 23 24  2  0
 24 25  1  0
 24 26  1  0
 26 27  1  0
 27 28  2  0
 28 29  1  0
 29 30  1  0
 30  9  1  0
 23 10  1  0
 30 26  2  0
 20 16  1  0
  1 31  1  0
  1 32  1  0
  1 33  1  0
  2 34  1  0
  2 35  1  0
  4 36  1  0
  4 37  1  0
  5 38  1  0
  5 39  1  0
  5 40  1  0
  6 41  1  0
  6 42  1  0
  7 43  1  0
  7 44  1  0
  8 45  1  0
  8 46  1  0
 11 47  1  0
 13 48  1  0
 14 49  1  0
 14 50  1  0
 15 51  1  0
 15 52  1  0
 17 53  1  0
 17 54  1  0
 18 55  1  0
 18 56  1  0
 19 57  1  0
 19 58  1  0
 20 59  1  0
 20 60  1  0
 21 61  1  0
 22 62  1  0
 25 63  1  0
 25 64  1  0
 25 65  1  0
 27 66  1  0
 28 67  1  0
M  CHG  2   8   1  24   1
M  END
>  <UniqueID>  (5) 
5

>  <SMILES>  (5) 
CCN(CC)CC[NH2+]c1c2cc(NCCN3CCCC3)ccc2[n+](C)c2ccsc12

>  <Energy>  (5) 
121.26509134809118

>  <Genealogy>  (5) 
CCN(CC)CC[NH2+]c1c2cc(NCCN3CCCC3)ccc2[n+](C)c2ccsc12 (protonated)
CCN(CC)CC[NH2+]c1c2cc(NCCN3CCCC3)ccc2[n+](C)c2ccsc12 (3D coordinates assigned)
CCN(CC)CC[NH2+]c1c2cc(NCCN3CCCC3)ccc2[n+](C)c2ccsc12 (nonaromatic ring conformer: 121.26509134809118 kcal/mol)

>  <smiles>  (5) 
CCN(CC)CCNc1c2cc(NCCN3CCCC3)ccc2[n+](C)c2ccsc12

>  <score_type>  (5) 
oracle

>  <origin>  (5) 
adg

>  <m_score__min__energy>  (5) 
-5.6799999999999997

>  <m_primary>  (5) 
energy

$$$$
5:0
     RDKit          3D

 32 34  0  0  0  0  0  0  0  0999 V2000
   60.3550   28.3070   46.2750 C   0  0  0  0  0  0  0  0  0  0  0  0
   59.6130   29.5830   46.0380 C   0  0  0  0  0  0  0  0  0  0  0  0
   58.2840   29.5370   45.4780 C   0  0  0  0  0  0  0  0  0  0  0  0
   57.5840   30.7490   45.2450 C   0  0  0  0  0  0  0  0  0  0  0  0
   56.4240   30.7820   44.7600 O   0  0  0  0  0  0  0  0  0  0  0  0
   58.2460   31.8720   45.5780 N   0  0  0  0  0  0  0  0  0  0  0  0
   59.4590   31.8610   46.0840 C   0  0  0  0  0  0  0  0  0  0  0  0
   60.2200   30.7840   46.3450 N   0  0  0  0  0  0  0  0  0  0  0  0
   59.4550   33.2020   46.1280 N   0  0  0  0  0  0  0  0  0  0  0  0
   60.4060   34.2250   46.5380 C   0  0  0  0  0  0  0  0  0  0  0  0
   61.4790   33.6120   47.4030 C   0  0  0  0  0  0  0  0  0  0  0  0
   62.7850   33.4610   46.8950 C   0  0  0  0  0  0  0  0  0  0  0  0
   63.0840   33.8350   45.6250 F   0  0  0  0  0  0  0  0  0  0  0  0
   63.7990   32.9300   47.6990 C   0  0  0  0  0  0  0  0  0  0  0  0
   63.5260   32.5560   49.0150 C   0  0  0  0  0  0  0  0  0  0  0  0
   62.2420   32.7170   49.5360 C   0  0  0  0  0  0  0  0  0  0  0  0
   61.2180   33.2480   48.7440 C   0  0  0  0  0  0  0  0  0  0  0  0
   59.6270   33.4540   49.4690 Cl  0  0  0  0  0  0  0  0  0  0  0  0
   58.2170   33.1980   45.6310 N   0  0  0  0  0  0  0  0  0  0  0  0
   57.2590   34.2180   45.2420 C   0  0  0  0  0  0  0  0  0  0  0  0
   60.4543   28.1362   47.3571 H   0  0  0  0  0  0  0  0  0  0  0  0
   59.8019   27.4715   45.8211 H   0  0  0  0  0  0  0  0  0  0  0  0
   61.3547   28.3745   45.8211 H   0  0  0  0  0  0  0  0  0  0  0  0
   57.8177   28.5711   45.2339 H   0  0  0  0  0  0  0  0  0  0  0  0
   60.8682   34.6719   45.6455 H   0  0  0  0  0  0  0  0  0  0  0  0
   59.8780   35.0010   47.1117 H   0  0  0  0  0  0  0  0  0  0  0  0
   64.8138   32.8071   47.2928 H   0  0  0  0  0  0  0  0  0  0  0  0
   64.3244   32.1335   49.6427 H   0  0  0  0  0  0  0  0  0  0  0  0
   62.0333   32.4247   50.5757 H   0  0  0  0  0  0  0  0  0  0  0  0
   56.8270   34.6780   46.1430 H   0  0  0  0  0  0  0  0  0  0  0  0
   57.7669   34.9891   44.6442 H   0  0  0  0  0  0  0  0  0  0  0  0
   56.4576   33.7594   44.6442 H   0  0  0  0  0  0  0  0  0  0  0  0
  1  2  1  0
  2  3  2  0
  3  4  1  0
  4  5  2  0
  4  6  1  0
  6  7  1  0
  7  8  2  0
  7  9  1  0
  9 10  1  0
 10 11  1  0
 11 12  2  0
 12 13  1  0
 12 14  1  0
 14 15  2  0
 15 16  1  0
 16 17  2  0
 17 18  1  0
  9 19  1  0
 19 20  1  0
  8  2  1  0
 17 11  1  0
 19  6  1  0
  1 21  1  0
  1 22  1  0
  1 23  1  0
  3 24  1  0
 10 25  1  0
 10 26  1  0
 14 27  1  0
 15 28  1  0
 16 29  1  0
 20 30  1  0
 20 31  1  0
 20 32  1  0
M  END
>  <UniqueID>  (6) 
6

>  <SMILES>  (6) 
Cc1cc(=O)n2c(n1)n(Cc1c(F)cccc1Cl)n2C

>  <Energy>  (6) 
46.95638159801724

>  <Genealogy>  (6) 
Cc1cc(=O)n2c(n1)n(Cc1c(F)cccc1Cl)n2C (3D coordinates assigned)
Cc1cc(=O)n2c(n1)n(Cc1c(F)cccc1Cl)n2C (optimized conformer: 46.95638159801724 kcal/mol)

>  <smiles>  (6) 
Cc1cc(=O)n2c(n1)n(Cc1c(F)cccc1Cl)n2C

>  <score_type>  (6) 
oracle

>  <origin>  (6) 
adg

>  <m_score__min__energy>  (6) 
-6.6399999999999997

>  <m_primary>  (6) 
energy

$$$$
6:0
     RDKit          3D

 45 47  0  0  0  0  0  0  0  0999 V2000
   58.8270   32.6590   50.8480 C   0  0  0  0  0  0  0  0  0  0  0  0
   59.2950   32.1300   49.5640 N   0  0  0  0  0  0  0  0  0  0  0  0
   58.8960   30.7270   49.3820 C   0  0  0  0  0  0  0  0  0  0  0  0
   58.9540   30.3420   47.8940 C   0  0  0  0  0  0  0  0  0  0  0  0
   59.7040   31.3220   47.0890 N   0  0  0  0  0  0  0  0  0  0  0  0
   58.9290   31.8110   45.9690 C   0  0  0  0  0  0  0  0  0  0  0  0
   58.7680   33.1790   45.6610 C   0  0  0  0  0  0  0  0  0  0  0  0
   59.3800   34.3310   46.3560 C   0  0  0  0  0  0  0  0  0  0  0  0
   59.4040   35.4580   45.7980 O   0  0  0  0  0  0  0  0  0  0  0  0
   59.8820   34.2160   47.6940 N   0  0  0  0  0  0  0  0  0  0  0  0
   61.2450   33.9630   48.0660 C   0  0  0  0  0  0  0  0  0  0  0  0
   61.7070   34.1830   49.3750 C   0  0  0  0  0  0  0  0  0  0  0  0
   63.0370   33.9110   49.7100 C   0  0  0  0  0  0  0  0  0  0  0  0
   63.9200   33.3940   48.7430 C   0  0  0  0  0  0  0  0  0  0  0  0
   65.2660   33.1050   49.0220 O   0  0  0  0  0  0  0  0  0  0  0  0
   65.7530   32.5470   50.2410 C   0  0  0  0  0  0  0  0  0  0  0  0
   65.5850   33.4480   51.2780 F   0  0  0  0  0  0  0  0  0  0  0  0
   67.1000   32.2760   50.1020 F   0  0  0  0  0  0  0  0  0  0  0  0
   65.0870   31.3690   50.5250 F   0  0  0  0  0  0  0  0  0  0  0  0
   63.4470   33.1530   47.4480 C   0  0  0  0  0  0  0  0  0  0  0  0
   62.1180   33.4270   47.1130 C   0  0  0  0  0  0  0  0  0  0  0  0
   57.7310   33.3340   44.3290 S   0  0  0  0  0  0  0  0  0  0  0  0
   57.4750   31.6930   44.1510 C   0  0  0  0  0  0  0  0  0  0  0  0
   56.6810   31.0950   43.2290 N   0  0  0  0  0  0  0  0  0  0  0  0
   56.5560   29.7380   43.2260 C   0  0  0  0  0  0  0  0  0  0  0  0
   57.2400   28.9600   44.1780 C   0  0  0  0  0  0  0  0  0  0  0  0
   58.0590   29.5830   45.1310 C   0  0  0  0  0  0  0  0  0  0  0  0
   58.1770   30.9800   45.1080 C   0  0  0  0  0  0  0  0  0  0  0  0
   59.3120   32.1108   51.6691 H   0  0  0  0  0  0  0  0  0  0  0  0
   59.0815   33.7268   50.9193 H   0  0  0  0  0  0  0  0  0  0  0  0
   57.7362   32.5365   50.9193 H   0  0  0  0  0  0  0  0  0  0  0  0
   58.8360   32.6980   48.8130 H   0  0  0  0  0  0  0  0  0  0  0  0
   59.5791   30.0792   49.9509 H   0  0  0  0  0  0  0  0  0  0  0  0
   57.8651   30.5993   49.7438 H   0  0  0  0  0  0  0  0  0  0  0  0
   59.4429   29.3610   47.8018 H   0  0  0  0  0  0  0  0  0  0  0  0
   57.9221   30.3154   47.5140 H   0  0  0  0  0  0  0  0  0  0  0  0
   59.9680   32.1280   47.6970 H   0  0  0  0  0  0  0  0  0  0  0  0
   60.6040   30.8990   46.7710 H   0  0  0  0  0  0  0  0  0  0  0  0
   61.0186   34.5713   50.1401 H   0  0  0  0  0  0  0  0  0  0  0  0
   63.3946   34.1016   50.7326 H   0  0  0  0  0  0  0  0  0  0  0  0
   64.1276   32.7441   46.6867 H   0  0  0  0  0  0  0  0  0  0  0  0
   61.7565   33.2202   46.0949 H   0  0  0  0  0  0  0  0  0  0  0  0
   55.9174   29.2487   42.4758 H   0  0  0  0  0  0  0  0  0  0  0  0
   57.1327   27.8653   44.1749 H   0  0  0  0  0  0  0  0  0  0  0  0
   58.5984   28.9871   45.8820 H   0  0  0  0  0  0  0  0  0  0  0  0
  1  2  1  0
  2  3  1  0
  3  4  1  0
  4  5  1  0
  5  6  1  0
  6  7  2  0
  7  8  1  0
  8  9  2  0
  8 10  1  0
 10 11  1  0
 11 12  2  0
 12 13  1  0
 13 14  2  0
 14 15  1  0
 15 16  1  0
 16 17  1  0
 16 18  1  0
 16 19  1  0
 14 20  1  0
 20 21  2  0
  7 22  1  0
 22 23  1  0
 23 24  2  0
 24 25  1  0
 25 26  2  0
 26 27  1  0
 27 28  2  0
 28  6  1  0
 21 11  1  0
 28 23  1  0
  1 29  1  0
  1 30  1  0
  1 31  1  0
  2 32  1  0
  3 33  1  0
  3 34  1  0
  4 35  1  0
  4 36  1  0
  5 37  1  0
  5 38  1  0
 12 39  1  0
 13 40  1  0
 20 41  1  0
 21 42  1  0
 25 43  1  0
 26 44  1  0
 27 45  1  0
M  CHG  2   5   1  10  -1
M  END
>  <UniqueID>  (7) 
7

>  <SMILES>  (7) 
CNCC[NH2+]c1c(C(=O)[N-]c2ccc(OC(F)(F)F)cc2)sc2ncccc12

>  <Energy>  (7) 
85.75167533689144

>  <Genealogy>  (7) 
CNCC[NH2+]c1c(C(=O)[N-]c2ccc(OC(F)(F)F)cc2)sc2ncccc12 (protonated)
CNCC[NH2+]c1c(C(=O)[N-]c2ccc(OC(F)(F)F)cc2)sc2ncccc12 (3D coordinates assigned)
CNCC[NH2+]c1c(C(=O)[N-]c2ccc(OC(F)(F)F)cc2)sc2ncccc12 (optimized conformer: 85.75167533689144 kcal/mol)

>  <smiles>  (7) 
CNCCNc1c(C(=O)Nc2ccc(OC(F)(F)F)cc2)sc2ncccc12

>  <score_type>  (7) 
oracle

>  <origin>  (7) 
adg

>  <m_score__min__energy>  (7) 
-5.8499999999999996

>  <m_primary>  (7) 
energy

$$$$
7:0
     RDKit          3D

 58 61  0  0  0  0  0  0  0  0999 V2000
   57.0280   26.9310   45.3830 C   0  0  0  0  0  0  0  0  0  0  0  0
   56.5620   28.2660   45.5640 O   0  0  0  0  0  0  0  0  0  0  0  0
   56.9380   29.3590   44.7660 C   0  0  0  0  0  0  0  0  0  0  0  0
   56.1610   29.7570   43.6610 C   0  0  0  0  0  0  0  0  0  0  0  0
   56.5660   30.8230   42.8530 C   0  0  0  0  0  0  0  0  0  0  0  0
   57.7510   31.4950   43.1240 C   0  0  0  0  0  0  0  0  0  0  0  0
   58.5290   31.1170   44.2170 C   0  0  0  0  0  0  0  0  0  0  0  0
   58.1280   30.0670   45.0650 C   0  0  0  0  0  0  0  0  0  0  0  0
   58.9580   29.7620   46.2600 C   0  0  0  0  0  0  0  0  0  0  0  0
   60.1030   30.4270   46.5530 N   0  0  0  0  0  0  0  0  0  0  0  0
   60.6290   30.0790   47.7600 C   0  0  0  0  0  0  0  0  0  0  0  0
   61.8270   30.7940   48.3060 C   0  0  0  0  0  0  0  0  0  0  0  0
   59.8810   29.1300   48.4690 C   0  0  0  0  0  0  0  0  0  0  0  0
   60.0820   28.6820   49.8900 C   0  0  0  0  0  0  0  0  0  0  0  0
   59.7610   29.8100   50.8770 C   0  0  0  0  0  0  0  0  0  0  0  0
   58.2990   29.9490   51.0350 N   0  0  0  0  0  0  0  0  0  0  0  0
   57.9460   30.9780   52.0270 C   0  0  0  0  0  0  0  0  0  0  0  0
   57.9300   32.3600   51.3540 C   0  0  0  0  0  0  0  0  0  0  0  0
   57.8100   32.2520   49.8900 N   0  0  0  0  0  0  0  0  0  0  0  0
   58.8990   32.9750   49.2670 C   0  0  0  0  0  0  0  0  0  0  0  0
   60.1030   33.1260   49.9860 C   0  0  0  0  0  0  0  0  0  0  0  0
   61.2080   33.7480   49.4130 C   0  0  0  0  0  0  0  0  0  0  0  0
   61.1410   34.2310   48.1100 C   0  0  0  0  0  0  0  0  0  0  0  0
   59.9730   34.0790   47.3520 C   0  0  0  0  0  0  0  0  0  0  0  0
   59.9380   34.5420   46.0210 C   0  0  0  0  0  0  0  0  0  0  0  0
   58.7840   34.3890   45.2530 C   0  0  0  0  0  0  0  0  0  0  0  0
   57.6660   33.7620   45.7960 C   0  0  0  0  0  0  0  0  0  0  0  0
   57.6880   33.2790   47.1100 C   0  0  0  0  0  0  0  0  0  0  0  0
   58.8350   33.4410   47.9200 C   0  0  0  0  0  0  0  0  0  0  0  0
   58.5330   28.7370   47.5310 S   0  0  0  0  0  0  0  0  0  0  0  0
   57.1913   26.4633   46.3651 H   0  0  0  0  0  0  0  0  0  0  0  0
   56.2782   26.3538   44.8221 H   0  0  0  0  0  0  0  0  0  0  0  0
   57.9741   26.9458   44.8221 H   0  0  0  0  0  0  0  0  0  0  0  0
   55.2266   29.2239   43.4317 H   0  0  0  0  0  0  0  0  0  0  0  0
   55.9442   31.1309   41.9995 H   0  0  0  0  0  0  0  0  0  0  0  0
   58.0748   32.3238   42.4773 H   0  0  0  0  0  0  0  0  0  0  0  0
   59.4710   31.6473   44.4203 H   0  0  0  0  0  0  0  0  0  0  0  0
   61.7956   30.7753   49.4054 H   0  0  0  0  0  0  0  0  0  0  0  0
   62.7428   30.2946   47.9567 H   0  0  0  0  0  0  0  0  0  0  0  0
   61.8222   31.8371   47.9567 H   0  0  0  0  0  0  0  0  0  0  0  0
   59.4200   27.8275   50.0939 H   0  0  0  0  0  0  0  0  0  0  0  0
   61.1361   28.3953   50.0192 H   0  0  0  0  0  0  0  0  0  0  0  0
   60.2115   29.5777   51.8533 H   0  0  0  0  0  0  0  0  0  0  0  0
   60.1714   30.7540   50.4890 H   0  0  0  0  0  0  0  0  0  0  0  0
   57.9150   29.0310   51.3590 H   0  0  0  0  0  0  0  0  0  0  0  0
   56.9502   30.7610   52.4409 H   0  0  0  0  0  0  0  0  0  0  0  0
   58.6904   30.9749   52.8368 H   0  0  0  0  0  0  0  0  0  0  0  0
   57.0753   32.9347   51.7402 H   0  0  0  0  0  0  0  0  0  0  0  0
   58.8803   32.8641   51.5837 H   0  0  0  0  0  0  0  0  0  0  0  0
   57.7840   31.2500   49.5830 H   0  0  0  0  0  0  0  0  0  0  0  0
   56.8950   32.6730   49.5960 H   0  0  0  0  0  0  0  0  0  0  0  0
   60.1695   32.7460   51.0161 H   0  0  0  0  0  0  0  0  0  0  0  0
   62.1369   33.8581   49.9918 H   0  0  0  0  0  0  0  0  0  0  0  0
   62.0135   34.7370   47.6709 H   0  0  0  0  0  0  0  0  0  0  0  0
   60.8249   35.0261   45.5862 H   0  0  0  0  0  0  0  0  0  0  0  0
   58.7572   34.7634   44.2190 H   0  0  0  0  0  0  0  0  0  0  0  0
   56.7572   33.6450   45.1873 H   0  0  0  0  0  0  0  0  0  0  0  0
   56.8029   32.7678   47.5165 H   0  0  0  0  0  0  0  0  0  0  0  0
  1  2  1  0
  2  3  1  0
  3  4  2  0
  4  5  1  0
  5  6  2  0
  6  7  1  0
  7  8  2  0
  8  9  1  0
  9 10  2  0
 10 11  1  0
 11 12  1  0
 11 13  2  0
 13 14  1  0
 14 15  1  0
 15 16  1  0
 16 17  1  0
 17 18  1  0
 18 19  1  0
 19 20  1  0
 20 21  2  0
 21 22  1  0
 22 23  2  0
 23 24  1  0
 24 25  2  0
 25 26  1  0
 26 27  2  0
 27 28  1  0
 28 29  2  0
 13 30  1  0
  8  3  1  0
 30  9  1  0
 29 20  1  0
 29 24  1  0
  1 31  1  0
  1 32  1  0
  1 33  1  0
  4 34  1  0
  5 35  1  0
  6 36  1  0
  7 37  1  0
 12 38  1  0
 12 39  1  0
 12 40  1  0
 14 41  1  0
 14 42  1  0
 15 43  1  0
 15 44  1  0
 16 45  1  0
 17 46  1  0
 17 47  1  0
 18 48  1  0
 18 49  1  0
 19 50  1  0
 19 51  1  0
 21 52  1  0
 22 53  1  0
 23 54  1  0
 25 55  1  0
 26 56  1  0
 27 57  1  0
 28 58  1  0
M  CHG  1  19   1
M  END
>  <UniqueID>  (8) 
8

>  <SMILES>  (8) 
COc1ccccc1-c1nc(C)c(CCNCC[NH2+]c2cccc3ccccc23)s1

>  <Energy>  (8) 
91.35186518179162

>  <Genealogy>  (8) 
COc1ccccc1-c1nc(C)c(CCNCC[NH2+]c2cccc3ccccc23)s1 (protonated)
COc1ccccc1-c1nc(C)c(CCNCC[NH2+]c2cccc3ccccc23)s1 (3D coordinates assigned)
COc1ccccc1-c1nc(C)c(CCNCC[NH2+]c2cccc3ccccc23)s1 (optimized conformer: 91.35186518179162 kcal/mol)

>  <smiles>  (8) 
COc1ccccc1-c1nc(C)c(CCNCCNc2cccc3ccccc23)s1

>  <score_type>  (8) 
oracle

>  <origin>  (8) 
adg

>  <m_score__min__energy>  (8) 
-6.96

>  <m_primary>  (8) 
energy

$$$$
8:0
     RDKit          3D

 64 67  0  0  0  0  0  0  0  0999 V2000
   56.3040   30.0060   42.7710 C   0  0  0  0  0  0  0  0  0  0  0  0
   57.1110   31.2340   43.1770 C   0  0  0  0  0  0  0  0  0  0  0  0
   57.5610   31.1160   44.5720 N   0  0  0  0  0  0  0  0  0  0  0  0
   57.6100   29.7940   45.2110 C   0  0  0  0  0  0  0  0  0  0  0  0
   58.7970   28.9800   44.6800 C   0  0  0  0  0  0  0  0  0  0  0  0
   59.7490   28.7330   45.6980 O   0  0  0  0  0  0  0  0  0  0  0  0
   59.5720   27.4550   46.2840 C   0  0  0  0  0  0  0  0  0  0  0  0
   59.4800   27.5700   47.8110 C   0  0  0  0  0  0  0  0  0  0  0  0
   60.4340   28.6290   48.4030 C   0  0  0  0  0  0  0  0  0  0  0  0
   60.3230   29.9510   47.7500 N   0  0  0  0  0  0  0  0  0  0  0  0
   60.6130   31.0450   48.6730 C   0  0  0  0  0  0  0  0  0  0  0  0
   61.7100   31.9350   48.4630 C   0  0  0  0  0  0  0  0  0  0  0  0
   62.5420   31.8640   47.3150 C   0  0  0  0  0  0  0  0  0  0  0  0
   63.5690   32.7810   47.1040 C   0  0  0  0  0  0  0  0  0  0  0  0
   63.7920   33.8000   48.0140 C   0  0  0  0  0  0  0  0  0  0  0  0
   63.0130   33.8870   49.1620 C   0  0  0  0  0  0  0  0  0  0  0  0
   61.9880   32.9420   49.4340 C   0  0  0  0  0  0  0  0  0  0  0  0
   61.2690   33.0000   50.6080 N   0  0  0  0  0  0  0  0  0  0  0  0
   61.7760   33.8000   51.7480 C   0  0  0  0  0  0  0  0  0  0  0  0
   60.0960   32.2900   50.7360 C   0  0  0  0  0  0  0  0  0  0  0  0
   59.1840   32.5640   51.7900 C   0  0  0  0  0  0  0  0  0  0  0  0
   58.0310   31.8070   51.9630 C   0  0  0  0  0  0  0  0  0  0  0  0
   57.7470   30.7650   51.0930 C   0  0  0  0  0  0  0  0  0  0  0  0
   58.5960   30.4970   50.0220 C   0  0  0  0  0  0  0  0  0  0  0  0
   59.7680   31.2680   49.8010 C   0  0  0  0  0  0  0  0  0  0  0  0
   58.0730   32.2660   45.2740 C   0  0  0  0  0  0  0  0  0  0  0  0
   58.4880   33.4020   44.5580 C   0  0  0  0  0  0  0  0  0  0  0  0
   58.9710   34.5260   45.2350 C   0  0  0  0  0  0  0  0  0  0  0  0
   59.0420   34.5270   46.6310 C   0  0  0  0  0  0  0  0  0  0  0  0
   58.6340   33.4010   47.3520 C   0  0  0  0  0  0  0  0  0  0  0  0
   58.1510   32.2750   46.6790 C   0  0  0  0  0  0  0  0  0  0  0  0
   55.9582   29.4798   43.6730 H   0  0  0  0  0  0  0  0  0  0  0  0
   55.4352   30.3193   42.1735 H   0  0  0  0  0  0  0  0  0  0  0  0
   56.9363   29.3328   42.1735 H   0  0  0  0  0  0  0  0  0  0  0  0
   57.9885   31.3240   42.5199 H   0  0  0  0  0  0  0  0  0  0  0  0
   56.4738   32.1257   43.0828 H   0  0  0  0  0  0  0  0  0  0  0  0
   57.7172   29.9220   46.2983 H   0  0  0  0  0  0  0  0  0  0  0  0
   56.6794   29.2546   44.9807 H   0  0  0  0  0  0  0  0  0  0  0  0
   58.4278   28.0184   44.2940 H   0  0  0  0  0  0  0  0  0  0  0  0
   59.2850   29.5587   43.8819 H   0  0  0  0  0  0  0  0  0  0  0  0
   58.6448   27.0057   45.8987 H   0  0  0  0  0  0  0  0  0  0  0  0
   60.4356   26.8240   46.0270 H   0  0  0  0  0  0  0  0  0  0  0  0
   58.4482   27.8411   48.0790 H   0  0  0  0  0  0  0  0  0  0  0  0
   59.7751   26.5963   48.2290 H   0  0  0  0  0  0  0  0  0  0  0  0
   60.2028   28.7477   49.4719 H   0  0  0  0  0  0  0  0  0  0  0  0
   61.4604   28.2701   48.2365 H   0  0  0  0  0  0  0  0  0  0  0  0
   59.3570   30.0680   47.3690 H   0  0  0  0  0  0  0  0  0  0  0  0
   60.8860   29.9670   46.8800 H   0  0  0  0  0  0  0  0  0  0  0  0
   62.3719   31.0673   46.5758 H   0  0  0  0  0  0  0  0  0  0  0  0
   64.2053   32.6951   46.2108 H   0  0  0  0  0  0  0  0  0  0  0  0
   64.5846   34.5399   47.8289 H   0  0  0  0  0  0  0  0  0  0  0  0
   63.1942   34.7049   49.8749 H   0  0  0  0  0  0  0  0  0  0  0  0
   61.4744   33.3241   52.6928 H   0  0  0  0  0  0  0  0  0  0  0  0
   62.8736   33.8540   51.6987 H   0  0  0  0  0  0  0  0  0  0  0  0
   61.3563   34.8156   51.6987 H   0  0  0  0  0  0  0  0  0  0  0  0
   59.3943   33.3918   52.4832 H   0  0  0  0  0  0  0  0  0  0  0  0
   57.3432   32.0347   52.7907 H   0  0  0  0  0  0  0  0  0  0  0  0
   56.8492   30.1489   51.2492 H   0  0  0  0  0  0  0  0  0  0  0  0
   58.3543   29.6729   49.3346 H   0  0  0  0  0  0  0  0  0  0  0  0
   58.4325   33.4068   43.4594 H   0  0  0  0  0  0  0  0  0  0  0  0
   59.2957   35.4110   44.6681 H   0  0  0  0  0  0  0  0  0  0  0  0
   59.4188   35.4136   47.1621 H   0  0  0  0  0  0  0  0  0  0  0  0
   58.6931   33.4010   48.4504 H   0  0  0  0  0  0  0  0  0  0  0  0
   57.8303   31.3916   47.2506 H   0  0  0  0  0  0  0  0  0  0  0  0
  1  2  1  0
  2  3  1  0
  3  4  1  0
  4  5  1  0
  5  6  1  0
  6  7  1  0
  7  8  1  0
  8  9  1  0
  9 10  1  0
 10 11  1  0
 11 12  1  0
 12 13  2  0
 13 14  1  0
 14 15  2  0
 15 16  1  0
 16 17  2  0
 17 18  1  0
 18 19  1  0
 18 20  2  0
 20 21  1  0
 21 22  2  0
 22 23  1  0
 23 24  2  0
 24 25  1  0
  3 26  1  0
 26 27  2  0
 27 28  1  0
 28 29  2  0
 29 30  1  0
 30 31  2  0
 25 11  2  0
 31 26  1  0
 17 12  1  0
 25 20  1  0
  1 32  1  0
  1 33  1  0
  1 34  1  0
  2 35  1  0
  2 36  1  0
  4 37  1  0
  4 38  1  0
  5 39  1  0
  5 40  1  0
  7 41  1  0
  7 42  1  0
  8 43  1  0
  8 44  1  0
  9 45  1  0
  9 46  1  0
 10 47  1  0
 10 48  1  0
 13 49  1  0
 14 50  1  0
 15 51  1  0
 16 52  1  0
 19 53  1  0
 19 54  1  0
 19 55  1  0
 21 56  1  0
 22 57  1  0
 23 58  1  0
 24 59  1  0
 27 60  1  0
 28 61  1  0
 29 62  1  0
 30 63  1  0
 31 64  1  0
M  CHG  2  10   1  18   1
M  END
>  <UniqueID>  (9) 
9

>  <SMILES>  (9) 
CCN(CCOCCC[NH2+]c1c2ccccc2[n+](C)c2ccccc12)c1ccccc1

>  <Energy>  (9) 
97.88123181378292

>  <Genealogy>  (9) 
CCN(CCOCCC[NH2+]c1c2ccccc2[n+](C)c2ccccc12)c1ccccc1 (protonated)
CCN(CCOCCC[NH2+]c1c2ccccc2[n+](C)c2ccccc12)c1ccccc1 (3D coordinates assigned)
CCN(CCOCCC[NH2+]c1c2ccccc2[n+](C)c2ccccc12)c1ccccc1 (optimized conformer: 97.88123181378292 kcal/mol)

>  <smiles>  (9) 
CCN(CCOCCCNc1c2ccccc2[n+](C)c2ccccc12)c1ccccc1

>  <score_type>  (9) 
oracle

>  <origin>  (9) 
adg

>  <m_score__min__energy>  (9) 
-4.71

>  <m_primary>  (9) 
energy

$$$$
9:0
     RDKit          3D

 42 44  0  0  0  0  0  0  0  0999 V2000
   60.7380   30.1370   48.7870 C   0  0  0  0  0  0  0  0  0  0  0  0
   61.9860   30.8610   49.2890 C   0  0  0  0  0  0  0  0  0  0  0  0
   61.7530   32.3680   49.4630 C   0  0  0  0  0  0  0  0  0  0  0  0
   61.1560   32.9520   48.2570 N   0  0  0  0  0  0  0  0  0  0  0  0
   59.8270   33.1010   48.2150 N   0  0  0  0  0  0  0  0  0  0  0  0
   59.1900   33.5810   47.1170 C   0  0  0  0  0  0  0  0  0  0  0  0
   59.9290   33.9540   46.0020 C   0  0  0  0  0  0  0  0  0  0  0  0
   61.3190   33.8330   46.0380 C   0  0  0  0  0  0  0  0  0  0  0  0
   61.9260   33.3110   47.1800 C   0  0  0  0  0  0  0  0  0  0  0  0
   63.1790   33.1730   47.2070 O   0  0  0  0  0  0  0  0  0  0  0  0
   59.1920   34.4390   44.7880 C   0  0  0  0  0  0  0  0  0  0  0  0
   57.9670   33.6390   44.5720 N   0  0  0  0  0  0  0  0  0  0  0  0
   58.1520   32.4070   43.7660 C   0  0  0  0  0  0  0  0  0  0  0  0
   57.5180   31.1710   44.3670 C   0  0  0  0  0  0  0  0  0  0  0  0
   56.2120   30.7730   44.1690 C   0  0  0  0  0  0  0  0  0  0  0  0
   55.9870   29.6190   44.8270 N   0  0  0  0  0  0  0  0  0  0  0  0
   57.1630   29.3400   45.4270 C   0  0  0  0  0  0  0  0  0  0  0  0
   58.1070   30.2700   45.1810 N   0  0  0  0  0  0  0  0  0  0  0  0
   59.4800   30.2370   45.6740 C   0  0  0  0  0  0  0  0  0  0  0  0
   57.0640   33.4930   45.7460 C   0  0  0  0  0  0  0  0  0  0  0  0
   57.7100   33.7980   47.1180 C   0  0  0  0  0  0  0  0  0  0  0  0
   60.1437   29.7922   49.6460 H   0  0  0  0  0  0  0  0  0  0  0  0
   60.1352   30.8256   48.1768 H   0  0  0  0  0  0  0  0  0  0  0  0
   61.0365   29.2718   48.1768 H   0  0  0  0  0  0  0  0  0  0  0  0
   62.2769   30.4334   50.2598 H   0  0  0  0  0  0  0  0  0  0  0  0
   62.7785   30.7269   48.5381 H   0  0  0  0  0  0  0  0  0  0  0  0
   61.0758   32.5310   50.3144 H   0  0  0  0  0  0  0  0  0  0  0  0
   62.7235   32.8534   49.6430 H   0  0  0  0  0  0  0  0  0  0  0  0
   61.9279   34.1453   45.1768 H   0  0  0  0  0  0  0  0  0  0  0  0
   58.9150   35.4940   44.9301 H   0  0  0  0  0  0  0  0  0  0  0  0
   59.8454   34.3336   43.9094 H   0  0  0  0  0  0  0  0  0  0  0  0
   57.7083   32.5743   42.7735 H   0  0  0  0  0  0  0  0  0  0  0  0
   59.2347   32.2174   43.7226 H   0  0  0  0  0  0  0  0  0  0  0  0
   55.4683   31.3148   43.5662 H   0  0  0  0  0  0  0  0  0  0  0  0
   57.3329   28.4494   46.0498 H   0  0  0  0  0  0  0  0  0  0  0  0
   59.4747   30.2371   46.7740 H   0  0  0  0  0  0  0  0  0  0  0  0
   59.9786   29.3266   45.3098 H   0  0  0  0  0  0  0  0  0  0  0  0
   60.0217   31.1224   45.3098 H   0  0  0  0  0  0  0  0  0  0  0  0
   56.2154   34.1795   45.6096 H   0  0  0  0  0  0  0  0  0  0  0  0
   56.7723   32.4328   45.7758 H   0  0  0  0  0  0  0  0  0  0  0  0
   57.5079   34.8477   47.3772 H   0  0  0  0  0  0  0  0  0  0  0  0
   57.2721   33.1074   47.8537 H   0  0  0  0  0  0  0  0  0  0  0  0
  1  2  1  0
  2  3  1  0
  3  4  1  0
  4  5  1  0
  5  6  2  0
  6  7  1  0
  7  8  2  0
  8  9  1  0
  9 10  2  0
  7 11  1  0
 11 12  1  0
 12 13  1  0
 13 14  1  0
 14 15  2  0
 15 16  1  0
 16 17  2  0
 17 18  1  0
 18 19  1  0
 12 20  1  0
 20 21  1  0
  9  4  1  0
 18 14  1  0
 21  6  1  0
  1 22  1  0
  1 23  1  0
  1 24  1  0
  2 25  1  0
  2 26  1  0
  3 27  1  0
  3 28  1  0
  8 29  1  0
 11 30  1  0
 11 31  1  0
 13 32  1  0
 13 33  1  0
 15 34  1  0
 17 35  1  0
 19 36  1  0
 19 37  1  0
 19 38  1  0
 20 39  1  0
 20 40  1  0
 21 41  1  0
 21 42  1  0
M  END
>  <UniqueID>  (10) 
10

>  <SMILES>  (10) 
CCCn1nc2c(cc1=O)CN(Cc1cncn1C)CC2

>  <Energy>  (10) 
80.18294072924846

>  <Genealogy>  (10) 
CCCn1nc2c(cc1=O)CN(Cc1cncn1C)CC2 (3D coordinates assigned)
CCCn1nc2c(cc1=O)CN(Cc1cncn1C)CC2 (nonaromatic ring conformer: 80.18294072924846 kcal/mol)

>  <smiles>  (10) 
CCCn1nc2c(cc1=O)CN(Cc1cncn1C)CC2

>  <score_type>  (10) 
oracle

>  <origin>  (10) 
adg

>  <m_score__min__energy>  (10) 
-6.6900000000000004

>  <m_primary>  (10) 
energy

$$$$
10:0
     RDKit          3D

 44 47  0  0  1  0  0  0  0  0999 V2000
   60.0630   21.8320   44.9050 C   0  0  0  0  0  0  0  0  0  0  0  0
   58.6600   22.2740   44.7000 C   0  0  0  0  0  0  0  0  0  0  0  0
   57.8990   21.6230   43.7300 C   0  0  0  0  0  0  0  0  0  0  0  0
   56.5920   22.0870   43.5880 C   0  0  0  0  0  0  0  0  0  0  0  0
   55.9020   21.4980   42.7090 O   0  0  0  0  0  0  0  0  0  0  0  0
   56.1070   23.0920   44.3400 N   0  0  0  0  0  0  0  0  0  0  0  0
   54.7300   23.5180   44.1320 C   0  0  0  0  0  0  0  0  0  0  0  0
   56.8690   23.6990   45.2690 C   0  0  0  0  0  0  0  0  0  0  0  0
   56.2140   25.0280   46.2570 S   0  0  0  0  0  0  0  0  0  0  0  0
   57.1770   26.5330   46.0220 C   0  0  0  0  0  0  0  0  0  0  0  0
   57.6970   27.1400   47.1530 C   0  0  0  0  0  0  0  0  0  0  0  0
   58.4360   28.2930   46.9870 C   0  0  0  0  0  0  0  0  0  0  0  0
   58.6610   28.8400   45.7160 C   0  0  0  0  0  0  0  0  0  0  0  0
   59.2920   30.0270   45.5730 N   0  0  0  0  0  0  0  0  0  0  0  0
   58.9410   31.1130   45.1160 C   0  0  0  0  0  0  0  0  0  0  0  0
   58.5220   31.1640   43.8240 N   0  0  0  0  0  0  0  0  0  0  0  0
   58.1170   32.2840   43.2160 C   0  0  0  0  0  0  0  0  0  0  0  0
   57.5920   32.2430   41.5340 Cl  0  0  0  0  0  0  0  0  0  0  0  0
   58.1230   33.4250   43.9130 N   0  0  0  0  0  0  0  0  0  0  0  0
   58.5310   33.4060   45.1920 C   0  0  0  0  0  0  0  0  0  0  0  0
   58.5160   34.6080   45.8610 C   0  0  0  0  0  0  0  0  0  0  0  0
   58.9290   34.6070   47.1630 C   0  0  0  0  0  0  0  0  0  0  0  0
   59.3540   33.5140   47.8500 C   0  0  0  0  0  0  0  0  0  0  0  0
   59.3600   32.2980   47.1450 C   0  0  0  0  0  0  0  0  0  0  0  0
   58.9550   32.2570   45.8430 C   0  0  0  0  0  0  0  0  0  0  0  0
   58.1200   28.2010   44.5730 C   0  0  0  0  0  0  0  0  0  0  0  0
   57.3800   27.0450   44.7550 C   0  0  0  0  0  0  0  0  0  0  0  0
   58.1520   23.2700   45.4320 N   0  0  0  0  0  0  0  0  0  0  0  0
   60.2728   21.7659   45.9828 H   0  0  0  0  0  0  0  0  0  0  0  0
   60.2078   20.8447   44.4420 H   0  0  0  0  0  0  0  0  0  0  0  0
   60.7475   22.5580   44.4420 H   0  0  0  0  0  0  0  0  0  0  0  0
   58.3015   20.8011   43.1197 H   0  0  0  0  0  0  0  0  0  0  0  0
   54.2418   23.6690   45.1061 H   0  0  0  0  0  0  0  0  0  0  0  0
   54.7195   24.4614   43.5664 H   0  0  0  0  0  0  0  0  0  0  0  0
   54.1886   22.7453   43.5664 H   0  0  0  0  0  0  0  0  0  0  0  0
   57.5259   26.7156   48.1533 H   0  0  0  0  0  0  0  0  0  0  0  0
   58.8578   28.7939   47.8709 H   0  0  0  0  0  0  0  0  0  0  0  0
   58.5030   30.2920   43.2450 H   0  0  0  0  0  0  0  0  0  0  0  0
   58.1845   35.5332   45.3670 H   0  0  0  0  0  0  0  0  0  0  0  0
   58.9166   35.5678   47.6984 H   0  0  0  0  0  0  0  0  0  0  0  0
   59.6756   33.5775   48.9000 H   0  0  0  0  0  0  0  0  0  0  0  0
   59.6924   31.3763   47.6449 H   0  0  0  0  0  0  0  0  0  0  0  0
   58.2838   28.6130   43.5663 H   0  0  0  0  0  0  0  0  0  0  0  0
   56.9501   26.5299   43.8833 H   0  0  0  0  0  0  0  0  0  0  0  0
  1  2  1  0
  2  3  2  0
  3  4  1  0
  4  5  2  0
  4  6  1  0
  6  7  1  0
  6  8  1  0
  8  9  1  0
  9 10  1  0
 10 11  2  0
 11 12  1  0
 12 13  2  0
 13 14  1  0
 14 15  2  0
 15 16  1  0
 16 17  1  0
 17 18  1  0
 17 19  2  0
 19 20  1  0
 20 21  2  0
 21 22  1  0
 22 23  2  0
 23 24  1  0
 24 25  2  0
 13 26  1  0
 26 27  2  0
  8 28  2  0
 28  2  1  0
 27 10  1  0
 25 15  1  0
 25 20  1  0
  1 29  1  0
  1 30  1  0
  1 31  1  0
  3 32  1  0
  7 33  1  0
  7 34  1  0
  7 35  1  0
 11 36  1  0
 12 37  1  0
 16 38  1  0
 21 39  1  0
 22 40  1  0
 23 41  1  0
 24 42  1  0
 26 43  1  0
 27 44  1  0
M  END
>  <smiles>  (11) 
Cc1cc(=O)n(C)c(Sc2ccc(N=c3[nH]c(Cl)nc4ccccc34)cc2)n1

>  <score_type>  (11) 
oracle

>  <origin>  (11) 
adg

>  <m_score__min__energy>  (11) 
-9.0199999999999996

>  <m_primary>  (11) 
energy

$$$$
11:0
     RDKit          3D

 40 41  0  0  0  0  0  0  0  0999 V2000
   55.5210   29.9280   44.1380 C   0  0  0  0  0  0  0  0  0  0  0  0
   56.7610   30.1010   44.9140 N   0  0  0  0  0  0  0  0  0  0  0  0
   57.1130   28.8300   45.5670 C   0  0  0  0  0  0  0  0  0  0  0  0
   57.8720   30.5580   44.0500 C   0  0  0  0  0  0  0  0  0  0  0  0
   57.4130   31.6490   43.0680 C   0  0  0  0  0  0  0  0  0  0  0  0
   57.9220   33.0510   43.4310 C   0  0  0  0  0  0  0  0  0  0  0  0
   57.0460   33.7830   44.8630 S   0  0  0  0  0  0  0  0  0  0  0  0
   58.1540   33.0950   46.0980 C   0  0  0  0  0  0  0  0  0  0  0  0
   57.9080   31.9580   46.7700 N   0  0  0  0  0  0  0  0  0  0  0  0
   58.9260   31.7350   47.5850 N   0  0  0  0  0  0  0  0  0  0  0  0
   59.7930   32.7530   47.4000 C   0  0  0  0  0  0  0  0  0  0  0  0
   61.0710   32.8590   48.1360 C   0  0  0  0  0  0  0  0  0  0  0  0
   62.2430   32.3240   47.5750 C   0  0  0  0  0  0  0  0  0  0  0  0
   63.4560   32.4000   48.2660 C   0  0  0  0  0  0  0  0  0  0  0  0
   63.5080   32.9980   49.5290 C   0  0  0  0  0  0  0  0  0  0  0  0
   65.1660   33.0990   50.4720 Br  0  0  0  0  0  0  0  0  0  0  0  0
   62.3430   33.5130   50.1040 C   0  0  0  0  0  0  0  0  0  0  0  0
   61.1280   33.4390   49.4150 C   0  0  0  0  0  0  0  0  0  0  0  0
   59.3450   33.6160   46.4560 N   0  0  0  0  0  0  0  0  0  0  0  0
   60.0120   34.7860   45.8850 C   0  0  0  0  0  0  0  0  0  0  0  0
   54.6712   29.8094   44.8263 H   0  0  0  0  0  0  0  0  0  0  0  0
   55.3588   30.8122   43.5041 H   0  0  0  0  0  0  0  0  0  0  0  0
   55.6070   29.0332   43.5041 H   0  0  0  0  0  0  0  0  0  0  0  0
   57.0779   28.9568   46.6591 H   0  0  0  0  0  0  0  0  0  0  0  0
   56.3965   28.0519   45.2650 H   0  0  0  0  0  0  0  0  0  0  0  0
   58.1277   28.5313   45.2650 H   0  0  0  0  0  0  0  0  0  0  0  0
   58.6742   30.9631   44.6843 H   0  0  0  0  0  0  0  0  0  0  0  0
   58.2301   29.6975   43.4658 H   0  0  0  0  0  0  0  0  0  0  0  0
   57.7835   31.3928   42.0645 H   0  0  0  0  0  0  0  0  0  0  0  0
   56.3143   31.6819   43.1104 H   0  0  0  0  0  0  0  0  0  0  0  0
   58.9930   32.9832   43.6728 H   0  0  0  0  0  0  0  0  0  0  0  0
   57.7366   33.7025   42.5643 H   0  0  0  0  0  0  0  0  0  0  0  0
   57.0680   31.3440   46.6820 H   0  0  0  0  0  0  0  0  0  0  0  0
   62.2059   31.8427   46.5866 H   0  0  0  0  0  0  0  0  0  0  0  0
   64.3712   31.9886   47.8153 H   0  0  0  0  0  0  0  0  0  0  0  0
   62.3816   33.9775   51.1004 H   0  0  0  0  0  0  0  0  0  0  0  0
   60.2122   33.8368   49.8766 H   0  0  0  0  0  0  0  0  0  0  0  0
   60.3797   35.4310   46.6967 H   0  0  0  0  0  0  0  0  0  0  0  0
   60.8592   34.4586   45.2645 H   0  0  0  0  0  0  0  0  0  0  0  0
   59.2987   35.3482   45.2645 H   0  0  0  0  0  0  0  0  0  0  0  0
  1  2  1  0
  2  3  1  0
  2  4  1  0
  4  5  1  0
  5  6  1  0
  6  7  1  0
  7  8  1  0
  8  9  2  0
  9 10  1  0
 10 11  2  0
 11 12  1  0
 12 13  2  0
 13 14  1  0
 14 15  2  0
 15 16  1  0
 15 17  1  0
 17 18  2  0
 11 19  1  0
 19 20  1  0
 19  8  1  0
 18 12  1  0
  1 21  1  0
  1 22  1  0
  1 23  1  0
  3 24  1  0
  3 25  1  0
  3 26  1  0
  4 27  1  0
  4 28  1  0
  5 29  1  0
  5 30  1  0
  6 31  1  0
  6 32  1  0
  9 33  1  0
 13 34  1  0
 14 35  1  0
 17 36  1  0
 18 37  1  0
 20 38  1  0
 20 39  1  0
 20 40  1  0
M  CHG  1   9   1
M  END
>  <UniqueID>  (12) 
11

>  <SMILES>  (12) 
CN(C)CCCSc1[nH+]nc(-c2ccc(Br)cc2)n1C

>  <Energy>  (12) 
72.71298243147041

>  <Genealogy>  (12) 
CN(C)CCCSc1[nH+]nc(-c2ccc(Br)cc2)n1C (protonated)
CN(C)CCCSc1[nH+]nc(-c2ccc(Br)cc2)n1C (3D coordinates assigned)
CN(C)CCCSc1[nH+]nc(-c2ccc(Br)cc2)n1C (optimized conformer: 72.71298243147041 kcal/mol)

>  <smiles>  (12) 
CN(C)CCCSc1nnc(-c2ccc(Br)cc2)n1C

>  <score_type>  (12) 
oracle

>  <origin>  (12) 
adg

>  <m_score__min__energy>  (12) 
-6.0800000000000001

>  <m_primary>  (12) 
energy

$$$$
12:0
     RDKit          3D

 57 61  0  0  0  0  0  0  0  0999 V2000
   57.7830   27.7010   46.9340 C   0  0  0  0  0  0  0  0  0  0  0  0
   58.9010   28.3370   46.2370 N   0  0  0  0  0  0  0  0  0  0  0  0
   60.0380   28.8600   46.7580 C   0  0  0  0  0  0  0  0  0  0  0  0
   60.4260   28.8230   48.1820 C   0  0  0  0  0  0  0  0  0  0  0  0
   60.7740   29.9960   48.8670 C   0  0  0  0  0  0  0  0  0  0  0  0
   61.1230   29.9240   50.2180 C   0  0  0  0  0  0  0  0  0  0  0  0
   61.1250   28.7260   50.8620 N   0  0  0  0  0  0  0  0  0  0  0  0
   60.7780   27.5760   50.2250 C   0  0  0  0  0  0  0  0  0  0  0  0
   60.4150   27.6040   48.8760 C   0  0  0  0  0  0  0  0  0  0  0  0
   60.7740   29.4810   45.8130 N   0  0  0  0  0  0  0  0  0  0  0  0
   60.1130   29.3370   44.6750 N   0  0  0  0  0  0  0  0  0  0  0  0
   58.9900   28.6440   44.9270 C   0  0  0  0  0  0  0  0  0  0  0  0
   57.7520   28.2660   43.6820 S   0  0  0  0  0  0  0  0  0  0  0  0
   56.4550   29.3290   44.4150 C   0  0  0  0  0  0  0  0  0  0  0  0
   56.5300   30.7930   43.9510 C   0  0  0  0  0  0  0  0  0  0  0  0
   57.9170   31.4580   44.0770 C   0  0  0  0  0  0  0  0  0  0  0  0
   57.9370   32.5160   45.1130 N   0  0  0  0  0  0  0  0  0  0  0  0
   58.3360   33.8400   44.5920 C   0  0  0  0  0  0  0  0  0  0  0  0
   59.2650   34.5070   45.5990 C   0  0  1  0  0  0  0  0  0  0  0  0
   58.6930   34.6540   46.9990 C   0  0  0  0  0  0  0  0  0  0  0  0
   59.5750   33.4570   46.6290 C   0  0  2  0  0  0  0  0  0  0  0  0
   60.9600   33.4220   47.2570 C   0  0  0  0  0  0  0  0  0  0  0  0
   62.0580   33.5180   46.3760 C   0  0  0  0  0  0  0  0  0  0  0  0
   63.3680   33.5050   46.8470 C   0  0  0  0  0  0  0  0  0  0  0  0
   63.6170   33.4110   48.2110 C   0  0  0  0  0  0  0  0  0  0  0  0
   62.5540   33.3430   49.1100 C   0  0  0  0  0  0  0  0  0  0  0  0
   61.2150   33.3700   48.6660 C   0  0  0  0  0  0  0  0  0  0  0  0
   60.1590   33.3250   49.7590 C   0  0  0  0  0  0  0  0  0  0  0  0
   60.7610   32.9700   50.9570 F   0  0  0  0  0  0  0  0  0  0  0  0
   59.1310   32.4430   49.5130 F   0  0  0  0  0  0  0  0  0  0  0  0
   59.5960   34.5840   49.9040 F   0  0  0  0  0  0  0  0  0  0  0  0
   58.8610   32.1800   46.2170 C   0  0  0  0  0  0  0  0  0  0  0  0
   57.9323   27.7859   48.0205 H   0  0  0  0  0  0  0  0  0  0  0  0
   56.8440   28.2001   46.6528 H   0  0  0  0  0  0  0  0  0  0  0  0
   57.7322   26.6388   46.6528 H   0  0  0  0  0  0  0  0  0  0  0  0
   60.7722   30.9644   48.3453 H   0  0  0  0  0  0  0  0  0  0  0  0
   61.3971   30.8395   50.7627 H   0  0  0  0  0  0  0  0  0  0  0  0
   60.7830   26.6220   50.7726 H   0  0  0  0  0  0  0  0  0  0  0  0
   60.1226   26.6766   48.3618 H   0  0  0  0  0  0  0  0  0  0  0  0
   60.4270   29.7090   43.7510 H   0  0  0  0  0  0  0  0  0  0  0  0
   55.4719   28.9240   44.1331 H   0  0  0  0  0  0  0  0  0  0  0  0
   56.6098   29.3255   45.5040 H   0  0  0  0  0  0  0  0  0  0  0  0
   56.2313   30.8292   42.8929 H   0  0  0  0  0  0  0  0  0  0  0  0
   55.8622   31.3568   44.6189 H   0  0  0  0  0  0  0  0  0  0  0  0
   58.6564   30.6881   44.3424 H   0  0  0  0  0  0  0  0  0  0  0  0
   58.1565   31.9262   43.1109 H   0  0  0  0  0  0  0  0  0  0  0  0
   58.8591   33.7168   43.6322 H   0  0  0  0  0  0  0  0  0  0  0  0
   57.4435   34.4643   44.4378 H   0  0  0  0  0  0  0  0  0  0  0  0
   59.7987   35.2184   44.9517 H   0  0  0  0  0  0  0  0  0  0  0  0
   59.0752   35.4348   47.6730 H   0  0  0  0  0  0  0  0  0  0  0  0
   57.6871   34.7842   47.4248 H   0  0  0  0  0  0  0  0  0  0  0  0
   61.8751   33.6049   45.2948 H   0  0  0  0  0  0  0  0  0  0  0  0
   64.2071   33.5692   46.1386 H   0  0  0  0  0  0  0  0  0  0  0  0
   64.6527   33.3903   48.5810 H   0  0  0  0  0  0  0  0  0  0  0  0
   62.7632   33.2668   50.1872 H   0  0  0  0  0  0  0  0  0  0  0  0
   59.5945   31.4339   45.8773 H   0  0  0  0  0  0  0  0  0  0  0  0
   58.3062   31.7579   47.0679 H   0  0  0  0  0  0  0  0  0  0  0  0
  1  2  1  0
  2  3  1  0
  3  4  1  0
  4  5  2  0
  5  6  1  0
  6  7  2  0
  7  8  1  0
  8  9  2  0
  3 10  2  0
 10 11  1  0
 11 12  2  0
 12 13  1  0
 13 14  1  0
 14 15  1  0
 15 16  1  0
 16 17  1  0
 17 18  1  0
 18 19  1  0
 19 20  1  0
 20 21  1  0
 21 22  1  1
 22 23  2  0
 23 24  1  0
 24 25  2  0
 25 26  1  0
 26 27  2  0
 27 28  1  0
 28 29  1  0
 28 30  1  0
 28 31  1  0
 21 32  1  0
 12  2  1  0
 32 17  1  0
  9  4  1  0
 21 19  1  0
 27 22  1  0
  1 33  1  0
  1 34  1  0
  1 35  1  0
  5 36  1  0
  6 37  1  0
  8 38  1  0
  9 39  1  0
 11 40  1  0
 14 41  1  0
 14 42  1  0
 15 43  1  0
 15 44  1  0
 16 45  1  0
 16 46  1  0
 18 47  1  0
 18 48  1  0
 19 49  1  6
 20 50  1  0
 20 51  1  0
 23 52  1  0
 24 53  1  0
 25 54  1  0
 26 55  1  0
 32 56  1  0
 32 57  1  0
M  CHG  1  11   1
M  END
>  <UniqueID>  (13) 
12

>  <SMILES>  (13) 
Cn1c(-c2ccncc2)n[nH+]c1SCCCN1C[C@H]2C[C@@]2(c2ccccc2C(F)(F)F)C1

>  <Energy>  (13) 
376.9142759449649

>  <Genealogy>  (13) 
Cn1c(-c2ccncc2)n[nH+]c1SCCCN1CC2CC2(c2ccccc2C(F)(F)F)C1 (protonated)
Cn1c(-c2ccncc2)n[nH+]c1SCCCN1C[C@H]2C[C@@]2(c2ccccc2C(F)(F)F)C1 (chirality)
Cn1c(-c2ccncc2)n[nH+]c1SCCCN1C[C@H]2C[C@@]2(c2ccccc2C(F)(F)F)C1 (3D coordinates assigned)
Cn1c(-c2ccncc2)n[nH+]c1SCCCN1C[C@H]2C[C@@]2(c2ccccc2C(F)(F)F)C1 (nonaromatic ring conformer: 376.9142759449649 kcal/mol)

>  <smiles>  (13) 
Cn1c(SCCCN2CC3CC3(c3ccccc3C(F)(F)F)C2)nnc1-c1ccncc1

>  <score_type>  (13) 
oracle

>  <origin>  (13) 
adg

>  <m_score__min__energy>  (13) 
-8.1300000000000008

>  <m_primary>  (13) 
energy

$$$$
13:0
     RDKit          3D

 51 53  0  0  0  0  0  0  0  0999 V2000
   62.8360   33.7880   46.5760 C   0  0  0  0  0  0  0  0  0  0  0  0
   63.6070   32.5980   47.1350 C   0  0  0  0  0  0  0  0  0  0  0  0
   62.7220   31.7820   47.9770 N   0  0  0  0  0  0  0  0  0  0  0  0
   63.0380   31.9110   49.4080 C   0  0  0  0  0  0  0  0  0  0  0  0
   61.7990   31.7410   50.3050 C   0  0  0  0  0  0  0  0  0  0  0  0
   60.6910   31.3110   49.5360 O   0  0  0  0  0  0  0  0  0  0  0  0
   60.1150   30.1430   50.0890 C   0  0  0  0  0  0  0  0  0  0  0  0
   60.1430   29.0130   49.0520 C   0  0  0  0  0  0  0  0  0  0  0  0
   60.6730   29.4440   47.7430 N   0  0  0  0  0  0  0  0  0  0  0  0
   59.6470   29.4540   46.7030 C   0  0  0  0  0  0  0  0  0  0  0  0
   59.0750   30.6740   46.2330 C   0  0  0  0  0  0  0  0  0  0  0  0
   59.4610   31.9420   46.7420 C   0  0  0  0  0  0  0  0  0  0  0  0
   58.8470   33.1140   46.3110 C   0  0  0  0  0  0  0  0  0  0  0  0
   57.8260   33.0640   45.3760 C   0  0  0  0  0  0  0  0  0  0  0  0
   57.0220   34.5420   44.8750 Cl  0  0  0  0  0  0  0  0  0  0  0  0
   57.4420   31.8410   44.8330 C   0  0  0  0  0  0  0  0  0  0  0  0
   58.0860   30.6330   45.2060 C   0  0  0  0  0  0  0  0  0  0  0  0
   57.7610   29.4380   44.5970 N   0  0  0  0  0  0  0  0  0  0  0  0
   57.0020   29.4430   43.3240 C   0  0  0  0  0  0  0  0  0  0  0  0
   58.1760   28.2430   45.1430 C   0  0  0  0  0  0  0  0  0  0  0  0
   57.6220   27.0080   44.7130 C   0  0  0  0  0  0  0  0  0  0  0  0
   58.0940   25.7940   45.2030 C   0  0  0  0  0  0  0  0  0  0  0  0
   57.3980   24.2850   44.6400 Cl  0  0  0  0  0  0  0  0  0  0  0  0
   59.1170   25.7760   46.1400 C   0  0  0  0  0  0  0  0  0  0  0  0
   59.6450   26.9710   46.6220 C   0  0  0  0  0  0  0  0  0  0  0  0
   59.1670   28.2260   46.1650 C   0  0  0  0  0  0  0  0  0  0  0  0
   62.4437   34.3935   47.4063 H   0  0  0  0  0  0  0  0  0  0  0  0
   63.5077   34.4030   45.9591 H   0  0  0  0  0  0  0  0  0  0  0  0
   62.0002   33.4263   45.9591 H   0  0  0  0  0  0  0  0  0  0  0  0
   63.9865   31.9858   46.3036 H   0  0  0  0  0  0  0  0  0  0  0  0
   64.4491   32.9635   47.7411 H   0  0  0  0  0  0  0  0  0  0  0  0
   61.7290   32.0740   47.8120 H   0  0  0  0  0  0  0  0  0  0  0  0
   63.7759   31.1408   49.6767 H   0  0  0  0  0  0  0  0  0  0  0  0
   63.4319   32.9248   49.5723 H   0  0  0  0  0  0  0  0  0  0  0  0
   62.0136   30.9927   51.0822 H   0  0  0  0  0  0  0  0  0  0  0  0
   61.5582   32.7085   50.7697 H   0  0  0  0  0  0  0  0  0  0  0  0
   60.6874   29.8383   50.9776 H   0  0  0  0  0  0  0  0  0  0  0  0
   59.0731   30.3502   50.3744 H   0  0  0  0  0  0  0  0  0  0  0  0
   60.7768   28.2002   49.4363 H   0  0  0  0  0  0  0  0  0  0  0  0
   59.1049   28.6850   48.8947 H   0  0  0  0  0  0  0  0  0  0  0  0
   61.5140   28.8860   47.4950 H   0  0  0  0  0  0  0  0  0  0  0  0
   61.0830   30.3990   47.8360 H   0  0  0  0  0  0  0  0  0  0  0  0
   60.2626   31.9991   47.4931 H   0  0  0  0  0  0  0  0  0  0  0  0
   59.1736   34.0839   46.7143 H   0  0  0  0  0  0  0  0  0  0  0  0
   56.6226   31.8106   44.0998 H   0  0  0  0  0  0  0  0  0  0  0  0
   55.9235   29.4501   43.5402 H   0  0  0  0  0  0  0  0  0  0  0  0
   57.2655   30.3394   42.7435 H   0  0  0  0  0  0  0  0  0  0  0  0
   57.2537   28.5432   42.7435 H   0  0  0  0  0  0  0  0  0  0  0  0
   56.8036   27.0111   43.9780 H   0  0  0  0  0  0  0  0  0  0  0  0
   59.5119   24.8156   46.5030 H   0  0  0  0  0  0  0  0  0  0  0  0
   60.4489   26.9412   47.3722 H   0  0  0  0  0  0  0  0  0  0  0  0
  1  2  1  0
  2  3  1  0
  3  4  1  0
  4  5  1  0
  5  6  1  0
  6  7  1  0
  7  8  1  0
  8  9  1  0
  9 10  1  0
 10 11  2  0
 11 12  1  0
 12 13  2  0
 13 14  1  0
 14 15  1  0
 14 16  2  0
 16 17  1  0
 17 18  2  0
 18 19  1  0
 18 20  1  0
 20 21  2  0
 21 22  1  0
 22 23  1  0
 22 24  2  0
 24 25  1  0
 25 26  2  0
 26 10  1  0
 17 11  1  0
 26 20  1  0
  1 27  1  0
  1 28  1  0
  1 29  1  0
  2 30  1  0
  2 31  1  0
  3 32  1  0
  4 33  1  0
  4 34  1  0
  5 35  1  0
  5 36  1  0
  7 37  1  0
  7 38  1  0
  8 39  1  0
  8 40  1  0
  9 41  1  0
  9 42  1  0
 12 43  1  0
 13 44  1  0
 16 45  1  0
 19 46  1  0
 19 47  1  0
 19 48  1  0
 21 49  1  0
 24 50  1  0
 25 51  1  0
M  CHG  2   9   1  18   1
M  END
>  <UniqueID>  (14) 
13

>  <SMILES>  (14) 
CCNCCOCC[NH2+]c1c2ccc(Cl)cc2[n+](C)c2cc(Cl)ccc12

>  <Energy>  (14) 
78.55755843611898

>  <Genealogy>  (14) 
CCNCCOCC[NH2+]c1c2ccc(Cl)cc2[n+](C)c2cc(Cl)ccc12 (protonated)
CCNCCOCC[NH2+]c1c2ccc(Cl)cc2[n+](C)c2cc(Cl)ccc12 (3D coordinates assigned)
CCNCCOCC[NH2+]c1c2ccc(Cl)cc2[n+](C)c2cc(Cl)ccc12 (optimized conformer: 78.55755843611898 kcal/mol)

>  <smiles>  (14) 
CCNCCOCCNc1c2ccc(Cl)cc2[n+](C)c2cc(Cl)ccc12

>  <score_type>  (14) 
oracle

>  <origin>  (14) 
adg

>  <m_score__min__energy>  (14) 
-3.6899999999999999

>  <m_primary>  (14) 
energy

$$$$
14:0
     RDKit          3D

 66 69  0  0  0  0  0  0  0  0999 V2000
   61.8780   30.9160   47.1440 C   0  0  0  0  0  0  0  0  0  0  0  0
   62.3380   31.2190   48.5790 C   0  0  0  0  0  0  0  0  0  0  0  0
   62.6340   32.6510   48.8550 N   0  0  0  0  0  0  0  0  0  0  0  0
   63.5520   33.2950   47.8890 C   0  0  0  0  0  0  0  0  0  0  0  0
   62.8510   33.8490   46.6450 C   0  0  0  0  0  0  0  0  0  0  0  0
   61.4980   33.5010   49.2670 C   0  0  0  0  0  0  0  0  0  0  0  0
   60.6530   32.8080   50.3460 C   0  0  0  0  0  0  0  0  0  0  0  0
   59.4940   32.2300   49.7750 O   0  0  0  0  0  0  0  0  0  0  0  0
   58.3660   32.3800   50.6200 C   0  0  0  0  0  0  0  0  0  0  0  0
   58.1890   31.1500   51.5070 C   0  0  0  0  0  0  0  0  0  0  0  0
   58.0630   29.9930   50.6960 O   0  0  0  0  0  0  0  0  0  0  0  0
   59.3050   29.3440   50.5050 C   0  0  0  0  0  0  0  0  0  0  0  0
   59.7250   29.3790   49.0310 C   0  0  0  0  0  0  0  0  0  0  0  0
   58.7180   30.0480   48.2020 N   0  0  0  0  0  0  0  0  0  0  0  0
   58.5390   29.7050   46.8200 C   0  0  0  0  0  0  0  0  0  0  0  0
   58.4960   30.7500   45.8680 C   0  0  0  0  0  0  0  0  0  0  0  0
   58.7480   32.1160   45.9700 C   0  0  0  0  0  0  0  0  0  0  0  0
   59.2500   32.8860   47.0240 C   0  0  0  0  0  0  0  0  0  0  0  0
   59.4220   34.2650   46.8210 C   0  0  0  0  0  0  0  0  0  0  0  0
   59.1140   34.8510   45.5770 C   0  0  0  0  0  0  0  0  0  0  0  0
   58.6440   34.0620   44.5170 C   0  0  0  0  0  0  0  0  0  0  0  0
   58.4710   32.6910   44.7350 C   0  0  0  0  0  0  0  0  0  0  0  0
   58.0600   31.7700   43.8320 N   0  0  0  0  0  0  0  0  0  0  0  0
   57.7550   31.9900   42.4190 C   0  0  0  0  0  0  0  0  0  0  0  0
   58.0920   30.5920   44.4890 C   0  0  0  0  0  0  0  0  0  0  0  0
   57.7600   29.0600   43.9030 S   0  0  0  0  0  0  0  0  0  0  0  0
   57.9660   27.9100   45.1360 C   0  0  0  0  0  0  0  0  0  0  0  0
   57.7590   26.5580   44.8420 C   0  0  0  0  0  0  0  0  0  0  0  0
   57.9350   25.5910   45.8300 C   0  0  0  0  0  0  0  0  0  0  0  0
   58.3270   25.9670   47.1120 C   0  0  0  0  0  0  0  0  0  0  0  0
   58.5350   27.3140   47.4200 C   0  0  0  0  0  0  0  0  0  0  0  0
   58.3410   28.3270   46.4530 C   0  0  0  0  0  0  0  0  0  0  0  0
   60.9597   30.3111   47.1733 H   0  0  0  0  0  0  0  0  0  0  0  0
   61.6785   31.8601   46.6159 H   0  0  0  0  0  0  0  0  0  0  0  0
   62.6666   30.3600   46.6159 H   0  0  0  0  0  0  0  0  0  0  0  0
   61.5433   30.8959   49.2675 H   0  0  0  0  0  0  0  0  0  0  0  0
   63.2846   30.6766   48.7195 H   0  0  0  0  0  0  0  0  0  0  0  0
   64.0636   34.1254   48.3975 H   0  0  0  0  0  0  0  0  0  0  0  0
   64.2503   32.5183   47.5440 H   0  0  0  0  0  0  0  0  0  0  0  0
   62.0223   34.5039   46.9522 H   0  0  0  0  0  0  0  0  0  0  0  0
   63.5705   34.4251   46.0447 H   0  0  0  0  0  0  0  0  0  0  0  0
   62.4567   33.0158   46.0447 H   0  0  0  0  0  0  0  0  0  0  0  0
   61.8855   34.4493   49.6679 H   0  0  0  0  0  0  0  0  0  0  0  0
   60.8617   33.6844   48.3886 H   0  0  0  0  0  0  0  0  0  0  0  0
   61.2527   32.0192   50.8238 H   0  0  0  0  0  0  0  0  0  0  0  0
   60.3461   33.5563   51.0915 H   0  0  0  0  0  0  0  0  0  0  0  0
   58.5065   33.2666   51.2558 H   0  0  0  0  0  0  0  0  0  0  0  0
   57.4687   32.4972   49.9946 H   0  0  0  0  0  0  0  0  0  0  0  0
   59.0649   31.0431   52.1638 H   0  0  0  0  0  0  0  0  0  0  0  0
   57.2824   31.2680   52.1187 H   0  0  0  0  0  0  0  0  0  0  0  0
   60.0719   29.8508   51.1092 H   0  0  0  0  0  0  0  0  0  0  0  0
   59.2014   28.2934   50.8140 H   0  0  0  0  0  0  0  0  0  0  0  0
   60.6779   29.9214   48.9435 H   0  0  0  0  0  0  0  0  0  0  0  0
   59.8308   28.3428   48.6772 H   0  0  0  0  0  0  0  0  0  0  0  0
   58.2280   30.8910   48.5780 H   0  0  0  0  0  0  0  0  0  0  0  0
   59.5040   32.4227   47.9888 H   0  0  0  0  0  0  0  0  0  0  0  0
   59.8006   34.8934   47.6406 H   0  0  0  0  0  0  0  0  0  0  0  0
   59.2430   35.9343   45.4364 H   0  0  0  0  0  0  0  0  0  0  0  0
   58.4170   34.5101   43.5384 H   0  0  0  0  0  0  0  0  0  0  0  0
   56.8657   32.6315   42.3314 H   0  0  0  0  0  0  0  0  0  0  0  0
   58.6103   32.4804   41.9313 H   0  0  0  0  0  0  0  0  0  0  0  0
   57.5595   31.0236   41.9313 H   0  0  0  0  0  0  0  0  0  0  0  0
   57.4564   26.2573   43.8281 H   0  0  0  0  0  0  0  0  0  0  0  0
   57.7641   24.5297   45.5968 H   0  0  0  0  0  0  0  0  0  0  0  0
   58.4737   25.1997   47.8864 H   0  0  0  0  0  0  0  0  0  0  0  0
   58.8560   27.5917   48.4348 H   0  0  0  0  0  0  0  0  0  0  0  0
  1  2  1  0
  2  3  1  0
  3  4  1  0
  4  5  1  0
  3  6  1  0
  6  7  1  0
  7  8  1  0
  8  9  1  0
  9 10  1  0
 10 11  1  0
 11 12  1  0
 12 13  1  0
 13 14  1  0
 14 15  1  0
 15 16  2  0
 16 17  1  0
 17 18  2  0
 18 19  1  0
 19 20  2  0
 20 21  1  0
 21 22  2  0
 22 23  1  0
 23 24  1  0
 23 25  2  0
 25 26  1  0
 26 27  1  0
 27 28  2  0
 28 29  1  0
 29 30  2  0
 30 31  1  0
 31 32  2  0
 32 15  1  0
 25 16  1  0
 32 27  1  0
 22 17  1  0
  1 33  1  0
  1 34  1  0
  1 35  1  0
  2 36  1  0
  2 37  1  0
  4 38  1  0
  4 39  1  0
  5 40  1  0
  5 41  1  0
  5 42  1  0
  6 43  1  0
  6 44  1  0
  7 45  1  0
  7 46  1  0
  9 47  1  0
  9 48  1  0
 10 49  1  0
 10 50  1  0
 12 51  1  0
 12 52  1  0
 13 53  1  0
 13 54  1  0
 14 55  1  0
 18 56  1  0
 19 57  1  0
 20 58  1  0
 21 59  1  0
 24 60  1  0
 24 61  1  0
 24 62  1  0
 28 63  1  0
 29 64  1  0
 30 65  1  0
 31 66  1  0
M  CHG  1  23   1
M  END
>  <UniqueID>  (15) 
14

>  <SMILES>  (15) 
CCN(CC)CCOCCOCCNc1c2c3ccccc3[n+](C)c-2sc2ccccc12

>  <Energy>  (15) 
127.8856243810015

>  <Genealogy>  (15) 
CCN(CC)CCOCCOCCNc1c2c3ccccc3[n+](C)c-2sc2ccccc12 (3D coordinates assigned)
CCN(CC)CCOCCOCCNc1c2c3ccccc3[n+](C)c-2sc2ccccc12 (optimized conformer: 127.8856243810015 kcal/mol)

>  <smiles>  (15) 
CCN(CC)CCOCCOCCNc1c2c3ccccc3[n+](C)c-2sc2ccccc12

>  <score_type>  (15) 
oracle

>  <origin>  (15) 
adg

>  <m_score__min__energy>  (15) 
-7.04

>  <m_primary>  (15) 
energy

$$$$
15:0
     RDKit          3D

 49 50  0  0  0  0  0  0  0  0999 V2000
   56.5840   24.4820   46.2030 C   0  0  0  0  0  0  0  0  0  0  0  0
   56.3720   25.9910   46.3550 C   0  0  2  0  0  0  0  0  0  0  0  0
   55.0710   26.3180   45.9390 O   0  0  0  0  0  0  0  0  0  0  0  0
   57.3980   26.7670   45.5070 C   0  0  0  0  0  0  0  0  0  0  0  0
   56.9800   28.2200   45.2270 C   0  0  0  0  0  0  0  0  0  0  0  0
   58.0430   29.2130   45.6100 C   0  0  0  0  0  0  0  0  0  0  0  0
   58.9420   29.0650   46.6460 C   0  0  0  0  0  0  0  0  0  0  0  0
   59.6910   30.2270   46.6130 C   0  0  0  0  0  0  0  0  0  0  0  0
   60.8530   30.5410   47.4980 C   0  0  0  0  0  0  0  0  0  0  0  0
   61.1630   31.9730   47.4110 N   0  0  0  0  0  0  0  0  0  0  0  0
   60.8490   32.6680   48.6690 C   0  0  0  0  0  0  0  0  0  0  0  0
   59.7200   33.6840   48.4470 C   0  0  0  0  0  0  0  0  0  0  0  0
   59.2580   33.6720   47.0420 N   0  0  0  0  0  0  0  0  0  0  0  0
   59.8590   34.7780   46.2600 C   0  0  0  0  0  0  0  0  0  0  0  0
   59.1120   34.9980   44.9300 C   0  0  0  0  0  0  0  0  0  0  0  0
   58.3540   33.8550   44.5910 O   0  0  0  0  0  0  0  0  0  0  0  0
   57.3000   33.6870   45.5230 C   0  0  0  0  0  0  0  0  0  0  0  0
   57.7860   33.7560   46.9870 C   0  0  0  0  0  0  0  0  0  0  0  0
   59.2780   31.0160   45.6010 N   0  0  0  0  0  0  0  0  0  0  0  0
   58.2690   30.4000   45.0070 N   0  0  0  0  0  0  0  0  0  0  0  0
   57.5820   30.9350   43.8350 C   0  0  0  0  0  0  0  0  0  0  0  0
   56.6491   24.0188   47.1986 H   0  0  0  0  0  0  0  0  0  0  0  0
   55.7382   24.0467   45.6506 H   0  0  0  0  0  0  0  0  0  0  0  0
   57.5170   24.2966   45.6506 H   0  0  0  0  0  0  0  0  0  0  0  0
   56.5081   26.2688   47.4106 H   0  0  0  0  0  0  0  0  0  0  0  0
   54.9590   25.9480   45.0250 H   0  0  0  0  0  0  0  0  0  0  0  0
   58.3583   26.7770   46.0434 H   0  0  0  0  0  0  0  0  0  0  0  0
   57.4715   26.2559   44.5357 H   0  0  0  0  0  0  0  0  0  0  0  0
   56.7707   28.3253   44.1522 H   0  0  0  0  0  0  0  0  0  0  0  0
   56.0900   28.4335   45.8371 H   0  0  0  0  0  0  0  0  0  0  0  0
   59.0405   28.2169   47.3395 H   0  0  0  0  0  0  0  0  0  0  0  0
   60.6022   30.2829   48.5375 H   0  0  0  0  0  0  0  0  0  0  0  0
   61.7274   29.9569   47.1752 H   0  0  0  0  0  0  0  0  0  0  0  0
   60.5580   32.3810   46.6590 H   0  0  0  0  0  0  0  0  0  0  0  0
   60.5317   31.9311   49.4216 H   0  0  0  0  0  0  0  0  0  0  0  0
   61.7463   33.1998   49.0184 H   0  0  0  0  0  0  0  0  0  0  0  0
   58.8753   33.4310   49.1046 H   0  0  0  0  0  0  0  0  0  0  0  0
   60.1047   34.6882   48.6785 H   0  0  0  0  0  0  0  0  0  0  0  0
   59.8121   35.7027   46.8539 H   0  0  0  0  0  0  0  0  0  0  0  0
   60.9018   34.5130   46.0313 H   0  0  0  0  0  0  0  0  0  0  0  0
   58.4382   35.8615   45.0322 H   0  0  0  0  0  0  0  0  0  0  0  0
   59.8495   35.1832   44.1352 H   0  0  0  0  0  0  0  0  0  0  0  0
   56.5562   34.4811   45.3608 H   0  0  0  0  0  0  0  0  0  0  0  0
   56.8684   32.6881   45.3617 H   0  0  0  0  0  0  0  0  0  0  0  0
   57.4598   34.7070   47.4333 H   0  0  0  0  0  0  0  0  0  0  0  0
   57.3581   32.9111   47.5464 H   0  0  0  0  0  0  0  0  0  0  0  0
   56.7527   31.5808   44.1592 H   0  0  0  0  0  0  0  0  0  0  0  0
   58.2897   31.5222   43.2314 H   0  0  0  0  0  0  0  0  0  0  0  0
   57.1860   30.1050   43.2314 H   0  0  0  0  0  0  0  0  0  0  0  0
  1  2  1  0
  2  3  1  0
  2  4  1  0
  4  5  1  0
  5  6  1  0
  6  7  2  0
  7  8  1  0
  8  9  1  0
  9 10  1  0
 10 11  1  0
 11 12  1  0
 12 13  1  0
 13 14  1  0
 14 15  1  0
 15 16  1  0
 16 17  1  0
 17 18  1  0
  8 19  2  0
 19 20  1  0
 20 21  1  0
 20  6  1  0
 18 13  1  0
  1 22  1  0
  1 23  1  0
  1 24  1  0
  2 25  1  1
  3 26  1  0
  4 27  1  0
  4 28  1  0
  5 29  1  0
  5 30  1  0
  7 31  1  0
  9 32  1  0
  9 33  1  0
 10 34  1  0
 11 35  1  0
 11 36  1  0
 12 37  1  0
 12 38  1  0
 14 39  1  0
 14 40  1  0
 15 41  1  0
 15 42  1  0
 17 43  1  0
 17 44  1  0
 18 45  1  0
 18 46  1  0
 21 47  1  0
 21 48  1  0
 21 49  1  0
M  END
>  <UniqueID>  (16) 
15

>  <SMILES>  (16) 
C[C@H](O)CCc1cc(CNCCN2CCOCC2)nn1C

>  <Energy>  (16) 
76.90444556269962

>  <Genealogy>  (16) 
C[C@H](O)CCc1cc(CNCCN2CCOCC2)nn1C (chirality)
C[C@H](O)CCc1cc(CNCCN2CCOCC2)nn1C (3D coordinates assigned)
C[C@H](O)CCc1cc(CNCCN2CCOCC2)nn1C (nonaromatic ring conformer: 76.90444556269962 kcal/mol)

>  <smiles>  (16) 
CC(O)CCc1cc(CNCCN2CCOCC2)nn1C

>  <score_type>  (16) 
oracle

>  <origin>  (16) 
adg

>  <m_score__min__energy>  (16) 
-7.4400000000000004

>  <m_primary>  (16) 
energy

$$$$
16:0
     RDKit          3D

 50 53  0  0  0  0  0  0  0  0999 V2000
   57.5720   33.9870   45.3280 C   0  0  0  0  0  0  0  0  0  0  0  0
   57.9790   32.6300   45.6910 N   0  0  0  0  0  0  0  0  0  0  0  0
   57.7730   31.4910   44.9830 C   0  0  0  0  0  0  0  0  0  0  0  0
   57.1790   31.3540   43.7240 C   0  0  0  0  0  0  0  0  0  0  0  0
   57.0620   30.0610   43.1830 C   0  0  0  0  0  0  0  0  0  0  0  0
   57.5270   28.9370   43.8990 C   0  0  0  0  0  0  0  0  0  0  0  0
   58.1130   29.0930   45.1680 C   0  0  0  0  0  0  0  0  0  0  0  0
   58.2190   30.3850   45.6800 C   0  0  0  0  0  0  0  0  0  0  0  0
   58.7060   30.8530   46.8790 C   0  0  0  0  0  0  0  0  0  0  0  0
   59.2510   30.1850   47.9740 C   0  0  0  0  0  0  0  0  0  0  0  0
   59.6360   30.9570   49.0970 C   0  0  0  0  0  0  0  0  0  0  0  0
   60.1960   30.3770   50.2450 O   0  0  0  0  0  0  0  0  0  0  0  0
   61.3850   29.5890   50.2490 C   0  0  0  0  0  0  0  0  0  0  0  0
   62.5710   30.4200   50.6600 C   0  0  0  0  0  0  0  0  0  0  0  0
   63.0410   30.2920   51.7830 O   0  0  0  0  0  0  0  0  0  0  0  0
   63.1500   31.3730   49.7300 N   0  0  0  0  0  0  0  0  0  0  0  0
   63.0680   32.7330   50.3130 C   0  0  0  0  0  0  0  0  0  0  0  0
   63.6850   33.8250   49.4160 C   0  0  0  0  0  0  0  0  0  0  0  0
   62.9100   34.1430   48.1160 C   0  0  0  0  0  0  0  0  0  0  0  0
   63.2940   33.2620   46.9150 C   0  0  0  0  0  0  0  0  0  0  0  0
   63.4060   31.7430   47.2080 C   0  0  0  0  0  0  0  0  0  0  0  0
   62.5460   31.2110   48.3790 C   0  0  0  0  0  0  0  0  0  0  0  0
   59.4550   32.3590   49.0780 C   0  0  0  0  0  0  0  0  0  0  0  0
   58.8980   33.0050   47.9600 C   0  0  0  0  0  0  0  0  0  0  0  0
   58.5360   32.2220   46.8610 C   0  0  0  0  0  0  0  0  0  0  0  0
   57.3960   34.5738   46.2416 H   0  0  0  0  0  0  0  0  0  0  0  0
   58.3672   34.4620   44.7347 H   0  0  0  0  0  0  0  0  0  0  0  0
   56.6466   33.9459   44.7347 H   0  0  0  0  0  0  0  0  0  0  0  0
   56.8136   32.2329   43.1725 H   0  0  0  0  0  0  0  0  0  0  0  0
   56.6037   29.9244   42.1924 H   0  0  0  0  0  0  0  0  0  0  0  0
   57.4304   27.9323   43.4616 H   0  0  0  0  0  0  0  0  0  0  0  0
   58.4755   28.2244   45.7374 H   0  0  0  0  0  0  0  0  0  0  0  0
   59.3781   29.0924   47.9662 H   0  0  0  0  0  0  0  0  0  0  0  0
   61.2643   28.7563   50.9575 H   0  0  0  0  0  0  0  0  0  0  0  0
   61.5577   29.2031   49.2335 H   0  0  0  0  0  0  0  0  0  0  0  0
   64.1700   31.1440   49.6350 H   0  0  0  0  0  0  0  0  0  0  0  0
   62.0085   32.9770   50.4798 H   0  0  0  0  0  0  0  0  0  0  0  0
   63.6453   32.7190   51.2492 H   0  0  0  0  0  0  0  0  0  0  0  0
   63.7488   34.7510   50.0064 H   0  0  0  0  0  0  0  0  0  0  0  0
   64.6610   33.4324   49.0945 H   0  0  0  0  0  0  0  0  0  0  0  0
   61.8365   34.0065   48.3134 H   0  0  0  0  0  0  0  0  0  0  0  0
   63.1678   35.1766   47.8420 H   0  0  0  0  0  0  0  0  0  0  0  0
   62.5307   33.4011   46.1353 H   0  0  0  0  0  0  0  0  0  0  0  0
   64.3011   33.5858   46.6135 H   0  0  0  0  0  0  0  0  0  0  0  0
   63.1065   31.2021   46.2982 H   0  0  0  0  0  0  0  0  0  0  0  0
   64.4508   31.5761   47.5088 H   0  0  0  0  0  0  0  0  0  0  0  0
   61.5860   31.7479   48.3682 H   0  0  0  0  0  0  0  0  0  0  0  0
   62.4437   30.1278   48.2168 H   0  0  0  0  0  0  0  0  0  0  0  0
   59.7550   32.9547   49.9527 H   0  0  0  0  0  0  0  0  0  0  0  0
   58.7516   34.0952   47.9510 H   0  0  0  0  0  0  0  0  0  0  0  0
  1  2  1  0
  2  3  1  0
  3  4  2  0
  4  5  1  0
  5  6  2  0
  6  7  1  0
  7  8  2  0
  8  9  1  0
  9 10  2  0
 10 11  1  0
 11 12  1  0
 12 13  1  0
 13 14  1  0
 14 15  2  0
 14 16  1  0
 16 17  1  0
 17 18  1  0
 18 19  1  0
 19 20  1  0
 20 21  1  0
 21 22  1  0
 11 23  2  0
 23 24  1  0
 24 25  2  0
 25  2  1  0
  8  3  1  0
 25  9  1  0
 22 16  1  0
  1 26  1  0
  1 27  1  0
  1 28  1  0
  4 29  1  0
  5 30  1  0
  6 31  1  0
  7 32  1  0
 10 33  1  0
 13 34  1  0
 13 35  1  0
 16 36  1  0
 17 37  1  0
 17 38  1  0
 18 39  1  0
 18 40  1  0
 19 41  1  0
 19 42  1  0
 20 43  1  0
 20 44  1  0
 21 45  1  0
 21 46  1  0
 22 47  1  0
 22 48  1  0
 23 49  1  0
 24 50  1  0
M  CHG  1  16   1
M  END
>  <UniqueID>  (17) 
16

>  <SMILES>  (17) 
Cn1c2ccccc2c2cc(OCC(=O)[NH+]3CCCCCC3)ccc21

>  <Energy>  (17) 
108.31323347765732

>  <Genealogy>  (17) 
Cn1c2ccccc2c2cc(OCC(=O)[NH+]3CCCCCC3)ccc21 (protonated)
Cn1c2ccccc2c2cc(OCC(=O)[NH+]3CCCCCC3)ccc21 (3D coordinates assigned)
Cn1c2ccccc2c2cc(OCC(=O)[NH+]3CCCCCC3)ccc21 (nonaromatic ring conformer: 108.31323347765732 kcal/mol)

>  <smiles>  (17) 
Cn1c2ccccc2c2cc(OCC(=O)N3CCCCCC3)ccc21

>  <score_type>  (17) 
oracle

>  <origin>  (17) 
adg

>  <m_score__min__energy>  (17) 
-3.7999999999999998

>  <m_primary>  (17) 
energy

$$$$
