0:0
     RDKit          3D

 48 50  0  0  0  0  0  0  0  0999 V2000
   63.5440   33.5060   46.7730 C   0  0  0  0  0  0  0  0  0  0  0  0
   62.6000   32.5500   47.3320 N   0  0  0  0  0  0  0  0  0  0  0  0
   61.3510   32.3230   46.8830 C   0  0  0  0  0  0  0  0  0  0  0  0
   60.8180   31.2920   47.6260 C   0  0  0  0  0  0  0  0  0  0  0  0
   59.4680   30.6510   47.4550 C   0  0  0  0  0  0  0  0  0  0  0  0
   59.5660   29.2000   47.1550 N   0  0  1  0  0  0  0  0  0  0  0  0
   58.2060   28.5890   47.1270 C   0  0  0  0  0  0  0  0  0  0  0  0
   58.0210   27.4080   46.1440 C   0  0  0  0  0  0  0  0  0  0  0  0
   57.9130   27.8170   44.6730 C   0  0  0  0  0  0  0  0  0  0  0  0
   58.2290   29.2420   44.5260 N   0  0  0  0  0  0  0  0  0  0  0  0
   57.1550   30.1900   44.3560 C   0  0  0  0  0  0  0  0  0  0  0  0
   56.0140   29.9290   44.8290 O   0  0  0  0  0  0  0  0  0  0  0  0
   57.3740   31.4980   43.6450 C   0  0  0  0  0  0  0  0  0  0  0  0
   57.8680   32.5570   44.5970 C   0  0  0  0  0  0  0  0  0  0  0  0
   57.3960   32.6010   45.9190 C   0  0  0  0  0  0  0  0  0  0  0  0
   57.8340   33.6050   46.7890 C   0  0  0  0  0  0  0  0  0  0  0  0
   58.7380   34.5730   46.3430 C   0  0  0  0  0  0  0  0  0  0  0  0
   59.2030   34.5420   45.0260 C   0  0  0  0  0  0  0  0  0  0  0  0
   58.7660   33.5410   44.1520 C   0  0  0  0  0  0  0  0  0  0  0  0
   59.6160   29.6970   44.6890 C   0  0  0  0  0  0  0  0  0  0  0  0
   60.3070   29.0010   45.8770 C   0  0  0  0  0  0  0  0  0  0  0  0
   61.8160   30.9200   48.5080 C   0  0  0  0  0  0  0  0  0  0  0  0
   62.8970   31.7000   48.3030 N   0  0  0  0  0  0  0  0  0  0  0  0
   64.0618   34.0304   47.5897 H   0  0  0  0  0  0  0  0  0  0  0  0
   64.2810   32.9741   46.1534 H   0  0  0  0  0  0  0  0  0  0  0  0
   63.0028   34.2362   46.1534 H   0  0  0  0  0  0  0  0  0  0  0  0
   60.8464   32.8638   46.0688 H   0  0  0  0  0  0  0  0  0  0  0  0
   58.8942   30.7819   48.3843 H   0  0  0  0  0  0  0  0  0  0  0  0
   58.9704   31.1375   46.6031 H   0  0  0  0  0  0  0  0  0  0  0  0
   60.1070   28.7710   47.9420 H   0  0  0  0  0  0  0  0  0  0  0  0
   57.9782   28.2247   48.1396 H   0  0  0  0  0  0  0  0  0  0  0  0
   57.5286   29.3810   46.7750 H   0  0  0  0  0  0  0  0  0  0  0  0
   58.8837   26.7339   46.2507 H   0  0  0  0  0  0  0  0  0  0  0  0
   57.0659   26.9295   46.4064 H   0  0  0  0  0  0  0  0  0  0  0  0
   58.6211   27.2231   44.0764 H   0  0  0  0  0  0  0  0  0  0  0  0
   56.8866   27.6357   44.3213 H   0  0  0  0  0  0  0  0  0  0  0  0
   58.1198   31.3540   42.8494 H   0  0  0  0  0  0  0  0  0  0  0  0
   56.4150   31.8297   43.2204 H   0  0  0  0  0  0  0  0  0  0  0  0
   56.6799   31.8439   46.2713 H   0  0  0  0  0  0  0  0  0  0  0  0
   57.4665   33.6326   47.8254 H   0  0  0  0  0  0  0  0  0  0  0  0
   59.0837   35.3599   47.0295 H   0  0  0  0  0  0  0  0  0  0  0  0
   59.9134   35.3054   44.6760 H   0  0  0  0  0  0  0  0  0  0  0  0
   59.1268   33.5245   43.1130 H   0  0  0  0  0  0  0  0  0  0  0  0
   60.1756   29.4719   43.7691 H   0  0  0  0  0  0  0  0  0  0  0  0
   59.6014   30.7791   44.8862 H   0  0  0  0  0  0  0  0  0  0  0  0
   60.3698   27.9228   45.6681 H   0  0  0  0  0  0  0  0  0  0  0  0
   61.3066   29.4452   45.9936 H   0  0  0  0  0  0  0  0  0  0  0  0
   61.7404   30.1172   49.2562 H   0  0  0  0  0  0  0  0  0  0  0  0
  1  2  1  0
  2  3  1  0
  3  4  2  0
  4  5  1  0
  5  6  1  0
  6  7  1  0
  7  8  1  0
  8  9  1  0
  9 10  1  0
 10 11  1  0
 11 12  2  0
 11 13  1  0
 13 14  1  0
 14 15  2  0
 15 16  1  0
 16 17  2  0
 17 18  1  0
 18 19  2  0
 10 20  1  0
 20 21  1  0
  4 22  1  0
 22 23  2  0
 23  2  1  0
 21  6  1  0
 19 14  1  0
  1 24  1  0
  1 25  1  0
  1 26  1  0
  3 27  1  0
  5 28  1  0
  5 29  1  0
  6 30  1  1
  7 31  1  0
  7 32  1  0
  8 33  1  0
  8 34  1  0
  9 35  1  0
  9 36  1  0
 13 37  1  0
 13 38  1  0
 15 39  1  0
 16 40  1  0
 17 41  1  0
 18 42  1  0
 19 43  1  0
 20 44  1  0
 20 45  1  0
 21 46  1  0
 21 47  1  0
 22 48  1  0
M  CHG  1   6   1
M  END
>  <UniqueID>  (1) 
1

>  <SMILES>  (1) 
Cn1cc(C[N@H+]2CCCN(C(=O)Cc3ccccc3)CC2)cn1

>  <Energy>  (1) 
88.18559733371936

>  <Genealogy>  (1) 
Cn1cc(C[NH+]2CCCN(C(=O)Cc3ccccc3)CC2)cn1 (protonated)
Cn1cc(C[N@H+]2CCCN(C(=O)Cc3ccccc3)CC2)cn1 (chirality)
Cn1cc(C[N@H+]2CCCN(C(=O)Cc3ccccc3)CC2)cn1 (3D coordinates assigned)
Cn1cc(C[N@H+]2CCCN(C(=O)Cc3ccccc3)CC2)cn1 (nonaromatic ring conformer: 88.18559733371936 kcal/mol)

>  <smiles>  (1) 
Cn1cc(CN2CCCN(C(=O)Cc3ccccc3)CC2)cn1

>  <score_type>  (1) 
oracle

>  <origin>  (1) 
adg

>  <m_score__min__energy>  (1) 
-4.25

>  <m_primary>  (1) 
energy

$$$$
1:0
     RDKit          3D

 37 39  0  0  0  0  0  0  0  0999 V2000
   65.2720   32.5070   50.0780 C   0  0  0  0  0  0  0  0  0  0  0  0
   64.4570   33.6470   49.8260 O   0  0  0  0  0  0  0  0  0  0  0  0
   63.3680   33.6620   48.9410 C   0  0  0  0  0  0  0  0  0  0  0  0
   62.0940   33.9170   49.4600 C   0  0  0  0  0  0  0  0  0  0  0  0
   60.9760   33.9430   48.6200 C   0  0  0  0  0  0  0  0  0  0  0  0
   61.1150   33.7200   47.2380 C   0  0  0  0  0  0  0  0  0  0  0  0
   59.9420   33.7330   46.3270 C   0  0  0  0  0  0  0  0  0  0  0  0
   59.4930   34.9090   45.7010 C   0  0  0  0  0  0  0  0  0  0  0  0
   58.4160   34.8600   44.8730 N   0  0  0  0  0  0  0  0  0  0  0  0
   57.7640   33.6920   44.6290 C   0  0  0  0  0  0  0  0  0  0  0  0
   58.2140   32.5100   45.2310 C   0  0  0  0  0  0  0  0  0  0  0  0
   57.5240   31.2190   44.9990 C   0  0  0  0  0  0  0  0  0  0  0  0
   56.2850   31.2170   44.7610 O   0  0  0  0  0  0  0  0  0  0  0  0
   58.2400   29.9220   45.0670 C   0  0  0  0  0  0  0  0  0  0  0  0
   59.1600   29.6820   46.1030 C   0  0  0  0  0  0  0  0  0  0  0  0
   59.8360   28.4610   46.1810 C   0  0  0  0  0  0  0  0  0  0  0  0
   59.5920   27.4640   45.2350 C   0  0  0  0  0  0  0  0  0  0  0  0
   58.6680   27.6830   44.2120 C   0  0  0  0  0  0  0  0  0  0  0  0
   57.9880   28.9020   44.1290 C   0  0  0  0  0  0  0  0  0  0  0  0
   59.2850   32.5710   46.0670 N   0  0  0  0  0  0  0  0  0  0  0  0
   62.3960   33.4520   46.7220 C   0  0  0  0  0  0  0  0  0  0  0  0
   63.5130   33.4260   47.5620 C   0  0  0  0  0  0  0  0  0  0  0  0
   65.3751   32.3627   51.1636 H   0  0  0  0  0  0  0  0  0  0  0  0
   64.8046   31.6164   49.6325 H   0  0  0  0  0  0  0  0  0  0  0  0
   66.2659   32.6611   49.6325 H   0  0  0  0  0  0  0  0  0  0  0  0
   61.9706   34.0986   50.5379 H   0  0  0  0  0  0  0  0  0  0  0  0
   59.9799   34.1394   49.0434 H   0  0  0  0  0  0  0  0  0  0  0  0
   60.0101   35.8632   45.8802 H   0  0  0  0  0  0  0  0  0  0  0  0
   58.0860   35.7360   44.4090 H   0  0  0  0  0  0  0  0  0  0  0  0
   56.8887   33.6754   43.9630 H   0  0  0  0  0  0  0  0  0  0  0  0
   59.3490   30.4603   46.8571 H   0  0  0  0  0  0  0  0  0  0  0  0
   60.5614   28.2855   46.9891 H   0  0  0  0  0  0  0  0  0  0  0  0
   60.1281   26.5054   45.2957 H   0  0  0  0  0  0  0  0  0  0  0  0
   58.4743   26.8949   43.4695 H   0  0  0  0  0  0  0  0  0  0  0  0
   57.2527   29.0651   43.3273 H   0  0  0  0  0  0  0  0  0  0  0  0
   62.5200   33.2608   45.6459 H   0  0  0  0  0  0  0  0  0  0  0  0
   64.5090   33.2202   47.1430 H   0  0  0  0  0  0  0  0  0  0  0  0
  1  2  1  0
  2  3  1  0
  3  4  2  0
  4  5  1  0
  5  6  2  0
  6  7  1  0
  7  8  2  0
  8  9  1  0
  9 10  2  0
 10 11  1  0
 11 12  1  0
 12 13  2  0
 12 14  1  0
 14 15  2  0
 15 16  1  0
 16 17  2  0
 17 18  1  0
 18 19  2  0
 11 20  2  0
  6 21  1  0
 21 22  2  0
 22  3  1  0
 20  7  1  0
 19 14  1  0
  1 23  1  0
  1 24  1  0
  1 25  1  0
  4 26  1  0
  5 27  1  0
  8 28  1  0
  9 29  1  0
 10 30  1  0
 15 31  1  0
 16 32  1  0
 17 33  1  0
 18 34  1  0
 19 35  1  0
 21 36  1  0
 22 37  1  0
M  CHG  1   9   1
M  END
>  <UniqueID>  (2) 
2

>  <SMILES>  (2) 
COc1ccc(-c2c[nH+]cc(C(=O)c3ccccc3)n2)cc1

>  <Energy>  (2) 
48.07654176942623

>  <Genealogy>  (2) 
COc1ccc(-c2c[nH+]cc(C(=O)c3ccccc3)n2)cc1 (protonated)
COc1ccc(-c2c[nH+]cc(C(=O)c3ccccc3)n2)cc1 (3D coordinates assigned)
COc1ccc(-c2c[nH+]cc(C(=O)c3ccccc3)n2)cc1 (optimized conformer: 48.07654176942623 kcal/mol)

>  <smiles>  (2) 
COc1ccc(-c2cncc(C(=O)c3ccccc3)n2)cc1

>  <score_type>  (2) 
oracle

>  <origin>  (2) 
adg

>  <m_score__min__energy>  (2) 
-6.0700000000000003

>  <m_primary>  (2) 
energy

$$$$
2:0
     RDKit          3D

 33 35  0  0  0  0  0  0  0  0999 V2000
   59.1709   35.7750   44.4041 H   0  0  0  0  0  0  0  0  0  0  0  0
   58.8970   34.9270   45.0490 C   0  0  0  0  0  0  0  0  0  0  0  0
   57.8220   34.2470   44.7910 N   0  0  0  0  0  0  0  0  0  0  0  0
   57.8280   32.8620   44.4240 C   0  0  0  0  0  0  0  0  0  0  0  0
   57.7490   32.4030   43.1600 N   0  0  0  0  0  0  0  0  0  0  0  0
   57.8170   31.0810   43.2170 N   0  0  0  0  0  0  0  0  0  0  0  0
   57.7710   30.4630   42.3760 H   0  0  0  0  0  0  0  0  0  0  0  0
   57.9350   30.6800   44.5010 C   0  0  0  0  0  0  0  0  0  0  0  0
   58.0580   29.2650   44.9220 C   0  0  0  0  0  0  0  0  0  0  0  0
   59.3160   28.6480   45.0310 C   0  0  0  0  0  0  0  0  0  0  0  0
   60.2265   29.2187   44.7960 H   0  0  0  0  0  0  0  0  0  0  0  0
   59.4180   27.3140   45.4360 C   0  0  0  0  0  0  0  0  0  0  0  0
   60.4067   26.8384   45.5149 H   0  0  0  0  0  0  0  0  0  0  0  0
   58.2660   26.5830   45.7410 C   0  0  0  0  0  0  0  0  0  0  0  0
   58.3960   24.9090   46.2480 Cl  0  0  0  0  0  0  0  0  0  0  0  0
   57.0110   27.1910   45.6450 C   0  0  0  0  0  0  0  0  0  0  0  0
   56.1038   26.6180   45.8873 H   0  0  0  0  0  0  0  0  0  0  0  0
   56.9060   28.5250   45.2420 C   0  0  0  0  0  0  0  0  0  0  0  0
   55.9157   28.9992   45.1747 H   0  0  0  0  0  0  0  0  0  0  0  0
   57.9440   31.8100   45.3060 C   0  0  0  0  0  0  0  0  0  0  0  0
   58.1510   31.8990   46.7280 C   0  0  0  0  0  0  0  0  0  0  0  0
   58.3170   31.9700   47.8710 N   0  0  0  0  0  0  0  0  0  0  0  0
   59.7570   34.5770   46.1970 C   0  0  0  0  0  0  0  0  0  0  0  0
   59.3460   34.9200   47.4960 C   0  0  0  0  0  0  0  0  0  0  0  0
   58.3906   35.4439   47.6468 H   0  0  0  0  0  0  0  0  0  0  0  0
   60.1450   34.5990   48.5990 C   0  0  0  0  0  0  0  0  0  0  0  0
   59.8166   34.8719   49.6127 H   0  0  0  0  0  0  0  0  0  0  0  0
   61.3600   33.9320   48.4150 C   0  0  0  0  0  0  0  0  0  0  0  0
   62.3590   33.5300   49.7990 Cl  0  0  0  0  0  0  0  0  0  0  0  0
   61.7770   33.5870   47.1260 C   0  0  0  0  0  0  0  0  0  0  0  0
   62.7329   33.0625   46.9806 H   0  0  0  0  0  0  0  0  0  0  0  0
   60.9820   33.9070   46.0210 C   0  0  0  0  0  0  0  0  0  0  0  0
   61.3158   33.6337   45.0091 H   0  0  0  0  0  0  0  0  0  0  0  0
  1  2  1  0
  2  3  2  0
  3  4  1  0
  4  5  2  0
  5  6  1  0
  6  7  1  0
  6  8  1  0
  8  9  1  0
  9 10  2  0
 10 11  1  0
 10 12  1  0
 12 13  1  0
 12 14  2  0
 14 15  1  0
 14 16  1  0
 16 17  1  0
 16 18  2  0
 18 19  1  0
  8 20  2  0
 20 21  1  0
 21 22  3  0
  2 23  1  0
 23 24  2  0
 24 25  1  0
 24 26  1  0
 26 27  1  0
 26 28  2  0
 28 29  1  0
 28 30  1  0
 30 31  1  0
 30 32  2  0
 32 33  1  0
 20  4  1  0
 32 23  1  0
 18  9  1  0
M  END
>  <UniqueID>  (3) 
3

>  <SMILES>  (3) 
N#Cc1c(/N=C/c2ccc(Cl)cc2)n[nH]c1-c1ccc(Cl)cc1

>  <Energy>  (3) 
70.29087809050615

>  <Genealogy>  (3) 
N#Cc1c(/N=C/c2ccc(Cl)cc2)n[nH]c1-c1ccc(Cl)cc1 (cis-trans isomerization)
N#Cc1c(/N=C/c2ccc(Cl)cc2)n[nH]c1-c1ccc(Cl)cc1 (3D coordinates assigned)
N#Cc1c(/N=C/c2ccc(Cl)cc2)n[nH]c1-c1ccc(Cl)cc1 (optimized conformer: 70.29087809050615 kcal/mol)

>  <smiles>  (3) 
N#Cc1c(N=Cc2ccc(Cl)cc2)n[nH]c1-c1ccc(Cl)cc1

>  <score_type>  (3) 
oracle

>  <origin>  (3) 
adg

>  <m_score__min__energy>  (3) 
-8.3000000000000007

>  <m_primary>  (3) 
energy

$$$$
3:0
     RDKit          3D

 58 61  0  0  0  0  0  0  0  0999 V2000
   64.4330   34.4260   51.7620 C   0  0  0  0  0  0  0  0  0  0  0  0
   64.7350   33.6000   50.6420 O   0  0  0  0  0  0  0  0  0  0  0  0
   63.7940   32.8130   49.9620 C   0  0  0  0  0  0  0  0  0  0  0  0
   63.8350   32.7840   48.5630 C   0  0  0  0  0  0  0  0  0  0  0  0
   62.9110   32.0200   47.8420 C   0  0  0  0  0  0  0  0  0  0  0  0
   61.9370   31.2660   48.5130 C   0  0  0  0  0  0  0  0  0  0  0  0
   61.0070   30.4590   47.7700 N   0  0  0  0  0  0  0  0  0  0  0  0
   59.7520   30.0180   48.3890 C   0  0  0  0  0  0  0  0  0  0  0  0
   58.5810   30.2840   47.4400 C   0  0  0  0  0  0  0  0  0  0  0  0
   58.8970   29.8660   46.0680 N   0  0  0  0  0  0  0  0  0  0  0  0
   57.8380   29.7760   45.1100 C   0  0  0  0  0  0  0  0  0  0  0  0
   57.4930   30.4360   43.9420 C   0  0  0  0  0  0  0  0  0  0  0  0
   58.0500   31.4780   43.1360 N   0  0  0  0  0  0  0  0  0  0  0  0
   57.8550   32.8910   43.4610 C   0  0  0  0  0  0  0  0  0  0  0  0
   57.4640   33.0800   44.9460 C   0  0  0  0  0  0  0  0  0  0  0  0
   58.5980   33.2050   45.8990 N   0  0  0  0  0  0  0  0  0  0  0  0
   59.6330   34.1660   45.4600 C   0  0  0  0  0  0  0  0  0  0  0  0
   60.7750   34.2140   46.4850 C   0  0  0  0  0  0  0  0  0  0  0  0
   60.2830   34.5740   47.7630 O   0  0  0  0  0  0  0  0  0  0  0  0
   59.3630   33.5990   48.2160 C   0  0  0  0  0  0  0  0  0  0  0  0
   58.1500   33.5110   47.2740 C   0  0  0  0  0  0  0  0  0  0  0  0
   56.3710   29.6400   43.8260 C   0  0  0  0  0  0  0  0  0  0  0  0
   55.4230   29.5540   43.0020 O   0  0  0  0  0  0  0  0  0  0  0  0
   56.7330   28.9580   44.9690 C   0  0  0  0  0  0  0  0  0  0  0  0
   56.2510   27.9960   45.6210 O   0  0  0  0  0  0  0  0  0  0  0  0
   60.1950   29.2690   45.7450 C   0  0  0  0  0  0  0  0  0  0  0  0
   61.3250   30.0860   46.3840 C   0  0  0  0  0  0  0  0  0  0  0  0
   61.8970   31.2870   49.9150 C   0  0  0  0  0  0  0  0  0  0  0  0
   62.8140   32.0570   50.6370 C   0  0  0  0  0  0  0  0  0  0  0  0
   64.6353   33.8726   52.6909 H   0  0  0  0  0  0  0  0  0  0  0  0
   65.0587   35.3301   51.7301 H   0  0  0  0  0  0  0  0  0  0  0  0
   63.3717   34.7133   51.7301 H   0  0  0  0  0  0  0  0  0  0  0  0
   64.5991   33.3660   48.0268 H   0  0  0  0  0  0  0  0  0  0  0  0
   62.9486   32.0106   46.7427 H   0  0  0  0  0  0  0  0  0  0  0  0
   59.8101   28.9407   48.6035 H   0  0  0  0  0  0  0  0  0  0  0  0
   59.5941   30.5755   49.3240 H   0  0  0  0  0  0  0  0  0  0  0  0
   57.7016   29.7241   47.7911 H   0  0  0  0  0  0  0  0  0  0  0  0
   58.3789   31.3653   47.4344 H   0  0  0  0  0  0  0  0  0  0  0  0
   58.8580   31.2170   42.5270 H   0  0  0  0  0  0  0  0  0  0  0  0
   58.7904   33.4357   43.2651 H   0  0  0  0  0  0  0  0  0  0  0  0
   57.0381   33.2805   42.8357 H   0  0  0  0  0  0  0  0  0  0  0  0
   56.8561   33.9936   45.0220 H   0  0  0  0  0  0  0  0  0  0  0  0
   56.9286   32.1635   45.2347 H   0  0  0  0  0  0  0  0  0  0  0  0
   59.0480   32.2570   45.9290 H   0  0  0  0  0  0  0  0  0  0  0  0
   60.0322   33.8508   44.4846 H   0  0  0  0  0  0  0  0  0  0  0  0
   59.1833   35.1662   45.3741 H   0  0  0  0  0  0  0  0  0  0  0  0
   61.2480   33.2228   46.5458 H   0  0  0  0  0  0  0  0  0  0  0  0
   61.5093   34.9670   46.1627 H   0  0  0  0  0  0  0  0  0  0  0  0
   59.8636   32.6201   48.2514 H   0  0  0  0  0  0  0  0  0  0  0  0
   59.0106   33.8861   49.2177 H   0  0  0  0  0  0  0  0  0  0  0  0
   57.4752   32.7154   47.6226 H   0  0  0  0  0  0  0  0  0  0  0  0
   57.6217   34.4758   47.2750 H   0  0  0  0  0  0  0  0  0  0  0  0
   60.2278   28.2393   46.1304 H   0  0  0  0  0  0  0  0  0  0  0  0
   60.3273   29.2645   44.6530 H   0  0  0  0  0  0  0  0  0  0  0  0
   62.2466   29.4855   46.3785 H   0  0  0  0  0  0  0  0  0  0  0  0
   61.4540   31.0095   45.8004 H   0  0  0  0  0  0  0  0  0  0  0  0
   61.1399   30.6944   50.4495 H   0  0  0  0  0  0  0  0  0  0  0  0
   62.7706   32.0730   51.7360 H   0  0  0  0  0  0  0  0  0  0  0  0
  1  2  1  0
  2  3  1  0
  3  4  2  0
  4  5  1  0
  5  6  2  0
  6  7  1  0
  7  8  1  0
  8  9  1  0
  9 10  1  0
 10 11  1  0
 11 12  2  0
 12 13  1  0
 13 14  1  0
 14 15  1  0
 15 16  1  0
 16 17  1  0
 17 18  1  0
 18 19  1  0
 19 20  1  0
 20 21  1  0
 12 22  1  0
 22 23  2  0
 22 24  1  0
 24 25  2  0
 10 26  1  0
 26 27  1  0
  6 28  1  0
 28 29  2  0
 29  3  1  0
 27  7  1  0
 24 11  1  0
 21 16  1  0
  1 30  1  0
  1 31  1  0
  1 32  1  0
  4 33  1  0
  5 34  1  0
  8 35  1  0
  8 36  1  0
  9 37  1  0
  9 38  1  0
 13 39  1  0
 14 40  1  0
 14 41  1  0
 15 42  1  0
 15 43  1  0
 16 44  1  0
 17 45  1  0
 17 46  1  0
 18 47  1  0
 18 48  1  0
 20 49  1  0
 20 50  1  0
 21 51  1  0
 21 52  1  0
 26 53  1  0
 26 54  1  0
 27 55  1  0
 27 56  1  0
 28 57  1  0
 29 58  1  0
M  CHG  1  16   1
M  END
>  <UniqueID>  (4) 
4

>  <SMILES>  (4) 
COc1ccc(N2CCN(c3c(NCC[NH+]4CCOCC4)c(=O)c3=O)CC2)cc1

>  <Energy>  (4) 
61.826940921485736

>  <Genealogy>  (4) 
COc1ccc(N2CCN(c3c(NCC[NH+]4CCOCC4)c(=O)c3=O)CC2)cc1 (protonated)
COc1ccc(N2CCN(c3c(NCC[NH+]4CCOCC4)c(=O)c3=O)CC2)cc1 (3D coordinates assigned)
COc1ccc(N2CCN(c3c(NCC[NH+]4CCOCC4)c(=O)c3=O)CC2)cc1 (nonaromatic ring conformer: 61.826940921485736 kcal/mol)

>  <smiles>  (4) 
COc1ccc(N2CCN(c3c(NCCN4CCOCC4)c(=O)c3=O)CC2)cc1

>  <score_type>  (4) 
oracle

>  <origin>  (4) 
adg

>  <m_score__min__energy>  (4) 
-5.7300000000000004

>  <m_primary>  (4) 
energy

$$$$
4:0
     RDKit          3D

 40 41  0  0  0  0  0  0  0  0999 V2000
   57.7490   32.3380   41.2810 C   0  0  0  0  0  0  0  0  0  0  0  0
   57.7960   32.1890   42.7970 C   0  0  0  0  0  0  0  0  0  0  0  0
   57.5950   30.8300   43.1760 O   0  0  0  0  0  0  0  0  0  0  0  0
   57.1240   30.4400   44.4370 C   0  0  0  0  0  0  0  0  0  0  0  0
   55.8840   30.4110   44.6660 O   0  0  0  0  0  0  0  0  0  0  0  0
   58.0760   30.0010   45.4930 C   0  0  0  0  0  0  0  0  0  0  0  0
   58.8680   28.8990   45.3560 C   0  0  0  0  0  0  0  0  0  0  0  0
   58.8630   28.1060   44.0630 C   0  0  0  0  0  0  0  0  0  0  0  0
   59.6750   28.4430   46.4770 N   0  0  0  0  0  0  0  0  0  0  0  0
   60.7080   27.4130   46.3090 C   0  0  0  0  0  0  0  0  0  0  0  0
   59.4180   28.9850   47.7820 C   0  0  0  0  0  0  0  0  0  0  0  0
   59.8990   28.4480   48.8170 O   0  0  0  0  0  0  0  0  0  0  0  0
   58.6000   30.1430   47.9090 N   0  0  0  0  0  0  0  0  0  0  0  0
   58.1680   30.8860   46.7290 C   0  0  1  0  0  0  0  0  0  0  0  0
   59.0900   32.0650   46.4900 C   0  0  0  0  0  0  0  0  0  0  0  0
   58.6310   33.2240   45.8430 C   0  0  0  0  0  0  0  0  0  0  0  0
   59.5040   34.2940   45.6390 C   0  0  0  0  0  0  0  0  0  0  0  0
   60.7920   34.2140   46.0630 N   0  0  0  0  0  0  0  0  0  0  0  0
   61.2720   33.1060   46.6910 C   0  0  0  0  0  0  0  0  0  0  0  0
   62.6970   33.0650   47.1430 C   0  0  0  0  0  0  0  0  0  0  0  0
   60.4270   32.0110   46.9150 C   0  0  0  0  0  0  0  0  0  0  0  0
   57.4274   33.3577   41.0226 H   0  0  0  0  0  0  0  0  0  0  0  0
   58.7494   32.1521   40.8631 H   0  0  0  0  0  0  0  0  0  0  0  0
   57.0363   31.6117   40.8631 H   0  0  0  0  0  0  0  0  0  0  0  0
   58.7778   32.5244   43.1625 H   0  0  0  0  0  0  0  0  0  0  0  0
   56.9953   32.8012   43.2375 H   0  0  0  0  0  0  0  0  0  0  0  0
   58.8562   27.0303   44.2926 H   0  0  0  0  0  0  0  0  0  0  0  0
   57.9665   28.3620   43.4793 H   0  0  0  0  0  0  0  0  0  0  0  0
   59.7627   28.3507   43.4793 H   0  0  0  0  0  0  0  0  0  0  0  0
   61.0500   27.0720   47.2973 H   0  0  0  0  0  0  0  0  0  0  0  0
   60.2898   26.5617   45.7519 H   0  0  0  0  0  0  0  0  0  0  0  0
   61.5581   27.8337   45.7519 H   0  0  0  0  0  0  0  0  0  0  0  0
   58.4240   30.5460   48.8560 H   0  0  0  0  0  0  0  0  0  0  0  0
   57.1525   31.2617   46.9227 H   0  0  0  0  0  0  0  0  0  0  0  0
   57.5883   33.2883   45.4986 H   0  0  0  0  0  0  0  0  0  0  0  0
   59.1481   35.2040   45.1338 H   0  0  0  0  0  0  0  0  0  0  0  0
   62.7331   33.0640   48.2424 H   0  0  0  0  0  0  0  0  0  0  0  0
   63.1772   32.1527   46.7595 H   0  0  0  0  0  0  0  0  0  0  0  0
   63.2289   33.9482   46.7595 H   0  0  0  0  0  0  0  0  0  0  0  0
   60.8096   31.1128   47.4217 H   0  0  0  0  0  0  0  0  0  0  0  0
  1  2  1  0
  2  3  1  0
  3  4  1  0
  4  5  2  0
  4  6  1  0
  6  7  2  0
  7  8  1  0
  7  9  1  0
  9 10  1  0
  9 11  1  0
 11 12  2  0
 11 13  1  0
 13 14  1  0
 14 15  1  0
 15 16  2  0
 16 17  1  0
 17 18  2  0
 18 19  1  0
 19 20  1  0
 19 21  2  0
 14  6  1  0
 21 15  1  0
  1 22  1  0
  1 23  1  0
  1 24  1  0
  2 25  1  0
  2 26  1  0
  8 27  1  0
  8 28  1  0
  8 29  1  0
 10 30  1  0
 10 31  1  0
 10 32  1  0
 13 33  1  0
 14 34  1  1
 16 35  1  0
 17 36  1  0
 20 37  1  0
 20 38  1  0
 20 39  1  0
 21 40  1  0
M  END
>  <UniqueID>  (5) 
5

>  <SMILES>  (5) 
CCOC(=O)C1=C(C)N(C)C(=O)N[C@H]1c1ccnc(C)c1

>  <Energy>  (5) 
42.9367156132208

>  <Genealogy>  (5) 
CCOC(=O)C1=C(C)N(C)C(=O)N[C@H]1c1ccnc(C)c1 (chirality)
CCOC(=O)C1=C(C)N(C)C(=O)N[C@H]1c1ccnc(C)c1 (3D coordinates assigned)
CCOC(=O)C1=C(C)N(C)C(=O)N[C@H]1c1ccnc(C)c1 (nonaromatic ring conformer: 42.9367156132208 kcal/mol)

>  <smiles>  (5) 
CCOC(=O)C1=C(C)N(C)C(=O)NC1c1ccnc(C)c1

>  <score_type>  (5) 
oracle

>  <origin>  (5) 
adg

>  <m_score__min__energy>  (5) 
-6.2999999999999998

>  <m_primary>  (5) 
energy

$$$$
5:0
     RDKit          3D

 65 67  0  0  0  0  0  0  0  0999 V2000
   58.9470   32.9430   51.6990 C   0  0  0  0  0  0  0  0  0  0  0  0
   59.2070   33.1650   50.2400 C   0  0  0  0  0  0  0  0  0  0  0  0
   60.0480   34.2110   49.8240 C   0  0  0  0  0  0  0  0  0  0  0  0
   60.2650   34.4410   48.4620 C   0  0  0  0  0  0  0  0  0  0  0  0
   59.6300   33.6420   47.5050 C   0  0  0  0  0  0  0  0  0  0  0  0
   59.9230   33.9350   45.7570 S   0  0  0  0  0  0  0  0  0  0  0  0
   58.2560   34.6040   45.4160 C   0  0  0  0  0  0  0  0  0  0  0  0
   57.2020   33.4960   45.4960 C   0  0  0  0  0  0  0  0  0  0  0  0
   57.4180   32.4420   44.4020 C   0  0  0  0  0  0  0  0  0  0  0  0
   56.8000   31.1570   44.7950 N   0  0  0  0  0  0  0  0  0  0  0  0
   56.2320   30.4150   43.6400 C   0  0  0  0  0  0  0  0  0  0  0  0
   57.1080   29.2250   43.2140 C   0  0  0  0  0  0  0  0  0  0  0  0
   57.3020   28.2440   44.3180 N   0  0  0  0  0  0  0  0  0  0  0  0
   58.5510   27.4600   44.1310 C   0  0  0  0  0  0  0  0  0  0  0  0
   59.4240   27.3470   45.4020 C   0  0  0  0  0  0  0  0  0  0  0  0
   60.6550   28.2720   45.4370 C   0  0  0  0  0  0  0  0  0  0  0  0
   60.7650   29.1110   46.7290 C   0  0  0  0  0  0  0  0  0  0  0  0
   61.0090   30.5990   46.4430 C   0  0  0  0  0  0  0  0  0  0  0  0
   61.8220   31.2220   47.5450 C   0  0  0  0  0  0  0  0  0  0  0  0
   61.6580   30.8010   48.8760 C   0  0  0  0  0  0  0  0  0  0  0  0
   62.4330   31.3650   49.8930 C   0  0  0  0  0  0  0  0  0  0  0  0
   63.3810   32.3460   49.5900 C   0  0  0  0  0  0  0  0  0  0  0  0
   63.5610   32.7590   48.2680 C   0  0  0  0  0  0  0  0  0  0  0  0
   62.7870   32.1990   47.2470 C   0  0  0  0  0  0  0  0  0  0  0  0
   57.2890   28.8850   45.6630 C   0  0  0  0  0  0  0  0  0  0  0  0
   57.7380   30.3490   45.6070 C   0  0  0  0  0  0  0  0  0  0  0  0
   58.7870   32.6020   47.9140 C   0  0  0  0  0  0  0  0  0  0  0  0
   58.5650   32.3710   49.2750 C   0  0  0  0  0  0  0  0  0  0  0  0
   59.6513   33.5443   52.2926 H   0  0  0  0  0  0  0  0  0  0  0  0
   57.9162   33.2439   51.9377 H   0  0  0  0  0  0  0  0  0  0  0  0
   59.0826   31.8778   51.9377 H   0  0  0  0  0  0  0  0  0  0  0  0
   60.5375   34.8513   50.5726 H   0  0  0  0  0  0  0  0  0  0  0  0
   60.9362   35.2517   48.1423 H   0  0  0  0  0  0  0  0  0  0  0  0
   58.0200   35.3812   46.1578 H   0  0  0  0  0  0  0  0  0  0  0  0
   58.2460   35.0294   44.4016 H   0  0  0  0  0  0  0  0  0  0  0  0
   57.2674   33.0095   46.4804 H   0  0  0  0  0  0  0  0  0  0  0  0
   56.2101   33.9489   45.3512 H   0  0  0  0  0  0  0  0  0  0  0  0
   56.9603   32.7928   43.4653 H   0  0  0  0  0  0  0  0  0  0  0  0
   58.4983   32.2901   44.2611 H   0  0  0  0  0  0  0  0  0  0  0  0
   55.2367   30.0382   43.9182 H   0  0  0  0  0  0  0  0  0  0  0  0
   56.1788   31.1111   42.7900 H   0  0  0  0  0  0  0  0  0  0  0  0
   56.6248   28.7147   42.3678 H   0  0  0  0  0  0  0  0  0  0  0  0
   58.0968   29.6174   42.9339 H   0  0  0  0  0  0  0  0  0  0  0  0
   56.4940   27.5820   44.3010 H   0  0  0  0  0  0  0  0  0  0  0  0
   58.2761   26.4445   43.8098 H   0  0  0  0  0  0  0  0  0  0  0  0
   59.1516   27.9959   43.3813 H   0  0  0  0  0  0  0  0  0  0  0  0
   58.7931   27.5872   46.2705 H   0  0  0  0  0  0  0  0  0  0  0  0
   59.8147   26.3188   45.4133 H   0  0  0  0  0  0  0  0  0  0  0  0
   61.5586   27.6510   45.3483 H   0  0  0  0  0  0  0  0  0  0  0  0
   60.5486   28.9802   44.6021 H   0  0  0  0  0  0  0  0  0  0  0  0
   59.8282   29.0096   47.2966 H   0  0  0  0  0  0  0  0  0  0  0  0
   61.6261   28.7343   47.3005 H   0  0  0  0  0  0  0  0  0  0  0  0
   61.5516   30.7003   45.4915 H   0  0  0  0  0  0  0  0  0  0  0  0
   60.0384   31.1132   46.3833 H   0  0  0  0  0  0  0  0  0  0  0  0
   60.9170   30.0249   49.1180 H   0  0  0  0  0  0  0  0  0  0  0  0
   62.2966   31.0362   50.9338 H   0  0  0  0  0  0  0  0  0  0  0  0
   63.9856   32.7930   50.3929 H   0  0  0  0  0  0  0  0  0  0  0  0
   64.3127   33.5259   48.0297 H   0  0  0  0  0  0  0  0  0  0  0  0
   62.9341   32.5245   46.2066 H   0  0  0  0  0  0  0  0  0  0  0  0
   56.2666   28.8426   46.0665 H   0  0  0  0  0  0  0  0  0  0  0  0
   57.9943   28.3383   46.3061 H   0  0  0  0  0  0  0  0  0  0  0  0
   57.7720   30.7549   46.6288 H   0  0  0  0  0  0  0  0  0  0  0  0
   58.7344   30.3942   45.1431 H   0  0  0  0  0  0  0  0  0  0  0  0
   58.2979   31.9647   47.1626 H   0  0  0  0  0  0  0  0  0  0  0  0
   57.8859   31.5654   49.5910 H   0  0  0  0  0  0  0  0  0  0  0  0
  1  2  1  0
  2  3  2  0
  3  4  1  0
  4  5  2  0
  5  6  1  0
  6  7  1  0
  7  8  1  0
  8  9  1  0
  9 10  1  0
 10 11  1  0
 11 12  1  0
 12 13  1  0
 13 14  1  0
 14 15  1  0
 15 16  1  0
 16 17  1  0
 17 18  1  0
 18 19  1  0
 19 20  2  0
 20 21  1  0
 21 22  2  0
 22 23  1  0
 23 24  2  0
 13 25  1  0
 25 26  1  0
  5 27  1  0
 27 28  2  0
 28  2  1  0
 26 10  1  0
 24 19  1  0
  1 29  1  0
  1 30  1  0
  1 31  1  0
  3 32  1  0
  4 33  1  0
  7 34  1  0
  7 35  1  0
  8 36  1  0
  8 37  1  0
  9 38  1  0
  9 39  1  0
 11 40  1  0
 11 41  1  0
 12 42  1  0
 12 43  1  0
 13 44  1  0
 14 45  1  0
 14 46  1  0
 15 47  1  0
 15 48  1  0
 16 49  1  0
 16 50  1  0
 17 51  1  0
 17 52  1  0
 18 53  1  0
 18 54  1  0
 20 55  1  0
 21 56  1  0
 22 57  1  0
 23 58  1  0
 24 59  1  0
 25 60  1  0
 25 61  1  0
 26 62  1  0
 26 63  1  0
 27 64  1  0
 28 65  1  0
M  CHG  1  13   1
M  END
>  <UniqueID>  (6) 
6

>  <SMILES>  (6) 
Cc1ccc(SCCCN2CC[NH+](CCCCCc3ccccc3)CC2)cc1

>  <Energy>  (6) 
67.97194125577587

>  <Genealogy>  (6) 
Cc1ccc(SCCCN2CC[NH+](CCCCCc3ccccc3)CC2)cc1 (protonated)
Cc1ccc(SCCCN2CC[NH+](CCCCCc3ccccc3)CC2)cc1 (3D coordinates assigned)
Cc1ccc(SCCCN2CC[NH+](CCCCCc3ccccc3)CC2)cc1 (nonaromatic ring conformer: 67.97194125577587 kcal/mol)

>  <smiles>  (6) 
Cc1ccc(SCCCN2CCN(CCCCCc3ccccc3)CC2)cc1

>  <score_type>  (6) 
oracle

>  <origin>  (6) 
adg

>  <m_score__min__energy>  (6) 
-6.7999999999999998

>  <m_primary>  (6) 
energy

$$$$
6:0
     RDKit          3D

 34 36  0  0  0  0  0  0  0  0999 V2000
   63.7110   30.9450   50.5340 C   0  0  0  0  0  0  0  0  0  0  0  0
   63.1830   31.4510   49.4720 O   0  0  0  0  0  0  0  0  0  0  0  0
   62.6400   32.0760   48.4830 C   0  0  0  0  0  0  0  0  0  0  0  0
   61.3840   31.6890   47.9810 C   0  0  0  0  0  0  0  0  0  0  0  0
   60.7900   32.3440   46.9270 C   0  0  0  0  0  0  0  0  0  0  0  0
   59.4870   31.9250   46.4230 C   0  0  0  0  0  0  0  0  0  0  0  0
   58.4230   32.7630   46.1610 C   0  0  0  0  0  0  0  0  0  0  0  0
   57.3830   32.0540   45.7100 N   0  0  0  0  0  0  0  0  0  0  0  0
   57.7520   30.7700   45.6740 N   0  0  0  0  0  0  0  0  0  0  0  0
   57.0440   29.6980   45.2920 C   0  0  0  0  0  0  0  0  0  0  0  0
   55.8220   29.7790   44.8770 N   0  0  0  0  0  0  0  0  0  0  0  0
   57.6530   28.4600   45.3450 C   0  0  0  0  0  0  0  0  0  0  0  0
   58.9760   28.3590   45.7910 C   0  0  0  0  0  0  0  0  0  0  0  0
   59.6590   27.0310   45.8580 C   0  0  0  0  0  0  0  0  0  0  0  0
   59.6400   29.4790   46.1640 N   0  0  0  0  0  0  0  0  0  0  0  0
   59.0370   30.6600   46.1050 C   0  0  0  0  0  0  0  0  0  0  0  0
   61.4720   33.4050   46.3730 C   0  0  0  0  0  0  0  0  0  0  0  0
   62.7040   33.8390   46.8120 C   0  0  0  0  0  0  0  0  0  0  0  0
   63.2730   33.1650   47.8660 C   0  0  0  0  0  0  0  0  0  0  0  0
   64.5180   33.6170   48.2990 O   0  0  0  0  0  0  0  0  0  0  0  0
   63.2444   31.3921   51.4242 H   0  0  0  0  0  0  0  0  0  0  0  0
   63.5481   29.8572   50.5419 H   0  0  0  0  0  0  0  0  0  0  0  0
   64.7909   31.1541   50.5419 H   0  0  0  0  0  0  0  0  0  0  0  0
   60.8622   30.8387   48.4443 H   0  0  0  0  0  0  0  0  0  0  0  0
   58.4293   33.8539   46.3023 H   0  0  0  0  0  0  0  0  0  0  0  0
   55.1310   30.4520   45.2510 H   0  0  0  0  0  0  0  0  0  0  0  0
   57.1019   27.5586   45.0386 H   0  0  0  0  0  0  0  0  0  0  0  0
   59.8053   26.7466   46.9105 H   0  0  0  0  0  0  0  0  0  0  0  0
   59.0385   26.2738   45.3564 H   0  0  0  0  0  0  0  0  0  0  0  0
   60.6359   27.0954   45.3564 H   0  0  0  0  0  0  0  0  0  0  0  0
   60.6290   29.3690   46.4930 H   0  0  0  0  0  0  0  0  0  0  0  0
   61.0057   33.9370   45.5307 H   0  0  0  0  0  0  0  0  0  0  0  0
   63.2121   34.6914   46.3375 H   0  0  0  0  0  0  0  0  0  0  0  0
   65.3170   33.0170   48.4570 H   0  0  0  0  0  0  0  0  0  0  0  0
  1  2  1  0
  2  3  1  0
  3  4  2  0
  4  5  1  0
  5  6  1  0
  6  7  1  0
  7  8  2  0
  8  9  1  0
  9 10  1  0
 10 11  2  3
 10 12  1  0
 12 13  2  0
 13 14  1  0
 13 15  1  0
 15 16  1  0
  5 17  2  0
 17 18  1  0
 18 19  2  0
 19 20  1  0
 19  3  1  0
 16  6  2  0
 16  9  1  0
  1 21  1  0
  1 22  1  0
  1 23  1  0
  4 24  1  0
  7 25  1  0
 11 26  1  0
 12 27  1  0
 14 28  1  0
 14 29  1  0
 14 30  1  0
 15 31  1  0
 17 32  1  0
 18 33  1  0
 20 34  1  0
M  END
>  <smiles>  (7) 
COc1cc(-c2cnn3c(=N)cc(C)[nH]c23)ccc1O

>  <score_type>  (7) 
oracle

>  <origin>  (7) 
adg

>  <m_score__min__energy>  (7) 
-6

>  <m_primary>  (7) 
energy

$$$$
8:0
     RDKit          3D

 49 52  0  0  1  0  0  0  0  0999 V2000
   54.9480   25.3950   45.6200 C   0  0  0  0  0  0  0  0  0  0  0  0
   55.5750   26.6500   45.8740 O   0  0  0  0  0  0  0  0  0  0  0  0
   56.9340   26.6410   46.1560 C   0  0  0  0  0  0  0  0  0  0  0  0
   57.4730   25.9610   47.2340 C   0  0  0  0  0  0  0  0  0  0  0  0
   58.8300   25.9570   47.5080 C   0  0  0  0  0  0  0  0  0  0  0  0
   59.6960   26.6520   46.6900 C   0  0  0  0  0  0  0  0  0  0  0  0
   59.1710   27.3320   45.6150 C   0  0  0  0  0  0  0  0  0  0  0  0
   57.8170   27.3330   45.3450 C   0  0  0  0  0  0  0  0  0  0  0  0
   57.3690   28.0660   44.2110 N   0  0  0  0  0  0  0  0  0  0  0  0
   57.5090   29.3560   44.2550 C   0  0  0  0  0  0  0  0  0  0  0  0
   57.9510   29.9980   45.4200 C   0  0  0  0  0  0  0  0  0  0  0  0
   58.0740   31.3720   45.3880 C   0  0  0  0  0  0  0  0  0  0  0  0
   57.7780   32.0580   44.2720 N   0  0  0  0  0  0  0  0  0  0  0  0
   57.3520   31.3770   43.1640 C   0  0  0  0  0  0  0  0  0  0  0  0
   57.0670   31.9870   42.1050 O   0  0  0  0  0  0  0  0  0  0  0  0
   57.2190   30.0400   43.1580 N   0  0  0  0  0  0  0  0  0  0  0  0
   57.8720   33.4850   44.1300 C   0  0  0  0  0  0  0  0  0  0  0  0
   58.3290   34.2340   45.3210 C   0  0  0  0  0  0  0  0  0  0  0  0
   58.6390   33.4340   46.5130 C   0  0  0  0  0  0  0  0  0  0  0  0
   59.0750   34.1330   47.6410 C   0  0  0  0  0  0  0  0  0  0  0  0
   59.3900   33.4710   48.8100 C   0  0  0  0  0  0  0  0  0  0  0  0
   59.8240   34.1540   49.9390 O   0  0  0  0  0  0  0  0  0  0  0  0
   59.2760   33.9270   51.2180 C   0  0  0  0  0  0  0  0  0  0  0  0
   59.2760   32.0970   48.8680 C   0  0  0  0  0  0  0  0  0  0  0  0
   59.6010   31.4610   50.0570 O   0  0  0  0  0  0  0  0  0  0  0  0
   60.4400   30.3500   50.1720 C   0  0  0  0  0  0  0  0  0  0  0  0
   58.8410   31.3830   47.7430 C   0  0  0  0  0  0  0  0  0  0  0  0
   58.5300   32.0620   46.5860 C   0  0  0  0  0  0  0  0  0  0  0  0
   54.7042   24.9070   46.5752 H   0  0  0  0  0  0  0  0  0  0  0  0
   54.0246   25.5563   45.0444 H   0  0  0  0  0  0  0  0  0  0  0  0
   55.6315   24.7535   45.0444 H   0  0  0  0  0  0  0  0  0  0  0  0
   56.7975   25.4024   47.8985 H   0  0  0  0  0  0  0  0  0  0  0  0
   59.2162   25.4014   48.3752 H   0  0  0  0  0  0  0  0  0  0  0  0
   60.7773   26.6625   46.8915 H   0  0  0  0  0  0  0  0  0  0  0  0
   59.8488   27.8902   44.9525 H   0  0  0  0  0  0  0  0  0  0  0  0
   58.1915   29.4262   46.3284 H   0  0  0  0  0  0  0  0  0  0  0  0
   56.8900   29.5550   42.2930 H   0  0  0  0  0  0  0  0  0  0  0  0
   58.5766   33.6946   43.3117 H   0  0  0  0  0  0  0  0  0  0  0  0
   56.8440   33.8293   43.9439 H   0  0  0  0  0  0  0  0  0  0  0  0
   59.2388   34.7854   45.0415 H   0  0  0  0  0  0  0  0  0  0  0  0
   57.4812   34.8731   45.6089 H   0  0  0  0  0  0  0  0  0  0  0  0
   59.1687   35.2281   47.5967 H   0  0  0  0  0  0  0  0  0  0  0  0
   60.0027   34.2280   51.9870 H   0  0  0  0  0  0  0  0  0  0  0  0
   58.3552   34.5177   51.3325 H   0  0  0  0  0  0  0  0  0  0  0  0
   59.0426   32.8582   51.3325 H   0  0  0  0  0  0  0  0  0  0  0  0
   60.6088   30.1265   51.2358 H   0  0  0  0  0  0  0  0  0  0  0  0
   59.9692   29.4831   49.6854 H   0  0  0  0  0  0  0  0  0  0  0  0
   61.4027   30.5656   49.6854 H   0  0  0  0  0  0  0  0  0  0  0  0
   58.7487   30.2877   47.7840 H   0  0  0  0  0  0  0  0  0  0  0  0
  1  2  1  0
  2  3  1  0
  3  4  2  0
  4  5  1  0
  5  6  2  0
  6  7  1  0
  7  8  2  0
  8  9  1  0
  9 10  2  0
 10 11  1  0
 11 12  2  0
 12 13  1  0
 13 14  1  0
 14 15  2  0
 14 16  1  0
 13 17  1  0
 17 18  1  0
 18 19  1  0
 19 20  2  0
 20 21  1  0
 21 22  1  0
 22 23  1  0
 21 24  2  0
 24 25  1  0
 25 26  1  0
 24 27  1  0
 27 28  2  0
  8  3  1  0
 16 10  1  0
 28 19  1  0
 28 12  1  0
  1 29  1  0
  1 30  1  0
  1 31  1  0
  4 32  1  0
  5 33  1  0
  6 34  1  0
  7 35  1  0
 11 36  1  0
 16 37  1  0
 17 38  1  0
 17 39  1  0
 18 40  1  0
 18 41  1  0
 20 42  1  0
 23 43  1  0
 23 44  1  0
 23 45  1  0
 26 46  1  0
 26 47  1  0
 26 48  1  0
 27 49  1  0
M  END
>  <smiles>  (8) 
COc1ccccc1N=c1cc2n(c(=O)[nH]1)CCc1cc(OC)c(OC)cc1-2

>  <score_type>  (8) 
oracle

>  <origin>  (8) 
adg

>  <m_score__min__energy>  (8) 
-8.2400000000000002

>  <m_primary>  (8) 
energy

$$$$
9:0
     RDKit          3D

 35 37  0  0  0  0  0  0  0  0999 V2000
   57.3520   32.3420   41.0160 C   0  0  0  0  0  0  0  0  0  0  0  0
   57.3870   31.6150   42.3260 C   0  0  0  0  0  0  0  0  0  0  0  0
   56.6150   30.4590   42.5130 C   0  0  0  0  0  0  0  0  0  0  0  0
   56.6130   29.8070   43.7480 C   0  0  0  0  0  0  0  0  0  0  0  0
   57.3760   30.3060   44.8080 C   0  0  0  0  0  0  0  0  0  0  0  0
   58.1540   31.4630   44.6370 C   0  0  0  0  0  0  0  0  0  0  0  0
   58.9420   32.0200   45.7580 C   0  0  0  0  0  0  0  0  0  0  0  0
   59.9570   31.3370   46.3460 N   0  0  0  0  0  0  0  0  0  0  0  0
   60.4300   32.1790   47.2790 C   0  0  0  0  0  0  0  0  0  0  0  0
   61.4900   31.9760   48.1600 C   0  0  0  0  0  0  0  0  0  0  0  0
   61.8170   33.0240   49.0490 C   0  0  0  0  0  0  0  0  0  0  0  0
   62.9230   32.8430   50.0460 C   0  0  0  0  0  0  0  0  0  0  0  0
   61.0590   34.2220   49.0390 C   0  0  0  0  0  0  0  0  0  0  0  0
   59.9940   34.3910   48.1320 C   0  0  0  0  0  0  0  0  0  0  0  0
   59.7100   33.3380   47.2620 C   0  0  0  0  0  0  0  0  0  0  0  0
   58.7520   33.2490   46.3170 N   0  0  0  0  0  0  0  0  0  0  0  0
   57.7420   34.2550   45.9890 C   0  0  0  0  0  0  0  0  0  0  0  0
   58.1370   32.1240   43.3980 C   0  0  0  0  0  0  0  0  0  0  0  0
   57.2998   33.4254   41.1992 H   0  0  0  0  0  0  0  0  0  0  0  0
   58.2623   32.1103   40.4436 H   0  0  0  0  0  0  0  0  0  0  0  0
   56.4681   32.0239   40.4436 H   0  0  0  0  0  0  0  0  0  0  0  0
   56.0090   30.0646   41.6840 H   0  0  0  0  0  0  0  0  0  0  0  0
   56.0093   28.8981   43.8872 H   0  0  0  0  0  0  0  0  0  0  0  0
   57.3670   29.7905   45.7797 H   0  0  0  0  0  0  0  0  0  0  0  0
   60.3120   30.3840   46.1110 H   0  0  0  0  0  0  0  0  0  0  0  0
   62.0534   31.0313   48.1632 H   0  0  0  0  0  0  0  0  0  0  0  0
   62.5131   32.9101   51.0646 H   0  0  0  0  0  0  0  0  0  0  0  0
   63.3884   31.8567   49.9023 H   0  0  0  0  0  0  0  0  0  0  0  0
   63.6785   33.6294   49.9023 H   0  0  0  0  0  0  0  0  0  0  0  0
   61.3047   35.0277   49.7464 H   0  0  0  0  0  0  0  0  0  0  0  0
   59.4069   35.3210   48.1106 H   0  0  0  0  0  0  0  0  0  0  0  0
   57.3241   34.6713   46.9175 H   0  0  0  0  0  0  0  0  0  0  0  0
   58.2050   35.0615   45.4014 H   0  0  0  0  0  0  0  0  0  0  0  0
   56.9374   33.7888   45.4014 H   0  0  0  0  0  0  0  0  0  0  0  0
   58.7169   33.0494   43.2663 H   0  0  0  0  0  0  0  0  0  0  0  0
  1  2  1  0
  2  3  2  0
  3  4  1  0
  4  5  2  0
  5  6  1  0
  6  7  1  0
  7  8  2  0
  8  9  1  0
  9 10  2  0
 10 11  1  0
 11 12  1  0
 11 13  2  0
 13 14  1  0
 14 15  2  0
 15 16  1  0
 16 17  1  0
  6 18  2  0
 18  2  1  0
 16  7  1  0
 15  9  1  0
  1 19  1  0
  1 20  1  0
  1 21  1  0
  3 22  1  0
  4 23  1  0
  5 24  1  0
  8 25  1  0
 10 26  1  0
 12 27  1  0
 12 28  1  0
 12 29  1  0
 13 30  1  0
 14 31  1  0
 17 32  1  0
 17 33  1  0
 17 34  1  0
 18 35  1  0
M  CHG  1   8   1
M  END
>  <UniqueID>  (9) 
7

>  <SMILES>  (9) 
Cc1cccc(-c2[nH+]c3cc(C)ccc3n2C)c1

>  <Energy>  (9) 
79.03864305019451

>  <Genealogy>  (9) 
Cc1cccc(-c2[nH+]c3cc(C)ccc3n2C)c1 (protonated)
Cc1cccc(-c2[nH+]c3cc(C)ccc3n2C)c1 (3D coordinates assigned)
Cc1cccc(-c2[nH+]c3cc(C)ccc3n2C)c1 (optimized conformer: 79.03864305019451 kcal/mol)

>  <smiles>  (9) 
Cc1cccc(-c2nc3cc(C)ccc3n2C)c1

>  <score_type>  (9) 
oracle

>  <origin>  (9) 
adg

>  <m_score__min__energy>  (9) 
-5.3099999999999996

>  <m_primary>  (9) 
energy

$$$$
10:0
     RDKit          3D

 25 26  0  0  0  0  0  0  0  0999 V2000
   58.1610   27.5320   46.4570 O   0  0  0  0  0  0  0  0  0  0  0  0
   57.0910   27.0600   45.9850 C   0  0  0  0  0  0  0  0  0  0  0  0
   56.2000   27.9160   45.2490 N   0  0  0  0  0  0  0  0  0  0  0  0
   56.5990   29.1600   44.6470 C   0  0  0  0  0  0  0  0  0  0  0  0
   56.2550   29.4220   43.3110 C   0  0  0  0  0  0  0  0  0  0  0  0
   56.6510   30.6150   42.6990 C   0  0  0  0  0  0  0  0  0  0  0  0
   57.4060   31.5490   43.4100 C   0  0  0  0  0  0  0  0  0  0  0  0
   57.7730   31.2900   44.7330 C   0  0  0  0  0  0  0  0  0  0  0  0
   57.3790   30.0990   45.3500 C   0  0  0  0  0  0  0  0  0  0  0  0
   56.7420   25.6360   46.2260 C   0  0  0  0  0  0  0  0  0  0  0  0
   57.7230   24.7370   46.6820 C   0  0  0  0  0  0  0  0  0  0  0  0
   57.4110   23.4350   46.9180 N   0  0  0  0  0  0  0  0  0  0  0  0
   56.1560   22.9540   46.7250 C   0  0  0  0  0  0  0  0  0  0  0  0
   55.1440   23.8010   46.2790 C   0  0  0  0  0  0  0  0  0  0  0  0
   55.4310   25.1460   46.0280 C   0  0  0  0  0  0  0  0  0  0  0  0
   54.5110   25.9010   45.6130 O   0  0  0  0  0  0  0  0  0  0  0  0
   55.1830   27.6760   45.2450 H   0  0  0  0  0  0  0  0  0  0  0  0
   55.6703   28.6839   42.7424 H   0  0  0  0  0  0  0  0  0  0  0  0
   56.3672   30.8178   41.6558 H   0  0  0  0  0  0  0  0  0  0  0  0
   57.7122   32.4894   42.9286 H   0  0  0  0  0  0  0  0  0  0  0  0
   58.3730   32.0245   45.2901 H   0  0  0  0  0  0  0  0  0  0  0  0
   57.6792   29.8944   46.3883 H   0  0  0  0  0  0  0  0  0  0  0  0
   58.7512   25.0904   46.8490 H   0  0  0  0  0  0  0  0  0  0  0  0
   55.9381   21.8938   46.9211 H   0  0  0  0  0  0  0  0  0  0  0  0
   54.1258   23.4141   46.1253 H   0  0  0  0  0  0  0  0  0  0  0  0
  1  2  2  0
  2  3  1  0
  3  4  1  0
  4  5  2  0
  5  6  1  0
  6  7  2  0
  7  8  1  0
  8  9  2  0
  2 10  1  0
 10 11  2  0
 11 12  1  0
 12 13  1  0
 13 14  2  0
 14 15  1  0
 15 16  2  0
  9  4  1  0
 15 10  1  0
  3 17  1  0
  5 18  1  0
  6 19  1  0
  7 20  1  0
  8 21  1  0
  9 22  1  0
 11 23  1  0
 13 24  1  0
 14 25  1  0
M  CHG  1  12  -1
M  END
>  <UniqueID>  (10) 
8

>  <SMILES>  (10) 
O=C(Nc1ccccc1)c1c[n-]ccc1=O

>  <Energy>  (10) 
34.20166131496864

>  <Genealogy>  (10) 
O=C(Nc1ccccc1)c1c[n-]ccc1=O (protonated)
O=C(Nc1ccccc1)c1c[n-]ccc1=O (3D coordinates assigned)
O=C(Nc1ccccc1)c1c[n-]ccc1=O (optimized conformer: 34.20166131496864 kcal/mol)

>  <smiles>  (10) 
O=C(Nc1ccccc1)c1c[nH]ccc1=O

>  <score_type>  (10) 
oracle

>  <origin>  (10) 
adg

>  <m_score__min__energy>  (10) 
-7.5999999999999996

>  <m_primary>  (10) 
energy

$$$$
11:0
     RDKit          3D

 48 51  0  0  0  0  0  0  0  0999 V2000
   62.9280   34.7050   50.2640 C   0  0  0  0  0  0  0  0  0  0  0  0
   62.5130   33.3700   49.6300 C   0  0  2  0  0  0  0  0  0  0  0  0
   63.6880   32.7910   48.8070 C   0  0  0  0  0  0  0  0  0  0  0  0
   63.3010   31.6350   47.8550 C   0  0  0  0  0  0  0  0  0  0  0  0
   61.8030   31.5740   47.5450 C   0  0  0  0  0  0  0  0  0  0  0  0
   61.2320   30.3490   47.6610 C   0  0  0  0  0  0  0  0  0  0  0  0
   59.7620   29.9920   47.6320 C   0  0  2  0  0  0  0  0  0  0  0  0
   59.0070   30.5550   48.8680 C   0  0  0  0  0  0  0  0  0  0  0  0
   59.6800   28.4570   47.7510 C   0  0  0  0  0  0  0  0  0  0  0  0
   59.9040   27.9190   48.8270 O   0  0  0  0  0  0  0  0  0  0  0  0
   59.4550   27.5740   46.5590 C   0  0  0  0  0  0  0  0  0  0  0  0
   58.3270   28.1300   45.7150 C   0  0  0  0  0  0  0  0  0  0  0  0
   58.6760   29.5190   45.3000 C   0  0  0  0  0  0  0  0  0  0  0  0
   58.5990   29.8220   44.0780 O   0  0  0  0  0  0  0  0  0  0  0  0
   59.1600   30.5060   46.3150 C   0  0  0  0  0  0  0  0  0  0  0  0
   59.0440   31.8300   46.0580 C   0  0  0  0  0  0  0  0  0  0  0  0
   58.2050   32.2570   44.9680 N   0  0  0  0  0  0  0  0  0  0  0  0
   57.5550   33.3770   45.0080 C   0  0  0  0  0  0  0  0  0  0  0  0
   57.5610   34.2010   46.2590 C   0  0  0  0  0  0  0  0  0  0  0  0
   58.8880   34.0640   46.9530 C   0  0  0  0  0  0  0  0  0  0  0  0
   59.5990   32.9060   46.9390 C   0  0  0  0  0  0  0  0  0  0  0  0
   61.0740   32.9270   47.4260 C   0  0  2  0  0  0  0  0  0  0  0  0
   61.8090   33.8100   46.3770 C   0  0  0  0  0  0  0  0  0  0  0  0
   61.2250   33.5330   48.8300 C   0  0  0  0  0  0  0  0  0  0  0  0
   60.2750   34.0620   49.3890 O   0  0  0  0  0  0  0  0  0  0  0  0
   62.9000   34.6149   51.3599 H   0  0  0  0  0  0  0  0  0  0  0  0
   63.9484   34.9618   49.9432 H   0  0  0  0  0  0  0  0  0  0  0  0
   62.2330   35.4950   49.9432 H   0  0  0  0  0  0  0  0  0  0  0  0
   62.2867   32.6345   50.4160 H   0  0  0  0  0  0  0  0  0  0  0  0
   64.1167   33.6040   48.2026 H   0  0  0  0  0  0  0  0  0  0  0  0
   64.3995   32.3711   49.5333 H   0  0  0  0  0  0  0  0  0  0  0  0
   63.8472   31.7654   46.9091 H   0  0  0  0  0  0  0  0  0  0  0  0
   63.5645   30.6957   48.3632 H   0  0  0  0  0  0  0  0  0  0  0  0
   61.9272   29.5068   47.7932 H   0  0  0  0  0  0  0  0  0  0  0  0
   59.4901   30.1947   49.7882 H   0  0  0  0  0  0  0  0  0  0  0  0
   59.0351   31.6544   48.8454 H   0  0  0  0  0  0  0  0  0  0  0  0
   57.9613   30.2144   48.8454 H   0  0  0  0  0  0  0  0  0  0  0  0
   60.3748   27.5314   45.9572 H   0  0  0  0  0  0  0  0  0  0  0  0
   59.1889   26.5629   46.9008 H   0  0  0  0  0  0  0  0  0  0  0  0
   58.1885   27.5015   44.8229 H   0  0  0  0  0  0  0  0  0  0  0  0
   57.3937   28.1376   46.2972 H   0  0  0  0  0  0  0  0  0  0  0  0
   56.9991   33.7226   44.1240 H   0  0  0  0  0  0  0  0  0  0  0  0
   57.3908   35.2568   46.0016 H   0  0  0  0  0  0  0  0  0  0  0  0
   56.7627   33.8495   46.9292 H   0  0  0  0  0  0  0  0  0  0  0  0
   59.2976   34.9317   47.4909 H   0  0  0  0  0  0  0  0  0  0  0  0
   62.4296   34.5556   46.8956 H   0  0  0  0  0  0  0  0  0  0  0  0
   62.4488   33.1748   45.7468 H   0  0  0  0  0  0  0  0  0  0  0  0
   61.0682   34.3240   45.7468 H   0  0  0  0  0  0  0  0  0  0  0  0
  1  2  1  0
  2  3  1  0
  3  4  1  0
  4  5  1  0
  5  6  2  0
  6  7  1  0
  7  8  1  1
  7  9  1  0
  9 10  2  0
  9 11  1  0
 11 12  1  0
 12 13  1  0
 13 14  2  0
 13 15  1  0
 15 16  2  0
 16 17  1  0
 17 18  2  0
 18 19  1  0
 19 20  1  0
 20 21  2  0
 21 22  1  0
 22 23  1  6
 22 24  1  0
 24 25  2  0
 24  2  1  0
 22  5  1  0
 15  7  1  0
 21 16  1  0
  1 26  1  0
  1 27  1  0
  1 28  1  0
  2 29  1  1
  3 30  1  0
  3 31  1  0
  4 32  1  0
  4 33  1  0
  6 34  1  0
  8 35  1  0
  8 36  1  0
  8 37  1  0
 11 38  1  0
 11 39  1  0
 12 40  1  0
 12 41  1  0
 18 42  1  0
 19 43  1  0
 19 44  1  0
 20 45  1  0
 23 46  1  0
 23 47  1  0
 23 48  1  0
M  END
>  <UniqueID>  (11) 
9

>  <SMILES>  (11) 
C[C@@H]1CCC2=C[C@]3(C)C(=O)CCC(=O)C3=C3N=CCC=C3C2(C)C1=O

>  <Energy>  (11) 
95.89071043791643

>  <Genealogy>  (11) 
C[C@@H]1CCC2=C[C@]3(C)C(=O)CCC(=O)C3=C3N=CCC=C3C2(C)C1=O (chirality)
C[C@@H]1CCC2=C[C@]3(C)C(=O)CCC(=O)C3=C3N=CCC=C3C2(C)C1=O (3D coordinates assigned)
C[C@@H]1CCC2=C[C@]3(C)C(=O)CCC(=O)C3=C3N=CCC=C3C2(C)C1=O (nonaromatic ring conformer: 95.89071043791643 kcal/mol)

>  <smiles>  (11) 
CC1CCC2=CC3(C)C(=O)CCC(=O)C3=C3N=CCC=C3C2(C)C1=O

>  <score_type>  (11) 
oracle

>  <origin>  (11) 
adg

>  <m_score__min__energy>  (11) 
-7.96

>  <m_primary>  (11) 
energy

$$$$
12:0
     RDKit          3D

 66 69  0  0  0  0  0  0  0  0999 V2000
   56.4240   22.5900   42.9820 C   0  0  0  0  0  0  0  0  0  0  0  0
   55.5240   23.6820   43.5830 C   0  0  0  0  0  0  0  0  0  0  0  0
   54.4110   23.1720   44.4240 N   0  0  0  0  0  0  0  0  0  0  0  0
   53.0990   23.7400   44.0480 C   0  0  0  0  0  0  0  0  0  0  0  0
   52.1420   23.7040   45.2370 C   0  0  0  0  0  0  0  0  0  0  0  0
   54.6850   23.2860   45.8750 C   0  0  0  0  0  0  0  0  0  0  0  0
   55.5810   24.4630   46.1430 C   0  0  0  0  0  0  0  0  0  0  0  0
   55.1510   25.7380   46.0000 N   0  0  0  0  0  0  0  0  0  0  0  0
   56.2220   26.4960   46.3050 C   0  0  0  0  0  0  0  0  0  0  0  0
   57.2750   25.6690   46.6280 C   0  0  0  0  0  0  0  0  0  0  0  0
   58.6160   26.0730   46.9380 N   0  0  0  0  0  0  0  0  0  0  0  0
   59.4000   26.9700   46.1390 C   0  0  0  0  0  0  0  0  0  0  0  0
   60.5890   26.6560   45.8670 O   0  0  0  0  0  0  0  0  0  0  0  0
   58.8310   28.2250   45.5920 C   0  0  0  0  0  0  0  0  0  0  0  0
   58.1690   28.2220   44.3400 C   0  0  0  0  0  0  0  0  0  0  0  0
   57.6740   29.4170   43.7900 C   0  0  0  0  0  0  0  0  0  0  0  0
   57.8540   30.5940   44.5130 C   0  0  0  0  0  0  0  0  0  0  0  0
   57.5030   31.8840   44.2000 C   0  0  0  0  0  0  0  0  0  0  0  0
   57.9490   32.6600   45.2680 C   0  0  0  0  0  0  0  0  0  0  0  0
   58.5460   31.8820   46.2130 N   0  0  0  0  0  0  0  0  0  0  0  0
   58.4720   30.6160   45.7340 C   0  0  0  0  0  0  0  0  0  0  0  0
   58.9470   29.4340   46.3160 C   0  0  0  0  0  0  0  0  0  0  0  0
   58.9680   32.2810   47.5640 C   0  0  0  0  0  0  0  0  0  0  0  0
   59.9910   33.4440   47.5780 C   0  0  0  0  0  0  0  0  0  0  0  0
   60.6050   33.5250   48.9950 C   0  0  0  0  0  0  0  0  0  0  0  0
   61.1410   33.1940   46.5740 C   0  0  0  0  0  0  0  0  0  0  0  0
   59.2730   34.7850   47.2980 C   0  0  0  0  0  0  0  0  0  0  0  0
   58.8690   34.9410   45.9050 N   0  0  0  0  0  0  0  0  0  0  0  0
   57.8760   34.1330   45.2680 C   0  0  0  0  0  0  0  0  0  0  0  0
   57.0100   34.6980   44.5420 O   0  0  0  0  0  0  0  0  0  0  0  0
   56.8710   24.3890   46.5510 N   0  0  0  0  0  0  0  0  0  0  0  0
   57.7140   23.2010   46.7070 C   0  0  0  0  0  0  0  0  0  0  0  0
   58.6400   23.0440   45.5060 C   0  0  0  0  0  0  0  0  0  0  0  0
   56.8965   22.0167   43.7932 H   0  0  0  0  0  0  0  0  0  0  0  0
   55.8166   21.9148   42.3614 H   0  0  0  0  0  0  0  0  0  0  0  0
   57.2028   23.0572   42.3614 H   0  0  0  0  0  0  0  0  0  0  0  0
   56.1502   24.3393   44.2042 H   0  0  0  0  0  0  0  0  0  0  0  0
   55.0592   24.2051   42.7343 H   0  0  0  0  0  0  0  0  0  0  0  0
   53.2350   24.7823   43.7238 H   0  0  0  0  0  0  0  0  0  0  0  0
   52.6729   23.1415   43.2293 H   0  0  0  0  0  0  0  0  0  0  0  0
   52.7193   23.7257   46.1731 H   0  0  0  0  0  0  0  0  0  0  0  0
   51.4748   24.5777   45.1973 H   0  0  0  0  0  0  0  0  0  0  0  0
   51.5424   22.7827   45.1973 H   0  0  0  0  0  0  0  0  0  0  0  0
   53.7360   23.4215   46.4145 H   0  0  0  0  0  0  0  0  0  0  0  0
   55.1849   22.3686   46.2191 H   0  0  0  0  0  0  0  0  0  0  0  0
   56.2509   27.5956   46.2973 H   0  0  0  0  0  0  0  0  0  0  0  0
   58.0411   27.2761   43.7932 H   0  0  0  0  0  0  0  0  0  0  0  0
   57.1598   29.4226   42.8176 H   0  0  0  0  0  0  0  0  0  0  0  0
   56.9801   32.2315   43.2968 H   0  0  0  0  0  0  0  0  0  0  0  0
   59.4018   29.4460   47.3175 H   0  0  0  0  0  0  0  0  0  0  0  0
   58.0771   32.5951   48.1276 H   0  0  0  0  0  0  0  0  0  0  0  0
   59.4648   31.4100   48.0163 H   0  0  0  0  0  0  0  0  0  0  0  0
   59.8085   33.4199   49.7463 H   0  0  0  0  0  0  0  0  0  0  0  0
   61.3391   32.7159   49.1233 H   0  0  0  0  0  0  0  0  0  0  0  0
   61.1042   34.4968   49.1233 H   0  0  0  0  0  0  0  0  0  0  0  0
   62.0713   32.9918   47.1250 H   0  0  0  0  0  0  0  0  0  0  0  0
   60.8939   32.3286   45.9415 H   0  0  0  0  0  0  0  0  0  0  0  0
   61.2755   34.0839   45.9415 H   0  0  0  0  0  0  0  0  0  0  0  0
   58.3748   34.8393   47.9306 H   0  0  0  0  0  0  0  0  0  0  0  0
   59.9867   35.5911   47.5234 H   0  0  0  0  0  0  0  0  0  0  0  0
   59.1240   35.8410   45.4380 H   0  0  0  0  0  0  0  0  0  0  0  0
   58.3190   23.3034   47.6200 H   0  0  0  0  0  0  0  0  0  0  0  0
   57.0688   22.3129   46.7782 H   0  0  0  0  0  0  0  0  0  0  0  0
   59.6681   22.8697   45.8560 H   0  0  0  0  0  0  0  0  0  0  0  0
   58.3098   22.1890   44.8977 H   0  0  0  0  0  0  0  0  0  0  0  0
   58.6101   23.9600   44.8977 H   0  0  0  0  0  0  0  0  0  0  0  0
  1  2  1  0
  2  3  1  0
  3  4  1  0
  4  5  1  0
  3  6  1  0
  6  7  1  0
  7  8  2  0
  8  9  1  0
  9 10  2  0
 10 11  1  0
 11 12  1  0
 12 13  2  0
 12 14  1  0
 14 15  2  0
 15 16  1  0
 16 17  2  0
 17 18  1  0
 18 19  2  0
 19 20  1  0
 20 21  1  0
 21 22  2  0
 20 23  1  0
 23 24  1  0
 24 25  1  0
 24 26  1  0
 24 27  1  0
 27 28  1  0
 28 29  1  0
 29 30  2  0
 10 31  1  0
 31 32  1  0
 32 33  1  0
 31  7  1  0
 22 14  1  0
 21 17  1  0
 29 19  1  0
  1 34  1  0
  1 35  1  0
  1 36  1  0
  2 37  1  0
  2 38  1  0
  4 39  1  0
  4 40  1  0
  5 41  1  0
  5 42  1  0
  5 43  1  0
  6 44  1  0
  6 45  1  0
  9 46  1  0
 15 47  1  0
 16 48  1  0
 18 49  1  0
 22 50  1  0
 23 51  1  0
 23 52  1  0
 25 53  1  0
 25 54  1  0
 25 55  1  0
 26 56  1  0
 26 57  1  0
 26 58  1  0
 27 59  1  0
 27 60  1  0
 28 61  1  0
 32 62  1  0
 32 63  1  0
 33 64  1  0
 33 65  1  0
 33 66  1  0
M  CHG  1  11  -1
M  END
>  <UniqueID>  (12) 
10

>  <SMILES>  (12) 
CCN(CC)Cc1ncc([N-]C(=O)c2ccc3cc4n(c3c2)CC(C)(C)CNC4=O)n1CC

>  <Energy>  (12) 
139.91774027332363

>  <Genealogy>  (12) 
CCN(CC)Cc1ncc([N-]C(=O)c2ccc3cc4n(c3c2)CC(C)(C)CNC4=O)n1CC (protonated)
CCN(CC)Cc1ncc([N-]C(=O)c2ccc3cc4n(c3c2)CC(C)(C)CNC4=O)n1CC (3D coordinates assigned)
CCN(CC)Cc1ncc([N-]C(=O)c2ccc3cc4n(c3c2)CC(C)(C)CNC4=O)n1CC (nonaromatic ring conformer: 139.91774027332363 kcal/mol)

>  <smiles>  (12) 
CCN(CC)Cc1ncc(NC(=O)c2ccc3cc4n(c3c2)CC(C)(C)CNC4=O)n1CC

>  <score_type>  (12) 
oracle

>  <origin>  (12) 
adg

>  <m_score__min__energy>  (12) 
-8.9199999999999999

>  <m_primary>  (12) 
energy

$$$$
13:0
     RDKit          3D

 27 27  0  0  0  0  0  0  0  0999 V2000
   58.0670   27.7300   43.7330 C   0  0  0  0  0  0  0  0  0  0  0  0
   57.6650   28.4780   44.9320 N   0  0  0  0  0  0  0  0  0  0  0  0
   58.8430   29.0700   45.5760 C   0  0  0  0  0  0  0  0  0  0  0  0
   56.5500   29.7420   44.4780 S   0  0  0  0  0  0  0  0  0  0  0  0
   56.5870   29.9190   42.9860 O   0  0  0  0  0  0  0  0  0  0  0  0
   55.1550   29.3410   44.8730 O   0  0  0  0  0  0  0  0  0  0  0  0
   57.0160   31.2480   45.2250 N   0  0  0  0  0  0  0  0  0  0  0  0
   57.4980   32.2250   44.2460 C   0  0  0  0  0  0  0  0  0  0  0  0
   57.3670   33.6550   44.7810 C   0  0  0  0  0  0  0  0  0  0  0  0
   58.2700   33.8830   45.9560 C   0  0  0  0  0  0  0  0  0  0  0  0
   58.2040   33.2200   47.1740 C   0  0  0  0  0  0  0  0  0  0  0  0
   59.2190   33.5960   48.0610 C   0  0  0  0  0  0  0  0  0  0  0  0
   60.0910   34.5460   47.5410 C   0  0  0  0  0  0  0  0  0  0  0  0
   59.5980   34.9140   45.9740 S   0  0  0  0  0  0  0  0  0  0  0  0
   58.5680   26.7978   44.0332 H   0  0  0  0  0  0  0  0  0  0  0  0
   57.1759   27.4909   43.1341 H   0  0  0  0  0  0  0  0  0  0  0  0
   58.7581   28.3413   43.1341 H   0  0  0  0  0  0  0  0  0  0  0  0
   58.7307   29.0135   46.6688 H   0  0  0  0  0  0  0  0  0  0  0  0
   59.7440   28.5176   45.2710 H   0  0  0  0  0  0  0  0  0  0  0  0
   58.9374   30.1226   45.2710 H   0  0  0  0  0  0  0  0  0  0  0  0
   58.5559   32.0199   44.0251 H   0  0  0  0  0  0  0  0  0  0  0  0
   56.8877   32.1362   43.3351 H   0  0  0  0  0  0  0  0  0  0  0  0
   57.6337   34.3622   43.9818 H   0  0  0  0  0  0  0  0  0  0  0  0
   56.3279   33.8094   45.1072 H   0  0  0  0  0  0  0  0  0  0  0  0
   57.4323   32.4748   47.4171 H   0  0  0  0  0  0  0  0  0  0  0  0
   59.3177   33.1792   49.0742 H   0  0  0  0  0  0  0  0  0  0  0  0
   60.9549   34.9823   48.0639 H   0  0  0  0  0  0  0  0  0  0  0  0
  1  2  1  0
  2  3  1  0
  2  4  1  0
  4  5  2  0
  4  6  2  0
  4  7  1  0
  7  8  1  0
  8  9  1  0
  9 10  1  0
 10 11  2  0
 11 12  1  0
 12 13  2  0
 13 14  1  0
 14 10  1  0
  1 15  1  0
  1 16  1  0
  1 17  1  0
  3 18  1  0
  3 19  1  0
  3 20  1  0
  8 21  1  0
  8 22  1  0
  9 23  1  0
  9 24  1  0
 11 25  1  0
 12 26  1  0
 13 27  1  0
M  CHG  1   7  -1
M  END
>  <UniqueID>  (13) 
11

>  <SMILES>  (13) 
CN(C)S(=O)(=O)[N-]CCc1cccs1

>  <Energy>  (13) 
43.69416420338643

>  <Genealogy>  (13) 
CN(C)S(=O)(=O)[N-]CCc1cccs1 (protonated)
CN(C)S(=O)(=O)[N-]CCc1cccs1 (3D coordinates assigned)
CN(C)S(=O)(=O)[N-]CCc1cccs1 (optimized conformer: 43.69416420338643 kcal/mol)

>  <smiles>  (13) 
CN(C)S(=O)(=O)NCCc1cccs1

>  <score_type>  (13) 
oracle

>  <origin>  (13) 
adg

>  <m_score__min__energy>  (13) 
-7.5499999999999998

>  <m_primary>  (13) 
energy

$$$$
14:0
     RDKit          3D

 39 41  0  0  0  0  0  0  0  0999 V2000
   64.5220   32.8170   48.9840 C   0  0  0  0  0  0  0  0  0  0  0  0
   63.2000   32.7770   48.2760 C   0  0  0  0  0  0  0  0  0  0  0  0
   62.8890   33.7450   47.3140 C   0  0  0  0  0  0  0  0  0  0  0  0
   61.6730   33.6950   46.6280 C   0  0  0  0  0  0  0  0  0  0  0  0
   60.7540   32.6580   46.8720 C   0  0  0  0  0  0  0  0  0  0  0  0
   59.5040   32.5930   46.1600 N   0  0  0  0  0  0  0  0  0  0  0  0
   58.3350   33.3460   46.5260 C   0  0  0  0  0  0  0  0  0  0  0  0
   58.1580   33.7330   47.7120 O   0  0  0  0  0  0  0  0  0  0  0  0
   57.3270   33.7250   45.4780 C   0  0  0  0  0  0  0  0  0  0  0  0
   57.7760   33.0270   43.8470 S   0  0  0  0  0  0  0  0  0  0  0  0
   57.4190   31.3300   44.3020 C   0  0  0  0  0  0  0  0  0  0  0  0
   58.3880   30.4320   44.5670 N   0  0  0  0  0  0  0  0  0  0  0  0
   57.7140   29.3290   44.9360 C   0  0  0  0  0  0  0  0  0  0  0  0
   58.3750   28.0890   45.4100 C   0  0  0  0  0  0  0  0  0  0  0  0
   57.6280   26.9580   45.7950 C   0  0  0  0  0  0  0  0  0  0  0  0
   58.2720   25.8170   46.2820 C   0  0  0  0  0  0  0  0  0  0  0  0
   59.6640   25.7870   46.3870 C   0  0  0  0  0  0  0  0  0  0  0  0
   60.4160   26.8990   46.0030 C   0  0  0  0  0  0  0  0  0  0  0  0
   59.7780   28.0450   45.5220 C   0  0  0  0  0  0  0  0  0  0  0  0
   56.3580   29.5880   44.8730 C   0  0  0  0  0  0  0  0  0  0  0  0
   56.1690   30.8590   44.4760 N   0  0  0  0  0  0  0  0  0  0  0  0
   61.0630   31.6930   47.8550 C   0  0  0  0  0  0  0  0  0  0  0  0
   59.8620   30.2620   48.2860 Br  0  0  0  0  0  0  0  0  0  0  0  0
   62.2860   31.7480   48.5360 C   0  0  0  0  0  0  0  0  0  0  0  0
   64.3559   32.8120   50.0714 H   0  0  0  0  0  0  0  0  0  0  0  0
   65.1169   31.9364   48.6999 H   0  0  0  0  0  0  0  0  0  0  0  0
   65.0626   33.7319   48.6999 H   0  0  0  0  0  0  0  0  0  0  0  0
   63.6064   34.5500   47.0968 H   0  0  0  0  0  0  0  0  0  0  0  0
   61.4317   34.4740   45.8898 H   0  0  0  0  0  0  0  0  0  0  0  0
   59.5030   32.1470   45.2150 H   0  0  0  0  0  0  0  0  0  0  0  0
   56.3398   33.3404   45.7737 H   0  0  0  0  0  0  0  0  0  0  0  0
   57.3062   34.8216   45.3944 H   0  0  0  0  0  0  0  0  0  0  0  0
   56.5313   26.9731   45.7118 H   0  0  0  0  0  0  0  0  0  0  0  0
   57.6804   24.9400   46.5835 H   0  0  0  0  0  0  0  0  0  0  0  0
   60.1678   24.8881   46.7719 H   0  0  0  0  0  0  0  0  0  0  0  0
   61.5130   26.8727   46.0794 H   0  0  0  0  0  0  0  0  0  0  0  0
   60.3765   28.9200   45.2284 H   0  0  0  0  0  0  0  0  0  0  0  0
   55.5600   28.8689   45.1099 H   0  0  0  0  0  0  0  0  0  0  0  0
   62.5305   30.9766   49.2811 H   0  0  0  0  0  0  0  0  0  0  0  0
  1  2  1  0
  2  3  2  0
  3  4  1  0
  4  5  2  0
  5  6  1  0
  6  7  1  0
  7  8  2  0
  7  9  1  0
  9 10  1  0
 10 11  1  0
 11 12  2  0
 12 13  1  0
 13 14  1  0
 14 15  2  0
 15 16  1  0
 16 17  2  0
 17 18  1  0
 18 19  2  0
 13 20  2  0
 20 21  1  0
  5 22  1  0
 22 23  1  0
 22 24  2  0
 24  2  1  0
 21 11  1  0
 19 14  1  0
  1 25  1  0
  1 26  1  0
  1 27  1  0
  3 28  1  0
  4 29  1  0
  6 30  1  0
  9 31  1  0
  9 32  1  0
 15 33  1  0
 16 34  1  0
 17 35  1  0
 18 36  1  0
 19 37  1  0
 20 38  1  0
 24 39  1  0
M  CHG  1  21  -1
M  END
>  <UniqueID>  (14) 
12

>  <SMILES>  (14) 
Cc1ccc(NC(=O)CSc2nc(-c3ccccc3)c[n-]2)c(Br)c1

>  <Energy>  (14) 
65.35826494288068

>  <Genealogy>  (14) 
Cc1ccc(NC(=O)CSc2nc(-c3ccccc3)c[n-]2)c(Br)c1 (protonated)
Cc1ccc(NC(=O)CSc2nc(-c3ccccc3)c[n-]2)c(Br)c1 (3D coordinates assigned)
Cc1ccc(NC(=O)CSc2nc(-c3ccccc3)c[n-]2)c(Br)c1 (optimized conformer: 65.35826494288068 kcal/mol)

>  <smiles>  (14) 
Cc1ccc(NC(=O)CSc2nc(-c3ccccc3)c[nH]2)c(Br)c1

>  <score_type>  (14) 
oracle

>  <origin>  (14) 
adg

>  <m_score__min__energy>  (14) 
-9.5199999999999996

>  <m_primary>  (14) 
energy

$$$$
15:0
     RDKit          3D

 42 44  0  0  0  0  0  0  0  0999 V2000
   59.4780   33.4670   50.8350 C   0  0  0  0  0  0  0  0  0  0  0  0
   59.7150   32.3260   49.8510 C   0  0  0  0  0  0  0  0  0  0  0  0
   60.8760   32.6100   48.9860 N   0  0  0  0  0  0  0  0  0  0  0  0
   60.8810   33.9780   48.4190 C   0  0  0  0  0  0  0  0  0  0  0  0
   59.9110   34.1880   47.2750 C   0  0  0  0  0  0  0  0  0  0  0  0
   60.3590   34.5180   45.9850 C   0  0  0  0  0  0  0  0  0  0  0  0
   59.4430   34.6810   44.9450 C   0  0  0  0  0  0  0  0  0  0  0  0
   58.0850   34.4830   45.1920 C   0  0  0  0  0  0  0  0  0  0  0  0
   57.6640   34.1310   46.4340 N   0  0  0  0  0  0  0  0  0  0  0  0
   58.5350   33.9720   47.4660 C   0  0  0  0  0  0  0  0  0  0  0  0
   61.2000   31.3560   47.7980 S   0  0  0  0  0  0  0  0  0  0  0  0
   61.8970   30.2090   48.4740 O   0  0  0  0  0  0  0  0  0  0  0  0
   62.1330   31.8920   46.7480 O   0  0  0  0  0  0  0  0  0  0  0  0
   59.7410   30.7340   47.0110 C   0  0  0  0  0  0  0  0  0  0  0  0
   59.1310   29.5620   47.4820 C   0  0  0  0  0  0  0  0  0  0  0  0
   57.9720   29.0740   46.8750 C   0  0  0  0  0  0  0  0  0  0  0  0
   57.4270   29.7340   45.7700 C   0  0  0  0  0  0  0  0  0  0  0  0
   58.0530   30.8870   45.2610 C   0  0  0  0  0  0  0  0  0  0  0  0
   59.2080   31.3800   45.8850 C   0  0  0  0  0  0  0  0  0  0  0  0
   57.4110   31.6530   44.1270 C   0  0  0  0  0  0  0  0  0  0  0  0
   56.6690   30.7280   43.1510 C   0  0  0  0  0  0  0  0  0  0  0  0
   55.8030   29.7510   43.8930 C   0  0  0  0  0  0  0  0  0  0  0  0
   54.7260   29.3440   43.3860 O   0  0  0  0  0  0  0  0  0  0  0  0
   56.2470   29.2230   45.1450 N   0  0  0  0  0  0  0  0  0  0  0  0
   59.5571   33.0862   51.8639 H   0  0  0  0  0  0  0  0  0  0  0  0
   60.2324   34.2515   50.6754 H   0  0  0  0  0  0  0  0  0  0  0  0
   58.4736   33.8862   50.6754 H   0  0  0  0  0  0  0  0  0  0  0  0
   59.9025   31.3990   50.4127 H   0  0  0  0  0  0  0  0  0  0  0  0
   58.8225   32.2171   49.2172 H   0  0  0  0  0  0  0  0  0  0  0  0
   60.6226   34.6837   49.2223 H   0  0  0  0  0  0  0  0  0  0  0  0
   61.8883   34.1426   48.0089 H   0  0  0  0  0  0  0  0  0  0  0  0
   61.4345   34.6482   45.7943 H   0  0  0  0  0  0  0  0  0  0  0  0
   59.7890   34.9631   43.9397 H   0  0  0  0  0  0  0  0  0  0  0  0
   57.3542   34.6121   44.3800 H   0  0  0  0  0  0  0  0  0  0  0  0
   58.1608   33.6726   48.4561 H   0  0  0  0  0  0  0  0  0  0  0  0
   59.5687   29.0236   48.3355 H   0  0  0  0  0  0  0  0  0  0  0  0
   57.4868   28.1681   47.2674 H   0  0  0  0  0  0  0  0  0  0  0  0
   59.7002   32.2804   45.4886 H   0  0  0  0  0  0  0  0  0  0  0  0
   56.6939   32.3736   44.5471 H   0  0  0  0  0  0  0  0  0  0  0  0
   58.2096   32.1634   43.5686 H   0  0  0  0  0  0  0  0  0  0  0  0
   56.0378   31.3368   42.4869 H   0  0  0  0  0  0  0  0  0  0  0  0
   57.4116   30.1659   42.5658 H   0  0  0  0  0  0  0  0  0  0  0  0
  1  2  1  0
  2  3  1  0
  3  4  1  0
  4  5  1  0
  5  6  2  0
  6  7  1  0
  7  8  2  0
  8  9  1  0
  9 10  2  0
  3 11  1  0
 11 12  2  0
 11 13  2  0
 11 14  1  0
 14 15  2  0
 15 16  1  0
 16 17  2  0
 17 18  1  0
 18 19  2  0
 18 20  1  0
 20 21  1  0
 21 22  1  0
 22 23  2  0
 22 24  1  0
 10  5  1  0
 19 14  1  0
 24 17  1  0
  1 25  1  0
  1 26  1  0
  1 27  1  0
  2 28  1  0
  2 29  1  0
  4 30  1  0
  4 31  1  0
  6 32  1  0
  7 33  1  0
  8 34  1  0
 10 35  1  0
 15 36  1  0
 16 37  1  0
 19 38  1  0
 20 39  1  0
 20 40  1  0
 21 41  1  0
 21 42  1  0
M  CHG  1  24  -1
M  END
>  <UniqueID>  (15) 
13

>  <SMILES>  (15) 
CCN(Cc1cccnc1)S(=O)(=O)c1ccc2c(c1)CCC(=O)[N-]2

>  <Energy>  (15) 
45.84538884385272

>  <Genealogy>  (15) 
CCN(Cc1cccnc1)S(=O)(=O)c1ccc2c(c1)CCC(=O)[N-]2 (protonated)
CCN(Cc1cccnc1)S(=O)(=O)c1ccc2c(c1)CCC(=O)[N-]2 (3D coordinates assigned)
CCN(Cc1cccnc1)S(=O)(=O)c1ccc2c(c1)CCC(=O)[N-]2 (nonaromatic ring conformer: 45.84538884385272 kcal/mol)

>  <smiles>  (15) 
CCN(Cc1cccnc1)S(=O)(=O)c1ccc2c(c1)CCC(=O)N2

>  <score_type>  (15) 
oracle

>  <origin>  (15) 
adg

>  <m_score__min__energy>  (15) 
-9.6300000000000008

>  <m_primary>  (15) 
energy

$$$$
16:0
     RDKit          3D

 43 45  0  0  0  0  0  0  0  0999 V2000
   62.7508   33.9482   47.8015 H   0  0  0  0  0  0  0  0  0  0  0  0
   62.3230   33.1670   47.1560 C   0  0  0  0  0  0  0  0  0  0  0  0
   62.7765   32.9533   46.1769 H   0  0  0  0  0  0  0  0  0  0  0  0
   61.2530   32.4780   47.5610 C   0  0  0  0  0  0  0  0  0  0  0  0
   60.8110   32.7035   48.5427 H   0  0  0  0  0  0  0  0  0  0  0  0
   60.6370   31.4030   46.7110 C   0  0  0  0  0  0  0  0  0  0  0  0
   60.8183   31.6313   45.6503 H   0  0  0  0  0  0  0  0  0  0  0  0
   61.0922   30.4365   46.9730 H   0  0  0  0  0  0  0  0  0  0  0  0
   59.1910   31.3280   46.9490 N   0  0  0  0  0  0  0  0  0  0  0  0
   58.3960   30.4330   46.1560 C   0  0  0  0  0  0  0  0  0  0  0  0
   58.0620   29.2210   46.6690 N   0  0  0  0  0  0  0  0  0  0  0  0
   57.3130   28.3260   45.9690 C   0  0  0  0  0  0  0  0  0  0  0  0
   57.0220   27.1590   46.4640 N   0  0  0  0  0  0  0  0  0  0  0  0
   57.2560   25.8800   45.8480 C   0  0  0  0  0  0  0  0  0  0  0  0
   57.5160   24.7270   46.6120 C   0  0  0  0  0  0  0  0  0  0  0  0
   57.5651   24.7890   47.7092 H   0  0  0  0  0  0  0  0  0  0  0  0
   57.7110   23.5050   45.9680 C   0  0  0  0  0  0  0  0  0  0  0  0
   57.9297   22.6011   46.5554 H   0  0  0  0  0  0  0  0  0  0  0  0
   57.6280   23.4320   44.5780 C   0  0  0  0  0  0  0  0  0  0  0  0
   57.7893   22.4746   44.0609 H   0  0  0  0  0  0  0  0  0  0  0  0
   57.3380   24.5870   43.8500 C   0  0  0  0  0  0  0  0  0  0  0  0
   57.2620   24.5393   42.7537 H   0  0  0  0  0  0  0  0  0  0  0  0
   57.1490   25.7720   44.4920 N   0  0  0  0  0  0  0  0  0  0  0  0
   56.9290   26.6220   43.9260 H   0  0  0  0  0  0  0  0  0  0  0  0
   56.8960   28.6370   44.7150 N   0  0  0  0  0  0  0  0  0  0  0  0
   57.1940   29.8360   44.1500 C   0  0  0  0  0  0  0  0  0  0  0  0
   56.7340   30.1340   42.8620 C   0  0  0  0  0  0  0  0  0  0  0  0
   56.1465   29.3911   42.3025 H   0  0  0  0  0  0  0  0  0  0  0  0
   57.0210   31.3760   42.2860 C   0  0  0  0  0  0  0  0  0  0  0  0
   56.6624   31.6072   41.2721 H   0  0  0  0  0  0  0  0  0  0  0  0
   57.7630   32.3240   42.9970 C   0  0  0  0  0  0  0  0  0  0  0  0
   57.9804   33.3021   42.5430 H   0  0  0  0  0  0  0  0  0  0  0  0
   58.2300   32.0340   44.2830 C   0  0  0  0  0  0  0  0  0  0  0  0
   58.8109   32.7844   44.8394 H   0  0  0  0  0  0  0  0  0  0  0  0
   57.9570   30.7830   44.8650 C   0  0  0  0  0  0  0  0  0  0  0  0
   58.5180   32.3090   47.8090 C   0  0  0  0  0  0  0  0  0  0  0  0
   57.6662   31.8262   48.3103 H   0  0  0  0  0  0  0  0  0  0  0  0
   59.2373   32.6802   48.5539 H   0  0  0  0  0  0  0  0  0  0  0  0
   58.0190   33.4710   46.9960 C   0  0  0  0  0  0  0  0  0  0  0  0
   56.9778   33.4680   46.6411 H   0  0  0  0  0  0  0  0  0  0  0  0
   58.8060   34.5070   46.6930 C   0  0  0  0  0  0  0  0  0  0  0  0
   58.4105   35.3421   46.0961 H   0  0  0  0  0  0  0  0  0  0  0  0
   59.8496   34.5250   47.0404 H   0  0  0  0  0  0  0  0  0  0  0  0
  1  2  1  0
  2  3  1  0
  2  4  2  0
  4  5  1  0
  4  6  1  0
  6  7  1  0
  6  8  1  0
  6  9  1  0
  9 10  1  0
 10 11  2  0
 11 12  1  0
 12 13  2  0
 13 14  1  0
 14 15  2  0
 15 16  1  0
 15 17  1  0
 17 18  1  0
 17 19  2  0
 19 20  1  0
 19 21  1  0
 21 22  1  0
 21 23  2  0
 23 24  1  0
 12 25  1  0
 25 26  1  0
 26 27  2  0
 27 28  1  0
 27 29  1  0
 29 30  1  0
 29 31  2  0
 31 32  1  0
 31 33  1  0
 33 34  1  0
 33 35  2  0
  9 36  1  0
 36 37  1  0
 36 38  1  0
 36 39  1  0
 39 40  1  0
 39 41  2  0
 41 42  1  0
 41 43  1  0
 35 10  1  0
 23 14  1  0
 35 26  1  0
M  CHG  2  23   1  25  -1
M  END
>  <UniqueID>  (16) 
14

>  <SMILES>  (16) 
C=CCN(CC=C)c1n/c(=N\c2cccc[nH+]2)[n-]c2ccccc12

>  <Energy>  (16) 
52.78975923715916

>  <Genealogy>  (16) 
C=CCN(CC=C)c1nc(=Nc2cccc[nH+]2)[n-]c2ccccc12 (protonated)
C=CCN(CC=C)c1n/c(=N\c2cccc[nH+]2)[n-]c2ccccc12 (cis-trans isomerization)
C=CCN(CC=C)c1n/c(=N\c2cccc[nH+]2)[n-]c2ccccc12 (3D coordinates assigned)
C=CCN(CC=C)c1n/c(=N\c2cccc[nH+]2)[n-]c2ccccc12 (optimized conformer: 52.78975923715916 kcal/mol)

>  <smiles>  (16) 
C=CCN(CC=C)c1nc(=Nc2ccccn2)[nH]c2ccccc12

>  <score_type>  (16) 
oracle

>  <origin>  (16) 
adg

>  <m_score__min__energy>  (16) 
-7.4199999999999999

>  <m_primary>  (16) 
energy

$$$$
17:0
     RDKit          3D

 41 43  0  0  0  0  0  0  0  0999 V2000
   52.4370   24.0950   44.8870 C   0  0  0  0  0  0  0  0  0  0  0  0
   53.3600   24.8160   45.6910 O   0  0  0  0  0  0  0  0  0  0  0  0
   54.7360   24.8060   45.4470 C   0  0  0  0  0  0  0  0  0  0  0  0
   55.3280   23.8640   44.6140 C   0  0  0  0  0  0  0  0  0  0  0  0
   56.9810   24.1730   44.5860 S   0  0  0  0  0  0  0  0  0  0  0  0
   56.8620   25.4880   45.6250 C   0  0  0  0  0  0  0  0  0  0  0  0
   58.2410   26.5060   46.1310 S   0  0  0  0  0  0  0  0  0  0  0  0
   57.5590   27.9690   45.3530 C   0  0  0  0  0  0  0  0  0  0  0  0
   57.0170   28.9870   46.0460 N   0  0  0  0  0  0  0  0  0  0  0  0
   56.6410   29.9000   45.1620 N   0  0  0  0  0  0  0  0  0  0  0  0
   56.9630   29.4250   43.9420 C   0  0  0  0  0  0  0  0  0  0  0  0
   56.7570   30.2000   42.6690 C   0  0  0  0  0  0  0  0  0  0  0  0
   57.3720   31.6050   42.7510 C   0  0  0  0  0  0  0  0  0  0  0  0
   57.9540   31.8640   44.0690 N   0  0  0  0  0  0  0  0  0  0  0  0
   57.9480   33.1620   44.6840 C   0  0  0  0  0  0  0  0  0  0  0  0
   57.3350   34.1140   44.1290 O   0  0  0  0  0  0  0  0  0  0  0  0
   58.6570   33.3900   45.9620 C   0  0  0  0  0  0  0  0  0  0  0  0
   58.9320   34.6900   46.4160 C   0  0  0  0  0  0  0  0  0  0  0  0
   59.6010   34.8670   47.6290 C   0  0  0  0  0  0  0  0  0  0  0  0
   59.9870   33.7560   48.3790 C   0  0  0  0  0  0  0  0  0  0  0  0
   59.7020   32.4780   47.9000 C   0  0  0  0  0  0  0  0  0  0  0  0
   59.0510   32.3250   46.7160 N   0  0  0  0  0  0  0  0  0  0  0  0
   57.5260   28.2020   44.0250 N   0  0  0  0  0  0  0  0  0  0  0  0
   58.0530   27.3710   42.9440 C   0  0  0  0  0  0  0  0  0  0  0  0
   55.5870   25.7130   46.0040 N   0  0  0  0  0  0  0  0  0  0  0  0
   51.7362   23.5476   45.5345 H   0  0  0  0  0  0  0  0  0  0  0  0
   51.8772   24.7974   44.2520 H   0  0  0  0  0  0  0  0  0  0  0  0
   52.9829   23.3818   44.2520 H   0  0  0  0  0  0  0  0  0  0  0  0
   54.8088   23.0608   44.0707 H   0  0  0  0  0  0  0  0  0  0  0  0
   57.2280   29.6530   41.8389 H   0  0  0  0  0  0  0  0  0  0  0  0
   55.6746   30.3094   42.5066 H   0  0  0  0  0  0  0  0  0  0  0  0
   58.1604   31.6943   41.9891 H   0  0  0  0  0  0  0  0  0  0  0  0
   56.5725   32.3404   42.5781 H   0  0  0  0  0  0  0  0  0  0  0  0
   58.3870   31.0580   44.5750 H   0  0  0  0  0  0  0  0  0  0  0  0
   58.6229   35.5620   45.8210 H   0  0  0  0  0  0  0  0  0  0  0  0
   59.8233   35.8811   47.9925 H   0  0  0  0  0  0  0  0  0  0  0  0
   60.5104   33.8867   49.3376 H   0  0  0  0  0  0  0  0  0  0  0  0
   60.0038   31.5934   48.4800 H   0  0  0  0  0  0  0  0  0  0  0  0
   58.5959   26.5149   43.3710 H   0  0  0  0  0  0  0  0  0  0  0  0
   57.2213   27.0054   42.3238 H   0  0  0  0  0  0  0  0  0  0  0  0
   58.7383   27.9674   42.3238 H   0  0  0  0  0  0  0  0  0  0  0  0
  1  2  1  0
  2  3  1  0
  3  4  2  0
  4  5  1  0
  5  6  1  0
  6  7  1  0
  7  8  1  0
  8  9  2  0
  9 10  1  0
 10 11  2  0
 11 12  1  0
 12 13  1  0
 13 14  1  0
 14 15  1  0
 15 16  2  0
 15 17  1  0
 17 18  2  0
 18 19  1  0
 19 20  2  0
 20 21  1  0
 21 22  2  0
 11 23  1  0
 23 24  1  0
  6 25  2  0
 25  3  1  0
 23  8  1  0
 22 17  1  0
  1 26  1  0
  1 27  1  0
  1 28  1  0
  4 29  1  0
 12 30  1  0
 12 31  1  0
 13 32  1  0
 13 33  1  0
 14 34  1  0
 18 35  1  0
 19 36  1  0
 20 37  1  0
 21 38  1  0
 24 39  1  0
 24 40  1  0
 24 41  1  0
M  END
>  <UniqueID>  (17) 
15

>  <SMILES>  (17) 
COc1csc(Sc2nnc(CCNC(=O)c3ccccn3)n2C)n1

>  <Energy>  (17) 
93.17917181800804

>  <Genealogy>  (17) 
COc1csc(Sc2nnc(CCNC(=O)c3ccccn3)n2C)n1 (3D coordinates assigned)
COc1csc(Sc2nnc(CCNC(=O)c3ccccn3)n2C)n1 (optimized conformer: 93.17917181800804 kcal/mol)

>  <smiles>  (17) 
COc1csc(Sc2nnc(CCNC(=O)c3ccccn3)n2C)n1

>  <score_type>  (17) 
oracle

>  <origin>  (17) 
adg

>  <m_score__min__energy>  (17) 
-8.0500000000000007

>  <m_primary>  (17) 
energy

$$$$
18:0
     RDKit          3D

 62 65  0  0  0  0  0  0  0  0999 V2000
   55.1720   28.6180   45.6320 H   0  0  0  0  0  0  0  0  0  0  0  0
   55.1650   29.3240   44.8630 N   0  0  0  0  0  0  0  0  0  0  0  0
   56.3490   29.6170   44.1240 C   0  0  0  0  0  0  0  0  0  0  0  0
   56.4070   29.3210   42.9010 O   0  0  0  0  0  0  0  0  0  0  0  0
   57.5110   30.2050   44.8110 C   0  0  0  0  0  0  0  0  0  0  0  0
   57.7610   31.5580   44.8950 C   0  0  0  0  0  0  0  0  0  0  0  0
   57.2259   32.3414   44.3383 H   0  0  0  0  0  0  0  0  0  0  0  0
   58.7690   31.7680   45.7710 N   0  0  0  0  0  0  0  0  0  0  0  0
   59.3080   33.0840   46.1860 C   0  0  2  0  0  0  0  0  0  0  0  0
   59.3120   34.0280   44.9560 C   0  0  0  0  0  0  0  0  0  0  0  0
   60.0564   33.6643   44.2323 H   0  0  0  0  0  0  0  0  0  0  0  0
   58.3004   34.0253   44.5240 H   0  0  0  0  0  0  0  0  0  0  0  0
   59.6440   35.4130   45.3220 C   0  0  0  0  0  0  0  0  0  0  0  0
   59.9070   36.5040   45.6050 N   0  0  0  0  0  0  0  0  0  0  0  0
   60.7610   32.9260   46.7020 C   0  0  0  0  0  0  0  0  0  0  0  0
   61.1382   33.9158   46.9986 H   0  0  0  0  0  0  0  0  0  0  0  0
   61.3564   32.4899   45.8863 H   0  0  0  0  0  0  0  0  0  0  0  0
   60.8660   31.9730   47.9160 C   0  0  0  0  0  0  0  0  0  0  0  0
   61.6702   32.3378   48.5719 H   0  0  0  0  0  0  0  0  0  0  0  0
   61.0659   30.9694   47.5126 H   0  0  0  0  0  0  0  0  0  0  0  0
   59.5560   31.8630   48.7620 C   0  0  1  0  0  0  0  0  0  0  0  0
   58.9054   31.1043   48.3026 H   0  0  0  0  0  0  0  0  0  0  0  0
   59.7900   31.3860   50.1590 N   0  0  0  0  0  0  0  0  0  0  0  0
   59.4840   29.9390   50.3450 C   0  0  0  0  0  0  0  0  0  0  0  0
   58.5538   29.7020   49.8079 H   0  0  0  0  0  0  0  0  0  0  0  0
   60.3330   29.3614   49.9506 H   0  0  0  0  0  0  0  0  0  0  0  0
   59.3090   29.5680   51.8230 C   0  0  0  0  0  0  0  0  0  0  0  0
   59.1612   28.4812   51.9072 H   0  0  0  0  0  0  0  0  0  0  0  0
   60.2106   29.8749   52.3733 H   0  0  0  0  0  0  0  0  0  0  0  0
   58.0940   30.2900   52.4250 C   0  0  0  0  0  0  0  0  0  0  0  0
   57.2122   29.6497   52.2752 H   0  0  0  0  0  0  0  0  0  0  0  0
   58.3090   30.5010   53.7780 F   0  0  0  0  0  0  0  0  0  0  0  0
   57.8120   31.6300   51.7260 C   0  0  0  0  0  0  0  0  0  0  0  0
   57.1074   31.4605   50.8985 H   0  0  0  0  0  0  0  0  0  0  0  0
   57.3859   32.3233   52.4662 H   0  0  0  0  0  0  0  0  0  0  0  0
   59.1000   32.2530   51.1660 C   0  0  0  0  0  0  0  0  0  0  0  0
   58.8449   33.2095   50.6864 H   0  0  0  0  0  0  0  0  0  0  0  0
   59.7920   32.3836   52.0110 H   0  0  0  0  0  0  0  0  0  0  0  0
   58.8800   33.2570   48.7630 C   0  0  0  0  0  0  0  0  0  0  0  0
   59.5871   33.9914   49.1761 H   0  0  0  0  0  0  0  0  0  0  0  0
   57.9678   33.1851   49.3736 H   0  0  0  0  0  0  0  0  0  0  0  0
   58.4610   33.7150   47.3450 C   0  0  0  0  0  0  0  0  0  0  0  0
   58.5651   34.8088   47.2916 H   0  0  0  0  0  0  0  0  0  0  0  0
   57.4248   33.3762   47.1981 H   0  0  0  0  0  0  0  0  0  0  0  0
   59.1580   30.6040   46.2760 N   0  0  0  0  0  0  0  0  0  0  0  0
   58.4370   29.6340   45.6870 C   0  0  0  0  0  0  0  0  0  0  0  0
   58.6820   28.3720   45.9040 N   0  0  0  0  0  0  0  0  0  0  0  0
   58.2750   27.2540   45.1050 C   0  0  0  0  0  0  0  0  0  0  0  0
   57.6340   26.1490   45.6770 C   0  0  0  0  0  0  0  0  0  0  0  0
   57.4787   26.1065   46.7652 H   0  0  0  0  0  0  0  0  0  0  0  0
   57.1920   25.1020   44.8690 C   0  0  0  0  0  0  0  0  0  0  0  0
   56.7111   24.2208   45.3186 H   0  0  0  0  0  0  0  0  0  0  0  0
   57.3650   25.1800   43.4760 C   0  0  0  0  0  0  0  0  0  0  0  0
   56.9340   24.1600   42.6150 O   0  0  0  0  0  0  0  0  0  0  0  0
   56.4600   22.8890   43.0480 C   0  0  0  0  0  0  0  0  0  0  0  0
   56.4481   22.8572   44.1475 H   0  0  0  0  0  0  0  0  0  0  0  0
   55.4413   22.7278   42.6655 H   0  0  0  0  0  0  0  0  0  0  0  0
   57.1244   22.1001   42.6655 H   0  0  0  0  0  0  0  0  0  0  0  0
   57.9620   26.2820   42.9390 N   0  0  0  0  0  0  0  0  0  0  0  0
   58.0770   26.3450   41.9030 H   0  0  0  0  0  0  0  0  0  0  0  0
   58.4000   27.3130   43.7140 C   0  0  0  0  0  0  0  0  0  0  0  0
   58.8546   28.1969   43.2427 H   0  0  0  0  0  0  0  0  0  0  0  0
  1  2  1  0
  2  3  1  0
  3  4  2  0
  3  5  1  0
  5  6  2  0
  6  7  1  0
  6  8  1  0
  8  9  1  0
  9 10  1  6
 10 11  1  0
 10 12  1  0
 10 13  1  0
 13 14  3  0
  9 15  1  0
 15 16  1  0
 15 17  1  0
 15 18  1  0
 18 19  1  0
 18 20  1  0
 18 21  1  0
 21 22  1  6
 21 23  1  0
 23 24  1  0
 24 25  1  0
 24 26  1  0
 24 27  1  0
 27 28  1  0
 27 29  1  0
 27 30  1  0
 30 31  1  0
 30 32  1  0
 30 33  1  0
 33 34  1  0
 33 35  1  0
 33 36  1  0
 36 37  1  0
 36 38  1  0
 21 39  1  0
 39 40  1  0
 39 41  1  0
 39 42  1  0
 42 43  1  0
 42 44  1  0
  8 45  1  0
 45 46  1  0
 46 47  2  0
 47 48  1  0
 48 49  2  0
 49 50  1  0
 49 51  1  0
 51 52  1  0
 51 53  2  0
 53 54  1  0
 54 55  1  0
 55 56  1  0
 55 57  1  0
 55 58  1  0
 53 59  1  0
 59 60  1  0
 59 61  2  0
 61 62  1  0
 46  5  1  0
 61 48  1  0
 42  9  1  0
 36 23  1  0
M  CHG  3   2  -1  45  -1  59   1
M  END
>  <UniqueID>  (18) 
16

>  <SMILES>  (18) 
COc1ccc(/N=c2/[n-]n(C3(CC#N)CCC(N4CCC(F)CC4)CC3)cc2C([NH-])=O)c[nH+]1

>  <Energy>  (18) 
126.7627038606379

>  <Genealogy>  (18) 
COc1ccc(N=c2[n-]n(C3(CC#N)CCC(N4CCC(F)CC4)CC3)cc2C([NH-])=O)c[nH+]1 (protonated)
COc1ccc(/N=c2/[n-]n(C3(CC#N)CCC(N4CCC(F)CC4)CC3)cc2C([NH-])=O)c[nH+]1 (cis-trans isomerization)
COc1ccc(/N=c2/[n-]n(C3(CC#N)CCC(N4CCC(F)CC4)CC3)cc2C([NH-])=O)c[nH+]1 (3D coordinates assigned)
COc1ccc(/N=c2/[n-]n(C3(CC#N)CCC(N4CCC(F)CC4)CC3)cc2C([NH-])=O)c[nH+]1 (nonaromatic ring conformer: 126.7627038606379 kcal/mol)

>  <smiles>  (18) 
COc1ccc(N=c2[nH]n(C3(CC#N)CCC(N4CCC(F)CC4)CC3)cc2C(N)=O)cn1

>  <score_type>  (18) 
oracle

>  <origin>  (18) 
adg

>  <m_score__min__energy>  (18) 
-11.52

>  <m_primary>  (18) 
energy

$$$$
19:0
     RDKit          3D

 51 53  0  0  0  0  0  0  0  0999 V2000
   58.0400   26.7340   42.2550 C   0  0  0  0  0  0  0  0  0  0  0  0
   58.2020   27.6780   43.3080 O   0  0  0  0  0  0  0  0  0  0  0  0
   58.2300   27.3540   44.6740 C   0  0  0  0  0  0  0  0  0  0  0  0
   58.6500   26.0850   45.1220 C   0  0  0  0  0  0  0  0  0  0  0  0
   58.6330   25.7720   46.4830 C   0  0  0  0  0  0  0  0  0  0  0  0
   58.1930   26.7130   47.4120 C   0  0  0  0  0  0  0  0  0  0  0  0
   57.7790   27.9760   46.9850 C   0  0  0  0  0  0  0  0  0  0  0  0
   57.8090   28.3150   45.6210 C   0  0  0  0  0  0  0  0  0  0  0  0
   57.3670   29.6720   45.2200 C   0  0  0  0  0  0  0  0  0  0  0  0
   56.1320   29.8660   45.0490 O   0  0  0  0  0  0  0  0  0  0  0  0
   58.3390   30.8180   44.9870 C   0  0  2  0  0  0  0  0  0  0  0  0
   59.5950   30.6970   45.8780 C   0  0  0  0  0  0  0  0  0  0  0  0
   57.6460   32.1280   45.1430 N   0  0  0  0  0  0  0  0  0  0  0  0
   57.3600   32.5720   46.5310 C   0  0  0  0  0  0  0  0  0  0  0  0
   58.1780   33.8020   46.9490 C   0  0  0  0  0  0  0  0  0  0  0  0
   59.4740   33.7930   46.2540 N   0  0  0  0  0  0  0  0  0  0  0  0
   60.4020   34.7900   46.8240 C   0  0  0  0  0  0  0  0  0  0  0  0
   61.6660   34.1150   47.2850 C   0  0  0  0  0  0  0  0  0  0  0  0
   62.6360   33.6980   46.3630 C   0  0  0  0  0  0  0  0  0  0  0  0
   63.8080   33.0950   46.8220 C   0  0  0  0  0  0  0  0  0  0  0  0
   64.0090   32.9150   48.1560 N   0  0  0  0  0  0  0  0  0  0  0  0
   63.0840   33.3130   49.0710 C   0  0  0  0  0  0  0  0  0  0  0  0
   61.8980   33.9200   48.6540 C   0  0  0  0  0  0  0  0  0  0  0  0
   59.2760   34.0280   44.8100 C   0  0  0  0  0  0  0  0  0  0  0  0
   58.1020   33.2030   44.2370 C   0  0  0  0  0  0  0  0  0  0  0  0
   57.8685   25.7347   42.6816 H   0  0  0  0  0  0  0  0  0  0  0  0
   57.1779   27.0208   41.6348 H   0  0  0  0  0  0  0  0  0  0  0  0
   58.9484   26.7170   41.6348 H   0  0  0  0  0  0  0  0  0  0  0  0
   58.9938   25.3355   44.3939 H   0  0  0  0  0  0  0  0  0  0  0  0
   58.9676   24.7806   46.8224 H   0  0  0  0  0  0  0  0  0  0  0  0
   58.1719   26.4604   48.4824 H   0  0  0  0  0  0  0  0  0  0  0  0
   57.4263   28.7123   47.7222 H   0  0  0  0  0  0  0  0  0  0  0  0
   58.7007   30.7595   43.9498 H   0  0  0  0  0  0  0  0  0  0  0  0
   59.2977   30.7256   46.9367 H   0  0  0  0  0  0  0  0  0  0  0  0
   60.1047   29.7456   45.6659 H   0  0  0  0  0  0  0  0  0  0  0  0
   60.2770   31.5336   45.6659 H   0  0  0  0  0  0  0  0  0  0  0  0
   56.2910   32.8201   46.6062 H   0  0  0  0  0  0  0  0  0  0  0  0
   57.6391   31.7477   47.2038 H   0  0  0  0  0  0  0  0  0  0  0  0
   57.6265   34.7159   46.6831 H   0  0  0  0  0  0  0  0  0  0  0  0
   58.3465   33.7762   48.0357 H   0  0  0  0  0  0  0  0  0  0  0  0
   60.6482   35.5386   46.0565 H   0  0  0  0  0  0  0  0  0  0  0  0
   59.9211   35.2799   47.6835 H   0  0  0  0  0  0  0  0  0  0  0  0
   62.4746   33.8450   45.2849 H   0  0  0  0  0  0  0  0  0  0  0  0
   64.5719   32.7641   46.1031 H   0  0  0  0  0  0  0  0  0  0  0  0
   64.8910   32.4630   48.4830 H   0  0  0  0  0  0  0  0  0  0  0  0
   63.2714   33.1559   50.1435 H   0  0  0  0  0  0  0  0  0  0  0  0
   61.1510   34.2429   49.3940 H   0  0  0  0  0  0  0  0  0  0  0  0
   59.0684   35.0964   44.6507 H   0  0  0  0  0  0  0  0  0  0  0  0
   60.1930   33.7148   44.2893 H   0  0  0  0  0  0  0  0  0  0  0  0
   57.2575   33.8821   44.0481 H   0  0  0  0  0  0  0  0  0  0  0  0
   58.4611   32.7219   43.3153 H   0  0  0  0  0  0  0  0  0  0  0  0
  1  2  1  0
  2  3  1  0
  3  4  2  0
  4  5  1  0
  5  6  2  0
  6  7  1  0
  7  8  2  0
  8  9  1  0
  9 10  2  0
  9 11  1  0
 11 12  1  0
 11 13  1  0
 13 14  1  0
 14 15  1  0
 15 16  1  0
 16 17  1  0
 17 18  1  0
 18 19  2  0
 19 20  1  0
 20 21  2  0
 21 22  1  0
 22 23  2  0
 16 24  1  0
 24 25  1  0
  8  3  1  0
 25 13  1  0
 23 18  1  0
  1 26  1  0
  1 27  1  0
  1 28  1  0
  4 29  1  0
  5 30  1  0
  6 31  1  0
  7 32  1  0
 11 33  1  6
 12 34  1  0
 12 35  1  0
 12 36  1  0
 14 37  1  0
 14 38  1  0
 15 39  1  0
 15 40  1  0
 17 41  1  0
 17 42  1  0
 19 43  1  0
 20 44  1  0
 21 45  1  0
 22 46  1  0
 23 47  1  0
 24 48  1  0
 24 49  1  0
 25 50  1  0
 25 51  1  0
M  CHG  1  21   1
M  END
>  <UniqueID>  (19) 
17

>  <SMILES>  (19) 
COc1ccccc1C(=O)[C@H](C)N1CCN(Cc2cc[nH+]cc2)CC1

>  <Energy>  (19) 
72.91893097283467

>  <Genealogy>  (19) 
COc1ccccc1C(=O)C(C)N1CCN(Cc2cc[nH+]cc2)CC1 (protonated)
COc1ccccc1C(=O)[C@H](C)N1CCN(Cc2cc[nH+]cc2)CC1 (chirality)
COc1ccccc1C(=O)[C@H](C)N1CCN(Cc2cc[nH+]cc2)CC1 (3D coordinates assigned)
COc1ccccc1C(=O)[C@H](C)N1CCN(Cc2cc[nH+]cc2)CC1 (nonaromatic ring conformer: 72.91893097283467 kcal/mol)

>  <smiles>  (19) 
COc1ccccc1C(=O)C(C)N1CCN(Cc2ccncc2)CC1

>  <score_type>  (19) 
oracle

>  <origin>  (19) 
adg

>  <m_score__min__energy>  (19) 
-6.8899999999999997

>  <m_primary>  (19) 
energy

$$$$
20:0
     RDKit          3D

 27 28  0  0  0  0  0  0  0  0999 V2000
   57.8020   34.0350   45.9950 C   0  0  0  0  0  0  0  0  0  0  0  0
   57.8610   32.8710   45.0590 C   0  0  0  0  0  0  0  0  0  0  0  0
   57.9930   31.5710   45.5530 C   0  0  0  0  0  0  0  0  0  0  0  0
   58.0250   30.5020   44.6450 C   0  0  0  0  0  0  0  0  0  0  0  0
   58.1640   29.1480   45.1140 N   0  0  0  0  0  0  0  0  0  0  0  0
   58.8160   28.8720   46.4010 C   0  0  0  0  0  0  0  0  0  0  0  0
   58.1310   27.6940   47.1330 C   0  0  0  0  0  0  0  0  0  0  0  0
   57.1770   27.0050   46.3420 O   0  0  0  0  0  0  0  0  0  0  0  0
   57.7090   26.7300   45.0640 C   0  0  0  0  0  0  0  0  0  0  0  0
   57.7710   28.0260   44.2520 C   0  0  0  0  0  0  0  0  0  0  0  0
   57.9360   30.7600   43.3090 N   0  0  0  0  0  0  0  0  0  0  0  0
   57.8040   32.0330   42.8470 C   0  0  0  0  0  0  0  0  0  0  0  0
   57.6920   32.3420   41.1250 Cl  0  0  0  0  0  0  0  0  0  0  0  0
   57.7650   33.0740   43.7180 N   0  0  0  0  0  0  0  0  0  0  0  0
   57.8204   33.6720   47.0332 H   0  0  0  0  0  0  0  0  0  0  0  0
   58.6681   34.6903   45.8203 H   0  0  0  0  0  0  0  0  0  0  0  0
   56.8741   34.5993   45.8203 H   0  0  0  0  0  0  0  0  0  0  0  0
   58.0705   31.3887   46.6350 H   0  0  0  0  0  0  0  0  0  0  0  0
   59.8712   28.6183   46.2217 H   0  0  0  0  0  0  0  0  0  0  0  0
   58.7350   29.7692   47.0323 H   0  0  0  0  0  0  0  0  0  0  0  0
   58.9077   26.9785   47.4410 H   0  0  0  0  0  0  0  0  0  0  0  0
   57.5883   28.1212   47.9891 H   0  0  0  0  0  0  0  0  0  0  0  0
   58.7217   26.3137   45.1694 H   0  0  0  0  0  0  0  0  0  0  0  0
   57.0672   26.0016   44.5468 H   0  0  0  0  0  0  0  0  0  0  0  0
   58.5088   27.9132   43.4439 H   0  0  0  0  0  0  0  0  0  0  0  0
   56.7769   28.2310   43.8280 H   0  0  0  0  0  0  0  0  0  0  0  0
   57.9920   29.9760   42.6200 H   0  0  0  0  0  0  0  0  0  0  0  0
  1  2  1  0
  2  3  2  0
  3  4  1  0
  4  5  1  0
  5  6  1  0
  6  7  1  0
  7  8  1  0
  8  9  1  0
  9 10  1  0
  4 11  2  0
 11 12  1  0
 12 13  1  0
 12 14  2  0
 14  2  1  0
 10  5  1  0
  1 15  1  0
  1 16  1  0
  1 17  1  0
  3 18  1  0
  6 19  1  0
  6 20  1  0
  7 21  1  0
  7 22  1  0
  9 23  1  0
  9 24  1  0
 10 25  1  0
 10 26  1  0
 11 27  1  0
M  CHG  1  11   1
M  END
>  <UniqueID>  (20) 
18

>  <SMILES>  (20) 
Cc1cc(N2CCOCC2)[nH+]c(Cl)n1

>  <Energy>  (20) 
35.58270836976073

>  <Genealogy>  (20) 
Cc1cc(N2CCOCC2)[nH+]c(Cl)n1 (protonated)
Cc1cc(N2CCOCC2)[nH+]c(Cl)n1 (3D coordinates assigned)
Cc1cc(N2CCOCC2)[nH+]c(Cl)n1 (nonaromatic ring conformer: 35.58270836976073 kcal/mol)

>  <smiles>  (20) 
Cc1cc(N2CCOCC2)nc(Cl)n1

>  <score_type>  (20) 
oracle

>  <origin>  (20) 
adg

>  <m_score__min__energy>  (20) 
-4.2999999999999998

>  <m_primary>  (20) 
energy

$$$$
21:0
     RDKit          3D

 32 33  0  0  0  0  0  0  0  0999 V2000
   60.6220   29.6750   47.8860 C   0  0  0  0  0  0  0  0  0  0  0  0
   60.3470   28.3900   47.3370 O   0  0  0  0  0  0  0  0  0  0  0  0
   59.3430   28.1300   46.3920 C   0  0  0  0  0  0  0  0  0  0  0  0
   58.3320   29.0600   46.0910 C   0  0  0  0  0  0  0  0  0  0  0  0
   57.3480   28.7350   45.1450 C   0  0  0  0  0  0  0  0  0  0  0  0
   56.2880   29.7120   44.8260 C   0  0  0  0  0  0  0  0  0  0  0  0
   55.1470   29.2930   44.4970 O   0  0  0  0  0  0  0  0  0  0  0  0
   56.5260   31.1250   44.8430 N   0  0  0  0  0  0  0  0  0  0  0  0
   57.7510   31.7660   44.3820 C   0  0  0  0  0  0  0  0  0  0  0  0
   58.3420   32.5740   45.5030 C   0  0  0  0  0  0  0  0  0  0  0  0
   58.2110   32.1370   46.8320 C   0  0  0  0  0  0  0  0  0  0  0  0
   58.7300   32.9020   47.8810 C   0  0  0  0  0  0  0  0  0  0  0  0
   58.5690   32.3450   49.5370 Cl  0  0  0  0  0  0  0  0  0  0  0  0
   59.3740   34.1140   47.6120 C   0  0  0  0  0  0  0  0  0  0  0  0
   59.4940   34.5630   46.2950 C   0  0  0  0  0  0  0  0  0  0  0  0
   58.9760   33.8030   45.2420 C   0  0  0  0  0  0  0  0  0  0  0  0
   59.0910   34.2650   43.9700 F   0  0  0  0  0  0  0  0  0  0  0  0
   57.4000   27.5340   44.5000 N   0  0  0  0  0  0  0  0  0  0  0  0
   58.3690   26.6200   44.7760 C   0  0  0  0  0  0  0  0  0  0  0  0
   59.3520   26.9010   45.7280 C   0  0  0  0  0  0  0  0  0  0  0  0
   60.3150   25.9840   45.9950 F   0  0  0  0  0  0  0  0  0  0  0  0
   60.6091   29.6149   48.9843 H   0  0  0  0  0  0  0  0  0  0  0  0
   61.6129   30.0133   47.5489 H   0  0  0  0  0  0  0  0  0  0  0  0
   59.8564   30.3893   47.5489 H   0  0  0  0  0  0  0  0  0  0  0  0
   58.3127   30.0376   46.5948 H   0  0  0  0  0  0  0  0  0  0  0  0
   58.4707   30.9972   44.0643 H   0  0  0  0  0  0  0  0  0  0  0  0
   57.5236   32.4265   43.5323 H   0  0  0  0  0  0  0  0  0  0  0  0
   57.6976   31.1885   47.0482 H   0  0  0  0  0  0  0  0  0  0  0  0
   59.7858   34.7133   48.4374 H   0  0  0  0  0  0  0  0  0  0  0  0
   59.9979   35.5181   46.0854 H   0  0  0  0  0  0  0  0  0  0  0  0
   56.7070   27.3090   43.7530 H   0  0  0  0  0  0  0  0  0  0  0  0
   58.3786   25.6555   44.2473 H   0  0  0  0  0  0  0  0  0  0  0  0
  1  2  1  0
  2  3  1  0
  3  4  2  0
  4  5  1  0
  5  6  1  0
  6  7  2  0
  6  8  1  0
  8  9  1  0
  9 10  1  0
 10 11  2  0
 11 12  1  0
 12 13  1  0
 12 14  2  0
 14 15  1  0
 15 16  2  0
 16 17  1  0
  5 18  2  0
 18 19  1  0
 19 20  2  0
 20 21  1  0
 20  3  1  0
 16 10  1  0
  1 22  1  0
  1 23  1  0
  1 24  1  0
  4 25  1  0
  9 26  1  0
  9 27  1  0
 11 28  1  0
 14 29  1  0
 15 30  1  0
 18 31  1  0
 19 32  1  0
M  CHG  2   8  -1  18   1
M  END
>  <UniqueID>  (21) 
19

>  <SMILES>  (21) 
COc1cc(C(=O)[N-]Cc2cc(Cl)ccc2F)[nH+]cc1F

>  <Energy>  (21) 
35.5411487621242

>  <Genealogy>  (21) 
COc1cc(C(=O)[N-]Cc2cc(Cl)ccc2F)[nH+]cc1F (protonated)
COc1cc(C(=O)[N-]Cc2cc(Cl)ccc2F)[nH+]cc1F (3D coordinates assigned)
COc1cc(C(=O)[N-]Cc2cc(Cl)ccc2F)[nH+]cc1F (optimized conformer: 35.5411487621242 kcal/mol)

>  <smiles>  (21) 
COc1cc(C(=O)NCc2cc(Cl)ccc2F)ncc1F

>  <score_type>  (21) 
oracle

>  <origin>  (21) 
adg

>  <m_score__min__energy>  (21) 
-6.7000000000000002

>  <m_primary>  (21) 
energy

$$$$
22:0
     RDKit          3D

 23 23  0  0  0  0  0  0  0  0999 V2000
   55.5390   29.7710   43.9600 C   0  0  0  0  0  0  0  0  0  0  0  0
   56.3310   29.4980   45.1610 N   0  0  0  0  0  0  0  0  0  0  0  0
   57.5370   30.3420   45.2190 C   0  0  0  0  0  0  0  0  0  0  0  0
   57.2650   31.7050   44.5760 C   0  0  0  0  0  0  0  0  0  0  0  0
   57.9430   32.8220   45.3270 C   0  0  0  0  0  0  0  0  0  0  0  0
   58.5850   33.8560   44.6260 C   0  0  0  0  0  0  0  0  0  0  0  0
   59.2470   34.8720   45.3210 C   0  0  0  0  0  0  0  0  0  0  0  0
   59.2790   34.8590   46.7190 C   0  0  0  0  0  0  0  0  0  0  0  0
   58.6510   33.8280   47.4230 C   0  0  0  0  0  0  0  0  0  0  0  0
   57.9870   32.8100   46.7310 C   0  0  0  0  0  0  0  0  0  0  0  0
   54.5365   30.1166   44.2526 H   0  0  0  0  0  0  0  0  0  0  0  0
   56.0355   30.5499   43.3626 H   0  0  0  0  0  0  0  0  0  0  0  0
   55.4501   28.8516   43.3626 H   0  0  0  0  0  0  0  0  0  0  0  0
   55.7270   29.7180   45.9890 H   0  0  0  0  0  0  0  0  0  0  0  0
   57.8270   30.4882   46.2699 H   0  0  0  0  0  0  0  0  0  0  0  0
   58.3488   29.8433   44.6692 H   0  0  0  0  0  0  0  0  0  0  0  0
   57.6396   31.6922   43.5418 H   0  0  0  0  0  0  0  0  0  0  0  0
   56.1801   31.8849   44.6006 H   0  0  0  0  0  0  0  0  0  0  0  0
   58.5667   33.8662   43.5262 H   0  0  0  0  0  0  0  0  0  0  0  0
   59.7434   35.6828   44.7677 H   0  0  0  0  0  0  0  0  0  0  0  0
   59.7986   35.6605   47.2646 H   0  0  0  0  0  0  0  0  0  0  0  0
   58.6790   33.8171   48.5226 H   0  0  0  0  0  0  0  0  0  0  0  0
   57.4977   31.9974   47.2879 H   0  0  0  0  0  0  0  0  0  0  0  0
  1  2  1  0
  2  3  1  0
  3  4  1  0
  4  5  1  0
  5  6  2  0
  6  7  1  0
  7  8  2  0
  8  9  1  0
  9 10  2  0
 10  5  1  0
  1 11  1  0
  1 12  1  0
  1 13  1  0
  2 14  1  0
  3 15  1  0
  3 16  1  0
  4 17  1  0
  4 18  1  0
  6 19  1  0
  7 20  1  0
  8 21  1  0
  9 22  1  0
 10 23  1  0
M  END
>  <UniqueID>  (22) 
20

>  <SMILES>  (22) 
CNCCc1ccccc1

>  <Energy>  (22) 
18.174836544699886

>  <Genealogy>  (22) 
CNCCc1ccccc1 (3D coordinates assigned)
CNCCc1ccccc1 (optimized conformer: 18.174836544699886 kcal/mol)

>  <smiles>  (22) 
CNCCc1ccccc1

>  <score_type>  (22) 
oracle

>  <origin>  (22) 
adg

>  <m_score__min__energy>  (22) 
-5.0800000000000001

>  <m_primary>  (22) 
energy

$$$$
23:0
     RDKit          3D

 57 59  0  0  0  0  0  0  0  0999 V2000
   56.1960   23.0560   46.4440 C   0  0  0  0  0  0  0  0  0  0  0  0
   56.5770   23.6630   47.7770 C   0  0  0  0  0  0  0  0  0  0  0  0
   57.2260   24.9120   47.5720 O   0  0  0  0  0  0  0  0  0  0  0  0
   56.8630   25.7870   46.5370 C   0  0  0  0  0  0  0  0  0  0  0  0
   55.6560   26.1430   46.4260 O   0  0  0  0  0  0  0  0  0  0  0  0
   57.9240   26.3260   45.5710 C   0  0  1  0  0  0  0  0  0  0  0  0
   59.2300   25.5080   45.7890 C   0  0  0  0  0  0  0  0  0  0  0  0
   57.4530   26.0820   44.1060 C   0  0  0  0  0  0  0  0  0  0  0  0
   58.1480   27.0190   43.1210 C   0  0  0  0  0  0  0  0  0  0  0  0
   57.7990   28.5120   43.3730 C   0  0  1  0  0  0  0  0  0  0  0  0
   56.7680   28.9170   42.4990 O   0  0  0  0  0  0  0  0  0  0  0  0
   57.4940   28.8920   44.8850 C   0  0  2  0  0  0  0  0  0  0  0  0
   55.9630   28.9440   45.1600 C   0  0  0  0  0  0  0  0  0  0  0  0
   58.0060   30.3170   45.1960 C   0  0  0  0  0  0  0  0  0  0  0  0
   57.7620   31.3740   44.2810 C   0  0  0  0  0  0  0  0  0  0  0  0
   58.1310   32.6770   44.5860 C   0  0  0  0  0  0  0  0  0  0  0  0
   58.7150   32.9970   45.8170 C   0  0  0  0  0  0  0  0  0  0  0  0
   59.0470   34.4400   46.1490 C   0  0  0  0  0  0  0  0  0  0  0  0
   60.2680   34.5130   47.0640 C   0  0  0  0  0  0  0  0  0  0  0  0
   59.2620   35.2920   44.8960 C   0  0  0  0  0  0  0  0  0  0  0  0
   58.8960   31.9820   46.7530 C   0  0  0  0  0  0  0  0  0  0  0  0
   58.5480   30.6480   46.4710 C   0  0  0  0  0  0  0  0  0  0  0  0
   58.7940   29.6280   47.5540 C   0  0  0  0  0  0  0  0  0  0  0  0
   58.1560   28.2650   47.3060 C   0  0  0  0  0  0  0  0  0  0  0  0
   58.2410   27.8620   45.8200 C   0  0  1  0  0  0  0  0  0  0  0  0
   55.6181   22.1353   46.6122 H   0  0  0  0  0  0  0  0  0  0  0  0
   55.5858   23.7733   45.8755 H   0  0  0  0  0  0  0  0  0  0  0  0
   57.1072   22.8183   45.8755 H   0  0  0  0  0  0  0  0  0  0  0  0
   55.6701   23.8178   48.3799 H   0  0  0  0  0  0  0  0  0  0  0  0
   57.2613   22.9812   48.3032 H   0  0  0  0  0  0  0  0  0  0  0  0
   59.4146   25.3924   46.8672 H   0  0  0  0  0  0  0  0  0  0  0  0
   59.1225   24.5156   45.3269 H   0  0  0  0  0  0  0  0  0  0  0  0
   60.0760   26.0379   45.3269 H   0  0  0  0  0  0  0  0  0  0  0  0
   57.6798   25.0421   43.8281 H   0  0  0  0  0  0  0  0  0  0  0  0
   56.3717   26.2784   44.0583 H   0  0  0  0  0  0  0  0  0  0  0  0
   59.2360   26.8897   43.2187 H   0  0  0  0  0  0  0  0  0  0  0  0
   57.7992   26.7601   42.1104 H   0  0  0  0  0  0  0  0  0  0  0  0
   58.7134   29.0813   43.1501 H   0  0  0  0  0  0  0  0  0  0  0  0
   56.2610   28.1070   42.2330 H   0  0  0  0  0  0  0  0  0  0  0  0
   55.7855   28.9500   46.2456 H   0  0  0  0  0  0  0  0  0  0  0  0
   55.5412   29.8570   44.7144 H   0  0  0  0  0  0  0  0  0  0  0  0
   55.4803   28.0617   44.7144 H   0  0  0  0  0  0  0  0  0  0  0  0
   57.2747   31.1582   43.3187 H   0  0  0  0  0  0  0  0  0  0  0  0
   57.9612   33.4731   43.8461 H   0  0  0  0  0  0  0  0  0  0  0  0
   58.1776   34.8577   46.6778 H   0  0  0  0  0  0  0  0  0  0  0  0
   59.9410   34.4934   48.1141 H   0  0  0  0  0  0  0  0  0  0  0  0
   60.9247   33.6525   46.8684 H   0  0  0  0  0  0  0  0  0  0  0  0
   60.8175   35.4456   46.8684 H   0  0  0  0  0  0  0  0  0  0  0  0
   59.5213   36.3194   45.1913 H   0  0  0  0  0  0  0  0  0  0  0  0
   60.0805   34.8647   44.2981 H   0  0  0  0  0  0  0  0  0  0  0  0
   58.3388   35.3042   44.2981 H   0  0  0  0  0  0  0  0  0  0  0  0
   59.3214   32.2290   47.7369 H   0  0  0  0  0  0  0  0  0  0  0  0
   59.8805   29.4850   47.6490 H   0  0  0  0  0  0  0  0  0  0  0  0
   58.3272   30.0268   48.4667 H   0  0  0  0  0  0  0  0  0  0  0  0
   58.6793   27.5102   47.9113 H   0  0  0  0  0  0  0  0  0  0  0  0
   57.0941   28.3253   47.5866 H   0  0  0  0  0  0  0  0  0  0  0  0
   59.2934   27.9395   45.5095 H   0  0  0  0  0  0  0  0  0  0  0  0
  1  2  1  0
  2  3  1  0
  3  4  1  0
  4  5  2  0
  4  6  1  0
  6  7  1  1
  6  8  1  0
  8  9  1  0
  9 10  1  0
 10 11  1  0
 10 12  1  0
 12 13  1  6
 12 14  1  0
 14 15  2  0
 15 16  1  0
 16 17  2  0
 17 18  1  0
 18 19  1  0
 18 20  1  0
 17 21  1  0
 21 22  2  0
 22 23  1  0
 23 24  1  0
 24 25  1  0
 25  6  1  0
 25 12  1  0
 22 14  1  0
  1 26  1  0
  1 27  1  0
  1 28  1  0
  2 29  1  0
  2 30  1  0
  7 31  1  0
  7 32  1  0
  7 33  1  0
  8 34  1  0
  8 35  1  0
  9 36  1  0
  9 37  1  0
 10 38  1  6
 11 39  1  0
 13 40  1  0
 13 41  1  0
 13 42  1  0
 15 43  1  0
 16 44  1  0
 18 45  1  0
 19 46  1  0
 19 47  1  0
 19 48  1  0
 20 49  1  0
 20 50  1  0
 20 51  1  0
 21 52  1  0
 23 53  1  0
 23 54  1  0
 24 55  1  0
 24 56  1  0
 25 57  1  6
M  END
>  <UniqueID>  (23) 
21

>  <SMILES>  (23) 
CCOC(=O)[C@@]1(C)CC[C@@H](O)C2(C)c3ccc(C(C)C)cc3CCC21

>  <Energy>  (23) 
75.26119371589651

>  <Genealogy>  (23) 
CCOC(=O)[C@@]1(C)CC[C@@H](O)C2(C)c3ccc(C(C)C)cc3CCC21 (chirality)
CCOC(=O)[C@@]1(C)CC[C@@H](O)C2(C)c3ccc(C(C)C)cc3CCC21 (3D coordinates assigned)
CCOC(=O)[C@@]1(C)CC[C@@H](O)C2(C)c3ccc(C(C)C)cc3CCC21 (nonaromatic ring conformer: 75.26119371589651 kcal/mol)

>  <smiles>  (23) 
CCOC(=O)C1(C)CCC(O)C2(C)c3ccc(C(C)C)cc3CCC12

>  <score_type>  (23) 
oracle

>  <origin>  (23) 
adg

>  <m_score__min__energy>  (23) 
-8.5899999999999999

>  <m_primary>  (23) 
energy

$$$$
24:0
     RDKit          3D

 28 30  0  0  0  0  0  0  0  0999 V2000
   53.7600   25.9030   46.3970 H   0  0  0  0  0  0  0  0  0  0  0  0
   54.5440   26.3320   45.9240 O   0  0  0  0  0  0  0  0  0  0  0  0
   55.8530   25.8770   46.0800 C   0  0  0  0  0  0  0  0  0  0  0  0
   56.0850   24.5580   46.5070 C   0  0  0  0  0  0  0  0  0  0  0  0
   55.2322   23.8959   46.7177 H   0  0  0  0  0  0  0  0  0  0  0  0
   57.4000   24.0750   46.6680 C   0  0  0  0  0  0  0  0  0  0  0  0
   57.6100   22.7680   47.0910 O   0  0  0  0  0  0  0  0  0  0  0  0
   58.4990   24.9080   46.4030 C   0  0  0  0  0  0  0  0  0  0  0  0
   59.5279   24.5389   46.5257 H   0  0  0  0  0  0  0  0  0  0  0  0
   58.2550   26.2130   45.9810 C   0  0  0  0  0  0  0  0  0  0  0  0
   56.9660   26.6880   45.8210 C   0  0  0  0  0  0  0  0  0  0  0  0
   57.0880   28.0730   45.3870 C   0  0  0  0  0  0  0  0  0  0  0  0
   56.1510   28.8990   45.2290 O   0  0  0  0  0  0  0  0  0  0  0  0
   58.5330   28.3350   45.2950 C   0  0  0  0  0  0  0  0  0  0  0  0
   59.1650   29.4620   44.9430 C   0  0  0  0  0  0  0  0  0  0  0  0
   60.2238   29.3871   44.6543 H   0  0  0  0  0  0  0  0  0  0  0  0
   58.5380   30.7970   44.9160 C   0  0  0  0  0  0  0  0  0  0  0  0
   58.2480   31.4420   43.7010 C   0  0  0  0  0  0  0  0  0  0  0  0
   58.4545   30.9332   42.7479 H   0  0  0  0  0  0  0  0  0  0  0  0
   57.6980   32.7280   43.6990 C   0  0  0  0  0  0  0  0  0  0  0  0
   57.4581   33.2219   42.7458 H   0  0  0  0  0  0  0  0  0  0  0  0
   57.4530   33.3860   44.9080 C   0  0  0  0  0  0  0  0  0  0  0  0
   56.9210   34.6340   44.9050 F   0  0  0  0  0  0  0  0  0  0  0  0
   57.7680   32.7630   46.1190 C   0  0  0  0  0  0  0  0  0  0  0  0
   57.5828   33.2848   47.0695 H   0  0  0  0  0  0  0  0  0  0  0  0
   58.3180   31.4780   46.1240 C   0  0  0  0  0  0  0  0  0  0  0  0
   58.5797   30.9981   47.0786 H   0  0  0  0  0  0  0  0  0  0  0  0
   59.2100   27.1780   45.6790 O   0  0  0  0  0  0  0  0  0  0  0  0
  1  2  1  0
  2  3  1  0
  3  4  2  0
  4  5  1  0
  4  6  1  0
  6  7  1  0
  6  8  2  0
  8  9  1  0
  8 10  1  0
 10 11  2  0
 11 12  1  0
 12 13  2  0
 12 14  1  0
 14 15  2  0
 15 16  1  0
 15 17  1  0
 17 18  2  0
 18 19  1  0
 18 20  1  0
 20 21  1  0
 20 22  2  0
 22 23  1  0
 22 24  1  0
 24 25  1  0
 24 26  2  0
 26 27  1  0
 14 28  1  0
 11  3  1  0
 26 17  1  0
 28 10  1  0
M  CHG  1   7  -1
M  END
>  <UniqueID>  (24) 
22

>  <SMILES>  (24) 
O=C1/C(=C\c2ccc(F)cc2)Oc2cc([O-])cc(O)c21

>  <Energy>  (24) 
69.73003310194696

>  <Genealogy>  (24) 
O=C1C(=Cc2ccc(F)cc2)Oc2cc([O-])cc(O)c21 (protonated)
O=C1/C(=C\c2ccc(F)cc2)Oc2cc([O-])cc(O)c21 (cis-trans isomerization)
O=C1/C(=C\c2ccc(F)cc2)Oc2cc([O-])cc(O)c21 (3D coordinates assigned)
O=C1/C(=C\c2ccc(F)cc2)Oc2cc([O-])cc(O)c21 (nonaromatic ring conformer: 69.73003310194696 kcal/mol)

>  <smiles>  (24) 
O=C1C(=Cc2ccc(F)cc2)Oc2cc(O)cc(O)c21

>  <score_type>  (24) 
oracle

>  <origin>  (24) 
adg

>  <m_score__min__energy>  (24) 
-10.119999999999999

>  <m_primary>  (24) 
energy

$$$$
25:0
     RDKit          3D

 33 35  0  0  0  0  0  0  0  0999 V2000
   56.1730   23.5840   47.7040 O   0  0  0  0  0  0  0  0  0  0  0  0
   57.0140   24.1900   46.9880 C   0  0  0  0  0  0  0  0  0  0  0  0
   58.2940   23.6040   46.7260 N   0  0  0  0  0  0  0  0  0  0  0  0
   58.8600   23.4630   45.3900 C   0  0  0  0  0  0  0  0  0  0  0  0
   57.8380   22.8910   44.4470 C   0  0  0  0  0  0  0  0  0  0  0  0
   57.8060   21.5150   44.1730 C   0  0  0  0  0  0  0  0  0  0  0  0
   56.8310   21.0090   43.3100 C   0  0  0  0  0  0  0  0  0  0  0  0
   55.9190   21.8430   42.7440 N   0  0  0  0  0  0  0  0  0  0  0  0
   55.9240   23.1790   42.9960 C   0  0  0  0  0  0  0  0  0  0  0  0
   56.8810   23.7270   43.8540 C   0  0  0  0  0  0  0  0  0  0  0  0
   56.6800   25.5020   46.4240 C   0  0  0  0  0  0  0  0  0  0  0  0
   57.5700   26.5130   46.1290 C   0  0  0  0  0  0  0  0  0  0  0  0
   56.7650   27.5200   45.6260 C   0  0  0  0  0  0  0  0  0  0  0  0
   57.1850   28.8540   45.1420 C   0  0  0  0  0  0  0  0  0  0  0  0
   58.2390   29.5270   45.7860 C   0  0  0  0  0  0  0  0  0  0  0  0
   58.6510   30.7880   45.3450 C   0  0  0  0  0  0  0  0  0  0  0  0
   58.0150   31.3910   44.2570 C   0  0  0  0  0  0  0  0  0  0  0  0
   58.4150   32.6140   43.8290 F   0  0  0  0  0  0  0  0  0  0  0  0
   56.9670   30.7330   43.6080 C   0  0  0  0  0  0  0  0  0  0  0  0
   56.5520   29.4710   44.0460 C   0  0  0  0  0  0  0  0  0  0  0  0
   55.5190   27.1010   45.6410 O   0  0  0  0  0  0  0  0  0  0  0  0
   55.4290   25.8920   46.1150 N   0  0  0  0  0  0  0  0  0  0  0  0
   59.1779   24.4507   45.0247 H   0  0  0  0  0  0  0  0  0  0  0  0
   59.7230   22.7825   45.4374 H   0  0  0  0  0  0  0  0  0  0  0  0
   58.5426   20.8405   44.6340 H   0  0  0  0  0  0  0  0  0  0  0  0
   56.8012   19.9321   43.0877 H   0  0  0  0  0  0  0  0  0  0  0  0
   55.1733   23.8296   42.5236 H   0  0  0  0  0  0  0  0  0  0  0  0
   56.8837   24.8070   44.0629 H   0  0  0  0  0  0  0  0  0  0  0  0
   58.6619   26.5179   46.2621 H   0  0  0  0  0  0  0  0  0  0  0  0
   58.7431   29.0573   46.6435 H   0  0  0  0  0  0  0  0  0  0  0  0
   59.4766   31.3059   45.8551 H   0  0  0  0  0  0  0  0  0  0  0  0
   56.4674   31.2083   42.7510 H   0  0  0  0  0  0  0  0  0  0  0  0
   55.7264   28.9577   43.5313 H   0  0  0  0  0  0  0  0  0  0  0  0
  1  2  2  0
  2  3  1  0
  3  4  1  0
  4  5  1  0
  5  6  2  0
  6  7  1  0
  7  8  2  0
  8  9  1  0
  9 10  2  0
  2 11  1  0
 11 12  1  0
 12 13  2  0
 13 14  1  0
 14 15  2  0
 15 16  1  0
 16 17  2  0
 17 18  1  0
 17 19  1  0
 19 20  2  0
 13 21  1  0
 21 22  1  0
 10  5  1  0
 22 11  2  0
 20 14  1  0
  4 23  1  0
  4 24  1  0
  6 25  1  0
  7 26  1  0
  9 27  1  0
 10 28  1  0
 12 29  1  0
 15 30  1  0
 16 31  1  0
 19 32  1  0
 20 33  1  0
M  CHG  1   3  -1
M  END
>  <UniqueID>  (25) 
23

>  <SMILES>  (25) 
O=C([N-]Cc1ccncc1)c1cc(-c2ccc(F)cc2)on1

>  <Energy>  (25) 
64.53026436636664

>  <Genealogy>  (25) 
O=C([N-]Cc1ccncc1)c1cc(-c2ccc(F)cc2)on1 (protonated)
O=C([N-]Cc1ccncc1)c1cc(-c2ccc(F)cc2)on1 (3D coordinates assigned)
O=C([N-]Cc1ccncc1)c1cc(-c2ccc(F)cc2)on1 (optimized conformer: 64.53026436636664 kcal/mol)

>  <smiles>  (25) 
O=C(NCc1ccncc1)c1cc(-c2ccc(F)cc2)on1

>  <score_type>  (25) 
oracle

>  <origin>  (25) 
adg

>  <m_score__min__energy>  (25) 
-9.3800000000000008

>  <m_primary>  (25) 
energy

$$$$
26:0
     RDKit          3D

 50 52  0  0  0  0  0  0  0  0999 V2000
   55.1590   23.9910   46.3480 C   0  0  0  0  0  0  0  0  0  0  0  0
   56.2550   24.9740   46.0590 C   0  0  0  0  0  0  0  0  0  0  0  0
   57.5550   24.5260   45.7810 C   0  0  0  0  0  0  0  0  0  0  0  0
   58.5610   25.4420   45.4650 C   0  0  0  0  0  0  0  0  0  0  0  0
   58.2770   26.8090   45.4190 C   0  0  0  0  0  0  0  0  0  0  0  0
   56.9800   27.2740   45.6990 C   0  0  0  0  0  0  0  0  0  0  0  0
   56.6500   28.6700   45.6220 N   0  0  0  0  0  0  0  0  0  0  0  0
   56.8870   29.4910   44.4640 C   0  0  0  0  0  0  0  0  0  0  0  0
   57.3610   28.9900   43.4100 O   0  0  0  0  0  0  0  0  0  0  0  0
   56.5600   30.8860   44.4750 N   0  0  0  0  0  0  0  0  0  0  0  0
   57.3380   31.9240   45.0840 C   0  0  0  0  0  0  0  0  0  0  0  0
   57.4850   33.1830   44.4810 C   0  0  0  0  0  0  0  0  0  0  0  0
   58.2260   34.1850   45.1130 C   0  0  0  0  0  0  0  0  0  0  0  0
   58.8340   33.9450   46.3570 C   0  0  0  0  0  0  0  0  0  0  0  0
   59.6430   35.0330   47.0340 C   0  0  0  0  0  0  0  0  0  0  0  0
   60.9950   34.6010   47.4580 N   0  0  0  0  0  0  0  0  0  0  0  0
   61.0670   34.0490   48.8330 C   0  0  0  0  0  0  0  0  0  0  0  0
   61.3160   32.5320   48.8340 C   0  0  0  0  0  0  0  0  0  0  0  0
   62.5550   32.1620   48.1020 N   0  0  0  0  0  0  0  0  0  0  0  0
   63.6750   31.9280   49.0270 C   0  0  0  0  0  0  0  0  0  0  0  0
   62.9440   33.1310   47.0510 C   0  0  0  0  0  0  0  0  0  0  0  0
   61.7140   33.8070   46.4380 C   0  0  0  0  0  0  0  0  0  0  0  0
   58.6390   32.7020   46.9810 C   0  0  0  0  0  0  0  0  0  0  0  0
   57.8940   31.7010   46.3490 C   0  0  0  0  0  0  0  0  0  0  0  0
   55.9700   26.3460   45.9950 C   0  0  0  0  0  0  0  0  0  0  0  0
   55.0399   23.8842   47.4363 H   0  0  0  0  0  0  0  0  0  0  0  0
   54.2171   24.3527   45.9098 H   0  0  0  0  0  0  0  0  0  0  0  0
   55.4165   23.0155   45.9098 H   0  0  0  0  0  0  0  0  0  0  0  0
   57.7827   23.4503   45.8120 H   0  0  0  0  0  0  0  0  0  0  0  0
   59.5797   25.0860   45.2518 H   0  0  0  0  0  0  0  0  0  0  0  0
   59.0718   27.5249   45.1625 H   0  0  0  0  0  0  0  0  0  0  0  0
   56.2800   29.1220   46.4880 H   0  0  0  0  0  0  0  0  0  0  0  0
   57.0148   33.3817   43.5066 H   0  0  0  0  0  0  0  0  0  0  0  0
   58.3342   35.1689   44.6332 H   0  0  0  0  0  0  0  0  0  0  0  0
   59.7523   35.8716   46.3306 H   0  0  0  0  0  0  0  0  0  0  0  0
   59.0975   35.3150   47.9466 H   0  0  0  0  0  0  0  0  0  0  0  0
   61.8887   34.5438   49.3714 H   0  0  0  0  0  0  0  0  0  0  0  0
   60.1001   34.2342   49.3238 H   0  0  0  0  0  0  0  0  0  0  0  0
   61.4050   32.1891   49.8754 H   0  0  0  0  0  0  0  0  0  0  0  0
   60.4681   32.0521   48.3233 H   0  0  0  0  0  0  0  0  0  0  0  0
   63.3159   32.0030   50.0640 H   0  0  0  0  0  0  0  0  0  0  0  0
   64.0895   30.9239   48.8543 H   0  0  0  0  0  0  0  0  0  0  0  0
   64.4569   32.6822   48.8543 H   0  0  0  0  0  0  0  0  0  0  0  0
   63.5925   33.9007   47.4949 H   0  0  0  0  0  0  0  0  0  0  0  0
   63.4753   32.5876   46.2557 H   0  0  0  0  0  0  0  0  0  0  0  0
   62.0353   34.4717   45.6226 H   0  0  0  0  0  0  0  0  0  0  0  0
   61.0379   33.0304   46.0511 H   0  0  0  0  0  0  0  0  0  0  0  0
   59.0750   32.5144   47.9733 H   0  0  0  0  0  0  0  0  0  0  0  0
   57.7442   30.7328   46.8491 H   0  0  0  0  0  0  0  0  0  0  0  0
   54.9442   26.6980   46.1787 H   0  0  0  0  0  0  0  0  0  0  0  0
  1  2  1  0
  2  3  2  0
  3  4  1  0
  4  5  2  0
  5  6  1  0
  6  7  1  0
  7  8  1  0
  8  9  2  0
  8 10  1  0
 10 11  1  0
 11 12  2  0
 12 13  1  0
 13 14  2  0
 14 15  1  0
 15 16  1  0
 16 17  1  0
 17 18  1  0
 18 19  1  0
 19 20  1  0
 19 21  1  0
 21 22  1  0
 14 23  1  0
 23 24  2  0
  6 25  2  0
 25  2  1  0
 24 11  1  0
 22 16  1  0
  1 26  1  0
  1 27  1  0
  1 28  1  0
  3 29  1  0
  4 30  1  0
  5 31  1  0
  7 32  1  0
 12 33  1  0
 13 34  1  0
 15 35  1  0
 15 36  1  0
 17 37  1  0
 17 38  1  0
 18 39  1  0
 18 40  1  0
 20 41  1  0
 20 42  1  0
 20 43  1  0
 21 44  1  0
 21 45  1  0
 22 46  1  0
 22 47  1  0
 23 48  1  0
 24 49  1  0
 25 50  1  0
M  CHG  1  10  -1
M  END
>  <UniqueID>  (26) 
24

>  <SMILES>  (26) 
Cc1cccc(NC(=O)[N-]c2ccc(CN3CCN(C)CC3)cc2)c1

>  <Energy>  (26) 
72.87965876201679

>  <Genealogy>  (26) 
Cc1cccc(NC(=O)[N-]c2ccc(CN3CCN(C)CC3)cc2)c1 (protonated)
Cc1cccc(NC(=O)[N-]c2ccc(CN3CCN(C)CC3)cc2)c1 (3D coordinates assigned)
Cc1cccc(NC(=O)[N-]c2ccc(CN3CCN(C)CC3)cc2)c1 (nonaromatic ring conformer: 72.87965876201679 kcal/mol)

>  <smiles>  (26) 
Cc1cccc(NC(=O)Nc2ccc(CN3CCN(C)CC3)cc2)c1

>  <score_type>  (26) 
oracle

>  <origin>  (26) 
adg

>  <m_score__min__energy>  (26) 
-10.06

>  <m_primary>  (26) 
energy

$$$$
27:0
     RDKit          3D

 25 27  0  0  0  0  0  0  0  0999 V2000
   56.7163   24.8820   47.3020 H   0  0  0  0  0  0  0  0  0  0  0  0
   56.6330   25.8450   46.7770 C   0  0  0  0  0  0  0  0  0  0  0  0
   55.5450   26.2680   46.0980 N   0  0  0  0  0  0  0  0  0  0  0  0
   55.8100   27.4680   45.6090 N   0  0  0  0  0  0  0  0  0  0  0  0
   55.1450   28.0110   45.0150 H   0  0  0  0  0  0  0  0  0  0  0  0
   57.0590   27.8150   45.9740 C   0  0  0  0  0  0  0  0  0  0  0  0
   57.6660   28.9180   45.6430 N   0  0  0  0  0  0  0  0  0  0  0  0
   57.0380   30.0880   45.1020 C   0  0  0  0  0  0  0  0  0  0  0  0
   55.9550   29.9540   44.4720 O   0  0  0  0  0  0  0  0  0  0  0  0
   57.6630   31.4300   45.1980 C   0  0  0  0  0  0  0  0  0  0  0  0
   57.8530   32.2120   44.0260 C   0  0  0  0  0  0  0  0  0  0  0  0
   57.5300   31.8192   43.0506 H   0  0  0  0  0  0  0  0  0  0  0  0
   58.4500   33.4830   44.1020 C   0  0  0  0  0  0  0  0  0  0  0  0
   58.5951   34.0963   43.2005 H   0  0  0  0  0  0  0  0  0  0  0  0
   58.8510   33.9400   45.3520 C   0  0  0  0  0  0  0  0  0  0  0  0
   58.6830   33.1990   46.4750 C   0  0  0  0  0  0  0  0  0  0  0  0
   58.0990   31.9360   46.4460 C   0  0  0  0  0  0  0  0  0  0  0  0
   57.9796   31.3473   47.3675 H   0  0  0  0  0  0  0  0  0  0  0  0
   59.1740   33.8940   47.5630 O   0  0  0  0  0  0  0  0  0  0  0  0
   59.6800   35.1520   47.0940 C   0  0  0  0  0  0  0  0  0  0  0  0
   59.1390   35.9859   47.5650 H   0  0  0  0  0  0  0  0  0  0  0  0
   60.7436   35.2867   47.3403 H   0  0  0  0  0  0  0  0  0  0  0  0
   59.4530   35.1400   45.6780 O   0  0  0  0  0  0  0  0  0  0  0  0
   57.6260   26.8040   46.7130 C   0  0  0  0  0  0  0  0  0  0  0  0
   58.6344   26.7670   47.1510 H   0  0  0  0  0  0  0  0  0  0  0  0
  1  2  1  0
  2  3  1  0
  3  4  1  0
  4  5  1  0
  4  6  1  0
  6  7  2  0
  7  8  1  0
  8  9  2  0
  8 10  1  0
 10 11  2  0
 11 12  1  0
 11 13  1  0
 13 14  1  0
 13 15  2  0
 15 16  1  0
 16 17  2  0
 17 18  1  0
 16 19  1  0
 19 20  1  0
 20 21  1  0
 20 22  1  0
 20 23  1  0
  6 24  1  0
 24 25  1  0
 24  2  2  0
 17 10  1  0
 23 15  1  0
M  CHG  1   3  -1
M  END
>  <UniqueID>  (27) 
25

>  <SMILES>  (27) 
O=C(/N=c1/cc[n-][nH]1)c1ccc2c(c1)OCO2

>  <Energy>  (27) 
93.73497461220845

>  <Genealogy>  (27) 
O=C(N=c1cc[n-][nH]1)c1ccc2c(c1)OCO2 (protonated)
O=C(/N=c1/cc[n-][nH]1)c1ccc2c(c1)OCO2 (cis-trans isomerization)
O=C(/N=c1/cc[n-][nH]1)c1ccc2c(c1)OCO2 (3D coordinates assigned)
O=C(/N=c1/cc[n-][nH]1)c1ccc2c(c1)OCO2 (nonaromatic ring conformer: 93.73497461220845 kcal/mol)

>  <smiles>  (27) 
O=C(N=c1cc[nH][nH]1)c1ccc2c(c1)OCO2

>  <score_type>  (27) 
oracle

>  <origin>  (27) 
adg

>  <m_score__min__energy>  (27) 
-8.7599999999999998

>  <m_primary>  (27) 
energy

$$$$
28:0
     RDKit          3D

 47 49  0  0  0  0  0  0  0  0999 V2000
   62.3930   33.7910   46.7870 C   0  0  0  0  0  0  0  0  0  0  0  0
   61.0890   33.9120   47.5710 C   0  0  0  0  0  0  0  0  0  0  0  0
   59.9300   33.6550   46.6910 N   0  0  0  0  0  0  0  0  0  0  0  0
   58.6710   33.5870   47.4550 C   0  0  0  0  0  0  0  0  0  0  0  0
   57.5240   33.0970   46.5490 C   0  0  0  0  0  0  0  0  0  0  0  0
   57.7440   33.3930   45.1120 N   0  0  0  0  0  0  0  0  0  0  0  0
   58.3710   32.2640   44.3860 C   0  0  0  0  0  0  0  0  0  0  0  0
   57.5740   30.9990   44.5660 C   0  0  0  0  0  0  0  0  0  0  0  0
   56.2470   30.8940   44.1550 C   0  0  0  0  0  0  0  0  0  0  0  0
   55.7020   29.3460   44.5080 S   0  0  0  0  0  0  0  0  0  0  0  0
   57.1290   28.7900   45.1970 C   0  0  0  0  0  0  0  0  0  0  0  0
   57.3210   27.4070   45.7360 C   0  0  0  0  0  0  0  0  0  0  0  0
   58.0790   29.8140   45.1420 C   0  0  0  0  0  0  0  0  0  0  0  0
   59.4640   29.6710   45.6440 C   0  0  0  0  0  0  0  0  0  0  0  0
   60.3380   29.1840   44.8770 O   0  0  0  0  0  0  0  0  0  0  0  0
   59.8430   30.0810   47.0170 C   0  0  0  0  0  0  0  0  0  0  0  0
   58.8990   30.0760   48.0610 C   0  0  0  0  0  0  0  0  0  0  0  0
   59.2700   30.4600   49.3540 C   0  0  0  0  0  0  0  0  0  0  0  0
   60.5860   30.8440   49.6200 C   0  0  0  0  0  0  0  0  0  0  0  0
   61.5350   30.8410   48.5950 C   0  0  0  0  0  0  0  0  0  0  0  0
   61.1690   30.4600   47.3010 C   0  0  0  0  0  0  0  0  0  0  0  0
   58.4610   34.6720   44.9260 C   0  0  0  0  0  0  0  0  0  0  0  0
   59.8320   34.6920   45.6410 C   0  0  0  0  0  0  0  0  0  0  0  0
   63.2367   33.7127   47.4885 H   0  0  0  0  0  0  0  0  0  0  0  0
   62.3581   32.8922   46.1537 H   0  0  0  0  0  0  0  0  0  0  0  0
   62.5240   34.6808   46.1537 H   0  0  0  0  0  0  0  0  0  0  0  0
   61.0904   33.1789   48.3911 H   0  0  0  0  0  0  0  0  0  0  0  0
   61.0099   34.9323   47.9744 H   0  0  0  0  0  0  0  0  0  0  0  0
   58.7936   32.8885   48.2958 H   0  0  0  0  0  0  0  0  0  0  0  0
   58.4260   34.5905   47.8330 H   0  0  0  0  0  0  0  0  0  0  0  0
   57.4243   32.0082   46.6699 H   0  0  0  0  0  0  0  0  0  0  0  0
   56.6141   33.6332   46.8565 H   0  0  0  0  0  0  0  0  0  0  0  0
   58.4212   32.5084   43.3147 H   0  0  0  0  0  0  0  0  0  0  0  0
   59.3808   32.1034   44.7917 H   0  0  0  0  0  0  0  0  0  0  0  0
   55.6562   31.6908   43.6795 H   0  0  0  0  0  0  0  0  0  0  0  0
   57.3167   27.4381   46.8356 H   0  0  0  0  0  0  0  0  0  0  0  0
   56.5041   26.7597   45.3843 H   0  0  0  0  0  0  0  0  0  0  0  0
   58.2833   27.0067   45.3843 H   0  0  0  0  0  0  0  0  0  0  0  0
   57.8625   29.7681   47.8588 H   0  0  0  0  0  0  0  0  0  0  0  0
   58.5240   30.4595   50.1624 H   0  0  0  0  0  0  0  0  0  0  0  0
   60.8753   31.1488   50.6366 H   0  0  0  0  0  0  0  0  0  0  0  0
   62.5725   31.1391   48.8067 H   0  0  0  0  0  0  0  0  0  0  0  0
   61.9219   30.4562   46.4991 H   0  0  0  0  0  0  0  0  0  0  0  0
   58.6221   34.8328   43.8498 H   0  0  0  0  0  0  0  0  0  0  0  0
   57.8430   35.4685   45.3660 H   0  0  0  0  0  0  0  0  0  0  0  0
   60.6225   34.5177   44.8962 H   0  0  0  0  0  0  0  0  0  0  0  0
   59.9464   35.6735   46.1242 H   0  0  0  0  0  0  0  0  0  0  0  0
  1  2  1  0
  2  3  1  0
  3  4  1  0
  4  5  1  0
  5  6  1  0
  6  7  1  0
  7  8  1  0
  8  9  2  0
  9 10  1  0
 10 11  1  0
 11 12  1  0
 11 13  2  0
 13 14  1  0
 14 15  2  0
 14 16  1  0
 16 17  2  0
 17 18  1  0
 18 19  2  0
 19 20  1  0
 20 21  2  0
  6 22  1  0
 22 23  1  0
 23  3  1  0
 13  8  1  0
 21 16  1  0
  1 24  1  0
  1 25  1  0
  1 26  1  0
  2 27  1  0
  2 28  1  0
  4 29  1  0
  4 30  1  0
  5 31  1  0
  5 32  1  0
  7 33  1  0
  7 34  1  0
  9 35  1  0
 12 36  1  0
 12 37  1  0
 12 38  1  0
 17 39  1  0
 18 40  1  0
 19 41  1  0
 20 42  1  0
 21 43  1  0
 22 44  1  0
 22 45  1  0
 23 46  1  0
 23 47  1  0
M  END
>  <UniqueID>  (28) 
26

>  <SMILES>  (28) 
CCN1CCN(Cc2csc(C)c2C(=O)c2ccccc2)CC1

>  <Energy>  (28) 
88.92174352218922

>  <Genealogy>  (28) 
CCN1CCN(Cc2csc(C)c2C(=O)c2ccccc2)CC1 (3D coordinates assigned)
CCN1CCN(Cc2csc(C)c2C(=O)c2ccccc2)CC1 (nonaromatic ring conformer: 88.92174352218922 kcal/mol)

>  <smiles>  (28) 
CCN1CCN(Cc2csc(C)c2C(=O)c2ccccc2)CC1

>  <score_type>  (28) 
oracle

>  <origin>  (28) 
adg

>  <m_score__min__energy>  (28) 
-7.6399999999999997

>  <m_primary>  (28) 
energy

$$$$
29:0
     RDKit          3D

 38 41  0  0  0  0  0  0  0  0999 V2000
   54.2310   25.9740   45.9520 O   0  0  0  0  0  0  0  0  0  0  0  0
   55.4880   25.9790   45.9890 C   0  0  0  0  0  0  0  0  0  0  0  0
   56.1800   27.1870   45.6390 N   0  0  0  0  0  0  0  0  0  0  0  0
   57.4150   27.2900   44.8630 C   0  0  0  0  0  0  0  0  0  0  0  0
   57.9130   28.7460   44.7890 C   0  0  1  0  0  0  0  0  0  0  0  0
   56.5350   29.9320   44.5000 S   0  0  0  0  0  0  0  0  0  0  0  0
   57.4140   31.4310   44.9410 C   0  0  0  0  0  0  0  0  0  0  0  0
   57.6260   31.8190   46.2210 N   0  0  0  0  0  0  0  0  0  0  0  0
   58.2920   33.0010   46.2610 C   0  0  0  0  0  0  0  0  0  0  0  0
   58.6700   33.6550   47.4350 C   0  0  0  0  0  0  0  0  0  0  0  0
   59.3580   34.8770   47.3360 C   0  0  0  0  0  0  0  0  0  0  0  0
   59.6570   35.4270   46.0740 C   0  0  0  0  0  0  0  0  0  0  0  0
   59.2720   34.7610   44.9000 C   0  0  0  0  0  0  0  0  0  0  0  0
   58.5930   33.5520   45.0250 C   0  0  0  0  0  0  0  0  0  0  0  0
   58.0120   32.5450   43.8150 S   0  0  0  0  0  0  0  0  0  0  0  0
   58.7370   29.1430   45.9880 C   0  0  0  0  0  0  0  0  0  0  0  0
   58.4230   28.8360   47.3060 C   0  0  0  0  0  0  0  0  0  0  0  0
   59.3840   29.2750   48.2250 C   0  0  0  0  0  0  0  0  0  0  0  0
   60.4630   29.9220   47.6390 C   0  0  0  0  0  0  0  0  0  0  0  0
   60.2210   29.9480   45.9770 S   0  0  0  0  0  0  0  0  0  0  0  0
   56.1840   24.7370   46.3630 C   0  0  0  0  0  0  0  0  0  0  0  0
   57.1500   24.0700   45.6320 C   0  0  0  0  0  0  0  0  0  0  0  0
   57.5160   22.9870   46.4020 C   0  0  0  0  0  0  0  0  0  0  0  0
   56.7630   23.0630   47.5540 C   0  0  0  0  0  0  0  0  0  0  0  0
   55.9840   24.1190   47.5040 O   0  0  0  0  0  0  0  0  0  0  0  0
   58.1895   26.6707   45.3391 H   0  0  0  0  0  0  0  0  0  0  0  0
   57.2108   26.9417   43.8398 H   0  0  0  0  0  0  0  0  0  0  0  0
   58.5811   28.7938   43.9165 H   0  0  0  0  0  0  0  0  0  0  0  0
   58.4341   33.2225   48.4185 H   0  0  0  0  0  0  0  0  0  0  0  0
   59.6648   35.4070   48.2497 H   0  0  0  0  0  0  0  0  0  0  0  0
   60.1954   36.3840   46.0083 H   0  0  0  0  0  0  0  0  0  0  0  0
   59.5002   35.1821   43.9097 H   0  0  0  0  0  0  0  0  0  0  0  0
   57.5082   28.3001   47.5992 H   0  0  0  0  0  0  0  0  0  0  0  0
   59.2923   29.1214   49.3103 H   0  0  0  0  0  0  0  0  0  0  0  0
   61.3278   30.3449   48.1713 H   0  0  0  0  0  0  0  0  0  0  0  0
   57.5440   24.3461   44.6428 H   0  0  0  0  0  0  0  0  0  0  0  0
   58.2594   22.2170   46.1482 H   0  0  0  0  0  0  0  0  0  0  0  0
   56.8078   22.3477   48.3885 H   0  0  0  0  0  0  0  0  0  0  0  0
  1  2  2  0
  2  3  1  0
  3  4  1  0
  4  5  1  0
  5  6  1  0
  6  7  1  0
  7  8  2  0
  8  9  1  0
  9 10  2  0
 10 11  1  0
 11 12  2  0
 12 13  1  0
 13 14  2  0
 14 15  1  0
  5 16  1  0
 16 17  2  0
 17 18  1  0
 18 19  2  0
 19 20  1  0
  2 21  1  0
 21 22  2  0
 22 23  1  0
 23 24  2  0
 24 25  1  0
 15  7  1  0
 20 16  1  0
 25 21  1  0
 14  9  1  0
  4 26  1  0
  4 27  1  0
  5 28  1  6
 10 29  1  0
 11 30  1  0
 12 31  1  0
 13 32  1  0
 17 33  1  0
 18 34  1  0
 19 35  1  0
 22 36  1  0
 23 37  1  0
 24 38  1  0
M  CHG  1   3  -1
M  END
>  <UniqueID>  (29) 
27

>  <SMILES>  (29) 
O=C([N-]C[C@@H](Sc1nc2ccccc2s1)c1cccs1)c1ccco1

>  <Energy>  (29) 
126.95547898373981

>  <Genealogy>  (29) 
O=C([N-]CC(Sc1nc2ccccc2s1)c1cccs1)c1ccco1 (protonated)
O=C([N-]C[C@@H](Sc1nc2ccccc2s1)c1cccs1)c1ccco1 (chirality)
O=C([N-]C[C@@H](Sc1nc2ccccc2s1)c1cccs1)c1ccco1 (3D coordinates assigned)
O=C([N-]C[C@@H](Sc1nc2ccccc2s1)c1cccs1)c1ccco1 (optimized conformer: 126.95547898373981 kcal/mol)

>  <smiles>  (29) 
O=C(NCC(Sc1nc2ccccc2s1)c1cccs1)c1ccco1

>  <score_type>  (29) 
oracle

>  <origin>  (29) 
adg

>  <m_score__min__energy>  (29) 
-10.33

>  <m_primary>  (29) 
energy

$$$$
30:0
     RDKit          3D

 31 32  0  0  0  0  0  0  0  0999 V2000
   61.1876   31.0639   47.2053 H   0  0  0  0  0  0  0  0  0  0  0  0
   60.3770   31.6860   46.7980 C   0  0  0  0  0  0  0  0  0  0  0  0
   55.8820   26.9910   45.6200 N   0  0  0  0  0  0  0  0  0  0  0  0
   56.4180   28.2190   45.3930 C   0  0  0  0  0  0  0  0  0  0  0  0
   55.6600   29.1410   44.8710 N   0  0  0  0  0  0  0  0  0  0  0  0
   55.8930   29.8930   43.6380 C   0  0  0  0  0  0  0  0  0  0  0  0
   56.1944   29.1948   42.8432 H   0  0  0  0  0  0  0  0  0  0  0  0
   54.9625   30.4123   43.3650 H   0  0  0  0  0  0  0  0  0  0  0  0
   56.9970   30.9410   43.8290 C   0  0  0  0  0  0  0  0  0  0  0  0
   57.9368   30.5543   43.4079 H   0  0  0  0  0  0  0  0  0  0  0  0
   56.6955   31.8653   43.3144 H   0  0  0  0  0  0  0  0  0  0  0  0
   57.1960   31.2410   45.2480 N   0  0  0  0  0  0  0  0  0  0  0  0
   58.2430   31.8290   45.7490 C   0  0  0  0  0  0  0  0  0  0  0  0
   59.2720   31.0990   46.2670 N   0  0  0  0  0  0  0  0  0  0  0  0
   56.6140   25.9830   46.1610 C   0  0  0  0  0  0  0  0  0  0  0  0
   55.9830   24.6470   46.4010 C   0  0  0  0  0  0  0  0  0  0  0  0
   55.8995   24.4701   47.4835 H   0  0  0  0  0  0  0  0  0  0  0  0
   54.9808   24.6281   45.9480 H   0  0  0  0  0  0  0  0  0  0  0  0
   56.6051   23.8610   45.9480 H   0  0  0  0  0  0  0  0  0  0  0  0
   57.9500   26.2040   46.4970 C   0  0  0  0  0  0  0  0  0  0  0  0
   58.5583   25.4023   46.9411 H   0  0  0  0  0  0  0  0  0  0  0  0
   58.4970   27.4650   46.2570 C   0  0  0  0  0  0  0  0  0  0  0  0
   59.7020   27.6910   46.5480 O   0  0  0  0  0  0  0  0  0  0  0  0
   57.7310   28.4500   45.7100 N   0  0  0  0  0  0  0  0  0  0  0  0
   58.1800   29.3760   45.5380 H   0  0  0  0  0  0  0  0  0  0  0  0
   58.3160   33.2330   45.7630 C   0  0  0  0  0  0  0  0  0  0  0  0
   57.0190   34.2250   45.1090 Cl  0  0  0  0  0  0  0  0  0  0  0  0
   59.4470   33.8520   46.3060 C   0  0  0  0  0  0  0  0  0  0  0  0
   59.5192   34.9495   46.3224 H   0  0  0  0  0  0  0  0  0  0  0  0
   60.4840   33.0760   46.8270 C   0  0  0  0  0  0  0  0  0  0  0  0
   61.3760   33.5560   47.2558 H   0  0  0  0  0  0  0  0  0  0  0  0
  1  2  1  0
  2  3  1  0
  3  4  1  0
  4  5  2  0
  5  6  1  0
  6  7  1  0
  6  8  1  0
  6  9  1  0
  9 10  1  0
  9 11  1  0
  9 12  1  0
 12 13  2  0
 13 14  1  0
 14 15  1  0
 15 16  1  0
 16 17  1  0
 16 18  1  0
 16 19  1  0
 15 20  2  0
 20 21  1  0
 20 22  1  0
 22 23  2  0
 22 24  1  0
 24 25  1  0
  4 26  1  0
 26 27  1  0
 26 28  2  0
 28 29  1  0
 28 30  1  0
 30 31  1  0
 30  2  2  0
 24 13  1  0
M  CHG  2   3  -1  14  -1
M  END
>  <UniqueID>  (30) 
28

>  <SMILES>  (30) 
Cc1cc(=O)[nH]/c(=N\CC/N=c2\[n-]cccc2Cl)[n-]1

>  <Energy>  (30) 
32.3571522424753

>  <Genealogy>  (30) 
Cc1cc(=O)[nH]c(=NCCN=c2[n-]cccc2Cl)[n-]1 (protonated)
Cc1cc(=O)[nH]/c(=N\CC/N=c2\[n-]cccc2Cl)[n-]1 (cis-trans isomerization)
Cc1cc(=O)[nH]/c(=N\CC/N=c2\[n-]cccc2Cl)[n-]1 (3D coordinates assigned)
Cc1cc(=O)[nH]/c(=N\CC/N=c2\[n-]cccc2Cl)[n-]1 (optimized conformer: 32.3571522424753 kcal/mol)

>  <smiles>  (30) 
Cc1cc(=O)[nH]c(=NCCN=c2[nH]cccc2Cl)[nH]1

>  <score_type>  (30) 
oracle

>  <origin>  (30) 
adg

>  <m_score__min__energy>  (30) 
-10.199999999999999

>  <m_primary>  (30) 
energy

$$$$
31:0
     RDKit          3D

 37 39  0  0  0  0  0  0  0  0999 V2000
   63.8780   33.5180   49.2270 C   0  0  0  0  0  0  0  0  0  0  0  0
   63.7980   32.9940   47.9370 C   0  0  0  0  0  0  0  0  0  0  0  0
   62.5610   32.9050   47.2960 C   0  0  0  0  0  0  0  0  0  0  0  0
   61.4010   33.3450   47.9610 C   0  0  0  0  0  0  0  0  0  0  0  0
   60.1010   33.2620   47.3350 N   0  0  0  0  0  0  0  0  0  0  0  0
   59.2720   34.4750   47.2220 C   0  0  0  0  0  0  0  0  0  0  0  0
   59.2170   35.0060   45.7720 C   0  0  0  0  0  0  0  0  0  0  0  0
   58.2290   34.2640   44.8520 C   0  0  0  0  0  0  0  0  0  0  0  0
   58.4850   32.8040   44.7590 N   0  0  0  0  0  0  0  0  0  0  0  0
   57.6990   32.1980   43.6610 C   0  0  0  0  0  0  0  0  0  0  0  0
   57.1400   30.8730   44.0800 C   0  0  0  0  0  0  0  0  0  0  0  0
   57.8710   29.7390   44.1010 N   0  0  0  0  0  0  0  0  0  0  0  0
   57.0120   28.8130   44.5580 C   0  0  0  0  0  0  0  0  0  0  0  0
   55.7960   29.4040   44.8040 C   0  0  0  0  0  0  0  0  0  0  0  0
   55.8710   30.7130   44.5070 N   0  0  0  0  0  0  0  0  0  0  0  0
   58.3040   32.0580   46.0300 C   0  0  0  0  0  0  0  0  0  0  0  0
   59.5810   31.9530   46.8920 C   0  0  0  0  0  0  0  0  0  0  0  0
   61.5150   33.8550   49.2210 N   0  0  0  0  0  0  0  0  0  0  0  0
   62.7120   33.9500   49.8600 C   0  0  0  0  0  0  0  0  0  0  0  0
   64.8488   33.5899   49.7393 H   0  0  0  0  0  0  0  0  0  0  0  0
   64.7091   32.6510   47.4249 H   0  0  0  0  0  0  0  0  0  0  0  0
   62.4933   32.4938   46.2780 H   0  0  0  0  0  0  0  0  0  0  0  0
   58.2498   34.2385   47.5525 H   0  0  0  0  0  0  0  0  0  0  0  0
   59.7238   35.2550   47.8524 H   0  0  0  0  0  0  0  0  0  0  0  0
   58.9238   36.0657   45.8060 H   0  0  0  0  0  0  0  0  0  0  0  0
   60.2182   34.8476   45.3449 H   0  0  0  0  0  0  0  0  0  0  0  0
   57.2113   34.4145   45.2413 H   0  0  0  0  0  0  0  0  0  0  0  0
   58.3559   34.6788   43.8411 H   0  0  0  0  0  0  0  0  0  0  0  0
   56.8710   32.8716   43.3950 H   0  0  0  0  0  0  0  0  0  0  0  0
   58.3597   32.0456   42.7949 H   0  0  0  0  0  0  0  0  0  0  0  0
   57.2452   27.7490   44.7112 H   0  0  0  0  0  0  0  0  0  0  0  0
   54.9022   28.8875   45.1840 H   0  0  0  0  0  0  0  0  0  0  0  0
   57.5298   32.5682   46.6218 H   0  0  0  0  0  0  0  0  0  0  0  0
   58.0238   31.0304   45.7552 H   0  0  0  0  0  0  0  0  0  0  0  0
   59.3513   31.3499   47.7828 H   0  0  0  0  0  0  0  0  0  0  0  0
   60.3579   31.4912   46.2650 H   0  0  0  0  0  0  0  0  0  0  0  0
   62.7608   34.3677   50.8764 H   0  0  0  0  0  0  0  0  0  0  0  0
  1  2  2  0
  2  3  1  0
  3  4  2  0
  4  5  1  0
  5  6  1  0
  6  7  1  0
  7  8  1  0
  8  9  1  0
  9 10  1  0
 10 11  1  0
 11 12  2  0
 12 13  1  0
 13 14  2  0
 14 15  1  0
  9 16  1  0
 16 17  1  0
  4 18  1  0
 18 19  2  0
 19  1  1  0
 17  5  1  0
 15 11  1  0
  1 20  1  0
  2 21  1  0
  3 22  1  0
  6 23  1  0
  6 24  1  0
  7 25  1  0
  7 26  1  0
  8 27  1  0
  8 28  1  0
 10 29  1  0
 10 30  1  0
 13 31  1  0
 14 32  1  0
 16 33  1  0
 16 34  1  0
 17 35  1  0
 17 36  1  0
 19 37  1  0
M  CHG  1  15  -1
M  END
>  <UniqueID>  (31) 
29

>  <SMILES>  (31) 
c1ccc(N2CCCN(Cc3ncc[n-]3)CC2)nc1

>  <Energy>  (31) 
80.42527260389782

>  <Genealogy>  (31) 
c1ccc(N2CCCN(Cc3ncc[n-]3)CC2)nc1 (protonated)
c1ccc(N2CCCN(Cc3ncc[n-]3)CC2)nc1 (3D coordinates assigned)
c1ccc(N2CCCN(Cc3ncc[n-]3)CC2)nc1 (nonaromatic ring conformer: 80.42527260389782 kcal/mol)

>  <smiles>  (31) 
c1ccc(N2CCCN(Cc3ncc[nH]3)CC2)nc1

>  <score_type>  (31) 
oracle

>  <origin>  (31) 
adg

>  <m_score__min__energy>  (31) 
-6.1699999999999999

>  <m_primary>  (31) 
energy

$$$$
32:0
     RDKit          3D

 36 39  0  0  0  0  0  0  0  0999 V2000
   57.0970   31.2070   45.2220 O   0  0  0  0  0  0  0  0  0  0  0  0
   58.2830   31.3780   45.6100 C   0  0  0  0  0  0  0  0  0  0  0  0
   59.2070   30.2750   45.6230 N   0  0  0  0  0  0  0  0  0  0  0  0
   58.8280   28.9090   45.3830 C   0  0  0  0  0  0  0  0  0  0  0  0
   58.8450   27.9510   46.4100 C   0  0  0  0  0  0  0  0  0  0  0  0
   58.4970   26.6220   46.1440 C   0  0  0  0  0  0  0  0  0  0  0  0
   58.1390   26.2210   44.8450 C   0  0  0  0  0  0  0  0  0  0  0  0
   57.7710   24.8080   44.5820 C   0  0  0  0  0  0  0  0  0  0  0  0
   57.1610   24.3090   43.4230 C   0  0  0  0  0  0  0  0  0  0  0  0
   57.0200   22.9980   43.6270 N   0  0  0  0  0  0  0  0  0  0  0  0
   56.5310   21.9320   42.9600 C   0  0  0  0  0  0  0  0  0  0  0  0
   56.6580   20.7540   43.7100 C   0  0  0  0  0  0  0  0  0  0  0  0
   57.3990   21.1110   45.2170 S   0  0  0  0  0  0  0  0  0  0  0  0
   57.5090   22.7340   44.8190 C   0  0  0  0  0  0  0  0  0  0  0  0
   57.9940   23.7990   45.4770 N   0  0  0  0  0  0  0  0  0  0  0  0
   58.1470   27.1790   43.8150 C   0  0  0  0  0  0  0  0  0  0  0  0
   58.4960   28.5070   44.0820 C   0  0  0  0  0  0  0  0  0  0  0  0
   58.7280   32.7340   46.0070 C   0  0  0  0  0  0  0  0  0  0  0  0
   58.8690   33.7330   45.0270 C   0  0  0  0  0  0  0  0  0  0  0  0
   59.2690   35.0240   45.3790 C   0  0  0  0  0  0  0  0  0  0  0  0
   59.5320   35.3350   46.7130 C   0  0  0  0  0  0  0  0  0  0  0  0
   59.3960   34.3560   47.6990 C   0  0  0  0  0  0  0  0  0  0  0  0
   58.9940   33.0580   47.3580 C   0  0  0  0  0  0  0  0  0  0  0  0
   58.8940   31.8590   48.6450 Cl  0  0  0  0  0  0  0  0  0  0  0  0
   60.2220   30.4730   45.7640 H   0  0  0  0  0  0  0  0  0  0  0  0
   59.1336   28.2472   47.4293 H   0  0  0  0  0  0  0  0  0  0  0  0
   58.5036   25.8837   46.9594 H   0  0  0  0  0  0  0  0  0  0  0  0
   56.8611   24.8791   42.5314 H   0  0  0  0  0  0  0  0  0  0  0  0
   56.0883   21.9808   41.9542 H   0  0  0  0  0  0  0  0  0  0  0  0
   56.3330   19.7552   43.3832 H   0  0  0  0  0  0  0  0  0  0  0  0
   57.8766   26.8814   42.7911 H   0  0  0  0  0  0  0  0  0  0  0  0
   58.5100   29.2421   43.2639 H   0  0  0  0  0  0  0  0  0  0  0  0
   58.6622   33.4952   43.9731 H   0  0  0  0  0  0  0  0  0  0  0  0
   59.3768   35.7964   44.6033 H   0  0  0  0  0  0  0  0  0  0  0  0
   59.8468   36.3524   46.9884 H   0  0  0  0  0  0  0  0  0  0  0  0
   59.6057   34.6052   48.7497 H   0  0  0  0  0  0  0  0  0  0  0  0
  1  2  2  0
  2  3  1  0
  3  4  1  0
  4  5  2  0
  5  6  1  0
  6  7  2  0
  7  8  1  0
  8  9  2  0
  9 10  1  0
 10 11  1  0
 11 12  2  0
 12 13  1  0
 13 14  1  0
 14 15  2  0
  7 16  1  0
 16 17  2  0
  2 18  1  0
 18 19  2  0
 19 20  1  0
 20 21  2  0
 21 22  1  0
 22 23  2  0
 23 24  1  0
 17  4  1  0
 23 18  1  0
 15  8  1  0
 14 10  1  0
  3 25  1  0
  5 26  1  0
  6 27  1  0
  9 28  1  0
 11 29  1  0
 12 30  1  0
 16 31  1  0
 17 32  1  0
 19 33  1  0
 20 34  1  0
 21 35  1  0
 22 36  1  0
M  END
>  <UniqueID>  (32) 
30

>  <SMILES>  (32) 
O=C(Nc1ccc(-c2cn3ccsc3n2)cc1)c1ccccc1Cl

>  <Energy>  (32) 
129.58574262603827

>  <Genealogy>  (32) 
O=C(Nc1ccc(-c2cn3ccsc3n2)cc1)c1ccccc1Cl (3D coordinates assigned)
O=C(Nc1ccc(-c2cn3ccsc3n2)cc1)c1ccccc1Cl (optimized conformer: 129.58574262603827 kcal/mol)

>  <smiles>  (32) 
O=C(Nc1ccc(-c2cn3ccsc3n2)cc1)c1ccccc1Cl

>  <score_type>  (32) 
oracle

>  <origin>  (32) 
adg

>  <m_score__min__energy>  (32) 
-7.8700000000000001

>  <m_primary>  (32) 
energy

$$$$
33:0
     RDKit          3D

 37 38  0  0  0  0  0  0  0  0999 V2000
   58.8610   32.3470   49.5520 C   0  0  0  0  0  0  0  0  0  0  0  0
   59.6480   33.5630   49.0750 C   0  0  0  0  0  0  0  0  0  0  0  0
   59.3340   33.8690   47.6350 C   0  0  0  0  0  0  0  0  0  0  0  0
   59.9490   34.9560   46.9930 C   0  0  0  0  0  0  0  0  0  0  0  0
   59.6260   35.2650   45.6690 C   0  0  0  0  0  0  0  0  0  0  0  0
   58.6860   34.4970   44.9770 C   0  0  0  0  0  0  0  0  0  0  0  0
   58.0650   33.4060   45.6060 C   0  0  0  0  0  0  0  0  0  0  0  0
   57.0180   32.6050   44.8840 C   0  0  0  0  0  0  0  0  0  0  0  0
   57.3360   31.1760   44.9890 N   0  0  0  0  0  0  0  0  0  0  0  0
   57.2010   30.4910   43.6940 C   0  0  0  0  0  0  0  0  0  0  0  0
   56.9020   29.0010   43.9120 C   0  0  1  0  0  0  0  0  0  0  0  0
   58.1500   28.1470   43.7540 C   0  0  0  0  0  0  0  0  0  0  0  0
   57.8800   27.0050   44.6820 C   0  0  0  0  0  0  0  0  0  0  0  0
   56.9610   27.6180   45.7210 C   0  0  0  0  0  0  0  0  0  0  0  0
   56.3680   28.7860   45.1990 O   0  0  0  0  0  0  0  0  0  0  0  0
   58.3810   33.1070   46.9420 C   0  0  0  0  0  0  0  0  0  0  0  0
   58.8480   32.3270   50.6517 H   0  0  0  0  0  0  0  0  0  0  0  0
   57.8296   32.4065   49.1742 H   0  0  0  0  0  0  0  0  0  0  0  0
   59.3377   31.4305   49.1742 H   0  0  0  0  0  0  0  0  0  0  0  0
   59.3814   34.4316   49.6951 H   0  0  0  0  0  0  0  0  0  0  0  0
   60.7226   33.3458   49.1640 H   0  0  0  0  0  0  0  0  0  0  0  0
   60.6873   35.5661   47.5340 H   0  0  0  0  0  0  0  0  0  0  0  0
   60.1133   36.1156   45.1700 H   0  0  0  0  0  0  0  0  0  0  0  0
   58.4318   34.7478   43.9366 H   0  0  0  0  0  0  0  0  0  0  0  0
   56.0337   32.7958   45.3365 H   0  0  0  0  0  0  0  0  0  0  0  0
   56.9977   32.8991   43.8242 H   0  0  0  0  0  0  0  0  0  0  0  0
   56.6530   30.7500   45.6590 H   0  0  0  0  0  0  0  0  0  0  0  0
   56.3775   30.9476   43.1253 H   0  0  0  0  0  0  0  0  0  0  0  0
   58.1432   30.5904   43.1350 H   0  0  0  0  0  0  0  0  0  0  0  0
   56.1701   28.7064   43.1455 H   0  0  0  0  0  0  0  0  0  0  0  0
   58.2644   27.7982   42.7171 H   0  0  0  0  0  0  0  0  0  0  0  0
   59.0818   28.6857   43.9809 H   0  0  0  0  0  0  0  0  0  0  0  0
   57.3839   26.1766   44.1552 H   0  0  0  0  0  0  0  0  0  0  0  0
   58.7945   26.5726   45.1140 H   0  0  0  0  0  0  0  0  0  0  0  0
   56.1749   26.8956   45.9860 H   0  0  0  0  0  0  0  0  0  0  0  0
   57.5438   27.8742   46.6180 H   0  0  0  0  0  0  0  0  0  0  0  0
   57.8779   32.2699   47.4481 H   0  0  0  0  0  0  0  0  0  0  0  0
  1  2  1  0
  2  3  1  0
  3  4  2  0
  4  5  1  0
  5  6  2  0
  6  7  1  0
  7  8  1  0
  8  9  1  0
  9 10  1  0
 10 11  1  0
 11 12  1  0
 12 13  1  0
 13 14  1  0
 14 15  1  0
  7 16  2  0
 16  3  1  0
 15 11  1  0
  1 17  1  0
  1 18  1  0
  1 19  1  0
  2 20  1  0
  2 21  1  0
  4 22  1  0
  5 23  1  0
  6 24  1  0
  8 25  1  0
  8 26  1  0
  9 27  1  0
 10 28  1  0
 10 29  1  0
 11 30  1  6
 12 31  1  0
 12 32  1  0
 13 33  1  0
 13 34  1  0
 14 35  1  0
 14 36  1  0
 16 37  1  0
M  END
>  <UniqueID>  (33) 
31

>  <SMILES>  (33) 
CCc1cccc(CNC[C@H]2CCCO2)c1

>  <Energy>  (33) 
29.883074900273144

>  <Genealogy>  (33) 
CCc1cccc(CNC[C@H]2CCCO2)c1 (chirality)
CCc1cccc(CNC[C@H]2CCCO2)c1 (3D coordinates assigned)
CCc1cccc(CNC[C@H]2CCCO2)c1 (nonaromatic ring conformer: 29.883074900273144 kcal/mol)

>  <smiles>  (33) 
CCc1cccc(CNCC2CCCO2)c1

>  <score_type>  (33) 
oracle

>  <origin>  (33) 
adg

>  <m_score__min__energy>  (33) 
-6.9699999999999998

>  <m_primary>  (33) 
energy

$$$$
34:0
     RDKit          3D

 52 55  0  0  0  0  0  0  0  0999 V2000
   56.4070   21.6080   47.7540 C   0  0  0  0  0  0  0  0  0  0  0  0
   57.3590   21.8010   46.7120 O   0  0  0  0  0  0  0  0  0  0  0  0
   57.0410   21.9320   45.3500 C   0  0  0  0  0  0  0  0  0  0  0  0
   56.9920   20.8110   44.4960 C   0  0  0  0  0  0  0  0  0  0  0  0
   56.6660   20.9610   43.1460 C   0  0  0  0  0  0  0  0  0  0  0  0
   56.3860   22.2250   42.6320 C   0  0  0  0  0  0  0  0  0  0  0  0
   56.4320   23.3460   43.4620 C   0  0  0  0  0  0  0  0  0  0  0  0
   56.7600   23.2150   44.8240 C   0  0  0  0  0  0  0  0  0  0  0  0
   56.8000   24.4220   45.6820 C   0  0  0  0  0  0  0  0  0  0  0  0
   55.7320   25.1990   45.9520 N   0  0  0  0  0  0  0  0  0  0  0  0
   56.1610   26.1650   46.7500 N   0  0  0  0  0  0  0  0  0  0  0  0
   57.4760   25.9430   46.9330 C   0  0  0  0  0  0  0  0  0  0  0  0
   58.3660   26.7960   47.7950 C   0  0  0  0  0  0  0  0  0  0  0  0
   58.4910   28.1860   47.3080 N   0  0  0  0  0  0  0  0  0  0  0  0
   59.3050   29.0370   48.1930 C   0  0  0  0  0  0  0  0  0  0  0  0
   59.0290   30.5010   47.8510 C   0  0  0  0  0  0  0  0  0  0  0  0
   58.9750   30.6980   46.3970 N   0  0  0  0  0  0  0  0  0  0  0  0
   58.7380   32.0200   45.8850 C   0  0  0  0  0  0  0  0  0  0  0  0
   59.6700   33.0400   46.1300 C   0  0  0  0  0  0  0  0  0  0  0  0
   59.4480   34.3310   45.6480 C   0  0  0  0  0  0  0  0  0  0  0  0
   58.2950   34.6120   44.9130 C   0  0  0  0  0  0  0  0  0  0  0  0
   57.3640   33.6030   44.6540 C   0  0  0  0  0  0  0  0  0  0  0  0
   57.5800   32.2940   45.1330 C   0  0  0  0  0  0  0  0  0  0  0  0
   56.6810   31.2490   44.8670 O   0  0  0  0  0  0  0  0  0  0  0  0
   56.6830   30.4650   43.6790 C   0  0  0  0  0  0  0  0  0  0  0  0
   59.4620   29.6490   45.4940 C   0  0  0  0  0  0  0  0  0  0  0  0
   58.9150   28.2610   45.8910 C   0  0  0  0  0  0  0  0  0  0  0  0
   57.8740   24.8790   46.2820 O   0  0  0  0  0  0  0  0  0  0  0  0
   56.9054   21.7090   48.7294 H   0  0  0  0  0  0  0  0  0  0  0  0
   55.6118   22.3632   47.6686 H   0  0  0  0  0  0  0  0  0  0  0  0
   55.9687   20.6027   47.6686 H   0  0  0  0  0  0  0  0  0  0  0  0
   57.2123   19.8103   44.8961 H   0  0  0  0  0  0  0  0  0  0  0  0
   56.6304   20.0801   42.4882 H   0  0  0  0  0  0  0  0  0  0  0  0
   56.1279   22.3399   41.5689 H   0  0  0  0  0  0  0  0  0  0  0  0
   56.2099   24.3406   43.0479 H   0  0  0  0  0  0  0  0  0  0  0  0
   57.9493   26.8185   48.8128 H   0  0  0  0  0  0  0  0  0  0  0  0
   59.3709   26.3494   47.7692 H   0  0  0  0  0  0  0  0  0  0  0  0
   59.0362   28.8445   49.2421 H   0  0  0  0  0  0  0  0  0  0  0  0
   60.3727   28.8130   48.0518 H   0  0  0  0  0  0  0  0  0  0  0  0
   58.0655   30.7981   48.2908 H   0  0  0  0  0  0  0  0  0  0  0  0
   59.8438   31.1170   48.2592 H   0  0  0  0  0  0  0  0  0  0  0  0
   60.5814   32.8208   46.7056 H   0  0  0  0  0  0  0  0  0  0  0  0
   60.1812   35.1265   45.8472 H   0  0  0  0  0  0  0  0  0  0  0  0
   58.1190   35.6305   44.5367 H   0  0  0  0  0  0  0  0  0  0  0  0
   56.4578   33.8306   44.0735 H   0  0  0  0  0  0  0  0  0  0  0  0
   56.6857   29.3975   43.9442 H   0  0  0  0  0  0  0  0  0  0  0  0
   55.7843   30.6935   43.0873 H   0  0  0  0  0  0  0  0  0  0  0  0
   57.5806   30.6981   43.0873 H   0  0  0  0  0  0  0  0  0  0  0  0
   59.1376   29.8811   44.4689 H   0  0  0  0  0  0  0  0  0  0  0  0
   60.5596   29.6190   45.5604 H   0  0  0  0  0  0  0  0  0  0  0  0
   58.0483   28.0312   45.2538 H   0  0  0  0  0  0  0  0  0  0  0  0
   59.7310   27.5361   45.7545 H   0  0  0  0  0  0  0  0  0  0  0  0
  1  2  1  0
  2  3  1  0
  3  4  2  0
  4  5  1  0
  5  6  2  0
  6  7  1  0
  7  8  2  0
  8  9  1  0
  9 10  2  0
 10 11  1  0
 11 12  2  0
 12 13  1  0
 13 14  1  0
 14 15  1  0
 15 16  1  0
 16 17  1  0
 17 18  1  0
 18 19  2  0
 19 20  1  0
 20 21  2  0
 21 22  1  0
 22 23  2  0
 23 24  1  0
 24 25  1  0
 17 26  1  0
 26 27  1  0
 12 28  1  0
  8  3  1  0
 28  9  1  0
 27 14  1  0
 23 18  1  0
  1 29  1  0
  1 30  1  0
  1 31  1  0
  4 32  1  0
  5 33  1  0
  6 34  1  0
  7 35  1  0
 13 36  1  0
 13 37  1  0
 15 38  1  0
 15 39  1  0
 16 40  1  0
 16 41  1  0
 19 42  1  0
 20 43  1  0
 21 44  1  0
 22 45  1  0
 25 46  1  0
 25 47  1  0
 25 48  1  0
 26 49  1  0
 26 50  1  0
 27 51  1  0
 27 52  1  0
M  END
>  <UniqueID>  (34) 
32

>  <SMILES>  (34) 
COc1ccccc1-c1nnc(CN2CCN(c3ccccc3OC)CC2)o1

>  <Energy>  (34) 
101.49058820460965

>  <Genealogy>  (34) 
COc1ccccc1-c1nnc(CN2CCN(c3ccccc3OC)CC2)o1 (3D coordinates assigned)
COc1ccccc1-c1nnc(CN2CCN(c3ccccc3OC)CC2)o1 (nonaromatic ring conformer: 101.49058820460965 kcal/mol)

>  <smiles>  (34) 
COc1ccccc1-c1nnc(CN2CCN(c3ccccc3OC)CC2)o1

>  <score_type>  (34) 
oracle

>  <origin>  (34) 
adg

>  <m_score__min__energy>  (34) 
-8.2400000000000002

>  <m_primary>  (34) 
energy

$$$$
35:0
     RDKit          3D

 40 42  0  0  0  0  0  0  0  0999 V2000
   60.0280   34.1880   52.1050 O   0  0  0  0  0  0  0  0  0  0  0  0
   59.8160   33.0980   51.0910 S   0  0  0  0  0  0  0  0  0  0  0  0
   61.0930   32.3280   50.9210 O   0  0  0  0  0  0  0  0  0  0  0  0
   59.3690   33.8170   49.5750 N   0  0  0  0  0  0  0  0  0  0  0  0
   58.9660   33.0510   48.4260 C   0  0  0  0  0  0  0  0  0  0  0  0
   58.3310   33.6510   47.3230 C   0  0  0  0  0  0  0  0  0  0  0  0
   57.9390   32.8780   46.2280 C   0  0  0  0  0  0  0  0  0  0  0  0
   58.1720   31.5000   46.2150 C   0  0  0  0  0  0  0  0  0  0  0  0
   57.6580   30.5600   44.8210 Cl  0  0  0  0  0  0  0  0  0  0  0  0
   58.8140   30.8920   47.3070 C   0  0  0  0  0  0  0  0  0  0  0  0
   59.1250   29.1620   47.3330 Cl  0  0  0  0  0  0  0  0  0  0  0  0
   59.2110   31.6690   48.4010 C   0  0  0  0  0  0  0  0  0  0  0  0
   58.5520   31.9930   51.6200 C   0  0  0  0  0  0  0  0  0  0  0  0
   57.2090   32.3930   51.6260 C   0  0  0  0  0  0  0  0  0  0  0  0
   56.2080   31.4890   51.9960 C   0  0  0  0  0  0  0  0  0  0  0  0
   56.5370   30.1730   52.3380 C   0  0  0  0  0  0  0  0  0  0  0  0
   55.4900   29.2580   52.7000 N   0  0  0  0  0  0  0  0  0  0  0  0
   54.3490   29.1000   52.0910 C   0  0  0  0  0  0  0  0  0  0  0  0
   53.2850   30.1280   52.0450 C   0  0  0  0  0  0  0  0  0  0  0  0
   53.0090   30.8430   50.8660 C   0  0  0  0  0  0  0  0  0  0  0  0
   52.0140   31.8250   50.8540 C   0  0  0  0  0  0  0  0  0  0  0  0
   51.2960   32.1100   52.0180 C   0  0  0  0  0  0  0  0  0  0  0  0
   50.3030   33.0810   52.0010 O   0  0  0  0  0  0  0  0  0  0  0  0
   51.5840   31.4220   53.2010 C   0  0  0  0  0  0  0  0  0  0  0  0
   52.5820   30.4430   53.2190 C   0  0  0  0  0  0  0  0  0  0  0  0
   57.8880   29.7880   52.3800 C   0  0  0  0  0  0  0  0  0  0  0  0
   58.8880   30.6920   52.0170 C   0  0  0  0  0  0  0  0  0  0  0  0
   59.5480   34.8400   49.4650 H   0  0  0  0  0  0  0  0  0  0  0  0
   58.1423   34.7347   47.3232 H   0  0  0  0  0  0  0  0  0  0  0  0
   57.4437   33.3567   45.3703 H   0  0  0  0  0  0  0  0  0  0  0  0
   59.7207   31.1915   49.2508 H   0  0  0  0  0  0  0  0  0  0  0  0
   56.9414   33.4206   51.3390 H   0  0  0  0  0  0  0  0  0  0  0  0
   55.1574   31.8142   52.0182 H   0  0  0  0  0  0  0  0  0  0  0  0
   54.1651   28.1437   51.5795 H   0  0  0  0  0  0  0  0  0  0  0  0
   53.5783   30.6288   49.9495 H   0  0  0  0  0  0  0  0  0  0  0  0
   51.7960   32.3743   49.9262 H   0  0  0  0  0  0  0  0  0  0  0  0
   51.0240   31.6516   54.1195 H   0  0  0  0  0  0  0  0  0  0  0  0
   52.8173   29.9176   54.1563 H   0  0  0  0  0  0  0  0  0  0  0  0
   58.1584   28.7709   52.7000 H   0  0  0  0  0  0  0  0  0  0  0  0
   59.9431   30.3819   52.0427 H   0  0  0  0  0  0  0  0  0  0  0  0
  1  2  2  0
  2  3  2  0
  2  4  1  0
  4  5  1  0
  5  6  2  0
  6  7  1  0
  7  8  2  0
  8  9  1  0
  8 10  1  0
 10 11  1  0
 10 12  2  0
  2 13  1  0
 13 14  2  0
 14 15  1  0
 15 16  2  0
 16 17  1  0
 17 18  2  3
 18 19  1  0
 19 20  2  0
 20 21  1  0
 21 22  2  0
 22 23  1  0
 22 24  1  0
 24 25  2  0
 16 26  1  0
 26 27  2  0
 12  5  1  0
 27 13  1  0
 25 19  1  0
  4 28  1  0
  6 29  1  0
  7 30  1  0
 12 31  1  0
 14 32  1  0
 15 33  1  0
 18 34  1  0
 20 35  1  0
 21 36  1  0
 24 37  1  0
 25 38  1  0
 26 39  1  0
 27 40  1  0
M  CHG  1  23  -1
M  END
>  <UniqueID>  (35) 
33

>  <SMILES>  (35) 
O=S(=O)(Nc1ccc(Cl)c(Cl)c1)c1ccc(N=Cc2ccc([O-])cc2)cc1

>  <Energy>  (35) 
55.28368786948032

>  <Genealogy>  (35) 
O=S(=O)(Nc1ccc(Cl)c(Cl)c1)c1ccc(N=Cc2ccc([O-])cc2)cc1 (protonated)
O=S(=O)(Nc1ccc(Cl)c(Cl)c1)c1ccc(N=Cc2ccc([O-])cc2)cc1 (3D coordinates assigned)
O=S(=O)(Nc1ccc(Cl)c(Cl)c1)c1ccc(N=Cc2ccc([O-])cc2)cc1 (optimized conformer: 55.28368786948032 kcal/mol)

>  <smiles>  (35) 
O=S(=O)(Nc1ccc(Cl)c(Cl)c1)c1ccc(N=Cc2ccc(O)cc2)cc1

>  <score_type>  (35) 
oracle

>  <origin>  (35) 
adg

>  <m_score__min__energy>  (35) 
-12.68

>  <m_primary>  (35) 
energy

$$$$
36:0
     RDKit          3D

 45 48  0  0  0  0  0  0  0  0999 V2000
   54.4250   22.4180   47.6640 C   0  0  0  0  0  0  0  0  0  0  0  0
   54.7620   23.1340   46.4800 O   0  0  0  0  0  0  0  0  0  0  0  0
   55.7730   24.1050   46.3980 C   0  0  0  0  0  0  0  0  0  0  0  0
   55.5190   25.4180   45.9660 C   0  0  0  0  0  0  0  0  0  0  0  0
   56.5540   26.3620   45.8860 C   0  0  0  0  0  0  0  0  0  0  0  0
   57.8570   26.0180   46.3300 C   0  0  0  0  0  0  0  0  0  0  0  0
   58.1110   24.6810   46.6960 C   0  0  0  0  0  0  0  0  0  0  0  0
   57.0770   23.7420   46.7440 C   0  0  0  0  0  0  0  0  0  0  0  0
   57.3530   22.4380   47.1390 O   0  0  0  0  0  0  0  0  0  0  0  0
   58.9760   27.0630   46.2890 C   0  0  1  0  0  0  0  0  0  0  0  0
   60.2120   26.5650   46.8150 O   0  0  0  0  0  0  0  0  0  0  0  0
   60.7640   27.3150   47.8820 C   0  0  0  0  0  0  0  0  0  0  0  0
   59.2450   27.2750   44.8110 C   0  0  0  0  0  0  0  0  0  0  0  0
   58.3240   27.7490   43.9620 C   0  0  0  0  0  0  0  0  0  0  0  0
   57.0930   28.4640   44.4450 C   0  0  1  0  0  0  0  0  0  0  0  0
   56.2490   27.6710   45.3590 N   0  0  0  0  0  0  0  0  0  0  0  0
   57.5500   29.7470   45.1150 C   0  0  0  0  0  0  0  0  0  0  0  0
   58.2700   29.6540   46.3330 C   0  0  0  0  0  0  0  0  0  0  0  0
   58.6780   30.8220   46.9900 C   0  0  0  0  0  0  0  0  0  0  0  0
   58.4170   32.0750   46.4450 C   0  0  0  0  0  0  0  0  0  0  0  0
   57.7520   32.1880   45.2150 C   0  0  0  0  0  0  0  0  0  0  0  0
   57.4920   33.4360   44.6260 O   0  0  0  0  0  0  0  0  0  0  0  0
   58.2070   34.6330   44.9180 C   0  0  0  0  0  0  0  0  0  0  0  0
   57.3380   31.0320   44.5360 C   0  0  0  0  0  0  0  0  0  0  0  0
   56.7380   31.2190   43.2850 O   0  0  0  0  0  0  0  0  0  0  0  0
   58.5120   28.3540   47.0090 C   0  0  0  0  0  0  0  0  0  0  0  0
   58.2150   28.2940   48.2340 O   0  0  0  0  0  0  0  0  0  0  0  0
   54.7054   23.0138   48.5451 H   0  0  0  0  0  0  0  0  0  0  0  0
   53.3420   22.2261   47.6807 H   0  0  0  0  0  0  0  0  0  0  0  0
   54.9673   21.4611   47.6807 H   0  0  0  0  0  0  0  0  0  0  0  0
   54.4956   25.7094   45.6870 H   0  0  0  0  0  0  0  0  0  0  0  0
   59.1365   24.3724   46.9472 H   0  0  0  0  0  0  0  0  0  0  0  0
   60.4438   26.8799   48.8402 H   0  0  0  0  0  0  0  0  0  0  0  0
   61.8618   27.2914   47.8173 H   0  0  0  0  0  0  0  0  0  0  0  0
   60.4151   28.3562   47.8173 H   0  0  0  0  0  0  0  0  0  0  0  0
   60.2425   27.0280   44.4186 H   0  0  0  0  0  0  0  0  0  0  0  0
   58.4725   27.6112   42.8808 H   0  0  0  0  0  0  0  0  0  0  0  0
   56.4489   28.6613   43.5754 H   0  0  0  0  0  0  0  0  0  0  0  0
   55.2830   28.0370   45.5190 H   0  0  0  0  0  0  0  0  0  0  0  0
   59.2115   30.7474   47.9490 H   0  0  0  0  0  0  0  0  0  0  0  0
   58.7337   32.9817   46.9812 H   0  0  0  0  0  0  0  0  0  0  0  0
   58.2820   34.7586   46.0082 H   0  0  0  0  0  0  0  0  0  0  0  0
   59.2166   34.5718   44.4856 H   0  0  0  0  0  0  0  0  0  0  0  0
   57.6745   35.4929   44.4856 H   0  0  0  0  0  0  0  0  0  0  0  0
   56.6780   32.0970   42.7940 H   0  0  0  0  0  0  0  0  0  0  0  0
  1  2  1  0
  2  3  1  0
  3  4  2  0
  4  5  1  0
  5  6  2  0
  6  7  1  0
  7  8  2  0
  8  9  1  0
  6 10  1  0
 10 11  1  1
 11 12  1  0
 10 13  1  0
 13 14  2  0
 14 15  1  0
 15 16  1  0
 15 17  1  0
 17 18  2  0
 18 19  1  0
 19 20  2  0
 20 21  1  0
 21 22  1  0
 22 23  1  0
 21 24  2  0
 24 25  1  0
 18 26  1  0
 26 27  2  0
  8  3  1  0
 26 10  1  0
 16  5  1  0
 24 17  1  0
  1 28  1  0
  1 29  1  0
  1 30  1  0
  4 31  1  0
  7 32  1  0
 12 33  1  0
 12 34  1  0
 12 35  1  0
 13 36  1  0
 14 37  1  0
 15 38  1  6
 16 39  1  0
 19 40  1  0
 20 41  1  0
 23 42  1  0
 23 43  1  0
 23 44  1  0
 25 45  1  0
M  CHG  1   9  -1
M  END
>  <UniqueID>  (36) 
34

>  <SMILES>  (36) 
COc1cc2c(cc1[O-])[C@@]1(OC)C=C[C@@H](N2)c2c(ccc(OC)c2O)C1=O

>  <Energy>  (36) 
91.02063271731785

>  <Genealogy>  (36) 
COc1cc2c(cc1[O-])C1(OC)C=CC(N2)c2c(ccc(OC)c2O)C1=O (protonated)
COc1cc2c(cc1[O-])[C@@]1(OC)C=C[C@@H](N2)c2c(ccc(OC)c2O)C1=O (chirality)
COc1cc2c(cc1[O-])[C@@]1(OC)C=C[C@@H](N2)c2c(ccc(OC)c2O)C1=O (3D coordinates assigned)
COc1cc2c(cc1[O-])[C@@]1(OC)C=C[C@@H](N2)c2c(ccc(OC)c2O)C1=O (nonaromatic ring conformer: 91.02063271731785 kcal/mol)

>  <smiles>  (36) 
COc1cc2c(cc1O)C1(OC)C=CC(N2)c2c(ccc(OC)c2O)C1=O

>  <score_type>  (36) 
oracle

>  <origin>  (36) 
adg

>  <m_score__min__energy>  (36) 
-5.79

>  <m_primary>  (36) 
energy

$$$$
37:0
     RDKit          3D

 36 38  0  0  0  0  0  0  0  0999 V2000
   54.6147   30.6211   43.6846 H   0  0  0  0  0  0  0  0  0  0  0  0
   55.4920   30.1060   44.1030 C   0  0  0  0  0  0  0  0  0  0  0  0
   55.4460   28.9930   44.8660 N   0  0  0  0  0  0  0  0  0  0  0  0
   56.6910   28.6750   45.1870 N   0  0  0  0  0  0  0  0  0  0  0  0
   57.0540   27.5030   45.9760 C   0  0  0  0  0  0  0  0  0  0  0  0
   56.9793   27.7442   47.0466 H   0  0  0  0  0  0  0  0  0  0  0  0
   56.3703   26.6748   45.7382 H   0  0  0  0  0  0  0  0  0  0  0  0
   58.0862   27.2062   45.7382 H   0  0  0  0  0  0  0  0  0  0  0  0
   57.5330   29.5610   44.6270 C   0  0  0  0  0  0  0  0  0  0  0  0
   58.8280   29.5030   44.7490 N   0  0  0  0  0  0  0  0  0  0  0  0
   59.5640   29.6110   46.0080 C   0  0  0  0  0  0  0  0  0  0  0  0
   60.5486   29.1342   45.8927 H   0  0  0  0  0  0  0  0  0  0  0  0
   58.9871   29.1093   46.7989 H   0  0  0  0  0  0  0  0  0  0  0  0
   59.7560   31.0560   46.3910 C   0  0  0  0  0  0  0  0  0  0  0  0
   58.8560   32.0360   45.9480 C   0  0  0  0  0  0  0  0  0  0  0  0
   58.0007   31.7508   45.3178 H   0  0  0  0  0  0  0  0  0  0  0  0
   59.0430   33.3730   46.3050 C   0  0  0  0  0  0  0  0  0  0  0  0
   58.3356   34.1381   45.9526 H   0  0  0  0  0  0  0  0  0  0  0  0
   60.1250   33.7430   47.1080 C   0  0  0  0  0  0  0  0  0  0  0  0
   60.2662   34.7992   47.3809 H   0  0  0  0  0  0  0  0  0  0  0  0
   61.0350   32.7750   47.5700 C   0  0  0  0  0  0  0  0  0  0  0  0
   62.1500   33.1530   48.4020 N   0  0  0  0  0  0  0  0  0  0  0  0
   62.1930   34.1500   49.3140 C   0  0  0  0  0  0  0  0  0  0  0  0
   61.3449   34.8173   49.5271 H   0  0  0  0  0  0  0  0  0  0  0  0
   63.3880   34.2390   49.9350 N   0  0  0  0  0  0  0  0  0  0  0  0
   64.1210   33.2580   49.3730 C   0  0  0  0  0  0  0  0  0  0  0  0
   65.5100   32.9110   49.7910 C   0  0  0  0  0  0  0  0  0  0  0  0
   65.5695   32.8961   50.8893 H   0  0  0  0  0  0  0  0  0  0  0  0
   65.7748   31.9191   49.3960 H   0  0  0  0  0  0  0  0  0  0  0  0
   66.2102   33.6618   49.3960 H   0  0  0  0  0  0  0  0  0  0  0  0
   63.3680   32.5810   48.4420 C   0  0  0  0  0  0  0  0  0  0  0  0
   63.7017   31.7246   47.8377 H   0  0  0  0  0  0  0  0  0  0  0  0
   60.8360   31.4280   47.2070 C   0  0  0  0  0  0  0  0  0  0  0  0
   61.5352   30.6590   47.5673 H   0  0  0  0  0  0  0  0  0  0  0  0
   56.8050   30.5030   43.9250 C   0  0  0  0  0  0  0  0  0  0  0  0
   57.1817   31.3666   43.3574 H   0  0  0  0  0  0  0  0  0  0  0  0
  1  2  1  0
  2  3  1  0
  3  4  1  0
  4  5  1  0
  5  6  1  0
  5  7  1  0
  5  8  1  0
  4  9  1  0
  9 10  2  0
 10 11  1  0
 11 12  1  0
 11 13  1  0
 11 14  1  0
 14 15  2  0
 15 16  1  0
 15 17  1  0
 17 18  1  0
 17 19  2  0
 19 20  1  0
 19 21  1  0
 21 22  1  0
 22 23  1  0
 23 24  1  0
 23 25  2  0
 25 26  1  0
 26 27  1  0
 27 28  1  0
 27 29  1  0
 27 30  1  0
 26 31  2  0
 31 32  1  0
 21 33  2  0
 33 34  1  0
  9 35  1  0
 35 36  1  0
 35  2  2  0
 33 14  1  0
 31 22  1  0
M  CHG  1   3  -1
M  END
>  <UniqueID>  (37) 
35

>  <SMILES>  (37) 
Cc1cn(-c2cccc(C/N=c3\cc[n-]n3C)c2)cn1

>  <Energy>  (37) 
99.17420788653803

>  <Genealogy>  (37) 
Cc1cn(-c2cccc(CN=c3cc[n-]n3C)c2)cn1 (protonated)
Cc1cn(-c2cccc(C/N=c3\cc[n-]n3C)c2)cn1 (cis-trans isomerization)
Cc1cn(-c2cccc(C/N=c3\cc[n-]n3C)c2)cn1 (3D coordinates assigned)
Cc1cn(-c2cccc(C/N=c3\cc[n-]n3C)c2)cn1 (optimized conformer: 99.17420788653803 kcal/mol)

>  <smiles>  (37) 
Cc1cn(-c2cccc(CN=c3cc[nH]n3C)c2)cn1

>  <score_type>  (37) 
oracle

>  <origin>  (37) 
adg

>  <m_score__min__energy>  (37) 
-8.7100000000000009

>  <m_primary>  (37) 
energy

$$$$
38:0
     RDKit          3D

 38 39  0  0  0  0  0  0  0  0999 V2000
   56.7240   23.0620   43.6540 C   0  0  0  0  0  0  0  0  0  0  0  0
   55.7740   23.5060   44.7660 C   0  0  0  0  0  0  0  0  0  0  0  0
   56.4490   23.4850   46.1390 C   0  0  0  0  0  0  0  0  0  0  0  0
   56.2920   24.7780   46.7980 N   0  0  0  0  0  0  0  0  0  0  0  0
   55.9880   26.0070   46.1270 C   0  0  0  0  0  0  0  0  0  0  0  0
   54.7820   26.3400   45.9890 O   0  0  0  0  0  0  0  0  0  0  0  0
   57.0400   26.8730   45.5590 C   0  0  0  0  0  0  0  0  0  0  0  0
   57.7870   26.4320   44.4570 C   0  0  0  0  0  0  0  0  0  0  0  0
   58.7700   27.2530   43.8990 C   0  0  0  0  0  0  0  0  0  0  0  0
   59.0120   28.5210   44.4330 C   0  0  0  0  0  0  0  0  0  0  0  0
   58.2730   28.9800   45.5340 C   0  0  0  0  0  0  0  0  0  0  0  0
   58.5140   30.3050   46.0420 N   0  0  0  0  0  0  0  0  0  0  0  0
   57.8910   31.4880   45.5120 C   0  0  0  0  0  0  0  0  0  0  0  0
   56.8020   31.3910   44.8820 O   0  0  0  0  0  0  0  0  0  0  0  0
   58.4850   32.8270   45.7410 C   0  0  0  0  0  0  0  0  0  0  0  0
   58.6450   33.7230   44.6670 C   0  0  0  0  0  0  0  0  0  0  0  0
   59.2070   34.9880   44.8750 C   0  0  0  0  0  0  0  0  0  0  0  0
   59.6230   35.3680   46.1520 C   0  0  0  0  0  0  0  0  0  0  0  0
   59.4810   34.4840   47.2240 C   0  0  0  0  0  0  0  0  0  0  0  0
   58.9170   33.2200   47.0230 C   0  0  0  0  0  0  0  0  0  0  0  0
   57.2680   28.1580   46.0760 C   0  0  0  0  0  0  0  0  0  0  0  0
   57.6354   22.6360   44.0988 H   0  0  0  0  0  0  0  0  0  0  0  0
   56.2298   22.3016   43.0315 H   0  0  0  0  0  0  0  0  0  0  0  0
   56.9904   23.9289   43.0315 H   0  0  0  0  0  0  0  0  0  0  0  0
   55.4327   24.5299   44.5537 H   0  0  0  0  0  0  0  0  0  0  0  0
   54.9290   22.8022   44.7921 H   0  0  0  0  0  0  0  0  0  0  0  0
   55.9869   22.7027   46.7591 H   0  0  0  0  0  0  0  0  0  0  0  0
   57.5212   23.2766   46.0086 H   0  0  0  0  0  0  0  0  0  0  0  0
   57.5982   25.4358   44.0304 H   0  0  0  0  0  0  0  0  0  0  0  0
   59.3550   26.9001   43.0369 H   0  0  0  0  0  0  0  0  0  0  0  0
   59.7862   29.1632   43.9879 H   0  0  0  0  0  0  0  0  0  0  0  0
   59.0920   30.3990   46.9060 H   0  0  0  0  0  0  0  0  0  0  0  0
   58.3260   33.4268   43.6568 H   0  0  0  0  0  0  0  0  0  0  0  0
   59.3210   35.6838   44.0307 H   0  0  0  0  0  0  0  0  0  0  0  0
   60.0625   36.3633   46.3141 H   0  0  0  0  0  0  0  0  0  0  0  0
   59.8136   34.7827   48.2291 H   0  0  0  0  0  0  0  0  0  0  0  0
   58.8100   32.5282   47.8715 H   0  0  0  0  0  0  0  0  0  0  0  0
   56.6554   28.5256   46.9124 H   0  0  0  0  0  0  0  0  0  0  0  0
  1  2  1  0
  2  3  1  0
  3  4  1  0
  4  5  1  0
  5  6  2  0
  5  7  1  0
  7  8  2  0
  8  9  1  0
  9 10  2  0
 10 11  1  0
 11 12  1  0
 12 13  1  0
 13 14  2  0
 13 15  1  0
 15 16  2  0
 16 17  1  0
 17 18  2  0
 18 19  1  0
 19 20  2  0
 11 21  2  0
 21  7  1  0
 20 15  1  0
  1 22  1  0
  1 23  1  0
  1 24  1  0
  2 25  1  0
  2 26  1  0
  3 27  1  0
  3 28  1  0
  8 29  1  0
  9 30  1  0
 10 31  1  0
 12 32  1  0
 16 33  1  0
 17 34  1  0
 18 35  1  0
 19 36  1  0
 20 37  1  0
 21 38  1  0
M  CHG  1   4  -1
M  END
>  <UniqueID>  (38) 
36

>  <SMILES>  (38) 
CCC[N-]C(=O)c1cccc(NC(=O)c2ccccc2)c1

>  <Energy>  (38) 
42.51205975869009

>  <Genealogy>  (38) 
CCC[N-]C(=O)c1cccc(NC(=O)c2ccccc2)c1 (protonated)
CCC[N-]C(=O)c1cccc(NC(=O)c2ccccc2)c1 (3D coordinates assigned)
CCC[N-]C(=O)c1cccc(NC(=O)c2ccccc2)c1 (optimized conformer: 42.51205975869009 kcal/mol)

>  <smiles>  (38) 
CCCNC(=O)c1cccc(NC(=O)c2ccccc2)c1

>  <score_type>  (38) 
oracle

>  <origin>  (38) 
adg

>  <m_score__min__energy>  (38) 
-9.8399999999999999

>  <m_primary>  (38) 
energy

$$$$
39:0
     RDKit          3D

 24 26  0  0  0  0  0  0  0  0999 V2000
   59.4280   29.4770   46.7220 C   0  0  0  0  0  0  0  0  0  0  0  0
   59.4790   30.9220   46.4250 N   0  0  0  0  0  0  0  0  0  0  0  0
   58.4110   31.5270   45.7950 C   0  0  0  0  0  0  0  0  0  0  0  0
   57.3840   30.8720   45.4630 O   0  0  0  0  0  0  0  0  0  0  0  0
   58.4730   32.8890   45.5210 C   0  0  0  0  0  0  0  0  0  0  0  0
   57.5530   33.7120   44.9110 C   0  0  0  0  0  0  0  0  0  0  0  0
   58.0580   34.9650   44.8670 N   0  0  0  0  0  0  0  0  0  0  0  0
   59.2750   34.8700   45.4530 C   0  0  0  0  0  0  0  0  0  0  0  0
   59.5440   33.6100   45.8580 N   0  0  0  0  0  0  0  0  0  0  0  0
   60.6250   33.0690   46.4810 C   0  0  0  0  0  0  0  0  0  0  0  0
   61.7470   33.8430   46.8290 C   0  0  0  0  0  0  0  0  0  0  0  0
   62.8370   33.2500   47.4670 C   0  0  0  0  0  0  0  0  0  0  0  0
   62.8200   31.8880   47.7610 C   0  0  0  0  0  0  0  0  0  0  0  0
   61.7150   31.1030   47.4230 C   0  0  0  0  0  0  0  0  0  0  0  0
   60.5940   31.6740   46.7750 C   0  0  0  0  0  0  0  0  0  0  0  0
   59.4227   29.3266   47.8117 H   0  0  0  0  0  0  0  0  0  0  0  0
   58.5141   29.0455   46.2878 H   0  0  0  0  0  0  0  0  0  0  0  0
   60.3092   28.9821   46.2878 H   0  0  0  0  0  0  0  0  0  0  0  0
   56.5712   33.4017   44.5241 H   0  0  0  0  0  0  0  0  0  0  0  0
   59.9629   35.7184   45.5837 H   0  0  0  0  0  0  0  0  0  0  0  0
   61.7650   34.9182   46.5976 H   0  0  0  0  0  0  0  0  0  0  0  0
   63.7118   33.8591   47.7385 H   0  0  0  0  0  0  0  0  0  0  0  0
   63.6835   31.4273   48.2632 H   0  0  0  0  0  0  0  0  0  0  0  0
   61.7163   30.0295   47.6631 H   0  0  0  0  0  0  0  0  0  0  0  0
  1  2  1  0
  2  3  1  0
  3  4  2  0
  3  5  1  0
  5  6  2  0
  6  7  1  0
  7  8  2  0
  8  9  1  0
  9 10  1  0
 10 11  2  0
 11 12  1  0
 12 13  2  0
 13 14  1  0
 14 15  2  0
 15  2  1  0
  9  5  1  0
 15 10  1  0
  1 16  1  0
  1 17  1  0
  1 18  1  0
  6 19  1  0
  8 20  1  0
 11 21  1  0
 12 22  1  0
 13 23  1  0
 14 24  1  0
M  END
>  <UniqueID>  (39) 
37

>  <SMILES>  (39) 
Cn1c(=O)c2cncn2c2ccccc21

>  <Energy>  (39) 
73.71386988502628

>  <Genealogy>  (39) 
Cn1c(=O)c2cncn2c2ccccc21 (3D coordinates assigned)
Cn1c(=O)c2cncn2c2ccccc21 (optimized conformer: 73.71386988502628 kcal/mol)

>  <smiles>  (39) 
Cn1c(=O)c2cncn2c2ccccc21

>  <score_type>  (39) 
oracle

>  <origin>  (39) 
adg

>  <m_score__min__energy>  (39) 
-5.4100000000000001

>  <m_primary>  (39) 
energy

$$$$
40:0
     RDKit          3D

 50 51  0  0  0  0  0  0  0  0999 V2000
   59.9320   34.0000   49.6200 C   0  0  0  0  0  0  0  0  0  0  0  0
   60.3450   32.5850   49.2230 C   0  0  0  0  0  0  0  0  0  0  0  0
   61.4610   32.6210   48.2630 N   0  0  0  0  0  0  0  0  0  0  0  0
   62.7030   31.8930   48.5530 C   0  0  0  0  0  0  0  0  0  0  0  0
   63.4520   31.5890   47.2610 C   0  0  0  0  0  0  0  0  0  0  0  0
   61.3920   33.4710   47.1000 C   0  0  0  0  0  0  0  0  0  0  0  0
   62.4080   34.1320   46.7500 O   0  0  0  0  0  0  0  0  0  0  0  0
   60.1540   33.5810   46.3030 C   0  0  0  0  0  0  0  0  0  0  0  0
   59.8300   34.7870   45.6630 C   0  0  0  0  0  0  0  0  0  0  0  0
   58.6630   34.8890   44.9010 C   0  0  0  0  0  0  0  0  0  0  0  0
   57.8170   33.7850   44.7610 C   0  0  0  0  0  0  0  0  0  0  0  0
   58.1330   32.5650   45.3870 C   0  0  0  0  0  0  0  0  0  0  0  0
   57.3050   31.4020   45.2230 N   0  0  0  0  0  0  0  0  0  0  0  0
   56.9720   30.8270   43.9510 C   0  0  0  0  0  0  0  0  0  0  0  0
   57.1160   31.4920   42.8890 O   0  0  0  0  0  0  0  0  0  0  0  0
   56.3730   29.4570   43.8870 C   0  0  0  0  0  0  0  0  0  0  0  0
   56.0980   28.9740   45.2450 N   0  0  0  0  0  0  0  0  0  0  0  0
   57.0410   27.9170   45.6350 C   0  0  0  0  0  0  0  0  0  0  0  0
   58.3360   28.5160   46.1140 C   0  0  0  0  0  0  0  0  0  0  0  0
   58.4970   28.8880   47.4600 C   0  0  0  0  0  0  0  0  0  0  0  0
   59.7110   29.4220   47.9010 C   0  0  0  0  0  0  0  0  0  0  0  0
   60.7710   29.5880   47.0050 C   0  0  0  0  0  0  0  0  0  0  0  0
   60.6200   29.2170   45.6660 C   0  0  0  0  0  0  0  0  0  0  0  0
   59.4080   28.6790   45.2210 C   0  0  0  0  0  0  0  0  0  0  0  0
   59.3140   32.4670   46.1390 C   0  0  0  0  0  0  0  0  0  0  0  0
   59.9084   34.0810   50.7168 H   0  0  0  0  0  0  0  0  0  0  0  0
   60.6572   34.7210   49.2147 H   0  0  0  0  0  0  0  0  0  0  0  0
   58.9328   34.2177   49.2147 H   0  0  0  0  0  0  0  0  0  0  0  0
   60.6591   32.0344   50.1220 H   0  0  0  0  0  0  0  0  0  0  0  0
   59.4869   32.0844   48.7507 H   0  0  0  0  0  0  0  0  0  0  0  0
   63.3401   32.5079   49.2057 H   0  0  0  0  0  0  0  0  0  0  0  0
   62.4539   30.9457   49.0535 H   0  0  0  0  0  0  0  0  0  0  0  0
   64.4469   31.1852   47.5002 H   0  0  0  0  0  0  0  0  0  0  0  0
   62.8871   30.8490   46.6751 H   0  0  0  0  0  0  0  0  0  0  0  0
   63.5626   32.5134   46.6751 H   0  0  0  0  0  0  0  0  0  0  0  0
   60.4974   35.6558   45.7615 H   0  0  0  0  0  0  0  0  0  0  0  0
   58.4095   35.8403   44.4102 H   0  0  0  0  0  0  0  0  0  0  0  0
   56.9004   33.8703   44.1589 H   0  0  0  0  0  0  0  0  0  0  0  0
   56.8650   30.9840   46.0740 H   0  0  0  0  0  0  0  0  0  0  0  0
   55.4341   29.4947   43.3151 H   0  0  0  0  0  0  0  0  0  0  0  0
   57.0790   28.7733   43.3930 H   0  0  0  0  0  0  0  0  0  0  0  0
   55.1390   28.5560   45.2440 H   0  0  0  0  0  0  0  0  0  0  0  0
   56.5983   27.3175   46.4441 H   0  0  0  0  0  0  0  0  0  0  0  0
   57.2450   27.2819   44.7603 H   0  0  0  0  0  0  0  0  0  0  0  0
   57.6653   28.7585   48.1681 H   0  0  0  0  0  0  0  0  0  0  0  0
   59.8325   29.7122   48.9551 H   0  0  0  0  0  0  0  0  0  0  0  0
   61.7246   30.0109   47.3540 H   0  0  0  0  0  0  0  0  0  0  0  0
   61.4547   29.3482   44.9617 H   0  0  0  0  0  0  0  0  0  0  0  0
   59.2939   28.3825   44.1679 H   0  0  0  0  0  0  0  0  0  0  0  0
   59.5847   31.5080   46.6048 H   0  0  0  0  0  0  0  0  0  0  0  0
  1  2  1  0
  2  3  1  0
  3  4  1  0
  4  5  1  0
  3  6  1  0
  6  7  2  0
  6  8  1  0
  8  9  2  0
  9 10  1  0
 10 11  2  0
 11 12  1  0
 12 13  1  0
 13 14  1  0
 14 15  2  0
 14 16  1  0
 16 17  1  0
 17 18  1  0
 18 19  1  0
 19 20  2  0
 20 21  1  0
 21 22  2  0
 22 23  1  0
 23 24  2  0
 12 25  2  0
 25  8  1  0
 24 19  1  0
  1 26  1  0
  1 27  1  0
  1 28  1  0
  2 29  1  0
  2 30  1  0
  4 31  1  0
  4 32  1  0
  5 33  1  0
  5 34  1  0
  5 35  1  0
  9 36  1  0
 10 37  1  0
 11 38  1  0
 13 39  1  0
 16 40  1  0
 16 41  1  0
 17 42  1  0
 18 43  1  0
 18 44  1  0
 20 45  1  0
 21 46  1  0
 22 47  1  0
 23 48  1  0
 24 49  1  0
 25 50  1  0
M  END
>  <UniqueID>  (40) 
38

>  <SMILES>  (40) 
CCN(CC)C(=O)c1cccc(NC(=O)CNCc2ccccc2)c1

>  <Energy>  (40) 
48.388569160958724

>  <Genealogy>  (40) 
CCN(CC)C(=O)c1cccc(NC(=O)CNCc2ccccc2)c1 (3D coordinates assigned)
CCN(CC)C(=O)c1cccc(NC(=O)CNCc2ccccc2)c1 (optimized conformer: 48.388569160958724 kcal/mol)

>  <smiles>  (40) 
CCN(CC)C(=O)c1cccc(NC(=O)CNCc2ccccc2)c1

>  <score_type>  (40) 
oracle

>  <origin>  (40) 
adg

>  <m_score__min__energy>  (40) 
-8.5700000000000003

>  <m_primary>  (40) 
energy

$$$$
41:0
     RDKit          3D

 41 41  0  0  0  0  0  0  0  0999 V2000
   61.0911   30.9453   47.6410 H   0  0  0  0  0  0  0  0  0  0  0  0
   60.7420   31.9880   47.6720 C   0  0  0  0  0  0  0  0  0  0  0  0
   59.8870   32.4650   46.6750 C   0  0  0  0  0  0  0  0  0  0  0  0
   59.5728   31.7978   45.8588 H   0  0  0  0  0  0  0  0  0  0  0  0
   59.4270   33.7900   46.7090 C   0  0  0  0  0  0  0  0  0  0  0  0
   58.5350   34.3120   45.6130 C   0  0  0  0  0  0  0  0  0  0  0  0
   57.4880   34.0784   45.8563 H   0  0  0  0  0  0  0  0  0  0  0  0
   58.6716   35.4004   45.5313 H   0  0  0  0  0  0  0  0  0  0  0  0
   58.8980   33.6640   44.2700 C   0  0  0  0  0  0  0  0  0  0  0  0
   59.1251   34.4608   43.5464 H   0  0  0  0  0  0  0  0  0  0  0  0
   59.7640   33.0085   44.4444 H   0  0  0  0  0  0  0  0  0  0  0  0
   57.7680   32.7910   43.6990 C   0  0  0  0  0  0  0  0  0  0  0  0
   57.1446   33.4152   43.0419 H   0  0  0  0  0  0  0  0  0  0  0  0
   58.2445   31.9600   43.1583 H   0  0  0  0  0  0  0  0  0  0  0  0
   56.8650   32.1680   44.7780 C   0  0  0  0  0  0  0  0  0  0  0  0
   57.0274   32.6977   45.7283 H   0  0  0  0  0  0  0  0  0  0  0  0
   55.8200   32.2630   44.4478 H   0  0  0  0  0  0  0  0  0  0  0  0
   57.1550   30.7490   44.9710 N   0  0  0  0  0  0  0  0  0  0  0  0
   56.5420   29.7450   44.4110 C   0  0  0  0  0  0  0  0  0  0  0  0
   57.1010   29.0440   43.2930 N   0  0  0  0  0  0  0  0  0  0  0  0
   58.0300   29.2810   42.8850 H   0  0  0  0  0  0  0  0  0  0  0  0
   56.5760   28.2500   42.8630 H   0  0  0  0  0  0  0  0  0  0  0  0
   55.2790   29.3300   44.9330 N   0  0  0  0  0  0  0  0  0  0  0  0
   54.7670   28.5270   44.5060 H   0  0  0  0  0  0  0  0  0  0  0  0
   54.8520   29.8270   45.7460 H   0  0  0  0  0  0  0  0  0  0  0  0
   59.8510   34.6400   47.7420 C   0  0  0  0  0  0  0  0  0  0  0  0
   59.5099   35.6855   47.7662 H   0  0  0  0  0  0  0  0  0  0  0  0
   60.7050   34.1630   48.7400 C   0  0  0  0  0  0  0  0  0  0  0  0
   61.0246   34.8332   49.5516 H   0  0  0  0  0  0  0  0  0  0  0  0
   61.1580   32.8340   48.7140 C   0  0  0  0  0  0  0  0  0  0  0  0
   62.0950   32.3320   49.7810 C   0  0  0  0  0  0  0  0  0  0  0  0
   62.0443   31.2338   49.8190 H   0  0  0  0  0  0  0  0  0  0  0  0
   61.7933   32.7608   50.7480 H   0  0  0  0  0  0  0  0  0  0  0  0
   63.5170   32.7540   49.4830 C   0  0  0  0  0  0  0  0  0  0  0  0
   64.2610   33.4230   50.5090 N   0  0  0  0  0  0  0  0  0  0  0  0
   65.2380   33.7470   50.3400 H   0  0  0  0  0  0  0  0  0  0  0  0
   63.8380   33.5960   51.4480 H   0  0  0  0  0  0  0  0  0  0  0  0
   64.0690   32.5690   48.3140 N   0  0  0  0  0  0  0  0  0  0  0  0
   64.8130   31.8430   48.2030 H   0  0  0  0  0  0  0  0  0  0  0  0
   63.7140   33.2940   47.1640 C   0  0  0  0  0  0  0  0  0  0  0  0
   63.4260   33.8920   46.2150 N   0  0  0  0  0  0  0  0  0  0  0  0
  1  2  1  0
  2  3  2  0
  3  4  1  0
  3  5  1  0
  5  6  1  0
  6  7  1  0
  6  8  1  0
  6  9  1  0
  9 10  1  0
  9 11  1  0
  9 12  1  0
 12 13  1  0
 12 14  1  0
 12 15  1  0
 15 16  1  0
 15 17  1  0
 15 18  1  0
 18 19  2  3
 19 20  1  0
 20 21  1  0
 20 22  1  0
 19 23  1  0
 23 24  1  0
 23 25  1  0
  5 26  2  0
 26 27  1  0
 26 28  1  0
 28 29  1  0
 28 30  2  0
 30 31  1  0
 31 32  1  0
 31 33  1  0
 31 34  1  0
 34 35  1  0
 35 36  1  0
 35 37  1  0
 34 38  2  0
 38 39  1  0
 38 40  1  0
 40 41  3  0
 30  2  1  0
M  CHG  1  38   1
M  END
>  <UniqueID>  (41) 
39

>  <SMILES>  (41) 
N#C/[NH+]=C(/N)Cc1ccc(CCCCN=C(N)N)cc1

>  <Energy>  (41) 
29.340512349062283

>  <Genealogy>  (41) 
N#C[NH+]=C(N)Cc1ccc(CCCCN=C(N)N)cc1 (protonated)
N#C/[NH+]=C(/N)Cc1ccc(CCCCN=C(N)N)cc1 (cis-trans isomerization)
N#C/[NH+]=C(/N)Cc1ccc(CCCCN=C(N)N)cc1 (3D coordinates assigned)
N#C/[NH+]=C(/N)Cc1ccc(CCCCN=C(N)N)cc1 (optimized conformer: 29.340512349062283 kcal/mol)

>  <smiles>  (41) 
N#CN=C(N)Cc1ccc(CCCCN=C(N)N)cc1

>  <score_type>  (41) 
oracle

>  <origin>  (41) 
adg

>  <m_score__min__energy>  (41) 
-6.9400000000000004

>  <m_primary>  (41) 
energy

$$$$
42:0
     RDKit          3D

 49 51  0  0  0  0  0  0  0  0999 V2000
   54.2560   24.7920   45.5930 C   0  0  0  0  0  0  0  0  0  0  0  0
   55.6040   25.3890   45.9950 C   0  0  0  0  0  0  0  0  0  0  0  0
   55.5470   26.8470   45.9960 N   0  0  0  0  0  0  0  0  0  0  0  0
   56.6850   27.7020   45.8340 C   0  0  0  0  0  0  0  0  0  0  0  0
   57.5750   27.7500   46.7240 O   0  0  0  0  0  0  0  0  0  0  0  0
   56.8690   28.4800   44.5550 C   0  0  0  0  0  0  0  0  0  0  0  0
   58.3250   28.9780   44.3880 C   0  0  0  0  0  0  0  0  0  0  0  0
   58.5120   30.3880   44.9660 C   0  0  0  0  0  0  0  0  0  0  0  0
   57.6140   31.3860   44.3320 N   0  0  0  0  0  0  0  0  0  0  0  0
   57.4130   32.6090   45.1470 C   0  0  0  0  0  0  0  0  0  0  0  0
   58.5690   32.9210   46.0780 C   0  0  0  0  0  0  0  0  0  0  0  0
   58.5620   32.4580   47.4070 C   0  0  0  0  0  0  0  0  0  0  0  0
   59.6720   32.6570   48.2320 C   0  0  0  0  0  0  0  0  0  0  0  0
   60.7950   33.3570   47.7580 C   0  0  0  0  0  0  0  0  0  0  0  0
   61.9950   33.5180   48.6120 C   0  0  0  0  0  0  0  0  0  0  0  0
   61.8960   34.1480   49.8670 C   0  0  0  0  0  0  0  0  0  0  0  0
   63.0220   34.2720   50.6860 C   0  0  0  0  0  0  0  0  0  0  0  0
   64.2560   33.7790   50.2580 C   0  0  0  0  0  0  0  0  0  0  0  0
   64.3680   33.1610   49.0110 C   0  0  0  0  0  0  0  0  0  0  0  0
   63.2430   33.0250   48.1910 C   0  0  0  0  0  0  0  0  0  0  0  0
   60.7730   33.8820   46.4540 C   0  0  0  0  0  0  0  0  0  0  0  0
   59.6670   33.6710   45.6260 C   0  0  0  0  0  0  0  0  0  0  0  0
   56.3800   30.8390   43.7180 C   0  0  0  0  0  0  0  0  0  0  0  0
   55.8350   29.6270   44.4880 C   0  0  0  0  0  0  0  0  0  0  0  0
   53.6831   24.5383   46.4971 H   0  0  0  0  0  0  0  0  0  0  0  0
   53.6936   25.5252   44.9963 H   0  0  0  0  0  0  0  0  0  0  0  0
   54.4210   23.8828   44.9963 H   0  0  0  0  0  0  0  0  0  0  0  0
   55.8671   25.0380   47.0037 H   0  0  0  0  0  0  0  0  0  0  0  0
   56.3628   25.0670   45.2666 H   0  0  0  0  0  0  0  0  0  0  0  0
   56.6858   27.8095   43.7025 H   0  0  0  0  0  0  0  0  0  0  0  0
   59.0009   28.2856   44.9112 H   0  0  0  0  0  0  0  0  0  0  0  0
   58.5539   29.0147   43.3127 H   0  0  0  0  0  0  0  0  0  0  0  0
   58.3001   30.3579   46.0450 H   0  0  0  0  0  0  0  0  0  0  0  0
   59.5487   30.6965   44.7659 H   0  0  0  0  0  0  0  0  0  0  0  0
   57.2769   33.4615   44.4653 H   0  0  0  0  0  0  0  0  0  0  0  0
   56.5310   32.4309   45.7798 H   0  0  0  0  0  0  0  0  0  0  0  0
   57.6767   31.9359   47.7989 H   0  0  0  0  0  0  0  0  0  0  0  0
   59.6670   32.2633   49.2591 H   0  0  0  0  0  0  0  0  0  0  0  0
   60.9274   34.5448   50.2050 H   0  0  0  0  0  0  0  0  0  0  0  0
   62.9357   34.7585   51.6688 H   0  0  0  0  0  0  0  0  0  0  0  0
   65.1410   33.8775   50.9038 H   0  0  0  0  0  0  0  0  0  0  0  0
   65.3430   32.7803   48.6727 H   0  0  0  0  0  0  0  0  0  0  0  0
   63.3348   32.5304   47.2128 H   0  0  0  0  0  0  0  0  0  0  0  0
   61.6310   34.4620   46.0834 H   0  0  0  0  0  0  0  0  0  0  0  0
   59.6564   34.0961   44.6115 H   0  0  0  0  0  0  0  0  0  0  0  0
   55.6115   31.6259   43.7067 H   0  0  0  0  0  0  0  0  0  0  0  0
   56.6291   30.5069   42.6994 H   0  0  0  0  0  0  0  0  0  0  0  0
   55.5824   29.9394   45.5120 H   0  0  0  0  0  0  0  0  0  0  0  0
   54.9453   29.2560   43.9582 H   0  0  0  0  0  0  0  0  0  0  0  0
  1  2  1  0
  2  3  1  0
  3  4  1  0
  4  5  2  0
  4  6  1  0
  6  7  1  0
  7  8  1  0
  8  9  1  0
  9 10  1  0
 10 11  1  0
 11 12  2  0
 12 13  1  0
 13 14  2  0
 14 15  1  0
 15 16  2  0
 16 17  1  0
 17 18  2  0
 18 19  1  0
 19 20  2  0
 14 21  1  0
 21 22  2  0
  9 23  1  0
 23 24  1  0
 24  6  1  0
 22 11  1  0
 20 15  1  0
  1 25  1  0
  1 26  1  0
  1 27  1  0
  2 28  1  0
  2 29  1  0
  6 30  1  0
  7 31  1  0
  7 32  1  0
  8 33  1  0
  8 34  1  0
 10 35  1  0
 10 36  1  0
 12 37  1  0
 13 38  1  0
 16 39  1  0
 17 40  1  0
 18 41  1  0
 19 42  1  0
 20 43  1  0
 21 44  1  0
 22 45  1  0
 23 46  1  0
 23 47  1  0
 24 48  1  0
 24 49  1  0
M  CHG  1   3  -1
M  END
>  <UniqueID>  (42) 
40

>  <SMILES>  (42) 
CC[N-]C(=O)C1CCN(Cc2ccc(-c3ccccc3)cc2)CC1

>  <Energy>  (42) 
60.502052424497634

>  <Genealogy>  (42) 
CC[N-]C(=O)C1CCN(Cc2ccc(-c3ccccc3)cc2)CC1 (protonated)
CC[N-]C(=O)C1CCN(Cc2ccc(-c3ccccc3)cc2)CC1 (3D coordinates assigned)
CC[N-]C(=O)C1CCN(Cc2ccc(-c3ccccc3)cc2)CC1 (nonaromatic ring conformer: 60.502052424497634 kcal/mol)

>  <smiles>  (42) 
CCNC(=O)C1CCN(Cc2ccc(-c3ccccc3)cc2)CC1

>  <score_type>  (42) 
oracle

>  <origin>  (42) 
adg

>  <m_score__min__energy>  (42) 
-10.18

>  <m_primary>  (42) 
energy

$$$$
43:0
     RDKit          3D

 42 44  0  0  0  0  0  0  0  0999 V2000
   61.0080   34.2150   48.7260 C   0  0  0  0  0  0  0  0  0  0  0  0
   60.7920   32.7720   48.3740 C   0  0  0  0  0  0  0  0  0  0  0  0
   59.7740   32.0370   48.9990 C   0  0  0  0  0  0  0  0  0  0  0  0
   59.5970   30.6840   48.6990 C   0  0  0  0  0  0  0  0  0  0  0  0
   60.4560   30.0400   47.7900 C   0  0  0  0  0  0  0  0  0  0  0  0
   60.2910   28.6550   47.4530 N   0  0  0  0  0  0  0  0  0  0  0  0
   59.8530   28.1550   46.1830 C   0  0  0  0  0  0  0  0  0  0  0  0
   60.5080   27.2310   45.6340 O   0  0  0  0  0  0  0  0  0  0  0  0
   58.6340   28.6620   45.5300 C   0  0  0  0  0  0  0  0  0  0  0  0
   57.3320   28.2430   45.7610 C   0  0  0  0  0  0  0  0  0  0  0  0
   56.5450   29.0230   44.9430 C   0  0  0  0  0  0  0  0  0  0  0  0
   55.1580   28.9550   44.8750 O   0  0  0  0  0  0  0  0  0  0  0  0
   57.2950   29.8790   44.2230 N   0  0  0  0  0  0  0  0  0  0  0  0
   56.8120   30.9380   43.3380 C   0  0  0  0  0  0  0  0  0  0  0  0
   57.8760   32.0270   43.1470 C   0  0  0  0  0  0  0  0  0  0  0  0
   58.0310   32.8740   44.3850 C   0  0  0  0  0  0  0  0  0  0  0  0
   59.0550   33.8340   44.4610 C   0  0  0  0  0  0  0  0  0  0  0  0
   59.2270   34.5870   45.6260 C   0  0  0  0  0  0  0  0  0  0  0  0
   58.3850   34.3860   46.7230 C   0  0  0  0  0  0  0  0  0  0  0  0
   57.3690   33.4280   46.6570 C   0  0  0  0  0  0  0  0  0  0  0  0
   57.1940   32.6710   45.4960 C   0  0  0  0  0  0  0  0  0  0  0  0
   58.5790   29.6630   44.5750 C   0  0  0  0  0  0  0  0  0  0  0  0
   61.4660   30.7770   47.1620 C   0  0  0  0  0  0  0  0  0  0  0  0
   61.6430   32.1320   47.4600 C   0  0  0  0  0  0  0  0  0  0  0  0
   61.0248   34.3270   49.8202 H   0  0  0  0  0  0  0  0  0  0  0  0
   61.9670   34.5548   48.3079 H   0  0  0  0  0  0  0  0  0  0  0  0
   60.1905   34.8207   48.3079 H   0  0  0  0  0  0  0  0  0  0  0  0
   59.1125   32.5277   49.7281 H   0  0  0  0  0  0  0  0  0  0  0  0
   58.7821   30.1196   49.1759 H   0  0  0  0  0  0  0  0  0  0  0  0
   56.9985   27.4544   46.4516 H   0  0  0  0  0  0  0  0  0  0  0  0
   56.5640   30.5025   42.3588 H   0  0  0  0  0  0  0  0  0  0  0  0
   55.9220   31.3957   43.7945 H   0  0  0  0  0  0  0  0  0  0  0  0
   58.8398   31.5485   42.9188 H   0  0  0  0  0  0  0  0  0  0  0  0
   57.5564   32.6795   42.3211 H   0  0  0  0  0  0  0  0  0  0  0  0
   59.7227   33.9931   43.6014 H   0  0  0  0  0  0  0  0  0  0  0  0
   60.0273   35.3398   45.6794 H   0  0  0  0  0  0  0  0  0  0  0  0
   58.5216   34.9812   47.6379 H   0  0  0  0  0  0  0  0  0  0  0  0
   56.7063   33.2700   47.5206 H   0  0  0  0  0  0  0  0  0  0  0  0
   56.3981   31.9131   45.4510 H   0  0  0  0  0  0  0  0  0  0  0  0
   59.4482   30.1993   44.1665 H   0  0  0  0  0  0  0  0  0  0  0  0
   62.1248   30.2878   46.4295 H   0  0  0  0  0  0  0  0  0  0  0  0
   62.4524   32.6982   46.9760 H   0  0  0  0  0  0  0  0  0  0  0  0
  1  2  1  0
  2  3  2  0
  3  4  1  0
  4  5  2  0
  5  6  1  0
  6  7  1  0
  7  8  2  0
  7  9  1  0
  9 10  1  0
 10 11  2  0
 11 12  1  0
 11 13  1  0
 13 14  1  0
 14 15  1  0
 15 16  1  0
 16 17  2  0
 17 18  1  0
 18 19  2  0
 19 20  1  0
 20 21  2  0
 13 22  1  0
  5 23  1  0
 23 24  2  0
 24  2  1  0
 22  9  2  0
 21 16  1  0
  1 25  1  0
  1 26  1  0
  1 27  1  0
  3 28  1  0
  4 29  1  0
 10 30  1  0
 14 31  1  0
 14 32  1  0
 15 33  1  0
 15 34  1  0
 17 35  1  0
 18 36  1  0
 19 37  1  0
 20 38  1  0
 21 39  1  0
 22 40  1  0
 23 41  1  0
 24 42  1  0
M  CHG  2   6  -1  12  -1
M  END
>  <UniqueID>  (43) 
41

>  <SMILES>  (43) 
Cc1ccc([N-]C(=O)c2cc([O-])n(CCc3ccccc3)c2)cc1

>  <Energy>  (43) 
69.8872878885291

>  <Genealogy>  (43) 
Cc1ccc([N-]C(=O)c2cc([O-])n(CCc3ccccc3)c2)cc1 (protonated)
Cc1ccc([N-]C(=O)c2cc([O-])n(CCc3ccccc3)c2)cc1 (3D coordinates assigned)
Cc1ccc([N-]C(=O)c2cc([O-])n(CCc3ccccc3)c2)cc1 (optimized conformer: 69.8872878885291 kcal/mol)

>  <smiles>  (43) 
Cc1ccc(NC(=O)c2cc(O)n(CCc3ccccc3)c2)cc1

>  <score_type>  (43) 
oracle

>  <origin>  (43) 
adg

>  <m_score__min__energy>  (43) 
-12.01

>  <m_primary>  (43) 
energy

$$$$
44:0
     RDKit          3D

 34 34  0  0  0  0  0  0  0  0999 V2000
   61.1110   30.8230   47.0430 C   0  0  0  0  0  0  0  0  0  0  0  0
   60.5090   30.0710   45.9980 O   0  0  0  0  0  0  0  0  0  0  0  0
   59.4090   29.2360   46.2110 C   0  0  0  0  0  0  0  0  0  0  0  0
   59.0450   28.9340   47.3810 O   0  0  0  0  0  0  0  0  0  0  0  0
   58.6070   28.7920   45.0670 C   0  0  0  0  0  0  0  0  0  0  0  0
   58.7880   27.6170   44.4270 C   0  0  0  0  0  0  0  0  0  0  0  0
   57.7860   26.8950   43.6650 N   0  0  0  0  0  0  0  0  0  0  0  0
   58.1660   26.7040   42.2540 C   0  0  0  0  0  0  0  0  0  0  0  0
   57.3910   25.6310   44.3070 C   0  0  0  0  0  0  0  0  0  0  0  0
   57.3050   29.8500   44.5350 S   0  0  0  0  0  0  0  0  0  0  0  0
   57.0850   29.6950   43.0550 O   0  0  0  0  0  0  0  0  0  0  0  0
   56.0310   29.4800   45.2420 O   0  0  0  0  0  0  0  0  0  0  0  0
   57.7410   31.5190   44.8870 C   0  0  0  0  0  0  0  0  0  0  0  0
   58.0830   32.3880   43.8410 C   0  0  0  0  0  0  0  0  0  0  0  0
   58.4510   33.7080   44.1180 C   0  0  0  0  0  0  0  0  0  0  0  0
   58.4850   34.1640   45.4380 C   0  0  0  0  0  0  0  0  0  0  0  0
   58.1530   33.2990   46.4850 C   0  0  0  0  0  0  0  0  0  0  0  0
   57.7830   31.9780   46.2120 C   0  0  0  0  0  0  0  0  0  0  0  0
   60.7898   30.4217   48.0155 H   0  0  0  0  0  0  0  0  0  0  0  0
   62.2057   30.7534   46.9611 H   0  0  0  0  0  0  0  0  0  0  0  0
   60.8034   31.8759   46.9611 H   0  0  0  0  0  0  0  0  0  0  0  0
   59.7887   27.1646   44.4890 H   0  0  0  0  0  0  0  0  0  0  0  0
   56.9320   27.5020   43.6610 H   0  0  0  0  0  0  0  0  0  0  0  0
   59.1477   26.2105   42.2022 H   0  0  0  0  0  0  0  0  0  0  0  0
   57.4136   26.0770   41.7533 H   0  0  0  0  0  0  0  0  0  0  0  0
   58.2203   27.6819   41.7533 H   0  0  0  0  0  0  0  0  0  0  0  0
   57.4275   25.7479   45.4002 H   0  0  0  0  0  0  0  0  0  0  0  0
   56.3679   25.3681   44.0003 H   0  0  0  0  0  0  0  0  0  0  0  0
   58.0824   24.8323   44.0003 H   0  0  0  0  0  0  0  0  0  0  0  0
   58.0617   32.0306   42.8009 H   0  0  0  0  0  0  0  0  0  0  0  0
   58.7143   34.3888   43.2950 H   0  0  0  0  0  0  0  0  0  0  0  0
   58.7730   35.2035   45.6536 H   0  0  0  0  0  0  0  0  0  0  0  0
   58.1828   33.6576   47.5245 H   0  0  0  0  0  0  0  0  0  0  0  0
   57.5246   31.2982   47.0373 H   0  0  0  0  0  0  0  0  0  0  0  0
  1  2  1  0
  2  3  1  0
  3  4  2  0
  3  5  1  0
  5  6  2  3
  6  7  1  0
  7  8  1  0
  7  9  1  0
  5 10  1  0
 10 11  2  0
 10 12  2  0
 10 13  1  0
 13 14  2  0
 14 15  1  0
 15 16  2  0
 16 17  1  0
 17 18  2  0
 18 13  1  0
  1 19  1  0
  1 20  1  0
  1 21  1  0
  6 22  1  0
  7 23  1  0
  8 24  1  0
  8 25  1  0
  8 26  1  0
  9 27  1  0
  9 28  1  0
  9 29  1  0
 14 30  1  0
 15 31  1  0
 16 32  1  0
 17 33  1  0
 18 34  1  0
M  CHG  1   7   1
M  END
>  <UniqueID>  (44) 
42

>  <SMILES>  (44) 
COC(=O)C(=C[NH+](C)C)S(=O)(=O)c1ccccc1

>  <Energy>  (44) 
43.04266663919495

>  <Genealogy>  (44) 
COC(=O)C(=C[NH+](C)C)S(=O)(=O)c1ccccc1 (protonated)
COC(=O)C(=C[NH+](C)C)S(=O)(=O)c1ccccc1 (3D coordinates assigned)
COC(=O)C(=C[NH+](C)C)S(=O)(=O)c1ccccc1 (optimized conformer: 43.04266663919495 kcal/mol)

>  <smiles>  (44) 
COC(=O)C(=CN(C)C)S(=O)(=O)c1ccccc1

>  <score_type>  (44) 
oracle

>  <origin>  (44) 
adg

>  <m_score__min__energy>  (44) 
-4.6699999999999999

>  <m_primary>  (44) 
energy

$$$$
45:0
     RDKit          3D

 44 47  0  0  0  0  0  0  0  0999 V2000
   55.1450   28.9890   44.6400 N   0  0  0  0  0  0  0  0  0  0  0  0
   56.1350   29.8320   44.0540 C   0  0  0  0  0  0  0  0  0  0  0  0
   56.0650   30.0750   42.8190 O   0  0  0  0  0  0  0  0  0  0  0  0
   57.2340   30.4200   44.8720 C   0  0  0  0  0  0  0  0  0  0  0  0
   57.8710   29.6230   45.8380 C   0  0  0  0  0  0  0  0  0  0  0  0
   58.8860   30.1110   46.6100 N   0  0  0  0  0  0  0  0  0  0  0  0
   59.4920   29.2040   47.5500 C   0  0  0  0  0  0  0  0  0  0  0  0
   60.1360   28.0450   47.0910 C   0  0  0  0  0  0  0  0  0  0  0  0
   60.7190   27.1580   48.0000 C   0  0  0  0  0  0  0  0  0  0  0  0
   60.6670   27.4260   49.3720 C   0  0  0  0  0  0  0  0  0  0  0  0
   61.2320   26.5640   50.2530 F   0  0  0  0  0  0  0  0  0  0  0  0
   60.0330   28.5830   49.8350 C   0  0  0  0  0  0  0  0  0  0  0  0
   59.4480   29.4730   48.9280 C   0  0  0  0  0  0  0  0  0  0  0  0
   58.8380   30.5940   49.3870 F   0  0  0  0  0  0  0  0  0  0  0  0
   59.3110   31.4130   46.4810 C   0  0  0  0  0  0  0  0  0  0  0  0
   60.3360   31.9410   47.2990 C   0  0  0  0  0  0  0  0  0  0  0  0
   60.7670   33.2660   47.1550 C   0  0  0  0  0  0  0  0  0  0  0  0
   61.8150   33.7740   47.9980 N   0  0  0  0  0  0  0  0  0  0  0  0
   63.1980   33.8000   47.5060 C   0  0  0  0  0  0  0  0  0  0  0  0
   64.0780   32.8720   48.3440 C   0  0  0  0  0  0  0  0  0  0  0  0
   64.0050   33.1840   50.1540 S   0  0  0  0  0  0  0  0  0  0  0  0
   62.7520   34.5160   50.1810 C   0  0  0  0  0  0  0  0  0  0  0  0
   61.5030   34.1210   49.3910 C   0  0  0  0  0  0  0  0  0  0  0  0
   60.1740   34.0840   46.1850 C   0  0  0  0  0  0  0  0  0  0  0  0
   60.6030   35.3570   46.0010 F   0  0  0  0  0  0  0  0  0  0  0  0
   59.1510   33.5860   45.3780 C   0  0  0  0  0  0  0  0  0  0  0  0
   58.7060   32.2560   45.5170 C   0  0  0  0  0  0  0  0  0  0  0  0
   57.6680   31.7520   44.7130 C   0  0  0  0  0  0  0  0  0  0  0  0
   57.1250   32.4980   43.8520 O   0  0  0  0  0  0  0  0  0  0  0  0
   54.3960   29.3820   45.2520 H   0  0  0  0  0  0  0  0  0  0  0  0
   57.5444   28.5816   45.9755 H   0  0  0  0  0  0  0  0  0  0  0  0
   60.1821   27.8339   46.0124 H   0  0  0  0  0  0  0  0  0  0  0  0
   61.2192   26.2483   47.6363 H   0  0  0  0  0  0  0  0  0  0  0  0
   59.9942   28.7937   50.9139 H   0  0  0  0  0  0  0  0  0  0  0  0
   60.8031   31.3004   48.0616 H   0  0  0  0  0  0  0  0  0  0  0  0
   63.2162   33.4680   46.4575 H   0  0  0  0  0  0  0  0  0  0  0  0
   63.5857   34.8265   47.5836 H   0  0  0  0  0  0  0  0  0  0  0  0
   63.7575   31.8359   48.1605 H   0  0  0  0  0  0  0  0  0  0  0  0
   65.1166   33.0613   48.0349 H   0  0  0  0  0  0  0  0  0  0  0  0
   62.4670   34.7186   51.2239 H   0  0  0  0  0  0  0  0  0  0  0  0
   63.1881   35.4121   49.7153 H   0  0  0  0  0  0  0  0  0  0  0  0
   61.0367   33.2513   49.8769 H   0  0  0  0  0  0  0  0  0  0  0  0
   60.8228   34.9854   49.3798 H   0  0  0  0  0  0  0  0  0  0  0  0
   58.6863   34.2389   44.6245 H   0  0  0  0  0  0  0  0  0  0  0  0
  1  2  1  0
  2  3  2  0
  2  4  1  0
  4  5  2  0
  5  6  1  0
  6  7  1  0
  7  8  2  0
  8  9  1  0
  9 10  2  0
 10 11  1  0
 10 12  1  0
 12 13  2  0
 13 14  1  0
  6 15  1  0
 15 16  2  0
 16 17  1  0
 17 18  1  0
 18 19  1  0
 19 20  1  0
 20 21  1  0
 21 22  1  0
 22 23  1  0
 17 24  2  0
 24 25  1  0
 24 26  1  0
 26 27  2  0
 27 28  1  0
 28 29  2  0
 28  4  1  0
 13  7  1  0
 27 15  1  0
 23 18  1  0
  1 30  1  0
  5 31  1  0
  8 32  1  0
  9 33  1  0
 12 34  1  0
 16 35  1  0
 19 36  1  0
 19 37  1  0
 20 38  1  0
 20 39  1  0
 22 40  1  0
 22 41  1  0
 23 42  1  0
 23 43  1  0
 26 44  1  0
M  CHG  1   1  -1
M  END
>  <UniqueID>  (45) 
43

>  <SMILES>  (45) 
[NH-]C(=O)c1cn(-c2ccc(F)cc2F)c2cc(N3CCSCC3)c(F)cc2c1=O

>  <Energy>  (45) 
70.97847166660287

>  <Genealogy>  (45) 
[NH-]C(=O)c1cn(-c2ccc(F)cc2F)c2cc(N3CCSCC3)c(F)cc2c1=O (protonated)
[NH-]C(=O)c1cn(-c2ccc(F)cc2F)c2cc(N3CCSCC3)c(F)cc2c1=O (3D coordinates assigned)
[NH-]C(=O)c1cn(-c2ccc(F)cc2F)c2cc(N3CCSCC3)c(F)cc2c1=O (nonaromatic ring conformer: 70.97847166660287 kcal/mol)

>  <smiles>  (45) 
NC(=O)c1cn(-c2ccc(F)cc2F)c2cc(N3CCSCC3)c(F)cc2c1=O

>  <score_type>  (45) 
oracle

>  <origin>  (45) 
adg

>  <m_score__min__energy>  (45) 
-11.119999999999999

>  <m_primary>  (45) 
energy

$$$$
46:0
     RDKit          3D

 53 55  0  0  0  0  0  0  0  0999 V2000
   62.1400   33.1560   47.2970 C   0  0  0  0  0  0  0  0  0  0  0  0
   60.7790   33.5000   47.5300 O   0  0  0  0  0  0  0  0  0  0  0  0
   59.7890   33.5390   46.5350 C   0  0  0  0  0  0  0  0  0  0  0  0
   59.4240   34.7350   45.8820 C   0  0  0  0  0  0  0  0  0  0  0  0
   58.4290   34.7310   44.8990 C   0  0  0  0  0  0  0  0  0  0  0  0
   57.7820   33.5410   44.5570 C   0  0  0  0  0  0  0  0  0  0  0  0
   58.1350   32.3450   45.1970 C   0  0  0  0  0  0  0  0  0  0  0  0
   57.5030   31.1380   44.8850 C   0  0  0  0  0  0  0  0  0  0  0  0
   57.8690   29.9630   45.5590 C   0  0  0  0  0  0  0  0  0  0  0  0
   57.1790   28.6900   45.2400 C   0  0  0  0  0  0  0  0  0  0  0  0
   55.9720   28.7230   44.8750 O   0  0  0  0  0  0  0  0  0  0  0  0
   57.8730   27.4330   45.3450 N   0  0  0  0  0  0  0  0  0  0  0  0
   57.3160   26.1700   44.9480 C   0  0  0  0  0  0  0  0  0  0  0  0
   56.3940   25.4850   45.7580 C   0  0  0  0  0  0  0  0  0  0  0  0
   55.9220   24.2220   45.3760 C   0  0  0  0  0  0  0  0  0  0  0  0
   56.3640   23.6230   44.1900 C   0  0  0  0  0  0  0  0  0  0  0  0
   55.8740   22.3440   43.8670 O   0  0  0  0  0  0  0  0  0  0  0  0
   56.6210   21.1280   43.9550 C   0  0  0  0  0  0  0  0  0  0  0  0
   57.4010   21.0560   45.2780 C   0  0  0  0  0  0  0  0  0  0  0  0
   56.4610   21.0220   46.5150 C   0  0  0  0  0  0  0  0  0  0  0  0
   57.0780   21.4950   47.7780 N   0  0  0  0  0  0  0  0  0  0  0  0
   56.5730   22.8050   48.2230 C   0  0  0  0  0  0  0  0  0  0  0  0
   57.0130   20.4960   48.8570 C   0  0  0  0  0  0  0  0  0  0  0  0
   57.2850   24.3130   43.3770 C   0  0  0  0  0  0  0  0  0  0  0  0
   57.7640   25.5680   43.7630 C   0  0  0  0  0  0  0  0  0  0  0  0
   58.9110   30.0410   46.5090 C   0  0  0  0  0  0  0  0  0  0  0  0
   59.3290   29.0060   47.0940 O   0  0  0  0  0  0  0  0  0  0  0  0
   59.4870   31.2080   46.7830 O   0  0  0  0  0  0  0  0  0  0  0  0
   59.1430   32.3440   46.1850 C   0  0  0  0  0  0  0  0  0  0  0  0
   62.6553   33.0257   48.2601 H   0  0  0  0  0  0  0  0  0  0  0  0
   62.1883   32.2174   46.7254 H   0  0  0  0  0  0  0  0  0  0  0  0
   62.6285   33.9589   46.7254 H   0  0  0  0  0  0  0  0  0  0  0  0
   59.9254   35.6773   46.1478 H   0  0  0  0  0  0  0  0  0  0  0  0
   58.1548   35.6686   44.3932 H   0  0  0  0  0  0  0  0  0  0  0  0
   56.9968   33.5426   43.7867 H   0  0  0  0  0  0  0  0  0  0  0  0
   56.7203   31.1093   44.1126 H   0  0  0  0  0  0  0  0  0  0  0  0
   58.8620   27.4310   45.6800 H   0  0  0  0  0  0  0  0  0  0  0  0
   56.0418   25.9417   46.6947 H   0  0  0  0  0  0  0  0  0  0  0  0
   55.1969   23.6958   46.0143 H   0  0  0  0  0  0  0  0  0  0  0  0
   55.9284   20.2753   43.8987 H   0  0  0  0  0  0  0  0  0  0  0  0
   57.3390   21.0963   43.1223 H   0  0  0  0  0  0  0  0  0  0  0  0
   58.0170   20.1446   45.2765 H   0  0  0  0  0  0  0  0  0  0  0  0
   58.0226   21.9605   45.3521 H   0  0  0  0  0  0  0  0  0  0  0  0
   55.5898   21.6584   46.3004 H   0  0  0  0  0  0  0  0  0  0  0  0
   56.1980   19.9660   46.6752 H   0  0  0  0  0  0  0  0  0  0  0  0
   56.5600   22.8388   49.3224 H   0  0  0  0  0  0  0  0  0  0  0  0
   57.2290   23.6004   47.8395 H   0  0  0  0  0  0  0  0  0  0  0  0
   55.5529   22.9543   47.8395 H   0  0  0  0  0  0  0  0  0  0  0  0
   57.0462   21.0058   49.8312 H   0  0  0  0  0  0  0  0  0  0  0  0
   56.0759   19.9261   48.7731 H   0  0  0  0  0  0  0  0  0  0  0  0
   57.8684   19.8095   48.7731 H   0  0  0  0  0  0  0  0  0  0  0  0
   57.6285   23.8620   42.4344 H   0  0  0  0  0  0  0  0  0  0  0  0
   58.4992   26.0884   43.1316 H   0  0  0  0  0  0  0  0  0  0  0  0
  1  2  1  0
  2  3  1  0
  3  4  2  0
  4  5  1  0
  5  6  2  0
  6  7  1  0
  7  8  1  0
  8  9  2  0
  9 10  1  0
 10 11  2  0
 10 12  1  0
 12 13  1  0
 13 14  2  0
 14 15  1  0
 15 16  2  0
 16 17  1  0
 17 18  1  0
 18 19  1  0
 19 20  1  0
 20 21  1  0
 21 22  1  0
 21 23  1  0
 16 24  1  0
 24 25  2  0
  9 26  1  0
 26 27  2  0
 26 28  1  0
 28 29  1  0
 29  3  1  0
 29  7  2  0
 25 13  1  0
  1 30  1  0
  1 31  1  0
  1 32  1  0
  4 33  1  0
  5 34  1  0
  6 35  1  0
  8 36  1  0
 12 37  1  0
 14 38  1  0
 15 39  1  0
 18 40  1  0
 18 41  1  0
 19 42  1  0
 19 43  1  0
 20 44  1  0
 20 45  1  0
 22 46  1  0
 22 47  1  0
 22 48  1  0
 23 49  1  0
 23 50  1  0
 23 51  1  0
 24 52  1  0
 25 53  1  0
M  END
>  <UniqueID>  (46) 
44

>  <SMILES>  (46) 
COc1cccc2cc(C(=O)Nc3ccc(OCCCN(C)C)cc3)c(=O)oc12

>  <Energy>  (46) 
70.80887598375003

>  <Genealogy>  (46) 
COc1cccc2cc(C(=O)Nc3ccc(OCCCN(C)C)cc3)c(=O)oc12 (3D coordinates assigned)
COc1cccc2cc(C(=O)Nc3ccc(OCCCN(C)C)cc3)c(=O)oc12 (optimized conformer: 70.80887598375003 kcal/mol)

>  <smiles>  (46) 
COc1cccc2cc(C(=O)Nc3ccc(OCCCN(C)C)cc3)c(=O)oc12

>  <score_type>  (46) 
oracle

>  <origin>  (46) 
adg

>  <m_score__min__energy>  (46) 
-7.3600000000000003

>  <m_primary>  (46) 
energy

$$$$
47:0
     RDKit          3D

 32 34  0  0  0  0  0  0  0  0999 V2000
   54.1255   27.5316   52.3564 H   0  0  0  0  0  0  0  0  0  0  0  0
   54.3430   28.5370   52.7460 C   0  0  0  0  0  0  0  0  0  0  0  0
   55.4450   28.7010   53.4930 C   0  0  0  0  0  0  0  0  0  0  0  0
   55.6745   27.9458   54.2591 H   0  0  0  0  0  0  0  0  0  0  0  0
   56.3690   29.8500   53.3370 C   0  0  0  0  0  0  0  0  0  0  0  0
   56.7160   30.5910   54.4760 C   0  0  0  0  0  0  0  0  0  0  0  0
   56.3067   30.3139   55.4587 H   0  0  0  0  0  0  0  0  0  0  0  0
   57.5800   31.6790   54.3620 C   0  0  0  0  0  0  0  0  0  0  0  0
   57.8616   32.2549   55.2559 H   0  0  0  0  0  0  0  0  0  0  0  0
   58.0880   32.0370   53.1100 C   0  0  0  0  0  0  0  0  0  0  0  0
   58.9580   33.1280   52.9670 C   0  0  0  0  0  0  0  0  0  0  0  0
   59.2564   33.7129   53.8495 H   0  0  0  0  0  0  0  0  0  0  0  0
   59.4460   33.4720   51.7020 C   0  0  0  0  0  0  0  0  0  0  0  0
   60.1294   34.3269   51.5918 H   0  0  0  0  0  0  0  0  0  0  0  0
   59.0680   32.7330   50.5780 C   0  0  0  0  0  0  0  0  0  0  0  0
   59.4539   33.0090   49.5856 H   0  0  0  0  0  0  0  0  0  0  0  0
   58.2010   31.6440   50.7100 C   0  0  0  0  0  0  0  0  0  0  0  0
   57.9057   31.0669   49.8213 H   0  0  0  0  0  0  0  0  0  0  0  0
   57.7060   31.2850   51.9750 C   0  0  0  0  0  0  0  0  0  0  0  0
   56.8590   30.2220   52.1140 N   0  0  0  0  0  0  0  0  0  0  0  0
   56.5600   29.7100   51.2540 H   0  0  0  0  0  0  0  0  0  0  0  0
   53.4000   29.6350   52.4150 C   0  0  0  0  0  0  0  0  0  0  0  0
   52.2240   29.7610   53.1740 C   0  0  0  0  0  0  0  0  0  0  0  0
   52.0216   29.0483   53.9870 H   0  0  0  0  0  0  0  0  0  0  0  0
   51.3090   30.7830   52.9060 C   0  0  0  0  0  0  0  0  0  0  0  0
   50.3874   30.8655   53.5009 H   0  0  0  0  0  0  0  0  0  0  0  0
   51.5640   31.7000   51.8830 C   0  0  0  0  0  0  0  0  0  0  0  0
   50.6550   32.7160   51.6170 O   0  0  0  0  0  0  0  0  0  0  0  0
   52.7370   31.5970   51.1300 C   0  0  0  0  0  0  0  0  0  0  0  0
   52.9389   32.3217   50.3275 H   0  0  0  0  0  0  0  0  0  0  0  0
   53.6550   30.5750   51.3940 C   0  0  0  0  0  0  0  0  0  0  0  0
   54.5800   30.5038   50.8029 H   0  0  0  0  0  0  0  0  0  0  0  0
  1  2  1  0
  2  3  2  0
  3  4  1  0
  3  5  1  0
  5  6  2  0
  6  7  1  0
  6  8  1  0
  8  9  1  0
  8 10  2  0
 10 11  1  0
 11 12  1  0
 11 13  2  0
 13 14  1  0
 13 15  1  0
 15 16  1  0
 15 17  2  0
 17 18  1  0
 17 19  1  0
 19 20  2  0
 20 21  1  0
  2 22  1  0
 22 23  2  0
 23 24  1  0
 23 25  1  0
 25 26  1  0
 25 27  2  0
 27 28  1  0
 27 29  1  0
 29 30  1  0
 29 31  2  0
 31 32  1  0
 20  5  1  0
 31 22  1  0
 19 10  1  0
M  CHG  2  20   1  28  -1
M  END
>  <UniqueID>  (47) 
45

>  <SMILES>  (47) 
[O-]c1ccc(/C=C/c2ccc3ccccc3[nH+]2)cc1

>  <Energy>  (47) 
43.01304027145981

>  <Genealogy>  (47) 
[O-]c1ccc(C=Cc2ccc3ccccc3[nH+]2)cc1 (protonated)
[O-]c1ccc(/C=C/c2ccc3ccccc3[nH+]2)cc1 (cis-trans isomerization)
[O-]c1ccc(/C=C/c2ccc3ccccc3[nH+]2)cc1 (3D coordinates assigned)
[O-]c1ccc(/C=C/c2ccc3ccccc3[nH+]2)cc1 (optimized conformer: 43.01304027145981 kcal/mol)

>  <smiles>  (47) 
Oc1ccc(C=Cc2ccc3ccccc3n2)cc1

>  <score_type>  (47) 
oracle

>  <origin>  (47) 
adg

>  <m_score__min__energy>  (47) 
-9.6600000000000001

>  <m_primary>  (47) 
energy

$$$$
48:0
     RDKit          3D

 25 26  0  0  1  0  0  0  0  0999 V2000
   57.3870   34.5820   44.8810 C   0  0  0  0  0  0  0  0  0  0  0  0
   57.8810   33.2440   45.2710 C   0  0  0  0  0  0  0  0  0  0  0  0
   57.1850   32.0780   44.9520 C   0  0  0  0  0  0  0  0  0  0  0  0
   57.6830   30.8720   45.3410 C   0  0  0  0  0  0  0  0  0  0  0  0
   57.0520   29.5870   45.0680 C   0  0  0  0  0  0  0  0  0  0  0  0
   55.8140   29.5140   44.7920 O   0  0  0  0  0  0  0  0  0  0  0  0
   57.7660   28.3500   45.0930 N   0  0  0  0  0  0  0  0  0  0  0  0
   57.2540   27.2880   45.6600 C   0  0  0  0  0  0  0  0  0  0  0  0
   57.9610   26.3020   46.1920 N   0  0  0  0  0  0  0  0  0  0  0  0
   57.1410   25.3520   46.6970 C   0  0  0  0  0  0  0  0  0  0  0  0
   55.8870   25.7930   46.4530 N   0  0  0  0  0  0  0  0  0  0  0  0
   55.9590   26.9680   45.8230 N   0  0  0  0  0  0  0  0  0  0  0  0
   58.8810   30.8260   46.0500 C   0  0  0  0  0  0  0  0  0  0  0  0
   59.5800   31.9700   46.3720 C   0  0  0  0  0  0  0  0  0  0  0  0
   59.0700   33.1950   45.9750 C   0  0  0  0  0  0  0  0  0  0  0  0
   59.9850   34.6220   46.3970 Cl  0  0  0  0  0  0  0  0  0  0  0  0
   57.1698   35.1704   45.7847 H   0  0  0  0  0  0  0  0  0  0  0  0
   58.1544   35.0966   44.2841 H   0  0  0  0  0  0  0  0  0  0  0  0
   56.4693   34.4744   44.2841 H   0  0  0  0  0  0  0  0  0  0  0  0
   56.2408   32.1324   44.3903 H   0  0  0  0  0  0  0  0  0  0  0  0
   57.4330   24.4182   47.1998 H   0  0  0  0  0  0  0  0  0  0  0  0
   55.0280   25.2570   46.7310 H   0  0  0  0  0  0  0  0  0  0  0  0
   55.1470   27.5580   45.5040 H   0  0  0  0  0  0  0  0  0  0  0  0
   59.2806   29.8497   46.3617 H   0  0  0  0  0  0  0  0  0  0  0  0
   60.5242   31.9110   46.9332 H   0  0  0  0  0  0  0  0  0  0  0  0
  1  2  1  0
  2  3  2  0
  3  4  1  0
  4  5  1  0
  5  6  2  0
  5  7  1  0
  7  8  2  0
  8  9  1  0
  9 10  2  0
 10 11  1  0
 11 12  1  0
  4 13  2  0
 13 14  1  0
 14 15  2  0
 15 16  1  0
 15  2  1  0
 12  8  1  0
  1 17  1  0
  1 18  1  0
  1 19  1  0
  3 20  1  0
 10 21  1  0
 11 22  1  0
 12 23  1  0
 13 24  1  0
 14 25  1  0
M  END
>  <smiles>  (48) 
Cc1cc(C(=O)N=c2nc[nH][nH]2)ccc1Cl

>  <score_type>  (48) 
oracle

>  <origin>  (48) 
adg

>  <m_score__min__energy>  (48) 
-6.9400000000000004

>  <m_primary>  (48) 
energy

$$$$
49:0
     RDKit          3D

 45 47  0  0  0  0  0  0  0  0999 V2000
   58.2513   33.4684   43.5746 H   0  0  0  0  0  0  0  0  0  0  0  0
   57.8450   32.4980   43.8960 C   0  0  0  0  0  0  0  0  0  0  0  0
   57.3390   31.5910   42.9590 C   0  0  0  0  0  0  0  0  0  0  0  0
   57.3570   31.9210   41.5000 C   0  0  0  0  0  0  0  0  0  0  0  0
   57.4165   33.0118   41.3715 H   0  0  0  0  0  0  0  0  0  0  0  0
   58.2307   31.4480   41.0278 H   0  0  0  0  0  0  0  0  0  0  0  0
   56.4371   31.5458   41.0278 H   0  0  0  0  0  0  0  0  0  0  0  0
   56.8680   30.3860   43.3740 N   0  0  0  0  0  0  0  0  0  0  0  0
   56.8730   30.0430   44.6880 C   0  0  0  0  0  0  0  0  0  0  0  0
   56.3990   28.8860   45.0470 N   0  0  0  0  0  0  0  0  0  0  0  0
   57.1610   27.8160   45.6280 C   0  0  0  0  0  0  0  0  0  0  0  0
   58.5300   28.0130   45.8490 C   0  0  0  0  0  0  0  0  0  0  0  0
   58.9951   28.9709   45.5729 H   0  0  0  0  0  0  0  0  0  0  0  0
   59.3090   27.0030   46.4170 C   0  0  0  0  0  0  0  0  0  0  0  0
   60.3862   27.1618   46.5735 H   0  0  0  0  0  0  0  0  0  0  0  0
   58.7220   25.7930   46.7860 C   0  0  0  0  0  0  0  0  0  0  0  0
   59.3396   24.9936   47.2213 H   0  0  0  0  0  0  0  0  0  0  0  0
   57.3510   25.5940   46.6040 C   0  0  0  0  0  0  0  0  0  0  0  0
   56.8924   24.6400   46.9032 H   0  0  0  0  0  0  0  0  0  0  0  0
   56.5520   26.6090   46.0390 C   0  0  0  0  0  0  0  0  0  0  0  0
   55.1630   26.4610   45.8980 O   0  0  0  0  0  0  0  0  0  0  0  0
   54.5050   25.2310   45.6070 C   0  0  0  0  0  0  0  0  0  0  0  0
   54.2358   24.7278   46.5474 H   0  0  0  0  0  0  0  0  0  0  0  0
   53.5937   25.4315   45.0245 H   0  0  0  0  0  0  0  0  0  0  0  0
   55.1776   24.5842   45.0245 H   0  0  0  0  0  0  0  0  0  0  0  0
   57.3440   30.9260   45.6110 N   0  0  0  0  0  0  0  0  0  0  0  0
   57.8240   32.1460   45.2520 C   0  0  0  0  0  0  0  0  0  0  0  0
   58.3510   33.0270   46.2610 N   0  0  0  0  0  0  0  0  0  0  0  0
   58.8090   32.4630   47.5340 C   0  0  0  0  0  0  0  0  0  0  0  0
   57.9402   32.0888   48.0953 H   0  0  0  0  0  0  0  0  0  0  0  0
   59.5120   31.6438   47.3225 H   0  0  0  0  0  0  0  0  0  0  0  0
   59.5330   33.5260   48.3770 C   0  0  0  0  0  0  0  0  0  0  0  0
   58.7827   34.1492   48.8856 H   0  0  0  0  0  0  0  0  0  0  0  0
   60.1743   33.0075   49.1049 H   0  0  0  0  0  0  0  0  0  0  0  0
   60.3920   34.3950   47.5430 N   0  0  0  0  0  0  0  0  0  0  0  0
   61.5490   33.6600   47.0010 C   0  0  0  0  0  0  0  0  0  0  0  0
   62.1587   33.2727   47.8306 H   0  0  0  0  0  0  0  0  0  0  0  0
   61.1943   32.8213   46.3840 H   0  0  0  0  0  0  0  0  0  0  0  0
   62.1575   34.3375   46.3840 H   0  0  0  0  0  0  0  0  0  0  0  0
   59.6490   35.1180   46.4770 C   0  0  0  0  0  0  0  0  0  0  0  0
   59.4721   36.1490   46.8173 H   0  0  0  0  0  0  0  0  0  0  0  0
   60.2693   35.0714   45.5698 H   0  0  0  0  0  0  0  0  0  0  0  0
   58.2900   34.4860   46.1200 C   0  0  0  0  0  0  0  0  0  0  0  0
   57.5173   34.8832   46.7946 H   0  0  0  0  0  0  0  0  0  0  0  0
   58.0448   34.7334   45.0766 H   0  0  0  0  0  0  0  0  0  0  0  0
  1  2  1  0
  2  3  1  0
  3  4  1  0
  4  5  1  0
  4  6  1  0
  4  7  1  0
  3  8  2  0
  8  9  1  0
  9 10  2  0
 10 11  1  0
 11 12  2  0
 12 13  1  0
 12 14  1  0
 14 15  1  0
 14 16  2  0
 16 17  1  0
 16 18  1  0
 18 19  1  0
 18 20  2  0
 20 21  1  0
 21 22  1  0
 22 23  1  0
 22 24  1  0
 22 25  1  0
  9 26  1  0
 26 27  1  0
 27 28  1  0
 28 29  1  0
 29 30  1  0
 29 31  1  0
 29 32  1  0
 32 33  1  0
 32 34  1  0
 32 35  1  0
 35 36  1  0
 36 37  1  0
 36 38  1  0
 36 39  1  0
 35 40  1  0
 40 41  1  0
 40 42  1  0
 40 43  1  0
 43 44  1  0
 43 45  1  0
 27  2  2  0
 43 28  1  0
 20 11  1  0
M  CHG  1  26  -1
M  END
>  <UniqueID>  (49) 
46

>  <SMILES>  (49) 
COc1ccccc1/N=c1/nc(C)cc(N2CCN(C)CC2)[n-]1

>  <Energy>  (49) 
61.47851866896977

>  <Genealogy>  (49) 
COc1ccccc1N=c1nc(C)cc(N2CCN(C)CC2)[n-]1 (protonated)
COc1ccccc1/N=c1/nc(C)cc(N2CCN(C)CC2)[n-]1 (cis-trans isomerization)
COc1ccccc1/N=c1/nc(C)cc(N2CCN(C)CC2)[n-]1 (3D coordinates assigned)
COc1ccccc1/N=c1/nc(C)cc(N2CCN(C)CC2)[n-]1 (nonaromatic ring conformer: 61.47851866896977 kcal/mol)

>  <smiles>  (49) 
COc1ccccc1N=c1nc(C)cc(N2CCN(C)CC2)[nH]1

>  <score_type>  (49) 
oracle

>  <origin>  (49) 
adg

>  <m_score__min__energy>  (49) 
-10.199999999999999

>  <m_primary>  (49) 
energy

$$$$
