0:0
     RDKit          3D

 80 83  0  0  0  0  0  0  0  0999 V2000
   58.1950   32.3680   51.7200 C   0  0  0  0  0  0  0  0  0  0  0  0
   57.1410   31.3960   51.1930 C   0  0  0  0  0  0  0  0  0  0  0  0
   57.1760   30.1330   51.9660 N   0  0  0  0  0  0  0  0  0  0  0  0
   55.8160   29.7150   52.3770 C   0  0  0  0  0  0  0  0  0  0  0  0
   54.7990   30.7850   51.9910 C   0  0  0  0  0  0  0  0  0  0  0  0
   58.0870   30.2400   53.1320 C   0  0  0  0  0  0  0  0  0  0  0  0
   59.3490   29.3780   52.9170 C   0  0  0  0  0  0  0  0  0  0  0  0
   59.7670   29.3250   51.4990 N   0  0  0  0  0  0  0  0  0  0  0  0
   61.0960   29.8150   51.1430 C   0  0  0  0  0  0  0  0  0  0  0  0
   62.2530   29.2100   51.7230 C   0  0  0  0  0  0  0  0  0  0  0  0
   62.1360   28.0980   52.5890 C   0  0  0  0  0  0  0  0  0  0  0  0
   63.2630   27.4830   53.1260 C   0  0  0  0  0  0  0  0  0  0  0  0
   64.5330   27.9440   52.8030 C   0  0  0  0  0  0  0  0  0  0  0  0
   64.6880   29.0400   51.9590 C   0  0  0  0  0  0  0  0  0  0  0  0
   63.5670   29.7160   51.4210 C   0  0  0  0  0  0  0  0  0  0  0  0
   63.7190   30.8210   50.6010 N   0  0  0  0  0  0  0  0  0  0  0  0
   65.0000   31.5410   50.5010 C   0  0  0  0  0  0  0  0  0  0  0  0
   62.6190   31.2730   49.9250 C   0  0  0  0  0  0  0  0  0  0  0  0
   61.3410   30.8250   50.1940 C   0  0  0  0  0  0  0  0  0  0  0  0
   60.4700   31.4610   49.4400 O   0  0  0  0  0  0  0  0  0  0  0  0
   61.1330   32.2860   48.6650 C   0  0  0  0  0  0  0  0  0  0  0  0
   60.5950   33.1210   47.6880 C   0  0  0  0  0  0  0  0  0  0  0  0
   59.2070   33.1480   47.4980 O   0  0  0  0  0  0  0  0  0  0  0  0
   58.5030   34.2350   46.9010 C   0  0  0  0  0  0  0  0  0  0  0  0
   57.3410   33.7130   46.0570 C   0  0  0  0  0  0  0  0  0  0  0  0
   57.8310   32.9770   44.8020 C   0  0  0  0  0  0  0  0  0  0  0  0
   58.4140   31.6030   45.1600 C   0  0  0  0  0  0  0  0  0  0  0  0
   57.3510   30.5720   45.1190 N   0  0  0  0  0  0  0  0  0  0  0  0
   56.8060   30.4160   43.7500 C   0  0  0  0  0  0  0  0  0  0  0  0
   55.4540   29.7090   43.7960 C   0  0  0  0  0  0  0  0  0  0  0  0
   57.8170   29.2750   45.6730 C   0  0  0  0  0  0  0  0  0  0  0  0
   59.1110   29.4720   46.4650 C   0  0  0  0  0  0  0  0  0  0  0  0
   58.8920   29.0890   48.1910 Cl  0  0  0  0  0  0  0  0  0  0  0  0
   61.4960   33.8970   46.9230 C   0  0  0  0  0  0  0  0  0  0  0  0
   62.8860   33.7910   47.1350 C   0  0  0  0  0  0  0  0  0  0  0  0
   63.3980   32.9330   48.1230 C   0  0  0  0  0  0  0  0  0  0  0  0
   62.4880   32.2140   48.9080 C   0  0  0  0  0  0  0  0  0  0  0  0
   58.1850   32.3588   52.8199 H   0  0  0  0  0  0  0  0  0  0  0  0
   59.1884   32.0623   51.3598 H   0  0  0  0  0  0  0  0  0  0  0  0
   57.9706   33.3828   51.3598 H   0  0  0  0  0  0  0  0  0  0  0  0
   56.1451   31.8531   51.2892 H   0  0  0  0  0  0  0  0  0  0  0  0
   57.3533   31.1755   50.1364 H   0  0  0  0  0  0  0  0  0  0  0  0
   55.5585   28.7706   51.8752 H   0  0  0  0  0  0  0  0  0  0  0  0
   55.7964   29.5768   53.4681 H   0  0  0  0  0  0  0  0  0  0  0  0
   54.3739   31.2323   52.9016 H   0  0  0  0  0  0  0  0  0  0  0  0
   55.2960   31.5658   51.3966 H   0  0  0  0  0  0  0  0  0  0  0  0
   53.9940   30.3283   51.3966 H   0  0  0  0  0  0  0  0  0  0  0  0
   58.3850   31.2908   53.2626 H   0  0  0  0  0  0  0  0  0  0  0  0
   57.5600   29.8795   54.0277 H   0  0  0  0  0  0  0  0  0  0  0  0
   60.1714   29.8031   53.5111 H   0  0  0  0  0  0  0  0  0  0  0  0
   59.1091   28.3518   53.2322 H   0  0  0  0  0  0  0  0  0  0  0  0
   59.0620   29.8220   50.9070 H   0  0  0  0  0  0  0  0  0  0  0  0
   59.7380   28.3120   51.2340 H   0  0  0  0  0  0  0  0  0  0  0  0
   61.1373   27.7127   52.8424 H   0  0  0  0  0  0  0  0  0  0  0  0
   63.1477   26.6284   53.8089 H   0  0  0  0  0  0  0  0  0  0  0  0
   65.4198   27.4409   53.2159 H   0  0  0  0  0  0  0  0  0  0  0  0
   65.7005   29.3871   51.7055 H   0  0  0  0  0  0  0  0  0  0  0  0
   65.3803   31.7547   51.5108 H   0  0  0  0  0  0  0  0  0  0  0  0
   65.7283   30.9200   49.9588 H   0  0  0  0  0  0  0  0  0  0  0  0
   64.8481   32.4859   49.9588 H   0  0  0  0  0  0  0  0  0  0  0  0
   58.1112   34.8918   47.6916 H   0  0  0  0  0  0  0  0  0  0  0  0
   59.1927   34.7960   46.2533 H   0  0  0  0  0  0  0  0  0  0  0  0
   56.7429   33.0189   46.6657 H   0  0  0  0  0  0  0  0  0  0  0  0
   56.7398   34.5756   45.7337 H   0  0  0  0  0  0  0  0  0  0  0  0
   56.9849   32.8398   44.1126 H   0  0  0  0  0  0  0  0  0  0  0  0
   58.6208   33.5795   44.3294 H   0  0  0  0  0  0  0  0  0  0  0  0
   59.2014   31.3425   44.4374 H   0  0  0  0  0  0  0  0  0  0  0  0
   58.8360   31.6446   46.1750 H   0  0  0  0  0  0  0  0  0  0  0  0
   56.6810   31.4091   43.2938 H   0  0  0  0  0  0  0  0  0  0  0  0
   57.5054   29.8126   43.1528 H   0  0  0  0  0  0  0  0  0  0  0  0
   55.1569   29.5537   44.8437 H   0  0  0  0  0  0  0  0  0  0  0  0
   54.6992   30.3278   43.2887 H   0  0  0  0  0  0  0  0  0  0  0  0
   55.5316   28.7360   43.2887 H   0  0  0  0  0  0  0  0  0  0  0  0
   57.0428   28.8651   46.3383 H   0  0  0  0  0  0  0  0  0  0  0  0
   58.0071   28.5783   44.8432 H   0  0  0  0  0  0  0  0  0  0  0  0
   59.8873   28.8128   46.0493 H   0  0  0  0  0  0  0  0  0  0  0  0
   59.4057   30.5286   46.3830 H   0  0  0  0  0  0  0  0  0  0  0  0
   61.1105   34.5872   46.1582 H   0  0  0  0  0  0  0  0  0  0  0  0
   63.5770   34.3864   46.5203 H   0  0  0  0  0  0  0  0  0  0  0  0
   64.4824   32.8291   48.2755 H   0  0  0  0  0  0  0  0  0  0  0  0
  1  2  1  0
  2  3  1  0
  3  4  1  0
  4  5  1  0
  3  6  1  0
  6  7  1  0
  7  8  1  0
  8  9  1  0
  9 10  2  0
 10 11  1  0
 11 12  2  0
 12 13  1  0
 13 14  2  0
 14 15  1  0
 15 16  2  0
 16 17  1  0
 16 18  1  0
 18 19  2  0
 19 20  1  0
 20 21  1  0
 21 22  2  0
 22 23  1  0
 23 24  1  0
 24 25  1  0
 25 26  1  0
 26 27  1  0
 27 28  1  0
 28 29  1  0
 29 30  1  0
 28 31  1  0
 31 32  1  0
 32 33  1  0
 22 34  1  0
 34 35  2  0
 35 36  1  0
 36 37  2  0
 19  9  1  0
 37 21  1  0
 15 10  1  0
 37 18  1  0
  1 38  1  0
  1 39  1  0
  1 40  1  0
  2 41  1  0
  2 42  1  0
  4 43  1  0
  4 44  1  0
  5 45  1  0
  5 46  1  0
  5 47  1  0
  6 48  1  0
  6 49  1  0
  7 50  1  0
  7 51  1  0
  8 52  1  0
  8 53  1  0
 11 54  1  0
 12 55  1  0
 13 56  1  0
 14 57  1  0
 17 58  1  0
 17 59  1  0
 17 60  1  0
 24 61  1  0
 24 62  1  0
 25 63  1  0
 25 64  1  0
 26 65  1  0
 26 66  1  0
 27 67  1  0
 27 68  1  0
 29 69  1  0
 29 70  1  0
 30 71  1  0
 30 72  1  0
 30 73  1  0
 31 74  1  0
 31 75  1  0
 32 76  1  0
 32 77  1  0
 34 78  1  0
 35 79  1  0
 36 80  1  0
M  CHG  2   8   1  16   1
M  END
>  <UniqueID>  (1) 
1

>  <SMILES>  (1) 
CCN(CC)CC[NH2+]c1c2ccccc2[n+](C)c2c1oc1c(OCCCCN(CC)CCCl)cccc12

>  <Energy>  (1) 
140.22187854548412

>  <Genealogy>  (1) 
CCN(CC)CC[NH2+]c1c2ccccc2[n+](C)c2c1oc1c(OCCCCN(CC)CCCl)cccc12 (protonated)
CCN(CC)CC[NH2+]c1c2ccccc2[n+](C)c2c1oc1c(OCCCCN(CC)CCCl)cccc12 (3D coordinates assigned)
CCN(CC)CC[NH2+]c1c2ccccc2[n+](C)c2c1oc1c(OCCCCN(CC)CCCl)cccc12 (optimized conformer: 140.22187854548412 kcal/mol)

>  <smiles>  (1) 
CCN(CC)CCNc1c2ccccc2[n+](C)c2c1oc1c(OCCCCN(CC)CCCl)cccc12

>  <score_type>  (1) 
oracle

>  <origin>  (1) 
adg

>  <m_score__min__energy>  (1) 
-5.0899999999999999

>  <m_primary>  (1) 
energy

$$$$
1:0
     RDKit          3D

 55 59  0  0  1  0  0  0  0  0999 V2000
   59.4250   27.7770   48.2790 Cl  0  0  0  0  0  0  0  0  0  0  0  0
   59.9120   29.1090   49.2690 C   0  0  0  0  0  0  0  0  0  0  0  0
   59.0400   30.1890   49.4070 C   0  0  0  0  0  0  0  0  0  0  0  0
   59.4340   31.2500   50.1990 C   0  0  0  0  0  0  0  0  0  0  0  0
   60.6640   31.2390   50.8380 C   0  0  0  0  0  0  0  0  0  0  0  0
   61.5450   30.1780   50.7150 C   0  0  0  0  0  0  0  0  0  0  0  0
   62.8280   30.2740   51.4160 C   0  0  0  0  0  0  0  0  0  0  0  0
   63.9570   30.4800   50.6880 O   0  0  0  0  0  0  0  0  0  0  0  0
   65.0760   31.2150   50.7690 C   0  0  0  0  0  0  0  0  0  0  0  0
   66.2500   30.8850   51.4180 C   0  0  0  0  0  0  0  0  0  0  0  0
   67.3560   31.7060   51.4490 C   0  0  0  0  0  0  0  0  0  0  0  0
   67.3240   32.9240   50.8100 C   0  0  0  0  0  0  0  0  0  0  0  0
   68.8380   34.0840   50.8340 Br  0  0  0  0  0  0  0  0  0  0  0  0
   66.1820   33.2890   50.1570 C   0  0  0  0  0  0  0  0  0  0  0  0
   65.0840   32.4580   50.1350 C   0  0  0  0  0  0  0  0  0  0  0  0
   63.9100   32.9220   49.4160 C   0  0  0  0  0  0  0  0  0  0  0  0
   62.9450   33.6670   50.0510 C   0  0  0  0  0  0  0  0  0  0  0  0
   61.8170   34.1230   49.3950 C   0  0  0  0  0  0  0  0  0  0  0  0
   61.5950   33.8480   48.0360 C   0  0  0  0  0  0  0  0  0  0  0  0
   60.3800   34.3370   47.3280 C   0  0  0  0  0  0  0  0  0  0  0  0
   59.2570   33.5450   47.4230 N   0  0  0  0  0  0  0  0  0  0  0  0
   58.6100   32.9080   46.6020 C   0  0  0  0  0  0  0  0  0  0  0  0
   57.4370   33.4100   46.1500 N   0  0  0  0  0  0  0  0  0  0  0  0
   56.6400   32.7740   45.2780 C   0  0  0  0  0  0  0  0  0  0  0  0
   57.0260   31.5720   44.8280 N   0  0  0  0  0  0  0  0  0  0  0  0
   58.1840   31.0500   45.2580 C   0  0  0  0  0  0  0  0  0  0  0  0
   58.5340   29.8150   44.7590 C   0  0  0  0  0  0  0  0  0  0  0  0
   59.7290   29.2980   45.2070 C   0  0  0  0  0  0  0  0  0  0  0  0
   60.5670   29.9060   46.0830 C   0  0  0  0  0  0  0  0  0  0  0  0
   60.2050   31.1760   46.5940 C   0  0  0  0  0  0  0  0  0  0  0  0
   59.0270   31.6820   46.1550 C   0  0  0  0  0  0  0  0  0  0  0  0
   62.5850   33.1010   47.4390 C   0  0  0  0  0  0  0  0  0  0  0  0
   63.7130   32.6420   48.0830 C   0  0  0  0  0  0  0  0  0  0  0  0
   61.1360   29.1330   49.9230 C   0  0  0  0  0  0  0  0  0  0  0  0
   58.0645   30.1956   48.8987 H   0  0  0  0  0  0  0  0  0  0  0  0
   58.7640   32.1134   50.3240 H   0  0  0  0  0  0  0  0  0  0  0  0
   60.9488   32.0992   51.4617 H   0  0  0  0  0  0  0  0  0  0  0  0
   62.7458   31.1081   52.1284 H   0  0  0  0  0  0  0  0  0  0  0  0
   62.9699   29.2734   51.8503 H   0  0  0  0  0  0  0  0  0  0  0  0
   66.3046   29.9166   51.9369 H   0  0  0  0  0  0  0  0  0  0  0  0
   68.2632   31.3882   51.9838 H   0  0  0  0  0  0  0  0  0  0  0  0
   66.1383   34.2598   49.6416 H   0  0  0  0  0  0  0  0  0  0  0  0
   63.0747   33.9083   51.1163 H   0  0  0  0  0  0  0  0  0  0  0  0
   61.0755   34.7155   49.9509 H   0  0  0  0  0  0  0  0  0  0  0  0
   60.1282   35.3259   47.7388 H   0  0  0  0  0  0  0  0  0  0  0  0
   60.6453   34.3422   46.2605 H   0  0  0  0  0  0  0  0  0  0  0  0
   57.1030   34.3450   46.4780 H   0  0  0  0  0  0  0  0  0  0  0  0
   55.6956   33.2267   44.9416 H   0  0  0  0  0  0  0  0  0  0  0  0
   57.8965   29.2735   44.0446 H   0  0  0  0  0  0  0  0  0  0  0  0
   60.0283   28.3116   44.8231 H   0  0  0  0  0  0  0  0  0  0  0  0
   61.5067   29.4234   46.3896 H   0  0  0  0  0  0  0  0  0  0  0  0
   60.8429   31.7202   47.3059 H   0  0  0  0  0  0  0  0  0  0  0  0
   62.4673   32.8533   46.3737 H   0  0  0  0  0  0  0  0  0  0  0  0
   64.4579   32.0504   47.5306 H   0  0  0  0  0  0  0  0  0  0  0  0
   61.8113   28.2733   49.8011 H   0  0  0  0  0  0  0  0  0  0  0  0
  1  2  1  0
  2  3  2  0
  3  4  1  0
  4  5  2  0
  5  6  1  0
  6  7  1  0
  7  8  1  0
  8  9  1  0
  9 10  2  0
 10 11  1  0
 11 12  2  0
 12 13  1  0
 12 14  1  0
 14 15  2  0
 15 16  1  0
 16 17  2  0
 17 18  1  0
 18 19  2  0
 19 20  1  0
 20 21  1  0
 21 22  2  0
 22 23  1  0
 23 24  1  0
 24 25  2  0
 25 26  1  0
 26 27  2  0
 27 28  1  0
 28 29  2  0
 29 30  1  0
 30 31  2  0
 19 32  1  0
 32 33  2  0
  6 34  2  0
 34  2  1  0
 15  9  1  0
 33 16  1  0
 31 22  1  0
 31 26  1  0
  3 35  1  0
  4 36  1  0
  5 37  1  0
  7 38  1  0
  7 39  1  0
 10 40  1  0
 11 41  1  0
 14 42  1  0
 17 43  1  0
 18 44  1  0
 20 45  1  0
 20 46  1  0
 23 47  1  0
 24 48  1  0
 27 49  1  0
 28 50  1  0
 29 51  1  0
 30 52  1  0
 32 53  1  0
 33 54  1  0
 34 55  1  0
M  END
>  <smiles>  (2) 
Clc1cccc(COc2ccc(Br)cc2-c2ccc(CN=c3[nH]cnc4ccccc34)cc2)c1

>  <score_type>  (2) 
oracle

>  <origin>  (2) 
adg

>  <m_score__min__energy>  (2) 
-9.75

>  <m_primary>  (2) 
energy

$$$$
2:0
     RDKit          3D

 33 34  0  0  0  0  0  0  0  0999 V2000
   59.9400   34.2520   49.1890 C   0  0  0  0  0  0  0  0  0  0  0  0
   60.3970   34.5730   47.7700 C   0  0  0  0  0  0  0  0  0  0  0  0
   59.2770   34.6990   46.8940 O   0  0  0  0  0  0  0  0  0  0  0  0
   58.6650   33.6470   46.1930 C   0  0  0  0  0  0  0  0  0  0  0  0
   58.7070   32.3660   46.7580 C   0  0  0  0  0  0  0  0  0  0  0  0
   58.1200   31.2800   46.1040 C   0  0  0  0  0  0  0  0  0  0  0  0
   57.4850   31.4610   44.8700 C   0  0  0  0  0  0  0  0  0  0  0  0
   56.7750   30.0780   44.0420 S   0  0  0  0  0  0  0  0  0  0  0  0
   56.2660   30.4730   42.6830 O   0  0  0  0  0  0  0  0  0  0  0  0
   55.6270   29.5630   44.8640 O   0  0  0  0  0  0  0  0  0  0  0  0
   57.9600   28.8250   43.8630 N   0  0  0  0  0  0  0  0  0  0  0  0
   58.2420   27.8520   44.8880 C   0  0  0  0  0  0  0  0  0  0  0  0
   57.2900   26.8810   45.2480 C   0  0  0  0  0  0  0  0  0  0  0  0
   57.5810   25.9400   46.2370 C   0  0  0  0  0  0  0  0  0  0  0  0
   56.2930   24.6140   46.7160 Br  0  0  0  0  0  0  0  0  0  0  0  0
   58.8220   25.9800   46.8720 C   0  0  0  0  0  0  0  0  0  0  0  0
   59.7320   26.9260   46.5250 N   0  0  0  0  0  0  0  0  0  0  0  0
   59.4790   27.8550   45.5640 C   0  0  0  0  0  0  0  0  0  0  0  0
   60.7420   29.0150   45.1800 Cl  0  0  0  0  0  0  0  0  0  0  0  0
   57.4380   32.7380   44.2970 C   0  0  0  0  0  0  0  0  0  0  0  0
   58.0250   33.8260   44.9500 C   0  0  0  0  0  0  0  0  0  0  0  0
   60.6198   34.7295   49.9100 H   0  0  0  0  0  0  0  0  0  0  0  0
   58.9190   34.6324   49.3403 H   0  0  0  0  0  0  0  0  0  0  0  0
   59.9515   33.1625   49.3403 H   0  0  0  0  0  0  0  0  0  0  0  0
   60.9579   35.5192   47.7769 H   0  0  0  0  0  0  0  0  0  0  0  0
   61.0356   33.7526   47.4107 H   0  0  0  0  0  0  0  0  0  0  0  0
   59.2070   32.2136   47.7259 H   0  0  0  0  0  0  0  0  0  0  0  0
   58.1570   30.2798   46.5602 H   0  0  0  0  0  0  0  0  0  0  0  0
   58.4100   28.7390   42.9250 H   0  0  0  0  0  0  0  0  0  0  0  0
   56.3107   26.8632   44.7473 H   0  0  0  0  0  0  0  0  0  0  0  0
   59.0636   25.2451   47.6540 H   0  0  0  0  0  0  0  0  0  0  0  0
   56.9370   32.8857   43.3289 H   0  0  0  0  0  0  0  0  0  0  0  0
   57.9872   34.8254   44.4920 H   0  0  0  0  0  0  0  0  0  0  0  0
  1  2  1  0
  2  3  1  0
  3  4  1  0
  4  5  2  0
  5  6  1  0
  6  7  2  0
  7  8  1  0
  8  9  2  0
  8 10  2  0
  8 11  1  0
 11 12  1  0
 12 13  2  0
 13 14  1  0
 14 15  1  0
 14 16  2  0
 16 17  1  0
 17 18  2  0
 18 19  1  0
  7 20  1  0
 20 21  2  0
 21  4  1  0
 18 12  1  0
  1 22  1  0
  1 23  1  0
  1 24  1  0
  2 25  1  0
  2 26  1  0
  5 27  1  0
  6 28  1  0
 11 29  1  0
 13 30  1  0
 16 31  1  0
 20 32  1  0
 21 33  1  0
M  END
>  <UniqueID>  (3) 
2

>  <SMILES>  (3) 
CCOc1ccc(S(=O)(=O)Nc2cc(Br)cnc2Cl)cc1

>  <Energy>  (3) 
35.68617585006163

>  <Genealogy>  (3) 
CCOc1ccc(S(=O)(=O)Nc2cc(Br)cnc2Cl)cc1 (3D coordinates assigned)
CCOc1ccc(S(=O)(=O)Nc2cc(Br)cnc2Cl)cc1 (optimized conformer: 35.68617585006163 kcal/mol)

>  <smiles>  (3) 
CCOc1ccc(S(=O)(=O)Nc2cc(Br)cnc2Cl)cc1

>  <score_type>  (3) 
oracle

>  <origin>  (3) 
adg

>  <m_score__min__energy>  (3) 
-7.5999999999999996

>  <m_primary>  (3) 
energy

$$$$
3:0
     RDKit          3D

 73 76  0  0  0  0  0  0  0  0999 V2000
   55.6750   23.1260   47.8500 C   0  0  0  0  0  0  0  0  0  0  0  0
   56.2930   24.4760   47.4500 C   0  0  0  0  0  0  0  0  0  0  0  0
   55.7470   25.0330   46.1870 N   0  0  0  0  0  0  0  0  0  0  0  0
   54.4440   24.4090   45.8370 C   0  0  0  0  0  0  0  0  0  0  0  0
   54.5060   23.6970   44.4840 C   0  0  0  0  0  0  0  0  0  0  0  0
   56.7520   24.9660   45.0940 C   0  0  0  0  0  0  0  0  0  0  0  0
   57.7420   26.1360   45.1270 C   0  0  0  0  0  0  0  0  0  0  0  0
   57.2940   27.1970   46.0320 N   0  0  0  0  0  0  0  0  0  0  0  0
   57.9990   28.4490   46.1310 C   0  0  0  0  0  0  0  0  0  0  0  0
   57.7280   29.4850   45.2240 C   0  0  0  0  0  0  0  0  0  0  0  0
   56.8130   29.2980   44.1680 C   0  0  0  0  0  0  0  0  0  0  0  0
   56.4840   30.3460   43.3130 C   0  0  0  0  0  0  0  0  0  0  0  0
   57.0540   31.5990   43.4990 C   0  0  0  0  0  0  0  0  0  0  0  0
   57.9770   31.8050   44.5210 C   0  0  0  0  0  0  0  0  0  0  0  0
   58.3640   30.7470   45.3860 C   0  0  0  0  0  0  0  0  0  0  0  0
   59.3110   30.9250   46.3780 N   0  0  0  0  0  0  0  0  0  0  0  0
   60.1610   32.1390   46.3820 C   0  0  0  0  0  0  0  0  0  0  0  0
   59.5010   29.9510   47.3410 C   0  0  0  0  0  0  0  0  0  0  0  0
   60.2690   30.1920   48.5090 C   0  0  0  0  0  0  0  0  0  0  0  0
   60.5510   29.1600   49.4220 C   0  0  0  0  0  0  0  0  0  0  0  0
   61.3100   29.3530   50.5880 O   0  0  0  0  0  0  0  0  0  0  0  0
   61.8780   30.5870   51.0210 C   0  0  0  0  0  0  0  0  0  0  0  0
   63.3070   30.8430   50.4780 C   0  0  0  0  0  0  0  0  0  0  0  0
   63.5420   32.0470   49.6000 N   0  0  0  0  0  0  0  0  0  0  0  0
   64.8860   32.5790   49.9840 C   0  0  0  0  0  0  0  0  0  0  0  0
   63.5350   31.7190   48.1380 C   0  0  0  0  0  0  0  0  0  0  0  0
   63.2380   32.9440   47.2380 C   0  0  0  0  0  0  0  0  0  0  0  0
   63.5330   34.1620   47.8800 O   0  0  0  0  0  0  0  0  0  0  0  0
   62.6890   34.3570   49.0020 C   0  0  0  0  0  0  0  0  0  0  0  0
   62.5140   33.0910   49.8800 C   0  0  0  0  0  0  0  0  0  0  0  0
   60.0650   27.8820   49.1740 C   0  0  0  0  0  0  0  0  0  0  0  0
   59.2440   27.6370   48.0790 C   0  0  0  0  0  0  0  0  0  0  0  0
   58.9070   28.6720   47.1830 C   0  0  0  0  0  0  0  0  0  0  0  0
   55.6399   23.0494   48.9468 H   0  0  0  0  0  0  0  0  0  0  0  0
   54.6548   23.0553   47.4447 H   0  0  0  0  0  0  0  0  0  0  0  0
   56.2881   22.3076   47.4447 H   0  0  0  0  0  0  0  0  0  0  0  0
   56.1031   25.1976   48.2582 H   0  0  0  0  0  0  0  0  0  0  0  0
   57.3666   24.3013   47.2859 H   0  0  0  0  0  0  0  0  0  0  0  0
   54.1787   23.6768   46.6139 H   0  0  0  0  0  0  0  0  0  0  0  0
   53.6875   25.2050   45.7727 H   0  0  0  0  0  0  0  0  0  0  0  0
   54.6004   22.6128   44.6442 H   0  0  0  0  0  0  0  0  0  0  0  0
   53.5863   23.9053   43.9176 H   0  0  0  0  0  0  0  0  0  0  0  0
   55.3758   24.0611   43.9176 H   0  0  0  0  0  0  0  0  0  0  0  0
   57.3150   24.0260   45.1909 H   0  0  0  0  0  0  0  0  0  0  0  0
   56.2081   25.0183   44.1393 H   0  0  0  0  0  0  0  0  0  0  0  0
   58.7204   25.7661   45.4675 H   0  0  0  0  0  0  0  0  0  0  0  0
   57.8117   26.5560   44.1127 H   0  0  0  0  0  0  0  0  0  0  0  0
   56.5530   26.9760   46.7360 H   0  0  0  0  0  0  0  0  0  0  0  0
   56.3527   28.3103   44.0176 H   0  0  0  0  0  0  0  0  0  0  0  0
   55.7727   30.1819   42.4901 H   0  0  0  0  0  0  0  0  0  0  0  0
   56.7752   32.4316   42.8364 H   0  0  0  0  0  0  0  0  0  0  0  0
   58.4141   32.8047   44.6609 H   0  0  0  0  0  0  0  0  0  0  0  0
   60.3697   32.4371   47.4201 H   0  0  0  0  0  0  0  0  0  0  0  0
   61.1078   31.9254   45.8644 H   0  0  0  0  0  0  0  0  0  0  0  0
   59.6364   32.9556   45.8644 H   0  0  0  0  0  0  0  0  0  0  0  0
   60.6511   31.2048   48.7043 H   0  0  0  0  0  0  0  0  0  0  0  0
   61.2266   31.4062   50.6826 H   0  0  0  0  0  0  0  0  0  0  0  0
   61.9562   30.5364   52.1170 H   0  0  0  0  0  0  0  0  0  0  0  0
   63.9716   30.9424   51.3489 H   0  0  0  0  0  0  0  0  0  0  0  0
   63.4988   29.9866   49.8149 H   0  0  0  0  0  0  0  0  0  0  0  0
   64.9679   32.6114   51.0805 H   0  0  0  0  0  0  0  0  0  0  0  0
   65.6699   31.9233   49.5770 H   0  0  0  0  0  0  0  0  0  0  0  0
   65.0087   33.5935   49.5770 H   0  0  0  0  0  0  0  0  0  0  0  0
   64.5217   31.3163   47.8656 H   0  0  0  0  0  0  0  0  0  0  0  0
   62.7296   30.9886   47.9713 H   0  0  0  0  0  0  0  0  0  0  0  0
   63.8472   32.8685   46.3252 H   0  0  0  0  0  0  0  0  0  0  0  0
   62.1630   32.9379   47.0048 H   0  0  0  0  0  0  0  0  0  0  0  0
   63.1192   35.1547   49.6253 H   0  0  0  0  0  0  0  0  0  0  0  0
   61.6936   34.6177   48.6131 H   0  0  0  0  0  0  0  0  0  0  0  0
   62.5892   33.3836   50.9377 H   0  0  0  0  0  0  0  0  0  0  0  0
   61.5302   32.6585   49.6454 H   0  0  0  0  0  0  0  0  0  0  0  0
   60.3323   27.0566   49.8502 H   0  0  0  0  0  0  0  0  0  0  0  0
   58.8525   26.6231   47.9097 H   0  0  0  0  0  0  0  0  0  0  0  0
  1  2  1  0
  2  3  1  0
  3  4  1  0
  4  5  1  0
  3  6  1  0
  6  7  1  0
  7  8  1  0
  8  9  1  0
  9 10  2  0
 10 11  1  0
 11 12  2  0
 12 13  1  0
 13 14  2  0
 14 15  1  0
 15 16  2  0
 16 17  1  0
 16 18  1  0
 18 19  2  0
 19 20  1  0
 20 21  1  0
 21 22  1  0
 22 23  1  0
 23 24  1  0
 24 25  1  0
 24 26  1  0
 26 27  1  0
 27 28  1  0
 28 29  1  0
 29 30  1  0
 20 31  2  0
 31 32  1  0
 32 33  2  0
 33  9  1  0
 15 10  1  0
 33 18  1  0
 30 24  1  0
  1 34  1  0
  1 35  1  0
  1 36  1  0
  2 37  1  0
  2 38  1  0
  4 39  1  0
  4 40  1  0
  5 41  1  0
  5 42  1  0
  5 43  1  0
  6 44  1  0
  6 45  1  0
  7 46  1  0
  7 47  1  0
  8 48  1  0
 11 49  1  0
 12 50  1  0
 13 51  1  0
 14 52  1  0
 17 53  1  0
 17 54  1  0
 17 55  1  0
 19 56  1  0
 22 57  1  0
 22 58  1  0
 23 59  1  0
 23 60  1  0
 25 61  1  0
 25 62  1  0
 25 63  1  0
 26 64  1  0
 26 65  1  0
 27 66  1  0
 27 67  1  0
 29 68  1  0
 29 69  1  0
 30 70  1  0
 30 71  1  0
 31 72  1  0
 32 73  1  0
M  CHG  2  16   1  24   1
M  END
>  <UniqueID>  (4) 
3

>  <SMILES>  (4) 
CCN(CC)CCNc1c2ccccc2[n+](C)c2cc(OCC[N+]3(C)CCOCC3)ccc12

>  <Energy>  (4) 
129.36833487882373

>  <Genealogy>  (4) 
CCN(CC)CCNc1c2ccccc2[n+](C)c2cc(OCC[N+]3(C)CCOCC3)ccc12 (3D coordinates assigned)
CCN(CC)CCNc1c2ccccc2[n+](C)c2cc(OCC[N+]3(C)CCOCC3)ccc12 (nonaromatic ring conformer: 129.36833487882373 kcal/mol)

>  <smiles>  (4) 
CCN(CC)CCNc1c2ccccc2[n+](C)c2cc(OCC[N+]3(C)CCOCC3)ccc12

>  <score_type>  (4) 
oracle

>  <origin>  (4) 
adg

>  <m_score__min__energy>  (4) 
-5.1799999999999997

>  <m_primary>  (4) 
energy

$$$$
4:0
     RDKit          3D

 34 35  0  0  0  0  0  0  0  0999 V2000
   57.3330   28.6630   43.7600 C   0  0  0  0  0  0  0  0  0  0  0  0
   56.3440   28.9730   44.8820 C   0  0  0  0  0  0  0  0  0  0  0  0
   55.8510   30.3530   44.7670 N   0  0  0  0  0  0  0  0  0  0  0  0
   56.6470   31.1300   43.8100 C   0  0  0  0  0  0  0  0  0  0  0  0
   57.4700   32.1860   44.5520 C   0  0  0  0  0  0  0  0  0  0  0  0
   57.7760   31.7430   45.9140 N   0  0  0  0  0  0  0  0  0  0  0  0
   59.0080   32.0290   46.6080 C   0  0  0  0  0  0  0  0  0  0  0  0
   59.1850   33.2570   47.2980 C   0  0  0  0  0  0  0  0  0  0  0  0
   60.3970   33.4850   47.9420 C   0  0  0  0  0  0  0  0  0  0  0  0
   60.7620   34.5780   48.6400 N   0  0  0  0  0  0  0  0  0  0  0  0
   62.0260   34.2810   49.0370 C   0  0  0  0  0  0  0  0  0  0  0  0
   62.4420   33.0600   48.6190 N   0  0  0  0  0  0  0  0  0  0  0  0
   63.7450   32.4450   48.8400 C   0  0  0  0  0  0  0  0  0  0  0  0
   61.4040   32.5710   47.9240 C   0  0  0  0  0  0  0  0  0  0  0  0
   61.2880   31.3550   47.2590 C   0  0  0  0  0  0  0  0  0  0  0  0
   60.0770   31.0800   46.5940 C   0  0  0  0  0  0  0  0  0  0  0  0
   59.9220   29.3840   45.7120 Br  0  0  0  0  0  0  0  0  0  0  0  0
   58.2973   28.3607   44.1944 H   0  0  0  0  0  0  0  0  0  0  0  0
   56.9383   27.8455   43.1388 H   0  0  0  0  0  0  0  0  0  0  0  0
   57.4756   29.5595   43.1388 H   0  0  0  0  0  0  0  0  0  0  0  0
   55.4936   28.2782   44.8172 H   0  0  0  0  0  0  0  0  0  0  0  0
   56.8554   28.8573   45.8490 H   0  0  0  0  0  0  0  0  0  0  0  0
   54.8710   30.3090   44.4000 H   0  0  0  0  0  0  0  0  0  0  0  0
   57.3247   30.4551   43.2667 H   0  0  0  0  0  0  0  0  0  0  0  0
   55.9720   31.6304   43.1000 H   0  0  0  0  0  0  0  0  0  0  0  0
   58.4108   32.3577   44.0085 H   0  0  0  0  0  0  0  0  0  0  0  0
   56.8846   33.1157   44.6063 H   0  0  0  0  0  0  0  0  0  0  0  0
   57.0400   31.1760   46.3920 H   0  0  0  0  0  0  0  0  0  0  0  0
   58.3834   34.0099   47.3229 H   0  0  0  0  0  0  0  0  0  0  0  0
   62.6488   34.9613   49.6364 H   0  0  0  0  0  0  0  0  0  0  0  0
   63.9306   32.3574   49.9207 H   0  0  0  0  0  0  0  0  0  0  0  0
   63.7605   31.4445   48.3830 H   0  0  0  0  0  0  0  0  0  0  0  0
   64.5272   33.0690   48.3830 H   0  0  0  0  0  0  0  0  0  0  0  0
   62.1159   30.6307   47.2525 H   0  0  0  0  0  0  0  0  0  0  0  0
  1  2  1  0
  2  3  1  0
  3  4  1  0
  4  5  1  0
  5  6  1  0
  6  7  1  0
  7  8  2  0
  8  9  1  0
  9 10  1  0
 10 11  2  0
 11 12  1  0
 12 13  1  0
 12 14  1  0
 14 15  1  0
 15 16  2  0
 16 17  1  0
 16  7  1  0
 14  9  2  0
  1 18  1  0
  1 19  1  0
  1 20  1  0
  2 21  1  0
  2 22  1  0
  3 23  1  0
  4 24  1  0
  4 25  1  0
  5 26  1  0
  5 27  1  0
  6 28  1  0
  8 29  1  0
 11 30  1  0
 13 31  1  0
 13 32  1  0
 13 33  1  0
 15 34  1  0
M  END
>  <UniqueID>  (5) 
4

>  <SMILES>  (5) 
CCNCCNc1cc2ncn(C)c2cc1Br

>  <Energy>  (5) 
66.38366188882136

>  <Genealogy>  (5) 
CCNCCNc1cc2ncn(C)c2cc1Br (3D coordinates assigned)
CCNCCNc1cc2ncn(C)c2cc1Br (optimized conformer: 66.38366188882136 kcal/mol)

>  <smiles>  (5) 
CCNCCNc1cc2ncn(C)c2cc1Br

>  <score_type>  (5) 
oracle

>  <origin>  (5) 
adg

>  <m_score__min__energy>  (5) 
-6.1299999999999999

>  <m_primary>  (5) 
energy

$$$$
5:0
     RDKit          3D

 49 51  0  0  0  0  0  0  0  0999 V2000
   60.0550   33.9510   49.6290 C   0  0  0  0  0  0  0  0  0  0  0  0
   59.4000   32.5740   49.6540 C   0  0  0  0  0  0  0  0  0  0  0  0
   60.4540   31.5300   49.6900 N   0  0  0  0  0  0  0  0  0  0  0  0
   59.8880   30.1650   49.7500 C   0  0  0  0  0  0  0  0  0  0  0  0
   58.5780   30.1530   50.5350 C   0  0  0  0  0  0  0  0  0  0  0  0
   61.4070   31.6680   48.5630 C   0  0  0  0  0  0  0  0  0  0  0  0
   60.9340   30.8440   47.3610 C   0  0  0  0  0  0  0  0  0  0  0  0
   59.6860   31.3940   46.8170 N   0  0  0  0  0  0  0  0  0  0  0  0
   58.5170   30.7410   46.5730 C   0  0  0  0  0  0  0  0  0  0  0  0
   58.1660   29.0620   47.1020 S   0  0  0  0  0  0  0  0  0  0  0  0
   58.2630   28.4180   45.4260 C   0  0  0  0  0  0  0  0  0  0  0  0
   57.4370   28.7320   44.3620 C   0  0  0  0  0  0  0  0  0  0  0  0
   56.3790   29.6960   44.3520 N   0  0  0  0  0  0  0  0  0  0  0  0
   56.4340   30.6680   43.5690 O   0  0  0  0  0  0  0  0  0  0  0  0
   55.3030   29.5790   45.1980 O   0  0  0  0  0  0  0  0  0  0  0  0
   57.7480   27.9660   43.2960 N   0  0  0  0  0  0  0  0  0  0  0  0
   58.7710   27.2010   43.7310 C   0  0  0  0  0  0  0  0  0  0  0  0
   59.1150   27.4640   45.0090 N   0  0  0  0  0  0  0  0  0  0  0  0
   60.1210   26.7610   45.7910 C   0  0  0  0  0  0  0  0  0  0  0  0
   57.6120   31.5130   45.9230 N   0  0  0  0  0  0  0  0  0  0  0  0
   58.2340   32.6920   45.7670 C   0  0  0  0  0  0  0  0  0  0  0  0
   57.7480   33.8480   45.1630 C   0  0  0  0  0  0  0  0  0  0  0  0
   58.6010   34.9660   45.1150 C   0  0  0  0  0  0  0  0  0  0  0  0
   59.9010   34.9000   45.6670 C   0  0  0  0  0  0  0  0  0  0  0  0
   60.3600   33.7170   46.2730 C   0  0  0  0  0  0  0  0  0  0  0  0
   59.4890   32.6260   46.3050 C   0  0  0  0  0  0  0  0  0  0  0  0
   60.2198   34.2974   50.6599 H   0  0  0  0  0  0  0  0  0  0  0  0
   61.0199   33.8886   49.1045 H   0  0  0  0  0  0  0  0  0  0  0  0
   59.3978   34.6602   49.1045 H   0  0  0  0  0  0  0  0  0  0  0  0
   58.7646   32.4856   50.5475 H   0  0  0  0  0  0  0  0  0  0  0  0
   58.7826   32.4433   48.7531 H   0  0  0  0  0  0  0  0  0  0  0  0
   59.6982   29.8084   48.7269 H   0  0  0  0  0  0  0  0  0  0  0  0
   60.6086   29.5074   50.2582 H   0  0  0  0  0  0  0  0  0  0  0  0
   58.7965   30.1550   51.6131 H   0  0  0  0  0  0  0  0  0  0  0  0
   57.9887   31.0458   50.2787 H   0  0  0  0  0  0  0  0  0  0  0  0
   58.0052   29.2496   50.2787 H   0  0  0  0  0  0  0  0  0  0  0  0
   61.4745   32.7269   48.2728 H   0  0  0  0  0  0  0  0  0  0  0  0
   62.3934   31.3004   48.8822 H   0  0  0  0  0  0  0  0  0  0  0  0
   61.7089   30.8652   46.5806 H   0  0  0  0  0  0  0  0  0  0  0  0
   60.7528   29.8098   47.6890 H   0  0  0  0  0  0  0  0  0  0  0  0
   59.2713   26.4435   43.1098 H   0  0  0  0  0  0  0  0  0  0  0  0
   59.9177   26.9031   46.8627 H   0  0  0  0  0  0  0  0  0  0  0  0
   60.0884   25.6881   45.5507 H   0  0  0  0  0  0  0  0  0  0  0  0
   61.1173   27.1605   45.5507 H   0  0  0  0  0  0  0  0  0  0  0  0
   56.6450   31.2540   45.6260 H   0  0  0  0  0  0  0  0  0  0  0  0
   56.7339   33.8862   44.7386 H   0  0  0  0  0  0  0  0  0  0  0  0
   58.2540   35.8979   44.6447 H   0  0  0  0  0  0  0  0  0  0  0  0
   60.5584   35.7808   45.6221 H   0  0  0  0  0  0  0  0  0  0  0  0
   61.3690   33.6533   46.7063 H   0  0  0  0  0  0  0  0  0  0  0  0
  1  2  1  0
  2  3  1  0
  3  4  1  0
  4  5  1  0
  3  6  1  0
  6  7  1  0
  7  8  1  0
  8  9  1  0
  9 10  1  0
 10 11  1  0
 11 12  2  0
 12 13  1  0
 13 14  2  0
 13 15  1  0
 12 16  1  0
 16 17  2  0
 17 18  1  0
 18 19  1  0
  9 20  2  0
 20 21  1  0
 21 22  2  0
 22 23  1  0
 23 24  2  0
 24 25  1  0
 25 26  2  0
 26  8  1  0
 18 11  1  0
 26 21  1  0
  1 27  1  0
  1 28  1  0
  1 29  1  0
  2 30  1  0
  2 31  1  0
  4 32  1  0
  4 33  1  0
  5 34  1  0
  5 35  1  0
  5 36  1  0
  6 37  1  0
  6 38  1  0
  7 39  1  0
  7 40  1  0
 17 41  1  0
 19 42  1  0
 19 43  1  0
 19 44  1  0
 20 45  1  0
 22 46  1  0
 23 47  1  0
 24 48  1  0
 25 49  1  0
M  CHG  3  13   1  15  -1  20   1
M  END
>  <UniqueID>  (6) 
5

>  <SMILES>  (6) 
CCN(CC)CCn1c(Sc2c([N+](=O)[O-])ncn2C)[nH+]c2ccccc21

>  <Energy>  (6) 
111.0716615270557

>  <Genealogy>  (6) 
CCN(CC)CCn1c(Sc2c([N+](=O)[O-])ncn2C)[nH+]c2ccccc21 (protonated)
CCN(CC)CCn1c(Sc2c([N+](=O)[O-])ncn2C)[nH+]c2ccccc21 (3D coordinates assigned)
CCN(CC)CCn1c(Sc2c([N+](=O)[O-])ncn2C)[nH+]c2ccccc21 (optimized conformer: 111.0716615270557 kcal/mol)

>  <smiles>  (6) 
CCN(CC)CCn1c(Sc2c([N+](=O)[O-])ncn2C)nc2ccccc21

>  <score_type>  (6) 
oracle

>  <origin>  (6) 
adg

>  <m_score__min__energy>  (6) 
-6.8799999999999999

>  <m_primary>  (6) 
energy

$$$$
6:0
     RDKit          3D

 62 62  0  0  0  0  0  0  0  0999 V2000
   57.0800   31.6387   46.2152 H   0  0  0  0  0  0  0  0  0  0  0  0
   57.3600   32.1090   45.2610 C   0  0  0  0  0  0  0  0  0  0  0  0
   57.1580   31.4070   44.1240 C   0  0  0  0  0  0  0  0  0  0  0  0
   57.7150   31.8710   42.8000 C   0  0  0  0  0  0  0  0  0  0  0  0
   58.5492   32.5659   42.9765 H   0  0  0  0  0  0  0  0  0  0  0  0
   58.0757   31.0025   42.2293 H   0  0  0  0  0  0  0  0  0  0  0  0
   56.9260   32.3827   42.2293 H   0  0  0  0  0  0  0  0  0  0  0  0
   56.4040   30.0950   44.1810 C   0  0  0  0  0  0  0  0  0  0  0  0
   55.3588   30.2727   43.8877 H   0  0  0  0  0  0  0  0  0  0  0  0
   56.4679   29.7101   45.2095 H   0  0  0  0  0  0  0  0  0  0  0  0
   57.0100   29.0450   43.2430 C   0  0  0  0  0  0  0  0  0  0  0  0
   57.5346   29.5587   42.4239 H   0  0  0  0  0  0  0  0  0  0  0  0
   56.1932   28.4184   42.8555 H   0  0  0  0  0  0  0  0  0  0  0  0
   57.9830   28.1550   43.9620 C   0  0  0  0  0  0  0  0  0  0  0  0
   59.2210   28.3170   43.7770 O   0  0  0  0  0  0  0  0  0  0  0  0
   57.5090   27.1090   44.8220 N   0  0  0  0  0  0  0  0  0  0  0  0
   56.4800   27.0280   44.9870 H   0  0  0  0  0  0  0  0  0  0  0  0
   58.4260   26.2260   45.5500 C   0  0  1  0  0  0  0  0  0  0  0  0
   59.4568   26.5407   45.3300 H   0  0  0  0  0  0  0  0  0  0  0  0
   58.1580   26.3300   47.0240 C   0  0  0  0  0  0  0  0  0  0  0  0
   57.0050   26.0750   47.4690 O   0  0  0  0  0  0  0  0  0  0  0  0
   59.1780   26.7500   47.8850 O   0  0  0  0  0  0  0  0  0  0  0  0
   59.8660   27.9840   47.7140 C   0  0  0  0  0  0  0  0  0  0  0  0
   60.6183   27.8768   46.9187 H   0  0  0  0  0  0  0  0  0  0  0  0
   60.3633   28.2591   48.6558 H   0  0  0  0  0  0  0  0  0  0  0  0
   58.8750   29.0700   47.3300 C   0  0  0  0  0  0  0  0  0  0  0  0
   58.4592   29.5256   48.2408 H   0  0  0  0  0  0  0  0  0  0  0  0
   59.3876   29.8407   46.7356 H   0  0  0  0  0  0  0  0  0  0  0  0
   58.0608   28.6299   46.7356 H   0  0  0  0  0  0  0  0  0  0  0  0
   58.2550   24.7600   45.1030 C   0  0  0  0  0  0  0  0  0  0  0  0
   58.9773   24.5575   44.2985 H   0  0  0  0  0  0  0  0  0  0  0  0
   58.4241   24.1350   45.9922 H   0  0  0  0  0  0  0  0  0  0  0  0
   56.8430   24.4220   44.5830 C   0  0  0  0  0  0  0  0  0  0  0  0
   56.4648   25.2951   44.0311 H   0  0  0  0  0  0  0  0  0  0  0  0
   56.9530   23.5236   43.9579 H   0  0  0  0  0  0  0  0  0  0  0  0
   55.8150   24.0640   45.6730 C   0  0  0  0  0  0  0  0  0  0  0  0
   55.5889   22.9899   45.6005 H   0  0  0  0  0  0  0  0  0  0  0  0
   56.2622   24.3287   46.6425 H   0  0  0  0  0  0  0  0  0  0  0  0
   54.5030   24.8470   45.5490 C   0  0  0  0  0  0  0  0  0  0  0  0
   54.1434   24.7933   44.5108 H   0  0  0  0  0  0  0  0  0  0  0  0
   53.7551   24.4082   46.2259 H   0  0  0  0  0  0  0  0  0  0  0  0
   54.7190   26.2430   45.9140 N   0  0  0  0  0  0  0  0  0  0  0  0
   53.7850   26.7090   45.9860 H   0  0  0  0  0  0  0  0  0  0  0  0
   55.1340   26.2600   46.8730 H   0  0  0  0  0  0  0  0  0  0  0  0
   57.9460   33.4980   45.3010 C   0  0  0  0  0  0  0  0  0  0  0  0
   57.7225   34.0098   44.3533 H   0  0  0  0  0  0  0  0  0  0  0  0
   57.5008   34.0413   46.1476 H   0  0  0  0  0  0  0  0  0  0  0  0
   59.3510   33.4530   45.4830 O   0  0  0  0  0  0  0  0  0  0  0  0
   59.7090   32.4640   46.4310 C   0  0  0  0  0  0  0  0  0  0  0  0
   59.0301   32.5290   47.2941 H   0  0  0  0  0  0  0  0  0  0  0  0
   59.6303   31.4749   45.9561 H   0  0  0  0  0  0  0  0  0  0  0  0
   61.1260   32.6630   46.9010 C   0  0  0  0  0  0  0  0  0  0  0  0
   61.8970   33.7290   46.4100 C   0  0  0  0  0  0  0  0  0  0  0  0
   61.4719   34.4127   45.6604 H   0  0  0  0  0  0  0  0  0  0  0  0
   63.2030   33.9250   46.8700 C   0  0  0  0  0  0  0  0  0  0  0  0
   63.8040   34.7594   46.4794 H   0  0  0  0  0  0  0  0  0  0  0  0
   63.7450   33.0610   47.8260 C   0  0  0  0  0  0  0  0  0  0  0  0
   64.7722   33.2163   48.1877 H   0  0  0  0  0  0  0  0  0  0  0  0
   62.9820   31.9990   48.3230 C   0  0  0  0  0  0  0  0  0  0  0  0
   63.4099   31.3193   49.0746 H   0  0  0  0  0  0  0  0  0  0  0  0
   61.6760   31.8010   47.8650 C   0  0  0  0  0  0  0  0  0  0  0  0
   61.0769   30.9676   48.2606 H   0  0  0  0  0  0  0  0  0  0  0  0
  1  2  1  0
  2  3  2  0
  3  4  1  0
  4  5  1  0
  4  6  1  0
  4  7  1  0
  3  8  1  0
  8  9  1  0
  8 10  1  0
  8 11  1  0
 11 12  1  0
 11 13  1  0
 11 14  1  0
 14 15  2  0
 14 16  1  0
 16 17  1  0
 16 18  1  0
 18 19  1  1
 18 20  1  0
 20 21  2  0
 20 22  1  0
 22 23  1  0
 23 24  1  0
 23 25  1  0
 23 26  1  0
 26 27  1  0
 26 28  1  0
 26 29  1  0
 18 30  1  0
 30 31  1  0
 30 32  1  0
 30 33  1  0
 33 34  1  0
 33 35  1  0
 33 36  1  0
 36 37  1  0
 36 38  1  0
 36 39  1  0
 39 40  1  0
 39 41  1  0
 39 42  1  0
 42 43  1  0
 42 44  1  0
  2 45  1  0
 45 46  1  0
 45 47  1  0
 45 48  1  0
 48 49  1  0
 49 50  1  0
 49 51  1  0
 49 52  1  0
 52 53  2  0
 53 54  1  0
 53 55  1  0
 55 56  1  0
 55 57  2  0
 57 58  1  0
 57 59  1  0
 59 60  1  0
 59 61  2  0
 61 62  1  0
 61 52  1  0
M  END
>  <UniqueID>  (7) 
6

>  <SMILES>  (7) 
CCOC(=O)[C@@H](CCCCN)NC(=O)CC/C(C)=C/COCc1ccccc1

>  <Energy>  (7) 
36.506856464224434

>  <Genealogy>  (7) 
CCOC(=O)[C@@H](CCCCN)NC(=O)CCC(C)=CCOCc1ccccc1 (chirality)
CCOC(=O)[C@@H](CCCCN)NC(=O)CC/C(C)=C/COCc1ccccc1 (cis-trans isomerization)
CCOC(=O)[C@@H](CCCCN)NC(=O)CC/C(C)=C/COCc1ccccc1 (3D coordinates assigned)
CCOC(=O)[C@@H](CCCCN)NC(=O)CC/C(C)=C/COCc1ccccc1 (optimized conformer: 36.506856464224434 kcal/mol)

>  <smiles>  (7) 
CCOC(=O)C(CCCCN)NC(=O)CCC(C)=CCOCc1ccccc1

>  <score_type>  (7) 
oracle

>  <origin>  (7) 
adg

>  <m_score__min__energy>  (7) 
-8.2799999999999994

>  <m_primary>  (7) 
energy

$$$$
7:0
     RDKit          3D

 62 65  0  0  0  0  0  0  0  0999 V2000
   57.7980   33.7890   45.9550 C   0  0  0  0  0  0  0  0  0  0  0  0
   59.3010   33.5860   45.6980 C   0  0  0  0  0  0  0  0  0  0  0  0
   60.0890   33.2840   46.9230 N   0  0  0  0  0  0  0  0  0  0  0  0
   59.2740   33.4880   48.1460 C   0  0  0  0  0  0  0  0  0  0  0  0
   60.0960   34.0850   49.2910 C   0  0  0  0  0  0  0  0  0  0  0  0
   61.3850   34.0100   46.9510 C   0  0  0  0  0  0  0  0  0  0  0  0
   62.5760   33.0470   46.8000 C   0  0  0  0  0  0  0  0  0  0  0  0
   62.3130   31.7240   47.3780 N   0  0  0  0  0  0  0  0  0  0  0  0
   62.3060   31.4570   48.7890 C   0  0  0  0  0  0  0  0  0  0  0  0
   63.2440   32.0500   49.6710 C   0  0  0  0  0  0  0  0  0  0  0  0
   64.3570   32.7590   49.1760 C   0  0  0  0  0  0  0  0  0  0  0  0
   65.2500   33.3820   50.0440 C   0  0  0  0  0  0  0  0  0  0  0  0
   65.0620   33.2970   51.4200 C   0  0  0  0  0  0  0  0  0  0  0  0
   63.9980   32.5620   51.9420 C   0  0  0  0  0  0  0  0  0  0  0  0
   63.0750   31.9060   51.0900 C   0  0  0  0  0  0  0  0  0  0  0  0
   62.0300   31.1470   51.5990 N   0  0  0  0  0  0  0  0  0  0  0  0
   61.8240   31.0190   53.0550 C   0  0  0  0  0  0  0  0  0  0  0  0
   61.1910   30.5210   50.7120 C   0  0  0  0  0  0  0  0  0  0  0  0
   60.0430   29.7680   50.9410 C   0  0  0  0  0  0  0  0  0  0  0  0
   59.5010   29.4600   49.7810 O   0  0  0  0  0  0  0  0  0  0  0  0
   60.2330   29.9670   48.8060 C   0  0  0  0  0  0  0  0  0  0  0  0
   59.8750   29.8280   47.3870 C   0  0  0  0  0  0  0  0  0  0  0  0
   60.7710   29.2090   46.5010 C   0  0  0  0  0  0  0  0  0  0  0  0
   60.4270   29.0520   45.1560 C   0  0  0  0  0  0  0  0  0  0  0  0
   59.2000   29.5260   44.6860 C   0  0  0  0  0  0  0  0  0  0  0  0
   58.3070   30.1640   45.5610 C   0  0  0  0  0  0  0  0  0  0  0  0
   57.0500   30.6760   45.1000 N   0  0  0  0  0  0  0  0  0  0  0  0
   56.1310   29.9890   44.2330 C   0  0  0  0  0  0  0  0  0  0  0  0
   56.3060   29.9780   42.7420 C   0  0  0  0  0  0  0  0  0  0  0  0
   55.1710   29.3450   44.7440 O   0  0  0  0  0  0  0  0  0  0  0  0
   58.6680   30.3460   46.9010 C   0  0  0  0  0  0  0  0  0  0  0  0
   61.3190   30.6470   49.3530 C   0  0  0  0  0  0  0  0  0  0  0  0
   57.6115   33.8142   47.0388 H   0  0  0  0  0  0  0  0  0  0  0  0
   57.4741   34.7390   45.5050 H   0  0  0  0  0  0  0  0  0  0  0  0
   57.2337   32.9589   45.5050 H   0  0  0  0  0  0  0  0  0  0  0  0
   59.4216   32.7493   44.9941 H   0  0  0  0  0  0  0  0  0  0  0  0
   59.6864   34.5353   45.2977 H   0  0  0  0  0  0  0  0  0  0  0  0
   58.4450   34.1715   47.9102 H   0  0  0  0  0  0  0  0  0  0  0  0
   58.9003   32.5063   48.4725 H   0  0  0  0  0  0  0  0  0  0  0  0
   59.6652   33.7721   50.2536 H   0  0  0  0  0  0  0  0  0  0  0  0
   61.1345   33.7292   49.2211 H   0  0  0  0  0  0  0  0  0  0  0  0
   60.0790   35.1826   49.2211 H   0  0  0  0  0  0  0  0  0  0  0  0
   61.4057   34.7359   46.1248 H   0  0  0  0  0  0  0  0  0  0  0  0
   61.4741   34.5185   47.9223 H   0  0  0  0  0  0  0  0  0  0  0  0
   62.7964   32.9254   45.7292 H   0  0  0  0  0  0  0  0  0  0  0  0
   63.4265   33.4835   47.3441 H   0  0  0  0  0  0  0  0  0  0  0  0
   62.1440   30.9280   46.7230 H   0  0  0  0  0  0  0  0  0  0  0  0
   64.5223   32.8210   48.0903 H   0  0  0  0  0  0  0  0  0  0  0  0
   66.1062   33.9427   49.6408 H   0  0  0  0  0  0  0  0  0  0  0  0
   65.7564   33.8124   52.0998 H   0  0  0  0  0  0  0  0  0  0  0  0
   63.8732   32.4903   53.0325 H   0  0  0  0  0  0  0  0  0  0  0  0
   62.6417   31.5271   53.5871 H   0  0  0  0  0  0  0  0  0  0  0  0
   60.8644   31.4801   53.3315 H   0  0  0  0  0  0  0  0  0  0  0  0
   61.8124   29.9544   53.3315 H   0  0  0  0  0  0  0  0  0  0  0  0
   59.6529   29.4781   51.9278 H   0  0  0  0  0  0  0  0  0  0  0  0
   61.7438   28.8476   46.8657 H   0  0  0  0  0  0  0  0  0  0  0  0
   61.1239   28.5541   44.4657 H   0  0  0  0  0  0  0  0  0  0  0  0
   58.9327   29.3989   43.6266 H   0  0  0  0  0  0  0  0  0  0  0  0
   57.3767   29.9107   42.4990 H   0  0  0  0  0  0  0  0  0  0  0  0
   55.7784   29.1112   42.3173 H   0  0  0  0  0  0  0  0  0  0  0  0
   55.8911   30.9040   42.3173 H   0  0  0  0  0  0  0  0  0  0  0  0
   57.9994   30.8995   47.5767 H   0  0  0  0  0  0  0  0  0  0  0  0
  1  2  1  0
  2  3  1  0
  3  4  1  0
  4  5  1  0
  3  6  1  0
  6  7  1  0
  7  8  1  0
  8  9  1  0
  9 10  2  0
 10 11  1  0
 11 12  2  0
 12 13  1  0
 13 14  2  0
 14 15  1  0
 15 16  2  0
 16 17  1  0
 16 18  1  0
 18 19  2  0
 19 20  1  0
 20 21  1  0
 21 22  1  0
 22 23  2  0
 23 24  1  0
 24 25  2  0
 25 26  1  0
 26 27  1  0
 27 28  1  0
 28 29  1  0
 28 30  2  0
 26 31  2  0
 21 32  2  0
 32  9  1  0
 15 10  1  0
 32 18  1  0
 31 22  1  0
  1 33  1  0
  1 34  1  0
  1 35  1  0
  2 36  1  0
  2 37  1  0
  4 38  1  0
  4 39  1  0
  5 40  1  0
  5 41  1  0
  5 42  1  0
  6 43  1  0
  6 44  1  0
  7 45  1  0
  7 46  1  0
  8 47  1  0
 11 48  1  0
 12 49  1  0
 13 50  1  0
 14 51  1  0
 17 52  1  0
 17 53  1  0
 17 54  1  0
 19 55  1  0
 23 56  1  0
 24 57  1  0
 25 58  1  0
 29 59  1  0
 29 60  1  0
 29 61  1  0
 31 62  1  0
M  CHG  2  16   1  27  -1
M  END
>  <UniqueID>  (8) 
7

>  <SMILES>  (8) 
CCN(CC)CCNc1c2ccccc2[n+](C)c2coc(-c3cccc([N-]C(C)=O)c3)c12

>  <Energy>  (8) 
124.37224558405319

>  <Genealogy>  (8) 
CCN(CC)CCNc1c2ccccc2[n+](C)c2coc(-c3cccc([N-]C(C)=O)c3)c12 (protonated)
CCN(CC)CCNc1c2ccccc2[n+](C)c2coc(-c3cccc([N-]C(C)=O)c3)c12 (3D coordinates assigned)
CCN(CC)CCNc1c2ccccc2[n+](C)c2coc(-c3cccc([N-]C(C)=O)c3)c12 (optimized conformer: 124.37224558405319 kcal/mol)

>  <smiles>  (8) 
CCN(CC)CCNc1c2ccccc2[n+](C)c2coc(-c3cccc(NC(C)=O)c3)c12

>  <score_type>  (8) 
oracle

>  <origin>  (8) 
adg

>  <m_score__min__energy>  (8) 
-9.4399999999999995

>  <m_primary>  (8) 
energy

$$$$
8:0
     RDKit          3D

 39 41  0  0  0  0  0  0  0  0999 V2000
   63.3540   34.1840   48.0020 C   0  0  0  0  0  0  0  0  0  0  0  0
   63.3970   33.3120   46.7470 C   0  0  0  0  0  0  0  0  0  0  0  0
   63.4840   31.8860   47.1030 N   0  0  0  0  0  0  0  0  0  0  0  0
   62.8930   31.5970   48.4240 C   0  0  0  0  0  0  0  0  0  0  0  0
   61.4390   31.1030   48.3510 C   0  0  0  0  0  0  0  0  0  0  0  0
   61.0610   30.8740   46.9600 N   0  0  0  0  0  0  0  0  0  0  0  0
   59.9160   30.9040   46.3210 C   0  0  0  0  0  0  0  0  0  0  0  0
   59.3340   29.6460   46.0150 C   0  0  0  0  0  0  0  0  0  0  0  0
   60.0220   28.4300   46.2380 C   0  0  0  0  0  0  0  0  0  0  0  0
   59.4140   27.2040   45.9520 C   0  0  0  0  0  0  0  0  0  0  0  0
   58.1130   27.1670   45.4500 C   0  0  0  0  0  0  0  0  0  0  0  0
   57.4150   28.3540   45.2290 C   0  0  0  0  0  0  0  0  0  0  0  0
   58.0170   29.5880   45.5090 C   0  0  0  0  0  0  0  0  0  0  0  0
   57.3170   30.7260   45.3010 N   0  0  0  0  0  0  0  0  0  0  0  0
   57.8440   31.9530   45.5230 C   0  0  0  0  0  0  0  0  0  0  0  0
   57.0520   33.0740   45.2470 C   0  0  0  0  0  0  0  0  0  0  0  0
   57.5730   34.3560   45.3860 C   0  0  0  0  0  0  0  0  0  0  0  0
   58.8980   34.5250   45.7720 C   0  0  0  0  0  0  0  0  0  0  0  0
   59.7000   33.4160   46.0570 C   0  0  0  0  0  0  0  0  0  0  0  0
   59.1800   32.0970   45.9960 C   0  0  0  0  0  0  0  0  0  0  0  0
   63.3856   33.5428   48.8952 H   0  0  0  0  0  0  0  0  0  0  0  0
   64.2198   34.8625   48.0069 H   0  0  0  0  0  0  0  0  0  0  0  0
   62.4257   34.7741   48.0069 H   0  0  0  0  0  0  0  0  0  0  0  0
   62.4831   33.4816   46.1587 H   0  0  0  0  0  0  0  0  0  0  0  0
   64.2867   33.5834   46.1598 H   0  0  0  0  0  0  0  0  0  0  0  0
   64.4820   31.5720   47.0740 H   0  0  0  0  0  0  0  0  0  0  0  0
   62.9520   31.3290   46.3940 H   0  0  0  0  0  0  0  0  0  0  0  0
   63.4998   30.8218   48.9147 H   0  0  0  0  0  0  0  0  0  0  0  0
   62.8858   32.5411   48.9885 H   0  0  0  0  0  0  0  0  0  0  0  0
   61.3446   30.1628   48.9141 H   0  0  0  0  0  0  0  0  0  0  0  0
   60.7755   31.8651   48.7856 H   0  0  0  0  0  0  0  0  0  0  0  0
   61.0456   28.4494   46.6404 H   0  0  0  0  0  0  0  0  0  0  0  0
   59.9629   26.2662   46.1232 H   0  0  0  0  0  0  0  0  0  0  0  0
   57.6371   26.2004   45.2282 H   0  0  0  0  0  0  0  0  0  0  0  0
   56.3890   28.3214   44.8338 H   0  0  0  0  0  0  0  0  0  0  0  0
   56.0109   32.9399   44.9181 H   0  0  0  0  0  0  0  0  0  0  0  0
   56.9388   35.2334   45.1912 H   0  0  0  0  0  0  0  0  0  0  0  0
   59.3181   35.5383   45.8537 H   0  0  0  0  0  0  0  0  0  0  0  0
   60.7536   33.5686   46.3337 H   0  0  0  0  0  0  0  0  0  0  0  0
  1  2  1  0
  2  3  1  0
  3  4  1  0
  4  5  1  0
  5  6  1  0
  6  7  2  3
  7  8  1  0
  8  9  2  0
  9 10  1  0
 10 11  2  0
 11 12  1  0
 12 13  2  0
 13 14  1  0
 14 15  1  0
 15 16  2  0
 16 17  1  0
 17 18  2  0
 18 19  1  0
 19 20  2  0
 20  7  1  0
 13  8  1  0
 20 15  1  0
  1 21  1  0
  1 22  1  0
  1 23  1  0
  2 24  1  0
  2 25  1  0
  3 26  1  0
  3 27  1  0
  4 28  1  0
  4 29  1  0
  5 30  1  0
  5 31  1  0
  9 32  1  0
 10 33  1  0
 11 34  1  0
 12 35  1  0
 16 36  1  0
 17 37  1  0
 18 38  1  0
 19 39  1  0
M  CHG  2   3   1  14  -1
M  END
>  <UniqueID>  (9) 
8

>  <SMILES>  (9) 
CC[NH2+]CCN=c1c2ccccc2[n-]c2ccccc12

>  <Energy>  (9) 
60.4335629925775

>  <Genealogy>  (9) 
CC[NH2+]CCN=c1c2ccccc2[n-]c2ccccc12 (protonated)
CC[NH2+]CCN=c1c2ccccc2[n-]c2ccccc12 (3D coordinates assigned)
CC[NH2+]CCN=c1c2ccccc2[n-]c2ccccc12 (optimized conformer: 60.4335629925775 kcal/mol)

>  <smiles>  (9) 
CCNCCN=c1c2ccccc2[nH]c2ccccc12

>  <score_type>  (9) 
oracle

>  <origin>  (9) 
adg

>  <m_score__min__energy>  (9) 
-6.7599999999999998

>  <m_primary>  (9) 
energy

$$$$
9:0
     RDKit          3D

 50 52  0  0  0  0  0  0  0  0999 V2000
   58.1100   33.6560   52.6920 C   0  0  0  0  0  0  0  0  0  0  0  0
   57.3430   32.3740   52.3860 C   0  0  0  0  0  0  0  0  0  0  0  0
   57.5570   31.9920   50.9820 N   0  0  0  0  0  0  0  0  0  0  0  0
   58.1540   30.6520   50.8490 C   0  0  0  0  0  0  0  0  0  0  0  0
   59.6910   30.7230   50.7720 C   0  0  0  0  0  0  0  0  0  0  0  0
   60.2350   32.0780   50.9980 N   0  0  0  0  0  0  0  0  0  0  0  0
   61.1420   32.5030   49.9360 C   0  0  0  0  0  0  0  0  0  0  0  0
   62.5540   32.5510   50.1400 C   0  0  0  0  0  0  0  0  0  0  0  0
   63.1580   32.2030   51.3800 C   0  0  0  0  0  0  0  0  0  0  0  0
   64.5320   32.3200   51.5740 C   0  0  0  0  0  0  0  0  0  0  0  0
   65.3400   32.7940   50.5510 C   0  0  0  0  0  0  0  0  0  0  0  0
   64.7900   33.1020   49.3100 C   0  0  0  0  0  0  0  0  0  0  0  0
   63.4030   32.9400   49.0630 C   0  0  0  0  0  0  0  0  0  0  0  0
   62.8830   33.1450   47.8060 N   0  0  0  0  0  0  0  0  0  0  0  0
   63.7750   33.1490   46.6230 C   0  0  0  0  0  0  0  0  0  0  0  0
   61.5230   33.2890   47.6380 C   0  0  0  0  0  0  0  0  0  0  0  0
   60.9970   33.8260   46.4400 C   0  0  0  0  0  0  0  0  0  0  0  0
   59.6210   33.9010   46.2080 C   0  0  0  0  0  0  0  0  0  0  0  0
   59.1200   34.4710   44.9060 C   0  0  0  0  0  0  0  0  0  0  0  0
   58.7320   33.4240   47.1860 C   0  0  0  0  0  0  0  0  0  0  0  0
   57.2390   33.4620   46.9700 C   0  0  0  0  0  0  0  0  0  0  0  0
   59.2350   32.9490   48.4010 C   0  0  0  0  0  0  0  0  0  0  0  0
   60.6270   32.9120   48.6700 C   0  0  0  0  0  0  0  0  0  0  0  0
   58.1876   33.7857   53.7816 H   0  0  0  0  0  0  0  0  0  0  0  0
   59.1186   33.5924   52.2576 H   0  0  0  0  0  0  0  0  0  0  0  0
   57.5771   34.5147   52.2576 H   0  0  0  0  0  0  0  0  0  0  0  0
   57.7012   31.5678   53.0431 H   0  0  0  0  0  0  0  0  0  0  0  0
   56.2696   32.5414   52.5586 H   0  0  0  0  0  0  0  0  0  0  0  0
   56.6210   31.9860   50.5040 H   0  0  0  0  0  0  0  0  0  0  0  0
   57.8676   30.0451   51.7206 H   0  0  0  0  0  0  0  0  0  0  0  0
   57.7826   30.1999   49.9175 H   0  0  0  0  0  0  0  0  0  0  0  0
   60.1084   30.0495   51.5350 H   0  0  0  0  0  0  0  0  0  0  0  0
   59.9757   30.4284   49.7511 H   0  0  0  0  0  0  0  0  0  0  0  0
   60.6470   32.1390   51.9500 H   0  0  0  0  0  0  0  0  0  0  0  0
   59.4490   32.7560   51.0750 H   0  0  0  0  0  0  0  0  0  0  0  0
   62.5271   31.8341   52.2021 H   0  0  0  0  0  0  0  0  0  0  0  0
   64.9769   32.0363   52.5392 H   0  0  0  0  0  0  0  0  0  0  0  0
   66.4186   32.9269   50.7210 H   0  0  0  0  0  0  0  0  0  0  0  0
   65.4421   33.4773   48.5075 H   0  0  0  0  0  0  0  0  0  0  0  0
   64.8238   33.1537   46.9546 H   0  0  0  0  0  0  0  0  0  0  0  0
   63.5857   32.2500   46.0180 H   0  0  0  0  0  0  0  0  0  0  0  0
   63.5777   34.0463   46.0180 H   0  0  0  0  0  0  0  0  0  0  0  0
   61.6902   34.1948   45.6696 H   0  0  0  0  0  0  0  0  0  0  0  0
   58.4066   35.2827   45.1115 H   0  0  0  0  0  0  0  0  0  0  0  0
   59.9685   34.8661   44.3281 H   0  0  0  0  0  0  0  0  0  0  0  0
   58.6193   33.6802   44.3281 H   0  0  0  0  0  0  0  0  0  0  0  0
   56.7278   33.4750   47.9439 H   0  0  0  0  0  0  0  0  0  0  0  0
   56.9733   34.3672   46.4043 H   0  0  0  0  0  0  0  0  0  0  0  0
   56.9276   32.5715   46.4043 H   0  0  0  0  0  0  0  0  0  0  0  0
   58.5320   32.5944   49.1691 H   0  0  0  0  0  0  0  0  0  0  0  0
  1  2  1  0
  2  3  1  0
  3  4  1  0
  4  5  1  0
  5  6  1  0
  6  7  1  0
  7  8  2  0
  8  9  1  0
  9 10  2  0
 10 11  1  0
 11 12  2  0
 12 13  1  0
 13 14  2  0
 14 15  1  0
 14 16  1  0
 16 17  2  0
 17 18  1  0
 18 19  1  0
 18 20  2  0
 20 21  1  0
 20 22  1  0
 22 23  2  0
 23  7  1  0
 13  8  1  0
 23 16  1  0
  1 24  1  0
  1 25  1  0
  1 26  1  0
  2 27  1  0
  2 28  1  0
  3 29  1  0
  4 30  1  0
  4 31  1  0
  5 32  1  0
  5 33  1  0
  6 34  1  0
  6 35  1  0
  9 36  1  0
 10 37  1  0
 11 38  1  0
 12 39  1  0
 15 40  1  0
 15 41  1  0
 15 42  1  0
 17 43  1  0
 19 44  1  0
 19 45  1  0
 19 46  1  0
 21 47  1  0
 21 48  1  0
 21 49  1  0
 22 50  1  0
M  CHG  2   6   1  14   1
M  END
>  <UniqueID>  (10) 
9

>  <SMILES>  (10) 
CCNCC[NH2+]c1c2ccccc2[n+](C)c2cc(C)c(C)cc12

>  <Energy>  (10) 
77.14349266430963

>  <Genealogy>  (10) 
CCNCC[NH2+]c1c2ccccc2[n+](C)c2cc(C)c(C)cc12 (protonated)
CCNCC[NH2+]c1c2ccccc2[n+](C)c2cc(C)c(C)cc12 (3D coordinates assigned)
CCNCC[NH2+]c1c2ccccc2[n+](C)c2cc(C)c(C)cc12 (optimized conformer: 77.14349266430963 kcal/mol)

>  <smiles>  (10) 
CCNCCNc1c2ccccc2[n+](C)c2cc(C)c(C)cc12

>  <score_type>  (10) 
oracle

>  <origin>  (10) 
adg

>  <m_score__min__energy>  (10) 
-4.3600000000000003

>  <m_primary>  (10) 
energy

$$$$
10:0
     RDKit          3D

 50 53  0  0  0  0  0  0  0  0999 V2000
   56.3620   29.7000   42.7390 C   0  0  0  0  0  0  0  0  0  0  0  0
   56.1410   30.3080   44.1200 C   0  0  0  0  0  0  0  0  0  0  0  0
   55.9350   29.2460   45.1170 N   0  0  0  0  0  0  0  0  0  0  0  0
   57.0890   28.3380   45.2250 C   0  0  0  0  0  0  0  0  0  0  0  0
   58.4060   29.0960   45.4590 C   0  0  0  0  0  0  0  0  0  0  0  0
   58.2510   30.0820   46.5270 N   0  0  0  0  0  0  0  0  0  0  0  0
   59.2570   31.0810   46.7460 C   0  0  0  0  0  0  0  0  0  0  0  0
   60.3320   30.8180   47.6100 C   0  0  0  0  0  0  0  0  0  0  0  0
   61.3110   31.8140   47.8340 C   0  0  0  0  0  0  0  0  0  0  0  0
   61.3020   32.9630   47.0620 N   0  0  0  0  0  0  0  0  0  0  0  0
   62.5230   33.7810   46.9210 C   0  0  0  0  0  0  0  0  0  0  0  0
   60.1730   33.2980   46.3380 C   0  0  0  0  0  0  0  0  0  0  0  0
   59.9980   34.5920   45.7840 C   0  0  0  0  0  0  0  0  0  0  0  0
   58.8810   34.8960   45.0060 C   0  0  0  0  0  0  0  0  0  0  0  0
   57.9100   33.9290   44.7680 C   0  0  0  0  0  0  0  0  0  0  0  0
   58.0350   32.6620   45.3310 C   0  0  0  0  0  0  0  0  0  0  0  0
   59.1440   32.3410   46.1420 C   0  0  0  0  0  0  0  0  0  0  0  0
   62.2830   31.5890   48.9700 C   0  0  0  0  0  0  0  0  0  0  0  0
   63.2670   32.4880   49.2510 N   0  0  0  0  0  0  0  0  0  0  0  0
   64.1340   32.3340   50.2870 C   0  0  0  0  0  0  0  0  0  0  0  0
   64.0220   31.2320   51.1290 C   0  0  0  0  0  0  0  0  0  0  0  0
   63.0070   30.3060   50.9050 C   0  0  0  0  0  0  0  0  0  0  0  0
   62.1280   30.4720   49.8250 C   0  0  0  0  0  0  0  0  0  0  0  0
   60.9530   29.5490   49.6770 C   0  0  0  0  0  0  0  0  0  0  0  0
   60.5190   29.4450   48.2200 C   0  0  0  0  0  0  0  0  0  0  0  0
   56.7360   28.6712   42.8469 H   0  0  0  0  0  0  0  0  0  0  0  0
   55.4106   29.6883   42.1870 H   0  0  0  0  0  0  0  0  0  0  0  0
   57.0988   30.3020   42.1870 H   0  0  0  0  0  0  0  0  0  0  0  0
   57.0228   30.9030   44.4001 H   0  0  0  0  0  0  0  0  0  0  0  0
   55.2481   30.9498   44.0903 H   0  0  0  0  0  0  0  0  0  0  0  0
   55.7420   29.6830   46.0490 H   0  0  0  0  0  0  0  0  0  0  0  0
   56.9213   27.6511   46.0676 H   0  0  0  0  0  0  0  0  0  0  0  0
   57.1786   27.7920   44.2743 H   0  0  0  0  0  0  0  0  0  0  0  0
   59.1906   28.3784   45.7409 H   0  0  0  0  0  0  0  0  0  0  0  0
   58.6830   29.6190   44.5318 H   0  0  0  0  0  0  0  0  0  0  0  0
   57.3850   30.1120   47.1130 H   0  0  0  0  0  0  0  0  0  0  0  0
   62.9085   34.0393   47.9183 H   0  0  0  0  0  0  0  0  0  0  0  0
   63.2850   33.2104   46.3698 H   0  0  0  0  0  0  0  0  0  0  0  0
   62.2852   34.7028   46.3698 H   0  0  0  0  0  0  0  0  0  0  0  0
   60.7550   35.3679   45.9709 H   0  0  0  0  0  0  0  0  0  0  0  0
   58.7677   35.9035   44.5794 H   0  0  0  0  0  0  0  0  0  0  0  0
   57.0425   34.1656   44.1343 H   0  0  0  0  0  0  0  0  0  0  0  0
   57.2613   31.9034   45.1417 H   0  0  0  0  0  0  0  0  0  0  0  0
   64.9236   33.0802   50.4594 H   0  0  0  0  0  0  0  0  0  0  0  0
   64.7272   31.0941   51.9619 H   0  0  0  0  0  0  0  0  0  0  0  0
   62.8942   29.4422   51.5766 H   0  0  0  0  0  0  0  0  0  0  0  0
   61.2329   28.5494   50.0410 H   0  0  0  0  0  0  0  0  0  0  0  0
   60.1148   29.9526   50.2639 H   0  0  0  0  0  0  0  0  0  0  0  0
   61.2893   28.9015   47.6532 H   0  0  0  0  0  0  0  0  0  0  0  0
   59.5593   28.9092   48.1777 H   0  0  0  0  0  0  0  0  0  0  0  0
  1  2  1  0
  2  3  1  0
  3  4  1  0
  4  5  1  0
  5  6  1  0
  6  7  1  0
  7  8  2  0
  8  9  1  0
  9 10  2  0
 10 11  1  0
 10 12  1  0
 12 13  2  0
 13 14  1  0
 14 15  2  0
 15 16  1  0
 16 17  2  0
  9 18  1  0
 18 19  2  0
 19 20  1  0
 20 21  2  0
 21 22  1  0
 22 23  2  0
 23 24  1  0
 24 25  1  0
 17  7  1  0
 23 18  1  0
 25  8  1  0
 17 12  1  0
  1 26  1  0
  1 27  1  0
  1 28  1  0
  2 29  1  0
  2 30  1  0
  3 31  1  0
  4 32  1  0
  4 33  1  0
  5 34  1  0
  5 35  1  0
  6 36  1  0
 11 37  1  0
 11 38  1  0
 11 39  1  0
 13 40  1  0
 14 41  1  0
 15 42  1  0
 16 43  1  0
 20 44  1  0
 21 45  1  0
 22 46  1  0
 24 47  1  0
 24 48  1  0
 25 49  1  0
 25 50  1  0
M  CHG  1  10   1
M  END
>  <UniqueID>  (11) 
10

>  <SMILES>  (11) 
CCNCCNc1c2c([n+](C)c3ccccc13)-c1ncccc1CC2

>  <Energy>  (11) 
82.1639508452561

>  <Genealogy>  (11) 
CCNCCNc1c2c([n+](C)c3ccccc13)-c1ncccc1CC2 (3D coordinates assigned)
CCNCCNc1c2c([n+](C)c3ccccc13)-c1ncccc1CC2 (nonaromatic ring conformer: 82.1639508452561 kcal/mol)

>  <smiles>  (11) 
CCNCCNc1c2c([n+](C)c3ccccc13)-c1ncccc1CC2

>  <score_type>  (11) 
oracle

>  <origin>  (11) 
adg

>  <m_score__min__energy>  (11) 
-6.6600000000000001

>  <m_primary>  (11) 
energy

$$$$
11:0
     RDKit          3D

 57 59  0  0  0  0  0  0  0  0999 V2000
   57.4190   34.1370   45.2660 C   0  0  0  0  0  0  0  0  0  0  0  0
   57.9520   33.8130   46.6620 C   0  0  0  0  0  0  0  0  0  0  0  0
   59.3330   33.2810   46.6650 N   0  0  0  0  0  0  0  0  0  0  0  0
   60.3800   34.2770   46.3130 C   0  0  0  0  0  0  0  0  0  0  0  0
   61.8220   33.8410   46.6160 C   0  0  0  0  0  0  0  0  0  0  0  0
   59.6260   32.3770   47.7990 C   0  0  0  0  0  0  0  0  0  0  0  0
   60.2150   31.0450   47.2980 C   0  0  0  0  0  0  0  0  0  0  0  0
   59.7230   30.6860   45.9560 N   0  0  0  0  0  0  0  0  0  0  0  0
   58.8290   29.5500   46.0030 C   0  0  0  0  0  0  0  0  0  0  0  0
   59.2820   28.3250   46.5260 C   0  0  0  0  0  0  0  0  0  0  0  0
   58.4460   27.2060   46.5430 C   0  0  0  0  0  0  0  0  0  0  0  0
   58.9010   26.0330   47.0430 N   0  0  0  0  0  0  0  0  0  0  0  0
   58.1160   24.9260   47.0690 C   0  0  0  0  0  0  0  0  0  0  0  0
   56.8370   24.9660   46.5880 N   0  0  0  0  0  0  0  0  0  0  0  0
   56.0370   23.7300   46.5970 C   0  0  0  0  0  0  0  0  0  0  0  0
   56.3030   22.9240   45.3500 C   0  0  0  0  0  0  0  0  0  0  0  0
   55.7590   23.3360   44.1210 C   0  0  0  0  0  0  0  0  0  0  0  0
   56.0320   22.6180   42.9510 C   0  0  0  0  0  0  0  0  0  0  0  0
   56.8500   21.4890   42.9990 C   0  0  0  0  0  0  0  0  0  0  0  0
   57.4000   21.0740   44.2140 C   0  0  0  0  0  0  0  0  0  0  0  0
   57.1320   21.7870   45.3880 C   0  0  0  0  0  0  0  0  0  0  0  0
   57.6770   21.3620   46.5560 F   0  0  0  0  0  0  0  0  0  0  0  0
   56.3370   26.1350   46.0700 C   0  0  0  0  0  0  0  0  0  0  0  0
   55.1560   26.1790   45.6240 O   0  0  0  0  0  0  0  0  0  0  0  0
   57.1390   27.2920   46.0390 C   0  0  0  0  0  0  0  0  0  0  0  0
   56.6750   28.5140   45.5200 C   0  0  0  0  0  0  0  0  0  0  0  0
   57.5140   29.6470   45.4980 C   0  0  0  0  0  0  0  0  0  0  0  0
   57.0760   30.8800   44.9850 O   0  0  0  0  0  0  0  0  0  0  0  0
   57.0720   31.2280   43.6050 C   0  0  0  0  0  0  0  0  0  0  0  0
   56.4821   34.7065   45.3543 H   0  0  0  0  0  0  0  0  0  0  0  0
   58.1623   34.7362   44.7197 H   0  0  0  0  0  0  0  0  0  0  0  0
   57.2292   33.2013   44.7197 H   0  0  0  0  0  0  0  0  0  0  0  0
   57.9339   34.7343   47.2627 H   0  0  0  0  0  0  0  0  0  0  0  0
   57.3047   33.0268   47.0778 H   0  0  0  0  0  0  0  0  0  0  0  0
   60.3056   34.4832   45.2351 H   0  0  0  0  0  0  0  0  0  0  0  0
   60.1879   35.1589   46.9418 H   0  0  0  0  0  0  0  0  0  0  0  0
   61.9703   33.7961   47.7050 H   0  0  0  0  0  0  0  0  0  0  0  0
   62.0040   32.8477   46.1799 H   0  0  0  0  0  0  0  0  0  0  0  0
   62.5239   34.5671   46.1799 H   0  0  0  0  0  0  0  0  0  0  0  0
   60.3506   32.8624   48.4693 H   0  0  0  0  0  0  0  0  0  0  0  0
   58.6885   32.1686   48.3353 H   0  0  0  0  0  0  0  0  0  0  0  0
   61.3107   31.1343   47.2609 H   0  0  0  0  0  0  0  0  0  0  0  0
   59.9000   30.2543   47.9948 H   0  0  0  0  0  0  0  0  0  0  0  0
   59.2510   31.5130   45.5180 H   0  0  0  0  0  0  0  0  0  0  0  0
   60.5420   30.4530   45.3480 H   0  0  0  0  0  0  0  0  0  0  0  0
   60.3041   28.2477   46.9253 H   0  0  0  0  0  0  0  0  0  0  0  0
   58.5132   23.9868   47.4815 H   0  0  0  0  0  0  0  0  0  0  0  0
   56.3047   23.1311   47.4800 H   0  0  0  0  0  0  0  0  0  0  0  0
   54.9700   23.9951   46.6303 H   0  0  0  0  0  0  0  0  0  0  0  0
   55.1155   24.2272   44.0786 H   0  0  0  0  0  0  0  0  0  0  0  0
   55.6012   22.9442   41.9929 H   0  0  0  0  0  0  0  0  0  0  0  0
   57.0621   20.9249   42.0788 H   0  0  0  0  0  0  0  0  0  0  0  0
   58.0457   20.1841   44.2482 H   0  0  0  0  0  0  0  0  0  0  0  0
   55.6497   28.5864   45.1282 H   0  0  0  0  0  0  0  0  0  0  0  0
   57.0594   32.3232   43.5031 H   0  0  0  0  0  0  0  0  0  0  0  0
   57.9748   30.8252   43.1227 H   0  0  0  0  0  0  0  0  0  0  0  0
   56.1787   30.8046   43.1227 H   0  0  0  0  0  0  0  0  0  0  0  0
  1  2  1  0
  2  3  1  0
  3  4  1  0
  4  5  1  0
  3  6  1  0
  6  7  1  0
  7  8  1  0
  8  9  1  0
  9 10  2  0
 10 11  1  0
 11 12  1  0
 12 13  2  0
 13 14  1  0
 14 15  1  0
 15 16  1  0
 16 17  2  0
 17 18  1  0
 18 19  2  0
 19 20  1  0
 20 21  2  0
 21 22  1  0
 14 23  1  0
 23 24  2  0
 23 25  1  0
 25 26  1  0
 26 27  2  0
 27 28  1  0
 28 29  1  0
 27  9  1  0
 25 11  2  0
 21 16  1  0
  1 30  1  0
  1 31  1  0
  1 32  1  0
  2 33  1  0
  2 34  1  0
  4 35  1  0
  4 36  1  0
  5 37  1  0
  5 38  1  0
  5 39  1  0
  6 40  1  0
  6 41  1  0
  7 42  1  0
  7 43  1  0
  8 44  1  0
  8 45  1  0
 10 46  1  0
 13 47  1  0
 15 48  1  0
 15 49  1  0
 17 50  1  0
 18 51  1  0
 19 52  1  0
 20 53  1  0
 26 54  1  0
 29 55  1  0
 29 56  1  0
 29 57  1  0
M  CHG  1   8   1
M  END
>  <UniqueID>  (12) 
11

>  <SMILES>  (12) 
CCN(CC)CC[NH2+]c1cc2ncn(Cc3ccccc3F)c(=O)c2cc1OC

>  <Energy>  (12) 
69.82228409604807

>  <Genealogy>  (12) 
CCN(CC)CC[NH2+]c1cc2ncn(Cc3ccccc3F)c(=O)c2cc1OC (protonated)
CCN(CC)CC[NH2+]c1cc2ncn(Cc3ccccc3F)c(=O)c2cc1OC (3D coordinates assigned)
CCN(CC)CC[NH2+]c1cc2ncn(Cc3ccccc3F)c(=O)c2cc1OC (optimized conformer: 69.82228409604807 kcal/mol)

>  <smiles>  (12) 
CCN(CC)CCNc1cc2ncn(Cc3ccccc3F)c(=O)c2cc1OC

>  <score_type>  (12) 
oracle

>  <origin>  (12) 
adg

>  <m_score__min__energy>  (12) 
-5.54

>  <m_primary>  (12) 
energy

$$$$
12:0
     RDKit          3D

 36 36  0  0  0  0  0  0  0  0999 V2000
   56.6290   21.8610   42.6490 C   0  0  0  0  0  0  0  0  0  0  0  0
   56.3980   23.3330   43.0110 C   0  0  0  0  0  0  0  0  0  0  0  0
   56.3870   23.5690   44.4800 N   0  0  0  0  0  0  0  0  0  0  0  0
   57.2920   22.6140   45.1930 C   0  0  0  0  0  0  0  0  0  0  0  0
   58.7470   23.0960   45.2000 C   0  0  0  0  0  0  0  0  0  0  0  0
   56.7940   24.9660   44.7760 C   0  0  0  0  0  0  0  0  0  0  0  0
   55.7640   25.7000   45.6060 C   0  0  0  0  0  0  0  0  0  0  0  0
   54.7320   25.0860   45.9840 O   0  0  0  0  0  0  0  0  0  0  0  0
   55.8940   27.0930   45.9230 N   0  0  0  0  0  0  0  0  0  0  0  0
   57.0970   27.8600   45.7790 C   0  0  0  0  0  0  0  0  0  0  0  0
   58.3060   27.4520   46.3920 C   0  0  0  0  0  0  0  0  0  0  0  0
   58.3840   26.2110   47.2410 C   0  0  0  0  0  0  0  0  0  0  0  0
   59.4700   28.2120   46.1920 C   0  0  0  0  0  0  0  0  0  0  0  0
   59.4270   29.3870   45.4400 C   0  0  0  0  0  0  0  0  0  0  0  0
   58.2230   29.8170   44.8820 C   0  0  0  0  0  0  0  0  0  0  0  0
   57.0580   29.0640   45.0540 C   0  0  0  0  0  0  0  0  0  0  0  0
   55.5600   29.6360   44.3320 Cl  0  0  0  0  0  0  0  0  0  0  0  0
   56.7222   21.2671   43.5702 H   0  0  0  0  0  0  0  0  0  0  0  0
   55.7780   21.4907   42.0585 H   0  0  0  0  0  0  0  0  0  0  0  0
   57.5525   21.7692   42.0585 H   0  0  0  0  0  0  0  0  0  0  0  0
   57.2024   23.9356   42.5639 H   0  0  0  0  0  0  0  0  0  0  0  0
   55.4100   23.6195   42.6214 H   0  0  0  0  0  0  0  0  0  0  0  0
   55.4030   23.4520   44.8230 H   0  0  0  0  0  0  0  0  0  0  0  0
   56.9482   22.5082   46.2325 H   0  0  0  0  0  0  0  0  0  0  0  0
   57.2561   21.6517   44.6614 H   0  0  0  0  0  0  0  0  0  0  0  0
   59.0906   23.2098   46.2388 H   0  0  0  0  0  0  0  0  0  0  0  0
   59.3797   22.3595   44.6831 H   0  0  0  0  0  0  0  0  0  0  0  0
   58.8149   24.0646   44.6831 H   0  0  0  0  0  0  0  0  0  0  0  0
   57.7454   24.9480   45.3278 H   0  0  0  0  0  0  0  0  0  0  0  0
   56.8953   25.4973   43.8182 H   0  0  0  0  0  0  0  0  0  0  0  0
   58.3663   26.4924   48.3042 H   0  0  0  0  0  0  0  0  0  0  0  0
   57.5250   25.5606   47.0195 H   0  0  0  0  0  0  0  0  0  0  0  0
   59.3177   25.6733   47.0195 H   0  0  0  0  0  0  0  0  0  0  0  0
   60.4220   27.8789   46.6310 H   0  0  0  0  0  0  0  0  0  0  0  0
   60.3440   29.9749   45.2871 H   0  0  0  0  0  0  0  0  0  0  0  0
   58.1902   30.7525   44.3043 H   0  0  0  0  0  0  0  0  0  0  0  0
  1  2  1  0
  2  3  1  0
  3  4  1  0
  4  5  1  0
  3  6  1  0
  6  7  1  0
  7  8  2  0
  7  9  1  0
  9 10  1  0
 10 11  2  0
 11 12  1  0
 11 13  1  0
 13 14  2  0
 14 15  1  0
 15 16  2  0
 16 17  1  0
 16 10  1  0
  1 18  1  0
  1 19  1  0
  1 20  1  0
  2 21  1  0
  2 22  1  0
  3 23  1  0
  4 24  1  0
  4 25  1  0
  5 26  1  0
  5 27  1  0
  5 28  1  0
  6 29  1  0
  6 30  1  0
 12 31  1  0
 12 32  1  0
 12 33  1  0
 13 34  1  0
 14 35  1  0
 15 36  1  0
M  CHG  2   3   1   9  -1
M  END
>  <UniqueID>  (13) 
12

>  <SMILES>  (13) 
CC[NH+](CC)CC(=O)[N-]c1c(C)cccc1Cl

>  <Energy>  (13) 
43.164836424148525

>  <Genealogy>  (13) 
CC[NH+](CC)CC(=O)[N-]c1c(C)cccc1Cl (protonated)
CC[NH+](CC)CC(=O)[N-]c1c(C)cccc1Cl (3D coordinates assigned)
CC[NH+](CC)CC(=O)[N-]c1c(C)cccc1Cl (optimized conformer: 43.164836424148525 kcal/mol)

>  <smiles>  (13) 
CCN(CC)CC(=O)Nc1c(C)cccc1Cl

>  <score_type>  (13) 
oracle

>  <origin>  (13) 
adg

>  <m_score__min__energy>  (13) 
-5.9100000000000001

>  <m_primary>  (13) 
energy

$$$$
13:0
     RDKit          3D

 49 51  0  0  0  0  0  0  0  0999 V2000
   53.3470   23.7310   44.8330 C   0  0  0  0  0  0  0  0  0  0  0  0
   54.4030   24.5100   45.6170 C   0  0  0  0  0  0  0  0  0  0  0  0
   55.7060   24.6070   44.9240 N   0  0  0  0  0  0  0  0  0  0  0  0
   55.8520   23.7350   43.7320 C   0  0  0  0  0  0  0  0  0  0  0  0
   57.0510   22.7770   43.7670 C   0  0  0  0  0  0  0  0  0  0  0  0
   56.8750   24.7300   45.8240 C   0  0  0  0  0  0  0  0  0  0  0  0
   56.8750   26.0850   46.5460 C   0  0  0  0  0  0  0  0  0  0  0  0
   56.5150   27.1640   45.6180 N   0  0  0  0  0  0  0  0  0  0  0  0
   57.6970   27.7090   44.9340 C   0  0  0  0  0  0  0  0  0  0  0  0
   58.0030   29.1150   45.4400 C   0  0  0  0  0  0  0  0  0  0  0  0
   57.5680   30.2470   44.7060 C   0  0  0  0  0  0  0  0  0  0  0  0
   56.5610   30.0140   43.0610 Br  0  0  0  0  0  0  0  0  0  0  0  0
   57.8660   31.5530   45.1630 C   0  0  0  0  0  0  0  0  0  0  0  0
   57.4160   32.6850   44.4430 C   0  0  0  0  0  0  0  0  0  0  0  0
   57.6910   33.9740   44.8840 C   0  0  0  0  0  0  0  0  0  0  0  0
   58.4140   34.1700   46.0500 C   0  0  0  0  0  0  0  0  0  0  0  0
   58.8730   33.0780   46.7810 C   0  0  0  0  0  0  0  0  0  0  0  0
   58.6230   31.7440   46.3550 C   0  0  0  0  0  0  0  0  0  0  0  0
   59.0970   30.6110   47.0790 C   0  0  0  0  0  0  0  0  0  0  0  0
   59.9050   30.7390   48.2400 C   0  0  0  0  0  0  0  0  0  0  0  0
   60.3540   29.6210   48.9400 C   0  0  0  0  0  0  0  0  0  0  0  0
   61.4470   29.8370   50.4930 Br  0  0  0  0  0  0  0  0  0  0  0  0
   60.0140   28.3490   48.5090 C   0  0  0  0  0  0  0  0  0  0  0  0
   59.2320   28.1840   47.3720 C   0  0  0  0  0  0  0  0  0  0  0  0
   58.7670   29.2980   46.6270 C   0  0  0  0  0  0  0  0  0  0  0  0
   52.6657   23.2284   45.5352 H   0  0  0  0  0  0  0  0  0  0  0  0
   52.7745   24.4248   44.1998 H   0  0  0  0  0  0  0  0  0  0  0  0
   53.8409   22.9793   44.1998 H   0  0  0  0  0  0  0  0  0  0  0  0
   54.0254   25.5284   45.7909 H   0  0  0  0  0  0  0  0  0  0  0  0
   54.5773   23.9614   46.5544 H   0  0  0  0  0  0  0  0  0  0  0  0
   54.9370   23.1319   43.6372 H   0  0  0  0  0  0  0  0  0  0  0  0
   56.0239   24.4087   42.8796 H   0  0  0  0  0  0  0  0  0  0  0  0
   57.3189   22.5629   44.8122 H   0  0  0  0  0  0  0  0  0  0  0  0
   56.7860   21.8391   43.2569 H   0  0  0  0  0  0  0  0  0  0  0  0
   57.9073   23.2425   43.2569 H   0  0  0  0  0  0  0  0  0  0  0  0
   56.8392   23.9242   46.5719 H   0  0  0  0  0  0  0  0  0  0  0  0
   57.7912   24.6555   45.2198 H   0  0  0  0  0  0  0  0  0  0  0  0
   56.1450   26.0566   47.3683 H   0  0  0  0  0  0  0  0  0  0  0  0
   57.8839   26.2774   46.9399 H   0  0  0  0  0  0  0  0  0  0  0  0
   55.8820   26.7600   44.8890 H   0  0  0  0  0  0  0  0  0  0  0  0
   58.5614   27.0574   45.1294 H   0  0  0  0  0  0  0  0  0  0  0  0
   57.4946   27.7547   43.8537 H   0  0  0  0  0  0  0  0  0  0  0  0
   56.8383   32.5423   43.5179 H   0  0  0  0  0  0  0  0  0  0  0  0
   57.3343   34.8398   44.3068 H   0  0  0  0  0  0  0  0  0  0  0  0
   58.6257   35.1915   46.3988 H   0  0  0  0  0  0  0  0  0  0  0  0
   59.4408   33.2502   47.7073 H   0  0  0  0  0  0  0  0  0  0  0  0
   60.1824   31.7427   48.5944 H   0  0  0  0  0  0  0  0  0  0  0  0
   60.3635   27.4682   49.0676 H   0  0  0  0  0  0  0  0  0  0  0  0
   58.9681   27.1681   47.0428 H   0  0  0  0  0  0  0  0  0  0  0  0
  1  2  1  0
  2  3  1  0
  3  4  1  0
  4  5  1  0
  3  6  1  0
  6  7  1  0
  7  8  1  0
  8  9  1  0
  9 10  1  0
 10 11  2  0
 11 12  1  0
 11 13  1  0
 13 14  2  0
 14 15  1  0
 15 16  2  0
 16 17  1  0
 17 18  2  0
 18 19  1  0
 19 20  2  0
 20 21  1  0
 21 22  1  0
 21 23  2  0
 23 24  1  0
 24 25  2  0
 25 10  1  0
 18 13  1  0
 25 19  1  0
  1 26  1  0
  1 27  1  0
  1 28  1  0
  2 29  1  0
  2 30  1  0
  4 31  1  0
  4 32  1  0
  5 33  1  0
  5 34  1  0
  5 35  1  0
  6 36  1  0
  6 37  1  0
  7 38  1  0
  7 39  1  0
  8 40  1  0
  9 41  1  0
  9 42  1  0
 14 43  1  0
 15 44  1  0
 16 45  1  0
 17 46  1  0
 20 47  1  0
 23 48  1  0
 24 49  1  0
M  END
>  <UniqueID>  (14) 
13

>  <SMILES>  (14) 
CCN(CC)CCNCc1c(Br)c2ccccc2c2cc(Br)ccc12

>  <Energy>  (14) 
75.0144863234513

>  <Genealogy>  (14) 
CCN(CC)CCNCc1c(Br)c2ccccc2c2cc(Br)ccc12 (3D coordinates assigned)
CCN(CC)CCNCc1c(Br)c2ccccc2c2cc(Br)ccc12 (optimized conformer: 75.0144863234513 kcal/mol)

>  <smiles>  (14) 
CCN(CC)CCNCc1c(Br)c2ccccc2c2cc(Br)ccc12

>  <score_type>  (14) 
oracle

>  <origin>  (14) 
adg

>  <m_score__min__energy>  (14) 
-8.1699999999999999

>  <m_primary>  (14) 
energy

$$$$
14:0
     RDKit          3D

 74 77  0  0  0  0  0  0  0  0999 V2000
   65.3120   32.0380   50.1480 C   0  0  0  0  0  0  0  0  0  0  0  0
   64.3700   33.2180   50.3950 C   0  0  0  0  0  0  0  0  0  0  0  0
   63.1890   33.1680   49.5000 N   0  0  0  0  0  0  0  0  0  0  0  0
   63.3900   33.9900   48.2760 C   0  0  0  0  0  0  0  0  0  0  0  0
   63.7480   33.0900   47.1010 C   0  0  0  0  0  0  0  0  0  0  0  0
   61.9760   33.5910   50.2400 C   0  0  0  0  0  0  0  0  0  0  0  0
   60.7120   32.9750   49.6230 C   0  0  0  0  0  0  0  0  0  0  0  0
   61.0490   32.1330   48.4750 N   0  0  0  0  0  0  0  0  0  0  0  0
   60.0410   31.7300   47.5330 C   0  0  0  0  0  0  0  0  0  0  0  0
   59.5130   32.6930   46.6530 C   0  0  0  0  0  0  0  0  0  0  0  0
   59.7820   34.0660   46.8430 C   0  0  0  0  0  0  0  0  0  0  0  0
   59.2860   35.0190   45.9580 C   0  0  0  0  0  0  0  0  0  0  0  0
   58.5260   34.6240   44.8650 C   0  0  0  0  0  0  0  0  0  0  0  0
   58.2470   33.2750   44.6560 C   0  0  0  0  0  0  0  0  0  0  0  0
   58.7150   32.2800   45.5560 C   0  0  0  0  0  0  0  0  0  0  0  0
   58.4640   30.9390   45.3510 N   0  0  0  0  0  0  0  0  0  0  0  0
   57.4840   30.5180   44.3250 C   0  0  0  0  0  0  0  0  0  0  0  0
   59.1070   29.9880   46.1220 C   0  0  0  0  0  0  0  0  0  0  0  0
   59.1910   28.6430   45.7040 C   0  0  0  0  0  0  0  0  0  0  0  0
   59.7760   27.6540   46.5030 C   0  0  0  0  0  0  0  0  0  0  0  0
   59.8560   26.3040   46.0050 N   0  0  0  0  0  0  0  0  0  0  0  0
   58.7190   25.3860   46.0620 C   0  0  0  0  0  0  0  0  0  0  0  0
   57.5870   25.9430   46.9400 C   0  0  0  0  0  0  0  0  0  0  0  0
   56.2790   26.1710   46.1610 C   0  0  0  0  0  0  0  0  0  0  0  0
   55.3270   25.0560   46.3600 N   0  0  0  0  0  0  0  0  0  0  0  0
   55.8900   24.0630   47.2890 C   0  0  0  0  0  0  0  0  0  0  0  0
   55.0040   24.4020   45.0770 C   0  0  0  0  0  0  0  0  0  0  0  0
   60.2000   27.9830   47.8070 C   0  0  0  0  0  0  0  0  0  0  0  0
   60.7090   26.9970   48.6820 C   0  0  0  0  0  0  0  0  0  0  0  0
   61.0270   27.3130   50.0020 C   0  0  0  0  0  0  0  0  0  0  0  0
   60.8170   28.6020   50.4780 C   0  0  0  0  0  0  0  0  0  0  0  0
   60.3550   29.5990   49.6210 C   0  0  0  0  0  0  0  0  0  0  0  0
   60.1210   29.3320   48.2530 C   0  0  0  0  0  0  0  0  0  0  0  0
   59.7460   30.3580   47.3320 C   0  0  0  0  0  0  0  0  0  0  0  0
   65.6422   31.6244   51.1123 H   0  0  0  0  0  0  0  0  0  0  0  0
   64.7836   31.2603   49.5771 H   0  0  0  0  0  0  0  0  0  0  0  0
   66.1874   32.3810   49.5771 H   0  0  0  0  0  0  0  0  0  0  0  0
   64.0278   33.1893   51.4400 H   0  0  0  0  0  0  0  0  0  0  0  0
   64.9203   34.1477   50.1881 H   0  0  0  0  0  0  0  0  0  0  0  0
   62.4633   34.5369   48.0476 H   0  0  0  0  0  0  0  0  0  0  0  0
   64.2094   34.7032   48.4490 H   0  0  0  0  0  0  0  0  0  0  0  0
   64.1300   32.1297   47.4777 H   0  0  0  0  0  0  0  0  0  0  0  0
   62.8518   32.9131   46.4882 H   0  0  0  0  0  0  0  0  0  0  0  0
   64.5209   33.5770   46.4882 H   0  0  0  0  0  0  0  0  0  0  0  0
   62.0611   33.2643   51.2869 H   0  0  0  0  0  0  0  0  0  0  0  0
   61.8953   34.6866   50.1834 H   0  0  0  0  0  0  0  0  0  0  0  0
   60.2025   32.3627   50.3816 H   0  0  0  0  0  0  0  0  0  0  0  0
   60.0550   33.7885   49.2816 H   0  0  0  0  0  0  0  0  0  0  0  0
   61.9180   31.5580   48.5370 H   0  0  0  0  0  0  0  0  0  0  0  0
   60.3911   34.3865   47.7011 H   0  0  0  0  0  0  0  0  0  0  0  0
   59.4962   36.0858   46.1246 H   0  0  0  0  0  0  0  0  0  0  0  0
   58.1431   35.3784   44.1620 H   0  0  0  0  0  0  0  0  0  0  0  0
   57.6543   32.9751   43.7792 H   0  0  0  0  0  0  0  0  0  0  0  0
   56.5806   30.1299   44.8182 H   0  0  0  0  0  0  0  0  0  0  0  0
   57.2170   31.3808   43.6971 H   0  0  0  0  0  0  0  0  0  0  0  0
   57.9260   29.7304   43.6971 H   0  0  0  0  0  0  0  0  0  0  0  0
   58.7846   28.3634   44.7208 H   0  0  0  0  0  0  0  0  0  0  0  0
   60.7810   25.9380   45.6820 H   0  0  0  0  0  0  0  0  0  0  0  0
   58.3360   25.2281   45.0430 H   0  0  0  0  0  0  0  0  0  0  0  0
   59.0628   24.4387   46.5030 H   0  0  0  0  0  0  0  0  0  0  0  0
   57.3907   25.2292   47.7536 H   0  0  0  0  0  0  0  0  0  0  0  0
   57.9172   26.9202   47.3222 H   0  0  0  0  0  0  0  0  0  0  0  0
   55.8136   27.1047   46.5097 H   0  0  0  0  0  0  0  0  0  0  0  0
   56.5216   26.2302   45.0897 H   0  0  0  0  0  0  0  0  0  0  0  0
   55.7074   24.3851   48.3248 H   0  0  0  0  0  0  0  0  0  0  0  0
   55.4104   23.0879   47.1183 H   0  0  0  0  0  0  0  0  0  0  0  0
   56.9730   23.9738   47.1183 H   0  0  0  0  0  0  0  0  0  0  0  0
   54.5245   23.4312   45.2708 H   0  0  0  0  0  0  0  0  0  0  0  0
   54.3181   25.0414   44.5020 H   0  0  0  0  0  0  0  0  0  0  0  0
   55.9287   24.2460   44.5020 H   0  0  0  0  0  0  0  0  0  0  0  0
   60.8558   25.9695   48.3178 H   0  0  0  0  0  0  0  0  0  0  0  0
   61.4441   26.5423   50.6669 H   0  0  0  0  0  0  0  0  0  0  0  0
   61.0161   28.8357   51.5343 H   0  0  0  0  0  0  0  0  0  0  0  0
   60.1696   30.6091   50.0152 H   0  0  0  0  0  0  0  0  0  0  0  0
  1  2  1  0
  2  3  1  0
  3  4  1  0
  4  5  1  0
  3  6  1  0
  6  7  1  0
  7  8  1  0
  8  9  1  0
  9 10  2  0
 10 11  1  0
 11 12  2  0
 12 13  1  0
 13 14  2  0
 14 15  1  0
 15 16  2  0
 16 17  1  0
 16 18  1  0
 18 19  2  0
 19 20  1  0
 20 21  1  0
 21 22  1  0
 22 23  1  0
 23 24  1  0
 24 25  1  0
 25 26  1  0
 25 27  1  0
 20 28  2  0
 28 29  1  0
 29 30  2  0
 30 31  1  0
 31 32  2  0
 32 33  1  0
 33 34  2  0
 34  9  1  0
 15 10  1  0
 34 18  1  0
 33 28  1  0
  1 35  1  0
  1 36  1  0
  1 37  1  0
  2 38  1  0
  2 39  1  0
  4 40  1  0
  4 41  1  0
  5 42  1  0
  5 43  1  0
  5 44  1  0
  6 45  1  0
  6 46  1  0
  7 47  1  0
  7 48  1  0
  8 49  1  0
 11 50  1  0
 12 51  1  0
 13 52  1  0
 14 53  1  0
 17 54  1  0
 17 55  1  0
 17 56  1  0
 19 57  1  0
 21 58  1  0
 22 59  1  0
 22 60  1  0
 23 61  1  0
 23 62  1  0
 24 63  1  0
 24 64  1  0
 26 65  1  0
 26 66  1  0
 26 67  1  0
 27 68  1  0
 27 69  1  0
 27 70  1  0
 29 71  1  0
 30 72  1  0
 31 73  1  0
 32 74  1  0
M  CHG  1  16   1
M  END
>  <UniqueID>  (15) 
14

>  <SMILES>  (15) 
CCN(CC)CCNc1c2ccccc2[n+](C)c2cc(NCCCN(C)C)c3ccccc3c12

>  <Energy>  (15) 
116.54387233894683

>  <Genealogy>  (15) 
CCN(CC)CCNc1c2ccccc2[n+](C)c2cc(NCCCN(C)C)c3ccccc3c12 (3D coordinates assigned)
CCN(CC)CCNc1c2ccccc2[n+](C)c2cc(NCCCN(C)C)c3ccccc3c12 (optimized conformer: 116.54387233894683 kcal/mol)

>  <smiles>  (15) 
CCN(CC)CCNc1c2ccccc2[n+](C)c2cc(NCCCN(C)C)c3ccccc3c12

>  <score_type>  (15) 
oracle

>  <origin>  (15) 
adg

>  <m_score__min__energy>  (15) 
-7.1500000000000004

>  <m_primary>  (15) 
energy

$$$$
15:0
     RDKit          3D

 80 82  0  0  0  0  0  0  0  0999 V2000
   59.3300   33.2650   49.0700 C   0  0  0  0  0  0  0  0  0  0  0  0
   60.4990   34.1880   48.7390 C   0  0  0  0  0  0  0  0  0  0  0  0
   60.5990   34.4120   47.2820 N   0  0  0  0  0  0  0  0  0  0  0  0
   59.4020   34.9560   46.5880 C   0  0  0  0  0  0  0  0  0  0  0  0
   59.1610   34.4160   45.1720 C   0  0  0  0  0  0  0  0  0  0  0  0
   61.3380   33.3630   46.5430 C   0  0  0  0  0  0  0  0  0  0  0  0
   62.8520   33.3580   46.8260 C   0  0  0  0  0  0  0  0  0  0  0  0
   63.3350   32.0360   47.2810 N   0  0  0  0  0  0  0  0  0  0  0  0
   63.0620   31.8050   48.6970 C   0  0  0  0  0  0  0  0  0  0  0  0
   63.9290   32.3060   49.7110 C   0  0  0  0  0  0  0  0  0  0  0  0
   65.1210   33.0160   49.4100 C   0  0  0  0  0  0  0  0  0  0  0  0
   65.9730   33.4610   50.4160 C   0  0  0  0  0  0  0  0  0  0  0  0
   65.6800   33.2000   51.7440 C   0  0  0  0  0  0  0  0  0  0  0  0
   64.5180   32.5150   52.0780 C   0  0  0  0  0  0  0  0  0  0  0  0
   63.6000   32.0880   51.0810 C   0  0  0  0  0  0  0  0  0  0  0  0
   62.4210   31.4620   51.4270 N   0  0  0  0  0  0  0  0  0  0  0  0
   61.9270   31.5300   52.8220 C   0  0  0  0  0  0  0  0  0  0  0  0
   61.6790   30.8050   50.4700 C   0  0  0  0  0  0  0  0  0  0  0  0
   60.6490   29.9040   50.8330 C   0  0  0  0  0  0  0  0  0  0  0  0
   59.8390   29.3060   49.8740 C   0  0  0  0  0  0  0  0  0  0  0  0
   60.0250   29.5730   48.5240 C   0  0  0  0  0  0  0  0  0  0  0  0
   59.1380   28.9790   47.6100 O   0  0  0  0  0  0  0  0  0  0  0  0
   59.2040   27.6360   47.1270 C   0  0  0  0  0  0  0  0  0  0  0  0
   57.8230   26.9860   47.1320 C   0  0  0  0  0  0  0  0  0  0  0  0
   57.1950   27.2450   45.8940 O   0  0  0  0  0  0  0  0  0  0  0  0
   57.8220   26.5170   44.8530 C   0  0  0  0  0  0  0  0  0  0  0  0
   58.4130   27.4690   43.8150 C   0  0  0  0  0  0  0  0  0  0  0  0
   58.0570   28.7950   44.1360 O   0  0  0  0  0  0  0  0  0  0  0  0
   59.2070   29.5320   44.4960 C   0  0  0  0  0  0  0  0  0  0  0  0
   58.7870   30.8050   45.2280 C   0  0  0  0  0  0  0  0  0  0  0  0
   57.3900   30.7970   45.4630 O   0  0  0  0  0  0  0  0  0  0  0  0
   56.6660   31.2240   44.3230 C   0  0  0  0  0  0  0  0  0  0  0  0
   55.6100   30.1840   43.9460 C   0  0  0  0  0  0  0  0  0  0  0  0
   55.6610   29.0540   44.8700 N   0  0  0  0  0  0  0  0  0  0  0  0
   61.0790   30.4160   48.1340 C   0  0  0  0  0  0  0  0  0  0  0  0
   61.9440   31.0140   49.0880 C   0  0  0  0  0  0  0  0  0  0  0  0
   59.2257   33.1826   50.1619 H   0  0  0  0  0  0  0  0  0  0  0  0
   58.4042   33.6784   48.6433 H   0  0  0  0  0  0  0  0  0  0  0  0
   59.5174   32.2686   48.6433 H   0  0  0  0  0  0  0  0  0  0  0  0
   60.3483   35.1544   49.2423 H   0  0  0  0  0  0  0  0  0  0  0  0
   61.4293   33.7145   49.0860 H   0  0  0  0  0  0  0  0  0  0  0  0
   58.5182   34.7168   47.1976 H   0  0  0  0  0  0  0  0  0  0  0  0
   59.5814   36.0353   46.4747 H   0  0  0  0  0  0  0  0  0  0  0  0
   58.7134   33.4131   45.2333 H   0  0  0  0  0  0  0  0  0  0  0  0
   58.4783   35.0900   44.6338 H   0  0  0  0  0  0  0  0  0  0  0  0
   60.1186   34.3579   44.6338 H   0  0  0  0  0  0  0  0  0  0  0  0
   60.9280   32.3829   46.8279 H   0  0  0  0  0  0  0  0  0  0  0  0
   61.2115   33.5746   45.4710 H   0  0  0  0  0  0  0  0  0  0  0  0
   63.3850   33.6307   45.9032 H   0  0  0  0  0  0  0  0  0  0  0  0
   63.0456   34.0818   47.6314 H   0  0  0  0  0  0  0  0  0  0  0  0
   62.9740   31.2820   46.6620 H   0  0  0  0  0  0  0  0  0  0  0  0
   64.3630   31.9690   47.1130 H   0  0  0  0  0  0  0  0  0  0  0  0
   65.3764   33.2186   48.3594 H   0  0  0  0  0  0  0  0  0  0  0  0
   66.8825   34.0221   50.1555 H   0  0  0  0  0  0  0  0  0  0  0  0
   66.3673   33.5350   52.5348 H   0  0  0  0  0  0  0  0  0  0  0  0
   64.3046   32.2990   53.1353 H   0  0  0  0  0  0  0  0  0  0  0  0
   62.7722   31.4137   53.5164 H   0  0  0  0  0  0  0  0  0  0  0  0
   61.4435   32.5032   52.9927 H   0  0  0  0  0  0  0  0  0  0  0  0
   61.1985   30.7237   52.9927 H   0  0  0  0  0  0  0  0  0  0  0  0
   60.4861   29.6722   51.8959 H   0  0  0  0  0  0  0  0  0  0  0  0
   59.0430   28.6146   50.1878 H   0  0  0  0  0  0  0  0  0  0  0  0
   59.5953   27.6420   46.0990 H   0  0  0  0  0  0  0  0  0  0  0  0
   59.8667   27.0575   47.7875 H   0  0  0  0  0  0  0  0  0  0  0  0
   57.9257   25.9001   47.2747 H   0  0  0  0  0  0  0  0  0  0  0  0
   57.2178   27.3992   47.9524 H   0  0  0  0  0  0  0  0  0  0  0  0
   58.6271   25.8992   45.2774 H   0  0  0  0  0  0  0  0  0  0  0  0
   57.0718   25.8785   44.3636 H   0  0  0  0  0  0  0  0  0  0  0  0
   59.5089   27.3741   43.8125 H   0  0  0  0  0  0  0  0  0  0  0  0
   58.0204   27.2150   42.8193 H   0  0  0  0  0  0  0  0  0  0  0  0
   59.8418   28.9221   45.1556 H   0  0  0  0  0  0  0  0  0  0  0  0
   59.7702   29.7989   43.5896 H   0  0  0  0  0  0  0  0  0  0  0  0
   59.3168   30.8622   46.1903 H   0  0  0  0  0  0  0  0  0  0  0  0
   59.0410   31.6763   44.6065 H   0  0  0  0  0  0  0  0  0  0  0  0
   56.1704   32.1806   44.5450 H   0  0  0  0  0  0  0  0  0  0  0  0
   57.3634   31.3478   43.4814 H   0  0  0  0  0  0  0  0  0  0  0  0
   54.6127   30.6459   43.9919 H   0  0  0  0  0  0  0  0  0  0  0  0
   55.8106   29.8228   42.9265 H   0  0  0  0  0  0  0  0  0  0  0  0
   55.9720   28.2070   44.3380 H   0  0  0  0  0  0  0  0  0  0  0  0
   56.4100   29.2540   45.5710 H   0  0  0  0  0  0  0  0  0  0  0  0
   61.2379   30.6175   47.0643 H   0  0  0  0  0  0  0  0  0  0  0  0
  1  2  1  0
  2  3  1  0
  3  4  1  0
  4  5  1  0
  3  6  1  0
  6  7  1  0
  7  8  1  0
  8  9  1  0
  9 10  2  0
 10 11  1  0
 11 12  2  0
 12 13  1  0
 13 14  2  0
 14 15  1  0
 15 16  2  0
 16 17  1  0
 16 18  1  0
 18 19  2  0
 19 20  1  0
 20 21  2  0
 21 22  1  0
 22 23  1  0
 23 24  1  0
 24 25  1  0
 25 26  1  0
 26 27  1  0
 27 28  1  0
 28 29  1  0
 29 30  1  0
 30 31  1  0
 31 32  1  0
 32 33  1  0
 33 34  1  0
 21 35  1  0
 35 36  2  0
 36  9  1  0
 15 10  1  0
 36 18  1  0
  1 37  1  0
  1 38  1  0
  1 39  1  0
  2 40  1  0
  2 41  1  0
  4 42  1  0
  4 43  1  0
  5 44  1  0
  5 45  1  0
  5 46  1  0
  6 47  1  0
  6 48  1  0
  7 49  1  0
  7 50  1  0
  8 51  1  0
  8 52  1  0
 11 53  1  0
 12 54  1  0
 13 55  1  0
 14 56  1  0
 17 57  1  0
 17 58  1  0
 17 59  1  0
 19 60  1  0
 20 61  1  0
 23 62  1  0
 23 63  1  0
 24 64  1  0
 24 65  1  0
 26 66  1  0
 26 67  1  0
 27 68  1  0
 27 69  1  0
 29 70  1  0
 29 71  1  0
 30 72  1  0
 30 73  1  0
 32 74  1  0
 32 75  1  0
 33 76  1  0
 33 77  1  0
 34 78  1  0
 34 79  1  0
 35 80  1  0
M  CHG  2   8   1  16   1
M  END
>  <UniqueID>  (16) 
15

>  <SMILES>  (16) 
CCN(CC)CC[NH2+]c1c2ccccc2[n+](C)c2ccc(OCCOCCOCCOCCN)cc12

>  <Energy>  (16) 
107.35372865526566

>  <Genealogy>  (16) 
CCN(CC)CC[NH2+]c1c2ccccc2[n+](C)c2ccc(OCCOCCOCCOCCN)cc12 (protonated)
CCN(CC)CC[NH2+]c1c2ccccc2[n+](C)c2ccc(OCCOCCOCCOCCN)cc12 (3D coordinates assigned)
CCN(CC)CC[NH2+]c1c2ccccc2[n+](C)c2ccc(OCCOCCOCCOCCN)cc12 (optimized conformer: 107.35372865526566 kcal/mol)

>  <smiles>  (16) 
CCN(CC)CCNc1c2ccccc2[n+](C)c2ccc(OCCOCCOCCOCCN)cc12

>  <score_type>  (16) 
oracle

>  <origin>  (16) 
adg

>  <m_score__min__energy>  (16) 
-5.6799999999999997

>  <m_primary>  (16) 
energy

$$$$
16:0
     RDKit          3D

 55 57  0  0  0  0  0  0  0  0999 V2000
   57.8400   25.2637   46.0952 H   0  0  0  0  0  0  0  0  0  0  0  0
   58.0150   26.3280   46.3110 C   0  0  0  0  0  0  0  0  0  0  0  0
   59.0340   26.6930   47.1260 N   0  0  0  0  0  0  0  0  0  0  0  0
   59.2550   27.9900   47.4620 C   0  0  0  0  0  0  0  0  0  0  0  0
   60.2830   28.2900   48.3570 C   0  0  0  0  0  0  0  0  0  0  0  0
   60.9568   27.4899   48.6973 H   0  0  0  0  0  0  0  0  0  0  0  0
   60.4680   29.5940   48.8270 C   0  0  0  0  0  0  0  0  0  0  0  0
   61.5450   29.8490   49.7470 N   0  0  0  0  0  0  0  0  0  0  0  0
   62.5260   29.7520   49.3960 H   0  0  0  0  0  0  0  0  0  0  0  0
   61.3700   29.9220   51.1970 C   0  0  0  0  0  0  0  0  0  0  0  0
   61.9551   29.1225   51.6751 H   0  0  0  0  0  0  0  0  0  0  0  0
   60.3038   29.7999   51.4382 H   0  0  0  0  0  0  0  0  0  0  0  0
   61.8520   31.2870   51.7180 C   0  0  0  0  0  0  0  0  0  0  0  0
   62.9349   31.2322   51.9033 H   0  0  0  0  0  0  0  0  0  0  0  0
   61.2963   31.5093   52.6409 H   0  0  0  0  0  0  0  0  0  0  0  0
   61.5870   32.3890   50.7510 N   0  0  0  0  0  0  0  0  0  0  0  0
   60.9830   32.0050   49.9840 H   0  0  0  0  0  0  0  0  0  0  0  0
   62.8520   32.8710   50.1280 C   0  0  0  0  0  0  0  0  0  0  0  0
   63.6900   32.2901   50.5408 H   0  0  0  0  0  0  0  0  0  0  0  0
   62.9447   33.9430   50.3566 H   0  0  0  0  0  0  0  0  0  0  0  0
   62.8600   32.7240   48.6010 C   0  0  0  0  0  0  0  0  0  0  0  0
   62.9180   31.6581   48.3356 H   0  0  0  0  0  0  0  0  0  0  0  0
   61.9370   33.1555   48.1863 H   0  0  0  0  0  0  0  0  0  0  0  0
   63.7307   33.2531   48.1863 H   0  0  0  0  0  0  0  0  0  0  0  0
   60.7930   33.4760   51.3870 C   0  0  0  0  0  0  0  0  0  0  0  0
   61.2792   33.7474   52.3357 H   0  0  0  0  0  0  0  0  0  0  0  0
   60.7647   34.3071   50.6669 H   0  0  0  0  0  0  0  0  0  0  0  0
   59.3310   33.1030   51.6850 C   0  0  0  0  0  0  0  0  0  0  0  0
   59.1772   33.0638   52.7735 H   0  0  0  0  0  0  0  0  0  0  0  0
   58.6631   33.8595   51.2473 H   0  0  0  0  0  0  0  0  0  0  0  0
   59.1071   32.1190   51.2473 H   0  0  0  0  0  0  0  0  0  0  0  0
   59.6040   30.6190   48.3910 C   0  0  0  0  0  0  0  0  0  0  0  0
   59.8220   31.9330   48.8360 O   0  0  0  0  0  0  0  0  0  0  0  0
   59.2670   33.1050   48.2380 C   0  0  0  0  0  0  0  0  0  0  0  0
   58.9386   33.7984   49.0262 H   0  0  0  0  0  0  0  0  0  0  0  0
   60.0292   33.5941   47.6136 H   0  0  0  0  0  0  0  0  0  0  0  0
   58.4057   32.8253   47.6136 H   0  0  0  0  0  0  0  0  0  0  0  0
   58.5570   30.3090   47.5020 C   0  0  0  0  0  0  0  0  0  0  0  0
   57.8312   31.0901   47.2319 H   0  0  0  0  0  0  0  0  0  0  0  0
   58.4190   29.0170   46.9500 C   0  0  0  0  0  0  0  0  0  0  0  0
   57.4240   28.6560   45.9850 C   0  0  0  0  0  0  0  0  0  0  0  0
   56.7340   29.4990   45.2560 N   0  0  0  0  0  0  0  0  0  0  0  0
   57.1740   30.5670   44.4040 C   0  0  0  0  0  0  0  0  0  0  0  0
   56.9600   30.5200   43.0140 C   0  0  0  0  0  0  0  0  0  0  0  0
   56.4771   29.6408   42.5625 H   0  0  0  0  0  0  0  0  0  0  0  0
   57.3600   31.5890   42.2050 C   0  0  0  0  0  0  0  0  0  0  0  0
   57.2134   31.5396   41.1159 H   0  0  0  0  0  0  0  0  0  0  0  0
   57.9460   32.7200   42.7810 C   0  0  0  0  0  0  0  0  0  0  0  0
   58.2699   33.5559   42.1435 H   0  0  0  0  0  0  0  0  0  0  0  0
   58.1210   32.7900   44.1680 C   0  0  0  0  0  0  0  0  0  0  0  0
   58.8960   34.3470   44.9570 Br  0  0  0  0  0  0  0  0  0  0  0  0
   57.7260   31.7200   44.9780 C   0  0  0  0  0  0  0  0  0  0  0  0
   57.8491   31.7840   46.0692 H   0  0  0  0  0  0  0  0  0  0  0  0
   57.1890   27.2950   45.7460 C   0  0  0  0  0  0  0  0  0  0  0  0
   56.3466   26.9894   45.1080 H   0  0  0  0  0  0  0  0  0  0  0  0
  1  2  1  0
  2  3  1  0
  3  4  1  0
  4  5  2  0
  5  6  1  0
  5  7  1  0
  7  8  1  0
  8  9  1  0
  8 10  1  0
 10 11  1  0
 10 12  1  0
 10 13  1  0
 13 14  1  0
 13 15  1  0
 13 16  1  0
 16 17  1  0
 16 18  1  0
 18 19  1  0
 18 20  1  0
 18 21  1  0
 21 22  1  0
 21 23  1  0
 21 24  1  0
 16 25  1  0
 25 26  1  0
 25 27  1  0
 25 28  1  0
 28 29  1  0
 28 30  1  0
 28 31  1  0
  7 32  2  0
 32 33  1  0
 33 34  1  0
 34 35  1  0
 34 36  1  0
 34 37  1  0
 32 38  1  0
 38 39  1  0
 38 40  2  0
 40 41  1  0
 41 42  2  0
 42 43  1  0
 43 44  2  0
 44 45  1  0
 44 46  1  0
 46 47  1  0
 46 48  2  0
 48 49  1  0
 48 50  1  0
 50 51  1  0
 50 52  2  0
 52 53  1  0
 41 54  1  0
 54 55  1  0
 54  2  2  0
 40  4  1  0
 52 43  1  0
M  CHG  2   3  -1  16   1
M  END
>  <UniqueID>  (17) 
16

>  <SMILES>  (17) 
CC[NH+](CC)CCNc1cc2[n-]cc/c(=N/c3cccc(Br)c3)c2cc1OC

>  <Energy>  (17) 
83.18647153925905

>  <Genealogy>  (17) 
CC[NH+](CC)CCNc1cc2[n-]ccc(=Nc3cccc(Br)c3)c2cc1OC (protonated)
CC[NH+](CC)CCNc1cc2[n-]cc/c(=N/c3cccc(Br)c3)c2cc1OC (cis-trans isomerization)
CC[NH+](CC)CCNc1cc2[n-]cc/c(=N/c3cccc(Br)c3)c2cc1OC (3D coordinates assigned)
CC[NH+](CC)CCNc1cc2[n-]cc/c(=N/c3cccc(Br)c3)c2cc1OC (optimized conformer: 83.18647153925905 kcal/mol)

>  <smiles>  (17) 
CCN(CC)CCNc1cc2[nH]ccc(=Nc3cccc(Br)c3)c2cc1OC

>  <score_type>  (17) 
oracle

>  <origin>  (17) 
adg

>  <m_score__min__energy>  (17) 
-7.5800000000000001

>  <m_primary>  (17) 
energy

$$$$
17:0
     RDKit          3D

 73 76  0  0  0  0  0  0  0  0999 V2000
   57.9900   26.1630   46.5780 C   0  0  0  0  0  0  0  0  0  0  0  0
   59.2570   26.3620   45.7350 C   0  0  0  0  0  0  0  0  0  0  0  0
   60.3050   27.1870   46.3890 N   0  0  1  0  0  0  0  0  0  0  0  0
   60.7330   28.3080   45.5260 C   0  0  0  0  0  0  0  0  0  0  0  0
   59.8790   27.6540   47.7330 C   0  0  0  0  0  0  0  0  0  0  0  0
   60.0910   29.1650   47.9230 C   0  0  0  0  0  0  0  0  0  0  0  0
   58.8100   29.8700   47.8880 N   0  0  0  0  0  0  0  0  0  0  0  0
   58.5690   30.9520   46.9740 C   0  0  0  0  0  0  0  0  0  0  0  0
   58.0190   30.6960   45.7080 C   0  0  0  0  0  0  0  0  0  0  0  0
   57.7700   29.3730   45.2850 C   0  0  0  0  0  0  0  0  0  0  0  0
   57.2550   29.1170   44.0160 C   0  0  0  0  0  0  0  0  0  0  0  0
   56.9950   30.1690   43.1460 C   0  0  0  0  0  0  0  0  0  0  0  0
   57.2240   31.4850   43.5470 C   0  0  0  0  0  0  0  0  0  0  0  0
   57.7100   31.7810   44.8460 C   0  0  0  0  0  0  0  0  0  0  0  0
   57.8990   33.0820   45.2760 N   0  0  0  0  0  0  0  0  0  0  0  0
   57.3140   34.2060   44.5110 C   0  0  0  0  0  0  0  0  0  0  0  0
   58.6210   33.3300   46.4290 C   0  0  0  0  0  0  0  0  0  0  0  0
   59.0770   34.6290   46.7590 C   0  0  0  0  0  0  0  0  0  0  0  0
   59.7890   34.8680   47.9320 C   0  0  0  0  0  0  0  0  0  0  0  0
   60.1000   33.8270   48.8030 C   0  0  0  0  0  0  0  0  0  0  0  0
   60.8400   34.1350   49.9570 O   0  0  0  0  0  0  0  0  0  0  0  0
   60.8280   33.4160   51.1940 C   0  0  0  0  0  0  0  0  0  0  0  0
   62.2290   32.8970   51.5480 C   0  0  0  0  0  0  0  0  0  0  0  0
   63.3520   33.6140   50.7520 C   0  0  0  0  0  0  0  0  0  0  0  0
   63.8070   32.9300   49.5000 N   0  0  0  0  0  0  0  0  0  0  0  0
   65.2100   32.4810   49.7180 C   0  0  0  0  0  0  0  0  0  0  0  0
   63.7710   33.8350   48.3170 C   0  0  0  0  0  0  0  0  0  0  0  0
   63.1710   33.0640   47.1420 C   0  0  0  0  0  0  0  0  0  0  0  0
   63.0250   31.6360   47.6220 C   0  0  0  0  0  0  0  0  0  0  0  0
   62.9830   31.7510   49.1320 C   0  0  0  0  0  0  0  0  0  0  0  0
   59.6630   32.5290   48.4970 C   0  0  0  0  0  0  0  0  0  0  0  0
   58.9430   32.2660   47.3110 C   0  0  0  0  0  0  0  0  0  0  0  0
   58.2501   26.2038   47.6460 H   0  0  0  0  0  0  0  0  0  0  0  0
   57.2666   26.9585   46.3461 H   0  0  0  0  0  0  0  0  0  0  0  0
   57.5453   25.1840   46.3461 H   0  0  0  0  0  0  0  0  0  0  0  0
   59.6844   25.3721   45.5171 H   0  0  0  0  0  0  0  0  0  0  0  0
   58.9496   26.9048   44.8290 H   0  0  0  0  0  0  0  0  0  0  0  0
   61.1340   26.5560   46.5090 H   0  0  0  0  0  0  0  0  0  0  0  0
   61.0552   29.1518   46.1539 H   0  0  0  0  0  0  0  0  0  0  0  0
   61.5703   27.9829   44.8909 H   0  0  0  0  0  0  0  0  0  0  0  0
   59.8921   28.6236   44.8909 H   0  0  0  0  0  0  0  0  0  0  0  0
   58.8103   27.4281   47.8631 H   0  0  0  0  0  0  0  0  0  0  0  0
   60.4952   27.1324   48.4801 H   0  0  0  0  0  0  0  0  0  0  0  0
   60.5760   29.3433   48.8941 H   0  0  0  0  0  0  0  0  0  0  0  0
   60.7264   29.5406   47.1074 H   0  0  0  0  0  0  0  0  0  0  0  0
   58.0600   29.6030   48.5660 H   0  0  0  0  0  0  0  0  0  0  0  0
   57.9848   28.5349   45.9644 H   0  0  0  0  0  0  0  0  0  0  0  0
   57.0541   28.0819   43.7027 H   0  0  0  0  0  0  0  0  0  0  0  0
   56.6072   29.9630   42.1375 H   0  0  0  0  0  0  0  0  0  0  0  0
   57.0243   32.3071   42.8440 H   0  0  0  0  0  0  0  0  0  0  0  0
   56.9216   34.9599   45.2093 H   0  0  0  0  0  0  0  0  0  0  0  0
   58.0895   34.6614   43.8776 H   0  0  0  0  0  0  0  0  0  0  0  0
   56.4961   33.8321   43.8776 H   0  0  0  0  0  0  0  0  0  0  0  0
   58.8651   35.4651   46.0763 H   0  0  0  0  0  0  0  0  0  0  0  0
   60.1097   35.8921   48.1734 H   0  0  0  0  0  0  0  0  0  0  0  0
   60.4804   34.0853   51.9947 H   0  0  0  0  0  0  0  0  0  0  0  0
   60.1532   32.5536   51.0892 H   0  0  0  0  0  0  0  0  0  0  0  0
   62.4023   33.0566   52.6225 H   0  0  0  0  0  0  0  0  0  0  0  0
   62.2644   31.8296   51.2844 H   0  0  0  0  0  0  0  0  0  0  0  0
   62.9835   34.6128   50.4752 H   0  0  0  0  0  0  0  0  0  0  0  0
   64.2270   33.6265   51.4185 H   0  0  0  0  0  0  0  0  0  0  0  0
   65.4109   32.4167   50.7976 H   0  0  0  0  0  0  0  0  0  0  0  0
   65.3540   31.4919   49.2587 H   0  0  0  0  0  0  0  0  0  0  0  0
   65.9015   33.2027   49.2587 H   0  0  0  0  0  0  0  0  0  0  0  0
   63.1500   34.7150   48.5405 H   0  0  0  0  0  0  0  0  0  0  0  0
   64.7872   34.1748   48.0684 H   0  0  0  0  0  0  0  0  0  0  0  0
   62.1894   33.4800   46.8713 H   0  0  0  0  0  0  0  0  0  0  0  0
   63.8066   33.1287   46.2465 H   0  0  0  0  0  0  0  0  0  0  0  0
   62.0955   31.1894   47.2392 H   0  0  0  0  0  0  0  0  0  0  0  0
   63.8434   30.9894   47.2724 H   0  0  0  0  0  0  0  0  0  0  0  0
   61.9464   31.8936   49.4714 H   0  0  0  0  0  0  0  0  0  0  0  0
   63.3705   30.8374   49.6065 H   0  0  0  0  0  0  0  0  0  0  0  0
   59.8845   31.7047   49.1909 H   0  0  0  0  0  0  0  0  0  0  0  0
  1  2  1  0
  2  3  1  0
  3  4  1  0
  3  5  1  0
  5  6  1  0
  6  7  1  0
  7  8  1  0
  8  9  2  0
  9 10  1  0
 10 11  2  0
 11 12  1  0
 12 13  2  0
 13 14  1  0
 14 15  2  0
 15 16  1  0
 15 17  1  0
 17 18  2  0
 18 19  1  0
 19 20  2  0
 20 21  1  0
 21 22  1  0
 22 23  1  0
 23 24  1  0
 24 25  1  0
 25 26  1  0
 25 27  1  0
 27 28  1  0
 28 29  1  0
 29 30  1  0
 20 31  1  0
 31 32  2  0
 32  8  1  0
 14  9  1  0
 32 17  1  0
 30 25  1  0
  1 33  1  0
  1 34  1  0
  1 35  1  0
  2 36  1  0
  2 37  1  0
  3 38  1  1
  4 39  1  0
  4 40  1  0
  4 41  1  0
  5 42  1  0
  5 43  1  0
  6 44  1  0
  6 45  1  0
  7 46  1  0
 10 47  1  0
 11 48  1  0
 12 49  1  0
 13 50  1  0
 16 51  1  0
 16 52  1  0
 16 53  1  0
 18 54  1  0
 19 55  1  0
 22 56  1  0
 22 57  1  0
 23 58  1  0
 23 59  1  0
 24 60  1  0
 24 61  1  0
 26 62  1  0
 26 63  1  0
 26 64  1  0
 27 65  1  0
 27 66  1  0
 28 67  1  0
 28 68  1  0
 29 69  1  0
 29 70  1  0
 30 71  1  0
 30 72  1  0
 31 73  1  0
M  CHG  3   3   1  15   1  25   1
M  END
>  <UniqueID>  (18) 
17

>  <SMILES>  (18) 
CC[N@@H+](C)CCNc1c2ccccc2[n+](C)c2ccc(OCCC[N+]3(C)CCCC3)cc12

>  <Energy>  (18) 
113.67265133182691

>  <Genealogy>  (18) 
CC[NH+](C)CCNc1c2ccccc2[n+](C)c2ccc(OCCC[N+]3(C)CCCC3)cc12 (protonated)
CC[N@@H+](C)CCNc1c2ccccc2[n+](C)c2ccc(OCCC[N+]3(C)CCCC3)cc12 (chirality)
CC[N@@H+](C)CCNc1c2ccccc2[n+](C)c2ccc(OCCC[N+]3(C)CCCC3)cc12 (3D coordinates assigned)
CC[N@@H+](C)CCNc1c2ccccc2[n+](C)c2ccc(OCCC[N+]3(C)CCCC3)cc12 (nonaromatic ring conformer: 113.67265133182691 kcal/mol)

>  <smiles>  (18) 
CCN(C)CCNc1c2ccccc2[n+](C)c2ccc(OCCC[N+]3(C)CCCC3)cc12

>  <score_type>  (18) 
oracle

>  <origin>  (18) 
adg

>  <m_score__min__energy>  (18) 
-4.04

>  <m_primary>  (18) 
energy

$$$$
18:0
     RDKit          3D

 37 39  0  0  0  0  0  0  0  0999 V2000
   58.1440   26.9640   42.6180 C   0  0  0  0  0  0  0  0  0  0  0  0
   57.4030   28.2090   43.0960 C   0  0  0  0  0  0  0  0  0  0  0  0
   58.0700   28.7900   44.2640 N   0  0  0  0  0  0  0  0  0  0  0  0
   58.3830   28.0970   45.4610 C   0  0  0  0  0  0  0  0  0  0  0  0
   57.8870   26.8580   45.8770 C   0  0  0  0  0  0  0  0  0  0  0  0
   58.3250   26.3420   47.1080 C   0  0  0  0  0  0  0  0  0  0  0  0
   59.2410   27.0660   47.8940 C   0  0  0  0  0  0  0  0  0  0  0  0
   59.7210   28.3100   47.4540 C   0  0  0  0  0  0  0  0  0  0  0  0
   59.2690   28.8030   46.2290 C   0  0  0  0  0  0  0  0  0  0  0  0
   59.6390   30.0810   45.5620 C   0  0  0  0  0  0  0  0  0  0  0  0
   58.7710   30.0790   44.2710 C   0  0  2  0  0  0  0  0  0  0  0  0
   57.5930   31.4320   44.2810 S   0  0  0  0  0  0  0  0  0  0  0  0
   56.2750   30.9410   44.8140 O   0  0  0  0  0  0  0  0  0  0  0  0
   57.3840   31.9540   42.8870 O   0  0  0  0  0  0  0  0  0  0  0  0
   58.2050   32.7400   45.2880 C   0  0  0  0  0  0  0  0  0  0  0  0
   58.0900   32.6860   46.6860 C   0  0  0  0  0  0  0  0  0  0  0  0
   58.5960   33.7260   47.4720 C   0  0  0  0  0  0  0  0  0  0  0  0
   59.2190   34.8220   46.8690 C   0  0  0  0  0  0  0  0  0  0  0  0
   59.3390   34.8790   45.4780 C   0  0  0  0  0  0  0  0  0  0  0  0
   58.8350   33.8410   44.6880 C   0  0  0  0  0  0  0  0  0  0  0  0
   58.4883   26.3856   43.4880 H   0  0  0  0  0  0  0  0  0  0  0  0
   57.4672   26.3450   42.0107 H   0  0  0  0  0  0  0  0  0  0  0  0
   59.0108   27.2637   42.0107 H   0  0  0  0  0  0  0  0  0  0  0  0
   57.3830   28.9515   42.2847 H   0  0  0  0  0  0  0  0  0  0  0  0
   56.3782   27.9253   43.3777 H   0  0  0  0  0  0  0  0  0  0  0  0
   57.1709   26.3005   45.2554 H   0  0  0  0  0  0  0  0  0  0  0  0
   57.9508   25.3689   47.4588 H   0  0  0  0  0  0  0  0  0  0  0  0
   59.5819   26.6559   48.8561 H   0  0  0  0  0  0  0  0  0  0  0  0
   60.4372   28.8831   48.0611 H   0  0  0  0  0  0  0  0  0  0  0  0
   59.3938   30.9431   46.1997 H   0  0  0  0  0  0  0  0  0  0  0  0
   60.7163   30.1608   45.3548 H   0  0  0  0  0  0  0  0  0  0  0  0
   59.3935   30.2119   43.3739 H   0  0  0  0  0  0  0  0  0  0  0  0
   57.6011   31.8243   47.1639 H   0  0  0  0  0  0  0  0  0  0  0  0
   58.5035   33.6813   48.5672 H   0  0  0  0  0  0  0  0  0  0  0  0
   59.6148   35.6397   47.4893 H   0  0  0  0  0  0  0  0  0  0  0  0
   59.8305   35.7414   45.0039 H   0  0  0  0  0  0  0  0  0  0  0  0
   58.9327   33.8877   43.5933 H   0  0  0  0  0  0  0  0  0  0  0  0
  1  2  1  0
  2  3  1  0
  3  4  1  0
  4  5  2  0
  5  6  1  0
  6  7  2  0
  7  8  1  0
  8  9  2  0
  9 10  1  0
 10 11  1  0
 11 12  1  0
 12 13  2  0
 12 14  2  0
 12 15  1  0
 15 16  2  0
 16 17  1  0
 17 18  2  0
 18 19  1  0
 19 20  2  0
 11  3  1  0
 20 15  1  0
  9  4  1  0
  1 21  1  0
  1 22  1  0
  1 23  1  0
  2 24  1  0
  2 25  1  0
  5 26  1  0
  6 27  1  0
  7 28  1  0
  8 29  1  0
 10 30  1  0
 10 31  1  0
 11 32  1  6
 16 33  1  0
 17 34  1  0
 18 35  1  0
 19 36  1  0
 20 37  1  0
M  END
>  <UniqueID>  (19) 
18

>  <SMILES>  (19) 
CCN1c2ccccc2C[C@@H]1S(=O)(=O)c1ccccc1

>  <Energy>  (19) 
47.049608365457374

>  <Genealogy>  (19) 
CCN1c2ccccc2C[C@@H]1S(=O)(=O)c1ccccc1 (chirality)
CCN1c2ccccc2C[C@@H]1S(=O)(=O)c1ccccc1 (3D coordinates assigned)
CCN1c2ccccc2C[C@@H]1S(=O)(=O)c1ccccc1 (nonaromatic ring conformer: 47.049608365457374 kcal/mol)

>  <smiles>  (19) 
CCN1c2ccccc2CC1S(=O)(=O)c1ccccc1

>  <score_type>  (19) 
oracle

>  <origin>  (19) 
adg

>  <m_score__min__energy>  (19) 
-7.71

>  <m_primary>  (19) 
energy

$$$$
19:0
     RDKit          3D

 56 58  0  0  0  0  0  0  0  0999 V2000
   60.2140   29.3970   50.9520 C   0  0  0  0  0  0  0  0  0  0  0  0
   60.8700   29.3460   49.6910 O   0  0  0  0  0  0  0  0  0  0  0  0
   61.5180   30.4350   49.0860 C   0  0  0  0  0  0  0  0  0  0  0  0
   62.4050   31.2660   49.8000 C   0  0  0  0  0  0  0  0  0  0  0  0
   63.0110   32.3580   49.1720 C   0  0  0  0  0  0  0  0  0  0  0  0
   62.7400   32.6330   47.8320 C   0  0  0  0  0  0  0  0  0  0  0  0
   61.8660   31.8170   47.1130 C   0  0  0  0  0  0  0  0  0  0  0  0
   61.2580   30.7110   47.7290 C   0  0  0  0  0  0  0  0  0  0  0  0
   60.3630   29.8750   46.9780 N   0  0  0  0  0  0  0  0  0  0  0  0
   60.7670   29.3750   45.6580 C   0  0  0  0  0  0  0  0  0  0  0  0
   59.5880   28.7070   44.9470 C   0  0  0  0  0  0  0  0  0  0  0  0
   58.3810   29.5320   45.1400 N   0  0  0  0  0  0  0  0  0  0  0  0
   57.2800   29.2060   44.2070 C   0  0  0  0  0  0  0  0  0  0  0  0
   56.5460   30.4480   43.6490 C   0  0  0  0  0  0  0  0  0  0  0  0
   57.3880   31.2140   42.6160 C   0  0  0  0  0  0  0  0  0  0  0  0
   57.8150   32.6010   43.1160 C   0  0  0  0  0  0  0  0  0  0  0  0
   58.0690   32.5660   44.5560 N   0  0  0  0  0  0  0  0  0  0  0  0
   58.4080   33.7450   45.3070 C   0  0  0  0  0  0  0  0  0  0  0  0
   58.3970   34.8700   44.7360 O   0  0  0  0  0  0  0  0  0  0  0  0
   58.7570   33.6660   46.7450 C   0  0  0  0  0  0  0  0  0  0  0  0
   58.1980   32.6780   47.5780 C   0  0  0  0  0  0  0  0  0  0  0  0
   58.5430   32.6150   48.9320 C   0  0  0  0  0  0  0  0  0  0  0  0
   59.4520   33.5300   49.4690 C   0  0  0  0  0  0  0  0  0  0  0  0
   59.9220   33.4400   51.3180 Br  0  0  0  0  0  0  0  0  0  0  0  0
   60.0220   34.5070   48.6490 C   0  0  0  0  0  0  0  0  0  0  0  0
   59.6810   34.5730   47.2950 C   0  0  0  0  0  0  0  0  0  0  0  0
   57.9370   29.6180   46.5540 C   0  0  0  0  0  0  0  0  0  0  0  0
   59.0890   29.4390   47.5610 C   0  0  0  0  0  0  0  0  0  0  0  0
   60.9616   29.3389   51.7568 H   0  0  0  0  0  0  0  0  0  0  0  0
   59.6562   30.3412   51.0372 H   0  0  0  0  0  0  0  0  0  0  0  0
   59.5169   28.5503   51.0372 H   0  0  0  0  0  0  0  0  0  0  0  0
   62.6215   31.0539   50.8574 H   0  0  0  0  0  0  0  0  0  0  0  0
   63.7027   33.0013   49.7357 H   0  0  0  0  0  0  0  0  0  0  0  0
   63.2160   33.4946   47.3411 H   0  0  0  0  0  0  0  0  0  0  0  0
   61.6519   32.0412   46.0576 H   0  0  0  0  0  0  0  0  0  0  0  0
   61.1264   30.2167   45.0478 H   0  0  0  0  0  0  0  0  0  0  0  0
   61.5661   28.6310   45.7917 H   0  0  0  0  0  0  0  0  0  0  0  0
   59.8069   28.6194   43.8726 H   0  0  0  0  0  0  0  0  0  0  0  0
   59.4226   27.7030   45.3648 H   0  0  0  0  0  0  0  0  0  0  0  0
   57.6983   28.6411   43.3608 H   0  0  0  0  0  0  0  0  0  0  0  0
   56.5393   28.6250   44.7761 H   0  0  0  0  0  0  0  0  0  0  0  0
   55.6119   30.1200   43.1695 H   0  0  0  0  0  0  0  0  0  0  0  0
   56.3508   31.1277   44.4916 H   0  0  0  0  0  0  0  0  0  0  0  0
   58.2907   30.6268   42.3918 H   0  0  0  0  0  0  0  0  0  0  0  0
   56.7663   31.3590   41.7202 H   0  0  0  0  0  0  0  0  0  0  0  0
   58.7326   32.9085   42.5931 H   0  0  0  0  0  0  0  0  0  0  0  0
   57.0067   33.3189   42.9128 H   0  0  0  0  0  0  0  0  0  0  0  0
   57.9700   31.6470   45.0410 H   0  0  0  0  0  0  0  0  0  0  0  0
   57.4854   31.9510   47.1612 H   0  0  0  0  0  0  0  0  0  0  0  0
   58.0973   31.8427   49.5760 H   0  0  0  0  0  0  0  0  0  0  0  0
   60.7406   35.2258   49.0697 H   0  0  0  0  0  0  0  0  0  0  0  0
   60.1391   35.3407   46.6541 H   0  0  0  0  0  0  0  0  0  0  0  0
   57.4790   30.6046   46.7177 H   0  0  0  0  0  0  0  0  0  0  0  0
   57.2226   28.7990   46.7239 H   0  0  0  0  0  0  0  0  0  0  0  0
   58.8794   30.0386   48.4591 H   0  0  0  0  0  0  0  0  0  0  0  0
   59.1670   28.3732   47.8218 H   0  0  0  0  0  0  0  0  0  0  0  0
  1  2  1  0
  2  3  1  0
  3  4  2  0
  4  5  1  0
  5  6  2  0
  6  7  1  0
  7  8  2  0
  8  9  1  0
  9 10  1  0
 10 11  1  0
 11 12  1  0
 12 13  1  0
 13 14  1  0
 14 15  1  0
 15 16  1  0
 16 17  1  0
 17 18  1  0
 18 19  2  0
 18 20  1  0
 20 21  2  0
 21 22  1  0
 22 23  2  0
 23 24  1  0
 23 25  1  0
 25 26  2  0
 12 27  1  0
 27 28  1  0
  8  3  1  0
 28  9  1  0
 26 20  1  0
  1 29  1  0
  1 30  1  0
  1 31  1  0
  4 32  1  0
  5 33  1  0
  6 34  1  0
  7 35  1  0
 10 36  1  0
 10 37  1  0
 11 38  1  0
 11 39  1  0
 13 40  1  0
 13 41  1  0
 14 42  1  0
 14 43  1  0
 15 44  1  0
 15 45  1  0
 16 46  1  0
 16 47  1  0
 17 48  1  0
 21 49  1  0
 22 50  1  0
 25 51  1  0
 26 52  1  0
 27 53  1  0
 27 54  1  0
 28 55  1  0
 28 56  1  0
M  END
>  <UniqueID>  (20) 
19

>  <SMILES>  (20) 
COc1ccccc1N1CCN(CCCCNC(=O)c2ccc(Br)cc2)CC1

>  <Energy>  (20) 
65.72182389198906

>  <Genealogy>  (20) 
COc1ccccc1N1CCN(CCCCNC(=O)c2ccc(Br)cc2)CC1 (3D coordinates assigned)
COc1ccccc1N1CCN(CCCCNC(=O)c2ccc(Br)cc2)CC1 (nonaromatic ring conformer: 65.72182389198906 kcal/mol)

>  <smiles>  (20) 
COc1ccccc1N1CCN(CCCCNC(=O)c2ccc(Br)cc2)CC1

>  <score_type>  (20) 
oracle

>  <origin>  (20) 
adg

>  <m_score__min__energy>  (20) 
-7.9500000000000002

>  <m_primary>  (20) 
energy

$$$$
20:0
     RDKit          3D

 70 72  0  0  0  0  0  0  0  0999 V2000
   63.1440   30.8710   51.4370 C   0  0  0  0  0  0  0  0  0  0  0  0
   62.0100   31.8090   51.8660 C   0  0  0  0  0  0  0  0  0  0  0  0
   60.9980   32.0790   50.8130 N   0  0  0  0  0  0  0  0  0  0  0  0
   60.9210   33.5010   50.3930 C   0  0  0  0  0  0  0  0  0  0  0  0
   59.6730   33.8600   49.5670 C   0  0  0  0  0  0  0  0  0  0  0  0
   59.6890   31.4140   50.9950 C   0  0  0  0  0  0  0  0  0  0  0  0
   59.4290   30.3510   49.9080 C   0  0  0  0  0  0  0  0  0  0  0  0
   60.6620   29.9670   49.1960 N   0  0  0  0  0  0  0  0  0  0  0  0
   60.7060   30.5730   47.8690 C   0  0  0  0  0  0  0  0  0  0  0  0
   61.5840   31.6540   47.6110 C   0  0  0  0  0  0  0  0  0  0  0  0
   62.8550   31.7420   48.2210 C   0  0  0  0  0  0  0  0  0  0  0  0
   63.6950   32.8230   47.9660 C   0  0  0  0  0  0  0  0  0  0  0  0
   63.2970   33.8240   47.0890 C   0  0  0  0  0  0  0  0  0  0  0  0
   62.0520   33.7570   46.4700 C   0  0  0  0  0  0  0  0  0  0  0  0
   61.1640   32.6850   46.7310 C   0  0  0  0  0  0  0  0  0  0  0  0
   59.9040   32.6360   46.1710 N   0  0  0  0  0  0  0  0  0  0  0  0
   59.3020   33.8570   45.5940 C   0  0  0  0  0  0  0  0  0  0  0  0
   59.2150   31.4390   46.1460 C   0  0  0  0  0  0  0  0  0  0  0  0
   58.0760   31.2630   45.3300 C   0  0  0  0  0  0  0  0  0  0  0  0
   57.3860   30.0570   45.3110 C   0  0  0  0  0  0  0  0  0  0  0  0
   57.8380   28.9590   46.0400 C   0  0  0  0  0  0  0  0  0  0  0  0
   57.1570   27.7010   45.8640 N   0  0  0  0  0  0  0  0  0  0  0  0
   57.4540   26.7070   44.8280 C   0  0  0  0  0  0  0  0  0  0  0  0
   57.0540   25.2920   45.2710 C   0  0  0  0  0  0  0  0  0  0  0  0
   55.9460   25.3200   46.2510 N   0  0  0  0  0  0  0  0  0  0  0  0
   56.2690   24.5020   47.4340 C   0  0  0  0  0  0  0  0  0  0  0  0
   54.7130   24.8060   45.6300 C   0  0  0  0  0  0  0  0  0  0  0  0
   59.0200   29.0780   46.8000 C   0  0  0  0  0  0  0  0  0  0  0  0
   59.6040   27.9120   47.2990 O   0  0  0  0  0  0  0  0  0  0  0  0
   60.3980   27.0560   46.4840 C   0  0  0  0  0  0  0  0  0  0  0  0
   59.6520   30.3480   46.9470 C   0  0  0  0  0  0  0  0  0  0  0  0
   63.6389   30.4616   52.3300 H   0  0  0  0  0  0  0  0  0  0  0  0
   62.7310   30.0471   50.8366 H   0  0  0  0  0  0  0  0  0  0  0  0
   63.8759   31.4312   50.8366 H   0  0  0  0  0  0  0  0  0  0  0  0
   61.4967   31.3553   52.7266 H   0  0  0  0  0  0  0  0  0  0  0  0
   62.4784   32.7757   52.1029 H   0  0  0  0  0  0  0  0  0  0  0  0
   60.9247   34.1264   51.2979 H   0  0  0  0  0  0  0  0  0  0  0  0
   61.7881   33.6800   49.7403 H   0  0  0  0  0  0  0  0  0  0  0  0
   58.8408   34.0994   50.2453 H   0  0  0  0  0  0  0  0  0  0  0  0
   59.8914   34.7317   48.9327 H   0  0  0  0  0  0  0  0  0  0  0  0
   59.3948   33.0055   48.9327 H   0  0  0  0  0  0  0  0  0  0  0  0
   59.6716   30.9264   51.9809 H   0  0  0  0  0  0  0  0  0  0  0  0
   58.9033   32.1801   50.9182 H   0  0  0  0  0  0  0  0  0  0  0  0
   59.0014   29.4559   50.3834 H   0  0  0  0  0  0  0  0  0  0  0  0
   58.7358   30.7842   49.1719 H   0  0  0  0  0  0  0  0  0  0  0  0
   61.4820   30.2180   49.7870 H   0  0  0  0  0  0  0  0  0  0  0  0
   60.6880   28.9290   49.1450 H   0  0  0  0  0  0  0  0  0  0  0  0
   63.1852   30.9470   48.9058 H   0  0  0  0  0  0  0  0  0  0  0  0
   64.6758   32.8844   48.4601 H   0  0  0  0  0  0  0  0  0  0  0  0
   63.9672   34.6716   46.8832 H   0  0  0  0  0  0  0  0  0  0  0  0
   61.7533   34.5488   45.7673 H   0  0  0  0  0  0  0  0  0  0  0  0
   58.9737   34.5228   46.4058 H   0  0  0  0  0  0  0  0  0  0  0  0
   60.0477   34.3755   44.9735 H   0  0  0  0  0  0  0  0  0  0  0  0
   58.4366   33.5811   44.9735 H   0  0  0  0  0  0  0  0  0  0  0  0
   57.7292   32.0945   44.6989 H   0  0  0  0  0  0  0  0  0  0  0  0
   56.4684   29.9677   44.7109 H   0  0  0  0  0  0  0  0  0  0  0  0
   56.5040   27.3970   46.6230 H   0  0  0  0  0  0  0  0  0  0  0  0
   56.8978   26.9658   43.9150 H   0  0  0  0  0  0  0  0  0  0  0  0
   58.5383   26.7161   44.6432 H   0  0  0  0  0  0  0  0  0  0  0  0
   56.7351   24.7185   44.3882 H   0  0  0  0  0  0  0  0  0  0  0  0
   57.9255   24.8229   45.7510 H   0  0  0  0  0  0  0  0  0  0  0  0
   56.0437   25.0727   48.3470 H   0  0  0  0  0  0  0  0  0  0  0  0
   55.6668   23.5816   47.4189 H   0  0  0  0  0  0  0  0  0  0  0  0
   57.3376   24.2413   47.4189 H   0  0  0  0  0  0  0  0  0  0  0  0
   54.0026   24.5098   46.4159 H   0  0  0  0  0  0  0  0  0  0  0  0
   54.2623   25.5912   45.0052 H   0  0  0  0  0  0  0  0  0  0  0  0
   54.9535   23.9332   45.0052 H   0  0  0  0  0  0  0  0  0  0  0  0
   61.0062   26.4004   47.1245 H   0  0  0  0  0  0  0  0  0  0  0  0
   59.7421   26.4424   45.8489 H   0  0  0  0  0  0  0  0  0  0  0  0
   61.0591   27.6640   45.8489 H   0  0  0  0  0  0  0  0  0  0  0  0
  1  2  1  0
  2  3  1  0
  3  4  1  0
  4  5  1  0
  3  6  1  0
  6  7  1  0
  7  8  1  0
  8  9  1  0
  9 10  2  0
 10 11  1  0
 11 12  2  0
 12 13  1  0
 13 14  2  0
 14 15  1  0
 15 16  2  0
 16 17  1  0
 16 18  1  0
 18 19  2  0
 19 20  1  0
 20 21  2  0
 21 22  1  0
 22 23  1  0
 23 24  1  0
 24 25  1  0
 25 26  1  0
 25 27  1  0
 21 28  1  0
 28 29  1  0
 29 30  1  0
 28 31  2  0
 31  9  1  0
 15 10  1  0
 31 18  1  0
  1 32  1  0
  1 33  1  0
  1 34  1  0
  2 35  1  0
  2 36  1  0
  4 37  1  0
  4 38  1  0
  5 39  1  0
  5 40  1  0
  5 41  1  0
  6 42  1  0
  6 43  1  0
  7 44  1  0
  7 45  1  0
  8 46  1  0
  8 47  1  0
 11 48  1  0
 12 49  1  0
 13 50  1  0
 14 51  1  0
 17 52  1  0
 17 53  1  0
 17 54  1  0
 19 55  1  0
 20 56  1  0
 22 57  1  0
 23 58  1  0
 23 59  1  0
 24 60  1  0
 24 61  1  0
 26 62  1  0
 26 63  1  0
 26 64  1  0
 27 65  1  0
 27 66  1  0
 27 67  1  0
 30 68  1  0
 30 69  1  0
 30 70  1  0
M  CHG  2   8   1  16   1
M  END
>  <UniqueID>  (21) 
20

>  <SMILES>  (21) 
CCN(CC)CC[NH2+]c1c2ccccc2[n+](C)c2ccc(NCCN(C)C)c(OC)c12

>  <Energy>  (21) 
119.65162325332965

>  <Genealogy>  (21) 
CCN(CC)CC[NH2+]c1c2ccccc2[n+](C)c2ccc(NCCN(C)C)c(OC)c12 (protonated)
CCN(CC)CC[NH2+]c1c2ccccc2[n+](C)c2ccc(NCCN(C)C)c(OC)c12 (3D coordinates assigned)
CCN(CC)CC[NH2+]c1c2ccccc2[n+](C)c2ccc(NCCN(C)C)c(OC)c12 (optimized conformer: 119.65162325332965 kcal/mol)

>  <smiles>  (21) 
CCN(CC)CCNc1c2ccccc2[n+](C)c2ccc(NCCN(C)C)c(OC)c12

>  <score_type>  (21) 
oracle

>  <origin>  (21) 
adg

>  <m_score__min__energy>  (21) 
-3.2999999999999998

>  <m_primary>  (21) 
energy

$$$$
21:0
     RDKit          3D

 32 34  0  0  0  0  0  0  0  0999 V2000
   55.8775   28.9213   43.2888 H   0  0  0  0  0  0  0  0  0  0  0  0
   56.6640   29.3650   43.9170 C   0  0  0  0  0  0  0  0  0  0  0  0
   56.4690   30.5790   44.4920 N   0  0  0  0  0  0  0  0  0  0  0  0
   57.3950   31.1780   45.2880 C   0  0  0  0  0  0  0  0  0  0  0  0
   57.1300   32.3920   45.6950 N   0  0  0  0  0  0  0  0  0  0  0  0
   58.0300   33.4530   46.0400 C   0  0  0  0  0  0  0  0  0  0  0  0
   58.3350   33.7450   47.3320 N   0  0  0  0  0  0  0  0  0  0  0  0
   59.4540   34.9670   47.2250 S   0  0  0  0  0  0  0  0  0  0  0  0
   59.5950   35.1290   45.5720 C   0  0  0  0  0  0  0  0  0  0  0  0
   60.2332   35.8323   45.0170 H   0  0  0  0  0  0  0  0  0  0  0  0
   58.7270   34.1780   45.0520 C   0  0  0  0  0  0  0  0  0  0  0  0
   58.5959   34.0069   43.9733 H   0  0  0  0  0  0  0  0  0  0  0  0
   58.5930   30.4640   45.6010 C   0  0  0  0  0  0  0  0  0  0  0  0
   59.5220   30.8420   46.6840 C   0  0  0  0  0  0  0  0  0  0  0  0
   60.5720   31.6650   46.4260 N   0  0  0  0  0  0  0  0  0  0  0  0
   61.4330   32.0100   47.4170 C   0  0  0  0  0  0  0  0  0  0  0  0
   62.5570   32.9530   47.1290 C   0  0  0  0  0  0  0  0  0  0  0  0
   62.9857   33.3126   48.0760 H   0  0  0  0  0  0  0  0  0  0  0  0
   63.3334   32.4320   46.5495 H   0  0  0  0  0  0  0  0  0  0  0  0
   62.1789   33.8081   46.5495 H   0  0  0  0  0  0  0  0  0  0  0  0
   61.2390   31.5360   48.6780 N   0  0  0  0  0  0  0  0  0  0  0  0
   61.8840   31.8220   49.4490 H   0  0  0  0  0  0  0  0  0  0  0  0
   60.2080   30.6860   48.9340 C   0  0  0  0  0  0  0  0  0  0  0  0
   59.9660   30.1840   50.3210 C   0  0  0  0  0  0  0  0  0  0  0  0
   60.3245   30.9277   51.0479 H   0  0  0  0  0  0  0  0  0  0  0  0
   58.8887   30.0175   50.4679 H   0  0  0  0  0  0  0  0  0  0  0  0
   60.5067   29.2374   50.4679 H   0  0  0  0  0  0  0  0  0  0  0  0
   59.3540   30.3430   47.9360 N   0  0  0  0  0  0  0  0  0  0  0  0
   58.8180   29.2300   44.9690 C   0  0  0  0  0  0  0  0  0  0  0  0
   59.7610   28.6916   45.1447 H   0  0  0  0  0  0  0  0  0  0  0  0
   57.8580   28.6820   44.1220 C   0  0  0  0  0  0  0  0  0  0  0  0
   58.0419   27.7202   43.6210 H   0  0  0  0  0  0  0  0  0  0  0  0
  1  2  1  0
  2  3  1  0
  3  4  1  0
  4  5  2  0
  5  6  1  0
  6  7  2  0
  7  8  1  0
  8  9  1  0
  9 10  1  0
  9 11  2  0
 11 12  1  0
  4 13  1  0
 13 14  1  0
 14 15  2  0
 15 16  1  0
 16 17  1  0
 17 18  1  0
 17 19  1  0
 17 20  1  0
 16 21  2  0
 21 22  1  0
 21 23  1  0
 23 24  1  0
 24 25  1  0
 24 26  1  0
 24 27  1  0
 23 28  2  0
 13 29  2  0
 29 30  1  0
 29 31  1  0
 31 32  1  0
 31  2  2  0
 11  6  1  0
 28 14  1  0
M  CHG  2   3  -1  21   1
M  END
>  <UniqueID>  (22) 
21

>  <SMILES>  (22) 
Cc1nc(-c2ccc[n-]/c2=N/c2ccsn2)nc(C)[nH+]1

>  <Energy>  (22) 
82.07236273661576

>  <Genealogy>  (22) 
Cc1nc(-c2ccc[n-]c2=Nc2ccsn2)nc(C)[nH+]1 (protonated)
Cc1nc(-c2ccc[n-]/c2=N/c2ccsn2)nc(C)[nH+]1 (cis-trans isomerization)
Cc1nc(-c2ccc[n-]/c2=N/c2ccsn2)nc(C)[nH+]1 (3D coordinates assigned)
Cc1nc(-c2ccc[n-]/c2=N/c2ccsn2)nc(C)[nH+]1 (optimized conformer: 82.07236273661576 kcal/mol)

>  <smiles>  (22) 
Cc1nc(C)nc(-c2ccc[nH]c2=Nc2ccsn2)n1

>  <score_type>  (22) 
oracle

>  <origin>  (22) 
adg

>  <m_score__min__energy>  (22) 
-6.8099999999999996

>  <m_primary>  (22) 
energy

$$$$
22:0
     RDKit          3D

 57 59  0  0  0  0  0  0  0  0999 V2000
   63.6510   32.2970   47.6440 C   0  0  0  0  0  0  0  0  0  0  0  0
   63.2220   33.7220   47.2990 C   0  0  0  0  0  0  0  0  0  0  0  0
   61.9390   33.7580   46.4460 C   0  0  0  0  0  0  0  0  0  0  0  0
   60.7390   34.1830   47.2270 N   0  0  1  0  0  0  0  0  0  0  0  0
   59.7690   34.8130   46.3580 C   0  0  0  0  0  0  0  0  0  0  0  0
   59.6560   36.0310   46.3420 O   0  0  0  0  0  0  0  0  0  0  0  0
   58.9230   33.9960   45.4270 C   0  0  0  0  0  0  0  0  0  0  0  0
   58.8440   32.5020   45.8500 C   0  0  2  0  0  0  0  0  0  0  0  0
   57.5470   31.8530   45.5240 N   0  0  0  0  0  0  0  0  0  0  0  0
   57.0400   31.9390   44.1370 C   0  0  0  0  0  0  0  0  0  0  0  0
   57.0910   30.6080   43.3730 C   0  0  0  0  0  0  0  0  0  0  0  0
   56.0080   29.6390   43.8520 C   0  0  0  0  0  0  0  0  0  0  0  0
   56.2630   29.2220   45.2420 N   0  0  0  0  0  0  0  0  0  0  0  0
   57.5480   28.5200   45.4240 C   0  0  0  0  0  0  0  0  0  0  0  0
   57.8340   27.5720   44.2610 C   0  0  0  0  0  0  0  0  0  0  0  0
   59.2700   32.2240   47.2870 C   0  0  0  0  0  0  0  0  0  0  0  0
   60.1510   33.0470   47.9250 C   0  0  0  0  0  0  0  0  0  0  0  0
   60.7290   32.5980   49.2400 C   0  0  0  0  0  0  0  0  0  0  0  0
   61.2850   33.4990   50.1710 C   0  0  0  0  0  0  0  0  0  0  0  0
   61.8510   33.0340   51.3610 C   0  0  0  0  0  0  0  0  0  0  0  0
   61.8530   31.6680   51.6500 C   0  0  0  0  0  0  0  0  0  0  0  0
   61.2810   30.7630   50.7540 C   0  0  0  0  0  0  0  0  0  0  0  0
   60.7100   31.2190   49.5600 C   0  0  0  0  0  0  0  0  0  0  0  0
   60.0870   30.2490   48.5950 C   0  0  0  0  0  0  0  0  0  0  0  0
   58.8760   30.9090   47.9400 C   0  0  0  0  0  0  0  0  0  0  0  0
   63.6865   32.1792   48.7371 H   0  0  0  0  0  0  0  0  0  0  0  0
   62.9277   31.5839   47.2217 H   0  0  0  0  0  0  0  0  0  0  0  0
   64.6477   32.1017   47.2217 H   0  0  0  0  0  0  0  0  0  0  0  0
   63.0405   34.2726   48.2338 H   0  0  0  0  0  0  0  0  0  0  0  0
   64.0294   34.1826   46.7108 H   0  0  0  0  0  0  0  0  0  0  0  0
   62.0876   34.4652   45.6166 H   0  0  0  0  0  0  0  0  0  0  0  0
   61.7536   32.7368   46.0817 H   0  0  0  0  0  0  0  0  0  0  0  0
   61.0020   34.9060   47.9310 H   0  0  0  0  0  0  0  0  0  0  0  0
   57.9055   34.4139   45.4166 H   0  0  0  0  0  0  0  0  0  0  0  0
   59.3875   34.0370   44.4307 H   0  0  0  0  0  0  0  0  0  0  0  0
   59.6048   32.0222   45.2168 H   0  0  0  0  0  0  0  0  0  0  0  0
   57.6210   30.8360   45.7630 H   0  0  0  0  0  0  0  0  0  0  0  0
   55.9945   32.2793   44.1707 H   0  0  0  0  0  0  0  0  0  0  0  0
   57.6951   32.6409   43.6002 H   0  0  0  0  0  0  0  0  0  0  0  0
   56.9433   30.8063   42.3011 H   0  0  0  0  0  0  0  0  0  0  0  0
   58.0715   30.1445   43.5565 H   0  0  0  0  0  0  0  0  0  0  0  0
   55.0283   30.1363   43.7977 H   0  0  0  0  0  0  0  0  0  0  0  0
   56.0188   28.7481   43.2069 H   0  0  0  0  0  0  0  0  0  0  0  0
   56.3010   30.0920   45.8250 H   0  0  0  0  0  0  0  0  0  0  0  0
   58.3563   29.2634   45.4870 H   0  0  0  0  0  0  0  0  0  0  0  0
   57.4908   27.9268   46.3486 H   0  0  0  0  0  0  0  0  0  0  0  0
   58.1307   26.5884   44.6541 H   0  0  0  0  0  0  0  0  0  0  0  0
   56.9288   27.4630   43.6457 H   0  0  0  0  0  0  0  0  0  0  0  0
   58.6485   27.9818   43.6457 H   0  0  0  0  0  0  0  0  0  0  0  0
   61.2731   34.5782   49.9586 H   0  0  0  0  0  0  0  0  0  0  0  0
   62.2960   33.7459   52.0718 H   0  0  0  0  0  0  0  0  0  0  0  0
   62.3056   31.3046   52.5844 H   0  0  0  0  0  0  0  0  0  0  0  0
   61.2790   29.6880   50.9870 H   0  0  0  0  0  0  0  0  0  0  0  0
   60.8205   29.9747   47.8225 H   0  0  0  0  0  0  0  0  0  0  0  0
   59.7715   29.3418   49.1312 H   0  0  0  0  0  0  0  0  0  0  0  0
   58.4666   30.2337   47.1742 H   0  0  0  0  0  0  0  0  0  0  0  0
   58.1205   31.1102   48.7138 H   0  0  0  0  0  0  0  0  0  0  0  0
  1  2  1  0
  2  3  1  0
  3  4  1  0
  4  5  1  0
  5  6  2  0
  5  7  1  0
  7  8  1  0
  8  9  1  0
  9 10  1  0
 10 11  1  0
 11 12  1  0
 12 13  1  0
 13 14  1  0
 14 15  1  0
  8 16  1  0
 16 17  2  0
 17 18  1  0
 18 19  2  0
 19 20  1  0
 20 21  2  0
 21 22  1  0
 22 23  2  0
 23 24  1  0
 24 25  1  0
 17  4  1  0
 23 18  1  0
 25 16  1  0
  1 26  1  0
  1 27  1  0
  1 28  1  0
  2 29  1  0
  2 30  1  0
  3 31  1  0
  3 32  1  0
  4 33  1  1
  7 34  1  0
  7 35  1  0
  8 36  1  6
  9 37  1  0
 10 38  1  0
 10 39  1  0
 11 40  1  0
 11 41  1  0
 12 42  1  0
 12 43  1  0
 13 44  1  0
 14 45  1  0
 14 46  1  0
 15 47  1  0
 15 48  1  0
 15 49  1  0
 19 50  1  0
 20 51  1  0
 21 52  1  0
 22 53  1  0
 24 54  1  0
 24 55  1  0
 25 56  1  0
 25 57  1  0
M  CHG  1   4   1
M  END
>  <UniqueID>  (23) 
22

>  <SMILES>  (23) 
CCC[N@H+]1C(=O)C[C@H](NCCCNCC)C2=C1c1ccccc1CC2

>  <Energy>  (23) 
75.52539549293763

>  <Genealogy>  (23) 
CCC[NH+]1C(=O)CC(NCCCNCC)C2=C1c1ccccc1CC2 (protonated)
CCC[N@H+]1C(=O)C[C@H](NCCCNCC)C2=C1c1ccccc1CC2 (chirality)
CCC[N@H+]1C(=O)C[C@H](NCCCNCC)C2=C1c1ccccc1CC2 (3D coordinates assigned)
CCC[N@H+]1C(=O)C[C@H](NCCCNCC)C2=C1c1ccccc1CC2 (nonaromatic ring conformer: 75.52539549293763 kcal/mol)

>  <smiles>  (23) 
CCCN1C(=O)CC(NCCCNCC)C2=C1c1ccccc1CC2

>  <score_type>  (23) 
oracle

>  <origin>  (23) 
adg

>  <m_score__min__energy>  (23) 
-7.3200000000000003

>  <m_primary>  (23) 
energy

$$$$
23:0
     RDKit          3D

 46 48  0  0  0  0  0  0  0  0999 V2000
   64.8308   32.0987   47.5876 H   0  0  0  0  0  0  0  0  0  0  0  0
   63.7890   32.3600   47.8250 C   0  0  0  0  0  0  0  0  0  0  0  0
   63.5170   33.4830   48.5310 N   0  0  0  0  0  0  0  0  0  0  0  0
   62.2410   33.8470   48.8300 C   0  0  0  0  0  0  0  0  0  0  0  0
   62.0599   34.7612   49.4143 H   0  0  0  0  0  0  0  0  0  0  0  0
   61.1510   33.0700   48.4020 C   0  0  0  0  0  0  0  0  0  0  0  0
   59.5100   33.6940   48.7130 S   0  0  0  0  0  0  0  0  0  0  0  0
   59.6310   34.9320   49.5580 O   0  0  0  0  0  0  0  0  0  0  0  0
   58.6740   32.7030   49.4730 O   0  0  0  0  0  0  0  0  0  0  0  0
   58.6630   34.0780   47.2300 N   0  0  0  0  0  0  0  0  0  0  0  0
   57.5850   33.0980   46.9700 C   0  0  0  0  0  0  0  0  0  0  0  0
   57.9674   32.0881   47.1793 H   0  0  0  0  0  0  0  0  0  0  0  0
   56.7368   33.3506   47.6232 H   0  0  0  0  0  0  0  0  0  0  0  0
   57.0850   33.1470   45.5060 C   0  0  0  0  0  0  0  0  0  0  0  0
   57.6013   32.3692   44.9243 H   0  0  0  0  0  0  0  0  0  0  0  0
   55.9983   32.9763   45.5032 H   0  0  0  0  0  0  0  0  0  0  0  0
   57.3630   34.5130   44.8710 C   0  0  0  0  0  0  0  0  0  0  0  0
   57.0130   34.5022   43.8282 H   0  0  0  0  0  0  0  0  0  0  0  0
   56.8305   35.2820   45.4499 H   0  0  0  0  0  0  0  0  0  0  0  0
   58.8710   34.8400   44.8930 C   0  0  0  0  0  0  0  0  0  0  0  0
   59.3279   34.4694   43.9635 H   0  0  0  0  0  0  0  0  0  0  0  0
   58.9797   35.9308   44.9839 H   0  0  0  0  0  0  0  0  0  0  0  0
   59.5870   34.1910   46.0910 C   0  0  0  0  0  0  0  0  0  0  0  0
   59.9377   33.1882   45.8058 H   0  0  0  0  0  0  0  0  0  0  0  0
   60.4430   34.8175   46.3820 H   0  0  0  0  0  0  0  0  0  0  0  0
   61.4180   31.8690   47.6980 C   0  0  0  0  0  0  0  0  0  0  0  0
   60.3680   30.9080   47.3230 C   0  0  0  0  0  0  0  0  0  0  0  0
   59.8440   29.6380   48.2860 S   0  0  0  0  0  0  0  0  0  0  0  0
   58.9080   28.9430   47.0730 C   0  0  0  0  0  0  0  0  0  0  0  0
   58.1820   27.8820   47.3140 N   0  0  0  0  0  0  0  0  0  0  0  0
   58.4580   26.4710   47.0820 C   0  0  0  0  0  0  0  0  0  0  0  0
   58.5592   25.9536   48.0474 H   0  0  0  0  0  0  0  0  0  0  0  0
   57.6302   26.0244   46.5117 H   0  0  0  0  0  0  0  0  0  0  0  0
   59.3931   26.3692   46.5117 H   0  0  0  0  0  0  0  0  0  0  0  0
   59.0260   29.6400   45.8950 N   0  0  0  0  0  0  0  0  0  0  0  0
   58.3400   29.4130   44.6130 C   0  0  0  0  0  0  0  0  0  0  0  0
   58.4520   28.3577   44.3235 H   0  0  0  0  0  0  0  0  0  0  0  0
   58.7881   30.0636   43.8475 H   0  0  0  0  0  0  0  0  0  0  0  0
   56.8530   29.7460   44.7400 C   0  0  0  0  0  0  0  0  0  0  0  0
   56.5805   29.8070   45.8040 H   0  0  0  0  0  0  0  0  0  0  0  0
   56.6507   30.7117   44.2537 H   0  0  0  0  0  0  0  0  0  0  0  0
   56.2581   28.9588   44.2537 H   0  0  0  0  0  0  0  0  0  0  0  0
   59.8520   30.7220   46.0410 C   0  0  0  0  0  0  0  0  0  0  0  0
   60.0917   31.3969   45.2061 H   0  0  0  0  0  0  0  0  0  0  0  0
   62.7470   31.5330   47.3980 C   0  0  0  0  0  0  0  0  0  0  0  0
   62.9682   30.6192   46.8271 H   0  0  0  0  0  0  0  0  0  0  0  0
  1  2  1  0
  2  3  2  0
  3  4  1  0
  4  5  1  0
  4  6  2  0
  6  7  1  0
  7  8  2  0
  7  9  2  0
  7 10  1  0
 10 11  1  0
 11 12  1  0
 11 13  1  0
 11 14  1  0
 14 15  1  0
 14 16  1  0
 14 17  1  0
 17 18  1  0
 17 19  1  0
 17 20  1  0
 20 21  1  0
 20 22  1  0
 20 23  1  0
 23 24  1  0
 23 25  1  0
  6 26  1  0
 26 27  1  0
 27 28  1  0
 28 29  1  0
 29 30  2  0
 30 31  1  0
 31 32  1  0
 31 33  1  0
 31 34  1  0
 29 35  1  0
 35 36  1  0
 36 37  1  0
 36 38  1  0
 36 39  1  0
 39 40  1  0
 39 41  1  0
 39 42  1  0
 35 43  1  0
 43 44  1  0
 26 45  2  0
 45 46  1  0
 45  2  1  0
 23 10  1  0
 43 27  2  0
M  END
>  <UniqueID>  (24) 
23

>  <SMILES>  (24) 
CCn1cc(-c2ccncc2S(=O)(=O)N2CCCCC2)s/c1=N/C

>  <Energy>  (24) 
97.59708541638419

>  <Genealogy>  (24) 
CCn1cc(-c2ccncc2S(=O)(=O)N2CCCCC2)s/c1=N/C (cis-trans isomerization)
CCn1cc(-c2ccncc2S(=O)(=O)N2CCCCC2)s/c1=N/C (3D coordinates assigned)
CCn1cc(-c2ccncc2S(=O)(=O)N2CCCCC2)s/c1=N/C (nonaromatic ring conformer: 97.59708541638419 kcal/mol)

>  <smiles>  (24) 
CCn1cc(-c2ccncc2S(=O)(=O)N2CCCCC2)sc1=NC

>  <score_type>  (24) 
oracle

>  <origin>  (24) 
adg

>  <m_score__min__energy>  (24) 
-8.2899999999999991

>  <m_primary>  (24) 
energy

$$$$
24:0
     RDKit          3D

 50 52  0  0  0  0  0  0  0  0999 V2000
   63.3880   33.8380   46.3790 C   0  0  0  0  0  0  0  0  0  0  0  0
   63.2220   33.7290   47.9000 C   0  0  0  0  0  0  0  0  0  0  0  0
   63.9620   32.5740   48.4710 N   0  0  1  0  0  0  0  0  0  0  0  0
   64.9230   33.0600   49.4810 C   0  0  0  0  0  0  0  0  0  0  0  0
   63.0240   31.5910   49.0760 C   0  0  0  0  0  0  0  0  0  0  0  0
   61.5930   31.6820   48.4970 C   0  0  0  0  0  0  0  0  0  0  0  0
   61.5460   31.1670   47.1280 N   0  0  0  0  0  0  0  0  0  0  0  0
   60.3120   31.0690   46.3950 C   0  0  0  0  0  0  0  0  0  0  0  0
   59.6070   32.2300   46.0270 C   0  0  0  0  0  0  0  0  0  0  0  0
   60.0180   33.5010   46.4810 C   0  0  0  0  0  0  0  0  0  0  0  0
   59.2950   34.6440   46.1500 C   0  0  0  0  0  0  0  0  0  0  0  0
   58.1400   34.5390   45.3830 C   0  0  0  0  0  0  0  0  0  0  0  0
   57.7100   33.2930   44.9290 C   0  0  0  0  0  0  0  0  0  0  0  0
   58.4450   32.1140   45.2180 C   0  0  0  0  0  0  0  0  0  0  0  0
   58.0440   30.8760   44.7540 N   0  0  0  0  0  0  0  0  0  0  0  0
   57.0300   30.7830   43.6800 C   0  0  0  0  0  0  0  0  0  0  0  0
   58.6070   29.7270   45.2760 C   0  0  0  0  0  0  0  0  0  0  0  0
   58.0420   28.4470   45.0400 C   0  0  0  0  0  0  0  0  0  0  0  0
   58.6630   27.2810   45.5040 C   0  0  0  0  0  0  0  0  0  0  0  0
   58.0330   25.9400   45.2630 C   0  0  0  0  0  0  0  0  0  0  0  0
   59.8320   27.3770   46.2580 C   0  0  0  0  0  0  0  0  0  0  0  0
   60.3820   28.6230   46.5450 C   0  0  0  0  0  0  0  0  0  0  0  0
   59.7730   29.8080   46.0820 C   0  0  0  0  0  0  0  0  0  0  0  0
   64.2873   34.4285   46.1497 H   0  0  0  0  0  0  0  0  0  0  0  0
   63.4908   32.8311   45.9483 H   0  0  0  0  0  0  0  0  0  0  0  0
   62.5049   34.3326   45.9483 H   0  0  0  0  0  0  0  0  0  0  0  0
   63.5983   34.6531   48.3632 H   0  0  0  0  0  0  0  0  0  0  0  0
   62.1528   33.5782   48.1099 H   0  0  0  0  0  0  0  0  0  0  0  0
   64.5090   32.1110   47.7070 H   0  0  0  0  0  0  0  0  0  0  0  0
   64.5286   32.8605   50.4883 H   0  0  0  0  0  0  0  0  0  0  0  0
   65.8835   32.5393   49.3536 H   0  0  0  0  0  0  0  0  0  0  0  0
   65.0729   34.1423   49.3536 H   0  0  0  0  0  0  0  0  0  0  0  0
   63.4121   30.5782   48.8926 H   0  0  0  0  0  0  0  0  0  0  0  0
   62.9582   31.8187   50.1502 H   0  0  0  0  0  0  0  0  0  0  0  0
   60.9121   31.0909   49.1270 H   0  0  0  0  0  0  0  0  0  0  0  0
   61.2874   32.7386   48.4840 H   0  0  0  0  0  0  0  0  0  0  0  0
   62.4490   30.9970   46.6290 H   0  0  0  0  0  0  0  0  0  0  0  0
   60.9203   33.5900   47.1038 H   0  0  0  0  0  0  0  0  0  0  0  0
   59.6377   35.6305   46.4955 H   0  0  0  0  0  0  0  0  0  0  0  0
   57.5636   35.4421   45.1336 H   0  0  0  0  0  0  0  0  0  0  0  0
   56.7856   33.2226   44.3369 H   0  0  0  0  0  0  0  0  0  0  0  0
   56.0293   30.6912   44.1275 H   0  0  0  0  0  0  0  0  0  0  0  0
   57.0715   31.6887   43.0571 H   0  0  0  0  0  0  0  0  0  0  0  0
   57.2355   29.8999   43.0571 H   0  0  0  0  0  0  0  0  0  0  0  0
   57.0975   28.3692   44.4815 H   0  0  0  0  0  0  0  0  0  0  0  0
   57.8083   25.4617   46.2278 H   0  0  0  0  0  0  0  0  0  0  0  0
   57.1016   26.0697   44.6923 H   0  0  0  0  0  0  0  0  0  0  0  0
   58.7274   25.3059   44.6923 H   0  0  0  0  0  0  0  0  0  0  0  0
   60.3217   26.4640   46.6276 H   0  0  0  0  0  0  0  0  0  0  0  0
   61.3044   28.6844   47.1412 H   0  0  0  0  0  0  0  0  0  0  0  0
  1  2  1  0
  2  3  1  0
  3  4  1  0
  3  5  1  0
  5  6  1  0
  6  7  1  0
  7  8  1  0
  8  9  2  0
  9 10  1  0
 10 11  2  0
 11 12  1  0
 12 13  2  0
 13 14  1  0
 14 15  2  0
 15 16  1  0
 15 17  1  0
 17 18  2  0
 18 19  1  0
 19 20  1  0
 19 21  2  0
 21 22  1  0
 22 23  2  0
 23  8  1  0
 14  9  1  0
 23 17  1  0
  1 24  1  0
  1 25  1  0
  1 26  1  0
  2 27  1  0
  2 28  1  0
  3 29  1  6
  4 30  1  0
  4 31  1  0
  4 32  1  0
  5 33  1  0
  5 34  1  0
  6 35  1  0
  6 36  1  0
  7 37  1  0
 10 38  1  0
 11 39  1  0
 12 40  1  0
 13 41  1  0
 16 42  1  0
 16 43  1  0
 16 44  1  0
 18 45  1  0
 20 46  1  0
 20 47  1  0
 20 48  1  0
 21 49  1  0
 22 50  1  0
M  CHG  2   3   1  15   1
M  END
>  <UniqueID>  (25) 
24

>  <SMILES>  (25) 
CC[N@@H+](C)CCNc1c2ccccc2[n+](C)c2cc(C)ccc12

>  <Energy>  (25) 
78.44821855980548

>  <Genealogy>  (25) 
CC[NH+](C)CCNc1c2ccccc2[n+](C)c2cc(C)ccc12 (protonated)
CC[N@@H+](C)CCNc1c2ccccc2[n+](C)c2cc(C)ccc12 (chirality)
CC[N@@H+](C)CCNc1c2ccccc2[n+](C)c2cc(C)ccc12 (3D coordinates assigned)
CC[N@@H+](C)CCNc1c2ccccc2[n+](C)c2cc(C)ccc12 (optimized conformer: 78.44821855980548 kcal/mol)

>  <smiles>  (25) 
CCN(C)CCNc1c2ccccc2[n+](C)c2cc(C)ccc12

>  <score_type>  (25) 
oracle

>  <origin>  (25) 
adg

>  <m_score__min__energy>  (25) 
-4.8499999999999996

>  <m_primary>  (25) 
energy

$$$$
25:0
     RDKit          3D

 51 53  0  0  0  0  0  0  0  0999 V2000
   57.7920   32.5150   43.1730 C   0  0  0  0  0  0  0  0  0  0  0  0
   58.1840   32.5080   44.6200 C   0  0  0  0  0  0  0  0  0  0  0  0
   58.7090   33.5670   45.3680 C   0  0  0  0  0  0  0  0  0  0  0  0
   58.9100   34.9660   44.8540 C   0  0  0  0  0  0  0  0  0  0  0  0
   59.0090   33.1540   46.6290 N   0  0  0  0  0  0  0  0  0  0  0  0
   59.5320   33.9840   47.7270 C   0  0  0  0  0  0  0  0  0  0  0  0
   61.0280   33.8440   47.8230 C   0  0  0  0  0  0  0  0  0  0  0  0
   61.6720   33.9300   49.0720 C   0  0  0  0  0  0  0  0  0  0  0  0
   63.0600   33.7800   49.1580 C   0  0  0  0  0  0  0  0  0  0  0  0
   63.8130   33.5450   48.0030 C   0  0  0  0  0  0  0  0  0  0  0  0
   63.1790   33.4560   46.7590 C   0  0  0  0  0  0  0  0  0  0  0  0
   61.7900   33.6030   46.6680 C   0  0  0  0  0  0  0  0  0  0  0  0
   58.7100   31.8330   46.6690 C   0  0  0  0  0  0  0  0  0  0  0  0
   58.8890   30.9330   47.7250 C   0  0  0  0  0  0  0  0  0  0  0  0
   58.5950   29.5770   47.5010 C   0  0  0  0  0  0  0  0  0  0  0  0
   58.1210   29.1280   46.2460 C   0  0  0  0  0  0  0  0  0  0  0  0
   57.9090   27.7500   46.0670 O   0  0  0  0  0  0  0  0  0  0  0  0
   58.9410   26.7610   46.1080 C   0  0  0  0  0  0  0  0  0  0  0  0
   58.6070   25.5940   45.1570 C   0  0  0  0  0  0  0  0  0  0  0  0
   57.5840   25.9080   44.1240 N   0  0  0  0  0  0  0  0  0  0  0  0
   58.1300   26.7030   43.0020 C   0  0  0  0  0  0  0  0  0  0  0  0
   56.8890   24.7050   43.6310 C   0  0  0  0  0  0  0  0  0  0  0  0
   57.9080   30.0730   45.2100 C   0  0  0  0  0  0  0  0  0  0  0  0
   58.2280   31.4090   45.4530 C   0  0  0  0  0  0  0  0  0  0  0  0
   56.6953   32.5346   43.0903 H   0  0  0  0  0  0  0  0  0  0  0  0
   58.2126   33.4058   42.6835 H   0  0  0  0  0  0  0  0  0  0  0  0
   58.1805   31.6098   42.6835 H   0  0  0  0  0  0  0  0  0  0  0  0
   59.0094   35.6579   45.7033 H   0  0  0  0  0  0  0  0  0  0  0  0
   59.8228   35.0039   44.2414 H   0  0  0  0  0  0  0  0  0  0  0  0
   58.0448   35.2594   44.2414 H   0  0  0  0  0  0  0  0  0  0  0  0
   59.2778   35.0374   47.5380 H   0  0  0  0  0  0  0  0  0  0  0  0
   59.0806   33.6505   48.6731 H   0  0  0  0  0  0  0  0  0  0  0  0
   61.0825   34.1155   49.9820 H   0  0  0  0  0  0  0  0  0  0  0  0
   63.5601   33.8470   50.1355 H   0  0  0  0  0  0  0  0  0  0  0  0
   64.9047   33.4300   48.0728 H   0  0  0  0  0  0  0  0  0  0  0  0
   63.7726   33.2704   45.8517 H   0  0  0  0  0  0  0  0  0  0  0  0
   61.2937   33.5296   45.6891 H   0  0  0  0  0  0  0  0  0  0  0  0
   59.2504   31.2777   48.7051 H   0  0  0  0  0  0  0  0  0  0  0  0
   58.7360   28.8519   48.3161 H   0  0  0  0  0  0  0  0  0  0  0  0
   59.8931   27.2180   45.8002 H   0  0  0  0  0  0  0  0  0  0  0  0
   59.0217   26.3726   47.1340 H   0  0  0  0  0  0  0  0  0  0  0  0
   59.5325   25.2950   44.6431 H   0  0  0  0  0  0  0  0  0  0  0  0
   58.1822   24.7951   45.7825 H   0  0  0  0  0  0  0  0  0  0  0  0
   56.8610   26.5080   44.5900 H   0  0  0  0  0  0  0  0  0  0  0  0
   58.7106   27.5483   43.4000 H   0  0  0  0  0  0  0  0  0  0  0  0
   58.7830   26.0674   42.3859 H   0  0  0  0  0  0  0  0  0  0  0  0
   57.3023   27.0843   42.3859 H   0  0  0  0  0  0  0  0  0  0  0  0
   56.5426   24.1055   44.4858 H   0  0  0  0  0  0  0  0  0  0  0  0
   56.0252   25.0052   43.0197 H   0  0  0  0  0  0  0  0  0  0  0  0
   57.5806   24.1067   43.0197 H   0  0  0  0  0  0  0  0  0  0  0  0
   57.5000   29.7598   44.2376 H   0  0  0  0  0  0  0  0  0  0  0  0
  1  2  1  0
  2  3  2  0
  3  4  1  0
  3  5  1  0
  5  6  1  0
  6  7  1  0
  7  8  2  0
  8  9  1  0
  9 10  2  0
 10 11  1  0
 11 12  2  0
  5 13  1  0
 13 14  2  0
 14 15  1  0
 15 16  2  0
 16 17  1  0
 17 18  1  0
 18 19  1  0
 19 20  1  0
 20 21  1  0
 20 22  1  0
 16 23  1  0
 23 24  2  0
 24  2  1  0
 12  7  1  0
 24 13  1  0
  1 25  1  0
  1 26  1  0
  1 27  1  0
  4 28  1  0
  4 29  1  0
  4 30  1  0
  6 31  1  0
  6 32  1  0
  8 33  1  0
  9 34  1  0
 10 35  1  0
 11 36  1  0
 12 37  1  0
 14 38  1  0
 15 39  1  0
 18 40  1  0
 18 41  1  0
 19 42  1  0
 19 43  1  0
 20 44  1  0
 21 45  1  0
 21 46  1  0
 21 47  1  0
 22 48  1  0
 22 49  1  0
 22 50  1  0
 23 51  1  0
M  CHG  1  20   1
M  END
>  <UniqueID>  (26) 
25

>  <SMILES>  (26) 
Cc1c(C)n(Cc2ccccc2)c2ccc(OCC[NH+](C)C)cc12

>  <Energy>  (26) 
87.89051124390423

>  <Genealogy>  (26) 
Cc1c(C)n(Cc2ccccc2)c2ccc(OCC[NH+](C)C)cc12 (protonated)
Cc1c(C)n(Cc2ccccc2)c2ccc(OCC[NH+](C)C)cc12 (3D coordinates assigned)
Cc1c(C)n(Cc2ccccc2)c2ccc(OCC[NH+](C)C)cc12 (optimized conformer: 87.89051124390423 kcal/mol)

>  <smiles>  (26) 
Cc1c(C)n(Cc2ccccc2)c2ccc(OCCN(C)C)cc12

>  <score_type>  (26) 
oracle

>  <origin>  (26) 
adg

>  <m_score__min__energy>  (26) 
-5.6299999999999999

>  <m_primary>  (26) 
energy

$$$$
26:0
     RDKit          3D

 52 53  0  0  0  0  0  0  0  0999 V2000
   63.7510   32.7140   47.1200 C   0  0  0  0  0  0  0  0  0  0  0  0
   63.4460   34.1390   47.5790 C   0  0  0  0  0  0  0  0  0  0  0  0
   62.9580   34.1970   49.0370 C   0  0  0  0  0  0  0  0  0  0  0  0
   61.4250   34.1230   49.1870 C   0  0  0  0  0  0  0  0  0  0  0  0
   60.8470   33.0090   48.4020 N   0  0  0  0  0  0  0  0  0  0  0  0
   61.1690   31.7510   48.8310 C   0  0  0  0  0  0  0  0  0  0  0  0
   60.6780   30.6170   48.1940 C   0  0  0  0  0  0  0  0  0  0  0  0
   59.8310   30.7350   47.0910 C   0  0  0  0  0  0  0  0  0  0  0  0
   59.3340   29.5450   46.4370 N   0  0  0  0  0  0  0  0  0  0  0  0
   60.0840   28.8110   45.4080 C   0  0  0  0  0  0  0  0  0  0  0  0
   59.1400   28.0720   44.4500 C   0  0  0  0  0  0  0  0  0  0  0  0
   57.7270   28.3760   44.7930 N   0  0  0  0  0  0  0  0  0  0  0  0
   57.0000   29.0300   43.6700 C   0  0  0  0  0  0  0  0  0  0  0  0
   55.9910   30.1040   44.1190 C   0  0  0  0  0  0  0  0  0  0  0  0
   57.0290   27.2070   45.3800 C   0  0  0  0  0  0  0  0  0  0  0  0
   57.6940   25.8900   44.9800 C   0  0  0  0  0  0  0  0  0  0  0  0
   59.4870   32.0270   46.6320 C   0  0  0  0  0  0  0  0  0  0  0  0
   58.5950   32.2010   45.5510 C   0  0  0  0  0  0  0  0  0  0  0  0
   58.2520   33.4750   45.1070 C   0  0  0  0  0  0  0  0  0  0  0  0
   58.7860   34.5960   45.7320 C   0  0  0  0  0  0  0  0  0  0  0  0
   59.6570   34.4560   46.8140 C   0  0  0  0  0  0  0  0  0  0  0  0
   60.0170   33.1750   47.3020 C   0  0  0  0  0  0  0  0  0  0  0  0
   63.8894   32.0674   47.9990 H   0  0  0  0  0  0  0  0  0  0  0  0
   62.9133   32.3364   46.5153 H   0  0  0  0  0  0  0  0  0  0  0  0
   64.6698   32.7123   46.5153 H   0  0  0  0  0  0  0  0  0  0  0  0
   64.3616   34.7420   47.4893 H   0  0  0  0  0  0  0  0  0  0  0  0
   62.6398   34.5301   46.9410 H   0  0  0  0  0  0  0  0  0  0  0  0
   63.4006   33.3516   49.5841 H   0  0  0  0  0  0  0  0  0  0  0  0
   63.2712   35.1715   49.4397 H   0  0  0  0  0  0  0  0  0  0  0  0
   61.1782   33.9755   50.2488 H   0  0  0  0  0  0  0  0  0  0  0  0
   60.9994   35.0639   48.8081 H   0  0  0  0  0  0  0  0  0  0  0  0
   61.8322   31.6336   49.7007 H   0  0  0  0  0  0  0  0  0  0  0  0
   60.9592   29.6193   48.5621 H   0  0  0  0  0  0  0  0  0  0  0  0
   58.3990   29.1640   46.7130 H   0  0  0  0  0  0  0  0  0  0  0  0
   60.6931   29.5233   44.8322 H   0  0  0  0  0  0  0  0  0  0  0  0
   60.7225   28.0678   45.9079 H   0  0  0  0  0  0  0  0  0  0  0  0
   59.3419   28.3954   43.4182 H   0  0  0  0  0  0  0  0  0  0  0  0
   59.3085   26.9888   44.5415 H   0  0  0  0  0  0  0  0  0  0  0  0
   57.7398   29.5050   43.0089 H   0  0  0  0  0  0  0  0  0  0  0  0
   56.4229   28.2429   43.1627 H   0  0  0  0  0  0  0  0  0  0  0  0
   55.9578   30.1393   45.2179 H   0  0  0  0  0  0  0  0  0  0  0  0
   56.3019   31.0848   43.7298 H   0  0  0  0  0  0  0  0  0  0  0  0
   54.9928   29.8548   43.7298 H   0  0  0  0  0  0  0  0  0  0  0  0
   57.0456   27.2958   46.4763 H   0  0  0  0  0  0  0  0  0  0  0  0
   55.9968   27.1984   45.0000 H   0  0  0  0  0  0  0  0  0  0  0  0
   57.9758   25.3319   45.8850 H   0  0  0  0  0  0  0  0  0  0  0  0
   56.9906   25.2904   44.3836 H   0  0  0  0  0  0  0  0  0  0  0  0
   58.5941   26.1000   44.3836 H   0  0  0  0  0  0  0  0  0  0  0  0
   58.1659   31.3187   45.0536 H   0  0  0  0  0  0  0  0  0  0  0  0
   57.5584   33.5946   44.2616 H   0  0  0  0  0  0  0  0  0  0  0  0
   58.5203   35.6007   45.3714 H   0  0  0  0  0  0  0  0  0  0  0  0
   60.0705   35.3544   47.2955 H   0  0  0  0  0  0  0  0  0  0  0  0
  1  2  1  0
  2  3  1  0
  3  4  1  0
  4  5  1  0
  5  6  2  0
  6  7  1  0
  7  8  2  0
  8  9  1  0
  9 10  1  0
 10 11  1  0
 11 12  1  0
 12 13  1  0
 13 14  1  0
 12 15  1  0
 15 16  1  0
  8 17  1  0
 17 18  2  0
 18 19  1  0
 19 20  2  0
 20 21  1  0
 21 22  2  0
 22  5  1  0
 22 17  1  0
  1 23  1  0
  1 24  1  0
  1 25  1  0
  2 26  1  0
  2 27  1  0
  3 28  1  0
  3 29  1  0
  4 30  1  0
  4 31  1  0
  6 32  1  0
  7 33  1  0
  9 34  1  0
 10 35  1  0
 10 36  1  0
 11 37  1  0
 11 38  1  0
 13 39  1  0
 13 40  1  0
 14 41  1  0
 14 42  1  0
 14 43  1  0
 15 44  1  0
 15 45  1  0
 16 46  1  0
 16 47  1  0
 16 48  1  0
 18 49  1  0
 19 50  1  0
 20 51  1  0
 21 52  1  0
M  CHG  1   5   1
M  END
>  <UniqueID>  (27) 
26

>  <SMILES>  (27) 
CCCC[n+]1ccc(NCCN(CC)CC)c2ccccc21

>  <Energy>  (27) 
58.83711999386884

>  <Genealogy>  (27) 
CCCC[n+]1ccc(NCCN(CC)CC)c2ccccc21 (3D coordinates assigned)
CCCC[n+]1ccc(NCCN(CC)CC)c2ccccc21 (optimized conformer: 58.83711999386884 kcal/mol)

>  <smiles>  (27) 
CCCC[n+]1ccc(NCCN(CC)CC)c2ccccc21

>  <score_type>  (27) 
oracle

>  <origin>  (27) 
adg

>  <m_score__min__energy>  (27) 
-5.1200000000000001

>  <m_primary>  (27) 
energy

$$$$
27:0
     RDKit          3D

 47 49  0  0  0  0  0  0  0  0999 V2000
   63.3710   33.4540   46.8900 C   0  0  0  0  0  0  0  0  0  0  0  0
   63.7640   32.5330   48.0500 C   0  0  0  0  0  0  0  0  0  0  0  0
   62.7730   32.5780   49.1590 N   0  0  2  0  0  0  0  0  0  0  0  0
   63.2090   33.4770   50.2470 C   0  0  0  0  0  0  0  0  0  0  0  0
   62.3850   31.2280   49.6540 C   0  0  0  0  0  0  0  0  0  0  0  0
   60.8680   30.9380   49.7670 C   0  0  0  0  0  0  0  0  0  0  0  0
   60.3300   29.9590   48.7180 C   0  0  0  0  0  0  0  0  0  0  0  0
   60.6400   30.4410   47.3740 N   0  0  0  0  0  0  0  0  0  0  0  0
   59.7530   31.3450   46.7010 C   0  0  0  0  0  0  0  0  0  0  0  0
   58.8340   30.9210   45.7120 C   0  0  0  0  0  0  0  0  0  0  0  0
   58.8100   29.5810   45.2740 C   0  0  0  0  0  0  0  0  0  0  0  0
   57.8950   29.1670   44.3080 C   0  0  0  0  0  0  0  0  0  0  0  0
   57.0000   30.0770   43.7540 C   0  0  0  0  0  0  0  0  0  0  0  0
   57.0180   31.4160   44.1480 C   0  0  0  0  0  0  0  0  0  0  0  0
   57.9320   31.8760   45.1260 C   0  0  0  0  0  0  0  0  0  0  0  0
   57.9700   33.2080   45.5160 N   0  0  0  0  0  0  0  0  0  0  0  0
   57.0480   34.2000   44.9330 C   0  0  0  0  0  0  0  0  0  0  0  0
   58.8950   33.5770   46.4560 C   0  0  0  0  0  0  0  0  0  0  0  0
   59.1580   34.8090   47.0300 C   0  0  0  0  0  0  0  0  0  0  0  0
   60.1870   34.5660   47.9300 C   0  0  0  0  0  0  0  0  0  0  0  0
   60.5260   33.2910   47.9100 O   0  0  0  0  0  0  0  0  0  0  0  0
   59.7580   32.6910   47.0320 C   0  0  0  0  0  0  0  0  0  0  0  0
   62.9689   34.3964   47.2901 H   0  0  0  0  0  0  0  0  0  0  0  0
   64.2571   33.6658   46.2736 H   0  0  0  0  0  0  0  0  0  0  0  0
   62.6049   32.9608   46.2736 H   0  0  0  0  0  0  0  0  0  0  0  0
   63.8319   31.5007   47.6763 H   0  0  0  0  0  0  0  0  0  0  0  0
   64.7310   32.8781   48.4448 H   0  0  0  0  0  0  0  0  0  0  0  0
   61.8860   32.9890   48.7790 H   0  0  0  0  0  0  0  0  0  0  0  0
   62.9839   33.0129   51.2185 H   0  0  0  0  0  0  0  0  0  0  0  0
   64.2920   33.6519   50.1663 H   0  0  0  0  0  0  0  0  0  0  0  0
   62.6758   34.4357   50.1663 H   0  0  0  0  0  0  0  0  0  0  0  0
   62.8162   30.4846   48.9674 H   0  0  0  0  0  0  0  0  0  0  0  0
   62.7665   31.1774   50.6845 H   0  0  0  0  0  0  0  0  0  0  0  0
   60.6719   30.5161   50.7637 H   0  0  0  0  0  0  0  0  0  0  0  0
   60.3523   31.8946   49.5968 H   0  0  0  0  0  0  0  0  0  0  0  0
   60.7959   28.9738   48.8674 H   0  0  0  0  0  0  0  0  0  0  0  0
   59.2385   29.8781   48.8281 H   0  0  0  0  0  0  0  0  0  0  0  0
   61.6500   30.4740   47.1080 H   0  0  0  0  0  0  0  0  0  0  0  0
   59.5199   28.8559   45.6986 H   0  0  0  0  0  0  0  0  0  0  0  0
   57.8802   28.1165   43.9821 H   0  0  0  0  0  0  0  0  0  0  0  0
   56.2734   29.7390   43.0005 H   0  0  0  0  0  0  0  0  0  0  0  0
   56.3111   32.1245   43.6915 H   0  0  0  0  0  0  0  0  0  0  0  0
   56.5396   34.7470   45.7406 H   0  0  0  0  0  0  0  0  0  0  0  0
   57.6162   34.9080   44.3117 H   0  0  0  0  0  0  0  0  0  0  0  0
   56.3004   33.6851   44.3117 H   0  0  0  0  0  0  0  0  0  0  0  0
   58.6618   35.7679   46.8197 H   0  0  0  0  0  0  0  0  0  0  0  0
   60.6540   35.3292   48.5698 H   0  0  0  0  0  0  0  0  0  0  0  0
  1  2  1  0
  2  3  1  0
  3  4  1  0
  3  5  1  0
  5  6  1  0
  6  7  1  0
  7  8  1  0
  8  9  1  0
  9 10  2  0
 10 11  1  0
 11 12  2  0
 12 13  1  0
 13 14  2  0
 14 15  1  0
 15 16  2  0
 16 17  1  0
 16 18  1  0
 18 19  1  0
 19 20  2  0
 20 21  1  0
 21 22  1  0
 22  9  1  0
 15 10  1  0
 22 18  2  0
  1 23  1  0
  1 24  1  0
  1 25  1  0
  2 26  1  0
  2 27  1  0
  3 28  1  6
  4 29  1  0
  4 30  1  0
  4 31  1  0
  5 32  1  0
  5 33  1  0
  6 34  1  0
  6 35  1  0
  7 36  1  0
  7 37  1  0
  8 38  1  0
 11 39  1  0
 12 40  1  0
 13 41  1  0
 14 42  1  0
 17 43  1  0
 17 44  1  0
 17 45  1  0
 19 46  1  0
 20 47  1  0
M  CHG  2   3   1  16   1
M  END
>  <UniqueID>  (28) 
27

>  <SMILES>  (28) 
CC[N@H+](C)CCCNc1c2ccccc2[n+](C)c2ccoc12

>  <Energy>  (28) 
99.84858179227543

>  <Genealogy>  (28) 
CC[NH+](C)CCCNc1c2ccccc2[n+](C)c2ccoc12 (protonated)
CC[N@H+](C)CCCNc1c2ccccc2[n+](C)c2ccoc12 (chirality)
CC[N@H+](C)CCCNc1c2ccccc2[n+](C)c2ccoc12 (3D coordinates assigned)
CC[N@H+](C)CCCNc1c2ccccc2[n+](C)c2ccoc12 (optimized conformer: 99.84858179227543 kcal/mol)

>  <smiles>  (28) 
CCN(C)CCCNc1c2ccccc2[n+](C)c2ccoc12

>  <score_type>  (28) 
oracle

>  <origin>  (28) 
adg

>  <m_score__min__energy>  (28) 
-3.8500000000000001

>  <m_primary>  (28) 
energy

$$$$
28:0
     RDKit          3D

 44 46  0  0  0  0  0  0  0  0999 V2000
   63.0830   32.7300   47.3300 C   0  0  0  0  0  0  0  0  0  0  0  0
   62.2640   31.5910   47.9460 C   0  0  0  0  0  0  0  0  0  0  0  0
   62.3810   31.5400   49.4130 N   0  0  0  0  0  0  0  0  0  0  0  0
   61.1030   31.2020   50.0620 C   0  0  0  0  0  0  0  0  0  0  0  0
   60.2320   30.3470   49.1320 C   0  0  0  0  0  0  0  0  0  0  0  0
   59.0910   31.1180   48.6390 N   0  0  0  0  0  0  0  0  0  0  0  0
   58.9090   31.3860   47.2390 C   0  0  0  0  0  0  0  0  0  0  0  0
   59.1160   32.6810   46.7370 C   0  0  0  0  0  0  0  0  0  0  0  0
   59.5880   33.7140   47.5760 C   0  0  0  0  0  0  0  0  0  0  0  0
   59.8260   34.9890   47.0690 C   0  0  0  0  0  0  0  0  0  0  0  0
   59.6110   35.2530   45.7210 C   0  0  0  0  0  0  0  0  0  0  0  0
   59.1330   34.2520   44.8760 C   0  0  0  0  0  0  0  0  0  0  0  0
   58.8440   32.9540   45.3700 C   0  0  0  0  0  0  0  0  0  0  0  0
   58.3220   31.9650   44.5570 N   0  0  0  0  0  0  0  0  0  0  0  0
   57.7640   32.3140   43.2310 C   0  0  0  0  0  0  0  0  0  0  0  0
   58.3050   30.6510   44.9910 C   0  0  0  0  0  0  0  0  0  0  0  0
   58.0450   29.5750   44.1040 C   0  0  0  0  0  0  0  0  0  0  0  0
   58.0070   28.2590   44.5610 C   0  0  0  0  0  0  0  0  0  0  0  0
   58.2460   27.9740   45.9020 C   0  0  0  0  0  0  0  0  0  0  0  0
   58.2090   26.1660   46.5150 Br  0  0  0  0  0  0  0  0  0  0  0  0
   58.5400   29.0070   46.7900 C   0  0  0  0  0  0  0  0  0  0  0  0
   58.5760   30.3470   46.3520 C   0  0  0  0  0  0  0  0  0  0  0  0
   63.5224   33.3411   48.1322 H   0  0  0  0  0  0  0  0  0  0  0  0
   63.8865   32.3090   46.7078 H   0  0  0  0  0  0  0  0  0  0  0  0
   62.4281   33.3577   46.7078 H   0  0  0  0  0  0  0  0  0  0  0  0
   61.2060   31.7346   47.6815 H   0  0  0  0  0  0  0  0  0  0  0  0
   62.6565   30.6441   47.5469 H   0  0  0  0  0  0  0  0  0  0  0  0
   63.1160   30.8460   49.6880 H   0  0  0  0  0  0  0  0  0  0  0  0
   62.6860   32.4870   49.7410 H   0  0  0  0  0  0  0  0  0  0  0  0
   61.3047   30.6399   50.9858 H   0  0  0  0  0  0  0  0  0  0  0  0
   60.5658   32.1339   50.2920 H   0  0  0  0  0  0  0  0  0  0  0  0
   60.8377   30.0117   48.2772 H   0  0  0  0  0  0  0  0  0  0  0  0
   59.8563   29.4809   49.6965 H   0  0  0  0  0  0  0  0  0  0  0  0
   58.3580   31.4330   49.3140 H   0  0  0  0  0  0  0  0  0  0  0  0
   59.7696   33.5094   48.6414 H   0  0  0  0  0  0  0  0  0  0  0  0
   60.1842   35.7876   47.7353 H   0  0  0  0  0  0  0  0  0  0  0  0
   59.8188   36.2557   45.3194 H   0  0  0  0  0  0  0  0  0  0  0  0
   58.9776   34.4723   43.8096 H   0  0  0  0  0  0  0  0  0  0  0  0
   56.8382   32.8930   43.3636 H   0  0  0  0  0  0  0  0  0  0  0  0
   58.4958   32.9156   42.6720 H   0  0  0  0  0  0  0  0  0  0  0  0
   57.5433   31.3927   42.6720 H   0  0  0  0  0  0  0  0  0  0  0  0
   57.8705   29.7827   43.0380 H   0  0  0  0  0  0  0  0  0  0  0  0
   57.7871   27.4417   43.8584 H   0  0  0  0  0  0  0  0  0  0  0  0
   58.7464   28.7744   47.8451 H   0  0  0  0  0  0  0  0  0  0  0  0
  1  2  1  0
  2  3  1  0
  3  4  1  0
  4  5  1  0
  5  6  1  0
  6  7  1  0
  7  8  2  0
  8  9  1  0
  9 10  2  0
 10 11  1  0
 11 12  2  0
 12 13  1  0
 13 14  2  0
 14 15  1  0
 14 16  1  0
 16 17  2  0
 17 18  1  0
 18 19  2  0
 19 20  1  0
 19 21  1  0
 21 22  2  0
 22  7  1  0
 13  8  1  0
 22 16  1  0
  1 23  1  0
  1 24  1  0
  1 25  1  0
  2 26  1  0
  2 27  1  0
  3 28  1  0
  3 29  1  0
  4 30  1  0
  4 31  1  0
  5 32  1  0
  5 33  1  0
  6 34  1  0
  9 35  1  0
 10 36  1  0
 11 37  1  0
 12 38  1  0
 15 39  1  0
 15 40  1  0
 15 41  1  0
 17 42  1  0
 18 43  1  0
 21 44  1  0
M  CHG  2   3   1  14   1
M  END
>  <UniqueID>  (29) 
28

>  <SMILES>  (29) 
CC[NH2+]CCNc1c2ccccc2[n+](C)c2ccc(Br)cc12

>  <Energy>  (29) 
67.00256028670725

>  <Genealogy>  (29) 
CC[NH2+]CCNc1c2ccccc2[n+](C)c2ccc(Br)cc12 (protonated)
CC[NH2+]CCNc1c2ccccc2[n+](C)c2ccc(Br)cc12 (3D coordinates assigned)
CC[NH2+]CCNc1c2ccccc2[n+](C)c2ccc(Br)cc12 (optimized conformer: 67.00256028670725 kcal/mol)

>  <smiles>  (29) 
CCNCCNc1c2ccccc2[n+](C)c2ccc(Br)cc12

>  <score_type>  (29) 
oracle

>  <origin>  (29) 
adg

>  <m_score__min__energy>  (29) 
-4.7199999999999998

>  <m_primary>  (29) 
energy

$$$$
29:0
     RDKit          3D

 63 66  0  0  0  0  0  0  0  0999 V2000
   64.2050   30.4440   51.5210 C   0  0  0  0  0  0  0  0  0  0  0  0
   64.4040   31.9600   51.5890 C   0  0  0  0  0  0  0  0  0  0  0  0
   64.3450   32.5810   50.2370 N   0  0  0  0  0  0  0  0  0  0  0  0
   65.6540   33.0840   49.7490 C   0  0  0  0  0  0  0  0  0  0  0  0
   66.8150   32.4320   50.5010 C   0  0  0  0  0  0  0  0  0  0  0  0
   63.2110   32.6930   49.5300 C   0  0  0  0  0  0  0  0  0  0  0  0
   62.4940   33.9210   49.5700 C   0  0  0  0  0  0  0  0  0  0  0  0
   61.2950   34.3110   48.9730 C   0  0  0  0  0  0  0  0  0  0  0  0
   60.5060   33.6560   48.0420 C   0  0  0  0  0  0  0  0  0  0  0  0
   60.7570   32.4170   47.4730 C   0  0  0  0  0  0  0  0  0  0  0  0
   61.6960   31.4720   47.8790 C   0  0  0  0  0  0  0  0  0  0  0  0
   62.7470   31.5760   48.7860 C   0  0  0  0  0  0  0  0  0  0  0  0
   61.4760   30.3320   47.2550 O   0  0  0  0  0  0  0  0  0  0  0  0
   60.4560   30.4780   46.4530 C   0  0  0  0  0  0  0  0  0  0  0  0
   59.8800   29.4970   45.6500 C   0  0  0  0  0  0  0  0  0  0  0  0
   60.4190   28.1510   45.6580 N   0  0  0  0  0  0  0  0  0  0  0  0
   60.3930   27.5500   47.0030 C   0  0  0  0  0  0  0  0  0  0  0  0
   59.0540   26.8500   47.3120 C   0  0  0  0  0  0  0  0  0  0  0  0
   58.3210   26.5160   46.0720 N   0  0  0  0  0  0  0  0  0  0  0  0
   56.8630   26.5900   46.2760 C   0  0  0  0  0  0  0  0  0  0  0  0
   58.6780   25.1550   45.6370 C   0  0  0  0  0  0  0  0  0  0  0  0
   58.7300   29.8750   44.9010 C   0  0  0  0  0  0  0  0  0  0  0  0
   58.0200   28.9420   44.1140 C   0  0  0  0  0  0  0  0  0  0  0  0
   56.8820   29.3240   43.4090 C   0  0  0  0  0  0  0  0  0  0  0  0
   56.4190   30.6330   43.4770 C   0  0  0  0  0  0  0  0  0  0  0  0
   57.1030   31.5820   44.2360 C   0  0  0  0  0  0  0  0  0  0  0  0
   58.2820   31.2410   44.9400 C   0  0  0  0  0  0  0  0  0  0  0  0
   58.9890   32.1920   45.6620 N   0  0  0  0  0  0  0  0  0  0  0  0
   58.7710   33.6310   45.4300 C   0  0  0  0  0  0  0  0  0  0  0  0
   59.9860   31.7570   46.5010 C   0  0  0  0  0  0  0  0  0  0  0  0
   64.1513   30.0351   52.5408 H   0  0  0  0  0  0  0  0  0  0  0  0
   63.2698   30.2205   50.9867 H   0  0  0  0  0  0  0  0  0  0  0  0
   65.0508   29.9868   50.9867 H   0  0  0  0  0  0  0  0  0  0  0  0
   63.6133   32.3962   52.2171 H   0  0  0  0  0  0  0  0  0  0  0  0
   65.3983   32.1580   52.0158 H   0  0  0  0  0  0  0  0  0  0  0  0
   65.7484   32.8561   48.6770 H   0  0  0  0  0  0  0  0  0  0  0  0
   65.6949   34.1697   49.9211 H   0  0  0  0  0  0  0  0  0  0  0  0
   66.6487   32.5254   51.5843 H   0  0  0  0  0  0  0  0  0  0  0  0
   66.8759   31.3677   50.2298 H   0  0  0  0  0  0  0  0  0  0  0  0
   67.7555   32.9339   50.2298 H   0  0  0  0  0  0  0  0  0  0  0  0
   62.9699   34.7025   50.1806 H   0  0  0  0  0  0  0  0  0  0  0  0
   60.9166   35.2934   49.2919 H   0  0  0  0  0  0  0  0  0  0  0  0
   59.5880   34.1706   47.7219 H   0  0  0  0  0  0  0  0  0  0  0  0
   63.3074   30.6443   48.9530 H   0  0  0  0  0  0  0  0  0  0  0  0
   61.4020   28.1510   45.2970 H   0  0  0  0  0  0  0  0  0  0  0  0
   59.8830   27.5480   44.9940 H   0  0  0  0  0  0  0  0  0  0  0  0
   61.2029   26.8090   47.0739 H   0  0  0  0  0  0  0  0  0  0  0  0
   60.5220   28.3617   47.7340 H   0  0  0  0  0  0  0  0  0  0  0  0
   59.2549   25.9233   47.8696 H   0  0  0  0  0  0  0  0  0  0  0  0
   58.4336   27.5366   47.9066 H   0  0  0  0  0  0  0  0  0  0  0  0
   56.6437   26.6011   47.3539 H   0  0  0  0  0  0  0  0  0  0  0  0
   56.4742   27.5090   45.8132 H   0  0  0  0  0  0  0  0  0  0  0  0
   56.3831   25.7151   45.8132 H   0  0  0  0  0  0  0  0  0  0  0  0
   58.8446   24.5199   46.5195 H   0  0  0  0  0  0  0  0  0  0  0  0
   57.8593   24.7364   45.0333 H   0  0  0  0  0  0  0  0  0  0  0  0
   59.5968   25.1922   45.0333 H   0  0  0  0  0  0  0  0  0  0  0  0
   58.3703   27.9008   44.0573 H   0  0  0  0  0  0  0  0  0  0  0  0
   56.3460   28.5857   42.7945 H   0  0  0  0  0  0  0  0  0  0  0  0
   55.5093   30.9214   42.9298 H   0  0  0  0  0  0  0  0  0  0  0  0
   56.7200   32.6118   44.2882 H   0  0  0  0  0  0  0  0  0  0  0  0
   58.6923   34.1504   46.3964 H   0  0  0  0  0  0  0  0  0  0  0  0
   59.6170   34.0428   44.8602 H   0  0  0  0  0  0  0  0  0  0  0  0
   57.8410   33.7738   44.8602 H   0  0  0  0  0  0  0  0  0  0  0  0
  1  2  1  0
  2  3  1  0
  3  4  1  0
  4  5  1  0
  3  6  2  3
  6  7  1  0
  7  8  2  0
  8  9  1  0
  9 10  2  0
 10 11  1  0
 11 12  2  0
 11 13  1  0
 13 14  1  0
 14 15  2  0
 15 16  1  0
 16 17  1  0
 17 18  1  0
 18 19  1  0
 19 20  1  0
 19 21  1  0
 15 22  1  0
 22 23  2  0
 23 24  1  0
 24 25  2  0
 25 26  1  0
 26 27  2  0
 27 28  1  0
 28 29  1  0
 28 30  2  0
 12  6  1  0
 30 14  1  0
 30 10  1  0
 27 22  1  0
  1 31  1  0
  1 32  1  0
  1 33  1  0
  2 34  1  0
  2 35  1  0
  4 36  1  0
  4 37  1  0
  5 38  1  0
  5 39  1  0
  5 40  1  0
  7 41  1  0
  8 42  1  0
  9 43  1  0
 12 44  1  0
 16 45  1  0
 16 46  1  0
 17 47  1  0
 17 48  1  0
 18 49  1  0
 18 50  1  0
 20 51  1  0
 20 52  1  0
 20 53  1  0
 21 54  1  0
 21 55  1  0
 21 56  1  0
 23 57  1  0
 24 58  1  0
 25 59  1  0
 26 60  1  0
 29 61  1  0
 29 62  1  0
 29 63  1  0
M  CHG  3   3   1  16   1  28   1
M  END
>  <UniqueID>  (30) 
29

>  <SMILES>  (30) 
CC[N+](CC)=c1cccc2c(c1)oc1c([NH2+]CCN(C)C)c3ccccc3[n+](C)c12

>  <Energy>  (30) 
151.30098261748526

>  <Genealogy>  (30) 
CC[N+](CC)=c1cccc2c(c1)oc1c([NH2+]CCN(C)C)c3ccccc3[n+](C)c12 (protonated)
CC[N+](CC)=c1cccc2c(c1)oc1c([NH2+]CCN(C)C)c3ccccc3[n+](C)c12 (3D coordinates assigned)
CC[N+](CC)=c1cccc2c(c1)oc1c([NH2+]CCN(C)C)c3ccccc3[n+](C)c12 (optimized conformer: 151.30098261748526 kcal/mol)

>  <smiles>  (30) 
CC[N+](CC)=c1cccc2c(c1)oc1c(NCCN(C)C)c3ccccc3[n+](C)c12

>  <score_type>  (30) 
oracle

>  <origin>  (30) 
adg

>  <m_score__min__energy>  (30) 
-3.0499999999999998

>  <m_primary>  (30) 
energy

$$$$
30:0
     RDKit          3D

 57 59  0  0  0  0  0  0  0  0999 V2000
   60.2180   29.3980   52.0830 F   0  0  0  0  0  0  0  0  0  0  0  0
   60.8240   29.9050   50.9820 C   0  0  0  0  0  0  0  0  0  0  0  0
   61.9870   30.6570   51.1150 C   0  0  0  0  0  0  0  0  0  0  0  0
   62.6070   31.1910   49.9870 C   0  0  0  0  0  0  0  0  0  0  0  0
   62.0760   30.9780   48.7010 C   0  0  0  0  0  0  0  0  0  0  0  0
   62.8240   31.5700   47.5280 C   0  0  0  0  0  0  0  0  0  0  0  0
   63.6810   32.6730   47.9880 N   0  0  0  0  0  0  0  0  0  0  0  0
   63.0170   33.9760   47.8310 C   0  0  0  0  0  0  0  0  0  0  0  0
   61.9650   34.2110   48.9320 C   0  0  0  0  0  0  0  0  0  0  0  0
   60.6330   34.5720   48.3950 N   0  0  0  0  0  0  0  0  0  0  0  0
   60.0740   33.5540   47.4740 C   0  0  0  0  0  0  0  0  0  0  0  0
   58.5450   33.4280   47.6800 C   0  0  0  0  0  0  0  0  0  0  0  0
   57.8970   32.7610   46.4640 C   0  0  0  0  0  0  0  0  0  0  0  0
   58.0400   33.6020   45.2530 N   0  0  0  0  0  0  0  0  0  0  0  0
   57.7340   32.8930   43.9910 C   0  0  0  0  0  0  0  0  0  0  0  0
   57.5420   31.3990   44.1570 C   0  0  0  0  0  0  0  0  0  0  0  0
   58.6590   30.5530   44.2920 C   0  0  0  0  0  0  0  0  0  0  0  0
   58.4870   29.1750   44.4460 C   0  0  0  0  0  0  0  0  0  0  0  0
   57.2020   28.6280   44.4700 C   0  0  0  0  0  0  0  0  0  0  0  0
   56.0860   29.4600   44.3590 C   0  0  0  0  0  0  0  0  0  0  0  0
   56.2530   30.8420   44.2130 C   0  0  0  0  0  0  0  0  0  0  0  0
   59.2530   34.4570   45.2090 C   0  0  0  0  0  0  0  0  0  0  0  0
   60.4310   33.8520   45.9870 C   0  0  0  0  0  0  0  0  0  0  0  0
   60.8940   30.1940   48.5570 C   0  0  0  0  0  0  0  0  0  0  0  0
   60.2520   29.9460   47.2030 C   0  0  0  0  0  0  0  0  0  0  0  0
   58.8840   29.8150   47.3570 F   0  0  0  0  0  0  0  0  0  0  0  0
   60.5200   30.9950   46.3460 F   0  0  0  0  0  0  0  0  0  0  0  0
   60.7300   28.7890   46.6110 F   0  0  0  0  0  0  0  0  0  0  0  0
   60.2780   29.6780   49.7170 C   0  0  0  0  0  0  0  0  0  0  0  0
   62.4178   30.8303   52.1122 H   0  0  0  0  0  0  0  0  0  0  0  0
   63.5241   31.7872   50.1032 H   0  0  0  0  0  0  0  0  0  0  0  0
   63.4479   30.7925   47.0630 H   0  0  0  0  0  0  0  0  0  0  0  0
   62.1011   31.9543   46.7933 H   0  0  0  0  0  0  0  0  0  0  0  0
   64.5430   32.6810   47.3950 H   0  0  0  0  0  0  0  0  0  0  0  0
   63.7745   34.7718   47.8849 H   0  0  0  0  0  0  0  0  0  0  0  0
   62.5054   33.9871   46.8573 H   0  0  0  0  0  0  0  0  0  0  0  0
   61.8658   33.2892   49.5239 H   0  0  0  0  0  0  0  0  0  0  0  0
   62.3128   35.0571   49.5428 H   0  0  0  0  0  0  0  0  0  0  0  0
   60.7110   35.4820   47.8820 H   0  0  0  0  0  0  0  0  0  0  0  0
   59.9710   34.7360   49.1900 H   0  0  0  0  0  0  0  0  0  0  0  0
   60.5374   32.5864   47.7169 H   0  0  0  0  0  0  0  0  0  0  0  0
   58.3486   32.8194   48.5750 H   0  0  0  0  0  0  0  0  0  0  0  0
   58.1174   34.4336   47.8061 H   0  0  0  0  0  0  0  0  0  0  0  0
   58.3824   31.7900   46.2861 H   0  0  0  0  0  0  0  0  0  0  0  0
   56.8249   32.6263   46.6703 H   0  0  0  0  0  0  0  0  0  0  0  0
   56.8096   33.3165   43.5712 H   0  0  0  0  0  0  0  0  0  0  0  0
   58.6011   33.0318   43.3285 H   0  0  0  0  0  0  0  0  0  0  0  0
   59.6730   30.9792   44.2762 H   0  0  0  0  0  0  0  0  0  0  0  0
   59.3648   28.5200   44.5485 H   0  0  0  0  0  0  0  0  0  0  0  0
   57.0691   27.5413   44.5764 H   0  0  0  0  0  0  0  0  0  0  0  0
   55.0744   29.0288   44.3863 H   0  0  0  0  0  0  0  0  0  0  0  0
   55.3709   31.4953   44.1417 H   0  0  0  0  0  0  0  0  0  0  0  0
   59.5541   34.5874   44.1591 H   0  0  0  0  0  0  0  0  0  0  0  0
   59.0004   35.4179   45.6812 H   0  0  0  0  0  0  0  0  0  0  0  0
   60.7292   32.9116   45.5005 H   0  0  0  0  0  0  0  0  0  0  0  0
   61.2487   34.5877   45.9806 H   0  0  0  0  0  0  0  0  0  0  0  0
   59.3542   29.0883   49.6234 H   0  0  0  0  0  0  0  0  0  0  0  0
  1  2  1  0
  2  3  2  0
  3  4  1  0
  4  5  2  0
  5  6  1  0
  6  7  1  0
  7  8  1  0
  8  9  1  0
  9 10  1  0
 10 11  1  0
 11 12  1  0
 12 13  1  0
 13 14  1  0
 14 15  1  0
 15 16  1  0
 16 17  2  0
 17 18  1  0
 18 19  2  0
 19 20  1  0
 20 21  2  0
 14 22  1  0
 22 23  1  0
  5 24  1  0
 24 25  1  0
 25 26  1  0
 25 27  1  0
 25 28  1  0
 24 29  2  0
 29  2  1  0
 23 11  1  0
 21 16  1  0
  3 30  1  0
  4 31  1  0
  6 32  1  0
  6 33  1  0
  7 34  1  0
  8 35  1  0
  8 36  1  0
  9 37  1  0
  9 38  1  0
 10 39  1  0
 10 40  1  0
 11 41  1  0
 12 42  1  0
 12 43  1  0
 13 44  1  0
 13 45  1  0
 15 46  1  0
 15 47  1  0
 17 48  1  0
 18 49  1  0
 19 50  1  0
 20 51  1  0
 21 52  1  0
 22 53  1  0
 22 54  1  0
 23 55  1  0
 23 56  1  0
 29 57  1  0
M  CHG  1  10   1
M  END
>  <UniqueID>  (31) 
30

>  <SMILES>  (31) 
Fc1ccc(CNCC[NH2+]C2CCN(Cc3ccccc3)CC2)c(C(F)(F)F)c1

>  <Energy>  (31) 
71.57352610849472

>  <Genealogy>  (31) 
Fc1ccc(CNCC[NH2+]C2CCN(Cc3ccccc3)CC2)c(C(F)(F)F)c1 (protonated)
Fc1ccc(CNCC[NH2+]C2CCN(Cc3ccccc3)CC2)c(C(F)(F)F)c1 (3D coordinates assigned)
Fc1ccc(CNCC[NH2+]C2CCN(Cc3ccccc3)CC2)c(C(F)(F)F)c1 (nonaromatic ring conformer: 71.57352610849472 kcal/mol)

>  <smiles>  (31) 
Fc1ccc(CNCCNC2CCN(Cc3ccccc3)CC2)c(C(F)(F)F)c1

>  <score_type>  (31) 
oracle

>  <origin>  (31) 
adg

>  <m_score__min__energy>  (31) 
-6.3799999999999999

>  <m_primary>  (31) 
energy

$$$$
31:0
     RDKit          3D

 31 31  0  0  0  0  0  0  0  0999 V2000
   60.6520   28.9340   44.9150 C   0  0  0  0  0  0  0  0  0  0  0  0
   59.9630   27.7780   45.6540 C   0  0  0  0  0  0  0  0  0  0  0  0
   58.4820   27.8700   45.7020 N   0  0  0  0  0  0  0  0  0  0  0  0
   57.9140   27.0630   46.7940 C   0  0  0  0  0  0  0  0  0  0  0  0
   57.7990   27.5710   44.4220 C   0  0  0  0  0  0  0  0  0  0  0  0
   57.4220   28.8430   43.6420 C   0  0  0  0  0  0  0  0  0  0  0  0
   56.7630   29.8830   44.5150 C   0  0  0  0  0  0  0  0  0  0  0  0
   55.5710   29.7030   44.8890 O   0  0  0  0  0  0  0  0  0  0  0  0
   57.4640   31.1300   44.9110 C   0  0  0  0  0  0  0  0  0  0  0  0
   57.4430   32.2730   44.0900 C   0  0  0  0  0  0  0  0  0  0  0  0
   58.1090   33.4390   44.4810 C   0  0  0  0  0  0  0  0  0  0  0  0
   58.7970   33.4800   45.6970 C   0  0  0  0  0  0  0  0  0  0  0  0
   59.6320   34.9440   46.1850 Cl  0  0  0  0  0  0  0  0  0  0  0  0
   58.8160   32.3540   46.5250 C   0  0  0  0  0  0  0  0  0  0  0  0
   58.1510   31.1870   46.1380 C   0  0  0  0  0  0  0  0  0  0  0  0
   61.0721   29.6389   45.6476 H   0  0  0  0  0  0  0  0  0  0  0  0
   61.4603   28.5358   44.2840 H   0  0  0  0  0  0  0  0  0  0  0  0
   59.9173   29.4555   44.2840 H   0  0  0  0  0  0  0  0  0  0  0  0
   60.2321   26.8389   45.1485 H   0  0  0  0  0  0  0  0  0  0  0  0
   60.3119   27.8226   46.6963 H   0  0  0  0  0  0  0  0  0  0  0  0
   58.2154   27.4912   47.7614 H   0  0  0  0  0  0  0  0  0  0  0  0
   56.8166   27.0643   46.7184 H   0  0  0  0  0  0  0  0  0  0  0  0
   58.2855   26.0304   46.7184 H   0  0  0  0  0  0  0  0  0  0  0  0
   58.4696   26.9612   43.7988 H   0  0  0  0  0  0  0  0  0  0  0  0
   56.8672   27.0362   44.6582 H   0  0  0  0  0  0  0  0  0  0  0  0
   58.3361   29.2746   43.2082 H   0  0  0  0  0  0  0  0  0  0  0  0
   56.7009   28.5555   42.8627 H   0  0  0  0  0  0  0  0  0  0  0  0
   56.8990   32.2491   43.1342 H   0  0  0  0  0  0  0  0  0  0  0  0
   58.0913   34.3257   43.8302 H   0  0  0  0  0  0  0  0  0  0  0  0
   59.3554   32.3863   47.4831 H   0  0  0  0  0  0  0  0  0  0  0  0
   58.1647   30.3066   46.7974 H   0  0  0  0  0  0  0  0  0  0  0  0
  1  2  1  0
  2  3  1  0
  3  4  1  0
  3  5  1  0
  5  6  1  0
  6  7  1  0
  7  8  2  0
  7  9  1  0
  9 10  2  0
 10 11  1  0
 11 12  2  0
 12 13  1  0
 12 14  1  0
 14 15  2  0
 15  9  1  0
  1 16  1  0
  1 17  1  0
  1 18  1  0
  2 19  1  0
  2 20  1  0
  4 21  1  0
  4 22  1  0
  4 23  1  0
  5 24  1  0
  5 25  1  0
  6 26  1  0
  6 27  1  0
 10 28  1  0
 11 29  1  0
 14 30  1  0
 15 31  1  0
M  END
>  <UniqueID>  (32) 
31

>  <SMILES>  (32) 
CCN(C)CCC(=O)c1ccc(Cl)cc1

>  <Energy>  (32) 
32.29520224895964

>  <Genealogy>  (32) 
CCN(C)CCC(=O)c1ccc(Cl)cc1 (3D coordinates assigned)
CCN(C)CCC(=O)c1ccc(Cl)cc1 (optimized conformer: 32.29520224895964 kcal/mol)

>  <smiles>  (32) 
CCN(C)CCC(=O)c1ccc(Cl)cc1

>  <score_type>  (32) 
oracle

>  <origin>  (32) 
adg

>  <m_score__min__energy>  (32) 
-6.0499999999999998

>  <m_primary>  (32) 
energy

$$$$
32:0
     RDKit          3D

 43 45  0  0  0  0  0  0  0  0999 V2000
   57.1550   27.2350   43.3430 H   0  0  0  0  0  0  0  0  0  0  0  0
   57.9450   27.8070   43.7200 N   0  0  0  0  0  0  0  0  0  0  0  0
   57.7320   28.8810   44.4100 C   0  0  0  0  0  0  0  0  0  0  0  0
   58.4160   29.2580   45.5440 C   0  0  0  0  0  0  0  0  0  0  0  0
   59.2490   28.7400   46.0418 H   0  0  0  0  0  0  0  0  0  0  0  0
   57.8010   30.4510   45.9090 C   0  0  0  0  0  0  0  0  0  0  0  0
   58.1450   31.3110   47.0950 C   0  0  2  0  0  0  0  0  0  0  0  0
   57.2213   31.5103   47.6580 H   0  0  0  0  0  0  0  0  0  0  0  0
   58.6950   32.6510   46.6370 C   0  0  0  0  0  0  0  0  0  0  0  0
   59.0790   33.6080   47.5950 C   0  0  0  0  0  0  0  0  0  0  0  0
   59.0001   33.3700   48.6660 H   0  0  0  0  0  0  0  0  0  0  0  0
   59.5600   34.8590   47.1960 C   0  0  0  0  0  0  0  0  0  0  0  0
   59.8648   35.5969   47.9527 H   0  0  0  0  0  0  0  0  0  0  0  0
   59.6540   35.1730   45.8390 C   0  0  0  0  0  0  0  0  0  0  0  0
   60.0354   36.1565   45.5272 H   0  0  0  0  0  0  0  0  0  0  0  0
   59.2640   34.2390   44.8780 C   0  0  0  0  0  0  0  0  0  0  0  0
   59.3358   34.4888   43.8091 H   0  0  0  0  0  0  0  0  0  0  0  0
   58.7820   32.9860   45.2710 C   0  0  0  0  0  0  0  0  0  0  0  0
   58.4688   32.2574   44.5087 H   0  0  0  0  0  0  0  0  0  0  0  0
   59.0870   30.5850   48.0740 C   0  0  0  0  0  0  0  0  0  0  0  0
   59.2071   31.1927   48.9830 H   0  0  0  0  0  0  0  0  0  0  0  0
   58.6551   29.6075   48.3347 H   0  0  0  0  0  0  0  0  0  0  0  0
   60.3550   30.3890   47.4680 O   0  0  0  0  0  0  0  0  0  0  0  0
   61.4080   30.5030   48.4060 C   0  0  0  0  0  0  0  0  0  0  0  0
   60.9882   30.4852   49.4226 H   0  0  0  0  0  0  0  0  0  0  0  0
   62.1003   29.6605   48.2612 H   0  0  0  0  0  0  0  0  0  0  0  0
   62.1690   31.7920   48.2080 C   0  0  0  0  0  0  0  0  0  0  0  0
   63.0530   31.9160   47.1220 C   0  0  0  0  0  0  0  0  0  0  0  0
   63.1941   31.0699   46.4334 H   0  0  0  0  0  0  0  0  0  0  0  0
   63.7540   33.1070   46.9110 C   0  0  0  0  0  0  0  0  0  0  0  0
   64.4440   33.1949   46.0589 H   0  0  0  0  0  0  0  0  0  0  0  0
   63.5790   34.1850   47.7810 C   0  0  0  0  0  0  0  0  0  0  0  0
   64.1319   35.1213   47.6144 H   0  0  0  0  0  0  0  0  0  0  0  0
   62.7020   34.0750   48.8630 C   0  0  0  0  0  0  0  0  0  0  0  0
   62.5673   34.9262   49.5466 H   0  0  0  0  0  0  0  0  0  0  0  0
   61.9940   32.8880   49.0820 C   0  0  0  0  0  0  0  0  0  0  0  0
   60.8990   32.8060   50.4590 Cl  0  0  0  0  0  0  0  0  0  0  0  0
   56.8170   30.7520   45.0330 N   0  0  0  0  0  0  0  0  0  0  0  0
   56.7880   29.7940   44.1200 N   0  0  0  0  0  0  0  0  0  0  0  0
   55.8260   29.7410   43.0260 C   0  0  0  0  0  0  0  0  0  0  0  0
   54.8069   29.6849   43.4363 H   0  0  0  0  0  0  0  0  0  0  0  0
   55.9232   30.6459   42.4081 H   0  0  0  0  0  0  0  0  0  0  0  0
   56.0220   28.8523   42.4081 H   0  0  0  0  0  0  0  0  0  0  0  0
  1  2  1  0
  2  3  2  0
  3  4  1  0
  4  5  1  0
  4  6  2  0
  6  7  1  0
  7  8  1  1
  7  9  1  0
  9 10  2  0
 10 11  1  0
 10 12  1  0
 12 13  1  0
 12 14  2  0
 14 15  1  0
 14 16  1  0
 16 17  1  0
 16 18  2  0
 18 19  1  0
  7 20  1  0
 20 21  1  0
 20 22  1  0
 20 23  1  0
 23 24  1  0
 24 25  1  0
 24 26  1  0
 24 27  1  0
 27 28  2  0
 28 29  1  0
 28 30  1  0
 30 31  1  0
 30 32  2  0
 32 33  1  0
 32 34  1  0
 34 35  1  0
 34 36  2  0
 36 37  1  0
  6 38  1  0
 38 39  1  0
 39 40  1  0
 40 41  1  0
 40 42  1  0
 40 43  1  0
 39  3  1  0
 18  9  1  0
 36 27  1  0
M  CHG  1  38  -1
M  END
>  <UniqueID>  (33) 
32

>  <SMILES>  (33) 
[H]/N=c1\cc([C@@H](COCc2ccccc2Cl)c2ccccc2)[n-]n1C

>  <Energy>  (33) 
79.08897648217345

>  <Genealogy>  (33) 
Cn1[n-]c(C(COCc2ccccc2Cl)c2ccccc2)cc1=N (protonated)
Cn1[n-]c([C@@H](COCc2ccccc2Cl)c2ccccc2)cc1=N (chirality)
[H]/N=c1\cc([C@@H](COCc2ccccc2Cl)c2ccccc2)[n-]n1C (cis-trans isomerization)
[H]/N=c1\cc([C@@H](COCc2ccccc2Cl)c2ccccc2)[n-]n1C (3D coordinates assigned)
[H]/N=c1\cc([C@@H](COCc2ccccc2Cl)c2ccccc2)[n-]n1C (optimized conformer: 79.08897648217345 kcal/mol)

>  <smiles>  (33) 
Cn1[nH]c(C(COCc2ccccc2Cl)c2ccccc2)cc1=N

>  <score_type>  (33) 
oracle

>  <origin>  (33) 
adg

>  <m_score__min__energy>  (33) 
-9.0700000000000003

>  <m_primary>  (33) 
energy

$$$$
