0:0
     RDKit          3D

 54 56  0  0  0  0  0  0  0  0999 V2000
   58.7060   31.8910   49.7090 C   0  0  0  0  0  0  0  0  0  0  0  0
   59.1690   30.6710   50.4990 C   0  0  0  0  0  0  0  0  0  0  0  0
   59.7260   29.6520   49.5980 N   0  0  0  0  0  0  0  0  0  0  0  0
   60.7570   28.8470   50.2650 C   0  0  0  0  0  0  0  0  0  0  0  0
   60.7650   27.4250   49.6910 C   0  0  0  0  0  0  0  0  0  0  0  0
   60.0650   27.3730   48.4640 O   0  0  0  0  0  0  0  0  0  0  0  0
   60.7780   26.6450   47.4790 C   0  0  0  0  0  0  0  0  0  0  0  0
   60.3570   27.1360   46.0940 C   0  0  0  0  0  0  0  0  0  0  0  0
   60.6790   28.6290   45.9080 C   0  0  0  0  0  0  0  0  0  0  0  0
   60.3300   29.4320   47.0950 N   0  0  0  0  0  0  0  0  0  0  0  0
   60.3240   30.8630   46.8110 C   0  0  0  0  0  0  0  0  0  0  0  0
   61.3470   31.7230   47.3090 C   0  0  0  0  0  0  0  0  0  0  0  0
   62.4240   31.2450   48.1020 C   0  0  0  0  0  0  0  0  0  0  0  0
   63.4520   32.0870   48.5130 C   0  0  0  0  0  0  0  0  0  0  0  0
   63.4480   33.4210   48.1430 C   0  0  0  0  0  0  0  0  0  0  0  0
   62.3910   33.9340   47.3990 C   0  0  0  0  0  0  0  0  0  0  0  0
   61.2990   33.1160   47.0080 C   0  0  0  0  0  0  0  0  0  0  0  0
   60.2170   33.6490   46.3410 N   0  0  0  0  0  0  0  0  0  0  0  0
   60.0080   35.1160   46.3270 C   0  0  0  0  0  0  0  0  0  0  0  0
   59.3050   32.8220   45.7210 C   0  0  0  0  0  0  0  0  0  0  0  0
   58.3550   33.3370   44.8020 C   0  0  0  0  0  0  0  0  0  0  0  0
   57.3840   32.5200   44.2320 C   0  0  0  0  0  0  0  0  0  0  0  0
   57.3350   31.1710   44.5500 C   0  0  0  0  0  0  0  0  0  0  0  0
   55.9810   30.0610   43.7850 Br  0  0  0  0  0  0  0  0  0  0  0  0
   58.2850   30.6240   45.4110 C   0  0  0  0  0  0  0  0  0  0  0  0
   59.3080   31.4230   45.9860 C   0  0  0  0  0  0  0  0  0  0  0  0
   58.4041   32.6864   50.4063 H   0  0  0  0  0  0  0  0  0  0  0  0
   59.5297   32.2519   49.0755 H   0  0  0  0  0  0  0  0  0  0  0  0
   57.8503   31.6145   49.0755 H   0  0  0  0  0  0  0  0  0  0  0  0
   59.9419   30.9784   51.2188 H   0  0  0  0  0  0  0  0  0  0  0  0
   58.3051   30.2424   51.0281 H   0  0  0  0  0  0  0  0  0  0  0  0
   58.9470   29.0080   49.3270 H   0  0  0  0  0  0  0  0  0  0  0  0
   61.7416   29.3103   50.1041 H   0  0  0  0  0  0  0  0  0  0  0  0
   60.5381   28.8004   51.3420 H   0  0  0  0  0  0  0  0  0  0  0  0
   61.8056   27.1090   49.5258 H   0  0  0  0  0  0  0  0  0  0  0  0
   60.2691   26.7537   50.4075 H   0  0  0  0  0  0  0  0  0  0  0  0
   61.8582   26.8032   47.6136 H   0  0  0  0  0  0  0  0  0  0  0  0
   60.5550   25.5722   47.5762 H   0  0  0  0  0  0  0  0  0  0  0  0
   60.8944   26.5557   45.3295 H   0  0  0  0  0  0  0  0  0  0  0  0
   59.2701   27.0002   45.9933 H   0  0  0  0  0  0  0  0  0  0  0  0
   61.7563   28.7364   45.7132 H   0  0  0  0  0  0  0  0  0  0  0  0
   60.0778   28.9990   45.0644 H   0  0  0  0  0  0  0  0  0  0  0  0
   59.4410   29.0840   47.5100 H   0  0  0  0  0  0  0  0  0  0  0  0
   61.0090   29.2260   47.8620 H   0  0  0  0  0  0  0  0  0  0  0  0
   62.4456   30.1857   48.3976 H   0  0  0  0  0  0  0  0  0  0  0  0
   64.2700   31.6920   49.1334 H   0  0  0  0  0  0  0  0  0  0  0  0
   64.2814   34.0756   48.4377 H   0  0  0  0  0  0  0  0  0  0  0  0
   62.4015   34.9947   47.1078 H   0  0  0  0  0  0  0  0  0  0  0  0
   59.9549   35.4887   47.3606 H   0  0  0  0  0  0  0  0  0  0  0  0
   60.8461   35.6008   45.8050 H   0  0  0  0  0  0  0  0  0  0  0  0
   59.0678   35.3475   45.8050 H   0  0  0  0  0  0  0  0  0  0  0  0
   58.3868   34.4036   44.5348 H   0  0  0  0  0  0  0  0  0  0  0  0
   56.6536   32.9448   43.5277 H   0  0  0  0  0  0  0  0  0  0  0  0
   58.2411   29.5511   45.6499 H   0  0  0  0  0  0  0  0  0  0  0  0
  1  2  1  0
  2  3  1  0
  3  4  1  0
  4  5  1  0
  5  6  1  0
  6  7  1  0
  7  8  1  0
  8  9  1  0
  9 10  1  0
 10 11  1  0
 11 12  2  0
 12 13  1  0
 13 14  2  0
 14 15  1  0
 15 16  2  0
 16 17  1  0
 17 18  2  0
 18 19  1  0
 18 20  1  0
 20 21  2  0
 21 22  1  0
 22 23  2  0
 23 24  1  0
 23 25  1  0
 25 26  2  0
 26 11  1  0
 17 12  1  0
 26 20  1  0
  1 27  1  0
  1 28  1  0
  1 29  1  0
  2 30  1  0
  2 31  1  0
  3 32  1  0
  4 33  1  0
  4 34  1  0
  5 35  1  0
  5 36  1  0
  7 37  1  0
  7 38  1  0
  8 39  1  0
  8 40  1  0
  9 41  1  0
  9 42  1  0
 10 43  1  0
 10 44  1  0
 13 45  1  0
 14 46  1  0
 15 47  1  0
 16 48  1  0
 19 49  1  0
 19 50  1  0
 19 51  1  0
 21 52  1  0
 22 53  1  0
 25 54  1  0
M  CHG  2  10   1  18   1
M  END
>  <UniqueID>  (1) 
1

>  <SMILES>  (1) 
CCNCCOCCC[NH2+]c1c2ccccc2[n+](C)c2ccc(Br)cc12

>  <Energy>  (1) 
78.65623499521404

>  <Genealogy>  (1) 
CCNCCOCCC[NH2+]c1c2ccccc2[n+](C)c2ccc(Br)cc12 (protonated)
CCNCCOCCC[NH2+]c1c2ccccc2[n+](C)c2ccc(Br)cc12 (3D coordinates assigned)
CCNCCOCCC[NH2+]c1c2ccccc2[n+](C)c2ccc(Br)cc12 (optimized conformer: 78.65623499521404 kcal/mol)

>  <smiles>  (1) 
CCNCCOCCCNc1c2ccccc2[n+](C)c2ccc(Br)cc12

>  <score_type>  (1) 
oracle

>  <origin>  (1) 
adg

>  <m_score__min__energy>  (1) 
-3.8100000000000001

>  <m_primary>  (1) 
energy

$$$$
1:0
     RDKit          3D

 50 52  0  0  0  0  0  0  0  0999 V2000
   60.8510   34.2590   49.1250 C   0  0  0  0  0  0  0  0  0  0  0  0
   62.3530   34.0800   48.9140 C   0  0  0  0  0  0  0  0  0  0  0  0
   62.6190   32.9830   47.9590 N   0  0  0  0  0  0  0  0  0  0  0  0
   63.2880   33.4610   46.7350 C   0  0  0  0  0  0  0  0  0  0  0  0
   63.3340   31.8440   48.5810 C   0  0  0  0  0  0  0  0  0  0  0  0
   62.6450   31.2800   49.8410 C   0  0  0  0  0  0  0  0  0  0  0  0
   61.6620   30.3340   49.4650 O   0  0  0  0  0  0  0  0  0  0  0  0
   60.4240   30.6310   50.0800 C   0  0  0  0  0  0  0  0  0  0  0  0
   59.4990   31.2940   49.0620 C   0  0  0  0  0  0  0  0  0  0  0  0
   60.1410   31.3890   47.7510 N   0  0  0  0  0  0  0  0  0  0  0  0
   59.3780   31.2240   46.5470 C   0  0  0  0  0  0  0  0  0  0  0  0
   59.1890   29.9540   45.9620 C   0  0  0  0  0  0  0  0  0  0  0  0
   59.7180   28.7970   46.5670 C   0  0  0  0  0  0  0  0  0  0  0  0
   59.5640   27.5500   45.9690 C   0  0  0  0  0  0  0  0  0  0  0  0
   58.8880   27.4330   44.7590 C   0  0  0  0  0  0  0  0  0  0  0  0
   58.3390   28.5600   44.1460 C   0  0  0  0  0  0  0  0  0  0  0  0
   58.4480   29.8420   44.7410 C   0  0  0  0  0  0  0  0  0  0  0  0
   57.8730   30.9660   44.1630 N   0  0  0  0  0  0  0  0  0  0  0  0
   56.9920   30.8470   42.9830 C   0  0  0  0  0  0  0  0  0  0  0  0
   58.1440   32.2030   44.7010 C   0  0  0  0  0  0  0  0  0  0  0  0
   57.7850   33.4550   44.1550 C   0  0  0  0  0  0  0  0  0  0  0  0
   58.2180   34.5340   44.9190 C   0  0  0  0  0  0  0  0  0  0  0  0
   59.0580   33.9530   46.2570 S   0  0  0  0  0  0  0  0  0  0  0  0
   58.8660   32.3270   45.8780 C   0  0  0  0  0  0  0  0  0  0  0  0
   60.6327   34.2850   50.2028 H   0  0  0  0  0  0  0  0  0  0  0  0
   60.5255   35.2023   48.6621 H   0  0  0  0  0  0  0  0  0  0  0  0
   60.3130   33.4186   48.6621 H   0  0  0  0  0  0  0  0  0  0  0  0
   62.7759   35.0147   48.5173 H   0  0  0  0  0  0  0  0  0  0  0  0
   62.8186   33.8300   49.8788 H   0  0  0  0  0  0  0  0  0  0  0  0
   64.1548   34.0803   47.0089 H   0  0  0  0  0  0  0  0  0  0  0  0
   63.6263   32.5988   46.1415 H   0  0  0  0  0  0  0  0  0  0  0  0
   62.5820   34.0604   46.1415 H   0  0  0  0  0  0  0  0  0  0  0  0
   63.4098   31.0364   47.8380 H   0  0  0  0  0  0  0  0  0  0  0  0
   64.3167   32.2221   48.8993 H   0  0  0  0  0  0  0  0  0  0  0  0
   63.3955   30.7927   50.4808 H   0  0  0  0  0  0  0  0  0  0  0  0
   62.1664   32.1023   50.3930 H   0  0  0  0  0  0  0  0  0  0  0  0
   59.9627   29.7013   50.4444 H   0  0  0  0  0  0  0  0  0  0  0  0
   60.5884   31.3136   50.9268 H   0  0  0  0  0  0  0  0  0  0  0  0
   58.5798   30.6970   48.9695 H   0  0  0  0  0  0  0  0  0  0  0  0
   59.2660   32.3106   49.4116 H   0  0  0  0  0  0  0  0  0  0  0  0
   61.1840   31.3930   47.6790 H   0  0  0  0  0  0  0  0  0  0  0  0
   60.2582   28.8801   47.5216 H   0  0  0  0  0  0  0  0  0  0  0  0
   59.9781   26.6541   46.4546 H   0  0  0  0  0  0  0  0  0  0  0  0
   58.7856   26.4468   44.2827 H   0  0  0  0  0  0  0  0  0  0  0  0
   57.8133   28.4518   43.1858 H   0  0  0  0  0  0  0  0  0  0  0  0
   55.9525   30.7066   43.3142 H   0  0  0  0  0  0  0  0  0  0  0  0
   57.0636   31.7630   42.3781 H   0  0  0  0  0  0  0  0  0  0  0  0
   57.3040   29.9828   42.3781 H   0  0  0  0  0  0  0  0  0  0  0  0
   57.2190   33.5660   43.2183 H   0  0  0  0  0  0  0  0  0  0  0  0
   58.0403   35.5944   44.6865 H   0  0  0  0  0  0  0  0  0  0  0  0
  1  2  1  0
  2  3  1  0
  3  4  1  0
  3  5  1  0
  5  6  1  0
  6  7  1  0
  7  8  1  0
  8  9  1  0
  9 10  1  0
 10 11  1  0
 11 12  2  0
 12 13  1  0
 13 14  2  0
 14 15  1  0
 15 16  2  0
 16 17  1  0
 17 18  2  0
 18 19  1  0
 18 20  1  0
 20 21  1  0
 21 22  2  0
 22 23  1  0
 23 24  1  0
 24 11  1  0
 17 12  1  0
 24 20  2  0
  1 25  1  0
  1 26  1  0
  1 27  1  0
  2 28  1  0
  2 29  1  0
  4 30  1  0
  4 31  1  0
  4 32  1  0
  5 33  1  0
  5 34  1  0
  6 35  1  0
  6 36  1  0
  8 37  1  0
  8 38  1  0
  9 39  1  0
  9 40  1  0
 10 41  1  0
 13 42  1  0
 14 43  1  0
 15 44  1  0
 16 45  1  0
 19 46  1  0
 19 47  1  0
 19 48  1  0
 21 49  1  0
 22 50  1  0
M  CHG  1  18   1
M  END
>  <UniqueID>  (2) 
2

>  <SMILES>  (2) 
CCN(C)CCOCCNc1c2ccccc2[n+](C)c2ccsc12

>  <Energy>  (2) 
99.40898703941095

>  <Genealogy>  (2) 
CCN(C)CCOCCNc1c2ccccc2[n+](C)c2ccsc12 (3D coordinates assigned)
CCN(C)CCOCCNc1c2ccccc2[n+](C)c2ccsc12 (optimized conformer: 99.40898703941095 kcal/mol)

>  <smiles>  (2) 
CCN(C)CCOCCNc1c2ccccc2[n+](C)c2ccsc12

>  <score_type>  (2) 
oracle

>  <origin>  (2) 
adg

>  <m_score__min__energy>  (2) 
-4.8499999999999996

>  <m_primary>  (2) 
energy

$$$$
2:0
     RDKit          3D

 52 55  0  0  0  0  0  0  0  0999 V2000
   59.1890   34.1600   46.0880 C   0  0  0  0  0  0  0  0  0  0  0  0
   59.7000   33.8450   47.4890 C   0  0  0  0  0  0  0  0  0  0  0  0
   61.1210   34.2030   47.5910 N   0  0  0  0  0  0  0  0  0  0  0  0
   61.8730   33.8520   46.3760 C   0  0  0  0  0  0  0  0  0  0  0  0
   63.3930   33.9010   46.5900 C   0  0  0  0  0  0  0  0  0  0  0  0
   63.8780   32.6010   47.0500 N   0  0  0  0  0  0  0  0  0  0  0  0
   63.3470   31.9940   48.2400 C   0  0  0  0  0  0  0  0  0  0  0  0
   63.9980   32.1740   49.4730 C   0  0  0  0  0  0  0  0  0  0  0  0
   65.2280   32.8620   49.5470 C   0  0  0  0  0  0  0  0  0  0  0  0
   65.8940   33.0010   50.7610 C   0  0  0  0  0  0  0  0  0  0  0  0
   65.3600   32.4410   51.9150 C   0  0  0  0  0  0  0  0  0  0  0  0
   64.1490   31.7530   51.8670 C   0  0  0  0  0  0  0  0  0  0  0  0
   63.4260   31.6280   50.6530 C   0  0  0  0  0  0  0  0  0  0  0  0
   62.2080   30.9750   50.5940 N   0  0  0  0  0  0  0  0  0  0  0  0
   61.4720   30.6750   51.8430 C   0  0  0  0  0  0  0  0  0  0  0  0
   61.6670   30.6280   49.3700 C   0  0  0  0  0  0  0  0  0  0  0  0
   60.5750   29.7290   49.2690 C   0  0  0  0  0  0  0  0  0  0  0  0
   59.9860   29.4360   48.0330 C   0  0  0  0  0  0  0  0  0  0  0  0
   58.8890   28.5630   47.9540 C   0  0  0  0  0  0  0  0  0  0  0  0
   58.2990   28.2830   46.7200 C   0  0  0  0  0  0  0  0  0  0  0  0
   58.8030   28.8620   45.5450 C   0  0  0  0  0  0  0  0  0  0  0  0
   58.1430   28.5880   44.2250 C   0  0  0  0  0  0  0  0  0  0  0  0
   56.6630   29.8100   43.9680 Br  0  0  0  0  0  0  0  0  0  0  0  0
   59.8920   29.7420   45.6210 C   0  0  0  0  0  0  0  0  0  0  0  0
   60.4910   30.0270   46.8590 C   0  0  0  0  0  0  0  0  0  0  0  0
   61.5950   30.8810   46.9350 C   0  0  0  0  0  0  0  0  0  0  0  0
   62.2080   31.1690   48.1730 C   0  0  0  0  0  0  0  0  0  0  0  0
   58.2546   34.7360   46.1594 H   0  0  0  0  0  0  0  0  0  0  0  0
   59.9431   34.7502   45.5467 H   0  0  0  0  0  0  0  0  0  0  0  0
   59.0005   33.2211   45.5467 H   0  0  0  0  0  0  0  0  0  0  0  0
   59.1237   34.4227   48.2267 H   0  0  0  0  0  0  0  0  0  0  0  0
   59.5807   32.7695   47.6865 H   0  0  0  0  0  0  0  0  0  0  0  0
   61.5410   33.7120   48.4140 H   0  0  0  0  0  0  0  0  0  0  0  0
   61.5926   32.8334   46.0696 H   0  0  0  0  0  0  0  0  0  0  0  0
   61.6206   34.5914   45.6016 H   0  0  0  0  0  0  0  0  0  0  0  0
   63.8859   34.1580   45.6408 H   0  0  0  0  0  0  0  0  0  0  0  0
   63.6251   34.6613   47.3503 H   0  0  0  0  0  0  0  0  0  0  0  0
   64.4160   32.0090   46.3770 H   0  0  0  0  0  0  0  0  0  0  0  0
   65.6653   33.2934   48.6345 H   0  0  0  0  0  0  0  0  0  0  0  0
   66.8435   33.5544   50.8070 H   0  0  0  0  0  0  0  0  0  0  0  0
   65.8954   32.5411   52.8707 H   0  0  0  0  0  0  0  0  0  0  0  0
   63.7474   31.2996   52.7852 H   0  0  0  0  0  0  0  0  0  0  0  0
   62.1000   30.9310   52.7091 H   0  0  0  0  0  0  0  0  0  0  0  0
   60.5456   31.2673   51.8740 H   0  0  0  0  0  0  0  0  0  0  0  0
   61.2236   29.6039   51.8740 H   0  0  0  0  0  0  0  0  0  0  0  0
   60.1829   29.2524   50.1796 H   0  0  0  0  0  0  0  0  0  0  0  0
   58.4927   28.0976   48.8685 H   0  0  0  0  0  0  0  0  0  0  0  0
   57.4344   27.6049   46.6684 H   0  0  0  0  0  0  0  0  0  0  0  0
   58.8747   28.7247   43.4151 H   0  0  0  0  0  0  0  0  0  0  0  0
   57.7675   27.5541   44.2135 H   0  0  0  0  0  0  0  0  0  0  0  0
   60.2797   30.2121   44.7052 H   0  0  0  0  0  0  0  0  0  0  0  0
   61.9921   31.3356   46.0154 H   0  0  0  0  0  0  0  0  0  0  0  0
  1  2  1  0
  2  3  1  0
  3  4  1  0
  4  5  1  0
  5  6  1  0
  6  7  1  0
  7  8  2  0
  8  9  1  0
  9 10  2  0
 10 11  1  0
 11 12  2  0
 12 13  1  0
 13 14  2  0
 14 15  1  0
 14 16  1  0
 16 17  2  0
 17 18  1  0
 18 19  2  0
 19 20  1  0
 20 21  2  0
 21 22  1  0
 22 23  1  0
 21 24  1  0
 24 25  2  0
 25 26  1  0
 26 27  2  0
 27  7  1  0
 13  8  1  0
 27 16  1  0
 25 18  1  0
  1 28  1  0
  1 29  1  0
  1 30  1  0
  2 31  1  0
  2 32  1  0
  3 33  1  0
  4 34  1  0
  4 35  1  0
  5 36  1  0
  5 37  1  0
  6 38  1  0
  9 39  1  0
 10 40  1  0
 11 41  1  0
 12 42  1  0
 15 43  1  0
 15 44  1  0
 15 45  1  0
 17 46  1  0
 19 47  1  0
 20 48  1  0
 22 49  1  0
 22 50  1  0
 24 51  1  0
 26 52  1  0
M  CHG  1  14   1
M  END
>  <UniqueID>  (3) 
3

>  <SMILES>  (3) 
CCNCCNc1c2ccccc2[n+](C)c2cc3ccc(CBr)cc3cc12

>  <Energy>  (3) 
78.93294196909746

>  <Genealogy>  (3) 
CCNCCNc1c2ccccc2[n+](C)c2cc3ccc(CBr)cc3cc12 (3D coordinates assigned)
CCNCCNc1c2ccccc2[n+](C)c2cc3ccc(CBr)cc3cc12 (optimized conformer: 78.93294196909746 kcal/mol)

>  <smiles>  (3) 
CCNCCNc1c2ccccc2[n+](C)c2cc3ccc(CBr)cc3cc12

>  <score_type>  (3) 
oracle

>  <origin>  (3) 
adg

>  <m_score__min__energy>  (3) 
-6.7300000000000004

>  <m_primary>  (3) 
energy

$$$$
3:0
     RDKit          3D

 62 64  0  0  0  0  0  0  0  0999 V2000
   60.9860   30.4490   50.4880 H   0  0  0  0  0  0  0  0  0  0  0  0
   60.6550   29.7860   49.8270 O   0  0  0  0  0  0  0  0  0  0  0  0
   59.2540   29.8130   49.8980 C   0  0  0  0  0  0  0  0  0  0  0  0
   58.9230   29.1934   50.7444 H   0  0  0  0  0  0  0  0  0  0  0  0
   58.8437   29.4208   48.9558 H   0  0  0  0  0  0  0  0  0  0  0  0
   58.7530   31.2420   50.0960 C   0  0  0  0  0  0  0  0  0  0  0  0
   58.3709   31.3561   51.1212 H   0  0  0  0  0  0  0  0  0  0  0  0
   57.9481   31.4475   49.3750 H   0  0  0  0  0  0  0  0  0  0  0  0
   59.8350   32.1750   49.8810 N   0  0  0  0  0  0  0  0  0  0  0  0
   59.7940   33.4430   50.1280 C   0  0  0  0  0  0  0  0  0  0  0  0
   59.6199   33.7538   51.1687 H   0  0  0  0  0  0  0  0  0  0  0  0
   59.9680   34.5330   49.0900 C   0  0  0  0  0  0  0  0  0  0  0  0
   60.6460   35.2951   49.5019 H   0  0  0  0  0  0  0  0  0  0  0  0
   58.9627   34.9242   48.8745 H   0  0  0  0  0  0  0  0  0  0  0  0
   60.5210   34.0700   47.8090 N   0  0  0  0  0  0  0  0  0  0  0  0
   61.4870   33.6850   47.8610 H   0  0  0  0  0  0  0  0  0  0  0  0
   59.7610   33.7350   46.6360 C   0  0  0  0  0  0  0  0  0  0  0  0
   59.1570   34.8040   45.9560 C   0  0  0  0  0  0  0  0  0  0  0  0
   59.3427   35.8333   46.2967 H   0  0  0  0  0  0  0  0  0  0  0  0
   58.3360   34.5900   44.8700 C   0  0  0  0  0  0  0  0  0  0  0  0
   57.9363   35.4451   44.3052 H   0  0  0  0  0  0  0  0  0  0  0  0
   58.0160   33.3030   44.4920 C   0  0  0  0  0  0  0  0  0  0  0  0
   57.3601   33.1463   43.6230 H   0  0  0  0  0  0  0  0  0  0  0  0
   58.5110   32.1790   45.1950 C   0  0  0  0  0  0  0  0  0  0  0  0
   59.4890   32.3710   46.2290 C   0  0  0  0  0  0  0  0  0  0  0  0
   60.1370   31.1950   46.7650 C   0  0  0  0  0  0  0  0  0  0  0  0
   61.1980   31.2700   47.7600 N   0  0  0  0  0  0  0  0  0  0  0  0
   61.1480   30.5140   48.4600 H   0  0  0  0  0  0  0  0  0  0  0  0
   61.0610   32.1050   48.3700 H   0  0  0  0  0  0  0  0  0  0  0  0
   62.5280   31.3220   47.1190 C   0  0  0  0  0  0  0  0  0  0  0  0
   62.3941   31.4498   46.0347 H   0  0  0  0  0  0  0  0  0  0  0  0
   63.0513   30.3822   47.3491 H   0  0  0  0  0  0  0  0  0  0  0  0
   63.3840   32.4830   47.6530 C   0  0  0  0  0  0  0  0  0  0  0  0
   63.0672   33.4118   47.1560 H   0  0  0  0  0  0  0  0  0  0  0  0
   64.4367   32.2465   47.4387 H   0  0  0  0  0  0  0  0  0  0  0  0
   63.2490   32.6670   49.1700 C   0  0  0  0  0  0  0  0  0  0  0  0
   62.5860   33.5200   49.3770 H   0  0  0  0  0  0  0  0  0  0  0  0
   64.2422   32.8565   49.6031 H   0  0  0  0  0  0  0  0  0  0  0  0
   62.6820   31.4520   49.7690 N   0  0  0  0  0  0  0  0  0  0  0  0
   61.7040   31.6770   50.0710 H   0  0  0  0  0  0  0  0  0  0  0  0
   63.4280   31.0440   50.9680 C   0  0  0  0  0  0  0  0  0  0  0  0
   63.4133   29.9469   51.0463 H   0  0  0  0  0  0  0  0  0  0  0  0
   62.9527   31.4965   51.8508 H   0  0  0  0  0  0  0  0  0  0  0  0
   64.8750   31.5210   50.8920 C   0  0  0  0  0  0  0  0  0  0  0  0
   65.2719   31.6518   51.9095 H   0  0  0  0  0  0  0  0  0  0  0  0
   65.4795   30.7746   50.3558 H   0  0  0  0  0  0  0  0  0  0  0  0
   64.9171   32.4806   50.3558 H   0  0  0  0  0  0  0  0  0  0  0  0
   59.7710   29.9110   46.2520 C   0  0  0  0  0  0  0  0  0  0  0  0
   60.3990   28.7120   46.6960 C   0  0  0  0  0  0  0  0  0  0  0  0
   61.1561   28.7650   47.4922 H   0  0  0  0  0  0  0  0  0  0  0  0
   60.0770   27.4760   46.1460 C   0  0  0  0  0  0  0  0  0  0  0  0
   60.5718   26.5655   46.5150 H   0  0  0  0  0  0  0  0  0  0  0  0
   59.1350   27.3890   45.1350 C   0  0  0  0  0  0  0  0  0  0  0  0
   58.9039   26.4146   44.6800 H   0  0  0  0  0  0  0  0  0  0  0  0
   58.4820   28.5340   44.6960 C   0  0  0  0  0  0  0  0  0  0  0  0
   57.7398   28.4546   43.8880 H   0  0  0  0  0  0  0  0  0  0  0  0
   58.7530   29.8050   45.2690 C   0  0  0  0  0  0  0  0  0  0  0  0
   58.0570   30.9190   44.8720 N   0  0  0  0  0  0  0  0  0  0  0  0
   56.7830   30.7620   44.1290 C   0  0  0  0  0  0  0  0  0  0  0  0
   55.9524   30.6596   44.8429 H   0  0  0  0  0  0  0  0  0  0  0  0
   56.6160   31.6464   43.4965 H   0  0  0  0  0  0  0  0  0  0  0  0
   56.8357   29.8636   43.4965 H   0  0  0  0  0  0  0  0  0  0  0  0
  1  2  1  0
  2  3  1  0
  3  4  1  0
  3  5  1  0
  3  6  1  0
  6  7  1  0
  6  8  1  0
  6  9  1  0
  9 10  2  0
 10 11  1  0
 10 12  1  0
 12 13  1  0
 12 14  1  0
 12 15  1  0
 15 16  1  0
 15 17  1  0
 17 18  2  0
 18 19  1  0
 18 20  1  0
 20 21  1  0
 20 22  2  0
 22 23  1  0
 22 24  1  0
 24 25  2  0
 25 26  1  0
 26 27  1  0
 27 28  1  0
 27 29  1  0
 27 30  1  0
 30 31  1  0
 30 32  1  0
 30 33  1  0
 33 34  1  0
 33 35  1  0
 33 36  1  0
 36 37  1  0
 36 38  1  0
 36 39  1  0
 39 40  1  0
 39 41  1  0
 41 42  1  0
 41 43  1  0
 41 44  1  0
 44 45  1  0
 44 46  1  0
 44 47  1  0
 26 48  2  0
 48 49  1  0
 49 50  1  0
 49 51  2  0
 51 52  1  0
 51 53  1  0
 53 54  1  0
 53 55  2  0
 55 56  1  0
 55 57  1  0
 57 58  2  0
 58 59  1  0
 59 60  1  0
 59 61  1  0
 59 62  1  0
 25 17  1  0
 57 48  1  0
 58 24  1  0
M  CHG  2  27   1  58   1
M  END
>  <UniqueID>  (4) 
4

>  <SMILES>  (4) 
CCNCCC[NH2+]c1c2ccccc2[n+](C)c2cccc(NC/C=N\CCO)c12

>  <Energy>  (4) 
98.80644983044411

>  <Genealogy>  (4) 
CCNCCC[NH2+]c1c2ccccc2[n+](C)c2cccc(NCC=NCCO)c12 (protonated)
CCNCCC[NH2+]c1c2ccccc2[n+](C)c2cccc(NC/C=N\CCO)c12 (cis-trans isomerization)
CCNCCC[NH2+]c1c2ccccc2[n+](C)c2cccc(NC/C=N\CCO)c12 (3D coordinates assigned)
CCNCCC[NH2+]c1c2ccccc2[n+](C)c2cccc(NC/C=N\CCO)c12 (optimized conformer: 98.80644983044411 kcal/mol)

>  <smiles>  (4) 
CCNCCCNc1c2ccccc2[n+](C)c2cccc(NCC=NCCO)c12

>  <score_type>  (4) 
oracle

>  <origin>  (4) 
adg

>  <m_score__min__energy>  (4) 
-2.29

>  <m_primary>  (4) 
energy

$$$$
4:0
     RDKit          3D

 85 87  0  0  0  0  0  0  0  0999 V2000
   55.7770   19.5430   45.5270 C   0  0  0  0  0  0  0  0  0  0  0  0
   56.5240   20.8690   45.3570 C   0  0  0  0  0  0  0  0  0  0  0  0
   57.7640   20.7200   44.5740 N   0  0  0  0  0  0  0  0  0  0  0  0
   58.3410   22.0200   44.1910 C   0  0  0  0  0  0  0  0  0  0  0  0
   57.2590   23.1110   44.1800 C   0  0  0  0  0  0  0  0  0  0  0  0
   57.7460   24.4120   44.8290 C   0  0  0  0  0  0  0  0  0  0  0  0
   56.6950   25.4370   44.7750 N   0  0  0  0  0  0  0  0  0  0  0  0
   56.6400   26.2550   46.0000 C   0  0  0  0  0  0  0  0  0  0  0  0
   57.4270   27.5740   45.8930 C   0  0  0  0  0  0  0  0  0  0  0  0
   57.3320   28.1300   44.5360 N   0  0  0  0  0  0  0  0  0  0  0  0
   56.4080   29.2740   44.4680 C   0  0  0  0  0  0  0  0  0  0  0  0
   57.0910   30.6010   44.8310 C   0  0  0  0  0  0  0  0  0  0  0  0
   58.4910   30.3660   45.1820 N   0  0  0  0  0  0  0  0  0  0  0  0
   59.1370   31.0960   46.2400 C   0  0  0  0  0  0  0  0  0  0  0  0
   59.2810   32.4910   46.1450 C   0  0  0  0  0  0  0  0  0  0  0  0
   58.8330   33.1950   45.0070 C   0  0  0  0  0  0  0  0  0  0  0  0
   58.9980   34.5760   44.9140 C   0  0  0  0  0  0  0  0  0  0  0  0
   59.6070   35.2770   45.9500 C   0  0  0  0  0  0  0  0  0  0  0  0
   60.0420   34.6020   47.0910 C   0  0  0  0  0  0  0  0  0  0  0  0
   59.8750   33.2010   47.2190 C   0  0  0  0  0  0  0  0  0  0  0  0
   60.2680   32.5320   48.3590 N   0  0  0  0  0  0  0  0  0  0  0  0
   60.3680   33.2900   49.6250 C   0  0  0  0  0  0  0  0  0  0  0  0
   60.3560   31.1510   48.3580 C   0  0  0  0  0  0  0  0  0  0  0  0
   61.1090   30.4140   49.3310 C   0  0  0  0  0  0  0  0  0  0  0  0
   62.2320   31.0360   50.1310 C   0  0  0  0  0  0  0  0  0  0  0  0
   60.9050   29.0250   49.4720 C   0  0  0  0  0  0  0  0  0  0  0  0
   61.5540   28.3470   50.5180 O   0  0  0  0  0  0  0  0  0  0  0  0
   60.9330   27.9300   51.7320 C   0  0  0  0  0  0  0  0  0  0  0  0
   61.2900   26.4610   52.0390 C   0  0  0  0  0  0  0  0  0  0  0  0
   62.6830   26.2140   52.5250 N   0  0  0  0  0  0  0  0  0  0  0  0
   63.3860   25.2130   51.6870 C   0  0  0  0  0  0  0  0  0  0  0  0
   63.4700   27.4720   52.5610 C   0  0  0  0  0  0  0  0  0  0  0  0
   62.5970   25.6850   53.9080 C   0  0  0  0  0  0  0  0  0  0  0  0
   60.0770   28.3520   48.5650 C   0  0  0  0  0  0  0  0  0  0  0  0
   59.5060   29.0310   47.4980 C   0  0  0  0  0  0  0  0  0  0  0  0
   59.6690   30.4190   47.3540 C   0  0  0  0  0  0  0  0  0  0  0  0
   55.6547   19.3258   46.5984 H   0  0  0  0  0  0  0  0  0  0  0  0
   54.7874   19.6162   45.0524 H   0  0  0  0  0  0  0  0  0  0  0  0
   56.3524   18.7345   45.0524 H   0  0  0  0  0  0  0  0  0  0  0  0
   55.8643   21.5823   44.8413 H   0  0  0  0  0  0  0  0  0  0  0  0
   56.8016   21.2280   46.3590 H   0  0  0  0  0  0  0  0  0  0  0  0
   58.4660   20.1620   45.1170 H   0  0  0  0  0  0  0  0  0  0  0  0
   57.5320   20.1880   43.7020 H   0  0  0  0  0  0  0  0  0  0  0  0
   59.1238   22.2947   44.9133 H   0  0  0  0  0  0  0  0  0  0  0  0
   58.7678   21.9342   43.1808 H   0  0  0  0  0  0  0  0  0  0  0  0
   56.9754   23.3189   43.1377 H   0  0  0  0  0  0  0  0  0  0  0  0
   56.4006   22.7430   44.7610 H   0  0  0  0  0  0  0  0  0  0  0  0
   58.0081   24.2169   45.8793 H   0  0  0  0  0  0  0  0  0  0  0  0
   58.6272   24.7759   44.2803 H   0  0  0  0  0  0  0  0  0  0  0  0
   56.8520   26.0510   43.9410 H   0  0  0  0  0  0  0  0  0  0  0  0
   55.5874   26.4937   46.2124 H   0  0  0  0  0  0  0  0  0  0  0  0
   57.1043   25.6653   46.8042 H   0  0  0  0  0  0  0  0  0  0  0  0
   57.0142   28.2993   46.6096 H   0  0  0  0  0  0  0  0  0  0  0  0
   58.4847   27.3726   46.1182 H   0  0  0  0  0  0  0  0  0  0  0  0
   57.0180   27.3790   43.8760 H   0  0  0  0  0  0  0  0  0  0  0  0
   56.0130   29.3486   43.4441 H   0  0  0  0  0  0  0  0  0  0  0  0
   55.6043   29.0997   45.1985 H   0  0  0  0  0  0  0  0  0  0  0  0
   57.0415   31.2833   43.9696 H   0  0  0  0  0  0  0  0  0  0  0  0
   56.5739   31.0481   45.6928 H   0  0  0  0  0  0  0  0  0  0  0  0
   58.9680   29.5220   44.7910 H   0  0  0  0  0  0  0  0  0  0  0  0
   58.3485   32.6482   44.1847 H   0  0  0  0  0  0  0  0  0  0  0  0
   58.6462   35.1123   44.0203 H   0  0  0  0  0  0  0  0  0  0  0  0
   59.7458   36.3652   45.8694 H   0  0  0  0  0  0  0  0  0  0  0  0
   60.5221   35.1665   47.9039 H   0  0  0  0  0  0  0  0  0  0  0  0
   60.2767   32.5978   50.4750 H   0  0  0  0  0  0  0  0  0  0  0  0
   61.3413   33.8005   49.6708 H   0  0  0  0  0  0  0  0  0  0  0  0
   59.5604   34.0355   49.6708 H   0  0  0  0  0  0  0  0  0  0  0  0
   62.0244   30.9210   51.2051 H   0  0  0  0  0  0  0  0  0  0  0  0
   63.1793   30.5340   49.8848 H   0  0  0  0  0  0  0  0  0  0  0  0
   62.3090   32.1053   49.8848 H   0  0  0  0  0  0  0  0  0  0  0  0
   61.2830   28.5684   52.5566 H   0  0  0  0  0  0  0  0  0  0  0  0
   59.8418   28.0180   51.6243 H   0  0  0  0  0  0  0  0  0  0  0  0
   60.5948   26.0997   52.8112 H   0  0  0  0  0  0  0  0  0  0  0  0
   61.2114   25.9292   51.0793 H   0  0  0  0  0  0  0  0  0  0  0  0
   63.8967   24.4858   52.3353 H   0  0  0  0  0  0  0  0  0  0  0  0
   62.6564   24.6891   51.0520 H   0  0  0  0  0  0  0  0  0  0  0  0
   64.1264   25.7215   51.0520 H   0  0  0  0  0  0  0  0  0  0  0  0
   63.6511   27.7614   53.6067 H   0  0  0  0  0  0  0  0  0  0  0  0
   64.4325   27.3171   52.0515 H   0  0  0  0  0  0  0  0  0  0  0  0
   62.9097   28.2698   52.0515 H   0  0  0  0  0  0  0  0  0  0  0  0
   62.7309   26.5087   54.6246 H   0  0  0  0  0  0  0  0  0  0  0  0
   61.6116   25.2211   54.0625 H   0  0  0  0  0  0  0  0  0  0  0  0
   63.3847   24.9329   54.0625 H   0  0  0  0  0  0  0  0  0  0  0  0
   59.8780   27.2785   48.6992 H   0  0  0  0  0  0  0  0  0  0  0  0
   58.9171   28.4744   46.7541 H   0  0  0  0  0  0  0  0  0  0  0  0
  1  2  1  0
  2  3  1  0
  3  4  1  0
  4  5  1  0
  5  6  1  0
  6  7  1  0
  7  8  1  0
  8  9  1  0
  9 10  1  0
 10 11  1  0
 11 12  1  0
 12 13  1  0
 13 14  1  0
 14 15  2  0
 15 16  1  0
 16 17  2  0
 17 18  1  0
 18 19  2  0
 19 20  1  0
 20 21  2  0
 21 22  1  0
 21 23  1  0
 23 24  2  0
 24 25  1  0
 24 26  1  0
 26 27  1  0
 27 28  1  0
 28 29  1  0
 29 30  1  0
 30 31  1  0
 30 32  1  0
 30 33  1  0
 26 34  2  0
 34 35  1  0
 35 36  2  0
 36 14  1  0
 20 15  1  0
 36 23  1  0
  1 37  1  0
  1 38  1  0
  1 39  1  0
  2 40  1  0
  2 41  1  0
  3 42  1  0
  3 43  1  0
  4 44  1  0
  4 45  1  0
  5 46  1  0
  5 47  1  0
  6 48  1  0
  6 49  1  0
  7 50  1  0
  8 51  1  0
  8 52  1  0
  9 53  1  0
  9 54  1  0
 10 55  1  0
 11 56  1  0
 11 57  1  0
 12 58  1  0
 12 59  1  0
 13 60  1  0
 16 61  1  0
 17 62  1  0
 18 63  1  0
 19 64  1  0
 22 65  1  0
 22 66  1  0
 22 67  1  0
 25 68  1  0
 25 69  1  0
 25 70  1  0
 28 71  1  0
 28 72  1  0
 29 73  1  0
 29 74  1  0
 31 75  1  0
 31 76  1  0
 31 77  1  0
 32 78  1  0
 32 79  1  0
 32 80  1  0
 33 81  1  0
 33 82  1  0
 33 83  1  0
 34 84  1  0
 35 85  1  0
M  CHG  3   3   1  21   1  30   1
M  END
>  <UniqueID>  (5) 
5

>  <SMILES>  (5) 
CC[NH2+]CCCNCCNCCNc1c2ccccc2[n+](C)c2c(C)c(OCC[N+](C)(C)C)ccc12

>  <Energy>  (5) 
118.29113389301946

>  <Genealogy>  (5) 
CC[NH2+]CCCNCCNCCNc1c2ccccc2[n+](C)c2c(C)c(OCC[N+](C)(C)C)ccc12 (protonated)
CC[NH2+]CCCNCCNCCNc1c2ccccc2[n+](C)c2c(C)c(OCC[N+](C)(C)C)ccc12 (3D coordinates assigned)
CC[NH2+]CCCNCCNCCNc1c2ccccc2[n+](C)c2c(C)c(OCC[N+](C)(C)C)ccc12 (optimized conformer: 118.29113389301946 kcal/mol)

>  <smiles>  (5) 
CCNCCCNCCNCCNc1c2ccccc2[n+](C)c2c(C)c(OCC[N+](C)(C)C)ccc12

>  <score_type>  (5) 
oracle

>  <origin>  (5) 
adg

>  <m_score__min__energy>  (5) 
-5.1100000000000003

>  <m_primary>  (5) 
energy

$$$$
5:0
     RDKit          3D

 64 66  0  0  0  0  0  0  0  0999 V2000
   63.2020   33.8190   46.9880 C   0  0  0  0  0  0  0  0  0  0  0  0
   62.5940   32.4820   47.4020 C   0  0  0  0  0  0  0  0  0  0  0  0
   62.4630   32.3720   48.8720 N   0  0  0  0  0  0  0  0  0  0  0  0
   63.5950   31.6270   49.4680 C   0  0  0  0  0  0  0  0  0  0  0  0
   64.6980   32.5930   49.8860 C   0  0  0  0  0  0  0  0  0  0  0  0
   62.2190   33.6640   49.5580 C   0  0  0  0  0  0  0  0  0  0  0  0
   61.3140   33.5560   50.8030 C   0  0  0  0  0  0  0  0  0  0  0  0
   60.6960   32.2840   50.8430 O   0  0  0  0  0  0  0  0  0  0  0  0
   59.2930   32.4180   50.9690 C   0  0  0  0  0  0  0  0  0  0  0  0
   58.6210   31.9280   49.6900 C   0  0  0  0  0  0  0  0  0  0  0  0
   59.6060   31.6700   48.6400 N   0  0  0  0  0  0  0  0  0  0  0  0
   59.2190   31.7010   47.2580 C   0  0  0  0  0  0  0  0  0  0  0  0
   59.1990   32.9170   46.5550 C   0  0  0  0  0  0  0  0  0  0  0  0
   59.6500   34.1090   47.1600 C   0  0  0  0  0  0  0  0  0  0  0  0
   59.6620   35.3070   46.4510 C   0  0  0  0  0  0  0  0  0  0  0  0
   59.2470   35.3340   45.1260 C   0  0  0  0  0  0  0  0  0  0  0  0
   58.8040   34.1660   44.5030 C   0  0  0  0  0  0  0  0  0  0  0  0
   58.7440   32.9370   45.2100 C   0  0  0  0  0  0  0  0  0  0  0  0
   58.2800   31.7760   44.6180 N   0  0  0  0  0  0  0  0  0  0  0  0
   57.5390   31.8440   43.3380 C   0  0  0  0  0  0  0  0  0  0  0  0
   58.4880   30.5560   45.2350 C   0  0  0  0  0  0  0  0  0  0  0  0
   58.2950   29.3290   44.5490 C   0  0  0  0  0  0  0  0  0  0  0  0
   58.4380   28.0880   45.1980 C   0  0  0  0  0  0  0  0  0  0  0  0
   58.2320   26.8460   44.4790 N   0  0  0  0  0  0  0  0  0  0  0  0
   58.1360   26.8430   43.0160 C   0  0  0  0  0  0  0  0  0  0  0  0
   58.1020   25.5760   45.2010 C   0  0  0  0  0  0  0  0  0  0  0  0
   58.7900   28.0770   46.5550 C   0  0  0  0  0  0  0  0  0  0  0  0
   59.0340   29.2650   47.2360 C   0  0  0  0  0  0  0  0  0  0  0  0
   58.9170   30.5070   46.5850 C   0  0  0  0  0  0  0  0  0  0  0  0
   63.4646   34.3964   47.8867 H   0  0  0  0  0  0  0  0  0  0  0  0
   64.1074   33.6404   46.3894 H   0  0  0  0  0  0  0  0  0  0  0  0
   62.4723   34.3840   46.3894 H   0  0  0  0  0  0  0  0  0  0  0  0
   61.5969   32.3877   46.9472 H   0  0  0  0  0  0  0  0  0  0  0  0
   63.2624   31.6796   47.0563 H   0  0  0  0  0  0  0  0  0  0  0  0
   63.2418   31.0744   50.3511 H   0  0  0  0  0  0  0  0  0  0  0  0
   63.9958   30.9251   48.7219 H   0  0  0  0  0  0  0  0  0  0  0  0
   64.7494   32.6380   50.9839 H   0  0  0  0  0  0  0  0  0  0  0  0
   65.6620   32.2433   49.4879 H   0  0  0  0  0  0  0  0  0  0  0  0
   64.4785   33.5946   49.4879 H   0  0  0  0  0  0  0  0  0  0  0  0
   63.1891   34.0773   49.8711 H   0  0  0  0  0  0  0  0  0  0  0  0
   61.6935   34.3101   48.8393 H   0  0  0  0  0  0  0  0  0  0  0  0
   61.9226   33.6940   51.7088 H   0  0  0  0  0  0  0  0  0  0  0  0
   60.5374   34.3334   50.7534 H   0  0  0  0  0  0  0  0  0  0  0  0
   58.9420   31.8177   51.8213 H   0  0  0  0  0  0  0  0  0  0  0  0
   59.0381   33.4748   51.1367 H   0  0  0  0  0  0  0  0  0  0  0  0
   58.0745   30.9980   49.9055 H   0  0  0  0  0  0  0  0  0  0  0  0
   57.9324   32.7098   49.3369 H   0  0  0  0  0  0  0  0  0  0  0  0
   60.5600   31.3140   48.8800 H   0  0  0  0  0  0  0  0  0  0  0  0
   59.9962   34.0916   48.2040 H   0  0  0  0  0  0  0  0  0  0  0  0
   60.0002   36.2323   46.9403 H   0  0  0  0  0  0  0  0  0  0  0  0
   59.2675   36.2799   44.5649 H   0  0  0  0  0  0  0  0  0  0  0  0
   58.4966   34.1988   43.4473 H   0  0  0  0  0  0  0  0  0  0  0  0
   56.4627   31.9428   43.5422 H   0  0  0  0  0  0  0  0  0  0  0  0
   57.8840   32.7143   42.7604 H   0  0  0  0  0  0  0  0  0  0  0  0
   57.7198   30.9255   42.7604 H   0  0  0  0  0  0  0  0  0  0  0  0
   58.0267   29.3480   43.4824 H   0  0  0  0  0  0  0  0  0  0  0  0
   57.0776   26.8099   42.7181 H   0  0  0  0  0  0  0  0  0  0  0  0
   58.6011   27.7561   42.6161 H   0  0  0  0  0  0  0  0  0  0  0  0
   58.6572   25.9607   42.6161 H   0  0  0  0  0  0  0  0  0  0  0  0
   58.1215   25.7664   46.2842 H   0  0  0  0  0  0  0  0  0  0  0  0
   57.1500   25.0960   44.9301 H   0  0  0  0  0  0  0  0  0  0  0  0
   58.9370   24.9131   44.9301 H   0  0  0  0  0  0  0  0  0  0  0  0
   58.8742   27.1180   47.0872 H   0  0  0  0  0  0  0  0  0  0  0  0
   59.3221   29.2332   48.2971 H   0  0  0  0  0  0  0  0  0  0  0  0
  1  2  1  0
  2  3  1  0
  3  4  1  0
  4  5  1  0
  3  6  1  0
  6  7  1  0
  7  8  1  0
  8  9  1  0
  9 10  1  0
 10 11  1  0
 11 12  1  0
 12 13  2  0
 13 14  1  0
 14 15  2  0
 15 16  1  0
 16 17  2  0
 17 18  1  0
 18 19  2  0
 19 20  1  0
 19 21  1  0
 21 22  2  0
 22 23  1  0
 23 24  1  0
 24 25  1  0
 24 26  1  0
 23 27  2  0
 27 28  1  0
 28 29  2  0
 29 12  1  0
 18 13  1  0
 29 21  1  0
  1 30  1  0
  1 31  1  0
  1 32  1  0
  2 33  1  0
  2 34  1  0
  4 35  1  0
  4 36  1  0
  5 37  1  0
  5 38  1  0
  5 39  1  0
  6 40  1  0
  6 41  1  0
  7 42  1  0
  7 43  1  0
  9 44  1  0
  9 45  1  0
 10 46  1  0
 10 47  1  0
 11 48  1  0
 14 49  1  0
 15 50  1  0
 16 51  1  0
 17 52  1  0
 20 53  1  0
 20 54  1  0
 20 55  1  0
 22 56  1  0
 25 57  1  0
 25 58  1  0
 25 59  1  0
 26 60  1  0
 26 61  1  0
 26 62  1  0
 27 63  1  0
 28 64  1  0
M  CHG  1  19   1
M  END
>  <UniqueID>  (6) 
6

>  <SMILES>  (6) 
CCN(CC)CCOCCNc1c2ccccc2[n+](C)c2cc(N(C)C)ccc12

>  <Energy>  (6) 
92.94848270449967

>  <Genealogy>  (6) 
CCN(CC)CCOCCNc1c2ccccc2[n+](C)c2cc(N(C)C)ccc12 (3D coordinates assigned)
CCN(CC)CCOCCNc1c2ccccc2[n+](C)c2cc(N(C)C)ccc12 (optimized conformer: 92.94848270449967 kcal/mol)

>  <smiles>  (6) 
CCN(CC)CCOCCNc1c2ccccc2[n+](C)c2cc(N(C)C)ccc12

>  <score_type>  (6) 
oracle

>  <origin>  (6) 
adg

>  <m_score__min__energy>  (6) 
-5.9400000000000004

>  <m_primary>  (6) 
energy

$$$$
6:0
     RDKit          3D

 56 60  0  0  0  0  0  0  0  0999 V2000
   62.5610   31.3740   49.5730 C   0  0  0  0  0  0  0  0  0  0  0  0
   63.2140   32.4300   48.7580 N   0  0  0  0  0  0  0  0  0  0  0  0
   64.5740   32.6440   49.3180 C   0  0  0  0  0  0  0  0  0  0  0  0
   63.3640   31.9620   47.3600 C   0  0  0  0  0  0  0  0  0  0  0  0
   62.4720   33.7310   48.8470 C   0  0  0  0  0  0  0  0  0  0  0  0
   61.6210   34.1650   47.6190 C   0  0  0  0  0  0  0  0  0  0  0  0
   60.1700   34.2290   47.8890 N   0  0  0  0  0  0  0  0  0  0  0  0
   59.3250   33.7560   46.7990 C   0  0  0  0  0  0  0  0  0  0  0  0
   58.7400   34.6600   45.8800 C   0  0  0  0  0  0  0  0  0  0  0  0
   57.9050   34.2110   44.8580 C   0  0  0  0  0  0  0  0  0  0  0  0
   57.6610   32.8530   44.6970 C   0  0  0  0  0  0  0  0  0  0  0  0
   58.2910   31.9200   45.5290 C   0  0  0  0  0  0  0  0  0  0  0  0
   58.0860   30.5540   45.3160 C   0  0  0  0  0  0  0  0  0  0  0  0
   58.7610   29.6080   46.1040 C   0  0  0  0  0  0  0  0  0  0  0  0
   59.5950   30.0380   47.1080 N   0  0  0  0  0  0  0  0  0  0  0  0
   59.8190   31.3710   47.3200 C   0  0  0  0  0  0  0  0  0  0  0  0
   59.1490   32.3560   46.5650 C   0  0  0  0  0  0  0  0  0  0  0  0
   60.3440   29.0610   47.9210 C   0  0  0  0  0  0  0  0  0  0  0  0
   59.4900   27.8280   48.2280 C   0  0  0  0  0  0  0  0  0  0  0  0
   58.9310   27.2600   46.9550 C   0  0  0  0  0  0  0  0  0  0  0  0
   58.7350   25.8680   46.8290 C   0  0  0  0  0  0  0  0  0  0  0  0
   58.2040   25.3920   45.6360 C   0  0  0  0  0  0  0  0  0  0  0  0
   57.8730   26.2210   44.6160 C   0  0  0  0  0  0  0  0  0  0  0  0
   58.0330   27.5990   44.7000 C   0  0  0  0  0  0  0  0  0  0  0  0
   58.5530   28.1410   45.9030 C   0  0  0  0  0  0  0  0  0  0  0  0
   57.3850   25.4750   43.5590 O   0  0  0  0  0  0  0  0  0  0  0  0
   57.4080   24.0930   43.9430 C   0  0  0  0  0  0  0  0  0  0  0  0
   57.9370   24.0860   45.2750 O   0  0  0  0  0  0  0  0  0  0  0  0
   62.6991   31.5973   50.6412 H   0  0  0  0  0  0  0  0  0  0  0  0
   61.4862   31.3436   49.3407 H   0  0  0  0  0  0  0  0  0  0  0  0
   63.0140   30.3989   49.3407 H   0  0  0  0  0  0  0  0  0  0  0  0
   64.5235   32.6361   50.4168 H   0  0  0  0  0  0  0  0  0  0  0  0
   65.2421   31.8399   48.9758 H   0  0  0  0  0  0  0  0  0  0  0  0
   64.9629   33.6144   48.9758 H   0  0  0  0  0  0  0  0  0  0  0  0
   63.6997   30.9145   47.3580 H   0  0  0  0  0  0  0  0  0  0  0  0
   62.3965   32.0379   46.8421 H   0  0  0  0  0  0  0  0  0  0  0  0
   64.1071   32.5862   46.8421 H   0  0  0  0  0  0  0  0  0  0  0  0
   61.7928   33.6632   49.7096 H   0  0  0  0  0  0  0  0  0  0  0  0
   63.2597   34.4951   48.9227 H   0  0  0  0  0  0  0  0  0  0  0  0
   61.9581   35.1620   47.2989 H   0  0  0  0  0  0  0  0  0  0  0  0
   61.7679   33.4001   46.8422 H   0  0  0  0  0  0  0  0  0  0  0  0
   59.9460   33.6390   48.7210 H   0  0  0  0  0  0  0  0  0  0  0  0
   59.9460   35.2320   48.0780 H   0  0  0  0  0  0  0  0  0  0  0  0
   58.9480   35.7360   45.9740 H   0  0  0  0  0  0  0  0  0  0  0  0
   57.4370   34.9357   44.1756 H   0  0  0  0  0  0  0  0  0  0  0  0
   56.9702   32.5095   43.9129 H   0  0  0  0  0  0  0  0  0  0  0  0
   57.3941   30.2192   44.5291 H   0  0  0  0  0  0  0  0  0  0  0  0
   60.5359   31.6806   48.0947 H   0  0  0  0  0  0  0  0  0  0  0  0
   61.2419   28.7473   47.3684 H   0  0  0  0  0  0  0  0  0  0  0  0
   60.6219   29.5386   48.8721 H   0  0  0  0  0  0  0  0  0  0  0  0
   60.1122   27.0682   48.7235 H   0  0  0  0  0  0  0  0  0  0  0  0
   58.6599   28.1192   48.8884 H   0  0  0  0  0  0  0  0  0  0  0  0
   58.9942   25.1818   47.6487 H   0  0  0  0  0  0  0  0  0  0  0  0
   57.7637   28.2515   43.8564 H   0  0  0  0  0  0  0  0  0  0  0  0
   56.3923   23.6709   43.9283 H   0  0  0  0  0  0  0  0  0  0  0  0
   58.0128   23.4835   43.2554 H   0  0  0  0  0  0  0  0  0  0  0  0
  1  2  1  0
  2  3  1  0
  2  4  1  0
  2  5  1  0
  5  6  1  0
  6  7  1  0
  7  8  1  0
  8  9  2  0
  9 10  1  0
 10 11  2  0
 11 12  1  0
 12 13  2  0
 13 14  1  0
 14 15  2  0
 15 16  1  0
 16 17  2  0
 15 18  1  0
 18 19  1  0
 19 20  1  0
 20 21  2  0
 21 22  1  0
 22 23  2  0
 23 24  1  0
 24 25  2  0
 23 26  1  0
 26 27  1  0
 27 28  1  0
 17  8  1  0
 25 20  1  0
 17 12  1  0
 28 22  1  0
 25 14  1  0
  1 29  1  0
  1 30  1  0
  1 31  1  0
  3 32  1  0
  3 33  1  0
  3 34  1  0
  4 35  1  0
  4 36  1  0
  4 37  1  0
  5 38  1  0
  5 39  1  0
  6 40  1  0
  6 41  1  0
  7 42  1  0
  7 43  1  0
  9 44  1  0
 10 45  1  0
 11 46  1  0
 13 47  1  0
 16 48  1  0
 18 49  1  0
 18 50  1  0
 19 51  1  0
 19 52  1  0
 21 53  1  0
 24 54  1  0
 27 55  1  0
 27 56  1  0
M  CHG  3   2   1   7   1  15   1
M  END
>  <UniqueID>  (7) 
7

>  <SMILES>  (7) 
C[N+](C)(C)CC[NH2+]c1cccc2cc3[n+](cc12)CCc1cc2c(cc1-3)OCO2

>  <Energy>  (7) 
117.98243173082417

>  <Genealogy>  (7) 
C[N+](C)(C)CC[NH2+]c1cccc2cc3[n+](cc12)CCc1cc2c(cc1-3)OCO2 (protonated)
C[N+](C)(C)CC[NH2+]c1cccc2cc3[n+](cc12)CCc1cc2c(cc1-3)OCO2 (3D coordinates assigned)
C[N+](C)(C)CC[NH2+]c1cccc2cc3[n+](cc12)CCc1cc2c(cc1-3)OCO2 (nonaromatic ring conformer: 117.98243173082417 kcal/mol)

>  <smiles>  (7) 
C[N+](C)(C)CCNc1cccc2cc3[n+](cc12)CCc1cc2c(cc1-3)OCO2

>  <score_type>  (7) 
oracle

>  <origin>  (7) 
adg

>  <m_score__min__energy>  (7) 
-3.23

>  <m_primary>  (7) 
energy

$$$$
7:0
     RDKit          3D

 67 69  0  0  0  0  0  0  0  0999 V2000
   61.4180   33.2420   52.4180 C   0  0  0  0  0  0  0  0  0  0  0  0
   60.8140   31.9740   51.8180 C   0  0  0  0  0  0  0  0  0  0  0  0
   59.4890   32.2570   51.2260 N   0  0  0  0  0  0  0  0  0  0  0  0
   58.8380   33.4230   51.8500 C   0  0  0  0  0  0  0  0  0  0  0  0
   58.6070   31.0670   51.2070 C   0  0  0  0  0  0  0  0  0  0  0  0
   58.5510   30.3500   49.8440 C   0  0  0  0  0  0  0  0  0  0  0  0
   59.2660   31.1210   48.8280 N   0  0  0  0  0  0  0  0  0  0  0  0
   58.9920   30.9580   47.4270 C   0  0  0  0  0  0  0  0  0  0  0  0
   59.1600   29.6930   46.8400 C   0  0  0  0  0  0  0  0  0  0  0  0
   59.7400   28.6300   47.5660 C   0  0  0  0  0  0  0  0  0  0  0  0
   59.9300   27.3840   46.9740 C   0  0  0  0  0  0  0  0  0  0  0  0
   59.5630   27.1800   45.6500 C   0  0  0  0  0  0  0  0  0  0  0  0
   58.9810   28.2130   44.9160 C   0  0  0  0  0  0  0  0  0  0  0  0
   58.7390   29.4820   45.5030 C   0  0  0  0  0  0  0  0  0  0  0  0
   58.1170   30.4990   44.8070 N   0  0  0  0  0  0  0  0  0  0  0  0
   57.3980   30.1980   43.5490 C   0  0  0  0  0  0  0  0  0  0  0  0
   58.1570   31.7940   45.2910 C   0  0  0  0  0  0  0  0  0  0  0  0
   57.8050   32.8920   44.4710 C   0  0  0  0  0  0  0  0  0  0  0  0
   57.8110   34.1900   44.9640 C   0  0  0  0  0  0  0  0  0  0  0  0
   58.2020   34.4410   46.2690 C   0  0  0  0  0  0  0  0  0  0  0  0
   58.6220   33.3950   47.1060 C   0  0  0  0  0  0  0  0  0  0  0  0
   59.0920   33.6650   48.4040 O   0  0  0  0  0  0  0  0  0  0  0  0
   60.1230   34.5860   48.7620 C   0  0  0  0  0  0  0  0  0  0  0  0
   61.4360   33.8480   49.0430 C   0  0  0  0  0  0  0  0  0  0  0  0
   61.6420   32.7470   48.0740 N   0  0  0  0  0  0  0  0  0  0  0  0
   62.5840   31.7190   48.5820 C   0  0  0  0  0  0  0  0  0  0  0  0
   63.6030   32.2540   49.5980 C   0  0  0  0  0  0  0  0  0  0  0  0
   61.9720   33.2660   46.7260 C   0  0  0  0  0  0  0  0  0  0  0  0
   63.3880   33.8410   46.6610 C   0  0  0  0  0  0  0  0  0  0  0  0
   58.5800   32.0520   46.6280 C   0  0  0  0  0  0  0  0  0  0  0  0
   61.3878   33.1786   53.5158 H   0  0  0  0  0  0  0  0  0  0  0  0
   62.4615   33.3441   52.0852 H   0  0  0  0  0  0  0  0  0  0  0  0
   60.8398   34.1166   52.0852 H   0  0  0  0  0  0  0  0  0  0  0  0
   61.4847   31.5897   51.0354 H   0  0  0  0  0  0  0  0  0  0  0  0
   60.6928   31.2273   52.6166 H   0  0  0  0  0  0  0  0  0  0  0  0
   58.8901   33.3297   52.9448 H   0  0  0  0  0  0  0  0  0  0  0  0
   59.3533   34.3425   51.5354 H   0  0  0  0  0  0  0  0  0  0  0  0
   57.7849   33.4669   51.5354 H   0  0  0  0  0  0  0  0  0  0  0  0
   58.9737   30.3526   51.9588 H   0  0  0  0  0  0  0  0  0  0  0  0
   57.5884   31.4224   51.4217 H   0  0  0  0  0  0  0  0  0  0  0  0
   59.0156   29.3574   49.9382 H   0  0  0  0  0  0  0  0  0  0  0  0
   57.4990   30.2499   49.5385 H   0  0  0  0  0  0  0  0  0  0  0  0
   59.9870   31.8180   49.1230 H   0  0  0  0  0  0  0  0  0  0  0  0
   60.0452   28.7879   48.6110 H   0  0  0  0  0  0  0  0  0  0  0  0
   60.3710   26.5608   47.5552 H   0  0  0  0  0  0  0  0  0  0  0  0
   59.7320   26.2004   45.1789 H   0  0  0  0  0  0  0  0  0  0  0  0
   58.7051   28.0414   43.8651 H   0  0  0  0  0  0  0  0  0  0  0  0
   56.4067   29.7830   43.7836 H   0  0  0  0  0  0  0  0  0  0  0  0
   57.2796   31.1221   42.9642 H   0  0  0  0  0  0  0  0  0  0  0  0
   57.9733   29.4652   42.9642 H   0  0  0  0  0  0  0  0  0  0  0  0
   57.5213   32.7140   43.4232 H   0  0  0  0  0  0  0  0  0  0  0  0
   57.5037   35.0233   44.3150 H   0  0  0  0  0  0  0  0  0  0  0  0
   58.1832   35.4713   46.6538 H   0  0  0  0  0  0  0  0  0  0  0  0
   60.2771   35.2946   47.9349 H   0  0  0  0  0  0  0  0  0  0  0  0
   59.8172   35.1222   49.6725 H   0  0  0  0  0  0  0  0  0  0  0  0
   62.2722   34.5583   48.9640 H   0  0  0  0  0  0  0  0  0  0  0  0
   61.3888   33.4205   50.0554 H   0  0  0  0  0  0  0  0  0  0  0  0
   61.9992   30.9225   49.0652 H   0  0  0  0  0  0  0  0  0  0  0  0
   63.1577   31.3571   47.7160 H   0  0  0  0  0  0  0  0  0  0  0  0
   63.2387   32.0627   50.6181 H   0  0  0  0  0  0  0  0  0  0  0  0
   64.5677   31.7461   49.4519 H   0  0  0  0  0  0  0  0  0  0  0  0
   63.7327   33.3365   49.4519 H   0  0  0  0  0  0  0  0  0  0  0  0
   61.8893   32.4441   45.9996 H   0  0  0  0  0  0  0  0  0  0  0  0
   61.2663   34.0771   46.4934 H   0  0  0  0  0  0  0  0  0  0  0  0
   63.7682   33.9954   47.6816 H   0  0  0  0  0  0  0  0  0  0  0  0
   64.0449   33.1384   46.1273 H   0  0  0  0  0  0  0  0  0  0  0  0
   63.3691   34.8027   46.1273 H   0  0  0  0  0  0  0  0  0  0  0  0
  1  2  1  0
  2  3  1  0
  3  4  1  0
  3  5  1  0
  5  6  1  0
  6  7  1  0
  7  8  1  0
  8  9  2  0
  9 10  1  0
 10 11  2  0
 11 12  1  0
 12 13  2  0
 13 14  1  0
 14 15  2  0
 15 16  1  0
 15 17  1  0
 17 18  2  0
 18 19  1  0
 19 20  2  0
 20 21  1  0
 21 22  1  0
 22 23  1  0
 23 24  1  0
 24 25  1  0
 25 26  1  0
 26 27  1  0
 25 28  1  0
 28 29  1  0
 21 30  2  0
 30  8  1  0
 14  9  1  0
 30 17  1  0
  1 31  1  0
  1 32  1  0
  1 33  1  0
  2 34  1  0
  2 35  1  0
  4 36  1  0
  4 37  1  0
  4 38  1  0
  5 39  1  0
  5 40  1  0
  6 41  1  0
  6 42  1  0
  7 43  1  0
 10 44  1  0
 11 45  1  0
 12 46  1  0
 13 47  1  0
 16 48  1  0
 16 49  1  0
 16 50  1  0
 18 51  1  0
 19 52  1  0
 20 53  1  0
 23 54  1  0
 23 55  1  0
 24 56  1  0
 24 57  1  0
 26 58  1  0
 26 59  1  0
 27 60  1  0
 27 61  1  0
 27 62  1  0
 28 63  1  0
 28 64  1  0
 29 65  1  0
 29 66  1  0
 29 67  1  0
M  CHG  1  15   1
M  END
>  <UniqueID>  (8) 
8

>  <SMILES>  (8) 
CCN(C)CCNc1c2ccccc2[n+](C)c2cccc(OCCN(CC)CC)c12

>  <Energy>  (8) 
96.8344577985613

>  <Genealogy>  (8) 
CCN(C)CCNc1c2ccccc2[n+](C)c2cccc(OCCN(CC)CC)c12 (3D coordinates assigned)
CCN(C)CCNc1c2ccccc2[n+](C)c2cccc(OCCN(CC)CC)c12 (optimized conformer: 96.8344577985613 kcal/mol)

>  <smiles>  (8) 
CCN(C)CCNc1c2ccccc2[n+](C)c2cccc(OCCN(CC)CC)c12

>  <score_type>  (8) 
oracle

>  <origin>  (8) 
adg

>  <m_score__min__energy>  (8) 
-5.5499999999999998

>  <m_primary>  (8) 
energy

$$$$
8:0
     RDKit          3D

 56 58  0  0  0  0  0  0  0  0999 V2000
   59.6990   29.0530   48.3240 C   0  0  0  0  0  0  0  0  0  0  0  0
   59.9360   28.1360   47.1240 C   0  0  0  0  0  0  0  0  0  0  0  0
   60.6080   28.8560   45.9430 C   0  0  0  0  0  0  0  0  0  0  0  0
   60.1470   28.3790   44.5580 C   0  0  0  0  0  0  0  0  0  0  0  0
   58.9570   29.1210   44.1160 N   0  0  0  0  0  0  0  0  0  0  0  0
   57.7450   28.2950   44.2110 C   0  0  0  0  0  0  0  0  0  0  0  0
   56.7530   28.9140   45.2000 C   0  0  0  0  0  0  0  0  0  0  0  0
   56.4650   30.2660   44.8440 O   0  0  0  0  0  0  0  0  0  0  0  0
   57.2930   31.3710   45.1030 C   0  0  0  0  0  0  0  0  0  0  0  0
   57.0410   32.6530   44.5740 C   0  0  0  0  0  0  0  0  0  0  0  0
   57.8980   33.7190   44.8630 C   0  0  0  0  0  0  0  0  0  0  0  0
   59.0180   33.5210   45.6870 C   0  0  0  0  0  0  0  0  0  0  0  0
   59.9110   34.5580   46.0020 C   0  0  0  0  0  0  0  0  0  0  0  0
   59.7430   35.7220   45.5460 O   0  0  0  0  0  0  0  0  0  0  0  0
   61.0050   34.2930   46.8280 C   0  0  0  0  0  0  0  0  0  0  0  0
   61.1890   32.9940   47.3340 C   0  0  0  0  0  0  0  0  0  0  0  0
   62.3320   32.6520   48.2150 C   0  0  0  0  0  0  0  0  0  0  0  0
   63.5170   33.4020   48.1340 C   0  0  0  0  0  0  0  0  0  0  0  0
   64.6120   33.0970   48.9450 C   0  0  0  0  0  0  0  0  0  0  0  0
   64.5600   32.0260   49.8590 C   0  0  0  0  0  0  0  0  0  0  0  0
   65.6970   31.7090   50.7040 N   0  0  0  0  0  0  0  0  0  0  0  0
   66.9040   32.5450   50.6760 C   0  0  0  0  0  0  0  0  0  0  0  0
   65.6600   30.5470   51.6010 C   0  0  0  0  0  0  0  0  0  0  0  0
   63.3740   31.2670   49.9270 C   0  0  0  0  0  0  0  0  0  0  0  0
   62.2780   31.5730   49.1150 C   0  0  0  0  0  0  0  0  0  0  0  0
   60.3240   32.0340   47.0050 O   0  0  0  0  0  0  0  0  0  0  0  0
   59.2700   32.2400   46.2210 C   0  0  0  0  0  0  0  0  0  0  0  0
   58.4080   31.1790   45.9270 C   0  0  0  0  0  0  0  0  0  0  0  0
   59.8459   28.4848   49.2543 H   0  0  0  0  0  0  0  0  0  0  0  0
   60.4099   29.8918   48.2906 H   0  0  0  0  0  0  0  0  0  0  0  0
   58.6707   29.4423   48.2906 H   0  0  0  0  0  0  0  0  0  0  0  0
   60.5816   27.3036   47.4407 H   0  0  0  0  0  0  0  0  0  0  0  0
   58.9527   27.7837   46.7790 H   0  0  0  0  0  0  0  0  0  0  0  0
   60.3885   29.9307   46.0264 H   0  0  0  0  0  0  0  0  0  0  0  0
   61.6822   28.6288   46.0096 H   0  0  0  0  0  0  0  0  0  0  0  0
   60.9596   28.5374   43.8338 H   0  0  0  0  0  0  0  0  0  0  0  0
   59.8913   27.3110   44.6216 H   0  0  0  0  0  0  0  0  0  0  0  0
   59.0910   29.3580   43.1060 H   0  0  0  0  0  0  0  0  0  0  0  0
   57.2737   28.2276   43.2193 H   0  0  0  0  0  0  0  0  0  0  0  0
   58.0238   27.2919   44.5661 H   0  0  0  0  0  0  0  0  0  0  0  0
   55.8203   28.3309   45.1890 H   0  0  0  0  0  0  0  0  0  0  0  0
   57.1993   28.8997   46.2053 H   0  0  0  0  0  0  0  0  0  0  0  0
   56.1644   32.8157   43.9297 H   0  0  0  0  0  0  0  0  0  0  0  0
   57.6946   34.7155   44.4439 H   0  0  0  0  0  0  0  0  0  0  0  0
   61.7164   35.0930   47.0806 H   0  0  0  0  0  0  0  0  0  0  0  0
   63.5831   34.2392   47.4235 H   0  0  0  0  0  0  0  0  0  0  0  0
   65.5280   33.7013   48.8692 H   0  0  0  0  0  0  0  0  0  0  0  0
   67.2216   32.7650   51.7059 H   0  0  0  0  0  0  0  0  0  0  0  0
   67.7086   32.0098   50.1506 H   0  0  0  0  0  0  0  0  0  0  0  0
   66.6859   33.4864   50.1506 H   0  0  0  0  0  0  0  0  0  0  0  0
   65.6709   30.8901   52.6461 H   0  0  0  0  0  0  0  0  0  0  0  0
   64.7430   29.9688   51.4144 H   0  0  0  0  0  0  0  0  0  0  0  0
   66.5384   29.9117   51.4144 H   0  0  0  0  0  0  0  0  0  0  0  0
   63.3101   30.4223   50.6287 H   0  0  0  0  0  0  0  0  0  0  0  0
   61.3645   30.9638   49.1808 H   0  0  0  0  0  0  0  0  0  0  0  0
   58.6083   30.1826   46.3479 H   0  0  0  0  0  0  0  0  0  0  0  0
  1  2  1  0
  2  3  1  0
  3  4  1  0
  4  5  1  0
  5  6  1  0
  6  7  1  0
  7  8  1  0
  8  9  1  0
  9 10  2  0
 10 11  1  0
 11 12  2  0
 12 13  1  0
 13 14  2  0
 13 15  1  0
 15 16  2  0
 16 17  1  0
 17 18  2  0
 18 19  1  0
 19 20  2  0
 20 21  1  0
 21 22  1  0
 21 23  1  0
 20 24  1  0
 24 25  2  0
 16 26  1  0
 26 27  1  0
 27 28  2  0
 28  9  1  0
 27 12  1  0
 25 17  1  0
  1 29  1  0
  1 30  1  0
  1 31  1  0
  2 32  1  0
  2 33  1  0
  3 34  1  0
  3 35  1  0
  4 36  1  0
  4 37  1  0
  5 38  1  0
  6 39  1  0
  6 40  1  0
  7 41  1  0
  7 42  1  0
 10 43  1  0
 11 44  1  0
 15 45  1  0
 18 46  1  0
 19 47  1  0
 22 48  1  0
 22 49  1  0
 22 50  1  0
 23 51  1  0
 23 52  1  0
 23 53  1  0
 24 54  1  0
 25 55  1  0
 28 56  1  0
M  END
>  <UniqueID>  (9) 
9

>  <SMILES>  (9) 
CCCCNCCOc1ccc2c(=O)cc(-c3ccc(N(C)C)cc3)oc2c1

>  <Energy>  (9) 
60.73583016104156

>  <Genealogy>  (9) 
CCCCNCCOc1ccc2c(=O)cc(-c3ccc(N(C)C)cc3)oc2c1 (3D coordinates assigned)
CCCCNCCOc1ccc2c(=O)cc(-c3ccc(N(C)C)cc3)oc2c1 (optimized conformer: 60.73583016104156 kcal/mol)

>  <smiles>  (9) 
CCCCNCCOc1ccc2c(=O)cc(-c3ccc(N(C)C)cc3)oc2c1

>  <score_type>  (9) 
oracle

>  <origin>  (9) 
adg

>  <m_score__min__energy>  (9) 
-8.2899999999999991

>  <m_primary>  (9) 
energy

$$$$
9:0
     RDKit          3D

 42 42  0  0  0  0  0  0  0  0999 V2000
   58.4920   34.5220   44.8710 C   0  0  0  0  0  0  0  0  0  0  0  0
   57.0050   34.2160   44.9470 C   0  0  0  0  0  0  0  0  0  0  0  0
   56.7830   33.2510   45.9520 O   0  0  0  0  0  0  0  0  0  0  0  0
   57.7230   33.4230   46.9910 C   0  0  0  0  0  0  0  0  0  0  0  0
   58.5980   32.1670   47.1150 C   0  0  0  0  0  0  0  0  0  0  0  0
   58.0750   31.0320   46.2970 N   0  0  1  0  0  0  0  0  0  0  0  0
   58.5510   31.1200   44.8900 C   0  0  0  0  0  0  0  0  0  0  0  0
   57.3970   31.0380   43.8760 C   0  0  0  0  0  0  0  0  0  0  0  0
   56.2320   30.5710   44.5240 O   0  0  0  0  0  0  0  0  0  0  0  0
   55.5230   29.7170   43.6550 C   0  0  0  0  0  0  0  0  0  0  0  0
   58.4880   29.7370   46.9000 C   0  0  0  0  0  0  0  0  0  0  0  0
   58.3090   28.5830   45.9400 C   0  0  0  0  0  0  0  0  0  0  0  0
   57.1670   27.8090   45.8450 C   0  0  0  0  0  0  0  0  0  0  0  0
   57.4180   26.8590   44.8750 C   0  0  0  0  0  0  0  0  0  0  0  0
   58.7020   27.0860   44.4190 C   0  0  0  0  0  0  0  0  0  0  0  0
   59.2390   28.1380   45.0660 N   0  0  0  0  0  0  0  0  0  0  0  0
   60.6010   28.6380   44.8910 C   0  0  0  0  0  0  0  0  0  0  0  0
   58.9015   34.6063   45.8885 H   0  0  0  0  0  0  0  0  0  0  0  0
   59.0063   33.7109   44.3348 H   0  0  0  0  0  0  0  0  0  0  0  0
   58.6443   35.4703   44.3348 H   0  0  0  0  0  0  0  0  0  0  0  0
   56.4518   35.1351   45.1902 H   0  0  0  0  0  0  0  0  0  0  0  0
   56.6563   33.8290   43.9782 H   0  0  0  0  0  0  0  0  0  0  0  0
   58.3602   34.2911   46.7668 H   0  0  0  0  0  0  0  0  0  0  0  0
   57.1900   33.5890   47.9388 H   0  0  0  0  0  0  0  0  0  0  0  0
   59.6157   32.4093   46.7750 H   0  0  0  0  0  0  0  0  0  0  0  0
   58.5921   31.8541   48.1695 H   0  0  0  0  0  0  0  0  0  0  0  0
   57.0280   31.0640   46.2930 H   0  0  0  0  0  0  0  0  0  0  0  0
   59.0745   32.0777   44.7531 H   0  0  0  0  0  0  0  0  0  0  0  0
   59.2201   30.2661   44.7075 H   0  0  0  0  0  0  0  0  0  0  0  0
   57.2071   32.0365   43.4553 H   0  0  0  0  0  0  0  0  0  0  0  0
   57.6691   30.3444   43.0668 H   0  0  0  0  0  0  0  0  0  0  0  0
   54.9302   29.0030   44.2456 H   0  0  0  0  0  0  0  0  0  0  0  0
   54.8517   30.3145   43.0207 H   0  0  0  0  0  0  0  0  0  0  0  0
   56.2338   29.1671   43.0207 H   0  0  0  0  0  0  0  0  0  0  0  0
   59.5484   29.8003   47.1856 H   0  0  0  0  0  0  0  0  0  0  0  0
   57.8503   29.5517   47.7770 H   0  0  0  0  0  0  0  0  0  0  0  0
   56.2413   27.9269   46.4273 H   0  0  0  0  0  0  0  0  0  0  0  0
   56.7288   26.0734   44.5317 H   0  0  0  0  0  0  0  0  0  0  0  0
   59.2103   26.4953   43.6427 H   0  0  0  0  0  0  0  0  0  0  0  0
   61.0593   28.8062   45.8767 H   0  0  0  0  0  0  0  0  0  0  0  0
   61.1940   27.8989   44.3323 H   0  0  0  0  0  0  0  0  0  0  0  0
   60.5749   29.5852   44.3323 H   0  0  0  0  0  0  0  0  0  0  0  0
  1  2  1  0
  2  3  1  0
  3  4  1  0
  4  5  1  0
  5  6  1  0
  6  7  1  0
  7  8  1  0
  8  9  1  0
  9 10  1  0
  6 11  1  0
 11 12  1  0
 12 13  2  0
 13 14  1  0
 14 15  2  0
 15 16  1  0
 16 17  1  0
 16 12  1  0
  1 18  1  0
  1 19  1  0
  1 20  1  0
  2 21  1  0
  2 22  1  0
  4 23  1  0
  4 24  1  0
  5 25  1  0
  5 26  1  0
  6 27  1  6
  7 28  1  0
  7 29  1  0
  8 30  1  0
  8 31  1  0
 10 32  1  0
 10 33  1  0
 10 34  1  0
 11 35  1  0
 11 36  1  0
 13 37  1  0
 14 38  1  0
 15 39  1  0
 17 40  1  0
 17 41  1  0
 17 42  1  0
M  CHG  1   6   1
M  END
>  <UniqueID>  (10) 
10

>  <SMILES>  (10) 
CCOCC[N@@H+](CCOC)Cc1cccn1C

>  <Energy>  (10) 
65.01116930982974

>  <Genealogy>  (10) 
CCOCC[NH+](CCOC)Cc1cccn1C (protonated)
CCOCC[N@@H+](CCOC)Cc1cccn1C (chirality)
CCOCC[N@@H+](CCOC)Cc1cccn1C (3D coordinates assigned)
CCOCC[N@@H+](CCOC)Cc1cccn1C (optimized conformer: 65.01116930982974 kcal/mol)

>  <smiles>  (10) 
CCOCCN(CCOC)Cc1cccn1C

>  <score_type>  (10) 
oracle

>  <origin>  (10) 
adg

>  <m_score__min__energy>  (10) 
-2.8700000000000001

>  <m_primary>  (10) 
energy

$$$$
10:0
     RDKit          3D

 62 66  0  0  0  0  0  0  0  0999 V2000
   58.5710   32.0130   50.5650 C   0  0  0  0  0  0  0  0  0  0  0  0
   58.5280   30.5840   51.1050 C   0  0  0  0  0  0  0  0  0  0  0  0
   59.8790   30.0430   51.3650 N   0  0  0  0  0  0  0  0  0  0  0  0
   60.3680   30.4750   52.6860 C   0  0  0  0  0  0  0  0  0  0  0  0
   60.0360   28.5820   51.1430 C   0  0  0  0  0  0  0  0  0  0  0  0
   60.0720   28.1390   49.6650 C   0  0  0  0  0  0  0  0  0  0  0  0
   60.0030   29.2520   48.7770 O   0  0  0  0  0  0  0  0  0  0  0  0
   60.9860   30.2480   48.6270 C   0  0  0  0  0  0  0  0  0  0  0  0
   61.9020   30.5120   49.6090 N   0  0  0  0  0  0  0  0  0  0  0  0
   62.8620   31.4700   49.4520 C   0  0  0  0  0  0  0  0  0  0  0  0
   63.7920   31.7240   50.4740 C   0  0  0  0  0  0  0  0  0  0  0  0
   64.7750   32.7030   50.3040 C   0  0  0  0  0  0  0  0  0  0  0  0
   64.8400   33.4350   49.1160 C   0  0  0  0  0  0  0  0  0  0  0  0
   63.9210   33.1940   48.0910 C   0  0  0  0  0  0  0  0  0  0  0  0
   62.9300   32.2140   48.2530 C   0  0  0  0  0  0  0  0  0  0  0  0
   62.0010   31.9560   47.2410 C   0  0  0  0  0  0  0  0  0  0  0  0
   61.0110   30.9890   47.4330 C   0  0  0  0  0  0  0  0  0  0  0  0
   60.0700   30.6870   46.3460 C   0  0  0  0  0  0  0  0  0  0  0  0
   60.0590   29.4510   45.7850 N   0  0  0  0  0  0  0  0  0  0  0  0
   58.9920   29.4870   44.9760 C   0  0  0  0  0  0  0  0  0  0  0  0
   58.5080   28.4580   44.1730 C   0  0  0  0  0  0  0  0  0  0  0  0
   57.3420   28.7020   43.4260 C   0  0  0  0  0  0  0  0  0  0  0  0
   56.6930   29.9540   43.5070 C   0  0  0  0  0  0  0  0  0  0  0  0
   57.2080   30.9710   44.3310 C   0  0  0  0  0  0  0  0  0  0  0  0
   58.3770   30.7010   45.0520 C   0  0  0  0  0  0  0  0  0  0  0  0
   59.0520   31.4980   45.9090 N   0  0  0  0  0  0  0  0  0  0  0  0
   58.7370   32.9290   46.1440 C   0  0  0  0  0  0  0  0  0  0  0  0
   58.9560   33.4590   47.5590 C   0  0  0  0  0  0  0  0  0  0  0  0
   59.0230   34.9650   47.3830 C   0  0  0  0  0  0  0  0  0  0  0  0
   59.6480   35.1900   46.0090 C   0  0  0  0  0  0  0  0  0  0  0  0
   59.6050   33.8450   45.2830 C   0  0  0  0  0  0  0  0  0  0  0  0
   58.5923   32.7221   51.4056 H   0  0  0  0  0  0  0  0  0  0  0  0
   59.4735   32.1457   49.9503 H   0  0  0  0  0  0  0  0  0  0  0  0
   57.6781   32.1997   49.9503 H   0  0  0  0  0  0  0  0  0  0  0  0
   57.9572   30.5779   52.0453 H   0  0  0  0  0  0  0  0  0  0  0  0
   58.0518   29.9498   50.3428 H   0  0  0  0  0  0  0  0  0  0  0  0
   59.7928   29.9669   53.4740 H   0  0  0  0  0  0  0  0  0  0  0  0
   61.4328   30.2172   52.7851 H   0  0  0  0  0  0  0  0  0  0  0  0
   60.2435   31.5634   52.7851 H   0  0  0  0  0  0  0  0  0  0  0  0
   60.9777   28.2659   51.6155 H   0  0  0  0  0  0  0  0  0  0  0  0
   59.1433   28.1105   51.5799 H   0  0  0  0  0  0  0  0  0  0  0  0
   61.0088   27.5931   49.4796 H   0  0  0  0  0  0  0  0  0  0  0  0
   59.1976   27.4982   49.4787 H   0  0  0  0  0  0  0  0  0  0  0  0
   61.8780   29.9780   50.5030 H   0  0  0  0  0  0  0  0  0  0  0  0
   63.7464   31.1503   51.4114 H   0  0  0  0  0  0  0  0  0  0  0  0
   65.4998   32.8977   51.1083 H   0  0  0  0  0  0  0  0  0  0  0  0
   65.6166   34.2032   48.9869 H   0  0  0  0  0  0  0  0  0  0  0  0
   63.9746   33.7727   47.1571 H   0  0  0  0  0  0  0  0  0  0  0  0
   62.0493   32.5138   46.2942 H   0  0  0  0  0  0  0  0  0  0  0  0
   59.0208   27.4861   44.1245 H   0  0  0  0  0  0  0  0  0  0  0  0
   56.9334   27.9145   42.7757 H   0  0  0  0  0  0  0  0  0  0  0  0
   55.7791   30.1348   42.9220 H   0  0  0  0  0  0  0  0  0  0  0  0
   56.7078   31.9478   44.4064 H   0  0  0  0  0  0  0  0  0  0  0  0
   57.6633   32.9494   45.9060 H   0  0  0  0  0  0  0  0  0  0  0  0
   58.1184   33.1792   48.2149 H   0  0  0  0  0  0  0  0  0  0  0  0
   59.8617   33.0478   48.0288 H   0  0  0  0  0  0  0  0  0  0  0  0
   58.0140   35.4015   47.4221 H   0  0  0  0  0  0  0  0  0  0  0  0
   59.6109   35.4424   48.1808 H   0  0  0  0  0  0  0  0  0  0  0  0
   59.0727   35.9419   45.4490 H   0  0  0  0  0  0  0  0  0  0  0  0
   60.6803   35.5591   46.0988 H   0  0  0  0  0  0  0  0  0  0  0  0
   59.1607   33.9641   44.2838 H   0  0  0  0  0  0  0  0  0  0  0  0
   60.6141   33.4299   45.1440 H   0  0  0  0  0  0  0  0  0  0  0  0
  1  2  1  0
  2  3  1  0
  3  4  1  0
  3  5  1  0
  5  6  1  0
  6  7  1  0
  7  8  1  0
  8  9  2  0
  9 10  1  0
 10 11  2  0
 11 12  1  0
 12 13  2  0
 13 14  1  0
 14 15  2  0
 15 16  1  0
 16 17  2  0
 17 18  1  0
 18 19  2  0
 19 20  1  0
 20 21  2  0
 21 22  1  0
 22 23  2  0
 23 24  1  0
 24 25  2  0
 25 26  1  0
 26 27  1  0
 27 28  1  0
 28 29  1  0
 29 30  1  0
 30 31  1  0
 17  8  1  0
 26 18  1  0
 31 27  1  0
 15 10  1  0
 25 20  1  0
  1 32  1  0
  1 33  1  0
  1 34  1  0
  2 35  1  0
  2 36  1  0
  4 37  1  0
  4 38  1  0
  4 39  1  0
  5 40  1  0
  5 41  1  0
  6 42  1  0
  6 43  1  0
  9 44  1  0
 11 45  1  0
 12 46  1  0
 13 47  1  0
 14 48  1  0
 16 49  1  0
 21 50  1  0
 22 51  1  0
 23 52  1  0
 24 53  1  0
 27 54  1  0
 28 55  1  0
 28 56  1  0
 29 57  1  0
 29 58  1  0
 30 59  1  0
 30 60  1  0
 31 61  1  0
 31 62  1  0
M  CHG  1   9   1
M  END
>  <UniqueID>  (11) 
11

>  <SMILES>  (11) 
CCN(C)CCOc1[nH+]c2ccccc2cc1-c1nc2ccccc2n1C1CCCC1

>  <Energy>  (11) 
122.25798630410331

>  <Genealogy>  (11) 
CCN(C)CCOc1[nH+]c2ccccc2cc1-c1nc2ccccc2n1C1CCCC1 (protonated)
CCN(C)CCOc1[nH+]c2ccccc2cc1-c1nc2ccccc2n1C1CCCC1 (3D coordinates assigned)
CCN(C)CCOc1[nH+]c2ccccc2cc1-c1nc2ccccc2n1C1CCCC1 (nonaromatic ring conformer: 122.25798630410331 kcal/mol)

>  <smiles>  (11) 
CCN(C)CCOc1nc2ccccc2cc1-c1nc2ccccc2n1C1CCCC1

>  <score_type>  (11) 
oracle

>  <origin>  (11) 
adg

>  <m_score__min__energy>  (11) 
-7.2699999999999996

>  <m_primary>  (11) 
energy

$$$$
11:0
     RDKit          3D

 40 40  0  0  0  0  0  0  0  0999 V2000
   63.6940   33.1360   47.1890 C   0  0  0  0  0  0  0  0  0  0  0  0
   62.5610   33.8630   46.4730 C   0  0  0  0  0  0  0  0  0  0  0  0
   61.2920   33.1680   46.6800 N   0  0  0  0  0  0  0  0  0  0  0  0
   60.0270   33.7690   46.3690 C   0  0  0  0  0  0  0  0  0  0  0  0
   59.9830   34.9260   45.8710 O   0  0  0  0  0  0  0  0  0  0  0  0
   58.7610   32.9880   46.5750 C   0  0  0  0  0  0  0  0  0  0  0  0
   58.9210   31.9580   47.6170 N   0  0  0  0  0  0  0  0  0  0  0  0
   58.5210   32.2730   49.0000 C   0  0  0  0  0  0  0  0  0  0  0  0
   59.5620   33.1560   49.6850 C   0  0  0  0  0  0  0  0  0  0  0  0
   59.3560   30.6100   47.3020 C   0  0  0  0  0  0  0  0  0  0  0  0
   60.5900   30.3550   47.2460 O   0  0  0  0  0  0  0  0  0  0  0  0
   58.3940   29.4660   47.0870 C   0  0  0  0  0  0  0  0  0  0  0  0
   58.4190   28.9480   45.7090 N   0  0  0  0  0  0  0  0  0  0  0  0
   57.4520   29.0640   44.7680 C   0  0  0  0  0  0  0  0  0  0  0  0
   56.2660   29.8680   44.8660 N   0  0  0  0  0  0  0  0  0  0  0  0
   55.1470   29.3150   44.8560 O   0  0  0  0  0  0  0  0  0  0  0  0
   56.3250   31.2340   44.7330 O   0  0  0  0  0  0  0  0  0  0  0  0
   57.7370   28.2220   43.7170 C   0  0  0  0  0  0  0  0  0  0  0  0
   58.8710   27.5510   43.9840 N   0  0  0  0  0  0  0  0  0  0  0  0
   59.2500   27.9970   45.2020 C   0  0  0  0  0  0  0  0  0  0  0  0
   60.4430   27.4320   45.9080 C   0  0  0  0  0  0  0  0  0  0  0  0
   63.5566   33.2242   48.2768 H   0  0  0  0  0  0  0  0  0  0  0  0
   63.6864   32.0738   46.9034 H   0  0  0  0  0  0  0  0  0  0  0  0
   64.6564   33.5856   46.9034 H   0  0  0  0  0  0  0  0  0  0  0  0
   62.4814   34.8864   46.8683 H   0  0  0  0  0  0  0  0  0  0  0  0
   62.7804   33.8873   45.3954 H   0  0  0  0  0  0  0  0  0  0  0  0
   61.3100   32.2190   47.1180 H   0  0  0  0  0  0  0  0  0  0  0  0
   57.9604   33.6794   46.8767 H   0  0  0  0  0  0  0  0  0  0  0  0
   58.5104   32.4844   45.6297 H   0  0  0  0  0  0  0  0  0  0  0  0
   57.5563   32.8013   48.9836 H   0  0  0  0  0  0  0  0  0  0  0  0
   58.4362   31.3316   49.5626 H   0  0  0  0  0  0  0  0  0  0  0  0
   59.4572   33.0671   50.7764 H   0  0  0  0  0  0  0  0  0  0  0  0
   60.5703   32.8335   49.3860 H   0  0  0  0  0  0  0  0  0  0  0  0
   59.4083   34.2034   49.3860 H   0  0  0  0  0  0  0  0  0  0  0  0
   58.6607   28.6493   47.7739 H   0  0  0  0  0  0  0  0  0  0  0  0
   57.3799   29.8469   47.2783 H   0  0  0  0  0  0  0  0  0  0  0  0
   57.1330   28.1151   42.8039 H   0  0  0  0  0  0  0  0  0  0  0  0
   60.2932   27.5030   46.9954 H   0  0  0  0  0  0  0  0  0  0  0  0
   60.5718   26.3772   45.6237 H   0  0  0  0  0  0  0  0  0  0  0  0
   61.3407   28.0006   45.6237 H   0  0  0  0  0  0  0  0  0  0  0  0
  1  2  1  0
  2  3  1  0
  3  4  1  0
  4  5  2  0
  4  6  1  0
  6  7  1  0
  7  8  1  0
  8  9  1  0
  7 10  1  0
 10 11  2  0
 10 12  1  0
 12 13  1  0
 13 14  1  0
 14 15  1  0
 15 16  2  0
 15 17  1  0
 14 18  2  0
 18 19  1  0
 19 20  2  0
 20 21  1  0
 20 13  1  0
  1 22  1  0
  1 23  1  0
  1 24  1  0
  2 25  1  0
  2 26  1  0
  3 27  1  0
  6 28  1  0
  6 29  1  0
  8 30  1  0
  8 31  1  0
  9 32  1  0
  9 33  1  0
  9 34  1  0
 12 35  1  0
 12 36  1  0
 18 37  1  0
 21 38  1  0
 21 39  1  0
 21 40  1  0
M  CHG  2  15   1  17  -1
M  END
>  <UniqueID>  (12) 
12

>  <SMILES>  (12) 
CCNC(=O)CN(CC)C(=O)Cn1c([N+](=O)[O-])cnc1C

>  <Energy>  (12) 
59.88350760517445

>  <Genealogy>  (12) 
CCNC(=O)CN(CC)C(=O)Cn1c([N+](=O)[O-])cnc1C (3D coordinates assigned)
CCNC(=O)CN(CC)C(=O)Cn1c([N+](=O)[O-])cnc1C (optimized conformer: 59.88350760517445 kcal/mol)

>  <smiles>  (12) 
CCNC(=O)CN(CC)C(=O)Cn1c([N+](=O)[O-])cnc1C

>  <score_type>  (12) 
oracle

>  <origin>  (12) 
adg

>  <m_score__min__energy>  (12) 
-7.2000000000000002

>  <m_primary>  (12) 
energy

$$$$
12:0
     RDKit          3D

 56 58  0  0  0  0  0  0  0  0999 V2000
   58.2760   30.8090   50.4910 C   0  0  0  0  0  0  0  0  0  0  0  0
   58.2330   32.2610   50.0240 C   0  0  0  0  0  0  0  0  0  0  0  0
   59.4070   32.9970   50.5150 N   0  0  0  0  0  0  0  0  0  0  0  0
   59.8910   34.0110   49.5560 C   0  0  0  0  0  0  0  0  0  0  0  0
   61.3990   33.9030   49.2830 C   0  0  0  0  0  0  0  0  0  0  0  0
   61.8930   32.6680   49.7580 O   0  0  0  0  0  0  0  0  0  0  0  0
   62.7770   32.1230   48.7980 C   0  0  0  0  0  0  0  0  0  0  0  0
   62.0030   31.2100   47.8490 C   0  0  0  0  0  0  0  0  0  0  0  0
   60.5710   31.2410   48.1530 N   0  0  0  0  0  0  0  0  0  0  0  0
   59.5790   31.0460   47.1290 C   0  0  0  0  0  0  0  0  0  0  0  0
   59.2270   32.1070   46.2720 C   0  0  0  0  0  0  0  0  0  0  0  0
   59.8960   33.3480   46.3450 C   0  0  0  0  0  0  0  0  0  0  0  0
   59.5670   34.3880   45.4780 C   0  0  0  0  0  0  0  0  0  0  0  0
   58.5880   34.2040   44.5100 C   0  0  0  0  0  0  0  0  0  0  0  0
   57.9240   32.9810   44.4080 C   0  0  0  0  0  0  0  0  0  0  0  0
   58.2100   31.9130   45.2980 C   0  0  0  0  0  0  0  0  0  0  0  0
   57.5500   30.7010   45.2160 N   0  0  0  0  0  0  0  0  0  0  0  0
   56.3110   30.5870   44.4140 C   0  0  0  0  0  0  0  0  0  0  0  0
   58.0290   29.6050   45.9110 C   0  0  0  0  0  0  0  0  0  0  0  0
   57.5560   28.2930   45.6520 C   0  0  0  0  0  0  0  0  0  0  0  0
   57.9490   27.2070   46.4380 C   0  0  0  0  0  0  0  0  0  0  0  0
   57.4160   25.9080   46.1310 N   0  0  0  0  0  0  0  0  0  0  0  0
   56.0690   25.6070   45.7500 C   0  0  0  0  0  0  0  0  0  0  0  0
   55.7930   24.3800   44.9450 C   0  0  0  0  0  0  0  0  0  0  0  0
   55.1290   26.4140   46.0020 O   0  0  0  0  0  0  0  0  0  0  0  0
   58.8840   27.4010   47.4610 C   0  0  0  0  0  0  0  0  0  0  0  0
   59.4090   28.6670   47.6990 C   0  0  0  0  0  0  0  0  0  0  0  0
   59.0140   29.7750   46.9180 C   0  0  0  0  0  0  0  0  0  0  0  0
   58.2769   30.7774   51.5905 H   0  0  0  0  0  0  0  0  0  0  0  0
   57.3933   30.2749   50.1096 H   0  0  0  0  0  0  0  0  0  0  0  0
   59.1888   30.3280   50.1096 H   0  0  0  0  0  0  0  0  0  0  0  0
   58.2238   32.2870   48.9243 H   0  0  0  0  0  0  0  0  0  0  0  0
   57.3244   32.7353   50.4232 H   0  0  0  0  0  0  0  0  0  0  0  0
   60.1690   32.3170   50.7460 H   0  0  0  0  0  0  0  0  0  0  0  0
   59.3520   33.8812   48.6059 H   0  0  0  0  0  0  0  0  0  0  0  0
   59.7056   35.0004   49.9996 H   0  0  0  0  0  0  0  0  0  0  0  0
   61.5783   33.9738   48.2000 H   0  0  0  0  0  0  0  0  0  0  0  0
   61.9177   34.7215   49.8036 H   0  0  0  0  0  0  0  0  0  0  0  0
   63.2419   32.9381   48.2240 H   0  0  0  0  0  0  0  0  0  0  0  0
   63.5579   31.5409   49.3093 H   0  0  0  0  0  0  0  0  0  0  0  0
   62.1598   31.5487   46.8143 H   0  0  0  0  0  0  0  0  0  0  0  0
   62.3684   30.1799   47.9732 H   0  0  0  0  0  0  0  0  0  0  0  0
   60.2750   31.6430   49.0710 H   0  0  0  0  0  0  0  0  0  0  0  0
   60.6866   33.4957   47.0954 H   0  0  0  0  0  0  0  0  0  0  0  0
   60.0832   35.3559   45.5602 H   0  0  0  0  0  0  0  0  0  0  0  0
   58.3355   35.0244   43.8221 H   0  0  0  0  0  0  0  0  0  0  0  0
   57.1653   32.8421   43.6238 H   0  0  0  0  0  0  0  0  0  0  0  0
   55.4446   30.5073   45.0870 H   0  0  0  0  0  0  0  0  0  0  0  0
   56.2016   31.4789   43.7795 H   0  0  0  0  0  0  0  0  0  0  0  0
   56.3661   29.6901   43.7795 H   0  0  0  0  0  0  0  0  0  0  0  0
   56.8640   28.1269   44.8132 H   0  0  0  0  0  0  0  0  0  0  0  0
   55.6025   23.5332   45.6208 H   0  0  0  0  0  0  0  0  0  0  0  0
   54.9103   24.5485   44.3106 H   0  0  0  0  0  0  0  0  0  0  0  0
   56.6628   24.1543   44.3106 H   0  0  0  0  0  0  0  0  0  0  0  0
   59.2049   26.5495   48.0790 H   0  0  0  0  0  0  0  0  0  0  0  0
   60.1422   28.8069   48.5070 H   0  0  0  0  0  0  0  0  0  0  0  0
  1  2  1  0
  2  3  1  0
  3  4  1  0
  4  5  1  0
  5  6  1  0
  6  7  1  0
  7  8  1  0
  8  9  1  0
  9 10  1  0
 10 11  2  0
 11 12  1  0
 12 13  2  0
 13 14  1  0
 14 15  2  0
 15 16  1  0
 16 17  2  0
 17 18  1  0
 17 19  1  0
 19 20  2  0
 20 21  1  0
 21 22  1  0
 22 23  1  0
 23 24  1  0
 23 25  2  0
 21 26  2  0
 26 27  1  0
 27 28  2  0
 28 10  1  0
 16 11  1  0
 28 19  1  0
  1 29  1  0
  1 30  1  0
  1 31  1  0
  2 32  1  0
  2 33  1  0
  3 34  1  0
  4 35  1  0
  4 36  1  0
  5 37  1  0
  5 38  1  0
  7 39  1  0
  7 40  1  0
  8 41  1  0
  8 42  1  0
  9 43  1  0
 12 44  1  0
 13 45  1  0
 14 46  1  0
 15 47  1  0
 18 48  1  0
 18 49  1  0
 18 50  1  0
 20 51  1  0
 24 52  1  0
 24 53  1  0
 24 54  1  0
 26 55  1  0
 27 56  1  0
M  CHG  2  17   1  22  -1
M  END
>  <UniqueID>  (13) 
13

>  <SMILES>  (13) 
CCNCCOCCNc1c2ccccc2[n+](C)c2cc([N-]C(C)=O)ccc12

>  <Energy>  (13) 
76.76343779486552

>  <Genealogy>  (13) 
CCNCCOCCNc1c2ccccc2[n+](C)c2cc([N-]C(C)=O)ccc12 (protonated)
CCNCCOCCNc1c2ccccc2[n+](C)c2cc([N-]C(C)=O)ccc12 (3D coordinates assigned)
CCNCCOCCNc1c2ccccc2[n+](C)c2cc([N-]C(C)=O)ccc12 (optimized conformer: 76.76343779486552 kcal/mol)

>  <smiles>  (13) 
CCNCCOCCNc1c2ccccc2[n+](C)c2cc(NC(C)=O)ccc12

>  <score_type>  (13) 
oracle

>  <origin>  (13) 
adg

>  <m_score__min__energy>  (13) 
-8.0399999999999991

>  <m_primary>  (13) 
energy

$$$$
13:0
     RDKit          3D

 65 68  0  0  0  0  0  0  0  0999 V2000
   56.9240   21.7310   43.0460 C   0  0  0  0  0  0  0  0  0  0  0  0
   56.4040   23.1050   43.4600 C   0  0  0  0  0  0  0  0  0  0  0  0
   57.3390   23.7710   44.4810 C   0  0  0  0  0  0  0  0  0  0  0  0
   56.7830   25.0490   44.9900 N   0  0  0  0  0  0  0  0  0  0  0  0
   56.2560   24.9700   46.3770 C   0  0  0  0  0  0  0  0  0  0  0  0
   56.9280   23.8920   47.2510 C   0  0  0  0  0  0  0  0  0  0  0  0
   55.8830   23.0200   47.9420 C   0  0  0  0  0  0  0  0  0  0  0  0
   57.7390   26.1700   44.8330 C   0  0  0  0  0  0  0  0  0  0  0  0
   58.8670   26.1330   45.8830 C   0  0  0  0  0  0  0  0  0  0  0  0
   59.9140   27.1550   45.6840 N   0  0  0  0  0  0  0  0  0  0  0  0
   59.8660   28.2170   46.6800 C   0  0  0  0  0  0  0  0  0  0  0  0
   59.4910   29.5110   46.2690 C   0  0  0  0  0  0  0  0  0  0  0  0
   59.5710   30.5980   47.1690 C   0  0  0  0  0  0  0  0  0  0  0  0
   59.6840   30.3430   48.5180 N   0  0  0  0  0  0  0  0  0  0  0  0
   59.2420   31.3590   49.4980 C   0  0  0  0  0  0  0  0  0  0  0  0
   60.0900   29.1010   48.9600 C   0  0  0  0  0  0  0  0  0  0  0  0
   60.4250   28.8880   50.3220 C   0  0  0  0  0  0  0  0  0  0  0  0
   60.8140   27.6360   50.7840 C   0  0  0  0  0  0  0  0  0  0  0  0
   60.8810   26.5640   49.9080 C   0  0  0  0  0  0  0  0  0  0  0  0
   60.5710   26.7370   48.5620 C   0  0  0  0  0  0  0  0  0  0  0  0
   60.1920   28.0060   48.0500 C   0  0  0  0  0  0  0  0  0  0  0  0
   59.5900   32.0110   46.6350 C   0  0  0  0  0  0  0  0  0  0  0  0
   60.4150   32.9830   47.2350 C   0  0  0  0  0  0  0  0  0  0  0  0
   60.4190   34.3040   46.7790 C   0  0  0  0  0  0  0  0  0  0  0  0
   59.6190   34.6790   45.6910 C   0  0  0  0  0  0  0  0  0  0  0  0
   59.6430   36.0860   45.1730 C   0  0  0  0  0  0  0  0  0  0  0  0
   58.8680   33.7040   45.0270 C   0  0  0  0  0  0  0  0  0  0  0  0
   58.8720   32.3780   45.4800 C   0  0  0  0  0  0  0  0  0  0  0  0
   58.1300   31.1320   44.5170 S   0  0  0  0  0  0  0  0  0  0  0  0
   56.6650   31.0060   44.8280 O   0  0  0  0  0  0  0  0  0  0  0  0
   58.3360   31.4060   43.0530 O   0  0  0  0  0  0  0  0  0  0  0  0
   58.9610   29.6900   44.9500 N   0  0  0  0  0  0  0  0  0  0  0  0
   57.1485   21.1378   43.9448 H   0  0  0  0  0  0  0  0  0  0  0  0
   56.1591   21.2146   42.4474 H   0  0  0  0  0  0  0  0  0  0  0  0
   57.8391   21.8504   42.4474 H   0  0  0  0  0  0  0  0  0  0  0  0
   56.3331   23.7450   42.5682 H   0  0  0  0  0  0  0  0  0  0  0  0
   55.4159   22.9764   43.9261 H   0  0  0  0  0  0  0  0  0  0  0  0
   57.4866   23.0851   45.3282 H   0  0  0  0  0  0  0  0  0  0  0  0
   58.2920   23.9907   43.9775 H   0  0  0  0  0  0  0  0  0  0  0  0
   56.4066   25.9473   46.8589 H   0  0  0  0  0  0  0  0  0  0  0  0
   55.1947   24.6925   46.2953 H   0  0  0  0  0  0  0  0  0  0  0  0
   57.5628   23.2574   46.6152 H   0  0  0  0  0  0  0  0  0  0  0  0
   57.5330   24.3920   48.0217 H   0  0  0  0  0  0  0  0  0  0  0  0
   55.9925   23.1113   49.0327 H   0  0  0  0  0  0  0  0  0  0  0  0
   54.8763   23.3497   47.6456 H   0  0  0  0  0  0  0  0  0  0  0  0
   56.0272   21.9705   47.6456 H   0  0  0  0  0  0  0  0  0  0  0  0
   58.1879   26.1134   43.8304 H   0  0  0  0  0  0  0  0  0  0  0  0
   57.1815   27.1078   44.9732 H   0  0  0  0  0  0  0  0  0  0  0  0
   58.4191   26.2870   46.8758 H   0  0  0  0  0  0  0  0  0  0  0  0
   59.3586   25.1539   45.7839 H   0  0  0  0  0  0  0  0  0  0  0  0
   59.8860   27.4880   44.7000 H   0  0  0  0  0  0  0  0  0  0  0  0
   60.8420   26.6780   45.7580 H   0  0  0  0  0  0  0  0  0  0  0  0
   59.4065   30.9808   50.5177 H   0  0  0  0  0  0  0  0  0  0  0  0
   59.8190   32.2842   49.3525 H   0  0  0  0  0  0  0  0  0  0  0  0
   58.1718   31.5676   49.3525 H   0  0  0  0  0  0  0  0  0  0  0  0
   60.3759   29.7310   51.0270 H   0  0  0  0  0  0  0  0  0  0  0  0
   61.0687   27.4960   51.8449 H   0  0  0  0  0  0  0  0  0  0  0  0
   61.1804   25.5723   50.2780 H   0  0  0  0  0  0  0  0  0  0  0  0
   60.6206   25.8739   47.8818 H   0  0  0  0  0  0  0  0  0  0  0  0
   61.0656   32.6978   48.0749 H   0  0  0  0  0  0  0  0  0  0  0  0
   61.0529   35.0529   47.2763 H   0  0  0  0  0  0  0  0  0  0  0  0
   59.6550   36.7882   46.0196 H   0  0  0  0  0  0  0  0  0  0  0  0
   60.5438   36.2356   44.5597 H   0  0  0  0  0  0  0  0  0  0  0  0
   58.7478   36.2663   44.5597 H   0  0  0  0  0  0  0  0  0  0  0  0
   58.2713   33.9793   44.1449 H   0  0  0  0  0  0  0  0  0  0  0  0
  1  2  1  0
  2  3  1  0
  3  4  1  0
  4  5  1  0
  5  6  1  0
  6  7  1  0
  4  8  1  0
  8  9  1  0
  9 10  1  0
 10 11  1  0
 11 12  2  0
 12 13  1  0
 13 14  2  0
 14 15  1  0
 14 16  1  0
 16 17  2  0
 17 18  1  0
 18 19  2  0
 19 20  1  0
 20 21  2  0
 13 22  1  0
 22 23  2  0
 23 24  1  0
 24 25  2  0
 25 26  1  0
 25 27  1  0
 27 28  2  0
 28 29  1  0
 29 30  2  0
 29 31  2  0
 29 32  1  0
 21 11  1  0
 28 22  1  0
 32 12  1  0
 21 16  1  0
  1 33  1  0
  1 34  1  0
  1 35  1  0
  2 36  1  0
  2 37  1  0
  3 38  1  0
  3 39  1  0
  5 40  1  0
  5 41  1  0
  6 42  1  0
  6 43  1  0
  7 44  1  0
  7 45  1  0
  7 46  1  0
  8 47  1  0
  8 48  1  0
  9 49  1  0
  9 50  1  0
 10 51  1  0
 10 52  1  0
 15 53  1  0
 15 54  1  0
 15 55  1  0
 17 56  1  0
 18 57  1  0
 19 58  1  0
 20 59  1  0
 23 60  1  0
 24 61  1  0
 26 62  1  0
 26 63  1  0
 26 64  1  0
 27 65  1  0
M  CHG  3  10   1  14   1  32  -1
M  END
>  <UniqueID>  (14) 
14

>  <SMILES>  (14) 
CCCN(CCC)CC[NH2+]c1c2c([n+](C)c3ccccc13)-c1ccc(C)cc1S(=O)(=O)[N-]2

>  <Energy>  (14) 
101.75105544724575

>  <Genealogy>  (14) 
CCCN(CCC)CC[NH2+]c1c2c([n+](C)c3ccccc13)-c1ccc(C)cc1S(=O)(=O)[N-]2 (protonated)
CCCN(CCC)CC[NH2+]c1c2c([n+](C)c3ccccc13)-c1ccc(C)cc1S(=O)(=O)[N-]2 (3D coordinates assigned)
CCCN(CCC)CC[NH2+]c1c2c([n+](C)c3ccccc13)-c1ccc(C)cc1S(=O)(=O)[N-]2 (nonaromatic ring conformer: 101.75105544724575 kcal/mol)

>  <smiles>  (14) 
CCCN(CCC)CCNc1c2c([n+](C)c3ccccc13)-c1ccc(C)cc1S(=O)(=O)N2

>  <score_type>  (14) 
oracle

>  <origin>  (14) 
adg

>  <m_score__min__energy>  (14) 
-5.8399999999999999

>  <m_primary>  (14) 
energy

$$$$
14:0
     RDKit          3D

 77 79  0  0  0  0  0  0  0  0999 V2000
   63.3450   33.8250   46.4050 C   0  0  0  0  0  0  0  0  0  0  0  0
   63.2310   32.4950   47.1420 C   0  0  0  0  0  0  0  0  0  0  0  0
   62.9310   32.7280   48.5730 N   0  0  0  0  0  0  0  0  0  0  0  0
   62.8380   34.1740   48.8820 C   0  0  0  0  0  0  0  0  0  0  0  0
   62.9860   34.4530   50.3770 C   0  0  0  0  0  0  0  0  0  0  0  0
   63.8430   31.9740   49.4680 C   0  0  0  0  0  0  0  0  0  0  0  0
   63.1390   30.9140   50.3440 C   0  0  0  0  0  0  0  0  0  0  0  0
   61.7340   30.9650   50.1780 O   0  0  0  0  0  0  0  0  0  0  0  0
   61.1660   29.6710   50.0590 C   0  0  0  0  0  0  0  0  0  0  0  0
   60.2740   29.6230   48.8080 C   0  0  0  0  0  0  0  0  0  0  0  0
   60.7680   30.4930   47.7210 N   0  0  0  0  0  0  0  0  0  0  0  0
   59.6950   31.0760   46.9200 C   0  0  0  0  0  0  0  0  0  0  0  0
   58.8850   30.2660   46.0930 C   0  0  0  0  0  0  0  0  0  0  0  0
   58.6850   28.8970   46.3750 C   0  0  0  0  0  0  0  0  0  0  0  0
   57.8930   28.1060   45.5470 C   0  0  0  0  0  0  0  0  0  0  0  0
   57.2620   28.6680   44.4440 C   0  0  0  0  0  0  0  0  0  0  0  0
   57.4250   30.0220   44.1570 C   0  0  0  0  0  0  0  0  0  0  0  0
   58.2550   30.8440   44.9600 C   0  0  0  0  0  0  0  0  0  0  0  0
   58.4630   32.1760   44.6660 N   0  0  0  0  0  0  0  0  0  0  0  0
   58.1170   32.7080   43.3290 C   0  0  0  0  0  0  0  0  0  0  0  0
   58.9650   33.0210   45.6390 C   0  0  0  0  0  0  0  0  0  0  0  0
   58.9170   34.4280   45.4900 C   0  0  0  0  0  0  0  0  0  0  0  0
   59.3910   35.2730   46.4850 C   0  0  0  0  0  0  0  0  0  0  0  0
   59.8460   34.7520   47.6870 C   0  0  0  0  0  0  0  0  0  0  0  0
   59.8730   33.3660   47.9010 C   0  0  0  0  0  0  0  0  0  0  0  0
   60.0460   32.8780   49.2450 N   0  0  0  0  0  0  0  0  0  0  0  0
   58.9690   32.8310   50.2330 C   0  0  0  0  0  0  0  0  0  0  0  0
   59.2640   33.8280   51.3740 C   0  0  0  0  0  0  0  0  0  0  0  0
   59.5560   33.2080   52.7030 N   0  0  0  0  0  0  0  0  0  0  0  0
   58.6530   32.0440   52.8720 C   0  0  0  0  0  0  0  0  0  0  0  0
   59.2960   34.1610   53.8100 C   0  0  0  0  0  0  0  0  0  0  0  0
   60.9570   32.7260   52.7770 C   0  0  0  0  0  0  0  0  0  0  0  0
   59.5240   32.4830   46.8350 C   0  0  0  0  0  0  0  0  0  0  0  0
   63.4152   34.6442   47.1357 H   0  0  0  0  0  0  0  0  0  0  0  0
   64.2459   33.8184   45.7738 H   0  0  0  0  0  0  0  0  0  0  0  0
   62.4561   33.9718   45.7738 H   0  0  0  0  0  0  0  0  0  0  0  0
   62.4224   31.8991   46.6935 H   0  0  0  0  0  0  0  0  0  0  0  0
   64.1858   31.9552   47.0585 H   0  0  0  0  0  0  0  0  0  0  0  0
   63.6360   34.7042   48.3415 H   0  0  0  0  0  0  0  0  0  0  0  0
   61.8432   34.5240   48.5690 H   0  0  0  0  0  0  0  0  0  0  0  0
   62.5460   33.6236   50.9501 H   0  0  0  0  0  0  0  0  0  0  0  0
   64.0527   34.5473   50.6286 H   0  0  0  0  0  0  0  0  0  0  0  0
   62.4658   35.3890   50.6286 H   0  0  0  0  0  0  0  0  0  0  0  0
   64.5930   31.4640   48.8456 H   0  0  0  0  0  0  0  0  0  0  0  0
   64.2874   32.7078   50.1565 H   0  0  0  0  0  0  0  0  0  0  0  0
   63.4984   29.9148   50.0568 H   0  0  0  0  0  0  0  0  0  0  0  0
   63.3733   31.1217   51.3985 H   0  0  0  0  0  0  0  0  0  0  0  0
   61.9684   28.9241   49.9675 H   0  0  0  0  0  0  0  0  0  0  0  0
   60.5626   29.4490   50.9516 H   0  0  0  0  0  0  0  0  0  0  0  0
   60.2387   28.5867   48.4407 H   0  0  0  0  0  0  0  0  0  0  0  0
   59.2769   29.9867   49.0971 H   0  0  0  0  0  0  0  0  0  0  0  0
   61.3620   31.2550   48.1200 H   0  0  0  0  0  0  0  0  0  0  0  0
   61.3900   29.8780   47.1540 H   0  0  0  0  0  0  0  0  0  0  0  0
   59.1610   28.4497   47.2601 H   0  0  0  0  0  0  0  0  0  0  0  0
   57.7667   27.0355   45.7662 H   0  0  0  0  0  0  0  0  0  0  0  0
   56.6317   28.0421   43.7952 H   0  0  0  0  0  0  0  0  0  0  0  0
   56.9016   30.4595   43.2941 H   0  0  0  0  0  0  0  0  0  0  0  0
   57.5205   33.6252   43.4425 H   0  0  0  0  0  0  0  0  0  0  0  0
   59.0396   32.9368   42.7754 H   0  0  0  0  0  0  0  0  0  0  0  0
   57.5338   31.9574   42.7754 H   0  0  0  0  0  0  0  0  0  0  0  0
   58.4967   34.8597   44.5697 H   0  0  0  0  0  0  0  0  0  0  0  0
   59.4056   36.3603   46.3190 H   0  0  0  0  0  0  0  0  0  0  0  0
   60.1891   35.4323   48.4804 H   0  0  0  0  0  0  0  0  0  0  0  0
   60.9910   32.5390   49.5400 H   0  0  0  0  0  0  0  0  0  0  0  0
   58.0180   33.0995   49.7499 H   0  0  0  0  0  0  0  0  0  0  0  0
   58.8995   31.8143   50.6472 H   0  0  0  0  0  0  0  0  0  0  0  0
   60.1358   34.4315   51.0813 H   0  0  0  0  0  0  0  0  0  0  0  0
   58.3454   34.4181   51.5082 H   0  0  0  0  0  0  0  0  0  0  0  0
   58.5022   31.8496   53.9441 H   0  0  0  0  0  0  0  0  0  0  0  0
   57.6838   32.2600   52.3986 H   0  0  0  0  0  0  0  0  0  0  0  0
   59.1031   31.1590   52.3986 H   0  0  0  0  0  0  0  0  0  0  0  0
   59.4354   33.6500   54.7741 H   0  0  0  0  0  0  0  0  0  0  0  0
   59.9964   35.0062   53.7383 H   0  0  0  0  0  0  0  0  0  0  0  0
   58.2634   34.5334   53.7383 H   0  0  0  0  0  0  0  0  0  0  0  0
   61.2544   32.6237   53.8311 H   0  0  0  0  0  0  0  0  0  0  0  0
   61.0356   31.7492   52.2774 H   0  0  0  0  0  0  0  0  0  0  0  0
   61.6199   33.4477   52.2774 H   0  0  0  0  0  0  0  0  0  0  0  0
  1  2  1  0
  2  3  1  0
  3  4  1  0
  4  5  1  0
  3  6  1  0
  6  7  1  0
  7  8  1  0
  8  9  1  0
  9 10  1  0
 10 11  1  0
 11 12  1  0
 12 13  2  0
 13 14  1  0
 14 15  2  0
 15 16  1  0
 16 17  2  0
 17 18  1  0
 18 19  2  0
 19 20  1  0
 19 21  1  0
 21 22  2  0
 22 23  1  0
 23 24  2  0
 24 25  1  0
 25 26  1  0
 26 27  1  0
 27 28  1  0
 28 29  1  0
 29 30  1  0
 29 31  1  0
 29 32  1  0
 25 33  2  0
 33 12  1  0
 18 13  1  0
 33 21  1  0
  1 34  1  0
  1 35  1  0
  1 36  1  0
  2 37  1  0
  2 38  1  0
  4 39  1  0
  4 40  1  0
  5 41  1  0
  5 42  1  0
  5 43  1  0
  6 44  1  0
  6 45  1  0
  7 46  1  0
  7 47  1  0
  9 48  1  0
  9 49  1  0
 10 50  1  0
 10 51  1  0
 11 52  1  0
 11 53  1  0
 14 54  1  0
 15 55  1  0
 16 56  1  0
 17 57  1  0
 20 58  1  0
 20 59  1  0
 20 60  1  0
 22 61  1  0
 23 62  1  0
 24 63  1  0
 26 64  1  0
 27 65  1  0
 27 66  1  0
 28 67  1  0
 28 68  1  0
 30 69  1  0
 30 70  1  0
 30 71  1  0
 31 72  1  0
 31 73  1  0
 31 74  1  0
 32 75  1  0
 32 76  1  0
 32 77  1  0
M  CHG  3  11   1  19   1  29   1
M  END
>  <UniqueID>  (15) 
15

>  <SMILES>  (15) 
CCN(CC)CCOCC[NH2+]c1c2ccccc2[n+](C)c2cccc(NCC[N+](C)(C)C)c12

>  <Energy>  (15) 
122.00172004925206

>  <Genealogy>  (15) 
CCN(CC)CCOCC[NH2+]c1c2ccccc2[n+](C)c2cccc(NCC[N+](C)(C)C)c12 (protonated)
CCN(CC)CCOCC[NH2+]c1c2ccccc2[n+](C)c2cccc(NCC[N+](C)(C)C)c12 (3D coordinates assigned)
CCN(CC)CCOCC[NH2+]c1c2ccccc2[n+](C)c2cccc(NCC[N+](C)(C)C)c12 (optimized conformer: 122.00172004925206 kcal/mol)

>  <smiles>  (15) 
CCN(CC)CCOCCNc1c2ccccc2[n+](C)c2cccc(NCC[N+](C)(C)C)c12

>  <score_type>  (15) 
oracle

>  <origin>  (15) 
adg

>  <m_score__min__energy>  (15) 
-2.52

>  <m_primary>  (15) 
energy

$$$$
15:0
     RDKit          3D

 40 42  0  0  0  0  0  0  0  0999 V2000
   57.6970   32.2560   41.3760 C   0  0  0  0  0  0  0  0  0  0  0  0
   57.7260   32.1660   42.8310 N   0  0  0  0  0  0  0  0  0  0  0  0
   58.4990   32.9260   43.5900 N   0  0  0  0  0  0  0  0  0  0  0  0
   58.3500   32.5190   44.8690 C   0  0  0  0  0  0  0  0  0  0  0  0
   59.1140   33.0860   46.0050 C   0  0  0  0  0  0  0  0  0  0  0  0
   60.0850   32.3280   46.6880 C   0  0  0  0  0  0  0  0  0  0  0  0
   60.8100   32.8890   47.7440 C   0  0  0  0  0  0  0  0  0  0  0  0
   60.5770   34.2110   48.1300 C   0  0  0  0  0  0  0  0  0  0  0  0
   61.2820   34.7520   49.1540 F   0  0  0  0  0  0  0  0  0  0  0  0
   59.6170   34.9740   47.4620 C   0  0  0  0  0  0  0  0  0  0  0  0
   58.8910   34.4170   46.4050 C   0  0  0  0  0  0  0  0  0  0  0  0
   57.4530   31.4610   44.9150 C   0  0  0  0  0  0  0  0  0  0  0  0
   57.0950   31.2550   43.5990 C   0  0  0  0  0  0  0  0  0  0  0  0
   56.2640   30.1120   43.0900 C   0  0  0  0  0  0  0  0  0  0  0  0
   57.0250   28.8530   43.1430 N   0  0  0  0  0  0  0  0  0  0  0  0
   57.0300   28.2440   44.4830 C   0  0  0  0  0  0  0  0  0  0  0  0
   58.3280   28.5080   45.2020 C   0  0  0  0  0  0  0  0  0  0  0  0
   58.4490   28.2020   46.5660 C   0  0  0  0  0  0  0  0  0  0  0  0
   59.6740   28.3990   47.2070 C   0  0  0  0  0  0  0  0  0  0  0  0
   60.7570   28.9060   46.4920 C   0  0  0  0  0  0  0  0  0  0  0  0
   60.5990   29.2200   45.1410 C   0  0  0  0  0  0  0  0  0  0  0  0
   59.4000   29.0200   44.5270 N   0  0  0  0  0  0  0  0  0  0  0  0
   57.3723   33.2637   41.0774 H   0  0  0  0  0  0  0  0  0  0  0  0
   58.7033   32.0616   40.9765 H   0  0  0  0  0  0  0  0  0  0  0  0
   56.9936   31.5106   40.9765 H   0  0  0  0  0  0  0  0  0  0  0  0
   60.2745   31.2867   46.3884 H   0  0  0  0  0  0  0  0  0  0  0  0
   61.5652   32.2880   48.2717 H   0  0  0  0  0  0  0  0  0  0  0  0
   59.4318   36.0143   47.7678 H   0  0  0  0  0  0  0  0  0  0  0  0
   58.1385   35.0246   45.8810 H   0  0  0  0  0  0  0  0  0  0  0  0
   57.1056   30.9105   45.8017 H   0  0  0  0  0  0  0  0  0  0  0  0
   55.3622   30.0156   43.7125 H   0  0  0  0  0  0  0  0  0  0  0  0
   55.9859   30.3141   42.0451 H   0  0  0  0  0  0  0  0  0  0  0  0
   56.5510   28.1760   42.4990 H   0  0  0  0  0  0  0  0  0  0  0  0
   56.2024   28.6669   45.0715 H   0  0  0  0  0  0  0  0  0  0  0  0
   56.9121   27.1562   44.3694 H   0  0  0  0  0  0  0  0  0  0  0  0
   57.5866   27.8104   47.1255 H   0  0  0  0  0  0  0  0  0  0  0  0
   59.7836   28.1545   48.2739 H   0  0  0  0  0  0  0  0  0  0  0  0
   61.7274   29.0574   46.9874 H   0  0  0  0  0  0  0  0  0  0  0  0
   61.4455   29.6302   44.5707 H   0  0  0  0  0  0  0  0  0  0  0  0
   59.3180   29.2500   43.5120 H   0  0  0  0  0  0  0  0  0  0  0  0
  1  2  1  0
  2  3  1  0
  3  4  2  0
  4  5  1  0
  5  6  2  0
  6  7  1  0
  7  8  2  0
  8  9  1  0
  8 10  1  0
 10 11  2  0
  4 12  1  0
 12 13  2  0
 13 14  1  0
 14 15  1  0
 15 16  1  0
 16 17  1  0
 17 18  2  0
 18 19  1  0
 19 20  2  0
 20 21  1  0
 21 22  2  0
 13  2  1  0
 22 17  1  0
 11  5  1  0
  1 23  1  0
  1 24  1  0
  1 25  1  0
  6 26  1  0
  7 27  1  0
 10 28  1  0
 11 29  1  0
 12 30  1  0
 14 31  1  0
 14 32  1  0
 15 33  1  0
 16 34  1  0
 16 35  1  0
 18 36  1  0
 19 37  1  0
 20 38  1  0
 21 39  1  0
 22 40  1  0
M  CHG  1  22   1
M  END
>  <UniqueID>  (16) 
16

>  <SMILES>  (16) 
Cn1nc(-c2ccc(F)cc2)cc1CNCc1cccc[nH+]1

>  <Energy>  (16) 
67.89586625720261

>  <Genealogy>  (16) 
Cn1nc(-c2ccc(F)cc2)cc1CNCc1cccc[nH+]1 (protonated)
Cn1nc(-c2ccc(F)cc2)cc1CNCc1cccc[nH+]1 (3D coordinates assigned)
Cn1nc(-c2ccc(F)cc2)cc1CNCc1cccc[nH+]1 (optimized conformer: 67.89586625720261 kcal/mol)

>  <smiles>  (16) 
Cn1nc(-c2ccc(F)cc2)cc1CNCc1ccccn1

>  <score_type>  (16) 
oracle

>  <origin>  (16) 
adg

>  <m_score__min__energy>  (16) 
-6.0999999999999996

>  <m_primary>  (16) 
energy

$$$$
16:0
     RDKit          3D

 51 53  0  0  0  0  0  0  0  0999 V2000
   63.6720   33.0370   47.0720 C   0  0  0  0  0  0  0  0  0  0  0  0
   63.0370   31.6990   47.4620 C   0  0  0  0  0  0  0  0  0  0  0  0
   61.9390   31.8530   48.4290 N   0  0  0  0  0  0  0  0  0  0  0  0
   62.0430   33.1040   49.1910 C   0  0  0  0  0  0  0  0  0  0  0  0
   60.6480   33.5590   49.6350 C   0  0  0  0  0  0  0  0  0  0  0  0
   59.8000   34.0130   48.4440 C   0  0  0  0  0  0  0  0  0  0  0  0
   60.5540   33.8270   47.1930 N   0  0  0  0  0  0  0  0  0  0  0  0
   59.8980   34.4740   46.0520 C   0  0  0  0  0  0  0  0  0  0  0  0
   58.9080   33.5370   45.4290 C   0  0  0  0  0  0  0  0  0  0  0  0
   58.0660   33.7900   44.3530 C   0  0  0  0  0  0  0  0  0  0  0  0
   57.3640   32.6770   44.0270 N   0  0  0  0  0  0  0  0  0  0  0  0
   57.7670   31.7140   44.8820 C   0  0  0  0  0  0  0  0  0  0  0  0
   57.3450   30.3790   44.9730 C   0  0  0  0  0  0  0  0  0  0  0  0
   56.3540   29.7930   44.0420 C   0  0  0  0  0  0  0  0  0  0  0  0
   56.6140   29.7280   42.6380 N   0  0  0  0  0  0  0  0  0  0  0  0
   55.2580   29.3560   44.4820 O   0  0  0  0  0  0  0  0  0  0  0  0
   57.9350   29.5960   45.9920 C   0  0  0  0  0  0  0  0  0  0  0  0
   58.9180   30.1560   46.8540 C   0  0  0  0  0  0  0  0  0  0  0  0
   59.5580   29.3420   47.9150 C   0  0  0  0  0  0  0  0  0  0  0  0
   59.5880   29.7820   49.2550 C   0  0  0  0  0  0  0  0  0  0  0  0
   59.0070   30.9530   49.6220 F   0  0  0  0  0  0  0  0  0  0  0  0
   60.1860   28.9930   50.2420 C   0  0  0  0  0  0  0  0  0  0  0  0
   60.7510   27.7600   49.9120 C   0  0  0  0  0  0  0  0  0  0  0  0
   60.7180   27.3090   48.5920 C   0  0  0  0  0  0  0  0  0  0  0  0
   60.1210   28.0900   47.5960 C   0  0  0  0  0  0  0  0  0  0  0  0
   60.1200   27.6320   46.3170 F   0  0  0  0  0  0  0  0  0  0  0  0
   59.2750   31.4670   46.7140 N   0  0  0  0  0  0  0  0  0  0  0  0
   58.6970   32.2150   45.7460 C   0  0  0  0  0  0  0  0  0  0  0  0
   63.9373   33.5959   47.9815 H   0  0  0  0  0  0  0  0  0  0  0  0
   64.5788   32.8530   46.4772 H   0  0  0  0  0  0  0  0  0  0  0  0
   62.9560   33.6231   46.4772 H   0  0  0  0  0  0  0  0  0  0  0  0
   62.6421   31.2189   46.5545 H   0  0  0  0  0  0  0  0  0  0  0  0
   63.8169   31.0872   47.9389 H   0  0  0  0  0  0  0  0  0  0  0  0
   61.0260   31.8410   47.9160 H   0  0  0  0  0  0  0  0  0  0  0  0
   62.6731   32.9402   50.0776 H   0  0  0  0  0  0  0  0  0  0  0  0
   62.4930   33.8805   48.5549 H   0  0  0  0  0  0  0  0  0  0  0  0
   60.1412   32.7208   50.1357 H   0  0  0  0  0  0  0  0  0  0  0  0
   60.7651   34.4116   50.3201 H   0  0  0  0  0  0  0  0  0  0  0  0
   58.8764   33.4169   48.4054 H   0  0  0  0  0  0  0  0  0  0  0  0
   59.5502   35.0778   48.5618 H   0  0  0  0  0  0  0  0  0  0  0  0
   60.6150   32.7990   46.9960 H   0  0  0  0  0  0  0  0  0  0  0  0
   59.3757   35.3784   46.3973 H   0  0  0  0  0  0  0  0  0  0  0  0
   60.6586   34.7439   45.3045 H   0  0  0  0  0  0  0  0  0  0  0  0
   57.9809   34.7581   43.8377 H   0  0  0  0  0  0  0  0  0  0  0  0
   56.6530   32.6070   43.2660 H   0  0  0  0  0  0  0  0  0  0  0  0
   55.8860   29.3580   41.9890 H   0  0  0  0  0  0  0  0  0  0  0  0
   57.5480   29.9830   42.2470 H   0  0  0  0  0  0  0  0  0  0  0  0
   57.6316   28.5463   46.1189 H   0  0  0  0  0  0  0  0  0  0  0  0
   60.2114   29.3455   51.2837 H   0  0  0  0  0  0  0  0  0  0  0  0
   61.2221   27.1441   50.6923 H   0  0  0  0  0  0  0  0  0  0  0  0
   61.1626   26.3366   48.3335 H   0  0  0  0  0  0  0  0  0  0  0  0
  1  2  1  0
  2  3  1  0
  3  4  1  0
  4  5  1  0
  5  6  1  0
  6  7  1  0
  7  8  1  0
  8  9  1  0
  9 10  2  0
 10 11  1  0
 11 12  1  0
 12 13  2  0
 13 14  1  0
 14 15  1  0
 14 16  2  0
 13 17  1  0
 17 18  2  0
 18 19  1  0
 19 20  2  0
 20 21  1  0
 20 22  1  0
 22 23  2  0
 23 24  1  0
 24 25  2  0
 25 26  1  0
 18 27  1  0
 27 28  2  0
 28  9  1  0
 28 12  1  0
 25 19  1  0
  1 29  1  0
  1 30  1  0
  1 31  1  0
  2 32  1  0
  2 33  1  0
  3 34  1  0
  4 35  1  0
  4 36  1  0
  5 37  1  0
  5 38  1  0
  6 39  1  0
  6 40  1  0
  7 41  1  0
  8 42  1  0
  8 43  1  0
 10 44  1  0
 11 45  1  0
 15 46  1  0
 15 47  1  0
 17 48  1  0
 22 49  1  0
 23 50  1  0
 24 51  1  0
M  END
>  <UniqueID>  (17) 
17

>  <SMILES>  (17) 
CCNCCCNCc1c[nH]c2c(C(N)=O)cc(-c3c(F)cccc3F)nc12

>  <Energy>  (17) 
85.37834746096185

>  <Genealogy>  (17) 
CCNCCCNCc1c[nH]c2c(C(N)=O)cc(-c3c(F)cccc3F)nc12 (3D coordinates assigned)
CCNCCCNCc1c[nH]c2c(C(N)=O)cc(-c3c(F)cccc3F)nc12 (optimized conformer: 85.37834746096185 kcal/mol)

>  <smiles>  (17) 
CCNCCCNCc1c[nH]c2c(C(N)=O)cc(-c3c(F)cccc3F)nc12

>  <score_type>  (17) 
oracle

>  <origin>  (17) 
adg

>  <m_score__min__energy>  (17) 
-7.29

>  <m_primary>  (17) 
energy

$$$$
17:0
     RDKit          3D

 54 57  0  0  0  0  0  0  0  0999 V2000
   63.1290   33.4650   46.9600 C   0  0  0  0  0  0  0  0  0  0  0  0
   63.8190   32.8160   48.1590 C   0  0  0  0  0  0  0  0  0  0  0  0
   62.8190   32.2670   49.1940 C   0  0  0  0  0  0  0  0  0  0  0  0
   61.9750   31.1790   48.6620 N   0  0  0  0  0  0  0  0  0  0  0  0
   60.7490   30.9990   49.4550 C   0  0  0  0  0  0  0  0  0  0  0  0
   59.7240   30.1550   48.6910 C   0  0  0  0  0  0  0  0  0  0  0  0
   60.2170   29.7750   47.3680 N   0  0  0  0  0  0  0  0  0  0  0  0
   59.3050   29.6550   46.2710 C   0  0  0  0  0  0  0  0  0  0  0  0
   58.9320   28.3920   45.7600 C   0  0  0  0  0  0  0  0  0  0  0  0
   59.4230   27.2100   46.3480 C   0  0  0  0  0  0  0  0  0  0  0  0
   59.0890   25.9640   45.8220 C   0  0  0  0  0  0  0  0  0  0  0  0
   58.2710   25.8740   44.7000 C   0  0  0  0  0  0  0  0  0  0  0  0
   57.7650   27.0280   44.1010 C   0  0  0  0  0  0  0  0  0  0  0  0
   58.0610   28.3120   44.6210 C   0  0  0  0  0  0  0  0  0  0  0  0
   57.5470   29.4670   44.0480 N   0  0  0  0  0  0  0  0  0  0  0  0
   56.5840   29.4020   42.9320 C   0  0  0  0  0  0  0  0  0  0  0  0
   57.9630   30.6780   44.5390 C   0  0  0  0  0  0  0  0  0  0  0  0
   57.6370   31.9050   44.0560 N   0  0  0  0  0  0  0  0  0  0  0  0
   58.2600   32.7800   44.8700 C   0  0  0  0  0  0  0  0  0  0  0  0
   58.2210   34.1690   44.7860 C   0  0  0  0  0  0  0  0  0  0  0  0
   58.9310   34.9120   45.7440 C   0  0  0  0  0  0  0  0  0  0  0  0
   59.6640   34.2570   46.7720 C   0  0  0  0  0  0  0  0  0  0  0  0
   60.3770   34.9640   47.7500 O   0  0  0  0  0  0  0  0  0  0  0  0
   60.4850   34.5650   49.1130 C   0  0  0  0  0  0  0  0  0  0  0  0
   59.6810   32.8490   46.8260 C   0  0  0  0  0  0  0  0  0  0  0  0
   58.9770   32.1370   45.8530 C   0  0  0  0  0  0  0  0  0  0  0  0
   58.8010   30.7820   45.6320 C   0  0  0  0  0  0  0  0  0  0  0  0
   62.3707   34.1783   47.3152 H   0  0  0  0  0  0  0  0  0  0  0  0
   63.8752   33.9962   46.3508 H   0  0  0  0  0  0  0  0  0  0  0  0
   62.6445   32.6877   46.3508 H   0  0  0  0  0  0  0  0  0  0  0  0
   64.4440   31.9857   47.7985 H   0  0  0  0  0  0  0  0  0  0  0  0
   64.4204   33.5912   48.6563 H   0  0  0  0  0  0  0  0  0  0  0  0
   63.3832   31.8828   50.0566 H   0  0  0  0  0  0  0  0  0  0  0  0
   62.1502   33.0939   49.4751 H   0  0  0  0  0  0  0  0  0  0  0  0
   61.7230   31.3640   47.6650 H   0  0  0  0  0  0  0  0  0  0  0  0
   61.0012   30.4927   50.3984 H   0  0  0  0  0  0  0  0  0  0  0  0
   60.3112   31.9880   49.6554 H   0  0  0  0  0  0  0  0  0  0  0  0
   59.5116   29.2429   49.2681 H   0  0  0  0  0  0  0  0  0  0  0  0
   58.8133   30.7575   48.5583 H   0  0  0  0  0  0  0  0  0  0  0  0
   61.2400   29.7800   47.1560 H   0  0  0  0  0  0  0  0  0  0  0  0
   60.0763   27.2713   47.2308 H   0  0  0  0  0  0  0  0  0  0  0  0
   59.4732   25.0483   46.2952 H   0  0  0  0  0  0  0  0  0  0  0  0
   58.0218   24.8872   44.2828 H   0  0  0  0  0  0  0  0  0  0  0  0
   57.1257   26.9393   43.2103 H   0  0  0  0  0  0  0  0  0  0  0  0
   55.5621   29.3330   43.3331 H   0  0  0  0  0  0  0  0  0  0  0  0
   56.6755   30.3084   42.3155 H   0  0  0  0  0  0  0  0  0  0  0  0
   56.7965   28.5162   42.3155 H   0  0  0  0  0  0  0  0  0  0  0  0
   57.0570   32.1570   43.2260 H   0  0  0  0  0  0  0  0  0  0  0  0
   57.6499   34.6711   43.9912 H   0  0  0  0  0  0  0  0  0  0  0  0
   58.9199   36.0110   45.6986 H   0  0  0  0  0  0  0  0  0  0  0  0
   60.2535   35.4203   49.7649 H   0  0  0  0  0  0  0  0  0  0  0  0
   59.7755   33.7486   49.3134 H   0  0  0  0  0  0  0  0  0  0  0  0
   61.5094   34.2180   49.3134 H   0  0  0  0  0  0  0  0  0  0  0  0
   60.2362   32.3229   47.6166 H   0  0  0  0  0  0  0  0  0  0  0  0
  1  2  1  0
  2  3  1  0
  3  4  1  0
  4  5  1  0
  5  6  1  0
  6  7  1  0
  7  8  1  0
  8  9  2  0
  9 10  1  0
 10 11  2  0
 11 12  1  0
 12 13  2  0
 13 14  1  0
 14 15  2  0
 15 16  1  0
 15 17  1  0
 17 18  1  0
 18 19  1  0
 19 20  2  0
 20 21  1  0
 21 22  2  0
 22 23  1  0
 23 24  1  0
 22 25  1  0
 25 26  2  0
 26 27  1  0
 27  8  1  0
 14  9  1  0
 27 17  2  0
 26 19  1  0
  1 28  1  0
  1 29  1  0
  1 30  1  0
  2 31  1  0
  2 32  1  0
  3 33  1  0
  3 34  1  0
  4 35  1  0
  5 36  1  0
  5 37  1  0
  6 38  1  0
  6 39  1  0
  7 40  1  0
 10 41  1  0
 11 42  1  0
 12 43  1  0
 13 44  1  0
 16 45  1  0
 16 46  1  0
 16 47  1  0
 18 48  1  0
 20 49  1  0
 21 50  1  0
 24 51  1  0
 24 52  1  0
 24 53  1  0
 25 54  1  0
M  CHG  1  15   1
M  END
>  <UniqueID>  (18) 
18

>  <SMILES>  (18) 
CCCNCCNc1c2ccccc2[n+](C)c2[nH]c3ccc(OC)cc3c12

>  <Energy>  (18) 
109.6838366104005

>  <Genealogy>  (18) 
CCCNCCNc1c2ccccc2[n+](C)c2[nH]c3ccc(OC)cc3c12 (3D coordinates assigned)
CCCNCCNc1c2ccccc2[n+](C)c2[nH]c3ccc(OC)cc3c12 (optimized conformer: 109.6838366104005 kcal/mol)

>  <smiles>  (18) 
CCCNCCNc1c2ccccc2[n+](C)c2[nH]c3ccc(OC)cc3c12

>  <score_type>  (18) 
oracle

>  <origin>  (18) 
adg

>  <m_score__min__energy>  (18) 
-5.7300000000000004

>  <m_primary>  (18) 
energy

$$$$
18:0
     RDKit          3D

 35 34  0  0  0  0  0  0  0  0999 V2000
   57.6503   31.8720   41.4534 H   0  0  0  0  0  0  0  0  0  0  0  0
   57.3980   31.5240   42.4660 C   0  0  0  0  0  0  0  0  0  0  0  0
   57.8750   32.2530   43.6090 C   0  0  0  0  0  0  0  0  0  0  0  0
   58.2760   32.8650   44.5680 C   0  0  0  0  0  0  0  0  0  0  0  0
   58.7660   33.6160   45.7390 C   0  0  0  0  0  0  0  0  0  0  0  0
   57.6150   33.7870   46.7430 C   0  0  0  0  0  0  0  0  0  0  0  0
   58.0105   33.7282   47.7677 H   0  0  0  0  0  0  0  0  0  0  0  0
   57.1373   34.7660   46.5899 H   0  0  0  0  0  0  0  0  0  0  0  0
   56.8733   32.9892   46.5899 H   0  0  0  0  0  0  0  0  0  0  0  0
   59.2670   34.9930   45.2770 C   0  0  0  0  0  0  0  0  0  0  0  0
   59.4932   35.6147   46.1558 H   0  0  0  0  0  0  0  0  0  0  0  0
   60.1773   34.8680   44.6722 H   0  0  0  0  0  0  0  0  0  0  0  0
   58.4892   35.4822   44.6722 H   0  0  0  0  0  0  0  0  0  0  0  0
   59.9170   32.8310   46.3910 C   0  0  0  0  0  0  0  0  0  0  0  0
   59.8282   32.8916   47.4857 H   0  0  0  0  0  0  0  0  0  0  0  0
   59.8669   31.7780   46.0768 H   0  0  0  0  0  0  0  0  0  0  0  0
   60.8790   33.2620   46.0768 H   0  0  0  0  0  0  0  0  0  0  0  0
   56.6520   30.4290   42.6220 C   0  0  0  0  0  0  0  0  0  0  0  0
   55.8570   30.2124   41.8933 H   0  0  0  0  0  0  0  0  0  0  0  0
   56.8730   29.4820   43.7730 C   0  0  0  0  0  0  0  0  0  0  0  0
   56.1274   28.6753   43.7155 H   0  0  0  0  0  0  0  0  0  0  0  0
   56.7722   30.0566   44.7056 H   0  0  0  0  0  0  0  0  0  0  0  0
   58.2300   28.8800   43.7550 N   0  0  2  0  0  0  0  0  0  0  0  0
   58.8050   29.3650   43.0260 H   0  0  0  0  0  0  0  0  0  0  0  0
   58.1240   27.4590   43.3690 C   0  0  0  0  0  0  0  0  0  0  0  0
   58.0775   26.8357   44.2741 H   0  0  0  0  0  0  0  0  0  0  0  0
   57.2121   27.3081   42.7726 H   0  0  0  0  0  0  0  0  0  0  0  0
   59.0034   27.1745   42.7726 H   0  0  0  0  0  0  0  0  0  0  0  0
   58.8850   29.0220   45.0810 C   0  0  0  0  0  0  0  0  0  0  0  0
   58.5302   28.2137   45.7374 H   0  0  0  0  0  0  0  0  0  0  0  0
   58.6209   30.0132   45.4782 H   0  0  0  0  0  0  0  0  0  0  0  0
   60.4140   28.9490   44.9950 C   0  0  0  0  0  0  0  0  0  0  0  0
   60.8378   28.9288   46.0099 H   0  0  0  0  0  0  0  0  0  0  0  0
   60.7078   28.0358   44.4567 H   0  0  0  0  0  0  0  0  0  0  0  0
   60.7935   29.8301   44.4567 H   0  0  0  0  0  0  0  0  0  0  0  0
  1  2  1  0
  2  3  1  0
  3  4  3  0
  4  5  1  0
  5  6  1  0
  6  7  1  0
  6  8  1  0
  6  9  1  0
  5 10  1  0
 10 11  1  0
 10 12  1  0
 10 13  1  0
  5 14  1  0
 14 15  1  0
 14 16  1  0
 14 17  1  0
  2 18  2  0
 18 19  1  0
 18 20  1  0
 20 21  1  0
 20 22  1  0
 20 23  1  0
 23 24  1  6
 23 25  1  0
 25 26  1  0
 25 27  1  0
 25 28  1  0
 23 29  1  0
 29 30  1  0
 29 31  1  0
 29 32  1  0
 32 33  1  0
 32 34  1  0
 32 35  1  0
M  CHG  1  23   1
M  END
>  <UniqueID>  (19) 
19

>  <SMILES>  (19) 
CC[N@@H+](C)C/C=C/C#CC(C)(C)C

>  <Energy>  (19) 
17.93674569869623

>  <Genealogy>  (19) 
CC[NH+](C)CC=CC#CC(C)(C)C (protonated)
CC[N@@H+](C)CC=CC#CC(C)(C)C (chirality)
CC[N@@H+](C)C/C=C/C#CC(C)(C)C (cis-trans isomerization)
CC[N@@H+](C)C/C=C/C#CC(C)(C)C (3D coordinates assigned)
CC[N@@H+](C)C/C=C/C#CC(C)(C)C (optimized conformer: 17.93674569869623 kcal/mol)

>  <smiles>  (19) 
CCN(C)CC=CC#CC(C)(C)C

>  <score_type>  (19) 
oracle

>  <origin>  (19) 
adg

>  <m_score__min__energy>  (19) 
-3.23

>  <m_primary>  (19) 
energy

$$$$
19:0
     RDKit          3D

 51 52  0  0  0  0  0  0  0  0999 V2000
   55.6040   29.8110   44.3960 C   0  0  0  0  0  0  0  0  0  0  0  0
   56.7570   29.8780   43.3880 C   0  0  0  0  0  0  0  0  0  0  0  0
   57.9580   29.1640   43.8570 N   0  0  0  0  0  0  0  0  0  0  0  0
   57.9160   27.7200   43.5760 C   0  0  0  0  0  0  0  0  0  0  0  0
   57.4210   26.9450   44.8080 C   0  0  0  0  0  0  0  0  0  0  0  0
   57.6460   27.6770   45.9990 O   0  0  0  0  0  0  0  0  0  0  0  0
   58.5200   26.9760   46.8610 C   0  0  0  0  0  0  0  0  0  0  0  0
   59.7630   26.5370   46.0850 C   0  0  0  0  0  0  0  0  0  0  0  0
   60.5990   27.7460   45.6310 C   0  0  0  0  0  0  0  0  0  0  0  0
   60.3670   28.9970   46.5050 C   0  0  0  0  0  0  0  0  0  0  0  0
   59.1910   29.7920   46.0980 N   0  0  0  0  0  0  0  0  0  0  0  0
   58.8060   30.8390   47.0680 C   0  0  0  0  0  0  0  0  0  0  0  0
   59.5680   32.1450   46.8520 C   0  0  0  0  0  0  0  0  0  0  0  0
   58.9360   33.1860   46.1280 C   0  0  0  0  0  0  0  0  0  0  0  0
   57.1590   33.0300   45.4070 Br  0  0  0  0  0  0  0  0  0  0  0  0
   59.5990   34.3920   45.8930 C   0  0  0  0  0  0  0  0  0  0  0  0
   60.8890   34.5960   46.3650 C   0  0  0  0  0  0  0  0  0  0  0  0
   61.5450   33.5940   47.0820 C   0  0  0  0  0  0  0  0  0  0  0  0
   62.8530   33.8210   47.5430 C   0  0  0  0  0  0  0  0  0  0  0  0
   63.5280   32.8370   48.2620 C   0  0  0  0  0  0  0  0  0  0  0  0
   62.9060   31.6230   48.5300 C   0  0  0  0  0  0  0  0  0  0  0  0
   61.6070   31.3770   48.0790 C   0  0  0  0  0  0  0  0  0  0  0  0
   60.8960   32.3540   47.3430 C   0  0  0  0  0  0  0  0  0  0  0  0
   56.0090   29.8345   45.4185 H   0  0  0  0  0  0  0  0  0  0  0  0
   54.9357   30.6718   44.2464 H   0  0  0  0  0  0  0  0  0  0  0  0
   55.0399   28.8786   44.2464 H   0  0  0  0  0  0  0  0  0  0  0  0
   56.4250   29.4263   42.4416 H   0  0  0  0  0  0  0  0  0  0  0  0
   57.0266   30.9365   43.2579 H   0  0  0  0  0  0  0  0  0  0  0  0
   58.8090   29.5730   43.4010 H   0  0  0  0  0  0  0  0  0  0  0  0
   57.2331   27.5350   42.7337 H   0  0  0  0  0  0  0  0  0  0  0  0
   58.9305   27.3772   43.3245 H   0  0  0  0  0  0  0  0  0  0  0  0
   56.3428   26.7545   44.7024 H   0  0  0  0  0  0  0  0  0  0  0  0
   57.9783   25.9987   44.8707 H   0  0  0  0  0  0  0  0  0  0  0  0
   58.8196   27.6323   47.6913 H   0  0  0  0  0  0  0  0  0  0  0  0
   58.0061   26.0890   47.2599 H   0  0  0  0  0  0  0  0  0  0  0  0
   60.3812   25.8974   46.7321 H   0  0  0  0  0  0  0  0  0  0  0  0
   59.4356   25.9876   45.1901 H   0  0  0  0  0  0  0  0  0  0  0  0
   61.6640   27.4753   45.6808 H   0  0  0  0  0  0  0  0  0  0  0  0
   60.2887   27.9965   44.6059 H   0  0  0  0  0  0  0  0  0  0  0  0
   60.2239   28.6723   47.5462 H   0  0  0  0  0  0  0  0  0  0  0  0
   61.2498   29.6423   46.3859 H   0  0  0  0  0  0  0  0  0  0  0  0
   59.3640   30.2430   45.1710 H   0  0  0  0  0  0  0  0  0  0  0  0
   58.3870   29.1360   45.9590 H   0  0  0  0  0  0  0  0  0  0  0  0
   57.7291   31.0375   46.9639 H   0  0  0  0  0  0  0  0  0  0  0  0
   59.0537   30.4699   48.0742 H   0  0  0  0  0  0  0  0  0  0  0  0
   59.0941   35.1893   45.3278 H   0  0  0  0  0  0  0  0  0  0  0  0
   61.3968   35.5527   46.1728 H   0  0  0  0  0  0  0  0  0  0  0  0
   63.3469   34.7816   47.3348 H   0  0  0  0  0  0  0  0  0  0  0  0
   64.5527   33.0206   48.6175 H   0  0  0  0  0  0  0  0  0  0  0  0
   63.4408   30.8502   49.1016 H   0  0  0  0  0  0  0  0  0  0  0  0
   61.1303   30.4104   48.2991 H   0  0  0  0  0  0  0  0  0  0  0  0
  1  2  1  0
  2  3  1  0
  3  4  1  0
  4  5  1  0
  5  6  1  0
  6  7  1  0
  7  8  1  0
  8  9  1  0
  9 10  1  0
 10 11  1  0
 11 12  1  0
 12 13  1  0
 13 14  2  0
 14 15  1  0
 14 16  1  0
 16 17  2  0
 17 18  1  0
 18 19  2  0
 19 20  1  0
 20 21  2  0
 21 22  1  0
 22 23  2  0
 23 13  1  0
 23 18  1  0
  1 24  1  0
  1 25  1  0
  1 26  1  0
  2 27  1  0
  2 28  1  0
  3 29  1  0
  4 30  1  0
  4 31  1  0
  5 32  1  0
  5 33  1  0
  7 34  1  0
  7 35  1  0
  8 36  1  0
  8 37  1  0
  9 38  1  0
  9 39  1  0
 10 40  1  0
 10 41  1  0
 11 42  1  0
 11 43  1  0
 12 44  1  0
 12 45  1  0
 16 46  1  0
 17 47  1  0
 19 48  1  0
 20 49  1  0
 21 50  1  0
 22 51  1  0
M  CHG  1  11   1
M  END
>  <UniqueID>  (20) 
20

>  <SMILES>  (20) 
CCNCCOCCCC[NH2+]Cc1c(Br)ccc2ccccc12

>  <Energy>  (20) 
56.79286127347216

>  <Genealogy>  (20) 
CCNCCOCCCC[NH2+]Cc1c(Br)ccc2ccccc12 (protonated)
CCNCCOCCCC[NH2+]Cc1c(Br)ccc2ccccc12 (3D coordinates assigned)
CCNCCOCCCC[NH2+]Cc1c(Br)ccc2ccccc12 (optimized conformer: 56.79286127347216 kcal/mol)

>  <smiles>  (20) 
CCNCCOCCCCNCc1c(Br)ccc2ccccc12

>  <score_type>  (20) 
oracle

>  <origin>  (20) 
adg

>  <m_score__min__energy>  (20) 
-5.1799999999999997

>  <m_primary>  (20) 
energy

$$$$
20:0
     RDKit          3D

 91 95  0  0  0  0  0  0  0  0999 V2000
   53.9420   30.8020   51.6250 C   0  0  0  0  0  0  0  0  0  0  0  0
   55.4110   30.9040   52.0460 C   0  0  0  0  0  0  0  0  0  0  0  0
   56.0090   29.5900   52.3360 N   0  0  0  0  0  0  0  0  0  0  0  0
   55.6710   29.1070   53.6790 C   0  0  0  0  0  0  0  0  0  0  0  0
   56.0410   30.1680   54.7150 C   0  0  0  0  0  0  0  0  0  0  0  0
   57.4740   30.1260   54.9940 N   0  0  0  0  0  0  0  0  0  0  0  0
   58.4020   29.5350   54.0720 C   0  0  0  0  0  0  0  0  0  0  0  0
   58.9830   30.3150   53.0740 C   0  0  0  0  0  0  0  0  0  0  0  0
   59.8660   29.7670   52.1680 C   0  0  0  0  0  0  0  0  0  0  0  0
   60.1260   28.4200   52.1290 N   0  0  0  0  0  0  0  0  0  0  0  0
   60.8980   27.8280   51.0300 C   0  0  0  0  0  0  0  0  0  0  0  0
   59.6370   27.6280   53.1450 C   0  0  0  0  0  0  0  0  0  0  0  0
   59.9780   26.3080   53.2140 N   0  0  0  0  0  0  0  0  0  0  0  0
   59.5460   25.4940   54.2110 C   0  0  0  0  0  0  0  0  0  0  0  0
   58.7370   25.9970   55.2270 C   0  0  0  0  0  0  0  0  0  0  0  0
   58.3620   27.3400   55.2000 C   0  0  0  0  0  0  0  0  0  0  0  0
   58.7830   28.1750   54.1490 C   0  0  0  0  0  0  0  0  0  0  0  0
   60.3070   30.8620   51.2990 C   0  0  0  0  0  0  0  0  0  0  0  0
   61.3390   30.8990   50.3440 C   0  0  0  0  0  0  0  0  0  0  0  0
   61.5810   32.1170   49.6820 C   0  0  0  0  0  0  0  0  0  0  0  0
   60.8370   33.2350   50.0060 C   0  0  0  0  0  0  0  0  0  0  0  0
   59.8600   33.1840   51.0070 C   0  0  0  0  0  0  0  0  0  0  0  0
   59.2110   34.2130   51.3350 O   0  0  0  0  0  0  0  0  0  0  0  0
   59.6410   31.9950   51.6350 N   0  0  0  0  0  0  0  0  0  0  0  0
   58.7550   31.7660   52.7770 C   0  0  0  0  0  0  0  0  0  0  0  0
   61.2530   34.4280   49.2420 C   0  0  0  0  0  0  0  0  0  0  0  0
   62.5810   33.9960   48.6090 C   0  0  0  0  0  0  0  0  0  0  0  0
   62.6390   32.4390   48.6460 C   0  0  1  0  0  0  0  0  0  0  0  0
   64.0880   32.0220   49.0400 C   0  0  0  0  0  0  0  0  0  0  0  0
   64.9390   33.0730   49.7540 C   0  0  0  0  0  0  0  0  0  0  0  0
   62.3110   31.9960   47.3150 O   0  0  0  0  0  0  0  0  0  0  0  0
   61.0510   31.7510   46.7530 C   0  0  0  0  0  0  0  0  0  0  0  0
   60.6570   30.5850   46.5040 O   0  0  0  0  0  0  0  0  0  0  0  0
   60.1310   32.9120   46.5150 C   0  0  0  0  0  0  0  0  0  0  0  0
   58.7780   32.5060   46.5210 O   0  0  0  0  0  0  0  0  0  0  0  0
   57.9720   33.4470   45.8400 C   0  0  0  0  0  0  0  0  0  0  0  0
   57.0200   32.7240   44.8930 C   0  0  0  0  0  0  0  0  0  0  0  0
   57.0590   31.3280   45.1300 O   0  0  0  0  0  0  0  0  0  0  0  0
   56.9200   30.6080   43.9210 C   0  0  0  0  0  0  0  0  0  0  0  0
   55.5590   29.9210   43.8990 C   0  0  0  0  0  0  0  0  0  0  0  0
   55.5290   28.9350   44.9180 O   0  0  0  0  0  0  0  0  0  0  0  0
   56.8270   28.4400   45.1910 C   0  0  0  0  0  0  0  0  0  0  0  0
   56.7630   27.0760   45.8880 C   0  0  0  0  0  0  0  0  0  0  0  0
   55.4180   26.6590   45.9880 O   0  0  0  0  0  0  0  0  0  0  0  0
   55.3370   25.2720   45.7420 C   0  0  0  0  0  0  0  0  0  0  0  0
   53.3059   30.7578   52.5213 H   0  0  0  0  0  0  0  0  0  0  0  0
   53.6703   31.6834   51.0256 H   0  0  0  0  0  0  0  0  0  0  0  0
   53.7947   29.8915   51.0256 H   0  0  0  0  0  0  0  0  0  0  0  0
   55.9789   31.3776   51.2316 H   0  0  0  0  0  0  0  0  0  0  0  0
   55.4525   31.5003   52.9694 H   0  0  0  0  0  0  0  0  0  0  0  0
   55.6740   28.8930   51.6290 H   0  0  0  0  0  0  0  0  0  0  0  0
   54.5914   28.9032   53.7336 H   0  0  0  0  0  0  0  0  0  0  0  0
   56.2316   28.1836   53.8864 H   0  0  0  0  0  0  0  0  0  0  0  0
   55.7759   31.1624   54.3266 H   0  0  0  0  0  0  0  0  0  0  0  0
   55.4893   29.9675   55.6453 H   0  0  0  0  0  0  0  0  0  0  0  0
   57.8470   30.8250   55.6770 H   0  0  0  0  0  0  0  0  0  0  0  0
   61.7071   27.2076   51.4429 H   0  0  0  0  0  0  0  0  0  0  0  0
   60.2362   27.2037   50.4117 H   0  0  0  0  0  0  0  0  0  0  0  0
   61.3293   28.6291   50.4117 H   0  0  0  0  0  0  0  0  0  0  0  0
   59.8361   24.4330   54.2164 H   0  0  0  0  0  0  0  0  0  0  0  0
   58.3973   25.3416   56.0425 H   0  0  0  0  0  0  0  0  0  0  0  0
   57.7335   27.7487   56.0050 H   0  0  0  0  0  0  0  0  0  0  0  0
   61.9382   30.0038   50.1215 H   0  0  0  0  0  0  0  0  0  0  0  0
   59.0375   32.3967   53.6328 H   0  0  0  0  0  0  0  0  0  0  0  0
   57.7026   32.0134   52.5738 H   0  0  0  0  0  0  0  0  0  0  0  0
   60.5115   34.6794   48.4693 H   0  0  0  0  0  0  0  0  0  0  0  0
   61.3468   35.3283   49.8670 H   0  0  0  0  0  0  0  0  0  0  0  0
   62.6320   34.3482   47.5682 H   0  0  0  0  0  0  0  0  0  0  0  0
   63.4293   34.4264   49.1614 H   0  0  0  0  0  0  0  0  0  0  0  0
   64.0137   31.1476   49.7033 H   0  0  0  0  0  0  0  0  0  0  0  0
   64.6027   31.8352   48.0860 H   0  0  0  0  0  0  0  0  0  0  0  0
   64.8383   32.9487   50.8423 H   0  0  0  0  0  0  0  0  0  0  0  0
   65.9934   32.9480   49.4666 H   0  0  0  0  0  0  0  0  0  0  0  0
   64.5974   34.0783   49.4666 H   0  0  0  0  0  0  0  0  0  0  0  0
   60.2843   33.6587   47.3080 H   0  0  0  0  0  0  0  0  0  0  0  0
   60.3603   33.3392   45.5276 H   0  0  0  0  0  0  0  0  0  0  0  0
   57.3893   34.0258   46.5717 H   0  0  0  0  0  0  0  0  0  0  0  0
   58.6163   34.1239   45.2597 H   0  0  0  0  0  0  0  0  0  0  0  0
   55.9963   33.0917   45.0567 H   0  0  0  0  0  0  0  0  0  0  0  0
   57.3288   32.9202   43.8556 H   0  0  0  0  0  0  0  0  0  0  0  0
   56.9961   31.3005   43.0698 H   0  0  0  0  0  0  0  0  0  0  0  0
   57.7161   29.8524   43.8477 H   0  0  0  0  0  0  0  0  0  0  0  0
   54.7672   30.6631   44.0790 H   0  0  0  0  0  0  0  0  0  0  0  0
   55.3931   29.4508   42.9185 H   0  0  0  0  0  0  0  0  0  0  0  0
   57.3774   28.3342   44.2445 H   0  0  0  0  0  0  0  0  0  0  0  0
   57.3379   29.1495   45.8585 H   0  0  0  0  0  0  0  0  0  0  0  0
   57.3325   26.3387   45.3031 H   0  0  0  0  0  0  0  0  0  0  0  0
   57.1959   27.1596   46.8958 H   0  0  0  0  0  0  0  0  0  0  0  0
   55.3054   24.7311   46.6993 H   0  0  0  0  0  0  0  0  0  0  0  0
   54.4246   25.0542   45.1675 H   0  0  0  0  0  0  0  0  0  0  0  0
   56.2178   24.9495   45.1675 H   0  0  0  0  0  0  0  0  0  0  0  0
  1  2  1  0
  2  3  1  0
  3  4  1  0
  4  5  1  0
  5  6  1  0
  6  7  1  0
  7  8  2  0
  8  9  1  0
  9 10  2  0
 10 11  1  0
 10 12  1  0
 12 13  2  0
 13 14  1  0
 14 15  2  0
 15 16  1  0
 16 17  2  0
  9 18  1  0
 18 19  2  0
 19 20  1  0
 20 21  2  0
 21 22  1  0
 22 23  2  0
 22 24  1  0
 24 25  1  0
 21 26  1  0
 26 27  1  0
 27 28  1  0
 28 29  1  0
 29 30  1  0
 28 31  1  6
 31 32  1  0
 32 33  2  0
 32 34  1  0
 34 35  1  0
 35 36  1  0
 36 37  1  0
 37 38  1  0
 38 39  1  0
 39 40  1  0
 40 41  1  0
 41 42  1  0
 42 43  1  0
 43 44  1  0
 44 45  1  0
 17  7  1  0
 24 18  1  0
 25  8  1  0
 17 12  1  0
 28 20  1  0
  1 46  1  0
  1 47  1  0
  1 48  1  0
  2 49  1  0
  2 50  1  0
  3 51  1  0
  4 52  1  0
  4 53  1  0
  5 54  1  0
  5 55  1  0
  6 56  1  0
 11 57  1  0
 11 58  1  0
 11 59  1  0
 14 60  1  0
 15 61  1  0
 16 62  1  0
 19 63  1  0
 25 64  1  0
 25 65  1  0
 26 66  1  0
 26 67  1  0
 27 68  1  0
 27 69  1  0
 29 70  1  0
 29 71  1  0
 30 72  1  0
 30 73  1  0
 30 74  1  0
 34 75  1  0
 34 76  1  0
 36 77  1  0
 36 78  1  0
 37 79  1  0
 37 80  1  0
 39 81  1  0
 39 82  1  0
 40 83  1  0
 40 84  1  0
 42 85  1  0
 42 86  1  0
 43 87  1  0
 43 88  1  0
 45 89  1  0
 45 90  1  0
 45 91  1  0
M  CHG  1  10   1
M  END
>  <UniqueID>  (21) 
21

>  <SMILES>  (21) 
CCNCCNc1c2c([n+](C)c3ncccc13)-c1cc3c(c(=O)n1C2)CC[C@]3(CC)OC(=O)COCCOCCOCCOC

>  <Energy>  (21) 
144.51432307966834

>  <Genealogy>  (21) 
CCNCCNc1c2c([n+](C)c3ncccc13)-c1cc3c(c(=O)n1C2)CC[C@]3(CC)OC(=O)COCCOCCOCCOC (chirality)
CCNCCNc1c2c([n+](C)c3ncccc13)-c1cc3c(c(=O)n1C2)CC[C@]3(CC)OC(=O)COCCOCCOCCOC (3D coordinates assigned)
CCNCCNc1c2c([n+](C)c3ncccc13)-c1cc3c(c(=O)n1C2)CC[C@]3(CC)OC(=O)COCCOCCOCCOC (nonaromatic ring conformer: 144.51432307966834 kcal/mol)

>  <smiles>  (21) 
CCNCCNc1c2c([n+](C)c3ncccc13)-c1cc3c(c(=O)n1C2)CCC3(CC)OC(=O)COCCOCCOCCOC

>  <score_type>  (21) 
oracle

>  <origin>  (21) 
adg

>  <m_score__min__energy>  (21) 
-8.1699999999999999

>  <m_primary>  (21) 
energy

$$$$
21:0
     RDKit          3D

 78 81  0  0  0  0  0  0  0  0999 V2000
   61.3010   28.5661   49.2307 H   0  0  0  0  0  0  0  0  0  0  0  0
   60.5810   29.3920   49.1330 C   0  0  0  0  0  0  0  0  0  0  0  0
   60.3350   30.3340   50.1280 C   0  0  0  0  0  0  0  0  0  0  0  0
   61.0630   30.4120   51.3600 N   0  0  0  0  0  0  0  0  0  0  0  0
   61.0580   29.5870   52.0010 H   0  0  0  0  0  0  0  0  0  0  0  0
   62.0330   31.4730   51.6090 C   0  0  0  0  0  0  0  0  0  0  0  0
   61.5143   32.4425   51.6407 H   0  0  0  0  0  0  0  0  0  0  0  0
   62.5338   31.2902   52.5712 H   0  0  0  0  0  0  0  0  0  0  0  0
   63.0850   31.4910   50.4810 C   0  0  0  0  0  0  0  0  0  0  0  0
   64.0831   31.3716   50.9277 H   0  0  0  0  0  0  0  0  0  0  0  0
   62.8490   30.6673   49.7912 H   0  0  0  0  0  0  0  0  0  0  0  0
   63.0610   32.7540   49.7000 N   0  0  0  0  0  0  0  0  0  0  0  0
   63.8160   33.3730   50.0830 H   0  0  0  0  0  0  0  0  0  0  0  0
   63.4020   32.4870   48.2780 C   0  0  0  0  0  0  0  0  0  0  0  0
   63.8629   33.3886   47.8483 H   0  0  0  0  0  0  0  0  0  0  0  0
   64.0949   31.6331   48.2499 H   0  0  0  0  0  0  0  0  0  0  0  0
   62.1620   32.1190   47.4460 C   0  0  0  0  0  0  0  0  0  0  0  0
   62.4717   31.9682   46.4013 H   0  0  0  0  0  0  0  0  0  0  0  0
   61.7314   31.2045   47.8799 H   0  0  0  0  0  0  0  0  0  0  0  0
   61.1100   33.1710   47.4830 N   0  0  0  0  0  0  0  0  0  0  0  0
   60.9350   33.8400   46.1770 C   0  0  0  0  0  0  0  0  0  0  0  0
   61.7952   34.4989   45.9877 H   0  0  0  0  0  0  0  0  0  0  0  0
   60.8672   33.0767   45.3879 H   0  0  0  0  0  0  0  0  0  0  0  0
   59.6500   34.6730   46.1800 C   0  0  0  0  0  0  0  0  0  0  0  0
   59.8598   35.6619   46.6137 H   0  0  0  0  0  0  0  0  0  0  0  0
   59.2928   34.7829   45.1455 H   0  0  0  0  0  0  0  0  0  0  0  0
   58.6130   34.0070   46.9740 N   0  0  0  0  0  0  0  0  0  0  0  0
   58.9570   33.0460   47.2140 H   0  0  0  0  0  0  0  0  0  0  0  0
   57.4010   33.8340   46.1690 C   0  0  0  0  0  0  0  0  0  0  0  0
   56.5336   33.7102   46.8341 H   0  0  0  0  0  0  0  0  0  0  0  0
   57.2528   34.7201   45.5343 H   0  0  0  0  0  0  0  0  0  0  0  0
   57.5066   32.9418   45.5343 H   0  0  0  0  0  0  0  0  0  0  0  0
   61.3050   34.1600   48.5640 C   0  0  0  0  0  0  0  0  0  0  0  0
   62.0705   34.8870   48.2550 H   0  0  0  0  0  0  0  0  0  0  0  0
   60.3494   34.6707   48.7537 H   0  0  0  0  0  0  0  0  0  0  0  0
   61.7600   33.4670   49.8550 C   0  0  0  0  0  0  0  0  0  0  0  0
   61.8673   34.2270   50.6430 H   0  0  0  0  0  0  0  0  0  0  0  0
   60.9992   32.7159   50.1138 H   0  0  0  0  0  0  0  0  0  0  0  0
   59.1500   31.4360   49.6140 S   0  0  0  0  0  0  0  0  0  0  0  0
   58.9580   30.6960   48.1210 C   0  0  0  0  0  0  0  0  0  0  0  0
   58.1440   31.0860   47.1180 N   0  0  0  0  0  0  0  0  0  0  0  0
   58.1600   30.4080   45.9300 C   0  0  0  0  0  0  0  0  0  0  0  0
   57.3680   30.7800   44.9620 N   0  0  0  0  0  0  0  0  0  0  0  0
   57.7490   31.6090   43.8200 C   0  0  0  0  0  0  0  0  0  0  0  0
   58.8346   31.5293   43.6613 H   0  0  0  0  0  0  0  0  0  0  0  0
   57.4714   32.6524   44.0302 H   0  0  0  0  0  0  0  0  0  0  0  0
   57.0220   31.1500   42.5580 C   0  0  0  0  0  0  0  0  0  0  0  0
   56.1227   30.5822   42.8389 H   0  0  0  0  0  0  0  0  0  0  0  0
   56.7303   32.0280   41.9630 H   0  0  0  0  0  0  0  0  0  0  0  0
   57.6893   30.5091   41.9630 H   0  0  0  0  0  0  0  0  0  0  0  0
   59.0240   29.3370   45.7520 N   0  0  0  0  0  0  0  0  0  0  0  0
   59.1240   28.6500   44.4450 C   0  0  0  0  0  0  0  0  0  0  0  0
   59.3996   29.3809   43.6705 H   0  0  0  0  0  0  0  0  0  0  0  0
   59.8913   27.8645   44.5103 H   0  0  0  0  0  0  0  0  0  0  0  0
   57.7770   28.0060   44.0790 C   0  0  0  0  0  0  0  0  0  0  0  0
   56.9616   28.6960   44.3417 H   0  0  0  0  0  0  0  0  0  0  0  0
   57.7615   27.7981   42.9989 H   0  0  0  0  0  0  0  0  0  0  0  0
   57.5980   26.7360   44.8160 N   0  0  0  0  0  0  0  0  0  0  0  0
   58.8990   26.1870   45.2550 C   0  0  0  0  0  0  0  0  0  0  0  0
   59.4392   25.8096   44.3742 H   0  0  0  0  0  0  0  0  0  0  0  0
   59.4558   26.9956   45.7511 H   0  0  0  0  0  0  0  0  0  0  0  0
   58.7350   25.0320   46.2710 C   0  0  0  0  0  0  0  0  0  0  0  0
   59.4331   24.2253   46.0028 H   0  0  0  0  0  0  0  0  0  0  0  0
   58.9469   25.4366   47.2717 H   0  0  0  0  0  0  0  0  0  0  0  0
   57.3660   24.4840   46.2920 N   0  0  0  0  0  0  0  0  0  0  0  0
   57.0660   23.6910   45.0840 C   0  0  0  0  0  0  0  0  0  0  0  0
   56.6911   22.7000   45.3797 H   0  0  0  0  0  0  0  0  0  0  0  0
   56.3016   24.2088   44.4860 H   0  0  0  0  0  0  0  0  0  0  0  0
   57.9817   23.5732   44.4860 H   0  0  0  0  0  0  0  0  0  0  0  0
   56.3430   25.5220   46.5580 C   0  0  0  0  0  0  0  0  0  0  0  0
   55.3915   25.1967   46.1122 H   0  0  0  0  0  0  0  0  0  0  0  0
   56.2716   25.6367   47.6497 H   0  0  0  0  0  0  0  0  0  0  0  0
   56.7090   26.9020   45.9770 C   0  0  0  0  0  0  0  0  0  0  0  0
   55.7913   27.4206   45.6626 H   0  0  0  0  0  0  0  0  0  0  0  0
   57.2251   27.4942   46.7470 H   0  0  0  0  0  0  0  0  0  0  0  0
   59.8460   28.9380   46.7830 C   0  0  0  0  0  0  0  0  0  0  0  0
   60.6480   27.9720   46.6370 O   0  0  0  0  0  0  0  0  0  0  0  0
   59.8030   29.6220   47.9950 C   0  0  0  0  0  0  0  0  0  0  0  0
  1  2  1  0
  2  3  2  0
  3  4  1  0
  4  5  1  0
  4  6  1  0
  6  7  1  0
  6  8  1  0
  6  9  1  0
  9 10  1  0
  9 11  1  0
  9 12  1  0
 12 13  1  0
 12 14  1  0
 14 15  1  0
 14 16  1  0
 14 17  1  0
 17 18  1  0
 17 19  1  0
 17 20  1  0
 20 21  1  0
 21 22  1  0
 21 23  1  0
 21 24  1  0
 24 25  1  0
 24 26  1  0
 24 27  1  0
 27 28  1  0
 27 29  1  0
 29 30  1  0
 29 31  1  0
 29 32  1  0
 20 33  1  0
 33 34  1  0
 33 35  1  0
 33 36  1  0
 36 37  1  0
 36 38  1  0
  3 39  1  0
 39 40  1  0
 40 41  1  0
 41 42  1  0
 42 43  2  0
 43 44  1  0
 44 45  1  0
 44 46  1  0
 44 47  1  0
 47 48  1  0
 47 49  1  0
 47 50  1  0
 42 51  1  0
 51 52  1  0
 52 53  1  0
 52 54  1  0
 52 55  1  0
 55 56  1  0
 55 57  1  0
 55 58  1  0
 58 59  1  0
 59 60  1  0
 59 61  1  0
 59 62  1  0
 62 63  1  0
 62 64  1  0
 62 65  1  0
 65 66  1  0
 66 67  1  0
 66 68  1  0
 66 69  1  0
 65 70  1  0
 70 71  1  0
 70 72  1  0
 70 73  1  0
 73 74  1  0
 73 75  1  0
 51 76  1  0
 76 77  2  0
 76 78  1  0
 78  2  1  0
 36 12  1  0
 78 40  2  0
 73 58  1  0
M  CHG  2  12   1  41  -1
M  END
>  <UniqueID>  (22) 
22

>  <SMILES>  (22) 
CC/N=c1\[n-]c2sc(NCC[NH+]3CCN(CCNC)CC3)cc2c(=O)n1CCN1CCN(C)CC1

>  <Energy>  (22) 
132.50235806428998

>  <Genealogy>  (22) 
CCN=c1[n-]c2sc(NCC[NH+]3CCN(CCNC)CC3)cc2c(=O)n1CCN1CCN(C)CC1 (protonated)
CC/N=c1\[n-]c2sc(NCC[NH+]3CCN(CCNC)CC3)cc2c(=O)n1CCN1CCN(C)CC1 (cis-trans isomerization)
CC/N=c1\[n-]c2sc(NCC[NH+]3CCN(CCNC)CC3)cc2c(=O)n1CCN1CCN(C)CC1 (3D coordinates assigned)
CC/N=c1\[n-]c2sc(NCC[NH+]3CCN(CCNC)CC3)cc2c(=O)n1CCN1CCN(C)CC1 (nonaromatic ring conformer: 132.50235806428998 kcal/mol)

>  <smiles>  (22) 
CCN=c1[nH]c2sc(NCCN3CCN(CCNC)CC3)cc2c(=O)n1CCN1CCN(C)CC1

>  <score_type>  (22) 
oracle

>  <origin>  (22) 
adg

>  <m_score__min__energy>  (22) 
-9.2400000000000002

>  <m_primary>  (22) 
energy

$$$$
22:0
     RDKit          3D

 57 59  0  0  0  0  0  0  0  0999 V2000
   58.1110   27.1110   42.8060 C   0  0  0  0  0  0  0  0  0  0  0  0
   57.7760   27.1580   44.3000 C   0  0  0  0  0  0  0  0  0  0  0  0
   57.7680   28.5440   44.8270 N   0  0  0  0  0  0  0  0  0  0  0  0
   56.6190   29.2980   44.2740 C   0  0  0  0  0  0  0  0  0  0  0  0
   57.0220   30.7390   43.9590 C   0  0  0  0  0  0  0  0  0  0  0  0
   57.7720   28.5790   46.3150 C   0  0  0  0  0  0  0  0  0  0  0  0
   59.0220   29.2550   46.8280 C   0  0  0  0  0  0  0  0  0  0  0  0
   59.9190   29.8520   45.9270 C   0  0  0  0  0  0  0  0  0  0  0  0
   61.0690   30.4880   46.3920 C   0  0  0  0  0  0  0  0  0  0  0  0
   61.3360   30.5740   47.7680 C   0  0  0  0  0  0  0  0  0  0  0  0
   62.4840   31.2100   48.2750 O   0  0  0  0  0  0  0  0  0  0  0  0
   63.5820   31.6750   47.4880 C   0  0  0  0  0  0  0  0  0  0  0  0
   63.5910   33.2090   47.4150 C   0  0  0  0  0  0  0  0  0  0  0  0
   63.7060   33.8520   48.8060 C   0  0  0  0  0  0  0  0  0  0  0  0
   62.4800   34.5630   49.1770 N   0  0  0  0  0  0  0  0  0  0  0  0
   61.2170   33.9010   49.4000 C   0  0  0  0  0  0  0  0  0  0  0  0
   60.9330   33.3430   50.6560 C   0  0  0  0  0  0  0  0  0  0  0  0
   59.7210   32.6920   50.8760 C   0  0  0  0  0  0  0  0  0  0  0  0
   58.8000   32.5810   49.8820 N   0  0  0  0  0  0  0  0  0  0  0  0
   57.6290   31.9070   50.1540 O   0  0  0  0  0  0  0  0  0  0  0  0
   59.0310   33.1060   48.6380 C   0  0  0  0  0  0  0  0  0  0  0  0
   58.0780   32.9550   47.6090 C   0  0  0  0  0  0  0  0  0  0  0  0
   58.3320   33.4560   46.3300 C   0  0  0  0  0  0  0  0  0  0  0  0
   59.5340   34.1090   46.0590 C   0  0  0  0  0  0  0  0  0  0  0  0
   60.4900   34.2740   47.0650 C   0  0  0  0  0  0  0  0  0  0  0  0
   60.2510   33.7900   48.3690 C   0  0  0  0  0  0  0  0  0  0  0  0
   60.4290   30.0080   48.6690 C   0  0  0  0  0  0  0  0  0  0  0  0
   59.2770   29.3560   48.2090 C   0  0  0  0  0  0  0  0  0  0  0  0
   58.4170   28.8230   49.1130 F   0  0  0  0  0  0  0  0  0  0  0  0
   59.1929   26.9592   42.6774 H   0  0  0  0  0  0  0  0  0  0  0  0
   57.5656   26.2806   42.3339 H   0  0  0  0  0  0  0  0  0  0  0  0
   57.8151   28.0595   42.3339 H   0  0  0  0  0  0  0  0  0  0  0  0
   56.7815   26.7141   44.4545 H   0  0  0  0  0  0  0  0  0  0  0  0
   58.5526   26.5954   44.8389 H   0  0  0  0  0  0  0  0  0  0  0  0
   56.2762   28.8084   43.3505 H   0  0  0  0  0  0  0  0  0  0  0  0
   55.8111   29.3109   45.0205 H   0  0  0  0  0  0  0  0  0  0  0  0
   57.1762   31.2903   44.8983 H   0  0  0  0  0  0  0  0  0  0  0  0
   57.9548   30.7398   43.3760 H   0  0  0  0  0  0  0  0  0  0  0  0
   56.2249   31.2236   43.3760 H   0  0  0  0  0  0  0  0  0  0  0  0
   56.8903   29.1353   46.6658 H   0  0  0  0  0  0  0  0  0  0  0  0
   57.7463   27.5466   46.6939 H   0  0  0  0  0  0  0  0  0  0  0  0
   59.7126   29.8174   44.8471 H   0  0  0  0  0  0  0  0  0  0  0  0
   61.7756   30.9277   45.6727 H   0  0  0  0  0  0  0  0  0  0  0  0
   64.5226   31.3302   47.9423 H   0  0  0  0  0  0  0  0  0  0  0  0
   63.4792   31.2746   46.4687 H   0  0  0  0  0  0  0  0  0  0  0  0
   64.4472   33.5302   46.8036 H   0  0  0  0  0  0  0  0  0  0  0  0
   62.6391   33.5330   46.9691 H   0  0  0  0  0  0  0  0  0  0  0  0
   63.8995   33.0636   49.5483 H   0  0  0  0  0  0  0  0  0  0  0  0
   64.5303   34.5799   48.7803 H   0  0  0  0  0  0  0  0  0  0  0  0
   62.5320   35.6020   49.2590 H   0  0  0  0  0  0  0  0  0  0  0  0
   61.6696   33.4199   51.4693 H   0  0  0  0  0  0  0  0  0  0  0  0
   59.5066   32.2627   51.8658 H   0  0  0  0  0  0  0  0  0  0  0  0
   57.1285   32.4393   47.8151 H   0  0  0  0  0  0  0  0  0  0  0  0
   57.5819   33.3351   45.5345 H   0  0  0  0  0  0  0  0  0  0  0  0
   59.7307   34.4962   45.0483 H   0  0  0  0  0  0  0  0  0  0  0  0
   61.4371   34.7856   46.8384 H   0  0  0  0  0  0  0  0  0  0  0  0
   60.6216   30.0752   49.7499 H   0  0  0  0  0  0  0  0  0  0  0  0
  1  2  1  0
  2  3  1  0
  3  4  1  0
  4  5  1  0
  3  6  1  0
  6  7  1  0
  7  8  2  0
  8  9  1  0
  9 10  2  0
 10 11  1  0
 11 12  1  0
 12 13  1  0
 13 14  1  0
 14 15  1  0
 15 16  1  0
 16 17  2  0
 17 18  1  0
 18 19  2  0
 19 20  1  0
 19 21  1  0
 21 22  2  0
 22 23  1  0
 23 24  2  0
 24 25  1  0
 25 26  2  0
 10 27  1  0
 27 28  2  0
 28 29  1  0
 28  7  1  0
 26 16  1  0
 26 21  1  0
  1 30  1  0
  1 31  1  0
  1 32  1  0
  2 33  1  0
  2 34  1  0
  4 35  1  0
  4 36  1  0
  5 37  1  0
  5 38  1  0
  5 39  1  0
  6 40  1  0
  6 41  1  0
  8 42  1  0
  9 43  1  0
 12 44  1  0
 12 45  1  0
 13 46  1  0
 13 47  1  0
 14 48  1  0
 14 49  1  0
 15 50  1  0
 17 51  1  0
 18 52  1  0
 22 53  1  0
 23 54  1  0
 24 55  1  0
 25 56  1  0
 27 57  1  0
M  CHG  2  19   1  20  -1
M  END
>  <UniqueID>  (23) 
23

>  <SMILES>  (23) 
CCN(CC)Cc1ccc(OCCCNc2cc[n+]([O-])c3ccccc23)cc1F

>  <Energy>  (23) 
59.840099676377804

>  <Genealogy>  (23) 
CCN(CC)Cc1ccc(OCCCNc2cc[n+]([O-])c3ccccc23)cc1F (3D coordinates assigned)
CCN(CC)Cc1ccc(OCCCNc2cc[n+]([O-])c3ccccc23)cc1F (optimized conformer: 59.840099676377804 kcal/mol)

>  <smiles>  (23) 
CCN(CC)Cc1ccc(OCCCNc2cc[n+]([O-])c3ccccc23)cc1F

>  <score_type>  (23) 
oracle

>  <origin>  (23) 
adg

>  <m_score__min__energy>  (23) 
-7.6500000000000004

>  <m_primary>  (23) 
energy

$$$$
23:0
     RDKit          3D

 25 26  0  0  0  0  0  0  0  0999 V2000
   60.5450   29.9280   47.5710 C   0  0  0  0  0  0  0  0  0  0  0  0
   59.2570   30.5930   47.7680 N   0  0  0  0  0  0  0  0  0  0  0  0
   58.9010   31.0260   49.1170 C   0  0  0  0  0  0  0  0  0  0  0  0
   58.6330   31.2430   46.6490 C   0  0  0  0  0  0  0  0  0  0  0  0
   57.7610   30.5410   45.8760 N   0  0  0  0  0  0  0  0  0  0  0  0
   57.1300   31.1100   44.8180 C   0  0  0  0  0  0  0  0  0  0  0  0
   56.2120   30.3380   44.0310 C   0  0  0  0  0  0  0  0  0  0  0  0
   55.4720   29.7140   43.3960 N   0  0  0  0  0  0  0  0  0  0  0  0
   57.3620   32.4100   44.5060 N   0  0  0  0  0  0  0  0  0  0  0  0
   58.2300   33.1610   45.2320 C   0  0  0  0  0  0  0  0  0  0  0  0
   58.4630   34.4960   44.8810 C   0  0  0  0  0  0  0  0  0  0  0  0
   59.3750   35.2630   45.6120 C   0  0  0  0  0  0  0  0  0  0  0  0
   60.0600   34.6990   46.6910 C   0  0  0  0  0  0  0  0  0  0  0  0
   59.8330   33.3670   47.0520 C   0  0  0  0  0  0  0  0  0  0  0  0
   58.9050   32.5890   46.3330 C   0  0  0  0  0  0  0  0  0  0  0  0
   60.9919   29.6972   48.5493 H   0  0  0  0  0  0  0  0  0  0  0  0
   60.3937   28.9953   47.0078 H   0  0  0  0  0  0  0  0  0  0  0  0
   61.2178   30.5914   47.0078 H   0  0  0  0  0  0  0  0  0  0  0  0
   59.4199   30.3949   49.8536 H   0  0  0  0  0  0  0  0  0  0  0  0
   59.2013   32.0750   49.2566 H   0  0  0  0  0  0  0  0  0  0  0  0
   57.8138   30.9342   49.2566 H   0  0  0  0  0  0  0  0  0  0  0  0
   57.9281   34.9418   44.0294 H   0  0  0  0  0  0  0  0  0  0  0  0
   59.5536   36.3130   45.3369 H   0  0  0  0  0  0  0  0  0  0  0  0
   60.7810   35.3051   47.2591 H   0  0  0  0  0  0  0  0  0  0  0  0
   60.3800   32.9265   47.8986 H   0  0  0  0  0  0  0  0  0  0  0  0
  1  2  1  0
  2  3  1  0
  2  4  1  0
  4  5  2  0
  5  6  1  0
  6  7  1  0
  7  8  3  0
  6  9  2  0
  9 10  1  0
 10 11  2  0
 11 12  1  0
 12 13  2  0
 13 14  1  0
 14 15  2  0
 15  4  1  0
 15 10  1  0
  1 16  1  0
  1 17  1  0
  1 18  1  0
  3 19  1  0
  3 20  1  0
  3 21  1  0
 11 22  1  0
 12 23  1  0
 13 24  1  0
 14 25  1  0
M  END
>  <UniqueID>  (24) 
24

>  <SMILES>  (24) 
CN(C)c1nc(C#N)nc2ccccc12

>  <Energy>  (24) 
31.957578229241395

>  <Genealogy>  (24) 
CN(C)c1nc(C#N)nc2ccccc12 (3D coordinates assigned)
CN(C)c1nc(C#N)nc2ccccc12 (optimized conformer: 31.957578229241395 kcal/mol)

>  <smiles>  (24) 
CN(C)c1nc(C#N)nc2ccccc12

>  <score_type>  (24) 
oracle

>  <origin>  (24) 
adg

>  <m_score__min__energy>  (24) 
-5.2300000000000004

>  <m_primary>  (24) 
energy

$$$$
24:0
     RDKit          3D

 61 63  0  0  0  0  0  0  0  0999 V2000
   63.4520   30.2010   51.2470 C   0  0  0  0  0  0  0  0  0  0  0  0
   62.0150   29.7420   51.4960 C   0  0  0  0  0  0  0  0  0  0  0  0
   61.1600   30.0890   50.3480 N   0  0  0  0  0  0  0  0  0  0  0  0
   59.7270   29.9220   50.6420 C   0  0  0  0  0  0  0  0  0  0  0  0
   58.9150   30.5570   49.5150 C   0  0  0  0  0  0  0  0  0  0  0  0
   59.7840   31.1260   48.4840 N   0  0  0  0  0  0  0  0  0  0  0  0
   59.4090   31.0660   47.0970 C   0  0  0  0  0  0  0  0  0  0  0  0
   59.0330   29.8190   46.5580 C   0  0  0  0  0  0  0  0  0  0  0  0
   59.3680   28.6160   47.2200 C   0  0  0  0  0  0  0  0  0  0  0  0
   58.9320   27.3860   46.7310 C   0  0  0  0  0  0  0  0  0  0  0  0
   58.1470   27.3330   45.5860 C   0  0  0  0  0  0  0  0  0  0  0  0
   57.8140   28.5040   44.9100 C   0  0  0  0  0  0  0  0  0  0  0  0
   58.2790   29.7690   45.3580 C   0  0  0  0  0  0  0  0  0  0  0  0
   57.9680   30.9350   44.6890 N   0  0  0  0  0  0  0  0  0  0  0  0
   57.3800   30.8730   43.3300 C   0  0  0  0  0  0  0  0  0  0  0  0
   58.2670   32.1620   45.2520 C   0  0  0  0  0  0  0  0  0  0  0  0
   57.7080   33.3510   44.7380 C   0  0  0  0  0  0  0  0  0  0  0  0
   58.1570   34.5900   45.1630 C   0  0  0  0  0  0  0  0  0  0  0  0
   59.2070   34.6790   46.0620 C   0  0  0  0  0  0  0  0  0  0  0  0
   59.7310   33.5300   46.6960 C   0  0  0  0  0  0  0  0  0  0  0  0
   61.0460   33.6240   47.3200 N   0  0  0  0  0  0  0  0  0  0  0  0
   62.1960   33.8500   46.4150 C   0  0  0  0  0  0  0  0  0  0  0  0
   63.4580   33.0390   46.7740 C   0  0  0  0  0  0  0  0  0  0  0  0
   63.7450   32.9620   48.2790 C   0  0  0  0  0  0  0  0  0  0  0  0
   62.6410   32.3950   48.9710 O   0  0  0  0  0  0  0  0  0  0  0  0
   61.9110   33.0930   49.9360 C   0  0  0  0  0  0  0  0  0  0  0  0
   62.6280   33.7620   51.0570 C   0  0  0  0  0  0  0  0  0  0  0  0
   60.6520   33.1570   49.8740 O   0  0  0  0  0  0  0  0  0  0  0  0
   59.1460   32.2550   46.3700 C   0  0  0  0  0  0  0  0  0  0  0  0
   63.9575   30.3625   52.2105 H   0  0  0  0  0  0  0  0  0  0  0  0
   63.9895   29.4298   50.6757 H   0  0  0  0  0  0  0  0  0  0  0  0
   63.4429   31.1409   50.6757 H   0  0  0  0  0  0  0  0  0  0  0  0
   62.0026   28.6517   51.6409 H   0  0  0  0  0  0  0  0  0  0  0  0
   61.6293   30.2466   52.3941 H   0  0  0  0  0  0  0  0  0  0  0  0
   61.3310   31.0960   50.1020 H   0  0  0  0  0  0  0  0  0  0  0  0
   59.4866   28.8509   50.7125 H   0  0  0  0  0  0  0  0  0  0  0  0
   59.4829   30.4085   51.5979 H   0  0  0  0  0  0  0  0  0  0  0  0
   58.2746   29.7880   49.0584 H   0  0  0  0  0  0  0  0  0  0  0  0
   58.3076   31.3688   49.9417 H   0  0  0  0  0  0  0  0  0  0  0  0
   60.7890   31.2860   48.7240 H   0  0  0  0  0  0  0  0  0  0  0  0
   59.9807   28.6511   48.1329 H   0  0  0  0  0  0  0  0  0  0  0  0
   59.2093   26.4574   47.2514 H   0  0  0  0  0  0  0  0  0  0  0  0
   57.7874   26.3630   45.2122 H   0  0  0  0  0  0  0  0  0  0  0  0
   57.1796   28.4483   44.0131 H   0  0  0  0  0  0  0  0  0  0  0  0
   56.2888   30.7579   43.4075 H   0  0  0  0  0  0  0  0  0  0  0  0
   57.6132   31.8007   42.7869 H   0  0  0  0  0  0  0  0  0  0  0  0
   57.8016   30.0143   42.7869 H   0  0  0  0  0  0  0  0  0  0  0  0
   56.9043   33.2930   43.9892 H   0  0  0  0  0  0  0  0  0  0  0  0
   57.6786   35.5059   44.7857 H   0  0  0  0  0  0  0  0  0  0  0  0
   59.6417   35.6641   46.2870 H   0  0  0  0  0  0  0  0  0  0  0  0
   61.0890   34.3280   48.0830 H   0  0  0  0  0  0  0  0  0  0  0  0
   61.2110   32.7040   47.7920 H   0  0  0  0  0  0  0  0  0  0  0  0
   61.8898   33.5762   45.3946 H   0  0  0  0  0  0  0  0  0  0  0  0
   62.4672   34.9117   46.5109 H   0  0  0  0  0  0  0  0  0  0  0  0
   63.3304   32.0148   46.3937 H   0  0  0  0  0  0  0  0  0  0  0  0
   64.3112   33.5592   46.3142 H   0  0  0  0  0  0  0  0  0  0  0  0
   64.6352   32.3377   48.4456 H   0  0  0  0  0  0  0  0  0  0  0  0
   63.9168   33.9797   48.6595 H   0  0  0  0  0  0  0  0  0  0  0  0
   62.2338   33.3942   52.0158 H   0  0  0  0  0  0  0  0  0  0  0  0
   63.7026   33.5363   50.9916 H   0  0  0  0  0  0  0  0  0  0  0  0
   62.4771   34.8496   50.9916 H   0  0  0  0  0  0  0  0  0  0  0  0
  1  2  1  0
  2  3  1  0
  3  4  1  0
  4  5  1  0
  5  6  1  0
  6  7  1  0
  7  8  2  0
  8  9  1  0
  9 10  2  0
 10 11  1  0
 11 12  2  0
 12 13  1  0
 13 14  2  0
 14 15  1  0
 14 16  1  0
 16 17  2  0
 17 18  1  0
 18 19  2  0
 19 20  1  0
 20 21  1  0
 21 22  1  0
 22 23  1  0
 23 24  1  0
 24 25  1  0
 25 26  1  0
 26 27  1  0
 26 28  2  0
 20 29  2  0
 29  7  1  0
 13  8  1  0
 29 16  1  0
  1 30  1  0
  1 31  1  0
  1 32  1  0
  2 33  1  0
  2 34  1  0
  3 35  1  0
  4 36  1  0
  4 37  1  0
  5 38  1  0
  5 39  1  0
  6 40  1  0
  9 41  1  0
 10 42  1  0
 11 43  1  0
 12 44  1  0
 15 45  1  0
 15 46  1  0
 15 47  1  0
 17 48  1  0
 18 49  1  0
 19 50  1  0
 21 51  1  0
 21 52  1  0
 22 53  1  0
 22 54  1  0
 23 55  1  0
 23 56  1  0
 24 57  1  0
 24 58  1  0
 27 59  1  0
 27 60  1  0
 27 61  1  0
M  CHG  2  14   1  21   1
M  END
>  <UniqueID>  (25) 
25

>  <SMILES>  (25) 
CCNCCNc1c2ccccc2[n+](C)c2cccc([NH2+]CCCOC(C)=O)c12

>  <Energy>  (25) 
99.13625135355565

>  <Genealogy>  (25) 
CCNCCNc1c2ccccc2[n+](C)c2cccc([NH2+]CCCOC(C)=O)c12 (protonated)
CCNCCNc1c2ccccc2[n+](C)c2cccc([NH2+]CCCOC(C)=O)c12 (3D coordinates assigned)
CCNCCNc1c2ccccc2[n+](C)c2cccc([NH2+]CCCOC(C)=O)c12 (optimized conformer: 99.13625135355565 kcal/mol)

>  <smiles>  (25) 
CCNCCNc1c2ccccc2[n+](C)c2cccc(NCCCOC(C)=O)c12

>  <score_type>  (25) 
oracle

>  <origin>  (25) 
adg

>  <m_score__min__energy>  (25) 
-2.8599999999999999

>  <m_primary>  (25) 
energy

$$$$
25:0
     RDKit          3D

 33 33  0  0  0  0  0  0  0  0999 V2000
   52.1430   23.4540   45.7790 H   0  0  0  0  0  0  0  0  0  0  0  0
   53.0670   23.1180   45.4240 N   0  0  0  0  0  0  0  0  0  0  0  0
   54.1780   23.6300   45.8420 C   0  0  0  0  0  0  0  0  0  0  0  0
   54.4660   24.9300   45.5700 N   0  0  0  0  0  0  0  0  0  0  0  0
   55.6260   25.5010   45.9970 C   0  0  0  0  0  0  0  0  0  0  0  0
   55.9150   26.8740   45.6980 N   0  0  0  0  0  0  0  0  0  0  0  0
   55.1630   27.4760   45.2910 H   0  0  0  0  0  0  0  0  0  0  0  0
   57.2020   27.4960   46.0040 C   0  0  0  0  0  0  0  0  0  0  0  0
   57.3259   27.5524   47.0955 H   0  0  0  0  0  0  0  0  0  0  0  0
   58.0043   26.8876   45.5611 H   0  0  0  0  0  0  0  0  0  0  0  0
   57.2710   28.9080   45.4160 C   0  0  0  0  0  0  0  0  0  0  0  0
   57.7781   29.5750   46.1286 H   0  0  0  0  0  0  0  0  0  0  0  0
   57.8310   28.8782   44.4697 H   0  0  0  0  0  0  0  0  0  0  0  0
   55.9650   29.3930   45.1680 O   0  0  0  0  0  0  0  0  0  0  0  0
   55.8720   29.9270   43.8630 C   0  0  0  0  0  0  0  0  0  0  0  0
   56.1233   29.1472   43.1290 H   0  0  0  0  0  0  0  0  0  0  0  0
   54.8463   30.2819   43.6843 H   0  0  0  0  0  0  0  0  0  0  0  0
   56.8450   31.0920   43.7200 C   0  0  0  0  0  0  0  0  0  0  0  0
   57.8673   30.7016   43.6080 H   0  0  0  0  0  0  0  0  0  0  0  0
   56.5734   31.6836   42.8333 H   0  0  0  0  0  0  0  0  0  0  0  0
   56.7810   31.9180   44.8690 O   0  0  0  0  0  0  0  0  0  0  0  0
   57.8810   32.8020   44.9100 C   0  0  0  0  0  0  0  0  0  0  0  0
   58.5960   32.4643   45.6747 H   0  0  0  0  0  0  0  0  0  0  0  0
   58.3786   32.8184   43.9291 H   0  0  0  0  0  0  0  0  0  0  0  0
   57.3880   34.1980   45.2560 C   0  0  0  0  0  0  0  0  0  0  0  0
   57.3477   34.3121   46.3493 H   0  0  0  0  0  0  0  0  0  0  0  0
   58.0767   34.9450   44.8345 H   0  0  0  0  0  0  0  0  0  0  0  0
   56.3829   34.3469   44.8345 H   0  0  0  0  0  0  0  0  0  0  0  0
   56.5410   24.7320   46.7250 C   0  0  0  0  0  0  0  0  0  0  0  0
   57.4866   25.1698   47.0773 H   0  0  0  0  0  0  0  0  0  0  0  0
   56.2300   23.3990   46.9950 C   0  0  0  0  0  0  0  0  0  0  0  0
   57.0300   22.6820   47.6490 O   0  0  0  0  0  0  0  0  0  0  0  0
   55.0580   22.8740   46.5510 N   0  0  0  0  0  0  0  0  0  0  0  0
  1  2  1  0
  2  3  2  0
  3  4  1  0
  4  5  1  0
  5  6  1  0
  6  7  1  0
  6  8  1  0
  8  9  1  0
  8 10  1  0
  8 11  1  0
 11 12  1  0
 11 13  1  0
 11 14  1  0
 14 15  1  0
 15 16  1  0
 15 17  1  0
 15 18  1  0
 18 19  1  0
 18 20  1  0
 18 21  1  0
 21 22  1  0
 22 23  1  0
 22 24  1  0
 22 25  1  0
 25 26  1  0
 25 27  1  0
 25 28  1  0
  5 29  2  0
 29 30  1  0
 29 31  1  0
 31 32  2  0
 31 33  1  0
 33  3  1  0
M  CHG  2   4  -1  33  -1
M  END
>  <UniqueID>  (26) 
26

>  <SMILES>  (26) 
[H]/N=c1/[n-]c(NCCOCCOCC)cc(=O)[n-]1

>  <Energy>  (26) 
27.009799150035388

>  <Genealogy>  (26) 
CCOCCOCCNc1cc(=O)[n-]c(=N)[n-]1 (protonated)
[H]/N=c1/[n-]c(NCCOCCOCC)cc(=O)[n-]1 (cis-trans isomerization)
[H]/N=c1/[n-]c(NCCOCCOCC)cc(=O)[n-]1 (3D coordinates assigned)
[H]/N=c1/[n-]c(NCCOCCOCC)cc(=O)[n-]1 (optimized conformer: 27.009799150035388 kcal/mol)

>  <smiles>  (26) 
CCOCCOCCNc1cc(=O)[nH]c(=N)[nH]1

>  <score_type>  (26) 
oracle

>  <origin>  (26) 
adg

>  <m_score__min__energy>  (26) 
-9.7300000000000004

>  <m_primary>  (26) 
energy

$$$$
27:0
     RDKit          3D

 57 57  0  0  0  0  0  0  0  0999 V2000
   60.4810   28.5960   44.7730 C   0  0  0  0  0  0  0  0  0  0  0  0
   60.3700   27.6570   45.9750 C   0  0  0  0  0  0  0  0  0  0  0  0
   59.2120   28.0210   46.8230 N   0  0  0  0  0  0  0  0  0  0  0  0
   59.6200   28.2300   48.2380 C   0  0  0  0  0  0  0  0  0  0  0  0
   58.8940   29.4430   48.8040 C   0  0  0  0  0  0  0  0  0  0  0  0
   58.1430   27.0030   46.7010 C   0  0  0  0  0  0  0  0  0  0  0  0
   57.0240   27.4720   45.7570 C   0  0  0  0  0  0  0  0  0  0  0  0
   57.5070   28.4840   44.8770 O   0  0  0  0  0  0  0  0  0  0  0  0
   56.7620   29.6140   44.5250 C   0  0  0  0  0  0  0  0  0  0  0  0
   55.5490   29.7150   44.8560 O   0  0  0  0  0  0  0  0  0  0  0  0
   57.4180   30.7190   43.7660 C   0  0  0  0  0  0  0  0  0  0  0  0
   57.8610   31.8040   44.7100 C   0  0  0  0  0  0  0  0  0  0  0  0
   57.4250   33.1220   44.5270 C   0  0  0  0  0  0  0  0  0  0  0  0
   57.8480   34.1300   45.3980 C   0  0  0  0  0  0  0  0  0  0  0  0
   58.6990   33.8270   46.4640 C   0  0  0  0  0  0  0  0  0  0  0  0
   59.1200   32.5070   46.6800 C   0  0  0  0  0  0  0  0  0  0  0  0
   60.0490   32.2220   47.7390 N   0  0  0  0  0  0  0  0  0  0  0  0
   61.2810   31.5100   47.5430 C   0  0  0  0  0  0  0  0  0  0  0  0
   61.4130   30.7270   46.5650 O   0  0  0  0  0  0  0  0  0  0  0  0
   62.4220   31.6960   48.5030 C   0  0  0  0  0  0  0  0  0  0  0  0
   63.1310   33.0740   48.3650 C   0  0  0  0  0  0  0  0  0  0  0  0
   64.5120   32.9860   49.0440 C   0  0  0  0  0  0  0  0  0  0  0  0
   63.3370   33.4290   46.8790 C   0  0  0  0  0  0  0  0  0  0  0  0
   62.3160   34.1890   49.0440 C   0  0  0  0  0  0  0  0  0  0  0  0
   58.7010   31.4990   45.7920 C   0  0  0  0  0  0  0  0  0  0  0  0
   60.6033   29.6306   45.1260 H   0  0  0  0  0  0  0  0  0  0  0  0
   61.3517   28.3110   44.1642 H   0  0  0  0  0  0  0  0  0  0  0  0
   59.5678   28.5218   44.1642 H   0  0  0  0  0  0  0  0  0  0  0  0
   60.2434   26.6251   45.6157 H   0  0  0  0  0  0  0  0  0  0  0  0
   61.2874   27.7441   46.5757 H   0  0  0  0  0  0  0  0  0  0  0  0
   59.3610   27.3393   48.8293 H   0  0  0  0  0  0  0  0  0  0  0  0
   60.7059   28.3991   48.2844 H   0  0  0  0  0  0  0  0  0  0  0  0
   58.9172   29.4043   49.9031 H   0  0  0  0  0  0  0  0  0  0  0  0
   59.3909   30.3617   48.4589 H   0  0  0  0  0  0  0  0  0  0  0  0
   57.8495   29.4392   48.4589 H   0  0  0  0  0  0  0  0  0  0  0  0
   58.5781   26.0733   46.3055 H   0  0  0  0  0  0  0  0  0  0  0  0
   57.7076   26.8384   47.6977 H   0  0  0  0  0  0  0  0  0  0  0  0
   56.6676   26.6165   45.1645 H   0  0  0  0  0  0  0  0  0  0  0  0
   56.2005   27.8854   46.3579 H   0  0  0  0  0  0  0  0  0  0  0  0
   58.2935   30.3228   43.2308 H   0  0  0  0  0  0  0  0  0  0  0  0
   56.6982   31.1388   43.0479 H   0  0  0  0  0  0  0  0  0  0  0  0
   56.7475   33.3649   43.6952 H   0  0  0  0  0  0  0  0  0  0  0  0
   57.5098   35.1653   45.2437 H   0  0  0  0  0  0  0  0  0  0  0  0
   59.0402   34.6276   47.1368 H   0  0  0  0  0  0  0  0  0  0  0  0
   59.8320   32.5810   48.6930 H   0  0  0  0  0  0  0  0  0  0  0  0
   62.0329   31.6058   49.5279 H   0  0  0  0  0  0  0  0  0  0  0  0
   63.1694   30.9230   48.2708 H   0  0  0  0  0  0  0  0  0  0  0  0
   64.3846   32.9941   50.1366 H   0  0  0  0  0  0  0  0  0  0  0  0
   65.0114   32.0542   48.7400 H   0  0  0  0  0  0  0  0  0  0  0  0
   65.1256   33.8469   48.7400 H   0  0  0  0  0  0  0  0  0  0  0  0
   63.8877   34.3781   46.8017 H   0  0  0  0  0  0  0  0  0  0  0  0
   63.9120   32.6303   46.3875 H   0  0  0  0  0  0  0  0  0  0  0  0
   62.3583   33.5319   46.3875 H   0  0  0  0  0  0  0  0  0  0  0  0
   62.3918   34.0852   50.1365 H   0  0  0  0  0  0  0  0  0  0  0  0
   62.7119   35.1694   48.7404 H   0  0  0  0  0  0  0  0  0  0  0  0
   61.2617   34.1093   48.7404 H   0  0  0  0  0  0  0  0  0  0  0  0
   59.0350   30.4625   45.9474 H   0  0  0  0  0  0  0  0  0  0  0  0
  1  2  1  0
  2  3  1  0
  3  4  1  0
  4  5  1  0
  3  6  1  0
  6  7  1  0
  7  8  1  0
  8  9  1  0
  9 10  2  0
  9 11  1  0
 11 12  1  0
 12 13  2  0
 13 14  1  0
 14 15  2  0
 15 16  1  0
 16 17  1  0
 17 18  1  0
 18 19  2  0
 18 20  1  0
 20 21  1  0
 21 22  1  0
 21 23  1  0
 21 24  1  0
 16 25  2  0
 25 12  1  0
  1 26  1  0
  1 27  1  0
  1 28  1  0
  2 29  1  0
  2 30  1  0
  4 31  1  0
  4 32  1  0
  5 33  1  0
  5 34  1  0
  5 35  1  0
  6 36  1  0
  6 37  1  0
  7 38  1  0
  7 39  1  0
 11 40  1  0
 11 41  1  0
 13 42  1  0
 14 43  1  0
 15 44  1  0
 17 45  1  0
 20 46  1  0
 20 47  1  0
 22 48  1  0
 22 49  1  0
 22 50  1  0
 23 51  1  0
 23 52  1  0
 23 53  1  0
 24 54  1  0
 24 55  1  0
 24 56  1  0
 25 57  1  0
M  END
>  <UniqueID>  (27) 
27

>  <SMILES>  (27) 
CCN(CC)CCOC(=O)Cc1cccc(NC(=O)CC(C)(C)C)c1

>  <Energy>  (27) 
46.10212861738254

>  <Genealogy>  (27) 
CCN(CC)CCOC(=O)Cc1cccc(NC(=O)CC(C)(C)C)c1 (3D coordinates assigned)
CCN(CC)CCOC(=O)Cc1cccc(NC(=O)CC(C)(C)C)c1 (optimized conformer: 46.10212861738254 kcal/mol)

>  <smiles>  (27) 
CCN(CC)CCOC(=O)Cc1cccc(NC(=O)CC(C)(C)C)c1

>  <score_type>  (27) 
oracle

>  <origin>  (27) 
adg

>  <m_score__min__energy>  (27) 
-7.71

>  <m_primary>  (27) 
energy

$$$$
28:0
     RDKit          3D

 65 67  0  0  0  0  0  0  0  0999 V2000
   57.8620   28.3210   44.5740 C   0  0  0  0  0  0  0  0  0  0  0  0
   57.4200   29.4030   45.5580 C   0  0  0  0  0  0  0  0  0  0  0  0
   56.5650   30.4050   44.8780 N   0  0  0  0  0  0  0  0  0  0  0  0
   56.1250   29.9340   43.5450 C   0  0  0  0  0  0  0  0  0  0  0  0
   56.7040   30.8040   42.4320 C   0  0  0  0  0  0  0  0  0  0  0  0
   57.2380   31.7280   44.7890 C   0  0  0  0  0  0  0  0  0  0  0  0
   58.1420   31.9280   46.0010 C   0  0  0  0  0  0  0  0  0  0  0  0
   57.8370   33.1580   46.6250 O   0  0  0  0  0  0  0  0  0  0  0  0
   58.2010   34.2420   45.7870 C   0  0  0  0  0  0  0  0  0  0  0  0
   59.6460   34.6970   46.0440 C   0  0  0  0  0  0  0  0  0  0  0  0
   60.0660   34.6170   47.5170 C   0  0  0  0  0  0  0  0  0  0  0  0
   60.2680   33.2320   47.9540 N   0  0  0  0  0  0  0  0  0  0  0  0
   60.7630   32.9410   49.2720 C   0  0  0  0  0  0  0  0  0  0  0  0
   59.8450   32.6570   50.2990 C   0  0  0  0  0  0  0  0  0  0  0  0
   58.5080   32.3190   50.0050 C   0  0  0  0  0  0  0  0  0  0  0  0
   57.6150   31.9970   51.0240 C   0  0  0  0  0  0  0  0  0  0  0  0
   58.0410   31.9910   52.3470 C   0  0  0  0  0  0  0  0  0  0  0  0
   59.3570   32.3310   52.6600 C   0  0  0  0  0  0  0  0  0  0  0  0
   60.2770   32.7000   51.6460 C   0  0  0  0  0  0  0  0  0  0  0  0
   61.5610   33.1060   51.9390 N   0  0  0  0  0  0  0  0  0  0  0  0
   61.9000   33.5330   53.3150 C   0  0  0  0  0  0  0  0  0  0  0  0
   62.5230   33.1220   50.9460 C   0  0  0  0  0  0  0  0  0  0  0  0
   63.8970   33.2340   51.2670 C   0  0  0  0  0  0  0  0  0  0  0  0
   64.8750   33.2830   50.2750 C   0  0  0  0  0  0  0  0  0  0  0  0
   66.3280   33.3910   50.6420 C   0  0  0  0  0  0  0  0  0  0  0  0
   64.5090   33.1170   48.9420 C   0  0  0  0  0  0  0  0  0  0  0  0
   63.1690   32.9310   48.5750 C   0  0  0  0  0  0  0  0  0  0  0  0
   62.9030   32.5630   47.1360 C   0  0  0  0  0  0  0  0  0  0  0  0
   62.1460   33.0010   49.5740 C   0  0  0  0  0  0  0  0  0  0  0  0
   58.2207   27.4430   45.1312 H   0  0  0  0  0  0  0  0  0  0  0  0
   57.0103   28.0308   43.9412 H   0  0  0  0  0  0  0  0  0  0  0  0
   58.6732   28.7101   43.9412 H   0  0  0  0  0  0  0  0  0  0  0  0
   56.8512   28.9375   46.3765 H   0  0  0  0  0  0  0  0  0  0  0  0
   58.3125   29.9082   45.9559 H   0  0  0  0  0  0  0  0  0  0  0  0
   56.4624   28.8969   43.4018 H   0  0  0  0  0  0  0  0  0  0  0  0
   55.0277   29.9953   43.4992 H   0  0  0  0  0  0  0  0  0  0  0  0
   57.2619   31.6423   42.8746 H   0  0  0  0  0  0  0  0  0  0  0  0
   57.3813   30.2006   41.8097 H   0  0  0  0  0  0  0  0  0  0  0  0
   55.8859   31.1958   41.8097 H   0  0  0  0  0  0  0  0  0  0  0  0
   57.8427   31.7695   43.8711 H   0  0  0  0  0  0  0  0  0  0  0  0
   56.4776   32.5225   44.7669 H   0  0  0  0  0  0  0  0  0  0  0  0
   57.9832   31.1065   46.7151 H   0  0  0  0  0  0  0  0  0  0  0  0
   59.1924   31.9359   45.6745 H   0  0  0  0  0  0  0  0  0  0  0  0
   58.1072   33.9282   44.7369 H   0  0  0  0  0  0  0  0  0  0  0  0
   57.5309   35.0862   46.0068 H   0  0  0  0  0  0  0  0  0  0  0  0
   60.3209   34.0581   45.4555 H   0  0  0  0  0  0  0  0  0  0  0  0
   59.7064   35.7553   45.7500 H   0  0  0  0  0  0  0  0  0  0  0  0
   61.0063   35.1723   47.6492 H   0  0  0  0  0  0  0  0  0  0  0  0
   59.2594   35.0520   48.1254 H   0  0  0  0  0  0  0  0  0  0  0  0
   59.6880   32.4990   47.4880 H   0  0  0  0  0  0  0  0  0  0  0  0
   58.1666   32.3096   48.9594 H   0  0  0  0  0  0  0  0  0  0  0  0
   56.5715   31.7472   50.7816 H   0  0  0  0  0  0  0  0  0  0  0  0
   57.3391   31.7176   53.1486 H   0  0  0  0  0  0  0  0  0  0  0  0
   59.6862   32.3126   53.7094 H   0  0  0  0  0  0  0  0  0  0  0  0
   61.3845   32.8837   54.0379 H   0  0  0  0  0  0  0  0  0  0  0  0
   62.9872   33.4579   53.4649 H   0  0  0  0  0  0  0  0  0  0  0  0
   61.5803   34.5748   53.4649 H   0  0  0  0  0  0  0  0  0  0  0  0
   64.1999   33.2835   52.3233 H   0  0  0  0  0  0  0  0  0  0  0  0
   66.4300   33.3986   51.7372 H   0  0  0  0  0  0  0  0  0  0  0  0
   66.8755   32.5311   50.2287 H   0  0  0  0  0  0  0  0  0  0  0  0
   66.7423   34.3224   50.2287 H   0  0  0  0  0  0  0  0  0  0  0  0
   65.2853   33.1321   48.1628 H   0  0  0  0  0  0  0  0  0  0  0  0
   62.2590   31.6720   47.0984 H   0  0  0  0  0  0  0  0  0  0  0  0
   62.4002   33.4005   46.6303 H   0  0  0  0  0  0  0  0  0  0  0  0
   63.8560   32.3482   46.6303 H   0  0  0  0  0  0  0  0  0  0  0  0
  1  2  1  0
  2  3  1  0
  3  4  1  0
  4  5  1  0
  3  6  1  0
  6  7  1  0
  7  8  1  0
  8  9  1  0
  9 10  1  0
 10 11  1  0
 11 12  1  0
 12 13  1  0
 13 14  2  0
 14 15  1  0
 15 16  2  0
 16 17  1  0
 17 18  2  0
 18 19  1  0
 19 20  2  0
 20 21  1  0
 20 22  1  0
 22 23  2  0
 23 24  1  0
 24 25  1  0
 24 26  2  0
 26 27  1  0
 27 28  1  0
 27 29  2  0
 29 13  1  0
 19 14  1  0
 29 22  1  0
  1 30  1  0
  1 31  1  0
  1 32  1  0
  2 33  1  0
  2 34  1  0
  4 35  1  0
  4 36  1  0
  5 37  1  0
  5 38  1  0
  5 39  1  0
  6 40  1  0
  6 41  1  0
  7 42  1  0
  7 43  1  0
  9 44  1  0
  9 45  1  0
 10 46  1  0
 10 47  1  0
 11 48  1  0
 11 49  1  0
 12 50  1  0
 15 51  1  0
 16 52  1  0
 17 53  1  0
 18 54  1  0
 21 55  1  0
 21 56  1  0
 21 57  1  0
 23 58  1  0
 25 59  1  0
 25 60  1  0
 25 61  1  0
 26 62  1  0
 28 63  1  0
 28 64  1  0
 28 65  1  0
M  CHG  1  20   1
M  END
>  <UniqueID>  (28) 
28

>  <SMILES>  (28) 
CCN(CC)CCOCCCNc1c2ccccc2[n+](C)c2cc(C)cc(C)c12

>  <Energy>  (28) 
93.7221371451495

>  <Genealogy>  (28) 
CCN(CC)CCOCCCNc1c2ccccc2[n+](C)c2cc(C)cc(C)c12 (3D coordinates assigned)
CCN(CC)CCOCCCNc1c2ccccc2[n+](C)c2cc(C)cc(C)c12 (optimized conformer: 93.7221371451495 kcal/mol)

>  <smiles>  (28) 
CCN(CC)CCOCCCNc1c2ccccc2[n+](C)c2cc(C)cc(C)c12

>  <score_type>  (28) 
oracle

>  <origin>  (28) 
adg

>  <m_score__min__energy>  (28) 
-6.2199999999999998

>  <m_primary>  (28) 
energy

$$$$
29:0
     RDKit          3D

 54 56  0  0  0  0  0  0  0  0999 V2000
   60.4790   26.7450   47.7810 C   0  0  0  0  0  0  0  0  0  0  0  0
   59.9210   27.9200   47.0360 C   0  0  0  0  0  0  0  0  0  0  0  0
   59.2110   27.7420   45.8480 C   0  0  0  0  0  0  0  0  0  0  0  0
   58.7090   28.8400   45.1540 C   0  0  0  0  0  0  0  0  0  0  0  0
   58.8910   30.1620   45.6370 C   0  0  0  0  0  0  0  0  0  0  0  0
   59.6710   30.3450   46.8110 C   0  0  0  0  0  0  0  0  0  0  0  0
   60.1750   29.2160   47.4950 C   0  0  0  0  0  0  0  0  0  0  0  0
   59.9280   31.6480   47.2770 C   0  0  0  0  0  0  0  0  0  0  0  0
   60.6270   31.8480   48.5190 N   0  0  0  0  0  0  0  0  0  0  0  0
   59.9250   32.1750   49.7630 C   0  0  0  0  0  0  0  0  0  0  0  0
   60.5670   33.3790   50.4700 C   0  0  0  0  0  0  0  0  0  0  0  0
   61.6330   33.9680   49.6450 N   0  0  0  0  0  0  0  0  0  0  0  0
   62.9530   33.4080   49.9620 C   0  0  0  0  0  0  0  0  0  0  0  0
   63.8280   33.3910   48.7020 C   0  0  0  0  0  0  0  0  0  0  0  0
   63.0530   32.9690   47.5130 N   0  0  0  0  0  0  0  0  0  0  0  0
   63.3090   33.8580   46.3650 C   0  0  0  0  0  0  0  0  0  0  0  0
   63.4000   31.5860   47.1460 C   0  0  0  0  0  0  0  0  0  0  0  0
   59.5420   32.7480   46.4890 C   0  0  0  0  0  0  0  0  0  0  0  0
   59.9590   34.0550   46.8170 C   0  0  0  0  0  0  0  0  0  0  0  0
   59.6000   35.1380   46.0180 C   0  0  0  0  0  0  0  0  0  0  0  0
   58.8490   34.9370   44.8670 C   0  0  0  0  0  0  0  0  0  0  0  0
   58.4450   33.6500   44.5110 C   0  0  0  0  0  0  0  0  0  0  0  0
   58.7590   32.5320   45.3240 C   0  0  0  0  0  0  0  0  0  0  0  0
   58.3420   31.2550   44.9940 N   0  0  0  0  0  0  0  0  0  0  0  0
   57.2910   31.0620   43.9690 C   0  0  0  0  0  0  0  0  0  0  0  0
   60.3944   26.9232   48.8632 H   0  0  0  0  0  0  0  0  0  0  0  0
   59.9147   25.8395   47.5133 H   0  0  0  0  0  0  0  0  0  0  0  0
   61.5374   26.6101   47.5133 H   0  0  0  0  0  0  0  0  0  0  0  0
   59.0467   26.7271   45.4569 H   0  0  0  0  0  0  0  0  0  0  0  0
   58.1611   28.6796   44.2137 H   0  0  0  0  0  0  0  0  0  0  0  0
   60.7775   29.3592   48.4041 H   0  0  0  0  0  0  0  0  0  0  0  0
   61.6610   31.6990   48.5450 H   0  0  0  0  0  0  0  0  0  0  0  0
   58.8768   32.4140   49.5301 H   0  0  0  0  0  0  0  0  0  0  0  0
   59.9877   31.3059   50.4343 H   0  0  0  0  0  0  0  0  0  0  0  0
   59.7950   34.1399   50.6571 H   0  0  0  0  0  0  0  0  0  0  0  0
   61.0069   33.0352   51.4178 H   0  0  0  0  0  0  0  0  0  0  0  0
   61.4260   33.7530   48.6420 H   0  0  0  0  0  0  0  0  0  0  0  0
   63.4359   34.0259   50.7333 H   0  0  0  0  0  0  0  0  0  0  0  0
   62.8311   32.3796   50.3327 H   0  0  0  0  0  0  0  0  0  0  0  0
   64.2268   34.4015   48.5293 H   0  0  0  0  0  0  0  0  0  0  0  0
   64.6449   32.6707   48.8569 H   0  0  0  0  0  0  0  0  0  0  0  0
   63.5961   34.8551   46.7303 H   0  0  0  0  0  0  0  0  0  0  0  0
   64.1240   33.4426   45.7541 H   0  0  0  0  0  0  0  0  0  0  0  0
   62.3979   33.9396   45.7541 H   0  0  0  0  0  0  0  0  0  0  0  0
   63.5493   30.9908   48.0590 H   0  0  0  0  0  0  0  0  0  0  0  0
   62.5838   31.1484   46.5524 H   0  0  0  0  0  0  0  0  0  0  0  0
   64.3261   31.5855   46.5524 H   0  0  0  0  0  0  0  0  0  0  0  0
   60.5744   34.2208   47.7135 H   0  0  0  0  0  0  0  0  0  0  0  0
   59.9119   36.1547   46.2992 H   0  0  0  0  0  0  0  0  0  0  0  0
   58.5724   35.7939   44.2352 H   0  0  0  0  0  0  0  0  0  0  0  0
   57.8730   33.5002   43.5835 H   0  0  0  0  0  0  0  0  0  0  0  0
   56.3246   30.8845   44.4636 H   0  0  0  0  0  0  0  0  0  0  0  0
   57.2216   31.9624   43.3410 H   0  0  0  0  0  0  0  0  0  0  0  0
   57.5460   30.1957   43.3410 H   0  0  0  0  0  0  0  0  0  0  0  0
  1  2  1  0
  2  3  2  0
  3  4  1  0
  4  5  2  0
  5  6  1  0
  6  7  2  0
  6  8  1  0
  8  9  1  0
  9 10  1  0
 10 11  1  0
 11 12  1  0
 12 13  1  0
 13 14  1  0
 14 15  1  0
 15 16  1  0
 15 17  1  0
  8 18  2  0
 18 19  1  0
 19 20  2  0
 20 21  1  0
 21 22  2  0
 22 23  1  0
 23 24  2  0
 24 25  1  0
  7  2  1  0
 23 18  1  0
 24  5  1  0
  1 26  1  0
  1 27  1  0
  1 28  1  0
  3 29  1  0
  4 30  1  0
  7 31  1  0
  9 32  1  0
 10 33  1  0
 10 34  1  0
 11 35  1  0
 11 36  1  0
 12 37  1  0
 13 38  1  0
 13 39  1  0
 14 40  1  0
 14 41  1  0
 16 42  1  0
 16 43  1  0
 16 44  1  0
 17 45  1  0
 17 46  1  0
 17 47  1  0
 19 48  1  0
 20 49  1  0
 21 50  1  0
 22 51  1  0
 25 52  1  0
 25 53  1  0
 25 54  1  0
M  CHG  1  24   1
M  END
>  <UniqueID>  (29) 
29

>  <SMILES>  (29) 
Cc1ccc2c(c1)c(NCCNCCN(C)C)c1ccccc1[n+]2C

>  <Energy>  (29) 
74.53470944229848

>  <Genealogy>  (29) 
Cc1ccc2c(c1)c(NCCNCCN(C)C)c1ccccc1[n+]2C (3D coordinates assigned)
Cc1ccc2c(c1)c(NCCNCCN(C)C)c1ccccc1[n+]2C (optimized conformer: 74.53470944229848 kcal/mol)

>  <smiles>  (29) 
Cc1ccc2c(c1)c(NCCNCCN(C)C)c1ccccc1[n+]2C

>  <score_type>  (29) 
oracle

>  <origin>  (29) 
adg

>  <m_score__min__energy>  (29) 
-4.9400000000000004

>  <m_primary>  (29) 
energy

$$$$
30:0
     RDKit          3D

 89 93  0  0  0  0  0  0  0  0999 V2000
   59.7240   35.0370   46.1210 C   0  0  0  0  0  0  0  0  0  0  0  0
   59.3520   34.1880   44.8960 C   0  0  0  0  0  0  0  0  0  0  0  0
   58.1210   33.3720   45.0450 N   0  0  1  0  0  0  0  0  0  0  0  0
   56.9340   34.2280   45.2440 C   0  0  0  0  0  0  0  0  0  0  0  0
   57.8780   32.4140   43.9380 C   0  0  0  0  0  0  0  0  0  0  0  0
   57.5530   30.9820   44.4100 C   0  0  0  0  0  0  0  0  0  0  0  0
   58.6750   30.0660   44.1920 N   0  0  0  0  0  0  0  0  0  0  0  0
   59.1440   29.2090   45.2430 C   0  0  0  0  0  0  0  0  0  0  0  0
   58.8230   27.8410   45.2480 C   0  0  0  0  0  0  0  0  0  0  0  0
   58.1330   27.2650   44.1610 C   0  0  0  0  0  0  0  0  0  0  0  0
   57.7870   25.9160   44.1730 C   0  0  0  0  0  0  0  0  0  0  0  0
   58.0770   25.1340   45.2820 C   0  0  0  0  0  0  0  0  0  0  0  0
   58.7330   25.6870   46.3800 C   0  0  0  0  0  0  0  0  0  0  0  0
   59.1620   27.0430   46.3750 C   0  0  0  0  0  0  0  0  0  0  0  0
   59.8530   27.5960   47.4380 N   0  0  0  0  0  0  0  0  0  0  0  0
   60.3920   26.7420   48.5170 C   0  0  0  0  0  0  0  0  0  0  0  0
   60.0640   28.9620   47.4900 C   0  0  0  0  0  0  0  0  0  0  0  0
   60.5470   29.6040   48.6600 C   0  0  0  0  0  0  0  0  0  0  0  0
   60.8480   30.9690   48.6730 C   0  0  0  0  0  0  0  0  0  0  0  0
   61.3080   31.5280   49.8760 O   0  0  0  0  0  0  0  0  0  0  0  0
   60.7900   32.7040   50.5040 C   0  0  0  0  0  0  0  0  0  0  0  0
   61.8130   33.2980   51.5070 C   0  0  0  0  0  0  0  0  0  0  0  0
   61.8420   32.6720   52.8780 N   0  0  2  0  0  0  0  0  0  0  0  0
   61.0320   33.4880   53.8270 C   0  0  0  0  0  0  0  0  0  0  0  0
   63.2410   32.6180   53.4050 C   0  0  0  0  0  0  0  0  0  0  0  0
   64.1250   31.5710   52.6860 C   0  0  0  0  0  0  0  0  0  0  0  0
   63.5170   30.1920   52.5810 N   0  0  1  0  0  0  0  0  0  0  0  0
   63.3520   29.8460   51.1380 C   0  0  0  0  0  0  0  0  0  0  0  0
   64.4400   29.2080   53.2480 C   0  0  0  0  0  0  0  0  0  0  0  0
   65.4670   28.5520   52.3320 C   0  0  0  0  0  0  0  0  0  0  0  0
   66.5390   29.3100   51.8240 C   0  0  0  0  0  0  0  0  0  0  0  0
   67.5330   28.7040   51.0440 C   0  0  0  0  0  0  0  0  0  0  0  0
   67.4620   27.3400   50.7540 C   0  0  0  0  0  0  0  0  0  0  0  0
   68.7220   26.5810   49.7860 Cl  0  0  0  0  0  0  0  0  0  0  0  0
   66.3820   26.5840   51.2160 C   0  0  0  0  0  0  0  0  0  0  0  0
   65.3790   27.1750   52.0000 C   0  0  0  0  0  0  0  0  0  0  0  0
   64.0320   26.1470   52.5170 Cl  0  0  0  0  0  0  0  0  0  0  0  0
   62.1770   30.1460   53.2470 C   0  0  0  0  0  0  0  0  0  0  0  0
   61.2370   31.2930   52.8100 C   0  0  0  0  0  0  0  0  0  0  0  0
   60.6810   31.7240   47.5060 C   0  0  0  0  0  0  0  0  0  0  0  0
   60.1330   31.1330   46.3720 C   0  0  0  0  0  0  0  0  0  0  0  0
   59.7810   29.7690   46.3610 C   0  0  0  0  0  0  0  0  0  0  0  0
   59.4809   34.4821   47.0392 H   0  0  0  0  0  0  0  0  0  0  0  0
   60.8014   35.2579   46.1005 H   0  0  0  0  0  0  0  0  0  0  0  0
   59.1561   35.9788   46.1005 H   0  0  0  0  0  0  0  0  0  0  0  0
   59.2097   34.8664   44.0419 H   0  0  0  0  0  0  0  0  0  0  0  0
   60.1773   33.4743   44.7562 H   0  0  0  0  0  0  0  0  0  0  0  0
   58.2340   32.8160   45.9290 H   0  0  0  0  0  0  0  0  0  0  0  0
   56.7527   34.3588   46.3210 H   0  0  0  0  0  0  0  0  0  0  0  0
   57.1080   35.2099   44.7796 H   0  0  0  0  0  0  0  0  0  0  0  0
   56.0573   33.7529   44.7796 H   0  0  0  0  0  0  0  0  0  0  0  0
   57.0307   32.7824   43.3410 H   0  0  0  0  0  0  0  0  0  0  0  0
   58.8102   32.3546   43.3571 H   0  0  0  0  0  0  0  0  0  0  0  0
   57.3179   31.0066   45.4843 H   0  0  0  0  0  0  0  0  0  0  0  0
   56.6966   30.6167   43.8243 H   0  0  0  0  0  0  0  0  0  0  0  0
   58.9230   29.7840   43.2190 H   0  0  0  0  0  0  0  0  0  0  0  0
   57.8654   27.8878   43.2947 H   0  0  0  0  0  0  0  0  0  0  0  0
   57.2834   25.4701   43.3026 H   0  0  0  0  0  0  0  0  0  0  0  0
   57.7877   24.0728   45.2944 H   0  0  0  0  0  0  0  0  0  0  0  0
   58.9224   25.0637   47.2664 H   0  0  0  0  0  0  0  0  0  0  0  0
   60.1216   27.1704   49.4934 H   0  0  0  0  0  0  0  0  0  0  0  0
   59.9683   25.7306   48.4304 H   0  0  0  0  0  0  0  0  0  0  0  0
   61.4873   26.6893   48.4304 H   0  0  0  0  0  0  0  0  0  0  0  0
   60.6877   29.0139   49.5776 H   0  0  0  0  0  0  0  0  0  0  0  0
   60.5664   33.4548   49.7318 H   0  0  0  0  0  0  0  0  0  0  0  0
   59.8775   32.4327   51.0551 H   0  0  0  0  0  0  0  0  0  0  0  0
   62.8155   33.1897   51.0674 H   0  0  0  0  0  0  0  0  0  0  0  0
   61.4981   34.3399   51.6660 H   0  0  0  0  0  0  0  0  0  0  0  0
   61.2979   33.2202   54.8602 H   0  0  0  0  0  0  0  0  0  0  0  0
   61.2377   34.5557   53.6605 H   0  0  0  0  0  0  0  0  0  0  0  0
   59.9628   33.2902   53.6605 H   0  0  0  0  0  0  0  0  0  0  0  0
   63.7005   33.6093   53.2782 H   0  0  0  0  0  0  0  0  0  0  0  0
   63.1799   32.3222   54.4627 H   0  0  0  0  0  0  0  0  0  0  0  0
   64.3260   31.9346   51.6675 H   0  0  0  0  0  0  0  0  0  0  0  0
   65.0340   31.4626   53.2959 H   0  0  0  0  0  0  0  0  0  0  0  0
   62.8800   28.8563   51.0499 H   0  0  0  0  0  0  0  0  0  0  0  0
   62.7165   30.6000   50.6505 H   0  0  0  0  0  0  0  0  0  0  0  0
   64.3379   29.8268   50.6505 H   0  0  0  0  0  0  0  0  0  0  0  0
   64.9841   29.7382   54.0435 H   0  0  0  0  0  0  0  0  0  0  0  0
   63.7996   28.3939   53.6182 H   0  0  0  0  0  0  0  0  0  0  0  0
   66.5968   30.3868   52.0411 H   0  0  0  0  0  0  0  0  0  0  0  0
   68.3709   29.3041   50.6594 H   0  0  0  0  0  0  0  0  0  0  0  0
   66.3170   25.5155   50.9630 H   0  0  0  0  0  0  0  0  0  0  0  0
   61.6969   29.1877   52.9996 H   0  0  0  0  0  0  0  0  0  0  0  0
   62.3466   30.2578   54.3281 H   0  0  0  0  0  0  0  0  0  0  0  0
   60.9301   31.1057   51.7704 H   0  0  0  0  0  0  0  0  0  0  0  0
   60.3969   31.2900   53.5201 H   0  0  0  0  0  0  0  0  0  0  0  0
   60.9823   32.7817   47.4857 H   0  0  0  0  0  0  0  0  0  0  0  0
   59.9720   31.7407   45.4693 H   0  0  0  0  0  0  0  0  0  0  0  0
  1  2  1  0
  2  3  1  0
  3  4  1  0
  3  5  1  0
  5  6  1  0
  6  7  1  0
  7  8  1  0
  8  9  2  0
  9 10  1  0
 10 11  2  0
 11 12  1  0
 12 13  2  0
 13 14  1  0
 14 15  2  0
 15 16  1  0
 15 17  1  0
 17 18  2  0
 18 19  1  0
 19 20  1  0
 20 21  1  0
 21 22  1  0
 23 22  1  6
 23 24  1  0
 23 25  1  0
 25 26  1  0
 26 27  1  0
 27 28  1  6
 27 29  1  0
 29 30  1  0
 30 31  2  0
 31 32  1  0
 32 33  2  0
 33 34  1  0
 33 35  1  0
 35 36  2  0
 36 37  1  0
 27 38  1  0
 38 39  1  0
 19 40  2  0
 40 41  1  0
 41 42  2  0
 42  8  1  0
 14  9  1  0
 42 17  1  0
 39 23  1  0
 36 30  1  0
  1 43  1  0
  1 44  1  0
  1 45  1  0
  2 46  1  0
  2 47  1  0
  3 48  1  1
  4 49  1  0
  4 50  1  0
  4 51  1  0
  5 52  1  0
  5 53  1  0
  6 54  1  0
  6 55  1  0
  7 56  1  0
 10 57  1  0
 11 58  1  0
 12 59  1  0
 13 60  1  0
 16 61  1  0
 16 62  1  0
 16 63  1  0
 18 64  1  0
 21 65  1  0
 21 66  1  0
 22 67  1  0
 22 68  1  0
 24 69  1  0
 24 70  1  0
 24 71  1  0
 25 72  1  0
 25 73  1  0
 26 74  1  0
 26 75  1  0
 28 76  1  0
 28 77  1  0
 28 78  1  0
 29 79  1  0
 29 80  1  0
 31 81  1  0
 32 82  1  0
 35 83  1  0
 38 84  1  0
 38 85  1  0
 39 86  1  0
 39 87  1  0
 40 88  1  0
 41 89  1  0
M  CHG  4   3   1  15   1  23   1  27   1
M  END
>  <UniqueID>  (30) 
30

>  <SMILES>  (30) 
CC[N@@H+](C)CCNc1c2ccccc2[n+](C)c2cc(OCC[N+]3(C)CC[N+](C)(Cc4ccc(Cl)cc4Cl)CC3)ccc12

>  <Energy>  (30) 
164.8455345333309

>  <Genealogy>  (30) 
CC[NH+](C)CCNc1c2ccccc2[n+](C)c2cc(OCC[N+]3(C)CC[N+](C)(Cc4ccc(Cl)cc4Cl)CC3)ccc12 (protonated)
CC[N@@H+](C)CCNc1c2ccccc2[n+](C)c2cc(OCC[N+]3(C)CC[N+](C)(Cc4ccc(Cl)cc4Cl)CC3)ccc12 (chirality)
CC[N@@H+](C)CCNc1c2ccccc2[n+](C)c2cc(OCC[N+]3(C)CC[N+](C)(Cc4ccc(Cl)cc4Cl)CC3)ccc12 (3D coordinates assigned)
CC[N@@H+](C)CCNc1c2ccccc2[n+](C)c2cc(OCC[N+]3(C)CC[N+](C)(Cc4ccc(Cl)cc4Cl)CC3)ccc12 (nonaromatic ring conformer: 164.8455345333309 kcal/mol)

>  <smiles>  (30) 
CCN(C)CCNc1c2ccccc2[n+](C)c2cc(OCC[N+]3(C)CC[N+](C)(Cc4ccc(Cl)cc4Cl)CC3)ccc12

>  <score_type>  (30) 
oracle

>  <origin>  (30) 
adg

>  <m_score__min__energy>  (30) 
-4.3300000000000001

>  <m_primary>  (30) 
energy

$$$$
31:0
     RDKit          3D

 71 74  0  0  0  0  0  0  0  0999 V2000
   58.8730   33.9950   52.2080 C   0  0  0  0  0  0  0  0  0  0  0  0
   57.6550   33.0750   52.0820 C   0  0  0  0  0  0  0  0  0  0  0  0
   57.7250   32.1770   50.9110 N   0  0  0  0  0  0  0  0  0  0  0  0
   57.7560   30.7370   51.2330 C   0  0  0  0  0  0  0  0  0  0  0  0
   58.4300   29.8930   50.1390 C   0  0  0  0  0  0  0  0  0  0  0  0
   59.1040   30.7570   49.1710 N   0  0  0  0  0  0  0  0  0  0  0  0
   58.8920   30.5970   47.7580 C   0  0  0  0  0  0  0  0  0  0  0  0
   59.0590   29.3260   47.1790 C   0  0  0  0  0  0  0  0  0  0  0  0
   59.6160   28.2610   47.9200 C   0  0  0  0  0  0  0  0  0  0  0  0
   59.8020   27.0100   47.3370 C   0  0  0  0  0  0  0  0  0  0  0  0
   59.4490   26.8020   46.0090 C   0  0  0  0  0  0  0  0  0  0  0  0
   58.8830   27.8360   45.2630 C   0  0  0  0  0  0  0  0  0  0  0  0
   58.6440   29.1090   45.8420 C   0  0  0  0  0  0  0  0  0  0  0  0
   58.0190   30.1210   45.1410 N   0  0  0  0  0  0  0  0  0  0  0  0
   57.2930   29.8080   43.8890 C   0  0  0  0  0  0  0  0  0  0  0  0
   58.0570   31.4180   45.6170 C   0  0  0  0  0  0  0  0  0  0  0  0
   57.6870   32.5110   44.7950 C   0  0  0  0  0  0  0  0  0  0  0  0
   57.6850   33.8100   45.2850 C   0  0  0  0  0  0  0  0  0  0  0  0
   58.0920   34.0710   46.5850 C   0  0  0  0  0  0  0  0  0  0  0  0
   58.5300   33.0310   47.4200 C   0  0  0  0  0  0  0  0  0  0  0  0
   59.0450   33.3150   48.6970 O   0  0  0  0  0  0  0  0  0  0  0  0
   59.9750   34.3530   49.0030 C   0  0  0  0  0  0  0  0  0  0  0  0
   61.2270   34.2220   48.1020 C   0  0  0  0  0  0  0  0  0  0  0  0
   62.2830   33.2480   48.5590 N   0  0  0  0  0  0  0  0  0  0  0  0
   63.5450   33.4990   47.7800 C   0  0  0  0  0  0  0  0  0  0  0  0
   63.3750   33.9850   46.3270 C   0  0  0  0  0  0  0  0  0  0  0  0
   62.5210   33.4250   50.0320 C   0  0  0  0  0  0  0  0  0  0  0  0
   61.5680   32.5610   50.8850 C   0  0  0  0  0  0  0  0  0  0  0  0
   61.6910   31.1640   50.6560 O   0  0  0  0  0  0  0  0  0  0  0  0
   62.1500   30.8370   49.3540 C   0  0  0  0  0  0  0  0  0  0  0  0
   61.7500   31.8690   48.2770 C   0  0  0  0  0  0  0  0  0  0  0  0
   58.4890   31.6860   46.9490 C   0  0  0  0  0  0  0  0  0  0  0  0
   59.0965   34.1638   53.2717 H   0  0  0  0  0  0  0  0  0  0  0  0
   59.7400   33.5243   51.7214 H   0  0  0  0  0  0  0  0  0  0  0  0
   58.6573   34.9576   51.7214 H   0  0  0  0  0  0  0  0  0  0  0  0
   57.5856   32.4597   52.9912 H   0  0  0  0  0  0  0  0  0  0  0  0
   56.7716   33.7170   51.9503 H   0  0  0  0  0  0  0  0  0  0  0  0
   58.5860   32.4080   50.3640 H   0  0  0  0  0  0  0  0  0  0  0  0
   56.9030   32.3720   50.2940 H   0  0  0  0  0  0  0  0  0  0  0  0
   58.3100   30.5996   52.1733 H   0  0  0  0  0  0  0  0  0  0  0  0
   56.7138   30.3955   51.3178 H   0  0  0  0  0  0  0  0  0  0  0  0
   59.1688   29.2224   50.6022 H   0  0  0  0  0  0  0  0  0  0  0  0
   57.6605   29.3051   49.6172 H   0  0  0  0  0  0  0  0  0  0  0  0
   59.8380   31.4240   49.5020 H   0  0  0  0  0  0  0  0  0  0  0  0
   59.9061   28.4211   48.9689 H   0  0  0  0  0  0  0  0  0  0  0  0
   60.2285   26.1861   47.9279 H   0  0  0  0  0  0  0  0  0  0  0  0
   59.6164   25.8190   45.5447 H   0  0  0  0  0  0  0  0  0  0  0  0
   58.6179   27.6617   44.2097 H   0  0  0  0  0  0  0  0  0  0  0  0
   56.3080   29.3833   44.1327 H   0  0  0  0  0  0  0  0  0  0  0  0
   57.1603   30.7288   43.3021 H   0  0  0  0  0  0  0  0  0  0  0  0
   57.8714   29.0793   43.3021 H   0  0  0  0  0  0  0  0  0  0  0  0
   57.3962   32.3272   43.7502 H   0  0  0  0  0  0  0  0  0  0  0  0
   57.3585   34.6376   44.6380 H   0  0  0  0  0  0  0  0  0  0  0  0
   58.0714   35.1029   46.9654 H   0  0  0  0  0  0  0  0  0  0  0  0
   59.5010   35.3302   48.8288 H   0  0  0  0  0  0  0  0  0  0  0  0
   60.2774   34.2687   50.0573 H   0  0  0  0  0  0  0  0  0  0  0  0
   60.8894   33.9057   47.1040 H   0  0  0  0  0  0  0  0  0  0  0  0
   61.7101   35.2099   48.1277 H   0  0  0  0  0  0  0  0  0  0  0  0
   64.1249   34.2612   48.3210 H   0  0  0  0  0  0  0  0  0  0  0  0
   64.0370   32.5183   47.7017 H   0  0  0  0  0  0  0  0  0  0  0  0
   63.0118   35.0233   46.3278 H   0  0  0  0  0  0  0  0  0  0  0  0
   64.3437   33.9358   45.8082 H   0  0  0  0  0  0  0  0  0  0  0  0
   62.6482   33.3427   45.8082 H   0  0  0  0  0  0  0  0  0  0  0  0
   63.5583   33.1387   50.2601 H   0  0  0  0  0  0  0  0  0  0  0  0
   62.3329   34.4801   50.2799 H   0  0  0  0  0  0  0  0  0  0  0  0
   61.7804   32.7572   51.9463 H   0  0  0  0  0  0  0  0  0  0  0  0
   60.5435   32.8408   50.5983 H   0  0  0  0  0  0  0  0  0  0  0  0
   63.2476   30.7695   49.3796 H   0  0  0  0  0  0  0  0  0  0  0  0
   61.6771   29.8834   49.0766 H   0  0  0  0  0  0  0  0  0  0  0  0
   62.1428   31.5329   47.3061 H   0  0  0  0  0  0  0  0  0  0  0  0
   60.6519   31.9342   48.2746 H   0  0  0  0  0  0  0  0  0  0  0  0
  1  2  1  0
  2  3  1  0
  3  4  1  0
  4  5  1  0
  5  6  1  0
  6  7  1  0
  7  8  2  0
  8  9  1  0
  9 10  2  0
 10 11  1  0
 11 12  2  0
 12 13  1  0
 13 14  2  0
 14 15  1  0
 14 16  1  0
 16 17  2  0
 17 18  1  0
 18 19  2  0
 19 20  1  0
 20 21  1  0
 21 22  1  0
 22 23  1  0
 23 24  1  0
 24 25  1  0
 25 26  1  0
 24 27  1  0
 27 28  1  0
 28 29  1  0
 29 30  1  0
 30 31  1  0
 20 32  2  0
 32  7  1  0
 13  8  1  0
 32 16  1  0
 31 24  1  0
  1 33  1  0
  1 34  1  0
  1 35  1  0
  2 36  1  0
  2 37  1  0
  3 38  1  0
  3 39  1  0
  4 40  1  0
  4 41  1  0
  5 42  1  0
  5 43  1  0
  6 44  1  0
  9 45  1  0
 10 46  1  0
 11 47  1  0
 12 48  1  0
 15 49  1  0
 15 50  1  0
 15 51  1  0
 17 52  1  0
 18 53  1  0
 19 54  1  0
 22 55  1  0
 22 56  1  0
 23 57  1  0
 23 58  1  0
 25 59  1  0
 25 60  1  0
 26 61  1  0
 26 62  1  0
 26 63  1  0
 27 64  1  0
 27 65  1  0
 28 66  1  0
 28 67  1  0
 30 68  1  0
 30 69  1  0
 31 70  1  0
 31 71  1  0
M  CHG  3   3   1  14   1  24   1
M  END
>  <UniqueID>  (31) 
31

>  <SMILES>  (31) 
CC[NH2+]CCNc1c2ccccc2[n+](C)c2cccc(OCC[N+]3(CC)CCOCC3)c12

>  <Energy>  (31) 
127.40447730507708

>  <Genealogy>  (31) 
CC[NH2+]CCNc1c2ccccc2[n+](C)c2cccc(OCC[N+]3(CC)CCOCC3)c12 (protonated)
CC[NH2+]CCNc1c2ccccc2[n+](C)c2cccc(OCC[N+]3(CC)CCOCC3)c12 (3D coordinates assigned)
CC[NH2+]CCNc1c2ccccc2[n+](C)c2cccc(OCC[N+]3(CC)CCOCC3)c12 (nonaromatic ring conformer: 127.40447730507708 kcal/mol)

>  <smiles>  (31) 
CCNCCNc1c2ccccc2[n+](C)c2cccc(OCC[N+]3(CC)CCOCC3)c12

>  <score_type>  (31) 
oracle

>  <origin>  (31) 
adg

>  <m_score__min__energy>  (31) 
-3.21

>  <m_primary>  (31) 
energy

$$$$
32:0
     RDKit          3D

 73 76  0  0  0  0  0  0  0  0999 V2000
   63.3820   33.8460   46.7320 C   0  0  0  0  0  0  0  0  0  0  0  0
   62.7270   32.6770   47.4660 C   0  0  0  0  0  0  0  0  0  0  0  0
   62.9730   32.8140   48.9250 N   0  0  0  0  0  0  0  0  0  0  0  0
   64.4040   33.0700   49.2160 C   0  0  0  0  0  0  0  0  0  0  0  0
   64.9520   32.0160   50.1770 C   0  0  0  0  0  0  0  0  0  0  0  0
   62.1150   33.8630   49.5200 C   0  0  0  0  0  0  0  0  0  0  0  0
   60.7960   33.9940   48.7430 C   0  0  0  0  0  0  0  0  0  0  0  0
   59.9400   32.8200   48.9300 N   0  0  0  0  0  0  0  0  0  0  0  0
   59.6350   31.9210   47.8560 C   0  0  0  0  0  0  0  0  0  0  0  0
   58.9260   32.4430   46.7580 C   0  0  0  0  0  0  0  0  0  0  0  0
   58.7620   33.8380   46.6080 C   0  0  0  0  0  0  0  0  0  0  0  0
   58.0210   34.3620   45.5480 C   0  0  0  0  0  0  0  0  0  0  0  0
   57.4210   33.5110   44.6320 C   0  0  0  0  0  0  0  0  0  0  0  0
   57.5830   32.1350   44.7510 C   0  0  0  0  0  0  0  0  0  0  0  0
   58.3700   31.5720   45.7940 C   0  0  0  0  0  0  0  0  0  0  0  0
   58.5710   30.2140   45.8970 N   0  0  0  0  0  0  0  0  0  0  0  0
   58.1730   29.3310   44.7740 C   0  0  0  0  0  0  0  0  0  0  0  0
   59.1870   29.6780   47.0130 C   0  0  0  0  0  0  0  0  0  0  0  0
   59.1360   28.2900   47.2530 C   0  0  0  0  0  0  0  0  0  0  0  0
   59.8780   27.7070   48.2590 C   0  0  0  0  0  0  0  0  0  0  0  0
   60.7110   28.4790   49.0420 C   0  0  0  0  0  0  0  0  0  0  0  0
   60.7290   29.8900   48.9480 C   0  0  0  0  0  0  0  0  0  0  0  0
   61.7680   30.6290   49.6710 N   0  0  0  0  0  0  0  0  0  0  0  0
   62.1730   30.0460   50.9670 C   0  0  0  0  0  0  0  0  0  0  0  0
   61.5210   30.7990   52.1540 C   0  0  0  0  0  0  0  0  0  0  0  0
   60.3420   31.6160   51.7900 N   0  0  0  0  0  0  0  0  0  0  0  0
   59.0680   30.8710   51.8570 C   0  0  0  0  0  0  0  0  0  0  0  0
   57.9350   31.7160   51.2640 C   0  0  0  0  0  0  0  0  0  0  0  0
   57.8360   33.0650   51.9860 C   0  0  0  0  0  0  0  0  0  0  0  0
   59.1860   33.7870   51.9620 C   0  0  0  0  0  0  0  0  0  0  0  0
   60.2800   32.8850   52.5430 C   0  0  0  0  0  0  0  0  0  0  0  0
   59.8680   30.5170   47.9570 C   0  0  0  0  0  0  0  0  0  0  0  0
   63.7827   34.5612   47.4654 H   0  0  0  0  0  0  0  0  0  0  0  0
   64.2010   33.4702   46.1011 H   0  0  0  0  0  0  0  0  0  0  0  0
   62.6339   34.3482   46.1011 H   0  0  0  0  0  0  0  0  0  0  0  0
   61.6439   32.6828   47.2738 H   0  0  0  0  0  0  0  0  0  0  0  0
   63.1557   31.7296   47.1072 H   0  0  0  0  0  0  0  0  0  0  0  0
   64.9760   33.0359   48.2770 H   0  0  0  0  0  0  0  0  0  0  0  0
   64.5001   34.0613   49.6831 H   0  0  0  0  0  0  0  0  0  0  0  0
   64.7826   32.3418   51.2139 H   0  0  0  0  0  0  0  0  0  0  0  0
   64.4371   31.0594   50.0045 H   0  0  0  0  0  0  0  0  0  0  0  0
   66.0308   31.8880   50.0045 H   0  0  0  0  0  0  0  0  0  0  0  0
   61.8936   33.5984   50.5645 H   0  0  0  0  0  0  0  0  0  0  0  0
   62.6488   34.8237   49.4735 H   0  0  0  0  0  0  0  0  0  0  0  0
   60.2600   34.8866   49.0979 H   0  0  0  0  0  0  0  0  0  0  0  0
   61.0347   34.0782   47.6725 H   0  0  0  0  0  0  0  0  0  0  0  0
   59.7170   32.5190   49.9040 H   0  0  0  0  0  0  0  0  0  0  0  0
   59.2245   34.5203   47.3364 H   0  0  0  0  0  0  0  0  0  0  0  0
   57.9127   35.4512   45.4389 H   0  0  0  0  0  0  0  0  0  0  0  0
   56.8168   33.9246   43.8111 H   0  0  0  0  0  0  0  0  0  0  0  0
   57.0934   31.4692   44.0250 H   0  0  0  0  0  0  0  0  0  0  0  0
   57.7519   28.3967   45.1737 H   0  0  0  0  0  0  0  0  0  0  0  0
   57.4171   29.8397   44.1577 H   0  0  0  0  0  0  0  0  0  0  0  0
   59.0548   29.1016   44.1577 H   0  0  0  0  0  0  0  0  0  0  0  0
   58.4908   27.6584   46.6247 H   0  0  0  0  0  0  0  0  0  0  0  0
   59.8053   26.6240   48.4373 H   0  0  0  0  0  0  0  0  0  0  0  0
   61.3805   27.9829   49.7601 H   0  0  0  0  0  0  0  0  0  0  0  0
   61.4650   31.5840   49.9000 H   0  0  0  0  0  0  0  0  0  0  0  0
   62.6070   30.6930   49.0520 H   0  0  0  0  0  0  0  0  0  0  0  0
   61.8619   28.9914   50.9979 H   0  0  0  0  0  0  0  0  0  0  0  0
   63.2656   30.1335   51.0597 H   0  0  0  0  0  0  0  0  0  0  0  0
   61.2062   30.0555   52.9011 H   0  0  0  0  0  0  0  0  0  0  0  0
   62.2799   31.4980   52.5355 H   0  0  0  0  0  0  0  0  0  0  0  0
   59.1624   29.9358   51.2856 H   0  0  0  0  0  0  0  0  0  0  0  0
   58.8371   30.6441   52.9083 H   0  0  0  0  0  0  0  0  0  0  0  0
   58.1345   31.8907   50.1964 H   0  0  0  0  0  0  0  0  0  0  0  0
   56.9853   31.1753   51.3891 H   0  0  0  0  0  0  0  0  0  0  0  0
   57.0825   33.6897   51.4840 H   0  0  0  0  0  0  0  0  0  0  0  0
   57.5461   32.8879   53.0322 H   0  0  0  0  0  0  0  0  0  0  0  0
   59.4415   34.0450   50.9236 H   0  0  0  0  0  0  0  0  0  0  0  0
   59.1146   34.7010   52.5699 H   0  0  0  0  0  0  0  0  0  0  0  0
   61.2505   33.3980   52.4725 H   0  0  0  0  0  0  0  0  0  0  0  0
   60.0476   32.6686   53.5962 H   0  0  0  0  0  0  0  0  0  0  0  0
  1  2  1  0
  2  3  1  0
  3  4  1  0
  4  5  1  0
  3  6  1  0
  6  7  1  0
  7  8  1  0
  8  9  1  0
  9 10  2  0
 10 11  1  0
 11 12  2  0
 12 13  1  0
 13 14  2  0
 14 15  1  0
 15 16  2  0
 16 17  1  0
 16 18  1  0
 18 19  2  0
 19 20  1  0
 20 21  2  0
 21 22  1  0
 22 23  1  0
 23 24  1  0
 24 25  1  0
 25 26  1  0
 26 27  1  0
 27 28  1  0
 28 29  1  0
 29 30  1  0
 30 31  1  0
 22 32  2  0
 32  9  1  0
 15 10  1  0
 32 18  1  0
 31 26  1  0
  1 33  1  0
  1 34  1  0
  1 35  1  0
  2 36  1  0
  2 37  1  0
  4 38  1  0
  4 39  1  0
  5 40  1  0
  5 41  1  0
  5 42  1  0
  6 43  1  0
  6 44  1  0
  7 45  1  0
  7 46  1  0
  8 47  1  0
 11 48  1  0
 12 49  1  0
 13 50  1  0
 14 51  1  0
 17 52  1  0
 17 53  1  0
 17 54  1  0
 19 55  1  0
 20 56  1  0
 21 57  1  0
 23 58  1  0
 23 59  1  0
 24 60  1  0
 24 61  1  0
 25 62  1  0
 25 63  1  0
 27 64  1  0
 27 65  1  0
 28 66  1  0
 28 67  1  0
 29 68  1  0
 29 69  1  0
 30 70  1  0
 30 71  1  0
 31 72  1  0
 31 73  1  0
M  CHG  2  16   1  23   1
M  END
>  <UniqueID>  (32) 
32

>  <SMILES>  (32) 
CCN(CC)CCNc1c2ccccc2[n+](C)c2cccc([NH2+]CCN3CCCCC3)c12

>  <Energy>  (32) 
120.93199316825263

>  <Genealogy>  (32) 
CCN(CC)CCNc1c2ccccc2[n+](C)c2cccc([NH2+]CCN3CCCCC3)c12 (protonated)
CCN(CC)CCNc1c2ccccc2[n+](C)c2cccc([NH2+]CCN3CCCCC3)c12 (3D coordinates assigned)
CCN(CC)CCNc1c2ccccc2[n+](C)c2cccc([NH2+]CCN3CCCCC3)c12 (nonaromatic ring conformer: 120.93199316825263 kcal/mol)

>  <smiles>  (32) 
CCN(CC)CCNc1c2ccccc2[n+](C)c2cccc(NCCN3CCCCC3)c12

>  <score_type>  (32) 
oracle

>  <origin>  (32) 
adg

>  <m_score__min__energy>  (32) 
-4.7999999999999998

>  <m_primary>  (32) 
energy

$$$$
33:0
     RDKit          3D

 53 55  0  0  0  0  0  0  0  0999 V2000
   62.1580   33.6480   50.5120 C   0  0  0  0  0  0  0  0  0  0  0  0
   63.5200   33.7330   49.8150 C   0  0  0  0  0  0  0  0  0  0  0  0
   64.0850   32.3470   49.4460 C   0  0  0  0  0  0  0  0  0  0  0  0
   63.6800   31.9810   48.0760 N   0  0  0  0  0  0  0  0  0  0  0  0
   63.0870   33.1250   47.3620 C   0  0  0  0  0  0  0  0  0  0  0  0
   61.7300   32.7150   46.7520 C   0  0  0  0  0  0  0  0  0  0  0  0
   61.0750   31.6380   47.5270 N   0  0  0  0  0  0  0  0  0  0  0  0
   59.8820   31.1200   46.8530 C   0  0  0  0  0  0  0  0  0  0  0  0
   59.7670   29.7310   46.5590 C   0  0  0  0  0  0  0  0  0  0  0  0
   60.4600   28.7440   47.3120 C   0  0  0  0  0  0  0  0  0  0  0  0
   60.3730   27.3950   46.9800 C   0  0  0  0  0  0  0  0  0  0  0  0
   59.5770   26.9910   45.9120 C   0  0  0  0  0  0  0  0  0  0  0  0
   58.8400   27.9290   45.1900 C   0  0  0  0  0  0  0  0  0  0  0  0
   58.8950   29.3080   45.5110 C   0  0  0  0  0  0  0  0  0  0  0  0
   58.1420   30.2310   44.8120 N   0  0  0  0  0  0  0  0  0  0  0  0
   56.9750   29.7670   44.0250 C   0  0  0  0  0  0  0  0  0  0  0  0
   58.3350   31.5810   45.0260 C   0  0  0  0  0  0  0  0  0  0  0  0
   57.9300   32.5780   44.0860 C   0  0  0  0  0  0  0  0  0  0  0  0
   57.7440   32.2930   42.6110 C   0  0  0  0  0  0  0  0  0  0  0  0
   57.8250   33.9120   44.5010 C   0  0  0  0  0  0  0  0  0  0  0  0
   58.1390   34.2720   45.8060 C   0  0  0  0  0  0  0  0  0  0  0  0
   58.7060   33.3400   46.6850 C   0  0  0  0  0  0  0  0  0  0  0  0
   58.9110   33.7760   48.1170 C   0  0  0  0  0  0  0  0  0  0  0  0
   58.9680   32.0140   46.2220 C   0  0  0  0  0  0  0  0  0  0  0  0
   62.3029   33.6570   51.6024 H   0  0  0  0  0  0  0  0  0  0  0  0
   61.5407   34.5094   50.2170 H   0  0  0  0  0  0  0  0  0  0  0  0
   61.6526   32.7166   50.2170 H   0  0  0  0  0  0  0  0  0  0  0  0
   63.4082   34.3243   48.8942 H   0  0  0  0  0  0  0  0  0  0  0  0
   64.2244   34.2037   50.5166 H   0  0  0  0  0  0  0  0  0  0  0  0
   65.1831   32.3745   49.5053 H   0  0  0  0  0  0  0  0  0  0  0  0
   63.6899   31.5991   50.1493 H   0  0  0  0  0  0  0  0  0  0  0  0
   64.5420   31.6830   47.5510 H   0  0  0  0  0  0  0  0  0  0  0  0
   62.9344   33.9558   48.0667 H   0  0  0  0  0  0  0  0  0  0  0  0
   63.7661   33.4416   46.5566 H   0  0  0  0  0  0  0  0  0  0  0  0
   61.0682   33.5935   46.7360 H   0  0  0  0  0  0  0  0  0  0  0  0
   61.9154   32.3369   45.7358 H   0  0  0  0  0  0  0  0  0  0  0  0
   60.8440   31.9740   48.4870 H   0  0  0  0  0  0  0  0  0  0  0  0
   61.8110   30.9140   47.6810 H   0  0  0  0  0  0  0  0  0  0  0  0
   61.0748   29.0514   48.1708 H   0  0  0  0  0  0  0  0  0  0  0  0
   60.9333   26.6482   47.5617 H   0  0  0  0  0  0  0  0  0  0  0  0
   59.5291   25.9272   45.6364 H   0  0  0  0  0  0  0  0  0  0  0  0
   58.2051   27.5927   44.3571 H   0  0  0  0  0  0  0  0  0  0  0  0
   56.1745   29.4487   44.7091 H   0  0  0  0  0  0  0  0  0  0  0  0
   56.6103   30.5885   43.3909 H   0  0  0  0  0  0  0  0  0  0  0  0
   57.2740   28.9193   43.3909 H   0  0  0  0  0  0  0  0  0  0  0  0
   57.1466   31.3777   42.4869 H   0  0  0  0  0  0  0  0  0  0  0  0
   57.2230   33.1380   42.1371 H   0  0  0  0  0  0  0  0  0  0  0  0
   58.7272   32.1562   42.1371 H   0  0  0  0  0  0  0  0  0  0  0  0
   57.4914   34.6805   43.7882 H   0  0  0  0  0  0  0  0  0  0  0  0
   57.9407   35.2973   46.1517 H   0  0  0  0  0  0  0  0  0  0  0  0
   58.5425   32.9923   48.7952 H   0  0  0  0  0  0  0  0  0  0  0  0
   59.9827   33.9444   48.2992 H   0  0  0  0  0  0  0  0  0  0  0  0
   58.3571   34.7087   48.2992 H   0  0  0  0  0  0  0  0  0  0  0  0
  1  2  1  0
  2  3  1  0
  3  4  1  0
  4  5  1  0
  5  6  1  0
  6  7  1  0
  7  8  1  0
  8  9  2  0
  9 10  1  0
 10 11  2  0
 11 12  1  0
 12 13  2  0
 13 14  1  0
 14 15  2  0
 15 16  1  0
 15 17  1  0
 17 18  2  0
 18 19  1  0
 18 20  1  0
 20 21  2  0
 21 22  1  0
 22 23  1  0
 22 24  2  0
 24  8  1  0
 14  9  1  0
 24 17  1  0
  1 25  1  0
  1 26  1  0
  1 27  1  0
  2 28  1  0
  2 29  1  0
  3 30  1  0
  3 31  1  0
  4 32  1  0
  5 33  1  0
  5 34  1  0
  6 35  1  0
  6 36  1  0
  7 37  1  0
  7 38  1  0
 10 39  1  0
 11 40  1  0
 12 41  1  0
 13 42  1  0
 16 43  1  0
 16 44  1  0
 16 45  1  0
 19 46  1  0
 19 47  1  0
 19 48  1  0
 20 49  1  0
 21 50  1  0
 23 51  1  0
 23 52  1  0
 23 53  1  0
M  CHG  2   7   1  15   1
M  END
>  <UniqueID>  (33) 
33

>  <SMILES>  (33) 
CCCNCC[NH2+]c1c2ccccc2[n+](C)c2c(C)ccc(C)c12

>  <Energy>  (33) 
102.33634848843957

>  <Genealogy>  (33) 
CCCNCC[NH2+]c1c2ccccc2[n+](C)c2c(C)ccc(C)c12 (protonated)
CCCNCC[NH2+]c1c2ccccc2[n+](C)c2c(C)ccc(C)c12 (3D coordinates assigned)
CCCNCC[NH2+]c1c2ccccc2[n+](C)c2c(C)ccc(C)c12 (optimized conformer: 102.33634848843957 kcal/mol)

>  <smiles>  (33) 
CCCNCCNc1c2ccccc2[n+](C)c2c(C)ccc(C)c12

>  <score_type>  (33) 
oracle

>  <origin>  (33) 
adg

>  <m_score__min__energy>  (33) 
-4.6100000000000003

>  <m_primary>  (33) 
energy

$$$$
34:0
     RDKit          3D

 39 41  0  0  0  0  0  0  0  0999 V2000
   60.4080   30.3870   48.3050 C   0  0  0  0  0  0  0  0  0  0  0  0
   61.6220   30.8960   47.8470 C   0  0  0  0  0  0  0  0  0  0  0  0
   61.6550   32.1180   47.2520 N   0  0  0  0  0  0  0  0  0  0  0  0
   60.5220   32.8610   47.0950 C   0  0  0  0  0  0  0  0  0  0  0  0
   59.2960   32.3350   47.5420 C   0  0  0  0  0  0  0  0  0  0  0  0
   59.2760   31.1180   48.1490 N   0  0  0  0  0  0  0  0  0  0  0  0
   58.0260   33.1260   47.4360 C   0  0  0  0  0  0  0  0  0  0  0  0
   58.0840   34.1060   46.3400 N   0  0  0  0  0  0  0  0  0  0  0  0
   57.5620   33.6890   45.0160 C   0  0  0  0  0  0  0  0  0  0  0  0
   58.0950   32.3430   44.4750 C   0  0  0  0  0  0  0  0  0  0  0  0
   57.1300   31.2380   44.6530 N   0  0  0  0  0  0  0  0  0  0  0  0
   56.5600   30.8370   43.3530 C   0  0  0  0  0  0  0  0  0  0  0  0
   55.5250   29.7080   43.5450 C   0  0  0  0  0  0  0  0  0  0  0  0
   55.5190   29.2030   44.8680 O   0  0  0  0  0  0  0  0  0  0  0  0
   56.8320   28.8330   45.2410 C   0  0  0  0  0  0  0  0  0  0  0  0
   57.7530   30.0670   45.3100 C   0  0  0  0  0  0  0  0  0  0  0  0
   59.2790   34.9680   46.3600 C   0  0  0  0  0  0  0  0  0  0  0  0
   60.6000   34.1830   46.3750 C   0  0  0  0  0  0  0  0  0  0  0  0
   60.3681   29.4001   48.7892 H   0  0  0  0  0  0  0  0  0  0  0  0
   62.5471   30.3130   47.9661 H   0  0  0  0  0  0  0  0  0  0  0  0
   62.5710   32.4840   46.9040 H   0  0  0  0  0  0  0  0  0  0  0  0
   57.1901   32.4350   47.2522 H   0  0  0  0  0  0  0  0  0  0  0  0
   57.8845   33.6746   48.3789 H   0  0  0  0  0  0  0  0  0  0  0  0
   56.4675   33.6114   45.0942 H   0  0  0  0  0  0  0  0  0  0  0  0
   57.9074   34.4539   44.3049 H   0  0  0  0  0  0  0  0  0  0  0  0
   58.3093   32.4544   43.4018 H   0  0  0  0  0  0  0  0  0  0  0  0
   59.0011   32.0897   45.0449 H   0  0  0  0  0  0  0  0  0  0  0  0
   56.0680   31.7049   42.8897 H   0  0  0  0  0  0  0  0  0  0  0  0
   57.3706   30.4719   42.7052 H   0  0  0  0  0  0  0  0  0  0  0  0
   54.5247   30.1020   43.3123 H   0  0  0  0  0  0  0  0  0  0  0  0
   55.7988   28.8827   42.8713 H   0  0  0  0  0  0  0  0  0  0  0  0
   56.8030   28.3496   46.2287 H   0  0  0  0  0  0  0  0  0  0  0  0
   57.2297   28.1397   44.4852 H   0  0  0  0  0  0  0  0  0  0  0  0
   57.9491   30.3097   46.3648 H   0  0  0  0  0  0  0  0  0  0  0  0
   58.6906   29.8314   44.7852 H   0  0  0  0  0  0  0  0  0  0  0  0
   59.2632   35.6061   45.4642 H   0  0  0  0  0  0  0  0  0  0  0  0
   59.2400   35.5541   47.2900 H   0  0  0  0  0  0  0  0  0  0  0  0
   60.9004   33.9923   45.3341 H   0  0  0  0  0  0  0  0  0  0  0  0
   61.3291   34.7993   46.9214 H   0  0  0  0  0  0  0  0  0  0  0  0
  1  2  2  0
  2  3  1  0
  3  4  2  0
  4  5  1  0
  5  6  2  0
  5  7  1  0
  7  8  1  0
  8  9  1  0
  9 10  1  0
 10 11  1  0
 11 12  1  0
 12 13  1  0
 13 14  1  0
 14 15  1  0
 15 16  1  0
  8 17  1  0
 17 18  1  0
  6  1  1  0
 16 11  1  0
 18  4  1  0
  1 19  1  0
  2 20  1  0
  3 21  1  0
  7 22  1  0
  7 23  1  0
  9 24  1  0
  9 25  1  0
 10 26  1  0
 10 27  1  0
 12 28  1  0
 12 29  1  0
 13 30  1  0
 13 31  1  0
 15 32  1  0
 15 33  1  0
 16 34  1  0
 16 35  1  0
 17 36  1  0
 17 37  1  0
 18 38  1  0
 18 39  1  0
M  CHG  1   3   1
M  END
>  <UniqueID>  (34) 
34

>  <SMILES>  (34) 
c1c[nH+]c2c(n1)CN(CCN1CCOCC1)CC2

>  <Energy>  (34) 
60.21896751107414

>  <Genealogy>  (34) 
c1c[nH+]c2c(n1)CN(CCN1CCOCC1)CC2 (protonated)
c1c[nH+]c2c(n1)CN(CCN1CCOCC1)CC2 (3D coordinates assigned)
c1c[nH+]c2c(n1)CN(CCN1CCOCC1)CC2 (nonaromatic ring conformer: 60.21896751107414 kcal/mol)

>  <smiles>  (34) 
c1cnc2c(n1)CCN(CCN1CCOCC1)C2

>  <score_type>  (34) 
oracle

>  <origin>  (34) 
adg

>  <m_score__min__energy>  (34) 
-5.8099999999999996

>  <m_primary>  (34) 
energy

$$$$
