1:0
     RDKit          3D

 60 62  0  0  0  0  0  0  0  0999 V2000
   60.1740   33.4600   52.5260 C   0  0  0  0  0  0  0  0  0  0  0  0
   60.7220   32.0730   52.8610 C   0  0  0  0  0  0  0  0  0  0  0  0
   59.8620   31.0580   52.3700 O   0  0  0  0  0  0  0  0  0  0  0  0
   58.8500   30.7450   53.3050 C   0  0  0  0  0  0  0  0  0  0  0  0
   57.8740   29.7180   52.7210 C   0  0  0  0  0  0  0  0  0  0  0  0
   57.3920   30.1290   51.4550 O   0  0  0  0  0  0  0  0  0  0  0  0
   57.0240   31.4930   51.4780 C   0  0  0  0  0  0  0  0  0  0  0  0
   57.8730   32.2740   50.4730 C   0  0  0  0  0  0  0  0  0  0  0  0
   59.0350   31.4890   50.0300 N   0  0  0  0  0  0  0  0  0  0  0  0
   59.0720   31.3700   48.5790 C   0  0  0  0  0  0  0  0  0  0  0  0
   59.0140   30.0920   47.9440 C   0  0  0  0  0  0  0  0  0  0  0  0
   59.2610   28.7830   48.6870 C   0  0  0  0  0  0  0  0  0  0  0  0
   60.6660   28.7410   49.3000 C   0  0  0  0  0  0  0  0  0  0  0  0
   60.8520   29.8670   50.1300 O   0  0  0  0  0  0  0  0  0  0  0  0
   62.2020   30.2790   50.1480 C   0  0  0  0  0  0  0  0  0  0  0  0
   62.3800   31.5060   49.2950 C   0  0  0  0  0  0  0  0  0  0  0  0
   62.4280   32.7830   49.8800 C   0  0  0  0  0  0  0  0  0  0  0  0
   62.6360   33.9160   49.0850 C   0  0  0  0  0  0  0  0  0  0  0  0
   62.7950   33.7830   47.7040 C   0  0  0  0  0  0  0  0  0  0  0  0
   62.7440   32.5160   47.1130 C   0  0  0  0  0  0  0  0  0  0  0  0
   62.5410   31.3790   47.9040 C   0  0  0  0  0  0  0  0  0  0  0  0
   58.7840   30.0400   46.5540 C   0  0  0  0  0  0  0  0  0  0  0  0
   58.6260   28.9370   45.9710 O   0  0  0  0  0  0  0  0  0  0  0  0
   58.7280   31.1730   45.8210 N   0  0  0  0  0  0  0  0  0  0  0  0
   58.8910   32.4010   46.3680 C   0  0  0  0  0  0  0  0  0  0  0  0
   58.8700   33.5270   45.5360 C   0  0  0  0  0  0  0  0  0  0  0  0
   59.0540   34.8010   46.0710 C   0  0  0  0  0  0  0  0  0  0  0  0
   59.2640   34.9580   47.4400 C   0  0  0  0  0  0  0  0  0  0  0  0
   59.2810   33.8420   48.2820 C   0  0  0  0  0  0  0  0  0  0  0  0
   59.0810   32.5400   47.7620 C   0  0  0  0  0  0  0  0  0  0  0  0
   59.9590   34.0041   53.4575 H   0  0  0  0  0  0  0  0  0  0  0  0
   60.9196   34.0171   51.9397 H   0  0  0  0  0  0  0  0  0  0  0  0
   59.2490   33.3570   51.9397 H   0  0  0  0  0  0  0  0  0  0  0  0
   61.7149   31.9573   52.4018 H   0  0  0  0  0  0  0  0  0  0  0  0
   60.7914   31.9768   53.9546 H   0  0  0  0  0  0  0  0  0  0  0  0
   59.3124   30.3289   54.2122 H   0  0  0  0  0  0  0  0  0  0  0  0
   58.2950   31.6634   53.5472 H   0  0  0  0  0  0  0  0  0  0  0  0
   58.3916   28.7536   52.6116 H   0  0  0  0  0  0  0  0  0  0  0  0
   57.0177   29.6245   53.4051 H   0  0  0  0  0  0  0  0  0  0  0  0
   55.9611   31.5894   51.2114 H   0  0  0  0  0  0  0  0  0  0  0  0
   57.1903   31.8979   52.4872 H   0  0  0  0  0  0  0  0  0  0  0  0
   57.2542   32.5227   49.5982 H   0  0  0  0  0  0  0  0  0  0  0  0
   58.2386   33.1879   50.9640 H   0  0  0  0  0  0  0  0  0  0  0  0
   59.0120   30.5470   50.4700 H   0  0  0  0  0  0  0  0  0  0  0  0
   59.9200   31.9070   50.3840 H   0  0  0  0  0  0  0  0  0  0  0  0
   58.5171   28.6826   49.4911 H   0  0  0  0  0  0  0  0  0  0  0  0
   59.1737   27.9559   47.9671 H   0  0  0  0  0  0  0  0  0  0  0  0
   60.7784   27.8235   49.8964 H   0  0  0  0  0  0  0  0  0  0  0  0
   61.4167   28.7506   48.4961 H   0  0  0  0  0  0  0  0  0  0  0  0
   62.4985   30.5087   51.1821 H   0  0  0  0  0  0  0  0  0  0  0  0
   62.8307   29.4692   49.7493 H   0  0  0  0  0  0  0  0  0  0  0  0
   62.3016   32.8925   50.9672 H   0  0  0  0  0  0  0  0  0  0  0  0
   62.6743   34.9127   49.5487 H   0  0  0  0  0  0  0  0  0  0  0  0
   62.9603   34.6743   47.0810 H   0  0  0  0  0  0  0  0  0  0  0  0
   62.8637   32.4130   46.0244 H   0  0  0  0  0  0  0  0  0  0  0  0
   62.5074   30.3840   47.4363 H   0  0  0  0  0  0  0  0  0  0  0  0
   58.7075   33.4057   44.4549 H   0  0  0  0  0  0  0  0  0  0  0  0
   59.0335   35.6822   45.4130 H   0  0  0  0  0  0  0  0  0  0  0  0
   59.4169   35.9634   47.8593 H   0  0  0  0  0  0  0  0  0  0  0  0
   59.4516   33.9768   49.3603 H   0  0  0  0  0  0  0  0  0  0  0  0
  1  2  1  0
  2  3  1  0
  3  4  1  0
  4  5  1  0
  5  6  1  0
  6  7  1  0
  7  8  1  0
  8  9  1  0
  9 10  1  0
 10 11  2  0
 11 12  1  0
 12 13  1  0
 13 14  1  0
 14 15  1  0
 15 16  1  0
 16 17  2  0
 17 18  1  0
 18 19  2  0
 19 20  1  0
 20 21  2  0
 11 22  1  0
 22 23  2  0
 22 24  1  0
 24 25  1  0
 25 26  2  0
 26 27  1  0
 27 28  2  0
 28 29  1  0
 29 30  2  0
 30 10  1  0
 21 16  1  0
 30 25  1  0
  1 31  1  0
  1 32  1  0
  1 33  1  0
  2 34  1  0
  2 35  1  0
  4 36  1  0
  4 37  1  0
  5 38  1  0
  5 39  1  0
  7 40  1  0
  7 41  1  0
  8 42  1  0
  8 43  1  0
  9 44  1  0
  9 45  1  0
 12 46  1  0
 12 47  1  0
 13 48  1  0
 13 49  1  0
 15 50  1  0
 15 51  1  0
 17 52  1  0
 18 53  1  0
 19 54  1  0
 20 55  1  0
 21 56  1  0
 26 57  1  0
 27 58  1  0
 28 59  1  0
 29 60  1  0
M  CHG  2   9   1  24  -1
M  END
>  <UniqueID>  (1) 
1

>  <SMILES>  (1) 
CCOCCOCC[NH2+]c1c(CCOCc2ccccc2)c(=O)[n-]c2ccccc12

>  <Energy>  (1) 
70.42150570516647

>  <Genealogy>  (1) 
CCOCCOCC[NH2+]c1c(CCOCc2ccccc2)c(=O)[n-]c2ccccc12 (protonated)
CCOCCOCC[NH2+]c1c(CCOCc2ccccc2)c(=O)[n-]c2ccccc12 (3D coordinates assigned)
CCOCCOCC[NH2+]c1c(CCOCc2ccccc2)c(=O)[n-]c2ccccc12 (optimized conformer: 70.42150570516647 kcal/mol)

>  <smiles>  (1) 
CCOCCOCCNc1c(CCOCc2ccccc2)c(=O)[nH]c2ccccc12

>  <score_type>  (1) 
oracle

>  <origin>  (1) 
adg

>  <m_score__min__energy>  (1) 
-5.8200000000000003

>  <m_primary>  (1) 
energy

$$$$
2:0
     RDKit          3D

 41 43  0  0  0  0  0  0  0  0999 V2000
   58.2370   24.0570   45.2660 C   0  0  0  0  0  0  0  0  0  0  0  0
   58.9090   25.2440   45.6780 O   0  0  0  0  0  0  0  0  0  0  0  0
   58.4440   26.5430   45.4270 C   0  0  0  0  0  0  0  0  0  0  0  0
   58.1690   27.0100   44.1270 C   0  0  0  0  0  0  0  0  0  0  0  0
   57.7070   28.3150   43.9290 C   0  0  0  0  0  0  0  0  0  0  0  0
   57.5140   29.1750   45.0260 C   0  0  0  0  0  0  0  0  0  0  0  0
   57.0550   30.4920   44.8800 O   0  0  0  0  0  0  0  0  0  0  0  0
   56.9600   31.1790   43.6340 C   0  0  0  0  0  0  0  0  0  0  0  0
   57.7650   32.4730   43.6890 C   0  0  0  0  0  0  0  0  0  0  0  0
   57.4180   33.4240   45.2130 S   0  0  0  0  0  0  0  0  0  0  0  0
   58.9640   33.0010   46.0240 C   0  0  0  0  0  0  0  0  0  0  0  0
   59.3980   31.7420   46.1990 N   0  0  0  0  0  0  0  0  0  0  0  0
   60.5830   31.7940   46.7860 N   0  0  0  0  0  0  0  0  0  0  0  0
   60.8490   33.1040   46.9820 C   0  0  0  0  0  0  0  0  0  0  0  0
   62.1420   33.6150   47.5450 C   0  0  0  0  0  0  0  0  0  0  0  0
   63.2990   32.6340   47.4410 C   0  0  0  0  0  0  0  0  0  0  0  0
   63.2470   33.8420   46.5230 C   0  0  0  0  0  0  0  0  0  0  0  0
   59.8480   33.8870   46.5210 N   0  0  0  0  0  0  0  0  0  0  0  0
   59.8200   35.3440   46.4130 C   0  0  0  0  0  0  0  0  0  0  0  0
   57.7880   28.7070   46.3160 C   0  0  0  0  0  0  0  0  0  0  0  0
   58.2500   27.4010   46.5140 C   0  0  0  0  0  0  0  0  0  0  0  0
   57.9163   23.4906   46.1528 H   0  0  0  0  0  0  0  0  0  0  0  0
   57.3564   24.3245   44.6636 H   0  0  0  0  0  0  0  0  0  0  0  0
   58.9195   23.4395   44.6636 H   0  0  0  0  0  0  0  0  0  0  0  0
   58.3183   26.3452   43.2635 H   0  0  0  0  0  0  0  0  0  0  0  0
   57.4933   28.6711   42.9104 H   0  0  0  0  0  0  0  0  0  0  0  0
   57.3561   30.5374   42.8331 H   0  0  0  0  0  0  0  0  0  0  0  0
   55.9053   31.4182   43.4332 H   0  0  0  0  0  0  0  0  0  0  0  0
   58.8368   32.2273   43.6588 H   0  0  0  0  0  0  0  0  0  0  0  0
   57.4771   33.0920   42.8264 H   0  0  0  0  0  0  0  0  0  0  0  0
   58.9140   30.8630   45.9100 H   0  0  0  0  0  0  0  0  0  0  0  0
   61.6921   34.2175   48.3479 H   0  0  0  0  0  0  0  0  0  0  0  0
   64.0512   32.5844   48.2420 H   0  0  0  0  0  0  0  0  0  0  0  0
   63.3857   31.5476   47.2916 H   0  0  0  0  0  0  0  0  0  0  0  0
   63.9611   34.6675   46.6593 H   0  0  0  0  0  0  0  0  0  0  0  0
   63.2801   33.9932   45.4339 H   0  0  0  0  0  0  0  0  0  0  0  0
   59.8115   35.7862   47.4202 H   0  0  0  0  0  0  0  0  0  0  0  0
   60.7117   35.6885   45.8688 H   0  0  0  0  0  0  0  0  0  0  0  0
   58.9157   35.6540   45.8688 H   0  0  0  0  0  0  0  0  0  0  0  0
   57.6391   29.3705   47.1806 H   0  0  0  0  0  0  0  0  0  0  0  0
   58.4624   27.0463   47.5334 H   0  0  0  0  0  0  0  0  0  0  0  0
  1  2  1  0
  2  3  1  0
  3  4  2  0
  4  5  1  0
  5  6  2  0
  6  7  1  0
  7  8  1  0
  8  9  1  0
  9 10  1  0
 10 11  1  0
 11 12  2  0
 12 13  1  0
 13 14  2  0
 14 15  1  0
 15 16  1  0
 16 17  1  0
 14 18  1  0
 18 19  1  0
  6 20  1  0
 20 21  2  0
 21  3  1  0
 18 11  1  0
 17 15  1  0
  1 22  1  0
  1 23  1  0
  1 24  1  0
  4 25  1  0
  5 26  1  0
  8 27  1  0
  8 28  1  0
  9 29  1  0
  9 30  1  0
 12 31  1  0
 15 32  1  0
 16 33  1  0
 16 34  1  0
 17 35  1  0
 17 36  1  0
 19 37  1  0
 19 38  1  0
 19 39  1  0
 20 40  1  0
 21 41  1  0
M  CHG  1  12   1
M  END
>  <UniqueID>  (2) 
2

>  <SMILES>  (2) 
COc1ccc(OCCSc2[nH+]nc(C3CC3)n2C)cc1

>  <Energy>  (2) 
332.695623176634

>  <Genealogy>  (2) 
COc1ccc(OCCSc2[nH+]nc(C3CC3)n2C)cc1 (protonated)
COc1ccc(OCCSc2[nH+]nc(C3CC3)n2C)cc1 (3D coordinates assigned)
COc1ccc(OCCSc2[nH+]nc(C3CC3)n2C)cc1 (nonaromatic ring conformer: 332.695623176634 kcal/mol)

>  <smiles>  (2) 
COc1ccc(OCCSc2nnc(C3CC3)n2C)cc1

>  <score_type>  (2) 
oracle

>  <origin>  (2) 
adg

>  <m_score__min__energy>  (2) 
-5.8399999999999999

>  <m_primary>  (2) 
energy

$$$$
3:0
     RDKit          3D

 65 68  0  0  0  0  0  0  0  0999 V2000
   59.9460   30.2530   52.4650 C   0  0  0  0  0  0  0  0  0  0  0  0
   59.5680   30.3380   51.0450 N   0  0  0  0  0  0  0  0  0  0  0  0
   58.1260   30.0760   50.9020 C   0  0  0  0  0  0  0  0  0  0  0  0
   60.3770   29.3940   50.2410 C   0  0  0  0  0  0  0  0  0  0  0  0
   59.7890   29.1860   48.8350 C   0  0  0  0  0  0  0  0  0  0  0  0
   60.2260   30.2280   47.9010 N   0  0  0  0  0  0  0  0  0  0  0  0
   59.2790   30.9780   47.1240 C   0  0  0  0  0  0  0  0  0  0  0  0
   58.5390   30.3150   46.1320 C   0  0  0  0  0  0  0  0  0  0  0  0
   58.3580   28.9170   46.1720 C   0  0  0  0  0  0  0  0  0  0  0  0
   57.6080   28.2710   45.1930 C   0  0  0  0  0  0  0  0  0  0  0  0
   57.0290   29.0040   44.1630 C   0  0  0  0  0  0  0  0  0  0  0  0
   57.2240   30.3840   44.0870 C   0  0  0  0  0  0  0  0  0  0  0  0
   58.0160   31.0610   45.0480 C   0  0  0  0  0  0  0  0  0  0  0  0
   58.3200   32.4020   44.9300 N   0  0  0  0  0  0  0  0  0  0  0  0
   58.1280   33.0900   43.6340 C   0  0  0  0  0  0  0  0  0  0  0  0
   58.8170   33.0940   46.0200 C   0  0  0  0  0  0  0  0  0  0  0  0
   58.8940   34.5070   46.0200 C   0  0  0  0  0  0  0  0  0  0  0  0
   59.3970   35.2000   47.1120 C   0  0  0  0  0  0  0  0  0  0  0  0
   59.7550   34.5200   48.2660 C   0  0  0  0  0  0  0  0  0  0  0  0
   59.6410   33.1230   48.3470 C   0  0  0  0  0  0  0  0  0  0  0  0
   59.7310   32.5250   49.6670 N   0  0  0  0  0  0  0  0  0  0  0  0
   60.0520   33.5220   50.7120 C   0  0  0  0  0  0  0  0  0  0  0  0
   61.3320   33.1540   51.4790 C   0  0  0  0  0  0  0  0  0  0  0  0
   62.5480   33.8950   50.9140 C   0  0  0  0  0  0  0  0  0  0  0  0
   62.8650   33.4000   49.5680 N   0  0  0  0  0  0  0  0  0  0  0  0
   63.0250   32.0580   49.3580 C   0  0  0  0  0  0  0  0  0  0  0  0
   63.3520   31.5720   48.0890 C   0  0  0  0  0  0  0  0  0  0  0  0
   63.5250   32.4700   47.0370 C   0  0  0  0  0  0  0  0  0  0  0  0
   63.3740   33.8370   47.2630 C   0  0  0  0  0  0  0  0  0  0  0  0
   63.0450   34.2890   48.5440 C   0  0  0  0  0  0  0  0  0  0  0  0
   59.2570   32.3880   47.1800 C   0  0  0  0  0  0  0  0  0  0  0  0
   59.0640   30.4513   53.0917 H   0  0  0  0  0  0  0  0  0  0  0  0
   60.3312   29.2458   52.6822 H   0  0  0  0  0  0  0  0  0  0  0  0
   60.7253   30.9983   52.6822 H   0  0  0  0  0  0  0  0  0  0  0  0
   57.6679   29.9928   51.8986 H   0  0  0  0  0  0  0  0  0  0  0  0
   57.6559   30.9034   50.3503 H   0  0  0  0  0  0  0  0  0  0  0  0
   57.9770   29.1361   50.3503 H   0  0  0  0  0  0  0  0  0  0  0  0
   61.3973   29.7936   50.1440 H   0  0  0  0  0  0  0  0  0  0  0  0
   60.3783   28.4223   50.7565 H   0  0  0  0  0  0  0  0  0  0  0  0
   60.1155   28.2071   48.4541 H   0  0  0  0  0  0  0  0  0  0  0  0
   58.6929   29.2353   48.9128 H   0  0  0  0  0  0  0  0  0  0  0  0
   61.2340   30.5040   47.8880 H   0  0  0  0  0  0  0  0  0  0  0  0
   58.8136   28.3316   46.9842 H   0  0  0  0  0  0  0  0  0  0  0  0
   57.4734   27.1801   45.2343 H   0  0  0  0  0  0  0  0  0  0  0  0
   56.4152   28.4946   43.4055 H   0  0  0  0  0  0  0  0  0  0  0  0
   56.7568   30.9539   43.2703 H   0  0  0  0  0  0  0  0  0  0  0  0
   57.8363   34.1353   43.8135 H   0  0  0  0  0  0  0  0  0  0  0  0
   59.0676   33.0645   43.0626 H   0  0  0  0  0  0  0  0  0  0  0  0
   57.3374   32.5816   43.0626 H   0  0  0  0  0  0  0  0  0  0  0  0
   58.5487   35.0664   45.1380 H   0  0  0  0  0  0  0  0  0  0  0  0
   59.5121   36.2928   47.0619 H   0  0  0  0  0  0  0  0  0  0  0  0
   60.1341   35.0836   49.1312 H   0  0  0  0  0  0  0  0  0  0  0  0
   58.8100   32.0660   49.8630 H   0  0  0  0  0  0  0  0  0  0  0  0
   60.4170   31.7390   49.6900 H   0  0  0  0  0  0  0  0  0  0  0  0
   60.1920   34.5038   50.2362 H   0  0  0  0  0  0  0  0  0  0  0  0
   59.2186   33.5452   51.4295 H   0  0  0  0  0  0  0  0  0  0  0  0
   61.2065   33.4251   52.5377 H   0  0  0  0  0  0  0  0  0  0  0  0
   61.5028   32.0725   51.3735 H   0  0  0  0  0  0  0  0  0  0  0  0
   62.3256   34.9710   50.8621 H   0  0  0  0  0  0  0  0  0  0  0  0
   63.4117   33.7206   51.5725 H   0  0  0  0  0  0  0  0  0  0  0  0
   62.8953   31.3556   50.1945 H   0  0  0  0  0  0  0  0  0  0  0  0
   63.4717   30.4913   47.9221 H   0  0  0  0  0  0  0  0  0  0  0  0
   63.7797   32.1012   46.0324 H   0  0  0  0  0  0  0  0  0  0  0  0
   63.5126   34.5539   46.4403 H   0  0  0  0  0  0  0  0  0  0  0  0
   62.9300   35.3670   48.7300 H   0  0  0  0  0  0  0  0  0  0  0  0
  1  2  1  0
  2  3  1  0
  2  4  1  0
  4  5  1  0
  5  6  1  0
  6  7  1  0
  7  8  2  0
  8  9  1  0
  9 10  2  0
 10 11  1  0
 11 12  2  0
 12 13  1  0
 13 14  2  0
 14 15  1  0
 14 16  1  0
 16 17  2  0
 17 18  1  0
 18 19  2  0
 19 20  1  0
 20 21  1  0
 21 22  1  0
 22 23  1  0
 23 24  1  0
 24 25  1  0
 25 26  2  0
 26 27  1  0
 27 28  2  0
 28 29  1  0
 29 30  2  0
 20 31  2  0
 31  7  1  0
 13  8  1  0
 31 16  1  0
 30 25  1  0
  1 32  1  0
  1 33  1  0
  1 34  1  0
  3 35  1  0
  3 36  1  0
  3 37  1  0
  4 38  1  0
  4 39  1  0
  5 40  1  0
  5 41  1  0
  6 42  1  0
  9 43  1  0
 10 44  1  0
 11 45  1  0
 12 46  1  0
 15 47  1  0
 15 48  1  0
 15 49  1  0
 17 50  1  0
 18 51  1  0
 19 52  1  0
 21 53  1  0
 21 54  1  0
 22 55  1  0
 22 56  1  0
 23 57  1  0
 23 58  1  0
 24 59  1  0
 24 60  1  0
 26 61  1  0
 27 62  1  0
 28 63  1  0
 29 64  1  0
 30 65  1  0
M  CHG  3  14   1  21   1  25   1
M  END
>  <UniqueID>  (3) 
3

>  <SMILES>  (3) 
CN(C)CCNc1c2ccccc2[n+](C)c2cccc([NH2+]CCC[n+]3ccccc3)c12

>  <Energy>  (3) 
102.36552756898966

>  <Genealogy>  (3) 
CN(C)CCNc1c2ccccc2[n+](C)c2cccc([NH2+]CCC[n+]3ccccc3)c12 (protonated)
CN(C)CCNc1c2ccccc2[n+](C)c2cccc([NH2+]CCC[n+]3ccccc3)c12 (3D coordinates assigned)
CN(C)CCNc1c2ccccc2[n+](C)c2cccc([NH2+]CCC[n+]3ccccc3)c12 (optimized conformer: 102.36552756898966 kcal/mol)

>  <smiles>  (3) 
CN(C)CCNc1c2ccccc2[n+](C)c2cccc(NCCC[n+]3ccccc3)c12

>  <score_type>  (3) 
oracle

>  <origin>  (3) 
adg

>  <m_score__min__energy>  (3) 
-3.2400000000000002

>  <m_primary>  (3) 
energy

$$$$
4:0
     RDKit          3D

 46 48  0  0  0  0  0  0  0  0999 V2000
   56.6420   30.5110   42.7870 C   0  0  0  0  0  0  0  0  0  0  0  0
   57.4140   30.6100   44.0260 N   0  0  0  0  0  0  0  0  0  0  0  0
   57.7400   29.6090   44.8840 C   0  0  0  0  0  0  0  0  0  0  0  0
   57.3510   28.1930   44.7110 C   0  0  0  0  0  0  0  0  0  0  0  0
   57.7640   27.5700   43.6980 O   0  0  0  0  0  0  0  0  0  0  0  0
   56.5060   27.4960   45.6400 N   0  0  0  0  0  0  0  0  0  0  0  0
   56.9100   26.6170   46.7360 C   0  0  0  0  0  0  0  0  0  0  0  0
   57.0430   25.1500   46.2880 C   0  0  0  0  0  0  0  0  0  0  0  0
   56.5560   24.9120   44.9010 N   0  0  0  0  0  0  0  0  0  0  0  0
   55.1380   24.4590   44.8770 C   0  0  0  0  0  0  0  0  0  0  0  0
   55.0140   22.9430   44.6430 C   0  0  0  0  0  0  0  0  0  0  0  0
   55.5880   22.5180   43.4140 O   0  0  0  0  0  0  0  0  0  0  0  0
   56.7230   23.2800   43.0220 C   0  0  0  0  0  0  0  0  0  0  0  0
   57.4500   23.9570   44.1970 C   0  0  0  0  0  0  0  0  0  0  0  0
   58.3700   30.1290   46.0070 C   0  0  0  0  0  0  0  0  0  0  0  0
   58.4620   31.4870   45.7950 C   0  0  0  0  0  0  0  0  0  0  0  0
   57.8380   31.7570   44.6000 C   0  0  0  0  0  0  0  0  0  0  0  0
   57.7250   33.1400   44.0210 C   0  0  0  0  0  0  0  0  0  0  0  0
   57.9440   34.2100   45.1100 C   0  0  0  0  0  0  0  0  0  0  0  0
   59.1550   33.8740   46.0040 C   0  0  0  0  0  0  0  0  0  0  0  0
   58.9560   32.5370   46.7420 C   0  0  0  0  0  0  0  0  0  0  0  0
   55.5775   30.3745   43.0282 H   0  0  0  0  0  0  0  0  0  0  0  0
   56.7698   31.4329   42.2007 H   0  0  0  0  0  0  0  0  0  0  0  0
   56.9983   29.6512   42.2007 H   0  0  0  0  0  0  0  0  0  0  0  0
   57.8812   26.9582   47.1238 H   0  0  0  0  0  0  0  0  0  0  0  0
   56.1302   26.6636   47.5104 H   0  0  0  0  0  0  0  0  0  0  0  0
   58.1039   24.8638   46.3396 H   0  0  0  0  0  0  0  0  0  0  0  0
   56.4178   24.5454   46.9614 H   0  0  0  0  0  0  0  0  0  0  0  0
   56.6070   25.8120   44.3650 H   0  0  0  0  0  0  0  0  0  0  0  0
   54.6707   24.7077   45.8412 H   0  0  0  0  0  0  0  0  0  0  0  0
   54.6349   24.9708   44.0434 H   0  0  0  0  0  0  0  0  0  0  0  0
   55.5224   22.4193   45.4660 H   0  0  0  0  0  0  0  0  0  0  0  0
   53.9408   22.7049   44.6026 H   0  0  0  0  0  0  0  0  0  0  0  0
   57.4325   22.6100   42.5144 H   0  0  0  0  0  0  0  0  0  0  0  0
   56.3592   24.0828   42.3639 H   0  0  0  0  0  0  0  0  0  0  0  0
   57.7813   23.1850   44.9071 H   0  0  0  0  0  0  0  0  0  0  0  0
   58.3120   24.5133   43.8003 H   0  0  0  0  0  0  0  0  0  0  0  0
   58.7234   29.5705   46.8863 H   0  0  0  0  0  0  0  0  0  0  0  0
   58.4843   33.2649   43.2350 H   0  0  0  0  0  0  0  0  0  0  0  0
   56.7156   33.2651   43.6021 H   0  0  0  0  0  0  0  0  0  0  0  0
   58.1176   35.1820   44.6251 H   0  0  0  0  0  0  0  0  0  0  0  0
   57.0467   34.2414   45.7455 H   0  0  0  0  0  0  0  0  0  0  0  0
   60.0553   33.8053   45.3757 H   0  0  0  0  0  0  0  0  0  0  0  0
   59.2622   34.6708   46.7548 H   0  0  0  0  0  0  0  0  0  0  0  0
   59.9154   32.2143   47.1727 H   0  0  0  0  0  0  0  0  0  0  0  0
   58.2118   32.6769   47.5398 H   0  0  0  0  0  0  0  0  0  0  0  0
  1  2  1  0
  2  3  1  0
  3  4  1  0
  4  5  2  0
  4  6  1  0
  6  7  1  0
  7  8  1  0
  8  9  1  0
  9 10  1  0
 10 11  1  0
 11 12  1  0
 12 13  1  0
 13 14  1  0
  3 15  2  0
 15 16  1  0
 16 17  2  0
 17 18  1  0
 18 19  1  0
 19 20  1  0
 20 21  1  0
 17  2  1  0
 14  9  1  0
 21 16  1  0
  1 22  1  0
  1 23  1  0
  1 24  1  0
  7 25  1  0
  7 26  1  0
  8 27  1  0
  8 28  1  0
  9 29  1  0
 10 30  1  0
 10 31  1  0
 11 32  1  0
 11 33  1  0
 13 34  1  0
 13 35  1  0
 14 36  1  0
 14 37  1  0
 15 38  1  0
 18 39  1  0
 18 40  1  0
 19 41  1  0
 19 42  1  0
 20 43  1  0
 20 44  1  0
 21 45  1  0
 21 46  1  0
M  CHG  2   6  -1   9   1
M  END
>  <UniqueID>  (4) 
4

>  <SMILES>  (4) 
Cn1c(C(=O)[N-]CC[NH+]2CCOCC2)cc2c1CCCC2

>  <Energy>  (4) 
91.20646564360469

>  <Genealogy>  (4) 
Cn1c(C(=O)[N-]CC[NH+]2CCOCC2)cc2c1CCCC2 (protonated)
Cn1c(C(=O)[N-]CC[NH+]2CCOCC2)cc2c1CCCC2 (3D coordinates assigned)
Cn1c(C(=O)[N-]CC[NH+]2CCOCC2)cc2c1CCCC2 (nonaromatic ring conformer: 91.20646564360469 kcal/mol)

>  <smiles>  (4) 
Cn1c(C(=O)NCCN2CCOCC2)cc2c1CCCC2

>  <score_type>  (4) 
oracle

>  <origin>  (4) 
adg

>  <m_score__min__energy>  (4) 
-7.0099999999999998

>  <m_primary>  (4) 
energy

$$$$
5:0
     RDKit          3D

 32 33  0  0  0  0  0  0  0  0999 V2000
   58.9060   34.2180   47.2560 C   0  0  0  0  0  0  0  0  0  0  0  0
   58.3690   33.4460   46.1370 C   0  0  0  0  0  0  0  0  0  0  0  0
   57.9380   32.8050   45.2110 C   0  0  0  0  0  0  0  0  0  0  0  0
   57.3940   32.0460   44.0770 C   0  0  0  0  0  0  0  0  0  0  0  0
   56.9570   30.7760   44.5040 O   0  0  0  0  0  0  0  0  0  0  0  0
   57.8070   29.8570   43.9700 N   0  0  0  0  0  0  0  0  0  0  0  0
   58.1090   28.6360   44.6710 C   0  0  0  0  0  0  0  0  0  0  0  0
   57.6400   27.4590   44.1620 N   0  0  0  0  0  0  0  0  0  0  0  0
   57.9050   26.2670   44.7550 C   0  0  0  0  0  0  0  0  0  0  0  0
   57.4000   24.9920   44.1460 C   0  0  0  0  0  0  0  0  0  0  0  0
   58.7100   26.2280   45.8880 C   0  0  0  0  0  0  0  0  0  0  0  0
   59.1790   27.4290   46.4270 C   0  0  0  0  0  0  0  0  0  0  0  0
   59.9610   27.3970   47.5910 C   0  0  0  0  0  0  0  0  0  0  0  0
   60.3970   28.5880   48.1610 C   0  0  0  0  0  0  0  0  0  0  0  0
   60.0410   29.7980   47.5810 C   0  0  0  0  0  0  0  0  0  0  0  0
   59.2650   29.8070   46.4210 C   0  0  0  0  0  0  0  0  0  0  0  0
   58.8580   28.6340   45.8300 N   0  0  0  0  0  0  0  0  0  0  0  0
   58.5873   33.7599   48.2039 H   0  0  0  0  0  0  0  0  0  0  0  0
   60.0047   34.2247   47.2031 H   0  0  0  0  0  0  0  0  0  0  0  0
   58.5301   35.2504   47.2031 H   0  0  0  0  0  0  0  0  0  0  0  0
   56.5446   32.5962   43.6460 H   0  0  0  0  0  0  0  0  0  0  0  0
   58.1823   31.9179   43.3206 H   0  0  0  0  0  0  0  0  0  0  0  0
   58.1150   29.9950   42.9820 H   0  0  0  0  0  0  0  0  0  0  0  0
   57.0750   27.4700   43.2830 H   0  0  0  0  0  0  0  0  0  0  0  0
   57.1216   24.2891   44.9450 H   0  0  0  0  0  0  0  0  0  0  0  0
   56.5191   25.2068   43.5233 H   0  0  0  0  0  0  0  0  0  0  0  0
   58.1891   24.5454   43.5233 H   0  0  0  0  0  0  0  0  0  0  0  0
   58.9736   25.2666   46.3529 H   0  0  0  0  0  0  0  0  0  0  0  0
   60.2281   26.4341   48.0508 H   0  0  0  0  0  0  0  0  0  0  0  0
   61.0208   28.5715   49.0669 H   0  0  0  0  0  0  0  0  0  0  0  0
   60.3690   30.7454   48.0336 H   0  0  0  0  0  0  0  0  0  0  0  0
   58.9742   30.7682   45.9721 H   0  0  0  0  0  0  0  0  0  0  0  0
  1  2  1  0
  2  3  3  0
  3  4  1  0
  4  5  1  0
  5  6  1  0
  6  7  1  0
  7  8  2  0
  8  9  1  0
  9 10  1  0
  9 11  2  0
 11 12  1  0
 12 13  2  0
 13 14  1  0
 14 15  2  0
 15 16  1  0
 16 17  2  0
 17  7  1  0
 17 12  1  0
  1 18  1  0
  1 19  1  0
  1 20  1  0
  4 21  1  0
  4 22  1  0
  6 23  1  0
  8 24  1  0
 10 25  1  0
 10 26  1  0
 10 27  1  0
 11 28  1  0
 13 29  1  0
 14 30  1  0
 15 31  1  0
 16 32  1  0
M  CHG  2   8   1  17   1
M  END
>  <UniqueID>  (5) 
5

>  <SMILES>  (5) 
CC#CCONc1[nH+]c(C)cc2cccc[n+]12

>  <Energy>  (5) 
32.447185624451386

>  <Genealogy>  (5) 
CC#CCONc1[nH+]c(C)cc2cccc[n+]12 (protonated)
CC#CCONc1[nH+]c(C)cc2cccc[n+]12 (3D coordinates assigned)
CC#CCONc1[nH+]c(C)cc2cccc[n+]12 (optimized conformer: 32.447185624451386 kcal/mol)

>  <smiles>  (5) 
CC#CCONc1nc(C)cc2cccc[n+]12

>  <score_type>  (5) 
oracle

>  <origin>  (5) 
adg

>  <m_score__min__energy>  (5) 
-3.2200000000000002

>  <m_primary>  (5) 
energy

$$$$
6:0
     RDKit          3D

 48 49  0  0  0  0  0  0  0  0999 V2000
   58.4610   31.9510   50.0730 C   0  0  0  0  0  0  0  0  0  0  0  0
   59.3610   30.9670   49.3400 C   0  0  0  0  0  0  0  0  0  0  0  0
   59.7690   31.5340   48.0970 O   0  0  0  0  0  0  0  0  0  0  0  0
   61.0670   31.9930   47.8150 C   0  0  0  0  0  0  0  0  0  0  0  0
   62.1020   31.1070   47.4420 C   0  0  0  0  0  0  0  0  0  0  0  0
   63.3830   31.5890   47.1640 C   0  0  0  0  0  0  0  0  0  0  0  0
   63.6490   32.9570   47.2480 C   0  0  0  0  0  0  0  0  0  0  0  0
   62.6370   33.8460   47.6180 C   0  0  0  0  0  0  0  0  0  0  0  0
   61.3420   33.3770   47.9060 C   0  0  0  0  0  0  0  0  0  0  0  0
   60.2860   34.3570   48.3680 C   0  0  0  0  0  0  0  0  0  0  0  0
   59.3180   34.7160   47.2310 C   0  0  0  0  0  0  0  0  0  0  0  0
   58.6560   33.5120   46.7090 N   0  0  0  0  0  0  0  0  0  0  0  0
   57.4170   33.8310   45.9820 C   0  0  0  0  0  0  0  0  0  0  0  0
   57.5210   33.4050   44.5150 C   0  0  0  0  0  0  0  0  0  0  0  0
   57.3800   31.6330   44.2920 S   0  0  0  0  0  0  0  0  0  0  0  0
   57.8170   31.2790   42.8980 O   0  0  0  0  0  0  0  0  0  0  0  0
   55.9510   31.2130   44.4990 O   0  0  0  0  0  0  0  0  0  0  0  0
   58.4160   30.8420   45.4430 N   0  0  0  0  0  0  0  0  0  0  0  0
   58.5110   29.4140   45.5980 C   0  0  0  0  0  0  0  0  0  0  0  0
   58.2740   28.5890   44.4860 C   0  0  0  0  0  0  0  0  0  0  0  0
   58.3550   27.1960   44.6030 C   0  0  0  0  0  0  0  0  0  0  0  0
   58.6700   26.6120   45.8360 C   0  0  0  0  0  0  0  0  0  0  0  0
   58.7730   24.7090   45.9970 Br  0  0  0  0  0  0  0  0  0  0  0  0
   58.9030   27.4230   46.9510 C   0  0  0  0  0  0  0  0  0  0  0  0
   58.8180   28.8170   46.8390 C   0  0  0  0  0  0  0  0  0  0  0  0
   58.5813   31.8195   51.1585 H   0  0  0  0  0  0  0  0  0  0  0  0
   58.7383   32.9786   49.7952 H   0  0  0  0  0  0  0  0  0  0  0  0
   57.4128   31.7663   49.7952 H   0  0  0  0  0  0  0  0  0  0  0  0
   60.2479   30.7529   49.9545 H   0  0  0  0  0  0  0  0  0  0  0  0
   58.8103   30.0330   49.1547 H   0  0  0  0  0  0  0  0  0  0  0  0
   61.8974   30.0286   47.3699 H   0  0  0  0  0  0  0  0  0  0  0  0
   64.1831   30.8902   46.8786 H   0  0  0  0  0  0  0  0  0  0  0  0
   64.6570   33.3353   47.0225 H   0  0  0  0  0  0  0  0  0  0  0  0
   62.8544   34.9222   47.6848 H   0  0  0  0  0  0  0  0  0  0  0  0
   59.7163   33.9061   49.1939 H   0  0  0  0  0  0  0  0  0  0  0  0
   60.7892   35.2779   48.6976 H   0  0  0  0  0  0  0  0  0  0  0  0
   58.5549   35.4102   47.6128 H   0  0  0  0  0  0  0  0  0  0  0  0
   59.8895   35.1851   46.4165 H   0  0  0  0  0  0  0  0  0  0  0  0
   58.4000   32.9110   47.5270 H   0  0  0  0  0  0  0  0  0  0  0  0
   56.5762   33.3004   46.4526 H   0  0  0  0  0  0  0  0  0  0  0  0
   57.2551   34.9183   46.0223 H   0  0  0  0  0  0  0  0  0  0  0  0
   56.7151   33.8952   43.9492 H   0  0  0  0  0  0  0  0  0  0  0  0
   58.5157   33.7051   44.1538 H   0  0  0  0  0  0  0  0  0  0  0  0
   58.9670   31.4560   46.0840 H   0  0  0  0  0  0  0  0  0  0  0  0
   58.0227   29.0411   43.5152 H   0  0  0  0  0  0  0  0  0  0  0  0
   58.1709   26.5595   43.7249 H   0  0  0  0  0  0  0  0  0  0  0  0
   59.1538   26.9651   47.9192 H   0  0  0  0  0  0  0  0  0  0  0  0
   58.9914   29.4489   47.7226 H   0  0  0  0  0  0  0  0  0  0  0  0
  1  2  1  0
  2  3  1  0
  3  4  1  0
  4  5  2  0
  5  6  1  0
  6  7  2  0
  7  8  1  0
  8  9  2  0
  9 10  1  0
 10 11  1  0
 11 12  1  0
 12 13  1  0
 13 14  1  0
 14 15  1  0
 15 16  2  0
 15 17  2  0
 15 18  1  0
 18 19  1  0
 19 20  2  0
 20 21  1  0
 21 22  2  0
 22 23  1  0
 22 24  1  0
 24 25  2  0
  9  4  1  0
 25 19  1  0
  1 26  1  0
  1 27  1  0
  1 28  1  0
  2 29  1  0
  2 30  1  0
  5 31  1  0
  6 32  1  0
  7 33  1  0
  8 34  1  0
 10 35  1  0
 10 36  1  0
 11 37  1  0
 11 38  1  0
 12 39  1  0
 13 40  1  0
 13 41  1  0
 14 42  1  0
 14 43  1  0
 18 44  1  0
 20 45  1  0
 21 46  1  0
 24 47  1  0
 25 48  1  0
M  END
>  <UniqueID>  (6) 
6

>  <SMILES>  (6) 
CCOc1ccccc1CCNCCS(=O)(=O)Nc1ccc(Br)cc1

>  <Energy>  (6) 
37.25083328801852

>  <Genealogy>  (6) 
CCOc1ccccc1CCNCCS(=O)(=O)Nc1ccc(Br)cc1 (3D coordinates assigned)
CCOc1ccccc1CCNCCS(=O)(=O)Nc1ccc(Br)cc1 (optimized conformer: 37.25083328801852 kcal/mol)

>  <smiles>  (6) 
CCOc1ccccc1CCNCCS(=O)(=O)Nc1ccc(Br)cc1

>  <score_type>  (6) 
oracle

>  <origin>  (6) 
adg

>  <m_score__min__energy>  (6) 
-7.8600000000000003

>  <m_primary>  (6) 
energy

$$$$
7:0
     RDKit          3D

 80 82  0  0  0  0  0  0  0  0999 V2000
   63.3680   33.8720   46.3550 C   0  0  0  0  0  0  0  0  0  0  0  0
   62.2290   33.1850   47.1020 C   0  0  0  0  0  0  0  0  0  0  0  0
   62.7620   32.1020   48.0480 C   0  0  0  0  0  0  0  0  0  0  0  0
   62.7340   32.5820   49.5110 C   0  0  0  0  0  0  0  0  0  0  0  0
   61.4650   32.2060   50.1950 N   0  0  1  0  0  0  0  0  0  0  0  0
   61.7320   31.2190   51.2760 C   0  0  0  0  0  0  0  0  0  0  0  0
   61.7840   29.7600   50.7480 C   0  0  0  0  0  0  0  0  0  0  0  0
   60.4700   29.2830   50.1080 C   0  0  0  0  0  0  0  0  0  0  0  0
   60.3690   29.5630   48.6020 C   0  0  0  0  0  0  0  0  0  0  0  0
   59.0680   30.1280   48.2390 N   0  0  0  0  0  0  0  0  0  0  0  0
   58.6700   30.3170   46.8670 C   0  0  0  0  0  0  0  0  0  0  0  0
   58.4950   29.2120   46.0170 C   0  0  0  0  0  0  0  0  0  0  0  0
   58.8570   27.9140   46.4300 C   0  0  0  0  0  0  0  0  0  0  0  0
   58.7270   26.8310   45.5680 C   0  0  0  0  0  0  0  0  0  0  0  0
   58.2470   27.0200   44.2790 C   0  0  0  0  0  0  0  0  0  0  0  0
   57.8740   28.2950   43.8490 C   0  0  0  0  0  0  0  0  0  0  0  0
   57.9600   29.4130   44.7150 C   0  0  0  0  0  0  0  0  0  0  0  0
   57.5670   30.6750   44.3120 N   0  0  0  0  0  0  0  0  0  0  0  0
   56.7350   30.8500   43.1000 C   0  0  0  0  0  0  0  0  0  0  0  0
   57.9540   31.7800   45.0440 C   0  0  0  0  0  0  0  0  0  0  0  0
   57.8400   33.0950   44.5250 C   0  0  0  0  0  0  0  0  0  0  0  0
   58.2510   34.2020   45.2660 C   0  0  0  0  0  0  0  0  0  0  0  0
   58.8080   34.0290   46.5280 C   0  0  0  0  0  0  0  0  0  0  0  0
   58.9530   32.7480   47.0570 C   0  0  0  0  0  0  0  0  0  0  0  0
   58.5140   31.6150   46.3410 C   0  0  0  0  0  0  0  0  0  0  0  0
   60.8030   33.4190   50.7600 C   0  0  0  0  0  0  0  0  0  0  0  0
   59.2770   33.3570   50.6250 C   0  0  0  0  0  0  0  0  0  0  0  0
   58.8770   32.0080   50.3960 O   0  0  0  0  0  0  0  0  0  0  0  0
   57.9430   31.3310   51.1880 C   0  0  0  0  0  0  0  0  0  0  0  0
   57.5270   30.1850   50.8600 O   0  0  0  0  0  0  0  0  0  0  0  0
   57.4140   32.0000   52.4330 C   0  0  0  0  0  0  0  0  0  0  0  0
   58.0610   31.5360   53.6980 N   0  0  0  0  0  0  0  0  0  0  0  0
   59.0390   30.4740   53.3630 C   0  0  0  0  0  0  0  0  0  0  0  0
   57.0520   30.9720   54.6270 C   0  0  0  0  0  0  0  0  0  0  0  0
   58.7870   32.6450   54.3680 C   0  0  0  0  0  0  0  0  0  0  0  0
   64.0766   34.2994   47.0797 H   0  0  0  0  0  0  0  0  0  0  0  0
   63.8882   33.1369   45.7233 H   0  0  0  0  0  0  0  0  0  0  0  0
   62.9605   34.6751   45.7233 H   0  0  0  0  0  0  0  0  0  0  0  0
   61.6800   33.9360   47.6890 H   0  0  0  0  0  0  0  0  0  0  0  0
   61.5654   32.7089   46.3651 H   0  0  0  0  0  0  0  0  0  0  0  0
   62.1364   31.2022   47.9530 H   0  0  0  0  0  0  0  0  0  0  0  0
   63.8035   31.8792   47.7730 H   0  0  0  0  0  0  0  0  0  0  0  0
   63.5774   32.1267   50.0508 H   0  0  0  0  0  0  0  0  0  0  0  0
   62.8091   33.6794   49.5112 H   0  0  0  0  0  0  0  0  0  0  0  0
   60.8260   31.7560   49.4970 H   0  0  0  0  0  0  0  0  0  0  0  0
   62.6983   31.4599   51.7431 H   0  0  0  0  0  0  0  0  0  0  0  0
   60.9062   31.2837   51.9997 H   0  0  0  0  0  0  0  0  0  0  0  0
   62.5814   29.6928   49.9933 H   0  0  0  0  0  0  0  0  0  0  0  0
   61.9701   29.1119   51.6171 H   0  0  0  0  0  0  0  0  0  0  0  0
   60.3837   28.1976   50.2642 H   0  0  0  0  0  0  0  0  0  0  0  0
   59.6586   29.8473   50.5909 H   0  0  0  0  0  0  0  0  0  0  0  0
   61.1579   30.2754   48.3188 H   0  0  0  0  0  0  0  0  0  0  0  0
   60.4875   28.6084   48.0685 H   0  0  0  0  0  0  0  0  0  0  0  0
   58.4330   30.4520   49.0050 H   0  0  0  0  0  0  0  0  0  0  0  0
   59.2470   27.7560   47.4463 H   0  0  0  0  0  0  0  0  0  0  0  0
   59.0050   25.8224   45.9079 H   0  0  0  0  0  0  0  0  0  0  0  0
   58.1603   26.1631   43.5947 H   0  0  0  0  0  0  0  0  0  0  0  0
   57.5074   28.4337   42.8212 H   0  0  0  0  0  0  0  0  0  0  0  0
   55.6981   31.0681   43.3954 H   0  0  0  0  0  0  0  0  0  0  0  0
   57.1292   31.6849   42.5020 H   0  0  0  0  0  0  0  0  0  0  0  0
   56.7595   29.9271   42.5020 H   0  0  0  0  0  0  0  0  0  0  0  0
   57.4196   33.2441   43.5195 H   0  0  0  0  0  0  0  0  0  0  0  0
   58.1344   35.2142   44.8514 H   0  0  0  0  0  0  0  0  0  0  0  0
   59.1345   34.9039   47.1093 H   0  0  0  0  0  0  0  0  0  0  0  0
   59.4161   32.6187   48.0464 H   0  0  0  0  0  0  0  0  0  0  0  0
   61.0620   33.5008   51.8259 H   0  0  0  0  0  0  0  0  0  0  0  0
   61.1584   34.2936   50.1955 H   0  0  0  0  0  0  0  0  0  0  0  0
   58.8113   33.7259   51.5507 H   0  0  0  0  0  0  0  0  0  0  0  0
   58.9568   33.9840   49.7798 H   0  0  0  0  0  0  0  0  0  0  0  0
   57.5777   33.0837   52.3388 H   0  0  0  0  0  0  0  0  0  0  0  0
   56.3488   31.7356   52.5065 H   0  0  0  0  0  0  0  0  0  0  0  0
   59.4398   30.0388   54.2904 H   0  0  0  0  0  0  0  0  0  0  0  0
   58.5409   29.6891   52.7750 H   0  0  0  0  0  0  0  0  0  0  0  0
   59.8622   30.9059   52.7750 H   0  0  0  0  0  0  0  0  0  0  0  0
   57.3696   31.1495   55.6651 H   0  0  0  0  0  0  0  0  0  0  0  0
   56.0808   31.4580   54.4525 H   0  0  0  0  0  0  0  0  0  0  0  0
   56.9572   29.8901   54.4525 H   0  0  0  0  0  0  0  0  0  0  0  0
   58.7100   32.5274   55.4590 H   0  0  0  0  0  0  0  0  0  0  0  0
   59.8458   32.6226   54.0706 H   0  0  0  0  0  0  0  0  0  0  0  0
   58.3429   33.6064   54.0706 H   0  0  0  0  0  0  0  0  0  0  0  0
  1  2  1  0
  2  3  1  0
  3  4  1  0
  4  5  1  0
  5  6  1  0
  6  7  1  0
  7  8  1  0
  8  9  1  0
  9 10  1  0
 10 11  1  0
 11 12  2  0
 12 13  1  0
 13 14  2  0
 14 15  1  0
 15 16  2  0
 16 17  1  0
 17 18  2  0
 18 19  1  0
 18 20  1  0
 20 21  2  0
 21 22  1  0
 22 23  2  0
 23 24  1  0
 24 25  2  0
  5 26  1  0
 26 27  1  0
 27 28  1  0
 28 29  1  0
 29 30  2  0
 29 31  1  0
 31 32  1  0
 32 33  1  0
 32 34  1  0
 32 35  1  0
 25 11  1  0
 17 12  1  0
 25 20  1  0
  1 36  1  0
  1 37  1  0
  1 38  1  0
  2 39  1  0
  2 40  1  0
  3 41  1  0
  3 42  1  0
  4 43  1  0
  4 44  1  0
  5 45  1  6
  6 46  1  0
  6 47  1  0
  7 48  1  0
  7 49  1  0
  8 50  1  0
  8 51  1  0
  9 52  1  0
  9 53  1  0
 10 54  1  0
 13 55  1  0
 14 56  1  0
 15 57  1  0
 16 58  1  0
 19 59  1  0
 19 60  1  0
 19 61  1  0
 21 62  1  0
 22 63  1  0
 23 64  1  0
 24 65  1  0
 26 66  1  0
 26 67  1  0
 27 68  1  0
 27 69  1  0
 31 70  1  0
 31 71  1  0
 33 72  1  0
 33 73  1  0
 33 74  1  0
 34 75  1  0
 34 76  1  0
 34 77  1  0
 35 78  1  0
 35 79  1  0
 35 80  1  0
M  CHG  3   5   1  18   1  32   1
M  END
>  <UniqueID>  (7) 
7

>  <SMILES>  (7) 
CCCC[N@@H+](CCCCNc1c2ccccc2[n+](C)c2ccccc12)CCOC(=O)C[N+](C)(C)C

>  <Energy>  (7) 
102.53581070598135

>  <Genealogy>  (7) 
CCCC[NH+](CCCCNc1c2ccccc2[n+](C)c2ccccc12)CCOC(=O)C[N+](C)(C)C (protonated)
CCCC[N@@H+](CCCCNc1c2ccccc2[n+](C)c2ccccc12)CCOC(=O)C[N+](C)(C)C (chirality)
CCCC[N@@H+](CCCCNc1c2ccccc2[n+](C)c2ccccc12)CCOC(=O)C[N+](C)(C)C (3D coordinates assigned)
CCCC[N@@H+](CCCCNc1c2ccccc2[n+](C)c2ccccc12)CCOC(=O)C[N+](C)(C)C (optimized conformer: 102.53581070598135 kcal/mol)

>  <smiles>  (7) 
CCCCN(CCCCNc1c2ccccc2[n+](C)c2ccccc12)CCOC(=O)C[N+](C)(C)C

>  <score_type>  (7) 
oracle

>  <origin>  (7) 
adg

>  <m_score__min__energy>  (7) 
-2.75

>  <m_primary>  (7) 
energy

$$$$
8:0
     RDKit          3D

 41 43  0  0  0  0  0  0  0  0999 V2000
   56.2890   29.7100   42.2610 C   0  0  0  0  0  0  0  0  0  0  0  0
   56.9160   30.7920   43.0970 C   0  0  0  0  0  0  0  0  0  0  0  0
   57.5510   31.8610   42.4470 C   0  0  0  0  0  0  0  0  0  0  0  0
   58.1130   32.9080   43.1790 C   0  0  0  0  0  0  0  0  0  0  0  0
   58.0470   32.9140   44.5810 C   0  0  0  0  0  0  0  0  0  0  0  0
   58.6310   33.9880   45.3410 N   0  0  0  0  0  0  0  0  0  0  0  0
   59.5900   34.6430   44.8830 O   0  0  0  0  0  0  0  0  0  0  0  0
   58.1520   34.3010   46.5920 O   0  0  0  0  0  0  0  0  0  0  0  0
   57.4180   31.8420   45.2350 C   0  0  0  0  0  0  0  0  0  0  0  0
   56.8880   30.7660   44.5090 C   0  0  0  0  0  0  0  0  0  0  0  0
   56.3070   29.6760   45.2380 N   0  0  0  0  0  0  0  0  0  0  0  0
   56.6490   28.2900   45.0930 C   0  0  0  0  0  0  0  0  0  0  0  0
   55.9060   27.4290   45.6340 O   0  0  0  0  0  0  0  0  0  0  0  0
   57.8430   27.8140   44.3050 C   0  0  0  0  0  0  0  0  0  0  0  0
   58.9690   28.6730   44.4710 O   0  0  0  0  0  0  0  0  0  0  0  0
   59.7710   28.6880   45.6180 C   0  0  0  0  0  0  0  0  0  0  0  0
   60.5710   27.7380   45.8420 O   0  0  0  0  0  0  0  0  0  0  0  0
   59.6450   29.8000   46.5930 C   0  0  0  0  0  0  0  0  0  0  0  0
   60.3680   30.9870   46.4010 C   0  0  0  0  0  0  0  0  0  0  0  0
   60.3010   32.0050   47.3540 C   0  0  0  0  0  0  0  0  0  0  0  0
   61.0270   33.1970   47.2090 C   0  0  0  0  0  0  0  0  0  0  0  0
   60.9430   34.1880   48.1910 C   0  0  0  0  0  0  0  0  0  0  0  0
   60.1380   33.9960   49.3180 C   0  0  0  0  0  0  0  0  0  0  0  0
   59.4110   32.8100   49.4680 C   0  0  0  0  0  0  0  0  0  0  0  0
   59.4900   31.8110   48.4910 C   0  0  0  0  0  0  0  0  0  0  0  0
   58.8060   30.6830   48.6390 O   0  0  0  0  0  0  0  0  0  0  0  0
   58.8470   29.6910   47.7550 C   0  0  0  0  0  0  0  0  0  0  0  0
   58.1640   28.6550   47.9730 O   0  0  0  0  0  0  0  0  0  0  0  0
   55.8472   28.9476   42.9194 H   0  0  0  0  0  0  0  0  0  0  0  0
   55.5036   30.1459   41.6261 H   0  0  0  0  0  0  0  0  0  0  0  0
   57.0578   29.2453   41.6261 H   0  0  0  0  0  0  0  0  0  0  0  0
   57.6065   31.8741   41.3485 H   0  0  0  0  0  0  0  0  0  0  0  0
   58.6118   33.7353   42.6528 H   0  0  0  0  0  0  0  0  0  0  0  0
   57.3401   31.8466   46.3322 H   0  0  0  0  0  0  0  0  0  0  0  0
   58.1136   26.8037   44.6457 H   0  0  0  0  0  0  0  0  0  0  0  0
   57.5693   27.8143   43.2396 H   0  0  0  0  0  0  0  0  0  0  0  0
   60.9869   31.1153   45.5007 H   0  0  0  0  0  0  0  0  0  0  0  0
   61.6614   33.3513   46.3237 H   0  0  0  0  0  0  0  0  0  0  0  0
   61.5122   35.1223   48.0768 H   0  0  0  0  0  0  0  0  0  0  0  0
   60.0761   34.7789   50.0882 H   0  0  0  0  0  0  0  0  0  0  0  0
   58.7768   32.6626   50.3546 H   0  0  0  0  0  0  0  0  0  0  0  0
  1  2  1  0
  2  3  2  0
  3  4  1  0
  4  5  2  0
  5  6  1  0
  6  7  2  0
  6  8  1  0
  5  9  1  0
  9 10  2  0
 10 11  1  0
 11 12  1  0
 12 13  2  0
 12 14  1  0
 14 15  1  0
 15 16  1  0
 16 17  2  0
 16 18  1  0
 18 19  2  0
 19 20  1  0
 20 21  2  0
 21 22  1  0
 22 23  2  0
 23 24  1  0
 24 25  2  0
 25 26  1  0
 26 27  1  0
 27 28  2  0
 10  2  1  0
 27 18  1  0
 25 20  1  0
  1 29  1  0
  1 30  1  0
  1 31  1  0
  3 32  1  0
  4 33  1  0
  9 34  1  0
 14 35  1  0
 14 36  1  0
 19 37  1  0
 21 38  1  0
 22 39  1  0
 23 40  1  0
 24 41  1  0
M  CHG  3   6   1   8  -1  11  -1
M  END
>  <UniqueID>  (8) 
8

>  <SMILES>  (8) 
Cc1ccc([N+](=O)[O-])cc1[N-]C(=O)COC(=O)c1cc2ccccc2oc1=O

>  <Energy>  (8) 
52.66023005575484

>  <Genealogy>  (8) 
Cc1ccc([N+](=O)[O-])cc1[N-]C(=O)COC(=O)c1cc2ccccc2oc1=O (protonated)
Cc1ccc([N+](=O)[O-])cc1[N-]C(=O)COC(=O)c1cc2ccccc2oc1=O (3D coordinates assigned)
Cc1ccc([N+](=O)[O-])cc1[N-]C(=O)COC(=O)c1cc2ccccc2oc1=O (optimized conformer: 52.66023005575484 kcal/mol)

>  <smiles>  (8) 
Cc1ccc([N+](=O)[O-])cc1NC(=O)COC(=O)c1cc2ccccc2oc1=O

>  <score_type>  (8) 
oracle

>  <origin>  (8) 
adg

>  <m_score__min__energy>  (8) 
-10.380000000000001

>  <m_primary>  (8) 
energy

$$$$
9:0
     RDKit          3D

 52 54  0  0  0  0  0  0  0  0999 V2000
   55.2450   30.8480   52.0050 C   0  0  0  0  0  0  0  0  0  0  0  0
   56.7500   30.9510   52.2290 C   0  0  0  0  0  0  0  0  0  0  0  0
   57.3250   31.9230   51.2950 N   0  0  0  0  0  0  0  0  0  0  0  0
   57.8970   33.0650   52.0180 C   0  0  0  0  0  0  0  0  0  0  0  0
   59.3350   33.3370   51.5490 C   0  0  0  0  0  0  0  0  0  0  0  0
   59.9430   32.1900   50.8430 N   0  0  0  0  0  0  0  0  0  0  0  0
   60.9320   32.6050   49.8530 C   0  0  0  0  0  0  0  0  0  0  0  0
   62.3280   32.6030   50.1500 C   0  0  0  0  0  0  0  0  0  0  0  0
   62.8370   32.2160   51.4190 C   0  0  0  0  0  0  0  0  0  0  0  0
   64.1990   32.2750   51.7020 C   0  0  0  0  0  0  0  0  0  0  0  0
   65.0910   32.7280   50.7440 C   0  0  0  0  0  0  0  0  0  0  0  0
   64.6320   33.0850   49.4810 C   0  0  0  0  0  0  0  0  0  0  0  0
   63.2580   32.9860   49.1400 C   0  0  0  0  0  0  0  0  0  0  0  0
   62.8260   33.2600   47.8600 N   0  0  0  0  0  0  0  0  0  0  0  0
   63.8020   33.3190   46.7480 C   0  0  0  0  0  0  0  0  0  0  0  0
   61.4830   33.4400   47.6050 C   0  0  0  0  0  0  0  0  0  0  0  0
   61.0420   34.0080   46.3850 C   0  0  0  0  0  0  0  0  0  0  0  0
   59.6890   34.1210   46.0860 C   0  0  0  0  0  0  0  0  0  0  0  0
   58.7230   33.6860   46.9900 C   0  0  0  0  0  0  0  0  0  0  0  0
   57.3310   33.7960   46.6280 N   0  0  0  0  0  0  0  0  0  0  0  0
   56.8070   33.7390   45.2620 C   0  0  0  0  0  0  0  0  0  0  0  0
   57.3980   32.5540   44.5040 C   0  0  0  0  0  0  0  0  0  0  0  0
   59.1380   33.1580   48.2230 C   0  0  0  0  0  0  0  0  0  0  0  0
   60.5110   33.0630   48.5700 C   0  0  0  0  0  0  0  0  0  0  0  0
   54.7312   30.8128   52.9770 H   0  0  0  0  0  0  0  0  0  0  0  0
   54.8978   31.7245   51.4382 H   0  0  0  0  0  0  0  0  0  0  0  0
   55.0205   29.9324   51.4382 H   0  0  0  0  0  0  0  0  0  0  0  0
   56.9442   31.2774   53.2614 H   0  0  0  0  0  0  0  0  0  0  0  0
   57.2110   29.9668   52.0588 H   0  0  0  0  0  0  0  0  0  0  0  0
   56.5570   32.2800   50.6800 H   0  0  0  0  0  0  0  0  0  0  0  0
   57.2809   33.9568   51.8306 H   0  0  0  0  0  0  0  0  0  0  0  0
   57.9127   32.8323   53.0930 H   0  0  0  0  0  0  0  0  0  0  0  0
   59.3233   34.2007   50.8678 H   0  0  0  0  0  0  0  0  0  0  0  0
   59.9415   33.5275   52.4467 H   0  0  0  0  0  0  0  0  0  0  0  0
   59.1970   31.5750   50.4600 H   0  0  0  0  0  0  0  0  0  0  0  0
   60.3900   31.5530   51.5400 H   0  0  0  0  0  0  0  0  0  0  0  0
   62.1407   31.8625   52.1937 H   0  0  0  0  0  0  0  0  0  0  0  0
   64.5678   31.9609   52.6896 H   0  0  0  0  0  0  0  0  0  0  0  0
   66.1621   32.8053   50.9823 H   0  0  0  0  0  0  0  0  0  0  0  0
   65.3483   33.4516   48.7310 H   0  0  0  0  0  0  0  0  0  0  0  0
   64.8211   33.3806   47.1575 H   0  0  0  0  0  0  0  0  0  0  0  0
   63.7092   32.4136   46.1302 H   0  0  0  0  0  0  0  0  0  0  0  0
   63.6008   34.2066   46.1302 H   0  0  0  0  0  0  0  0  0  0  0  0
   61.7857   34.3674   45.6586 H   0  0  0  0  0  0  0  0  0  0  0  0
   59.3783   34.5584   45.1257 H   0  0  0  0  0  0  0  0  0  0  0  0
   56.6300   33.9330   47.3920 H   0  0  0  0  0  0  0  0  0  0  0  0
   55.7127   33.6335   45.2996 H   0  0  0  0  0  0  0  0  0  0  0  0
   57.0846   34.6660   44.7389 H   0  0  0  0  0  0  0  0  0  0  0  0
   57.7700   31.8082   45.2219 H   0  0  0  0  0  0  0  0  0  0  0  0
   56.6213   32.0989   43.8718 H   0  0  0  0  0  0  0  0  0  0  0  0
   58.2288   32.9006   43.8718 H   0  0  0  0  0  0  0  0  0  0  0  0
   58.3792   32.8088   48.9388 H   0  0  0  0  0  0  0  0  0  0  0  0
  1  2  1  0
  2  3  1  0
  3  4  1  0
  4  5  1  0
  5  6  1  0
  6  7  1  0
  7  8  2  0
  8  9  1  0
  9 10  2  0
 10 11  1  0
 11 12  2  0
 12 13  1  0
 13 14  2  0
 14 15  1  0
 14 16  1  0
 16 17  2  0
 17 18  1  0
 18 19  2  0
 19 20  1  0
 20 21  1  0
 21 22  1  0
 19 23  1  0
 23 24  2  0
 24  7  1  0
 13  8  1  0
 24 16  1  0
  1 25  1  0
  1 26  1  0
  1 27  1  0
  2 28  1  0
  2 29  1  0
  3 30  1  0
  4 31  1  0
  4 32  1  0
  5 33  1  0
  5 34  1  0
  6 35  1  0
  6 36  1  0
  9 37  1  0
 10 38  1  0
 11 39  1  0
 12 40  1  0
 15 41  1  0
 15 42  1  0
 15 43  1  0
 17 44  1  0
 18 45  1  0
 20 46  1  0
 21 47  1  0
 21 48  1  0
 22 49  1  0
 22 50  1  0
 22 51  1  0
 23 52  1  0
M  CHG  2   6   1  14   1
M  END
>  <UniqueID>  (9) 
9

>  <SMILES>  (9) 
CCNCC[NH2+]c1c2ccccc2[n+](C)c2ccc(NCC)cc12

>  <Energy>  (9) 
73.54784677181524

>  <Genealogy>  (9) 
CCNCC[NH2+]c1c2ccccc2[n+](C)c2ccc(NCC)cc12 (protonated)
CCNCC[NH2+]c1c2ccccc2[n+](C)c2ccc(NCC)cc12 (3D coordinates assigned)
CCNCC[NH2+]c1c2ccccc2[n+](C)c2ccc(NCC)cc12 (optimized conformer: 73.54784677181524 kcal/mol)

>  <smiles>  (9) 
CCNCCNc1c2ccccc2[n+](C)c2ccc(NCC)cc12

>  <score_type>  (9) 
oracle

>  <origin>  (9) 
adg

>  <m_score__min__energy>  (9) 
-3.96

>  <m_primary>  (9) 
energy

$$$$
10:0
     RDKit          3D

 70 74  0  0  0  0  0  0  0  0999 V2000
   63.2290   32.3310   47.1930 C   0  0  0  0  0  0  0  0  0  0  0  0
   62.2450   31.2240   47.5850 C   0  0  0  0  0  0  0  0  0  0  0  0
   61.8930   31.2790   49.0120 N   0  0  0  0  0  0  0  0  0  0  0  0
   61.4690   29.9710   49.5560 C   0  0  0  0  0  0  0  0  0  0  0  0
   60.1260   30.0420   50.3110 C   0  0  0  0  0  0  0  0  0  0  0  0
   58.9040   30.2430   49.4020 C   0  0  0  0  0  0  0  0  0  0  0  0
   59.2460   30.9570   48.1670 N   0  0  0  0  0  0  0  0  0  0  0  0
   58.8670   30.4850   46.8610 C   0  0  0  0  0  0  0  0  0  0  0  0
   59.0330   29.1230   46.5340 C   0  0  0  0  0  0  0  0  0  0  0  0
   59.7680   28.2560   47.3740 C   0  0  0  0  0  0  0  0  0  0  0  0
   59.9290   26.9120   47.0470 C   0  0  0  0  0  0  0  0  0  0  0  0
   59.3910   26.4130   45.8690 C   0  0  0  0  0  0  0  0  0  0  0  0
   58.6970   27.2580   45.0020 C   0  0  0  0  0  0  0  0  0  0  0  0
   58.4980   28.6250   45.3200 C   0  0  0  0  0  0  0  0  0  0  0  0
   57.8400   29.4780   44.4600 N   0  0  0  0  0  0  0  0  0  0  0  0
   57.0280   28.9310   43.3510 C   0  0  0  0  0  0  0  0  0  0  0  0
   57.9550   30.8440   44.6250 C   0  0  0  0  0  0  0  0  0  0  0  0
   57.6420   31.7310   43.5680 C   0  0  0  0  0  0  0  0  0  0  0  0
   57.7680   33.1030   43.7210 C   0  0  0  0  0  0  0  0  0  0  0  0
   58.1650   33.6350   44.9360 C   0  0  0  0  0  0  0  0  0  0  0  0
   58.4340   32.8040   46.0390 C   0  0  0  0  0  0  0  0  0  0  0  0
   58.7230   33.3580   47.3030 O   0  0  0  0  0  0  0  0  0  0  0  0
   59.2940   34.6450   47.5730 C   0  0  0  0  0  0  0  0  0  0  0  0
   60.7150   34.5380   48.1450 C   0  0  0  0  0  0  0  0  0  0  0  0
   60.7220   34.0010   49.5050 N   0  0  0  0  0  0  0  0  0  0  0  0
   59.6370   33.6410   50.2370 C   0  0  0  0  0  0  0  0  0  0  0  0
   59.9680   33.2810   51.5000 N   0  0  0  0  0  0  0  0  0  0  0  0
   59.0470   32.9890   52.5920 C   0  0  0  0  0  0  0  0  0  0  0  0
   61.3050   33.4370   51.5630 C   0  0  0  0  0  0  0  0  0  0  0  0
   62.1510   33.2960   52.6640 C   0  0  0  0  0  0  0  0  0  0  0  0
   63.5140   33.5930   52.4830 C   0  0  0  0  0  0  0  0  0  0  0  0
   63.9910   34.0300   51.2260 C   0  0  0  0  0  0  0  0  0  0  0  0
   63.1100   34.1790   50.1390 C   0  0  0  0  0  0  0  0  0  0  0  0
   61.7650   33.8640   50.3480 C   0  0  0  0  0  0  0  0  0  0  0  0
   58.4180   31.3870   45.8600 C   0  0  0  0  0  0  0  0  0  0  0  0
   63.6408   32.7942   48.1018 H   0  0  0  0  0  0  0  0  0  0  0  0
   64.0476   31.9001   46.5979 H   0  0  0  0  0  0  0  0  0  0  0  0
   62.7051   33.0935   46.5979 H   0  0  0  0  0  0  0  0  0  0  0  0
   61.3277   31.3367   46.9884 H   0  0  0  0  0  0  0  0  0  0  0  0
   62.7291   30.2553   47.3918 H   0  0  0  0  0  0  0  0  0  0  0  0
   62.6960   31.6920   49.5410 H   0  0  0  0  0  0  0  0  0  0  0  0
   61.3659   29.2609   48.7223 H   0  0  0  0  0  0  0  0  0  0  0  0
   62.2358   29.6486   50.2758 H   0  0  0  0  0  0  0  0  0  0  0  0
   59.9922   29.1021   50.8665 H   0  0  0  0  0  0  0  0  0  0  0  0
   60.1790   30.9216   50.9695 H   0  0  0  0  0  0  0  0  0  0  0  0
   58.4915   29.2577   49.1394 H   0  0  0  0  0  0  0  0  0  0  0  0
   58.1693   30.8498   49.9516 H   0  0  0  0  0  0  0  0  0  0  0  0
   59.9210   31.7530   48.2250 H   0  0  0  0  0  0  0  0  0  0  0  0
   60.2186   28.6478   48.2978 H   0  0  0  0  0  0  0  0  0  0  0  0
   60.4834   26.2448   47.7234 H   0  0  0  0  0  0  0  0  0  0  0  0
   59.5119   25.3488   45.6181 H   0  0  0  0  0  0  0  0  0  0  0  0
   58.2986   26.8575   44.0581 H   0  0  0  0  0  0  0  0  0  0  0  0
   56.1819   28.3611   43.7625 H   0  0  0  0  0  0  0  0  0  0  0  0
   56.6473   29.7575   42.7329 H   0  0  0  0  0  0  0  0  0  0  0  0
   57.6509   28.2677   42.7329 H   0  0  0  0  0  0  0  0  0  0  0  0
   57.2924   31.3245   42.6075 H   0  0  0  0  0  0  0  0  0  0  0  0
   57.5519   33.7712   42.8743 H   0  0  0  0  0  0  0  0  0  0  0  0
   58.2718   34.7248   45.0406 H   0  0  0  0  0  0  0  0  0  0  0  0
   59.3312   35.2202   46.6361 H   0  0  0  0  0  0  0  0  0  0  0  0
   58.6636   35.1446   48.3233 H   0  0  0  0  0  0  0  0  0  0  0  0
   61.3084   33.8745   47.4987 H   0  0  0  0  0  0  0  0  0  0  0  0
   61.1435   35.5505   48.1786 H   0  0  0  0  0  0  0  0  0  0  0  0
   58.6077   33.6416   49.8491 H   0  0  0  0  0  0  0  0  0  0  0  0
   59.5558   33.1503   53.5538 H   0  0  0  0  0  0  0  0  0  0  0  0
   58.1738   33.6543   52.5230 H   0  0  0  0  0  0  0  0  0  0  0  0
   58.7166   31.9421   52.5230 H   0  0  0  0  0  0  0  0  0  0  0  0
   61.7654   32.9642   53.6393 H   0  0  0  0  0  0  0  0  0  0  0  0
   64.2133   33.4845   53.3251 H   0  0  0  0  0  0  0  0  0  0  0  0
   65.0598   34.2554   51.0966 H   0  0  0  0  0  0  0  0  0  0  0  0
   63.4674   34.5308   49.1600 H   0  0  0  0  0  0  0  0  0  0  0  0
  1  2  1  0
  2  3  1  0
  3  4  1  0
  4  5  1  0
  5  6  1  0
  6  7  1  0
  7  8  1  0
  8  9  2  0
  9 10  1  0
 10 11  2  0
 11 12  1  0
 12 13  2  0
 13 14  1  0
 14 15  2  0
 15 16  1  0
 15 17  1  0
 17 18  2  0
 18 19  1  0
 19 20  2  0
 20 21  1  0
 21 22  1  0
 22 23  1  0
 23 24  1  0
 24 25  1  0
 25 26  2  0
 26 27  1  0
 27 28  1  0
 27 29  1  0
 29 30  2  0
 30 31  1  0
 31 32  2  0
 32 33  1  0
 33 34  2  0
 21 35  2  0
 35  8  1  0
 14  9  1  0
 35 17  1  0
 34 25  1  0
 34 29  1  0
  1 36  1  0
  1 37  1  0
  1 38  1  0
  2 39  1  0
  2 40  1  0
  3 41  1  0
  4 42  1  0
  4 43  1  0
  5 44  1  0
  5 45  1  0
  6 46  1  0
  6 47  1  0
  7 48  1  0
 10 49  1  0
 11 50  1  0
 12 51  1  0
 13 52  1  0
 16 53  1  0
 16 54  1  0
 16 55  1  0
 18 56  1  0
 19 57  1  0
 20 58  1  0
 23 59  1  0
 23 60  1  0
 24 61  1  0
 24 62  1  0
 26 63  1  0
 28 64  1  0
 28 65  1  0
 28 66  1  0
 30 67  1  0
 31 68  1  0
 32 69  1  0
 33 70  1  0
M  CHG  2  15   1  25   1
M  END
>  <UniqueID>  (10) 
10

>  <SMILES>  (10) 
CCNCCCNc1c2ccccc2[n+](C)c2cccc(OCC[n+]3cn(C)c4ccccc43)c12

>  <Energy>  (10) 
138.8324454079984

>  <Genealogy>  (10) 
CCNCCCNc1c2ccccc2[n+](C)c2cccc(OCC[n+]3cn(C)c4ccccc43)c12 (3D coordinates assigned)
CCNCCCNc1c2ccccc2[n+](C)c2cccc(OCC[n+]3cn(C)c4ccccc43)c12 (optimized conformer: 138.8324454079984 kcal/mol)

>  <smiles>  (10) 
CCNCCCNc1c2ccccc2[n+](C)c2cccc(OCC[n+]3cn(C)c4ccccc43)c12

>  <score_type>  (10) 
oracle

>  <origin>  (10) 
adg

>  <m_score__min__energy>  (10) 
-5.54

>  <m_primary>  (10) 
energy

$$$$
11:0
     RDKit          3D

 55 58  0  0  0  0  0  0  0  0999 V2000
   57.1650   31.6070   51.6460 C   0  0  0  0  0  0  0  0  0  0  0  0
   58.4270   32.4480   51.7490 C   0  0  0  0  0  0  0  0  0  0  0  0
   59.3580   32.0310   50.7540 O   0  0  0  0  0  0  0  0  0  0  0  0
   59.1700   32.1850   49.3710 C   0  0  0  0  0  0  0  0  0  0  0  0
   59.2730   33.4340   48.7370 C   0  0  0  0  0  0  0  0  0  0  0  0
   59.0730   33.5570   47.3560 C   0  0  0  0  0  0  0  0  0  0  0  0
   58.6760   32.4330   46.5950 C   0  0  0  0  0  0  0  0  0  0  0  0
   58.6810   31.1700   47.2230 C   0  0  0  0  0  0  0  0  0  0  0  0
   58.8900   31.0460   48.6080 C   0  0  0  0  0  0  0  0  0  0  0  0
   58.8290   29.8060   49.2640 O   0  0  0  0  0  0  0  0  0  0  0  0
   59.8730   28.8360   49.2610 C   0  0  0  0  0  0  0  0  0  0  0  0
   59.6410   27.8470   48.1300 C   0  0  0  0  0  0  0  0  0  0  0  0
   58.4990   32.5540   45.0770 C   0  0  1  0  0  0  0  0  0  0  0  0
   57.4780   31.5700   44.4080 C   0  0  0  0  0  0  0  0  0  0  0  0
   57.6250   30.0850   44.6910 C   0  0  0  0  0  0  0  0  0  0  0  0
   58.8590   29.4040   44.5040 C   0  0  0  0  0  0  0  0  0  0  0  0
   58.9620   28.0220   44.7440 C   0  0  0  0  0  0  0  0  0  0  0  0
   57.8180   27.3440   45.1450 C   0  0  0  0  0  0  0  0  0  0  0  0
   56.6290   27.9740   45.3000 C   0  0  0  0  0  0  0  0  0  0  0  0
   56.4820   29.3390   45.0730 C   0  0  0  0  0  0  0  0  0  0  0  0
   55.6700   27.0600   45.6930 O   0  0  0  0  0  0  0  0  0  0  0  0
   56.3000   25.7750   45.7930 C   0  0  0  0  0  0  0  0  0  0  0  0
   57.6700   26.0010   45.4340 O   0  0  0  0  0  0  0  0  0  0  0  0
   58.3520   33.9670   44.6120 N   0  0  1  0  0  0  0  0  0  0  0  0
   57.0210   34.5660   44.8670 C   0  0  0  0  0  0  0  0  0  0  0  0
   59.4200   34.8060   45.1950 C   0  0  0  0  0  0  0  0  0  0  0  0
   59.2930   34.9050   46.7200 C   0  0  0  0  0  0  0  0  0  0  0  0
   56.8021   31.3652   52.6559 H   0  0  0  0  0  0  0  0  0  0  0  0
   56.3918   32.1710   51.1038 H   0  0  0  0  0  0  0  0  0  0  0  0
   57.3879   30.6762   51.1038 H   0  0  0  0  0  0  0  0  0  0  0  0
   58.1752   33.5076   51.5945 H   0  0  0  0  0  0  0  0  0  0  0  0
   58.8734   32.3189   52.7460 H   0  0  0  0  0  0  0  0  0  0  0  0
   59.5138   34.3270   49.3325 H   0  0  0  0  0  0  0  0  0  0  0  0
   58.5185   30.2656   46.6183 H   0  0  0  0  0  0  0  0  0  0  0  0
   60.8405   29.3388   49.1160 H   0  0  0  0  0  0  0  0  0  0  0  0
   59.8792   28.3003   50.2217 H   0  0  0  0  0  0  0  0  0  0  0  0
   59.4088   26.8573   48.5502 H   0  0  0  0  0  0  0  0  0  0  0  0
   58.7987   28.1892   47.5107 H   0  0  0  0  0  0  0  0  0  0  0  0
   60.5476   27.7789   47.5107 H   0  0  0  0  0  0  0  0  0  0  0  0
   59.4637   32.1908   44.6930 H   0  0  0  0  0  0  0  0  0  0  0  0
   56.4723   31.8677   44.7396 H   0  0  0  0  0  0  0  0  0  0  0  0
   57.6741   31.6637   43.3297 H   0  0  0  0  0  0  0  0  0  0  0  0
   59.7436   29.9646   44.1676 H   0  0  0  0  0  0  0  0  0  0  0  0
   59.9190   27.4944   44.6180 H   0  0  0  0  0  0  0  0  0  0  0  0
   55.5028   29.8270   45.1872 H   0  0  0  0  0  0  0  0  0  0  0  0
   56.2288   25.3890   46.8206 H   0  0  0  0  0  0  0  0  0  0  0  0
   55.8210   25.0295   45.1412 H   0  0  0  0  0  0  0  0  0  0  0  0
   58.4990   33.9780   43.5750 H   0  0  0  0  0  0  0  0  0  0  0  0
   56.8544   34.6410   45.9517 H   0  0  0  0  0  0  0  0  0  0  0  0
   56.9788   35.5699   44.4193 H   0  0  0  0  0  0  0  0  0  0  0  0
   56.2416   33.9318   44.4193 H   0  0  0  0  0  0  0  0  0  0  0  0
   60.3963   34.3644   44.9463 H   0  0  0  0  0  0  0  0  0  0  0  0
   59.3280   35.8190   44.7763 H   0  0  0  0  0  0  0  0  0  0  0  0
   60.2170   35.3427   47.1258 H   0  0  0  0  0  0  0  0  0  0  0  0
   58.4209   35.5352   46.9484 H   0  0  0  0  0  0  0  0  0  0  0  0
  1  2  1  0
  2  3  1  0
  3  4  1  0
  4  5  2  0
  5  6  1  0
  6  7  2  0
  7  8  1  0
  8  9  2  0
  9 10  1  0
 10 11  1  0
 11 12  1  0
  7 13  1  0
 13 14  1  0
 14 15  1  0
 15 16  2  0
 16 17  1  0
 17 18  2  0
 18 19  1  0
 19 20  2  0
 19 21  1  0
 21 22  1  0
 22 23  1  0
 13 24  1  0
 24 25  1  0
 24 26  1  0
 26 27  1  0
  9  4  1  0
 20 15  1  0
 27  6  1  0
 23 18  1  0
  1 28  1  0
  1 29  1  0
  1 30  1  0
  2 31  1  0
  2 32  1  0
  5 33  1  0
  8 34  1  0
 11 35  1  0
 11 36  1  0
 12 37  1  0
 12 38  1  0
 12 39  1  0
 13 40  1  6
 14 41  1  0
 14 42  1  0
 16 43  1  0
 17 44  1  0
 20 45  1  0
 22 46  1  0
 22 47  1  0
 24 48  1  6
 25 49  1  0
 25 50  1  0
 25 51  1  0
 26 52  1  0
 26 53  1  0
 27 54  1  0
 27 55  1  0
M  CHG  1  24   1
M  END
>  <UniqueID>  (11) 
11

>  <SMILES>  (11) 
CCOc1cc2c(cc1OCC)[C@@H](Cc1ccc3c(c1)OCO3)[N@@H+](C)CC2

>  <Energy>  (11) 
95.57749942054103

>  <Genealogy>  (11) 
CCOc1cc2c(cc1OCC)C(Cc1ccc3c(c1)OCO3)[NH+](C)CC2 (protonated)
CCOc1cc2c(cc1OCC)[C@@H](Cc1ccc3c(c1)OCO3)[N@@H+](C)CC2 (chirality)
CCOc1cc2c(cc1OCC)[C@@H](Cc1ccc3c(c1)OCO3)[N@@H+](C)CC2 (3D coordinates assigned)
CCOc1cc2c(cc1OCC)[C@@H](Cc1ccc3c(c1)OCO3)[N@@H+](C)CC2 (nonaromatic ring conformer: 95.57749942054103 kcal/mol)

>  <smiles>  (11) 
CCOc1cc2c(cc1OCC)C(Cc1ccc3c(c1)OCO3)N(C)CC2

>  <score_type>  (11) 
oracle

>  <origin>  (11) 
adg

>  <m_score__min__energy>  (11) 
-6.3399999999999999

>  <m_primary>  (11) 
energy

$$$$
12:0
     RDKit          3D

 26 26  0  0  0  0  0  0  0  0999 V2000
   55.0511   29.8436   43.3501 H   0  0  0  0  0  0  0  0  0  0  0  0
   55.8160   29.8140   44.1400 C   0  0  0  0  0  0  0  0  0  0  0  0
   56.5340   30.8720   44.3550 N   0  0  0  0  0  0  0  0  0  0  0  0
   57.0620   31.1690   45.5940 O   0  0  0  0  0  0  0  0  0  0  0  0
   58.0510   32.1760   45.7410 C   0  0  0  0  0  0  0  0  0  0  0  0
   58.7709   32.1001   44.9128 H   0  0  0  0  0  0  0  0  0  0  0  0
   58.5642   32.0332   46.7034 H   0  0  0  0  0  0  0  0  0  0  0  0
   57.4110   33.5580   45.7240 C   0  0  0  0  0  0  0  0  0  0  0  0
   57.2521   33.9012   46.7569 H   0  0  0  0  0  0  0  0  0  0  0  0
   58.0744   34.2629   45.2014 H   0  0  0  0  0  0  0  0  0  0  0  0
   56.4444   33.5080   45.2014 H   0  0  0  0  0  0  0  0  0  0  0  0
   55.9840   28.6040   44.8970 N   0  0  0  0  0  0  0  0  0  0  0  0
   55.1430   27.9980   45.0190 H   0  0  0  0  0  0  0  0  0  0  0  0
   57.2580   28.0810   45.3100 C   0  0  0  0  0  0  0  0  0  0  0  0
   58.4420   28.7350   44.9190 C   0  0  0  0  0  0  0  0  0  0  0  0
   58.3830   29.6791   44.3575 H   0  0  0  0  0  0  0  0  0  0  0  0
   59.6890   28.1970   45.2370 C   0  0  0  0  0  0  0  0  0  0  0  0
   60.6071   28.7232   44.9368 H   0  0  0  0  0  0  0  0  0  0  0  0
   59.7730   26.9930   45.9350 C   0  0  0  0  0  0  0  0  0  0  0  0
   60.7574   26.5673   46.1795 H   0  0  0  0  0  0  0  0  0  0  0  0
   58.6090   26.3270   46.3240 C   0  0  0  0  0  0  0  0  0  0  0  0
   58.6832   25.3747   46.8696 H   0  0  0  0  0  0  0  0  0  0  0  0
   57.3410   26.8620   46.0250 C   0  0  0  0  0  0  0  0  0  0  0  0
   56.1580   26.1810   46.4830 N   0  0  0  0  0  0  0  0  0  0  0  0
   55.0430   26.4600   45.9950 O   0  0  0  0  0  0  0  0  0  0  0  0
   56.2520   25.1140   47.3460 O   0  0  0  0  0  0  0  0  0  0  0  0
  1  2  1  0
  2  3  2  0
  3  4  1  0
  4  5  1  0
  5  6  1  0
  5  7  1  0
  5  8  1  0
  8  9  1  0
  8 10  1  0
  8 11  1  0
  2 12  1  0
 12 13  1  0
 12 14  1  0
 14 15  2  0
 15 16  1  0
 15 17  1  0
 17 18  1  0
 17 19  2  0
 19 20  1  0
 19 21  1  0
 21 22  1  0
 21 23  2  0
 23 24  1  0
 24 25  2  0
 24 26  1  0
 23 14  1  0
M  CHG  2  24   1  26  -1
M  END
>  <UniqueID>  (12) 
12

>  <SMILES>  (12) 
CCO/N=C\Nc1ccccc1[N+](=O)[O-]

>  <Energy>  (12) 
28.29408642214657

>  <Genealogy>  (12) 
CCO/N=C\Nc1ccccc1[N+](=O)[O-] (cis-trans isomerization)
CCO/N=C\Nc1ccccc1[N+](=O)[O-] (3D coordinates assigned)
CCO/N=C\Nc1ccccc1[N+](=O)[O-] (optimized conformer: 28.29408642214657 kcal/mol)

>  <smiles>  (12) 
CCON=CNc1ccccc1[N+](=O)[O-]

>  <score_type>  (12) 
oracle

>  <origin>  (12) 
adg

>  <m_score__min__energy>  (12) 
-7.1799999999999997

>  <m_primary>  (12) 
energy

$$$$
13:0
     RDKit          3D

 87 90  0  0  0  0  0  0  0  0999 V2000
   60.7720   32.4900   54.4240 C   0  0  0  0  0  0  0  0  0  0  0  0
   59.5230   31.6290   54.5590 C   0  0  0  0  0  0  0  0  0  0  0  0
   59.4290   30.7000   53.4280 N   0  0  0  0  0  0  0  0  0  0  0  0
   58.3830   29.6920   53.6450 C   0  0  0  0  0  0  0  0  0  0  0  0
   57.6540   29.3830   52.3280 C   0  0  0  0  0  0  0  0  0  0  0  0
   56.6280   30.4620   51.9860 C   0  0  0  0  0  0  0  0  0  0  0  0
   57.2900   31.6410   51.5540 O   0  0  0  0  0  0  0  0  0  0  0  0
   56.9860   32.7380   52.3960 C   0  0  0  0  0  0  0  0  0  0  0  0
   58.1370   33.7560   52.4620 C   0  0  0  0  0  0  0  0  0  0  0  0
   59.2880   33.2580   51.8040 O   0  0  0  0  0  0  0  0  0  0  0  0
   59.7180   34.1600   50.8030 C   0  0  0  0  0  0  0  0  0  0  0  0
   59.3070   33.6430   49.4240 C   0  0  0  0  0  0  0  0  0  0  0  0
   58.6390   32.3280   49.5120 N   0  0  0  0  0  0  0  0  0  0  0  0
   59.0180   31.4730   48.3950 C   0  0  0  0  0  0  0  0  0  0  0  0
   58.6100   31.8270   47.0770 C   0  0  0  0  0  0  0  0  0  0  0  0
   57.9830   33.0720   46.7990 C   0  0  0  0  0  0  0  0  0  0  0  0
   57.5240   33.3820   45.5220 C   0  0  0  0  0  0  0  0  0  0  0  0
   57.6690   32.4680   44.4910 C   0  0  0  0  0  0  0  0  0  0  0  0
   58.3000   31.2490   44.7240 C   0  0  0  0  0  0  0  0  0  0  0  0
   58.8220   30.9190   46.0040 C   0  0  0  0  0  0  0  0  0  0  0  0
   59.4980   29.7380   46.2150 N   0  0  0  0  0  0  0  0  0  0  0  0
   59.9600   28.9390   45.0540 C   0  0  0  0  0  0  0  0  0  0  0  0
   59.7920   29.3200   47.4960 C   0  0  0  0  0  0  0  0  0  0  0  0
   60.1990   27.9880   47.7410 C   0  0  0  0  0  0  0  0  0  0  0  0
   60.6320   27.5870   48.9920 C   0  0  0  0  0  0  0  0  0  0  0  0
   60.6950   28.4970   50.0310 C   0  0  0  0  0  0  0  0  0  0  0  0
   60.2550   29.8200   49.8560 C   0  0  0  0  0  0  0  0  0  0  0  0
   60.4130   30.7470   50.9000 O   0  0  0  0  0  0  0  0  0  0  0  0
   61.6450   31.2860   51.3860 C   0  0  0  0  0  0  0  0  0  0  0  0
   62.8070   30.8770   50.4470 C   0  0  0  0  0  0  0  0  0  0  0  0
   63.3520   31.9690   49.5740 N   0  0  0  0  0  0  0  0  0  0  0  0
   64.8320   32.0210   49.7430 C   0  0  0  0  0  0  0  0  0  0  0  0
   63.0350   31.5900   48.1610 C   0  0  0  0  0  0  0  0  0  0  0  0
   63.4900   32.6310   47.1120 C   0  0  0  0  0  0  0  0  0  0  0  0
   63.3770   34.0810   47.6070 C   0  0  0  0  0  0  0  0  0  0  0  0
   62.3670   34.2040   48.7380 C   0  0  0  0  0  0  0  0  0  0  0  0
   62.7190   33.2880   49.9330 C   0  0  0  0  0  0  0  0  0  0  0  0
   59.6830   30.2200   48.6010 C   0  0  0  0  0  0  0  0  0  0  0  0
   61.1484   32.7495   55.4245 H   0  0  0  0  0  0  0  0  0  0  0  0
   61.5446   31.9317   53.8750 H   0  0  0  0  0  0  0  0  0  0  0  0
   60.5251   33.4107   53.8750 H   0  0  0  0  0  0  0  0  0  0  0  0
   59.5748   31.0568   55.4970 H   0  0  0  0  0  0  0  0  0  0  0  0
   58.6357   32.2791   54.5668 H   0  0  0  0  0  0  0  0  0  0  0  0
   59.1620   31.2570   52.5820 H   0  0  0  0  0  0  0  0  0  0  0  0
   58.8429   28.7697   54.0295 H   0  0  0  0  0  0  0  0  0  0  0  0
   57.6558   30.0837   54.3715 H   0  0  0  0  0  0  0  0  0  0  0  0
   58.3937   29.3237   51.5160 H   0  0  0  0  0  0  0  0  0  0  0  0
   57.1219   28.4275   52.4455 H   0  0  0  0  0  0  0  0  0  0  0  0
   55.9705   30.0981   51.1827 H   0  0  0  0  0  0  0  0  0  0  0  0
   56.0313   30.6901   52.8815 H   0  0  0  0  0  0  0  0  0  0  0  0
   56.0882   33.2429   52.0098 H   0  0  0  0  0  0  0  0  0  0  0  0
   56.8208   32.3487   53.4115 H   0  0  0  0  0  0  0  0  0  0  0  0
   57.8200   34.6906   51.9761 H   0  0  0  0  0  0  0  0  0  0  0  0
   58.3860   33.9383   53.5178 H   0  0  0  0  0  0  0  0  0  0  0  0
   59.2567   35.1435   50.9760 H   0  0  0  0  0  0  0  0  0  0  0  0
   60.8135   34.2503   50.8438 H   0  0  0  0  0  0  0  0  0  0  0  0
   58.6156   34.3644   48.9640 H   0  0  0  0  0  0  0  0  0  0  0  0
   60.2161   33.5266   48.8157 H   0  0  0  0  0  0  0  0  0  0  0  0
   57.6010   32.4470   49.5380 H   0  0  0  0  0  0  0  0  0  0  0  0
   58.8170   31.8670   50.4280 H   0  0  0  0  0  0  0  0  0  0  0  0
   57.8580   33.8053   47.6094 H   0  0  0  0  0  0  0  0  0  0  0  0
   57.0455   34.3539   45.3312 H   0  0  0  0  0  0  0  0  0  0  0  0
   57.2854   32.7055   43.4878 H   0  0  0  0  0  0  0  0  0  0  0  0
   58.3965   30.5264   43.9003 H   0  0  0  0  0  0  0  0  0  0  0  0
   60.4806   28.0387   45.4124 H   0  0  0  0  0  0  0  0  0  0  0  0
   59.0935   28.6433   44.4443 H   0  0  0  0  0  0  0  0  0  0  0  0
   60.6486   29.5424   44.4443 H   0  0  0  0  0  0  0  0  0  0  0  0
   60.1707   27.2562   46.9203 H   0  0  0  0  0  0  0  0  0  0  0  0
   60.9271   26.5409   49.1608 H   0  0  0  0  0  0  0  0  0  0  0  0
   61.0943   28.1816   51.0062 H   0  0  0  0  0  0  0  0  0  0  0  0
   61.5741   32.3831   51.4218 H   0  0  0  0  0  0  0  0  0  0  0  0
   61.8392   30.8925   52.3947 H   0  0  0  0  0  0  0  0  0  0  0  0
   63.6304   30.5010   51.0720 H   0  0  0  0  0  0  0  0  0  0  0  0
   62.3887   30.1252   49.7616 H   0  0  0  0  0  0  0  0  0  0  0  0
   65.0786   32.0297   50.8150 H   0  0  0  0  0  0  0  0  0  0  0  0
   65.2864   31.1383   49.2694 H   0  0  0  0  0  0  0  0  0  0  0  0
   65.2233   32.9334   49.2694 H   0  0  0  0  0  0  0  0  0  0  0  0
   63.5337   30.6350   47.9391 H   0  0  0  0  0  0  0  0  0  0  0  0
   61.9394   31.5235   48.0881 H   0  0  0  0  0  0  0  0  0  0  0  0
   64.5405   32.4308   46.8542 H   0  0  0  0  0  0  0  0  0  0  0  0
   62.8237   32.5304   46.2425 H   0  0  0  0  0  0  0  0  0  0  0  0
   64.3613   34.4136   47.9683 H   0  0  0  0  0  0  0  0  0  0  0  0
   63.0368   34.7074   46.7692 H   0  0  0  0  0  0  0  0  0  0  0  0
   62.3477   35.2478   49.0846 H   0  0  0  0  0  0  0  0  0  0  0  0
   61.3850   33.8943   48.3510 H   0  0  0  0  0  0  0  0  0  0  0  0
   63.4181   33.8335   50.5839 H   0  0  0  0  0  0  0  0  0  0  0  0
   61.7625   33.0423   50.4175 H   0  0  0  0  0  0  0  0  0  0  0  0
  1  2  1  0
  2  3  1  0
  3  4  1  0
  4  5  1  0
  5  6  1  0
  6  7  1  0
  7  8  1  0
  8  9  1  0
  9 10  1  0
 10 11  1  0
 11 12  1  0
 12 13  1  0
 13 14  1  0
 14 15  2  0
 15 16  1  0
 16 17  2  0
 17 18  1  0
 18 19  2  0
 19 20  1  0
 20 21  2  0
 21 22  1  0
 21 23  1  0
 23 24  2  0
 24 25  1  0
 25 26  2  0
 26 27  1  0
 27 28  1  0
 28 29  1  0
 29 30  1  0
 30 31  1  0
 31 32  1  0
 31 33  1  0
 33 34  1  0
 34 35  1  0
 35 36  1  0
 36 37  1  0
 27 38  2  0
 38 14  1  0
 20 15  1  0
 38 23  1  0
 37 31  1  0
  1 39  1  0
  1 40  1  0
  1 41  1  0
  2 42  1  0
  2 43  1  0
  3 44  1  0
  4 45  1  0
  4 46  1  0
  5 47  1  0
  5 48  1  0
  6 49  1  0
  6 50  1  0
  8 51  1  0
  8 52  1  0
  9 53  1  0
  9 54  1  0
 11 55  1  0
 11 56  1  0
 12 57  1  0
 12 58  1  0
 13 59  1  0
 13 60  1  0
 16 61  1  0
 17 62  1  0
 18 63  1  0
 19 64  1  0
 22 65  1  0
 22 66  1  0
 22 67  1  0
 24 68  1  0
 25 69  1  0
 26 70  1  0
 29 71  1  0
 29 72  1  0
 30 73  1  0
 30 74  1  0
 32 75  1  0
 32 76  1  0
 32 77  1  0
 33 78  1  0
 33 79  1  0
 34 80  1  0
 34 81  1  0
 35 82  1  0
 35 83  1  0
 36 84  1  0
 36 85  1  0
 37 86  1  0
 37 87  1  0
M  CHG  3  13   1  21   1  31   1
M  END
>  <UniqueID>  (13) 
13

>  <SMILES>  (13) 
CCNCCCOCCOCC[NH2+]c1c2ccccc2[n+](C)c2cccc(OCC[N+]3(C)CCCCC3)c12

>  <Energy>  (13) 
135.8908190399629

>  <Genealogy>  (13) 
CCNCCCOCCOCC[NH2+]c1c2ccccc2[n+](C)c2cccc(OCC[N+]3(C)CCCCC3)c12 (protonated)
CCNCCCOCCOCC[NH2+]c1c2ccccc2[n+](C)c2cccc(OCC[N+]3(C)CCCCC3)c12 (3D coordinates assigned)
CCNCCCOCCOCC[NH2+]c1c2ccccc2[n+](C)c2cccc(OCC[N+]3(C)CCCCC3)c12 (nonaromatic ring conformer: 135.8908190399629 kcal/mol)

>  <smiles>  (13) 
CCNCCCOCCOCCNc1c2ccccc2[n+](C)c2cccc(OCC[N+]3(C)CCCCC3)c12

>  <score_type>  (13) 
oracle

>  <origin>  (13) 
adg

>  <m_score__min__energy>  (13) 
-5.0300000000000002

>  <m_primary>  (13) 
energy

$$$$
14:0
     RDKit          3D

 49 52  0  0  0  0  0  0  0  0999 V2000
   57.8050   32.3660   42.0720 C   0  0  0  0  0  0  0  0  0  0  0  0
   57.8040   32.1040   43.5120 N   0  0  0  0  0  0  0  0  0  0  0  0
   57.2810   31.0300   44.1660 C   0  0  0  0  0  0  0  0  0  0  0  0
   56.6580   29.8370   43.4960 C   0  0  0  0  0  0  0  0  0  0  0  0
   57.2380   28.5880   44.0270 N   0  0  0  0  0  0  0  0  0  0  0  0
   56.6260   28.2180   45.3190 C   0  0  0  0  0  0  0  0  0  0  0  0
   57.0570   26.7980   45.7350 C   0  0  0  0  0  0  0  0  0  0  0  0
   58.3960   26.3840   45.1040 C   0  0  0  0  0  0  0  0  0  0  0  0
   59.3400   27.5810   44.9890 C   0  0  0  0  0  0  0  0  0  0  0  0
   58.7070   28.7290   44.1690 C   0  0  0  0  0  0  0  0  0  0  0  0
   57.3850   31.1200   45.5180 N   0  0  0  0  0  0  0  0  0  0  0  0
   57.9790   32.3120   45.6990 C   0  0  0  0  0  0  0  0  0  0  0  0
   58.3100   32.9160   46.9090 C   0  0  0  0  0  0  0  0  0  0  0  0
   58.9000   34.1950   46.8740 C   0  0  0  0  0  0  0  0  0  0  0  0
   59.2570   34.8240   48.1130 N   0  0  0  0  0  0  0  0  0  0  0  0
   60.1110   34.2720   49.1250 C   0  0  0  0  0  0  0  0  0  0  0  0
   59.6730   34.1880   50.3030 O   0  0  0  0  0  0  0  0  0  0  0  0
   61.5030   33.8530   48.8370 C   0  0  0  0  0  0  0  0  0  0  0  0
   62.4620   33.7800   49.8640 C   0  0  0  0  0  0  0  0  0  0  0  0
   63.7730   33.3810   49.5810 C   0  0  0  0  0  0  0  0  0  0  0  0
   64.1350   33.0410   48.2760 C   0  0  0  0  0  0  0  0  0  0  0  0
   63.1870   33.0940   47.2510 C   0  0  0  0  0  0  0  0  0  0  0  0
   61.8760   33.4940   47.5290 C   0  0  0  0  0  0  0  0  0  0  0  0
   59.1690   34.8130   45.6220 C   0  0  0  0  0  0  0  0  0  0  0  0
   58.8210   34.1750   44.4180 C   0  0  0  0  0  0  0  0  0  0  0  0
   58.2240   32.9150   44.4990 C   0  0  0  0  0  0  0  0  0  0  0  0
   57.8091   33.4520   41.8969 H   0  0  0  0  0  0  0  0  0  0  0  0
   58.7014   31.9180   41.6184 H   0  0  0  0  0  0  0  0  0  0  0  0
   56.9052   31.9249   41.6184 H   0  0  0  0  0  0  0  0  0  0  0  0
   55.5740   29.8414   43.6827 H   0  0  0  0  0  0  0  0  0  0  0  0
   56.8554   29.8910   42.4152 H   0  0  0  0  0  0  0  0  0  0  0  0
   56.9474   28.9340   46.0898 H   0  0  0  0  0  0  0  0  0  0  0  0
   55.5314   28.2401   45.2128 H   0  0  0  0  0  0  0  0  0  0  0  0
   57.1574   26.7658   46.8299 H   0  0  0  0  0  0  0  0  0  0  0  0
   56.2877   26.0964   45.3802 H   0  0  0  0  0  0  0  0  0  0  0  0
   58.8668   25.6134   45.7321 H   0  0  0  0  0  0  0  0  0  0  0  0
   58.2018   25.9922   44.0947 H   0  0  0  0  0  0  0  0  0  0  0  0
   59.5731   27.9500   45.9987 H   0  0  0  0  0  0  0  0  0  0  0  0
   60.2524   27.2508   44.4708 H   0  0  0  0  0  0  0  0  0  0  0  0
   58.9219   29.6823   44.6741 H   0  0  0  0  0  0  0  0  0  0  0  0
   59.1431   28.6961   43.1597 H   0  0  0  0  0  0  0  0  0  0  0  0
   58.1163   32.4088   47.8657 H   0  0  0  0  0  0  0  0  0  0  0  0
   62.1795   34.0381   50.8953 H   0  0  0  0  0  0  0  0  0  0  0  0
   64.5194   33.3351   50.3877 H   0  0  0  0  0  0  0  0  0  0  0  0
   65.1671   32.7313   48.0548 H   0  0  0  0  0  0  0  0  0  0  0  0
   63.4721   32.8208   46.2243 H   0  0  0  0  0  0  0  0  0  0  0  0
   61.1318   33.5281   46.7197 H   0  0  0  0  0  0  0  0  0  0  0  0
   59.6541   35.7999   45.5949 H   0  0  0  0  0  0  0  0  0  0  0  0
   59.0125   34.6521   43.4455 H   0  0  0  0  0  0  0  0  0  0  0  0
  1  2  1  0
  2  3  1  0
  3  4  1  0
  4  5  1  0
  5  6  1  0
  6  7  1  0
  7  8  1  0
  8  9  1  0
  9 10  1  0
  3 11  2  0
 11 12  1  0
 12 13  2  0
 13 14  1  0
 14 15  1  0
 15 16  1  0
 16 17  2  0
 16 18  1  0
 18 19  2  0
 19 20  1  0
 20 21  2  0
 21 22  1  0
 22 23  2  0
 14 24  2  0
 24 25  1  0
 25 26  2  0
 26  2  1  0
 10  5  1  0
 26 12  1  0
 23 18  1  0
  1 27  1  0
  1 28  1  0
  1 29  1  0
  4 30  1  0
  4 31  1  0
  6 32  1  0
  6 33  1  0
  7 34  1  0
  7 35  1  0
  8 36  1  0
  8 37  1  0
  9 38  1  0
  9 39  1  0
 10 40  1  0
 10 41  1  0
 13 42  1  0
 19 43  1  0
 20 44  1  0
 21 45  1  0
 22 46  1  0
 23 47  1  0
 24 48  1  0
 25 49  1  0
M  CHG  1  15  -1
M  END
>  <UniqueID>  (14) 
14

>  <SMILES>  (14) 
Cn1c(CN2CCCCC2)nc2cc([N-]C(=O)c3ccccc3)ccc21

>  <Energy>  (14) 
100.43675266704813

>  <Genealogy>  (14) 
Cn1c(CN2CCCCC2)nc2cc([N-]C(=O)c3ccccc3)ccc21 (protonated)
Cn1c(CN2CCCCC2)nc2cc([N-]C(=O)c3ccccc3)ccc21 (3D coordinates assigned)
Cn1c(CN2CCCCC2)nc2cc([N-]C(=O)c3ccccc3)ccc21 (nonaromatic ring conformer: 100.43675266704813 kcal/mol)

>  <smiles>  (14) 
Cn1c(CN2CCCCC2)nc2cc(NC(=O)c3ccccc3)ccc21

>  <score_type>  (14) 
oracle

>  <origin>  (14) 
adg

>  <m_score__min__energy>  (14) 
-10.33

>  <m_primary>  (14) 
energy

$$$$
15:0
     RDKit          3D

 60 62  0  0  0  0  0  0  0  0999 V2000
   62.5598   34.2615   47.7757 H   0  0  0  0  0  0  0  0  0  0  0  0
   61.6110   33.7490   47.9930 C   0  0  0  0  0  0  0  0  0  0  0  0
   61.6250   32.4630   48.1090 N   0  0  0  0  0  0  0  0  0  0  0  0
   62.6250   31.5940   47.5290 C   0  0  0  0  0  0  0  0  0  0  0  0
   63.1925   31.1009   48.3320 H   0  0  0  0  0  0  0  0  0  0  0  0
   62.1324   30.8322   46.9069 H   0  0  0  0  0  0  0  0  0  0  0  0
   63.3107   32.1880   46.9069 H   0  0  0  0  0  0  0  0  0  0  0  0
   60.3660   34.5870   48.1390 C   0  0  0  0  0  0  0  0  0  0  0  0
   60.2676   35.2459   47.2637 H   0  0  0  0  0  0  0  0  0  0  0  0
   60.4455   35.1882   49.0568 H   0  0  0  0  0  0  0  0  0  0  0  0
   59.1840   33.7300   48.2330 N   0  0  0  0  0  0  0  0  0  0  0  0
   58.9180   33.3390   49.1640 H   0  0  0  0  0  0  0  0  0  0  0  0
   58.4810   33.2510   47.0710 C   0  0  0  0  0  0  0  0  0  0  0  0
   57.8620   34.1880   46.2320 C   0  0  0  0  0  0  0  0  0  0  0  0
   57.7670   35.2335   46.5606 H   0  0  0  0  0  0  0  0  0  0  0  0
   57.3680   33.8110   44.9920 C   0  0  0  0  0  0  0  0  0  0  0  0
   56.8832   34.5574   44.3455 H   0  0  0  0  0  0  0  0  0  0  0  0
   57.4830   32.4940   44.5630 C   0  0  0  0  0  0  0  0  0  0  0  0
   57.1321   32.2217   43.5567 H   0  0  0  0  0  0  0  0  0  0  0  0
   58.0440   31.4950   45.3980 C   0  0  0  0  0  0  0  0  0  0  0  0
   58.5280   31.8780   46.6830 C   0  0  0  0  0  0  0  0  0  0  0  0
   59.0440   30.8700   47.5320 C   0  0  0  0  0  0  0  0  0  0  0  0
   59.2050   31.0970   48.9420 N   0  0  0  0  0  0  0  0  0  0  0  0
   59.8470   31.8530   49.2690 H   0  0  0  0  0  0  0  0  0  0  0  0
   58.5870   30.2190   49.9390 C   0  0  0  0  0  0  0  0  0  0  0  0
   59.3748   29.6432   50.4467 H   0  0  0  0  0  0  0  0  0  0  0  0
   57.8852   29.5476   49.4225 H   0  0  0  0  0  0  0  0  0  0  0  0
   57.8060   31.0240   50.9830 C   0  0  0  0  0  0  0  0  0  0  0  0
   58.1866   30.7781   51.9854 H   0  0  0  0  0  0  0  0  0  0  0  0
   56.7404   30.7638   50.9011 H   0  0  0  0  0  0  0  0  0  0  0  0
   57.9490   32.4130   50.7620 O   0  0  0  0  0  0  0  0  0  0  0  0
   58.1760   33.0950   51.9780 C   0  0  0  0  0  0  0  0  0  0  0  0
   58.1985   32.3729   52.8075 H   0  0  0  0  0  0  0  0  0  0  0  0
   57.3685   33.8209   52.1539 H   0  0  0  0  0  0  0  0  0  0  0  0
   59.5130   33.8210   51.8960 C   0  0  0  0  0  0  0  0  0  0  0  0
   60.0486   33.7152   52.8509 H   0  0  0  0  0  0  0  0  0  0  0  0
   59.3429   34.8885   51.6921 H   0  0  0  0  0  0  0  0  0  0  0  0
   60.2840   33.2550   50.8560 O   0  0  0  0  0  0  0  0  0  0  0  0
   61.5480   32.8430   51.3430 C   0  0  0  0  0  0  0  0  0  0  0  0
   61.6179   33.0746   52.4161 H   0  0  0  0  0  0  0  0  0  0  0  0
   62.3376   33.3765   50.7935 H   0  0  0  0  0  0  0  0  0  0  0  0
   61.7230   31.3410   51.1380 C   0  0  0  0  0  0  0  0  0  0  0  0
   61.7812   30.8417   52.1164 H   0  0  0  0  0  0  0  0  0  0  0  0
   60.8649   30.9453   50.5749 H   0  0  0  0  0  0  0  0  0  0  0  0
   62.6491   31.1532   50.5749 H   0  0  0  0  0  0  0  0  0  0  0  0
   59.3380   29.6020   47.0010 C   0  0  0  0  0  0  0  0  0  0  0  0
   60.0430   28.6410   47.7590 C   0  0  0  0  0  0  0  0  0  0  0  0
   60.3411   28.8754   48.7916 H   0  0  0  0  0  0  0  0  0  0  0  0
   60.3650   27.4010   47.2150 C   0  0  0  0  0  0  0  0  0  0  0  0
   60.9072   26.6595   47.8201 H   0  0  0  0  0  0  0  0  0  0  0  0
   60.0020   27.0990   45.9080 C   0  0  0  0  0  0  0  0  0  0  0  0
   60.2791   26.1277   45.4723 H   0  0  0  0  0  0  0  0  0  0  0  0
   59.2880   28.0230   45.1480 C   0  0  0  0  0  0  0  0  0  0  0  0
   59.0119   27.7743   44.1127 H   0  0  0  0  0  0  0  0  0  0  0  0
   58.9110   29.2810   45.6890 C   0  0  0  0  0  0  0  0  0  0  0  0
   58.1380   30.1780   44.9780 N   0  0  0  0  0  0  0  0  0  0  0  0
   57.4040   29.7300   43.7720 C   0  0  0  0  0  0  0  0  0  0  0  0
   56.5015   29.1792   44.0756 H   0  0  0  0  0  0  0  0  0  0  0  0
   57.1148   30.6057   43.1724 H   0  0  0  0  0  0  0  0  0  0  0  0
   58.0506   29.0724   43.1724 H   0  0  0  0  0  0  0  0  0  0  0  0
  1  2  1  0
  2  3  2  0
  3  4  1  0
  4  5  1  0
  4  6  1  0
  4  7  1  0
  2  8  1  0
  8  9  1  0
  8 10  1  0
  8 11  1  0
 11 12  1  0
 11 13  1  0
 13 14  2  0
 14 15  1  0
 14 16  1  0
 16 17  1  0
 16 18  2  0
 18 19  1  0
 18 20  1  0
 20 21  2  0
 21 22  1  0
 22 23  1  0
 23 24  1  0
 23 25  1  0
 25 26  1  0
 25 27  1  0
 25 28  1  0
 28 29  1  0
 28 30  1  0
 28 31  1  0
 31 32  1  0
 32 33  1  0
 32 34  1  0
 32 35  1  0
 35 36  1  0
 35 37  1  0
 35 38  1  0
 38 39  1  0
 39 40  1  0
 39 41  1  0
 39 42  1  0
 42 43  1  0
 42 44  1  0
 42 45  1  0
 22 46  2  0
 46 47  1  0
 47 48  1  0
 47 49  2  0
 49 50  1  0
 49 51  1  0
 51 52  1  0
 51 53  2  0
 53 54  1  0
 53 55  1  0
 55 56  2  0
 56 57  1  0
 57 58  1  0
 57 59  1  0
 57 60  1  0
 21 13  1  0
 55 46  1  0
 56 20  1  0
M  CHG  1  56   1
M  END
>  <UniqueID>  (15) 
15

>  <SMILES>  (15) 
CCOCCOCCNc1c2ccccc2[n+](C)c2cccc(NC/C=N\C)c12

>  <Energy>  (15) 
89.74034016893643

>  <Genealogy>  (15) 
CCOCCOCCNc1c2ccccc2[n+](C)c2cccc(NC/C=N\C)c12 (cis-trans isomerization)
CCOCCOCCNc1c2ccccc2[n+](C)c2cccc(NC/C=N\C)c12 (3D coordinates assigned)
CCOCCOCCNc1c2ccccc2[n+](C)c2cccc(NC/C=N\C)c12 (optimized conformer: 89.74034016893643 kcal/mol)

>  <smiles>  (15) 
CCOCCOCCNc1c2ccccc2[n+](C)c2cccc(NCC=NC)c12

>  <score_type>  (15) 
oracle

>  <origin>  (15) 
adg

>  <m_score__min__energy>  (15) 
-4.25

>  <m_primary>  (15) 
energy

$$$$
16:0
     RDKit          3D

 62 66  0  0  0  0  0  0  0  0999 V2000
   59.3440   34.2520   44.7740 C   0  0  0  0  0  0  0  0  0  0  0  0
   58.8580   34.0130   46.0000 C   0  0  0  0  0  0  0  0  0  0  0  0
   57.4620   33.4720   46.1510 C   0  0  0  0  0  0  0  0  0  0  0  0
   59.7460   34.1700   47.2160 C   0  0  2  0  0  0  0  0  0  0  0  0
   60.9550   33.2510   47.3090 C   0  0  1  0  0  0  0  0  0  0  0  0
   62.1600   32.8540   48.1890 C   0  0  2  0  0  0  0  0  0  0  0  0
   63.3350   33.3620   47.5770 O   0  0  0  0  0  0  0  0  0  0  0  0
   63.0500   33.8600   46.2860 C   0  0  0  0  0  0  0  0  0  0  0  0
   62.2740   31.2690   48.2380 C   0  0  1  0  0  0  0  0  0  0  0  0
   61.9910   30.5680   49.5890 C   0  0  0  0  0  0  0  0  0  0  0  0
   60.8120   31.0760   50.4140 C   0  0  0  0  0  0  0  0  0  0  0  0
   59.3830   31.1890   49.7550 C   0  0  1  0  0  0  0  0  0  0  0  0
   58.4890   29.9970   50.1910 C   0  0  0  0  0  0  0  0  0  0  0  0
   58.7640   32.4730   50.3490 C   0  0  0  0  0  0  0  0  0  0  0  0
   59.3870   33.6180   49.5680 C   0  0  0  0  0  0  0  0  0  0  0  0
   59.6920   33.0090   48.1890 C   0  0  1  0  0  0  0  0  0  0  0  0
   59.3100   31.5050   48.2080 C   0  0  1  0  0  0  0  0  0  0  0  0
   59.9680   30.5290   47.1410 C   0  0  1  0  0  0  0  0  0  0  0  0
   59.4770   29.1000   47.4090 C   0  0  0  0  0  0  0  0  0  0  0  0
   58.7660   28.3970   46.5200 C   0  0  0  0  0  0  0  0  0  0  0  0
   58.4190   28.9760   45.1770 C   0  0  0  0  0  0  0  0  0  0  0  0
   58.4570   27.8690   44.1080 C   0  0  0  0  0  0  0  0  0  0  0  0
   57.0110   29.5960   45.2330 C   0  0  0  0  0  0  0  0  0  0  0  0
   59.4720   30.0480   44.8490 C   0  0  0  0  0  0  0  0  0  0  0  0
   59.5030   31.0200   45.8760 O   0  0  0  0  0  0  0  0  0  0  0  0
   61.5430   30.5010   47.1110 C   0  0  0  0  0  0  0  0  0  0  0  0
   60.3634   34.6475   44.6539 H   0  0  0  0  0  0  0  0  0  0  0  0
   58.7235   34.0527   43.8879 H   0  0  0  0  0  0  0  0  0  0  0  0
   57.2189   33.3778   47.2197 H   0  0  0  0  0  0  0  0  0  0  0  0
   56.7488   34.1588   45.6719 H   0  0  0  0  0  0  0  0  0  0  0  0
   57.3979   32.4839   45.6719 H   0  0  0  0  0  0  0  0  0  0  0  0
   59.6185   35.2601   47.2901 H   0  0  0  0  0  0  0  0  0  0  0  0
   61.6185   33.0969   46.4453 H   0  0  0  0  0  0  0  0  0  0  0  0
   62.0349   33.2541   49.2060 H   0  0  0  0  0  0  0  0  0  0  0  0
   62.5053   34.8118   46.3721 H   0  0  0  0  0  0  0  0  0  0  0  0
   63.9909   34.0241   45.7403 H   0  0  0  0  0  0  0  0  0  0  0  0
   62.4319   33.1319   45.7403 H   0  0  0  0  0  0  0  0  0  0  0  0
   63.3585   31.1977   48.0686 H   0  0  0  0  0  0  0  0  0  0  0  0
   61.8100   29.5040   49.3764 H   0  0  0  0  0  0  0  0  0  0  0  0
   62.8766   30.7811   50.2057 H   0  0  0  0  0  0  0  0  0  0  0  0
   60.7123   30.4003   51.2762 H   0  0  0  0  0  0  0  0  0  0  0  0
   61.0795   32.1224   50.6225 H   0  0  0  0  0  0  0  0  0  0  0  0
   58.4526   29.9485   51.2893 H   0  0  0  0  0  0  0  0  0  0  0  0
   57.4720   30.1379   49.7963 H   0  0  0  0  0  0  0  0  0  0  0  0
   58.9090   29.0601   49.7963 H   0  0  0  0  0  0  0  0  0  0  0  0
   57.6715   32.4688   50.2208 H   0  0  0  0  0  0  0  0  0  0  0  0
   58.9579   32.5599   51.4283 H   0  0  0  0  0  0  0  0  0  0  0  0
   58.6822   34.4576   49.4769 H   0  0  0  0  0  0  0  0  0  0  0  0
   60.2841   34.0244   50.0579 H   0  0  0  0  0  0  0  0  0  0  0  0
   58.3150   31.2869   47.7927 H   0  0  0  0  0  0  0  0  0  0  0  0
   59.7204   28.6330   48.3748 H   0  0  0  0  0  0  0  0  0  0  0  0
   58.4307   27.3810   46.7755 H   0  0  0  0  0  0  0  0  0  0  0  0
   58.4908   26.8855   44.5996 H   0  0  0  0  0  0  0  0  0  0  0  0
   57.5561   27.9344   43.4803 H   0  0  0  0  0  0  0  0  0  0  0  0
   59.3513   27.9960   43.4803 H   0  0  0  0  0  0  0  0  0  0  0  0
   56.7102   29.7285   46.2827 H   0  0  0  0  0  0  0  0  0  0  0  0
   57.0203   30.5733   44.7281 H   0  0  0  0  0  0  0  0  0  0  0  0
   56.2964   28.9293   44.7281 H   0  0  0  0  0  0  0  0  0  0  0  0
   60.4612   29.5743   44.7647 H   0  0  0  0  0  0  0  0  0  0  0  0
   59.2110   30.5338   43.8972 H   0  0  0  0  0  0  0  0  0  0  0  0
   61.8586   29.4487   47.1659 H   0  0  0  0  0  0  0  0  0  0  0  0
   61.8233   31.0172   46.1810 H   0  0  0  0  0  0  0  0  0  0  0  0
  1  2  2  0
  2  3  1  0
  2  4  1  0
  4  5  1  0
  5  6  1  0
  6  7  1  0
  7  8  1  0
  6  9  1  0
  9 10  1  0
 10 11  1  0
 11 12  1  0
 12 13  1  6
 12 14  1  0
 14 15  1  0
 16 15  1  1
 16 17  1  0
 17 18  1  0
 18 19  1  0
 19 20  2  0
 20 21  1  0
 21 22  1  0
 21 23  1  0
 21 24  1  0
 24 25  1  0
 18 26  1  0
 16  4  1  0
 18 25  1  6
 16  5  1  0
 26  9  1  0
 17 12  1  0
  1 27  1  0
  1 28  1  0
  3 29  1  0
  3 30  1  0
  3 31  1  0
  4 32  1  1
  5 33  1  6
  6 34  1  1
  8 35  1  0
  8 36  1  0
  8 37  1  0
  9 38  1  6
 10 39  1  0
 10 40  1  0
 11 41  1  0
 11 42  1  0
 13 43  1  0
 13 44  1  0
 13 45  1  0
 14 46  1  0
 14 47  1  0
 15 48  1  0
 15 49  1  0
 17 50  1  6
 19 51  1  0
 20 52  1  0
 22 53  1  0
 22 54  1  0
 22 55  1  0
 23 56  1  0
 23 57  1  0
 23 58  1  0
 24 59  1  0
 24 60  1  0
 26 61  1  0
 26 62  1  0
M  END
>  <UniqueID>  (16) 
16

>  <SMILES>  (16) 
C=C(C)[C@@H]1[C@H]2C(OC)C3CCC4(C)CCC12C4C1(C=CC(C)(C)CO1)C3

>  <Energy>  (16) 
435.4215842978953

>  <Genealogy>  (16) 
C=C(C)[C@@H]1[C@H]2C(OC)C3CCC4(C)CCC12C4C1(C=CC(C)(C)CO1)C3 (chirality)
C=C(C)[C@@H]1[C@H]2C(OC)C3CCC4(C)CCC12C4C1(C=CC(C)(C)CO1)C3 (3D coordinates assigned)
C=C(C)[C@@H]1[C@H]2C(OC)C3CCC4(C)CCC12C4C1(C=CC(C)(C)CO1)C3 (nonaromatic ring conformer: 435.4215842978953 kcal/mol)

>  <smiles>  (16) 
C=C(C)C1C2C(OC)C3CCC4(C)CCC12C4C1(C=CC(C)(C)CO1)C3

>  <score_type>  (16) 
oracle

>  <origin>  (16) 
adg

>  <m_score__min__energy>  (16) 
-6.8899999999999997

>  <m_primary>  (16) 
energy

$$$$
17:0
     RDKit          3D

 58 59  0  0  1  0  0  0  0  0999 V2000
   62.9770   32.7630   47.3540 C   0  0  0  0  0  0  0  0  0  0  0  0
   61.6960   31.9860   47.1570 C   0  0  0  0  0  0  0  0  0  0  0  0
   61.2440   31.2810   48.4130 C   0  0  0  0  0  0  0  0  0  0  0  0
   59.7110   31.0800   48.3870 C   0  0  0  0  0  0  0  0  0  0  0  0
   59.3570   29.9850   47.4700 C   0  0  0  0  0  0  0  0  0  0  0  0
   59.3710   28.6810   47.8340 N   0  0  0  0  0  0  0  0  0  0  0  0
   58.9390   27.9050   46.8280 C   0  0  0  0  0  0  0  0  0  0  0  0
   58.7760   26.5210   46.7290 C   0  0  0  0  0  0  0  0  0  0  0  0
   58.3020   25.9480   45.5580 C   0  0  0  0  0  0  0  0  0  0  0  0
   58.1520   24.5040   45.4830 C   0  0  0  0  0  0  0  0  0  0  0  0
   57.1380   23.8510   46.0100 C   0  0  0  0  0  0  0  0  0  0  0  0
   55.8750   24.5530   46.2750 C   0  0  0  0  0  0  0  0  0  0  0  0
   54.8480   23.9680   47.0160 O   0  0  0  0  0  0  0  0  0  0  0  0
   55.6710   25.7450   45.8270 N   0  0  0  0  0  0  0  0  0  0  0  0
   54.4280   26.3000   45.9020 O   0  0  0  0  0  0  0  0  0  0  0  0
   58.0090   26.8100   44.5270 C   0  0  0  0  0  0  0  0  0  0  0  0
   58.1800   28.1720   44.6560 C   0  0  0  0  0  0  0  0  0  0  0  0
   58.6420   28.7180   45.7970 N   0  0  0  0  0  0  0  0  0  0  0  0
   58.8960   30.0100   46.1730 C   0  0  0  0  0  0  0  0  0  0  0  0
   58.7330   31.1350   45.2280 C   0  0  0  0  0  0  0  0  0  0  0  0
   57.3990   31.6050   45.1540 N   0  0  0  0  0  0  0  0  0  0  0  0
   56.6200   30.9680   44.1080 C   0  0  0  0  0  0  0  0  0  0  0  0
   57.1440   32.9930   45.2590 C   0  0  0  0  0  0  0  0  0  0  0  0
   57.4390   33.6210   46.5810 C   0  0  0  0  0  0  0  0  0  0  0  0
   58.4770   34.6390   46.4630 N   0  0  0  0  0  0  0  0  0  0  0  0
   59.4690   34.5410   47.5240 C   0  0  0  0  0  0  0  0  0  0  0  0
   59.2070   34.4910   45.2130 C   0  0  0  0  0  0  0  0  0  0  0  0
   63.1722   32.8814   48.4300 H   0  0  0  0  0  0  0  0  0  0  0  0
   63.8114   32.2187   46.8877 H   0  0  0  0  0  0  0  0  0  0  0  0
   62.8798   33.7545   46.8877 H   0  0  0  0  0  0  0  0  0  0  0  0
   60.9062   32.6835   46.8412 H   0  0  0  0  0  0  0  0  0  0  0  0
   61.8876   31.2167   46.3945 H   0  0  0  0  0  0  0  0  0  0  0  0
   61.7385   30.3005   48.4779 H   0  0  0  0  0  0  0  0  0  0  0  0
   61.5121   31.8938   49.2862 H   0  0  0  0  0  0  0  0  0  0  0  0
   59.3597   30.8335   49.3998 H   0  0  0  0  0  0  0  0  0  0  0  0
   59.2334   32.0078   48.0390 H   0  0  0  0  0  0  0  0  0  0  0  0
   59.0258   25.8799   47.5873 H   0  0  0  0  0  0  0  0  0  0  0  0
   58.9271   23.9264   44.9580 H   0  0  0  0  0  0  0  0  0  0  0  0
   57.2360   22.7823   46.2514 H   0  0  0  0  0  0  0  0  0  0  0  0
   53.9630   24.4610   47.1590 H   0  0  0  0  0  0  0  0  0  0  0  0
   53.6500   25.8130   46.3790 H   0  0  0  0  0  0  0  0  0  0  0  0
   57.6296   26.4035   43.5779 H   0  0  0  0  0  0  0  0  0  0  0  0
   57.9335   28.8275   43.8077 H   0  0  0  0  0  0  0  0  0  0  0  0
   59.3792   31.9634   45.5539 H   0  0  0  0  0  0  0  0  0  0  0  0
   59.0093   30.7685   44.2283 H   0  0  0  0  0  0  0  0  0  0  0  0
   55.8446   30.3340   44.5628 H   0  0  0  0  0  0  0  0  0  0  0  0
   56.1440   31.7389   43.4843 H   0  0  0  0  0  0  0  0  0  0  0  0
   57.2810   30.3484   43.4843 H   0  0  0  0  0  0  0  0  0  0  0  0
   57.7554   33.5045   44.5010 H   0  0  0  0  0  0  0  0  0  0  0  0
   56.0588   33.1037   45.1170 H   0  0  0  0  0  0  0  0  0  0  0  0
   56.5216   34.0877   46.9690 H   0  0  0  0  0  0  0  0  0  0  0  0
   57.7962   32.8379   47.2660 H   0  0  0  0  0  0  0  0  0  0  0  0
   58.9667   34.5906   48.5013 H   0  0  0  0  0  0  0  0  0  0  0  0
   60.0066   33.5854   47.4362 H   0  0  0  0  0  0  0  0  0  0  0  0
   60.1832   35.3730   47.4362 H   0  0  0  0  0  0  0  0  0  0  0  0
   60.2641   34.2767   45.4289 H   0  0  0  0  0  0  0  0  0  0  0  0
   58.7759   33.6620   44.6326 H   0  0  0  0  0  0  0  0  0  0  0  0
   59.1328   35.4225   44.6326 H   0  0  0  0  0  0  0  0  0  0  0  0
  1  2  1  0
  2  3  1  0
  3  4  1  0
  4  5  1  0
  5  6  1  0
  6  7  2  0
  7  8  1  0
  8  9  2  0
  9 10  1  0
 10 11  2  0
 11 12  1  0
 12 13  1  0
 12 14  2  0
 14 15  1  0
  9 16  1  0
 16 17  2  0
 17 18  1  0
 18 19  1  0
 19 20  1  0
 20 21  1  0
 21 22  1  0
 21 23  1  0
 23 24  1  0
 24 25  1  0
 25 26  1  0
 25 27  1  0
 19  5  2  0
 18  7  1  0
  1 28  1  0
  1 29  1  0
  1 30  1  0
  2 31  1  0
  2 32  1  0
  3 33  1  0
  3 34  1  0
  4 35  1  0
  4 36  1  0
  8 37  1  0
 10 38  1  0
 11 39  1  0
 13 40  1  0
 15 41  1  0
 16 42  1  0
 17 43  1  0
 20 44  1  0
 20 45  1  0
 22 46  1  0
 22 47  1  0
 22 48  1  0
 23 49  1  0
 23 50  1  0
 24 51  1  0
 24 52  1  0
 26 53  1  0
 26 54  1  0
 26 55  1  0
 27 56  1  0
 27 57  1  0
 27 58  1  0
M  END
>  <smiles>  (17) 
CCCCc1nc2cc(C=CC(O)=NO)ccn2c1CN(C)CCN(C)C

>  <score_type>  (17) 
oracle

>  <origin>  (17) 
adg

>  <m_score__min__energy>  (17) 
-8.9700000000000006

>  <m_primary>  (17) 
energy

$$$$
18:0
     RDKit          3D

 71 71  0  0  0  0  0  0  0  0999 V2000
   56.6130   26.3680   46.0800 C   0  0  0  0  0  0  0  0  0  0  0  0
   57.8670   26.0220   46.8800 C   0  0  0  0  0  0  0  0  0  0  0  0
   59.1340   26.2230   46.0410 C   0  0  0  0  0  0  0  0  0  0  0  0
   58.8980   27.2630   44.9330 C   0  0  0  0  0  0  0  0  0  0  0  0
   60.0210   28.3120   44.8690 C   0  0  0  0  0  0  0  0  0  0  0  0
   59.5380   29.7590   45.1070 C   0  0  0  0  0  0  0  0  0  0  0  0
   60.0000   30.3640   46.4470 C   0  0  0  0  0  0  0  0  0  0  0  0
   58.9430   30.2860   47.5730 C   0  0  0  0  0  0  0  0  0  0  0  0
   58.9430   28.9390   48.3150 C   0  0  0  0  0  0  0  0  0  0  0  0
   60.3440   28.5630   48.8210 C   0  0  0  0  0  0  0  0  0  0  0  0
   60.7860   29.4730   49.9730 C   0  0  0  0  0  0  0  0  0  0  0  0
   61.7960   30.5230   49.4800 C   0  0  0  0  0  0  0  0  0  0  0  0
   61.1800   31.9210   49.2950 C   0  0  0  0  0  0  0  0  0  0  0  0
   62.1170   32.9820   48.6800 C   0  0  0  0  0  0  0  0  0  0  0  0
   61.3880   34.1840   48.0390 C   0  0  0  0  0  0  0  0  0  0  0  0
   60.0210   34.4480   48.6890 C   0  0  0  0  0  0  0  0  0  0  0  0
   59.0610   34.9750   47.7190 N   0  0  0  0  0  0  0  0  0  0  0  0
   58.6930   34.2620   46.5220 C   0  0  0  0  0  0  0  0  0  0  0  0
   57.7470   33.2280   46.5980 C   0  0  0  0  0  0  0  0  0  0  0  0
   57.3790   32.5140   45.4520 C   0  0  0  0  0  0  0  0  0  0  0  0
   57.9550   32.8180   44.2070 C   0  0  0  0  0  0  0  0  0  0  0  0
   57.5710   32.0690   42.9900 C   0  0  0  0  0  0  0  0  0  0  0  0
   58.1670   32.2850   41.8990 O   0  0  0  0  0  0  0  0  0  0  0  0
   56.5400   31.1240   43.0540 O   0  0  0  0  0  0  0  0  0  0  0  0
   56.7560   29.7380   43.3110 C   0  0  0  0  0  0  0  0  0  0  0  0
   56.1790   29.3490   44.6660 C   0  0  0  0  0  0  0  0  0  0  0  0
   58.9030   33.8510   44.1300 C   0  0  0  0  0  0  0  0  0  0  0  0
   59.2660   34.5680   45.2730 C   0  0  0  0  0  0  0  0  0  0  0  0
   55.7882   26.5956   46.7713 H   0  0  0  0  0  0  0  0  0  0  0  0
   56.8127   27.2446   45.4462 H   0  0  0  0  0  0  0  0  0  0  0  0
   56.3349   25.5130   45.4462 H   0  0  0  0  0  0  0  0  0  0  0  0
   57.9172   26.6712   47.7666 H   0  0  0  0  0  0  0  0  0  0  0  0
   57.8099   24.9641   47.1760 H   0  0  0  0  0  0  0  0  0  0  0  0
   59.9475   26.5710   46.6945 H   0  0  0  0  0  0  0  0  0  0  0  0
   59.4016   25.2644   45.5726 H   0  0  0  0  0  0  0  0  0  0  0  0
   58.8440   26.7429   43.9652 H   0  0  0  0  0  0  0  0  0  0  0  0
   57.9586   27.7887   45.1592 H   0  0  0  0  0  0  0  0  0  0  0  0
   60.7694   28.0658   45.6366 H   0  0  0  0  0  0  0  0  0  0  0  0
   60.4344   28.2763   43.8503 H   0  0  0  0  0  0  0  0  0  0  0  0
   59.9226   30.3900   44.2922 H   0  0  0  0  0  0  0  0  0  0  0  0
   58.4389   29.7259   45.1360 H   0  0  0  0  0  0  0  0  0  0  0  0
   60.8986   29.8231   46.7787 H   0  0  0  0  0  0  0  0  0  0  0  0
   60.1902   31.4319   46.2640 H   0  0  0  0  0  0  0  0  0  0  0  0
   59.1481   31.0853   48.3004 H   0  0  0  0  0  0  0  0  0  0  0  0
   57.9556   30.3982   47.1013 H   0  0  0  0  0  0  0  0  0  0  0  0
   58.2607   29.0069   49.1752 H   0  0  0  0  0  0  0  0  0  0  0  0
   58.6156   28.1613   47.6093 H   0  0  0  0  0  0  0  0  0  0  0  0
   60.3295   27.5211   49.1734 H   0  0  0  0  0  0  0  0  0  0  0  0
   61.0558   28.6847   47.9912 H   0  0  0  0  0  0  0  0  0  0  0  0
   59.9050   29.9857   50.3865 H   0  0  0  0  0  0  0  0  0  0  0  0
   61.2667   28.8560   50.7465 H   0  0  0  0  0  0  0  0  0  0  0  0
   62.6112   30.5952   50.2150 H   0  0  0  0  0  0  0  0  0  0  0  0
   62.1546   30.1921   48.4941 H   0  0  0  0  0  0  0  0  0  0  0  0
   60.3033   31.8212   48.6382 H   0  0  0  0  0  0  0  0  0  0  0  0
   60.9371   32.2810   50.3057 H   0  0  0  0  0  0  0  0  0  0  0  0
   62.7743   33.3629   49.4756 H   0  0  0  0  0  0  0  0  0  0  0  0
   62.6685   32.4817   47.8703 H   0  0  0  0  0  0  0  0  0  0  0  0
   62.0143   35.0808   48.1547 H   0  0  0  0  0  0  0  0  0  0  0  0
   61.2175   33.9487   46.9781 H   0  0  0  0  0  0  0  0  0  0  0  0
   59.6325   33.5049   49.1007 H   0  0  0  0  0  0  0  0  0  0  0  0
   60.1548   35.1958   49.4846 H   0  0  0  0  0  0  0  0  0  0  0  0
   58.6010   35.8950   47.9100 H   0  0  0  0  0  0  0  0  0  0  0  0
   57.2908   32.9766   47.5669 H   0  0  0  0  0  0  0  0  0  0  0  0
   56.6333   31.7088   45.5265 H   0  0  0  0  0  0  0  0  0  0  0  0
   56.2665   29.1438   42.5253 H   0  0  0  0  0  0  0  0  0  0  0  0
   57.8384   29.5423   43.3165 H   0  0  0  0  0  0  0  0  0  0  0  0
   56.8051   29.7711   45.4660 H   0  0  0  0  0  0  0  0  0  0  0  0
   55.1556   29.7422   44.7553 H   0  0  0  0  0  0  0  0  0  0  0  0
   56.1597   28.2528   44.7553 H   0  0  0  0  0  0  0  0  0  0  0  0
   59.3636   34.0978   43.1620 H   0  0  0  0  0  0  0  0  0  0  0  0
   60.0058   35.3785   45.1963 H   0  0  0  0  0  0  0  0  0  0  0  0
  1  2  1  0
  2  3  1  0
  3  4  1  0
  4  5  1  0
  5  6  1  0
  6  7  1  0
  7  8  1  0
  8  9  1  0
  9 10  1  0
 10 11  1  0
 11 12  1  0
 12 13  1  0
 13 14  1  0
 14 15  1  0
 15 16  1  0
 16 17  1  0
 17 18  1  0
 18 19  2  0
 19 20  1  0
 20 21  2  0
 21 22  1  0
 22 23  2  0
 22 24  1  0
 24 25  1  0
 25 26  1  0
 21 27  1  0
 27 28  2  0
 28 18  1  0
  1 29  1  0
  1 30  1  0
  1 31  1  0
  2 32  1  0
  2 33  1  0
  3 34  1  0
  3 35  1  0
  4 36  1  0
  4 37  1  0
  5 38  1  0
  5 39  1  0
  6 40  1  0
  6 41  1  0
  7 42  1  0
  7 43  1  0
  8 44  1  0
  8 45  1  0
  9 46  1  0
  9 47  1  0
 10 48  1  0
 10 49  1  0
 11 50  1  0
 11 51  1  0
 12 52  1  0
 12 53  1  0
 13 54  1  0
 13 55  1  0
 14 56  1  0
 14 57  1  0
 15 58  1  0
 15 59  1  0
 16 60  1  0
 16 61  1  0
 17 62  1  0
 19 63  1  0
 20 64  1  0
 25 65  1  0
 25 66  1  0
 26 67  1  0
 26 68  1  0
 26 69  1  0
 27 70  1  0
 28 71  1  0
M  END
>  <UniqueID>  (18) 
17

>  <SMILES>  (18) 
CCCCCCCCCCCCCCCCNc1ccc(C(=O)OCC)cc1

>  <Energy>  (18) 
41.341590617124915

>  <Genealogy>  (18) 
CCCCCCCCCCCCCCCCNc1ccc(C(=O)OCC)cc1 (3D coordinates assigned)
CCCCCCCCCCCCCCCCNc1ccc(C(=O)OCC)cc1 (optimized conformer: 41.341590617124915 kcal/mol)

>  <smiles>  (18) 
CCCCCCCCCCCCCCCCNc1ccc(C(=O)OCC)cc1

>  <score_type>  (18) 
oracle

>  <origin>  (18) 
adg

>  <m_score__min__energy>  (18) 
-7

>  <m_primary>  (18) 
energy

$$$$
19:0
     RDKit          3D

 74 77  0  0  0  0  0  0  0  0999 V2000
   55.8140   29.2450   53.0490 C   0  0  0  0  0  0  0  0  0  0  0  0
   57.1730   29.3630   52.3730 C   0  0  0  0  0  0  0  0  0  0  0  0
   57.1230   30.3790   51.3940 O   0  0  0  0  0  0  0  0  0  0  0  0
   56.4020   31.4860   51.9030 C   0  0  0  0  0  0  0  0  0  0  0  0
   57.3760   32.5510   52.4100 C   0  0  0  0  0  0  0  0  0  0  0  0
   58.7220   32.1520   52.2280 O   0  0  0  0  0  0  0  0  0  0  0  0
   59.5440   33.2320   51.8190 C   0  0  0  0  0  0  0  0  0  0  0  0
   59.7960   33.1700   50.3070 C   0  0  0  0  0  0  0  0  0  0  0  0
   58.6770   32.5390   49.5940 N   0  0  0  0  0  0  0  0  0  0  0  0
   58.8500   32.0750   48.2470 C   0  0  0  0  0  0  0  0  0  0  0  0
   58.9410   33.0350   47.2200 C   0  0  0  0  0  0  0  0  0  0  0  0
   59.1390   34.4030   47.5180 C   0  0  0  0  0  0  0  0  0  0  0  0
   59.2670   35.3440   46.4990 C   0  0  0  0  0  0  0  0  0  0  0  0
   59.2180   34.9410   45.1690 C   0  0  0  0  0  0  0  0  0  0  0  0
   59.0110   33.5980   44.8510 C   0  0  0  0  0  0  0  0  0  0  0  0
   58.8370   32.6260   45.8700 C   0  0  0  0  0  0  0  0  0  0  0  0
   58.5660   31.3090   45.5760 N   0  0  0  0  0  0  0  0  0  0  0  0
   58.0830   30.9440   44.2240 C   0  0  0  0  0  0  0  0  0  0  0  0
   58.7470   30.3330   46.5400 C   0  0  0  0  0  0  0  0  0  0  0  0
   58.7970   28.9680   46.1730 C   0  0  0  0  0  0  0  0  0  0  0  0
   58.9830   27.9720   47.1150 C   0  0  0  0  0  0  0  0  0  0  0  0
   59.1590   28.2990   48.4440 C   0  0  0  0  0  0  0  0  0  0  0  0
   59.1510   29.6370   48.8790 C   0  0  0  0  0  0  0  0  0  0  0  0
   59.4290   29.8660   50.2840 N   0  0  0  0  0  0  0  0  0  0  0  0
   60.8830   29.8190   50.5610 C   0  0  0  0  0  0  0  0  0  0  0  0
   61.7330   30.4550   49.4410 C   0  0  0  0  0  0  0  0  0  0  0  0
   62.8710   31.3450   49.9710 C   0  0  0  0  0  0  0  0  0  0  0  0
   63.7200   31.8400   48.8600 N   0  0  0  0  0  0  0  0  0  0  0  0
   63.0780   31.6700   47.5330 C   0  0  0  0  0  0  0  0  0  0  0  0
   62.2760   32.9150   47.0980 C   0  0  0  0  0  0  0  0  0  0  0  0
   61.8410   33.6430   48.2280 O   0  0  0  0  0  0  0  0  0  0  0  0
   62.9540   34.2230   48.8890 C   0  0  0  0  0  0  0  0  0  0  0  0
   64.1370   33.2400   49.0650 C   0  0  0  0  0  0  0  0  0  0  0  0
   58.9120   30.6890   47.9190 C   0  0  0  0  0  0  0  0  0  0  0  0
   55.9455   29.2564   54.1411 H   0  0  0  0  0  0  0  0  0  0  0  0
   55.1796   30.0914   52.7472 H   0  0  0  0  0  0  0  0  0  0  0  0
   55.3350   28.3019   52.7472 H   0  0  0  0  0  0  0  0  0  0  0  0
   57.9360   29.6145   53.1243 H   0  0  0  0  0  0  0  0  0  0  0  0
   57.4307   28.4057   51.8963 H   0  0  0  0  0  0  0  0  0  0  0  0
   55.7773   31.9131   51.1046 H   0  0  0  0  0  0  0  0  0  0  0  0
   55.7642   31.1522   52.7347 H   0  0  0  0  0  0  0  0  0  0  0  0
   57.2026   33.4861   51.8573 H   0  0  0  0  0  0  0  0  0  0  0  0
   57.2011   32.6941   53.4865 H   0  0  0  0  0  0  0  0  0  0  0  0
   59.0445   34.1808   52.0645 H   0  0  0  0  0  0  0  0  0  0  0  0
   60.5082   33.1652   52.3443 H   0  0  0  0  0  0  0  0  0  0  0  0
   59.9297   34.1931   49.9258 H   0  0  0  0  0  0  0  0  0  0  0  0
   60.6974   32.5636   50.1346 H   0  0  0  0  0  0  0  0  0  0  0  0
   57.9340   32.0640   50.1520 H   0  0  0  0  0  0  0  0  0  0  0  0
   59.1926   34.7281   48.5675 H   0  0  0  0  0  0  0  0  0  0  0  0
   59.4069   36.4066   46.7465 H   0  0  0  0  0  0  0  0  0  0  0  0
   59.3427   35.6823   44.3659 H   0  0  0  0  0  0  0  0  0  0  0  0
   58.9823   33.2887   43.7958 H   0  0  0  0  0  0  0  0  0  0  0  0
   57.2083   30.2830   44.3132 H   0  0  0  0  0  0  0  0  0  0  0  0
   57.7995   31.8555   43.6774 H   0  0  0  0  0  0  0  0  0  0  0  0
   58.8825   30.4224   43.6774 H   0  0  0  0  0  0  0  0  0  0  0  0
   58.6854   28.6919   45.1141 H   0  0  0  0  0  0  0  0  0  0  0  0
   58.9906   26.9170   46.8038 H   0  0  0  0  0  0  0  0  0  0  0  0
   59.3090   27.4954   49.1800 H   0  0  0  0  0  0  0  0  0  0  0  0
   58.9000   29.2080   50.8890 H   0  0  0  0  0  0  0  0  0  0  0  0
   59.0350   30.7950   50.5630 H   0  0  0  0  0  0  0  0  0  0  0  0
   61.0785   30.3596   51.4988 H   0  0  0  0  0  0  0  0  0  0  0  0
   61.1700   28.7593   50.6293 H   0  0  0  0  0  0  0  0  0  0  0  0
   62.1733   29.6485   48.8362 H   0  0  0  0  0  0  0  0  0  0  0  0
   61.0644   31.0985   48.8503 H   0  0  0  0  0  0  0  0  0  0  0  0
   62.4374   32.2047   50.5029 H   0  0  0  0  0  0  0  0  0  0  0  0
   63.4963   30.7470   50.6503 H   0  0  0  0  0  0  0  0  0  0  0  0
   63.8609   31.4762   46.7850 H   0  0  0  0  0  0  0  0  0  0  0  0
   62.3728   30.8292   47.6092 H   0  0  0  0  0  0  0  0  0  0  0  0
   62.9159   33.5590   46.4768 H   0  0  0  0  0  0  0  0  0  0  0  0
   61.3958   32.5887   46.5245 H   0  0  0  0  0  0  0  0  0  0  0  0
   63.3002   35.0853   48.3003 H   0  0  0  0  0  0  0  0  0  0  0  0
   62.6205   34.5176   49.8950 H   0  0  0  0  0  0  0  0  0  0  0  0
   64.9193   33.4895   48.3331 H   0  0  0  0  0  0  0  0  0  0  0  0
   64.5132   33.3379   50.0940 H   0  0  0  0  0  0  0  0  0  0  0  0
  1  2  1  0
  2  3  1  0
  3  4  1  0
  4  5  1  0
  5  6  1  0
  6  7  1  0
  7  8  1  0
  8  9  1  0
  9 10  1  0
 10 11  2  0
 11 12  1  0
 12 13  2  0
 13 14  1  0
 14 15  2  0
 15 16  1  0
 16 17  2  0
 17 18  1  0
 17 19  1  0
 19 20  2  0
 20 21  1  0
 21 22  2  0
 22 23  1  0
 23 24  1  0
 24 25  1  0
 25 26  1  0
 26 27  1  0
 27 28  1  0
 28 29  1  0
 29 30  1  0
 30 31  1  0
 31 32  1  0
 32 33  1  0
 23 34  2  0
 34 10  1  0
 16 11  1  0
 34 19  1  0
 33 28  1  0
  1 35  1  0
  1 36  1  0
  1 37  1  0
  2 38  1  0
  2 39  1  0
  4 40  1  0
  4 41  1  0
  5 42  1  0
  5 43  1  0
  7 44  1  0
  7 45  1  0
  8 46  1  0
  8 47  1  0
  9 48  1  0
 12 49  1  0
 13 50  1  0
 14 51  1  0
 15 52  1  0
 18 53  1  0
 18 54  1  0
 18 55  1  0
 20 56  1  0
 21 57  1  0
 22 58  1  0
 24 59  1  0
 24 60  1  0
 25 61  1  0
 25 62  1  0
 26 63  1  0
 26 64  1  0
 27 65  1  0
 27 66  1  0
 29 67  1  0
 29 68  1  0
 30 69  1  0
 30 70  1  0
 32 71  1  0
 32 72  1  0
 33 73  1  0
 33 74  1  0
M  CHG  2  17   1  24   1
M  END
>  <UniqueID>  (19) 
18

>  <SMILES>  (19) 
CCOCCOCCNc1c2ccccc2[n+](C)c2cccc([NH2+]CCCN3CCOCC3)c12

>  <Energy>  (19) 
124.34626477610546

>  <Genealogy>  (19) 
CCOCCOCCNc1c2ccccc2[n+](C)c2cccc([NH2+]CCCN3CCOCC3)c12 (protonated)
CCOCCOCCNc1c2ccccc2[n+](C)c2cccc([NH2+]CCCN3CCOCC3)c12 (3D coordinates assigned)
CCOCCOCCNc1c2ccccc2[n+](C)c2cccc([NH2+]CCCN3CCOCC3)c12 (nonaromatic ring conformer: 124.34626477610546 kcal/mol)

>  <smiles>  (19) 
CCOCCOCCNc1c2ccccc2[n+](C)c2cccc(NCCCN3CCOCC3)c12

>  <score_type>  (19) 
oracle

>  <origin>  (19) 
adg

>  <m_score__min__energy>  (19) 
-4.3200000000000003

>  <m_primary>  (19) 
energy

$$$$
20:0
     RDKit          3D

 52 55  0  0  0  0  0  0  0  0999 V2000
   58.8467   26.2834   46.7062 H   0  0  0  0  0  0  0  0  0  0  0  0
   58.5890   27.3520   46.7470 C   0  0  0  0  0  0  0  0  0  0  0  0
   57.3690   27.7250   46.3250 C   0  0  0  0  0  0  0  0  0  0  0  0
   56.4951   27.4150   46.9168 H   0  0  0  0  0  0  0  0  0  0  0  0
   57.1360   28.5460   45.0830 C   0  0  0  0  0  0  0  0  0  0  0  0
   57.2134   27.8974   44.1980 H   0  0  0  0  0  0  0  0  0  0  0  0
   57.8930   29.3424   45.0298 H   0  0  0  0  0  0  0  0  0  0  0  0
   55.7950   29.1560   45.1250 N   0  0  0  0  0  0  0  0  0  0  0  0
   55.7250   29.7140   46.0100 H   0  0  0  0  0  0  0  0  0  0  0  0
   55.5620   30.0880   44.0120 C   0  0  0  0  0  0  0  0  0  0  0  0
   55.5336   31.1147   44.4058 H   0  0  0  0  0  0  0  0  0  0  0  0
   54.6062   29.8240   43.5358 H   0  0  0  0  0  0  0  0  0  0  0  0
   56.6640   29.9910   42.9590 C   0  0  0  0  0  0  0  0  0  0  0  0
   57.6408   29.9050   43.4574 H   0  0  0  0  0  0  0  0  0  0  0  0
   56.4937   29.1044   42.3306 H   0  0  0  0  0  0  0  0  0  0  0  0
   56.6512   30.8937   42.3306 H   0  0  0  0  0  0  0  0  0  0  0  0
   59.6250   28.3120   47.2730 C   0  0  0  0  0  0  0  0  0  0  0  0
   60.1128   27.8692   48.1539 H   0  0  0  0  0  0  0  0  0  0  0  0
   60.3644   28.5018   46.4810 H   0  0  0  0  0  0  0  0  0  0  0  0
   59.0090   29.5830   47.6540 N   0  0  0  0  0  0  0  0  0  0  0  0
   58.1660   29.5910   48.2720 H   0  0  0  0  0  0  0  0  0  0  0  0
   59.7280   30.8100   47.4840 C   0  0  0  0  0  0  0  0  0  0  0  0
   60.8680   31.0520   48.2420 C   0  0  0  0  0  0  0  0  0  0  0  0
   61.5890   32.2200   48.0800 C   0  0  0  0  0  0  0  0  0  0  0  0
   61.2900   33.1280   47.0960 N   0  0  0  0  0  0  0  0  0  0  0  0
   62.2630   34.1700   46.7290 C   0  0  0  0  0  0  0  0  0  0  0  0
   62.6818   34.6185   47.6419 H   0  0  0  0  0  0  0  0  0  0  0  0
   63.0736   33.7221   46.1354 H   0  0  0  0  0  0  0  0  0  0  0  0
   61.7607   34.9480   46.1354 H   0  0  0  0  0  0  0  0  0  0  0  0
   60.0870   32.9930   46.4190 C   0  0  0  0  0  0  0  0  0  0  0  0
   59.5990   34.0070   45.5600 C   0  0  0  0  0  0  0  0  0  0  0  0
   60.1794   34.9322   45.4293 H   0  0  0  0  0  0  0  0  0  0  0  0
   58.3930   33.8500   44.8770 C   0  0  0  0  0  0  0  0  0  0  0  0
   58.0381   34.6442   44.2038 H   0  0  0  0  0  0  0  0  0  0  0  0
   57.6360   32.6930   45.0430 C   0  0  0  0  0  0  0  0  0  0  0  0
   56.6895   32.5740   44.4953 H   0  0  0  0  0  0  0  0  0  0  0  0
   58.0730   31.6860   45.9000 C   0  0  0  0  0  0  0  0  0  0  0  0
   57.4613   30.7818   46.0352 H   0  0  0  0  0  0  0  0  0  0  0  0
   59.2910   31.8150   46.5950 C   0  0  0  0  0  0  0  0  0  0  0  0
   62.6880   32.1870   49.0480 C   0  0  0  0  0  0  0  0  0  0  0  0
   62.6410   30.9790   49.7150 C   0  0  0  0  0  0  0  0  0  0  0  0
   63.5240   30.7130   50.7590 C   0  0  0  0  0  0  0  0  0  0  0  0
   63.5052   29.7452   51.2816 H   0  0  0  0  0  0  0  0  0  0  0  0
   64.4370   31.7110   51.1260 C   0  0  0  0  0  0  0  0  0  0  0  0
   65.1709   31.5228   51.9235 H   0  0  0  0  0  0  0  0  0  0  0  0
   64.4100   32.9550   50.4690 C   0  0  0  0  0  0  0  0  0  0  0  0
   65.1124   33.7462   50.7699 H   0  0  0  0  0  0  0  0  0  0  0  0
   63.5190   33.1880   49.4610 N   0  0  0  0  0  0  0  0  0  0  0  0
   63.4660   34.1470   49.0600 H   0  0  0  0  0  0  0  0  0  0  0  0
   61.4950   30.1370   49.2540 C   0  0  0  0  0  0  0  0  0  0  0  0
   61.8401   29.1993   48.7940 H   0  0  0  0  0  0  0  0  0  0  0  0
   60.8170   29.8095   50.0559 H   0  0  0  0  0  0  0  0  0  0  0  0
  1  2  1  0
  2  3  2  0
  3  4  1  0
  3  5  1  0
  5  6  1  0
  5  7  1  0
  5  8  1  0
  8  9  1  0
  8 10  1  0
 10 11  1  0
 10 12  1  0
 10 13  1  0
 13 14  1  0
 13 15  1  0
 13 16  1  0
  2 17  1  0
 17 18  1  0
 17 19  1  0
 17 20  1  0
 20 21  1  0
 20 22  1  0
 22 23  2  0
 23 24  1  0
 24 25  2  0
 25 26  1  0
 26 27  1  0
 26 28  1  0
 26 29  1  0
 25 30  1  0
 30 31  2  0
 31 32  1  0
 31 33  1  0
 33 34  1  0
 33 35  2  0
 35 36  1  0
 35 37  1  0
 37 38  1  0
 37 39  2  0
 24 40  1  0
 40 41  2  0
 41 42  1  0
 42 43  1  0
 42 44  2  0
 44 45  1  0
 44 46  1  0
 46 47  1  0
 46 48  2  0
 48 49  1  0
 41 50  1  0
 50 51  1  0
 50 52  1  0
 39 22  1  0
 48 40  1  0
 50 23  1  0
 39 30  1  0
M  CHG  2  25   1  48   1
M  END
>  <UniqueID>  (20) 
19

>  <SMILES>  (20) 
CCNC/C=C\CNc1c2c([n+](C)c3ccccc13)-c1[nH+]cccc1C2

>  <Energy>  (20) 
93.99026732577796

>  <Genealogy>  (20) 
CCNCC=CCNc1c2c([n+](C)c3ccccc13)-c1[nH+]cccc1C2 (protonated)
CCNC/C=C\CNc1c2c([n+](C)c3ccccc13)-c1[nH+]cccc1C2 (cis-trans isomerization)
CCNC/C=C\CNc1c2c([n+](C)c3ccccc13)-c1[nH+]cccc1C2 (3D coordinates assigned)
CCNC/C=C\CNc1c2c([n+](C)c3ccccc13)-c1[nH+]cccc1C2 (nonaromatic ring conformer: 93.99026732577796 kcal/mol)

>  <smiles>  (20) 
CCNCC=CCNc1c2c([n+](C)c3ccccc13)-c1ncccc1C2

>  <score_type>  (20) 
oracle

>  <origin>  (20) 
adg

>  <m_score__min__energy>  (20) 
-5.3399999999999999

>  <m_primary>  (20) 
energy

$$$$
21:0
     RDKit          3D

 57 60  0  0  0  0  0  0  0  0999 V2000
   60.3570   28.6160   44.8860 C   0  0  0  0  0  0  0  0  0  0  0  0
   59.0620   28.0620   45.3260 N   0  0  0  0  0  0  0  0  0  0  0  0
   57.8850   28.5720   44.8210 C   0  0  0  0  0  0  0  0  0  0  0  0
   57.8850   29.7280   43.9450 N   0  0  0  0  0  0  0  0  0  0  0  0
   57.0240   30.9070   44.1080 C   0  0  0  0  0  0  0  0  0  0  0  0
   57.7550   32.2260   43.7580 C   0  0  0  0  0  0  0  0  0  0  0  0
   58.5400   32.8570   44.8550 N   0  0  0  0  0  0  0  0  0  0  0  0
   58.8150   31.9070   45.9640 C   0  0  0  0  0  0  0  0  0  0  0  0
   59.1360   32.6190   47.2910 C   0  0  0  0  0  0  0  0  0  0  0  0
   59.8280   33.8890   47.0180 N   0  0  0  0  0  0  0  0  0  0  0  0
   60.3590   34.4710   48.2670 C   0  0  0  0  0  0  0  0  0  0  0  0
   61.7600   33.9890   48.5280 C   0  0  0  0  0  0  0  0  0  0  0  0
   62.4860   33.3090   47.5150 C   0  0  0  0  0  0  0  0  0  0  0  0
   63.7930   32.8530   47.7600 C   0  0  0  0  0  0  0  0  0  0  0  0
   64.3390   33.0870   49.0210 C   0  0  0  0  0  0  0  0  0  0  0  0
   63.6460   33.7280   49.9940 C   0  0  0  0  0  0  0  0  0  0  0  0
   62.3490   34.1900   49.7960 C   0  0  0  0  0  0  0  0  0  0  0  0
   64.4270   33.8180   51.1320 O   0  0  0  0  0  0  0  0  0  0  0  0
   65.6930   33.2030   50.8520 C   0  0  0  0  0  0  0  0  0  0  0  0
   65.5900   32.7420   49.4960 O   0  0  0  0  0  0  0  0  0  0  0  0
   58.9310   34.8380   46.3200 C   0  0  0  0  0  0  0  0  0  0  0  0
   57.9690   34.1320   45.3390 C   0  0  0  0  0  0  0  0  0  0  0  0
   56.6770   27.9390   45.1510 C   0  0  0  0  0  0  0  0  0  0  0  0
   56.6750   26.8930   46.0610 C   0  0  0  0  0  0  0  0  0  0  0  0
   55.5780   26.3350   46.3440 O   0  0  0  0  0  0  0  0  0  0  0  0
   57.8420   26.4790   46.6370 N   0  0  0  0  0  0  0  0  0  0  0  0
   57.8250   25.3720   47.6100 C   0  0  0  0  0  0  0  0  0  0  0  0
   59.0320   27.0340   46.2430 C   0  0  0  0  0  0  0  0  0  0  0  0
   60.1100   26.5960   46.7320 O   0  0  0  0  0  0  0  0  0  0  0  0
   60.9631   28.8753   45.7666 H   0  0  0  0  0  0  0  0  0  0  0  0
   60.8899   27.8671   44.2817 H   0  0  0  0  0  0  0  0  0  0  0  0
   60.1834   29.5186   44.2817 H   0  0  0  0  0  0  0  0  0  0  0  0
   58.4980   29.7370   43.1010 H   0  0  0  0  0  0  0  0  0  0  0  0
   56.1512   30.8009   43.4469 H   0  0  0  0  0  0  0  0  0  0  0  0
   56.7254   30.9600   45.1654 H   0  0  0  0  0  0  0  0  0  0  0  0
   58.4468   32.0159   42.9290 H   0  0  0  0  0  0  0  0  0  0  0  0
   56.9598   32.9462   43.5149 H   0  0  0  0  0  0  0  0  0  0  0  0
   59.4730   33.0950   44.4360 H   0  0  0  0  0  0  0  0  0  0  0  0
   57.9291   31.2717   46.1109 H   0  0  0  0  0  0  0  0  0  0  0  0
   59.6983   31.3149   45.6827 H   0  0  0  0  0  0  0  0  0  0  0  0
   58.2004   32.8216   47.8329 H   0  0  0  0  0  0  0  0  0  0  0  0
   59.7850   31.9747   47.9023 H   0  0  0  0  0  0  0  0  0  0  0  0
   60.3653   35.5675   48.1797 H   0  0  0  0  0  0  0  0  0  0  0  0
   59.7168   34.1570   49.1030 H   0  0  0  0  0  0  0  0  0  0  0  0
   62.0228   33.1378   46.5321 H   0  0  0  0  0  0  0  0  0  0  0  0
   64.3664   32.3284   46.9816 H   0  0  0  0  0  0  0  0  0  0  0  0
   61.7986   34.6966   50.6025 H   0  0  0  0  0  0  0  0  0  0  0  0
   66.5085   33.9345   50.9508 H   0  0  0  0  0  0  0  0  0  0  0  0
   65.9183   32.3841   51.5510 H   0  0  0  0  0  0  0  0  0  0  0  0
   58.3353   35.3774   47.0711 H   0  0  0  0  0  0  0  0  0  0  0  0
   59.5611   35.5235   45.7343 H   0  0  0  0  0  0  0  0  0  0  0  0
   57.0185   33.9272   45.8534 H   0  0  0  0  0  0  0  0  0  0  0  0
   57.8073   34.7920   44.4740 H   0  0  0  0  0  0  0  0  0  0  0  0
   55.7354   28.2713   44.6896 H   0  0  0  0  0  0  0  0  0  0  0  0
   57.8313   25.7812   48.6311 H   0  0  0  0  0  0  0  0  0  0  0  0
   56.9175   24.7681   47.4626 H   0  0  0  0  0  0  0  0  0  0  0  0
   58.7136   24.7405   47.4626 H   0  0  0  0  0  0  0  0  0  0  0  0
  1  2  1  0
  2  3  1  0
  3  4  1  0
  4  5  1  0
  5  6  1  0
  6  7  1  0
  7  8  1  0
  8  9  1  0
  9 10  1  0
 10 11  1  0
 11 12  1  0
 12 13  2  0
 13 14  1  0
 14 15  2  0
 15 16  1  0
 16 17  2  0
 16 18  1  0
 18 19  1  0
 19 20  1  0
 10 21  1  0
 21 22  1  0
  3 23  2  0
 23 24  1  0
 24 25  2  0
 24 26  1  0
 26 27  1  0
 26 28  1  0
 28 29  2  0
 28  2  1  0
 22  7  1  0
 17 12  1  0
 20 15  1  0
  1 30  1  0
  1 31  1  0
  1 32  1  0
  4 33  1  0
  5 34  1  0
  5 35  1  0
  6 36  1  0
  6 37  1  0
  7 38  1  0
  8 39  1  0
  8 40  1  0
  9 41  1  0
  9 42  1  0
 11 43  1  0
 11 44  1  0
 13 45  1  0
 14 46  1  0
 17 47  1  0
 19 48  1  0
 19 49  1  0
 21 50  1  0
 21 51  1  0
 22 52  1  0
 22 53  1  0
 23 54  1  0
 27 55  1  0
 27 56  1  0
 27 57  1  0
M  CHG  1   7   1
M  END
>  <UniqueID>  (21) 
20

>  <SMILES>  (21) 
Cn1c(NCC[NH+]2CCN(Cc3ccc4c(c3)OCO4)CC2)cc(=O)n(C)c1=O

>  <Energy>  (21) 
112.44851801087178

>  <Genealogy>  (21) 
Cn1c(NCC[NH+]2CCN(Cc3ccc4c(c3)OCO4)CC2)cc(=O)n(C)c1=O (protonated)
Cn1c(NCC[NH+]2CCN(Cc3ccc4c(c3)OCO4)CC2)cc(=O)n(C)c1=O (3D coordinates assigned)
Cn1c(NCC[NH+]2CCN(Cc3ccc4c(c3)OCO4)CC2)cc(=O)n(C)c1=O (nonaromatic ring conformer: 112.44851801087178 kcal/mol)

>  <smiles>  (21) 
Cn1c(NCCN2CCN(Cc3ccc4c(c3)OCO4)CC2)cc(=O)n(C)c1=O

>  <score_type>  (21) 
oracle

>  <origin>  (21) 
adg

>  <m_score__min__energy>  (21) 
-6.5300000000000002

>  <m_primary>  (21) 
energy

$$$$
