0:0
     RDKit          3D

 44 46  0  0  0  0  0  0  0  0999 V2000
   60.4010   29.0350   45.9680 C   0  0  0  0  0  0  0  0  0  0  0  0
   59.1130   27.8080   45.5860 S   0  0  0  0  0  0  0  0  0  0  0  0
   58.1080   28.9750   44.6680 C   0  0  0  0  0  0  0  0  0  0  0  0
   57.4200   28.5590   43.5230 C   0  0  0  0  0  0  0  0  0  0  0  0
   56.6400   29.4690   42.8070 C   0  0  0  0  0  0  0  0  0  0  0  0
   56.5380   30.7950   43.2360 C   0  0  0  0  0  0  0  0  0  0  0  0
   57.2110   31.2210   44.3950 C   0  0  0  0  0  0  0  0  0  0  0  0
   57.1000   32.6600   44.8640 C   0  0  0  0  0  0  0  0  0  0  0  0
   58.2400   33.1240   45.6960 N   0  0  0  0  0  0  0  0  0  0  0  0
   58.6710   34.4980   45.3600 C   0  0  0  0  0  0  0  0  0  0  0  0
   60.0490   34.7860   45.9770 C   0  0  0  0  0  0  0  0  0  0  0  0
   60.2010   34.0900   47.2620 N   0  0  0  0  0  0  0  0  0  0  0  0
   61.5140   33.8580   47.8070 C   0  0  0  0  0  0  0  0  0  0  0  0
   62.5490   33.3750   46.9860 C   0  0  0  0  0  0  0  0  0  0  0  0
   63.8280   33.1630   47.5100 C   0  0  0  0  0  0  0  0  0  0  0  0
   64.0860   33.4330   48.8570 C   0  0  0  0  0  0  0  0  0  0  0  0
   63.0680   33.9210   49.6790 C   0  0  0  0  0  0  0  0  0  0  0  0
   61.7880   34.1360   49.1580 C   0  0  0  0  0  0  0  0  0  0  0  0
   58.9970   33.7410   48.0260 C   0  0  0  0  0  0  0  0  0  0  0  0
   57.9800   32.9740   47.1510 C   0  0  0  0  0  0  0  0  0  0  0  0
   58.0140   30.3050   45.0950 C   0  0  0  0  0  0  0  0  0  0  0  0
   60.5029   29.1321   47.0590 H   0  0  0  0  0  0  0  0  0  0  0  0
   61.3589   28.7071   45.5380 H   0  0  0  0  0  0  0  0  0  0  0  0
   60.1199   30.0077   45.5380 H   0  0  0  0  0  0  0  0  0  0  0  0
   57.4937   27.5143   43.1867 H   0  0  0  0  0  0  0  0  0  0  0  0
   56.1047   29.1416   41.9035 H   0  0  0  0  0  0  0  0  0  0  0  0
   55.9279   31.5095   42.6640 H   0  0  0  0  0  0  0  0  0  0  0  0
   57.0358   33.3070   43.9767 H   0  0  0  0  0  0  0  0  0  0  0  0
   56.2043   32.7146   45.5002 H   0  0  0  0  0  0  0  0  0  0  0  0
   59.0350   32.4810   45.4590 H   0  0  0  0  0  0  0  0  0  0  0  0
   58.7330   34.6026   44.2667 H   0  0  0  0  0  0  0  0  0  0  0  0
   57.9395   35.2133   45.7639 H   0  0  0  0  0  0  0  0  0  0  0  0
   60.8326   34.4423   45.2858 H   0  0  0  0  0  0  0  0  0  0  0  0
   60.1387   35.8687   46.1496 H   0  0  0  0  0  0  0  0  0  0  0  0
   62.3510   33.1627   45.9250 H   0  0  0  0  0  0  0  0  0  0  0  0
   64.6316   32.7835   46.8618 H   0  0  0  0  0  0  0  0  0  0  0  0
   65.0911   33.2610   49.2696 H   0  0  0  0  0  0  0  0  0  0  0  0
   63.2732   34.1366   50.7380 H   0  0  0  0  0  0  0  0  0  0  0  0
   60.9910   34.5248   49.8088 H   0  0  0  0  0  0  0  0  0  0  0  0
   59.2845   33.1088   48.8790 H   0  0  0  0  0  0  0  0  0  0  0  0
   58.5242   34.6715   48.3734 H   0  0  0  0  0  0  0  0  0  0  0  0
   58.0310   31.9057   47.4083 H   0  0  0  0  0  0  0  0  0  0  0  0
   56.9850   33.3970   47.3538 H   0  0  0  0  0  0  0  0  0  0  0  0
   58.5721   30.6347   45.9837 H   0  0  0  0  0  0  0  0  0  0  0  0
  1  2  1  0
  2  3  1  0
  3  4  2  0
  4  5  1  0
  5  6  2  0
  6  7  1  0
  7  8  1  0
  8  9  1  0
  9 10  1  0
 10 11  1  0
 11 12  1  0
 12 13  1  0
 13 14  2  0
 14 15  1  0
 15 16  2  0
 16 17  1  0
 17 18  2  0
 12 19  1  0
 19 20  1  0
  7 21  2  0
 21  3  1  0
 20  9  1  0
 18 13  1  0
  1 22  1  0
  1 23  1  0
  1 24  1  0
  4 25  1  0
  5 26  1  0
  6 27  1  0
  8 28  1  0
  8 29  1  0
  9 30  1  0
 10 31  1  0
 10 32  1  0
 11 33  1  0
 11 34  1  0
 14 35  1  0
 15 36  1  0
 16 37  1  0
 17 38  1  0
 18 39  1  0
 19 40  1  0
 19 41  1  0
 20 42  1  0
 20 43  1  0
 21 44  1  0
M  CHG  1   9   1
M  END
>  <UniqueID>  (1) 
1

>  <SMILES>  (1) 
CSc1cccc(C[NH+]2CCN(c3ccccc3)CC2)c1

>  <Energy>  (1) 
54.12487407206179

>  <Genealogy>  (1) 
CSc1cccc(C[NH+]2CCN(c3ccccc3)CC2)c1 (protonated)
CSc1cccc(C[NH+]2CCN(c3ccccc3)CC2)c1 (3D coordinates assigned)
CSc1cccc(C[NH+]2CCN(c3ccccc3)CC2)c1 (nonaromatic ring conformer: 54.12487407206179 kcal/mol)

>  <smiles>  (1) 
CSc1cccc(CN2CCN(c3ccccc3)CC2)c1

>  <score_type>  (1) 
oracle

>  <origin>  (1) 
adg

>  <m_score__min__energy>  (1) 
-6.0300000000000002

>  <m_primary>  (1) 
energy

$$$$
1:0
     RDKit          3D

 43 45  0  0  0  0  0  0  0  0999 V2000
   55.1460   29.7600   43.7820 C   0  0  0  0  0  0  0  0  0  0  0  0
   55.4110   28.9650   44.9340 O   0  0  0  0  0  0  0  0  0  0  0  0
   56.6590   28.3990   45.2350 C   0  0  0  0  0  0  0  0  0  0  0  0
   57.8690   29.0860   45.0190 C   0  0  0  0  0  0  0  0  0  0  0  0
   59.1050   28.4990   45.3570 C   0  0  0  0  0  0  0  0  0  0  0  0
   60.3670   29.3410   45.2340 C   0  0  2  0  0  0  0  0  0  0  0  0
   61.5780   28.6030   44.6280 C   0  0  0  0  0  0  0  0  0  0  0  0
   60.7020   30.0270   46.5030 N   0  0  0  0  0  0  0  0  0  0  0  0
   59.5750   30.7080   47.1710 C   0  0  0  0  0  0  0  0  0  0  0  0
   59.2760   32.0430   46.5200 C   0  0  0  0  0  0  0  0  0  0  0  0
   58.0740   32.2040   45.8030 C   0  0  0  0  0  0  0  0  0  0  0  0
   57.7460   33.4350   45.2320 C   0  0  0  0  0  0  0  0  0  0  0  0
   58.6220   34.5150   45.3450 C   0  0  0  0  0  0  0  0  0  0  0  0
   59.8390   34.3590   46.0090 C   0  0  0  0  0  0  0  0  0  0  0  0
   60.1840   33.1290   46.5840 C   0  0  0  0  0  0  0  0  0  0  0  0
   61.9030   33.0020   47.4280 Br  0  0  0  0  0  0  0  0  0  0  0  0
   59.1150   27.2040   45.9110 C   0  0  0  0  0  0  0  0  0  0  0  0
   57.9160   26.5270   46.1350 C   0  0  0  0  0  0  0  0  0  0  0  0
   56.6950   27.1120   45.7800 C   0  0  0  0  0  0  0  0  0  0  0  0
   55.5120   26.3960   45.9970 O   0  0  0  0  0  0  0  0  0  0  0  0
   55.5370   25.0020   46.3170 C   0  0  0  0  0  0  0  0  0  0  0  0
   56.7110   24.6960   47.2550 C   0  0  0  0  0  0  0  0  0  0  0  0
   57.9160   25.2640   46.7370 O   0  0  0  0  0  0  0  0  0  0  0  0
   54.8126   30.7603   44.0956 H   0  0  0  0  0  0  0  0  0  0  0  0
   56.0625   29.8508   43.1804 H   0  0  0  0  0  0  0  0  0  0  0  0
   54.3583   29.2828   43.1804 H   0  0  0  0  0  0  0  0  0  0  0  0
   57.8493   30.0946   44.5805 H   0  0  0  0  0  0  0  0  0  0  0  0
   60.1189   30.1148   44.4926 H   0  0  0  0  0  0  0  0  0  0  0  0
   62.2139   28.2155   45.4376 H   0  0  0  0  0  0  0  0  0  0  0  0
   61.2245   27.7666   44.0071 H   0  0  0  0  0  0  0  0  0  0  0  0
   62.1593   29.3005   44.0071 H   0  0  0  0  0  0  0  0  0  0  0  0
   61.1120   29.3280   47.1670 H   0  0  0  0  0  0  0  0  0  0  0  0
   58.6815   30.0697   47.1067 H   0  0  0  0  0  0  0  0  0  0  0  0
   59.8500   30.8870   48.2209 H   0  0  0  0  0  0  0  0  0  0  0  0
   57.3875   31.3517   45.6920 H   0  0  0  0  0  0  0  0  0  0  0  0
   56.7951   33.5537   44.6920 H   0  0  0  0  0  0  0  0  0  0  0  0
   58.3532   35.4892   44.9107 H   0  0  0  0  0  0  0  0  0  0  0  0
   60.5335   35.2089   46.0817 H   0  0  0  0  0  0  0  0  0  0  0  0
   60.0713   26.7250   46.1678 H   0  0  0  0  0  0  0  0  0  0  0  0
   54.5944   24.7257   46.8122 H   0  0  0  0  0  0  0  0  0  0  0  0
   55.6574   24.4225   45.3898 H   0  0  0  0  0  0  0  0  0  0  0  0
   56.5047   25.1237   48.2472 H   0  0  0  0  0  0  0  0  0  0  0  0
   56.8328   23.6057   47.3347 H   0  0  0  0  0  0  0  0  0  0  0  0
  1  2  1  0
  2  3  1  0
  3  4  2  0
  4  5  1  0
  5  6  1  0
  6  7  1  0
  6  8  1  0
  8  9  1  0
  9 10  1  0
 10 11  2  0
 11 12  1  0
 12 13  2  0
 13 14  1  0
 14 15  2  0
 15 16  1  0
  5 17  2  0
 17 18  1  0
 18 19  2  0
 19 20  1  0
 20 21  1  0
 21 22  1  0
 22 23  1  0
 19  3  1  0
 15 10  1  0
 23 18  1  0
  1 24  1  0
  1 25  1  0
  1 26  1  0
  4 27  1  0
  6 28  1  6
  7 29  1  0
  7 30  1  0
  7 31  1  0
  8 32  1  0
  9 33  1  0
  9 34  1  0
 11 35  1  0
 12 36  1  0
 13 37  1  0
 14 38  1  0
 17 39  1  0
 21 40  1  0
 21 41  1  0
 22 42  1  0
 22 43  1  0
M  END
>  <UniqueID>  (2) 
2

>  <SMILES>  (2) 
COc1cc([C@H](C)NCc2ccccc2Br)cc2c1OCCO2

>  <Energy>  (2) 
46.66584922409687

>  <Genealogy>  (2) 
COc1cc([C@H](C)NCc2ccccc2Br)cc2c1OCCO2 (chirality)
COc1cc([C@H](C)NCc2ccccc2Br)cc2c1OCCO2 (3D coordinates assigned)
COc1cc([C@H](C)NCc2ccccc2Br)cc2c1OCCO2 (nonaromatic ring conformer: 46.66584922409687 kcal/mol)

>  <smiles>  (2) 
COc1cc(C(C)NCc2ccccc2Br)cc2c1OCCO2

>  <score_type>  (2) 
oracle

>  <origin>  (2) 
adg

>  <m_score__min__energy>  (2) 
-8.0999999999999996

>  <m_primary>  (2) 
energy

$$$$
2:0
     RDKit          3D

 33 35  0  0  0  0  0  0  0  0999 V2000
   56.2640   29.7210   42.6040 C   0  0  0  0  0  0  0  0  0  0  0  0
   57.0490   30.4710   43.6390 C   0  0  0  0  0  0  0  0  0  0  0  0
   57.4850   29.8220   44.8030 C   0  0  0  0  0  0  0  0  0  0  0  0
   58.2470   30.5100   45.7510 C   0  0  0  0  0  0  0  0  0  0  0  0
   58.6000   31.8550   45.5450 C   0  0  0  0  0  0  0  0  0  0  0  0
   59.4080   32.5810   46.5560 C   0  0  0  0  0  0  0  0  0  0  0  0
   58.9080   33.7470   47.1620 C   0  0  0  0  0  0  0  0  0  0  0  0
   59.6780   34.4270   48.1050 C   0  0  0  0  0  0  0  0  0  0  0  0
   60.9440   33.9440   48.4430 C   0  0  0  0  0  0  0  0  0  0  0  0
   61.7510   34.5940   49.3850 C   0  0  0  0  0  0  0  0  0  0  0  0
   63.0100   34.0730   49.6950 C   0  0  0  0  0  0  0  0  0  0  0  0
   63.4510   32.9060   49.0570 C   0  0  0  0  0  0  0  0  0  0  0  0
   64.7950   32.3340   49.3760 C   0  0  0  0  0  0  0  0  0  0  0  0
   62.6520   32.2890   48.1440 N   0  0  0  0  0  0  0  0  0  0  0  0
   61.4210   32.7720   47.8210 C   0  0  0  0  0  0  0  0  0  0  0  0
   60.6510   32.1250   46.9020 N   0  0  0  0  0  0  0  0  0  0  0  0
   58.1760   32.4960   44.3680 C   0  0  0  0  0  0  0  0  0  0  0  0
   57.4110   31.8070   43.4200 C   0  0  0  0  0  0  0  0  0  0  0  0
   55.5547   29.0433   43.1016 H   0  0  0  0  0  0  0  0  0  0  0  0
   55.7104   30.4342   41.9757 H   0  0  0  0  0  0  0  0  0  0  0  0
   56.9513   29.1354   41.9757 H   0  0  0  0  0  0  0  0  0  0  0  0
   57.2259   28.7662   44.9707 H   0  0  0  0  0  0  0  0  0  0  0  0
   58.5734   29.9947   46.6663 H   0  0  0  0  0  0  0  0  0  0  0  0
   57.9099   34.1227   46.8924 H   0  0  0  0  0  0  0  0  0  0  0  0
   59.2899   35.3398   48.5805 H   0  0  0  0  0  0  0  0  0  0  0  0
   61.3955   35.5105   49.8786 H   0  0  0  0  0  0  0  0  0  0  0  0
   63.6505   34.5755   50.4348 H   0  0  0  0  0  0  0  0  0  0  0  0
   64.9210   32.2804   50.4674 H   0  0  0  0  0  0  0  0  0  0  0  0
   64.8747   31.3240   48.9476 H   0  0  0  0  0  0  0  0  0  0  0  0
   65.5781   32.9768   48.9476 H   0  0  0  0  0  0  0  0  0  0  0  0
   61.0220   31.2480   46.4710 H   0  0  0  0  0  0  0  0  0  0  0  0
   58.4475   33.5471   44.1907 H   0  0  0  0  0  0  0  0  0  0  0  0
   57.0924   32.3165   42.4987 H   0  0  0  0  0  0  0  0  0  0  0  0
  1  2  1  0
  2  3  2  0
  3  4  1  0
  4  5  2  0
  5  6  1  0
  6  7  2  0
  7  8  1  0
  8  9  2  0
  9 10  1  0
 10 11  2  0
 11 12  1  0
 12 13  1  0
 12 14  2  0
 14 15  1  0
 15 16  2  0
  5 17  1  0
 17 18  2  0
 18  2  1  0
 16  6  1  0
 15  9  1  0
  1 19  1  0
  1 20  1  0
  1 21  1  0
  3 22  1  0
  4 23  1  0
  7 24  1  0
  8 25  1  0
 10 26  1  0
 11 27  1  0
 13 28  1  0
 13 29  1  0
 13 30  1  0
 16 31  1  0
 17 32  1  0
 18 33  1  0
M  CHG  1  16   1
M  END
>  <UniqueID>  (3) 
3

>  <SMILES>  (3) 
Cc1ccc(-c2ccc3ccc(C)nc3[nH+]2)cc1

>  <Energy>  (3) 
41.79043383265382

>  <Genealogy>  (3) 
Cc1ccc(-c2ccc3ccc(C)nc3[nH+]2)cc1 (protonated)
Cc1ccc(-c2ccc3ccc(C)nc3[nH+]2)cc1 (3D coordinates assigned)
Cc1ccc(-c2ccc3ccc(C)nc3[nH+]2)cc1 (optimized conformer: 41.79043383265382 kcal/mol)

>  <smiles>  (3) 
Cc1ccc(-c2ccc3ccc(C)nc3n2)cc1

>  <score_type>  (3) 
oracle

>  <origin>  (3) 
adg

>  <m_score__min__energy>  (3) 
-5.4800000000000004

>  <m_primary>  (3) 
energy

$$$$
3:0
     RDKit          3D

 54 56  0  0  0  0  0  0  0  0999 V2000
   66.6730   32.7300   50.1510 C   0  0  0  0  0  0  0  0  0  0  0  0
   65.4140   33.0630   50.7260 O   0  0  0  0  0  0  0  0  0  0  0  0
   64.2310   33.2410   49.9940 C   0  0  0  0  0  0  0  0  0  0  0  0
   63.1740   34.0520   50.4510 C   0  0  0  0  0  0  0  0  0  0  0  0
   62.0180   34.2040   49.6790 C   0  0  0  0  0  0  0  0  0  0  0  0
   61.8940   33.5440   48.4460 C   0  0  0  0  0  0  0  0  0  0  0  0
   60.6680   33.7170   47.6270 C   0  0  0  0  0  0  0  0  0  0  0  0
   60.7140   34.5700   46.5130 C   0  0  0  0  0  0  0  0  0  0  0  0
   59.6090   34.6940   45.6730 C   0  0  0  0  0  0  0  0  0  0  0  0
   58.4560   33.9600   45.9480 C   0  0  0  0  0  0  0  0  0  0  0  0
   57.0220   34.0900   44.8820 S   0  0  0  0  0  0  0  0  0  0  0  0
   57.5070   32.7050   43.7870 C   0  0  0  0  0  0  0  0  0  0  0  0
   58.0360   31.5000   44.5770 C   0  0  0  0  0  0  0  0  0  0  0  0
   56.9410   30.5630   44.9140 N   0  0  0  0  0  0  0  0  0  0  0  0
   57.4610   29.3730   45.6090 C   0  0  0  0  0  0  0  0  0  0  0  0
   56.2260   30.1500   43.6960 C   0  0  0  0  0  0  0  0  0  0  0  0
   58.4170   33.1420   47.0300 N   0  0  0  0  0  0  0  0  0  0  0  0
   59.4670   33.0070   47.8870 C   0  0  0  0  0  0  0  0  0  0  0  0
   59.2800   32.1490   49.0790 C   0  0  0  0  0  0  0  0  0  0  0  0
   58.9330   32.7040   50.3220 C   0  0  0  0  0  0  0  0  0  0  0  0
   58.7310   31.8790   51.4320 C   0  0  0  0  0  0  0  0  0  0  0  0
   58.8560   30.4900   51.3180 C   0  0  0  0  0  0  0  0  0  0  0  0
   58.6460   29.7060   52.4620 O   0  0  0  0  0  0  0  0  0  0  0  0
   57.4040   29.6080   53.1510 C   0  0  0  0  0  0  0  0  0  0  0  0
   59.1820   29.9310   50.0680 C   0  0  0  0  0  0  0  0  0  0  0  0
   59.3850   30.7550   48.9580 C   0  0  0  0  0  0  0  0  0  0  0  0
   62.9510   32.7400   47.9910 C   0  0  0  0  0  0  0  0  0  0  0  0
   64.1070   32.5880   48.7620 C   0  0  0  0  0  0  0  0  0  0  0  0
   67.4022   32.5371   50.9516 H   0  0  0  0  0  0  0  0  0  0  0  0
   66.5651   31.8295   49.5285 H   0  0  0  0  0  0  0  0  0  0  0  0
   67.0244   33.5661   49.5285 H   0  0  0  0  0  0  0  0  0  0  0  0
   63.2582   34.5678   51.4189 H   0  0  0  0  0  0  0  0  0  0  0  0
   61.2003   34.8450   50.0402 H   0  0  0  0  0  0  0  0  0  0  0  0
   61.6282   35.1442   46.3018 H   0  0  0  0  0  0  0  0  0  0  0  0
   59.6461   35.3643   44.8016 H   0  0  0  0  0  0  0  0  0  0  0  0
   56.6287   32.3892   43.2049 H   0  0  0  0  0  0  0  0  0  0  0  0
   58.3152   33.0601   43.1307 H   0  0  0  0  0  0  0  0  0  0  0  0
   58.7859   30.9728   43.9691 H   0  0  0  0  0  0  0  0  0  0  0  0
   58.4848   31.8648   45.5127 H   0  0  0  0  0  0  0  0  0  0  0  0
   57.3945   29.5252   46.6964 H   0  0  0  0  0  0  0  0  0  0  0  0
   56.8654   28.4929   45.3248 H   0  0  0  0  0  0  0  0  0  0  0  0
   58.5114   29.2122   45.3248 H   0  0  0  0  0  0  0  0  0  0  0  0
   55.3045   29.6177   43.9744 H   0  0  0  0  0  0  0  0  0  0  0  0
   55.9703   31.0395   43.1015 H   0  0  0  0  0  0  0  0  0  0  0  0
   56.8687   29.4840   43.1015 H   0  0  0  0  0  0  0  0  0  0  0  0
   58.8197   33.7935   50.4222 H   0  0  0  0  0  0  0  0  0  0  0  0
   58.4716   32.3254   52.4033 H   0  0  0  0  0  0  0  0  0  0  0  0
   57.5845   29.6222   54.2360 H   0  0  0  0  0  0  0  0  0  0  0  0
   56.7633   30.4584   52.8747 H   0  0  0  0  0  0  0  0  0  0  0  0
   56.9046   28.6677   52.8747 H   0  0  0  0  0  0  0  0  0  0  0  0
   59.2774   28.8400   49.9645 H   0  0  0  0  0  0  0  0  0  0  0  0
   59.6287   30.3080   47.9829 H   0  0  0  0  0  0  0  0  0  0  0  0
   62.8690   32.2264   47.0217 H   0  0  0  0  0  0  0  0  0  0  0  0
   64.9258   31.9502   48.3977 H   0  0  0  0  0  0  0  0  0  0  0  0
  1  2  1  0
  2  3  1  0
  3  4  2  0
  4  5  1  0
  5  6  2  0
  6  7  1  0
  7  8  2  0
  8  9  1  0
  9 10  2  0
 10 11  1  0
 11 12  1  0
 12 13  1  0
 13 14  1  0
 14 15  1  0
 14 16  1  0
 10 17  1  0
 17 18  2  0
 18 19  1  0
 19 20  2  0
 20 21  1  0
 21 22  2  0
 22 23  1  0
 23 24  1  0
 22 25  1  0
 25 26  2  0
  6 27  1  0
 27 28  2  0
 28  3  1  0
 18  7  1  0
 26 19  1  0
  1 29  1  0
  1 30  1  0
  1 31  1  0
  4 32  1  0
  5 33  1  0
  8 34  1  0
  9 35  1  0
 12 36  1  0
 12 37  1  0
 13 38  1  0
 13 39  1  0
 15 40  1  0
 15 41  1  0
 15 42  1  0
 16 43  1  0
 16 44  1  0
 16 45  1  0
 20 46  1  0
 21 47  1  0
 24 48  1  0
 24 49  1  0
 24 50  1  0
 25 51  1  0
 26 52  1  0
 27 53  1  0
 28 54  1  0
M  END
>  <UniqueID>  (4) 
4

>  <SMILES>  (4) 
COc1ccc(-c2ccc(SCCN(C)C)nc2-c2ccc(OC)cc2)cc1

>  <Energy>  (4) 
61.54160928305187

>  <Genealogy>  (4) 
COc1ccc(-c2ccc(SCCN(C)C)nc2-c2ccc(OC)cc2)cc1 (3D coordinates assigned)
COc1ccc(-c2ccc(SCCN(C)C)nc2-c2ccc(OC)cc2)cc1 (optimized conformer: 61.54160928305187 kcal/mol)

>  <smiles>  (4) 
COc1ccc(-c2ccc(SCCN(C)C)nc2-c2ccc(OC)cc2)cc1

>  <score_type>  (4) 
oracle

>  <origin>  (4) 
adg

>  <m_score__min__energy>  (4) 
-7.7599999999999998

>  <m_primary>  (4) 
energy

$$$$
4:0
     RDKit          3D

 32 33  0  0  0  0  0  0  0  0999 V2000
   58.0980   32.7840   46.7560 C   0  0  0  0  0  0  0  0  0  0  0  0
   58.1690   31.3010   46.4010 C   0  0  0  0  0  0  0  0  0  0  0  0
   57.6960   31.0570   44.9850 C   0  0  0  0  0  0  0  0  0  0  0  0
   57.8630   32.0780   44.0320 C   0  0  0  0  0  0  0  0  0  0  0  0
   57.3990   31.9170   42.7260 C   0  0  0  0  0  0  0  0  0  0  0  0
   56.7530   30.7400   42.3540 C   0  0  0  0  0  0  0  0  0  0  0  0
   56.5670   29.7200   43.2890 C   0  0  0  0  0  0  0  0  0  0  0  0
   57.0230   29.8660   44.6110 C   0  0  0  0  0  0  0  0  0  0  0  0
   56.8170   28.7960   45.5540 N   0  0  0  0  0  0  0  0  0  0  0  0
   57.8390   27.8420   45.8920 C   0  0  0  0  0  0  0  0  0  0  0  0
   59.1910   28.2270   45.8150 C   0  0  0  0  0  0  0  0  0  0  0  0
   60.2070   27.3020   46.0490 C   0  0  0  0  0  0  0  0  0  0  0  0
   59.8920   25.9800   46.3530 C   0  0  0  0  0  0  0  0  0  0  0  0
   58.5570   25.5790   46.4330 C   0  0  0  0  0  0  0  0  0  0  0  0
   57.5140   26.4990   46.2150 C   0  0  0  0  0  0  0  0  0  0  0  0
   56.1150   26.0360   46.3750 C   0  0  0  0  0  0  0  0  0  0  0  0
   55.1490   26.7400   45.9800 O   0  0  0  0  0  0  0  0  0  0  0  0
   55.8470   24.8280   47.0110 O   0  0  0  0  0  0  0  0  0  0  0  0
   58.0925   32.8993   47.8499 H   0  0  0  0  0  0  0  0  0  0  0  0
   58.9723   33.3036   46.3369 H   0  0  0  0  0  0  0  0  0  0  0  0
   57.1781   33.2177   46.3369 H   0  0  0  0  0  0  0  0  0  0  0  0
   59.2099   30.9582   46.4962 H   0  0  0  0  0  0  0  0  0  0  0  0
   57.5146   30.7453   47.0887 H   0  0  0  0  0  0  0  0  0  0  0  0
   58.3649   33.0136   44.3195 H   0  0  0  0  0  0  0  0  0  0  0  0
   57.5435   32.7207   41.9889 H   0  0  0  0  0  0  0  0  0  0  0  0
   56.3894   30.6143   41.3235 H   0  0  0  0  0  0  0  0  0  0  0  0
   56.0583   28.7922   42.9882 H   0  0  0  0  0  0  0  0  0  0  0  0
   55.8740   28.6680   45.9820 H   0  0  0  0  0  0  0  0  0  0  0  0
   59.4479   29.2676   45.5678 H   0  0  0  0  0  0  0  0  0  0  0  0
   61.2595   27.6168   45.9935 H   0  0  0  0  0  0  0  0  0  0  0  0
   60.6961   25.2506   46.5304 H   0  0  0  0  0  0  0  0  0  0  0  0
   58.3174   24.5317   46.6692 H   0  0  0  0  0  0  0  0  0  0  0  0
  1  2  1  0
  2  3  1  0
  3  4  2  0
  4  5  1  0
  5  6  2  0
  6  7  1  0
  7  8  2  0
  8  9  1  0
  9 10  1  0
 10 11  2  0
 11 12  1  0
 12 13  2  0
 13 14  1  0
 14 15  2  0
 15 16  1  0
 16 17  2  0
 16 18  1  0
  8  3  1  0
 15 10  1  0
  1 19  1  0
  1 20  1  0
  1 21  1  0
  2 22  1  0
  2 23  1  0
  4 24  1  0
  5 25  1  0
  6 26  1  0
  7 27  1  0
  9 28  1  0
 11 29  1  0
 12 30  1  0
 13 31  1  0
 14 32  1  0
M  CHG  1  18  -1
M  END
>  <UniqueID>  (5) 
5

>  <SMILES>  (5) 
CCc1ccccc1Nc1ccccc1C(=O)[O-]

>  <Energy>  (5) 
40.690177646773066

>  <Genealogy>  (5) 
CCc1ccccc1Nc1ccccc1C(=O)[O-] (protonated)
CCc1ccccc1Nc1ccccc1C(=O)[O-] (3D coordinates assigned)
CCc1ccccc1Nc1ccccc1C(=O)[O-] (optimized conformer: 40.690177646773066 kcal/mol)

>  <smiles>  (5) 
CCc1ccccc1Nc1ccccc1C(=O)O

>  <score_type>  (5) 
oracle

>  <origin>  (5) 
adg

>  <m_score__min__energy>  (5) 
-9.7200000000000006

>  <m_primary>  (5) 
energy

$$$$
5:0
     RDKit          3D

 42 45  0  0  0  0  0  0  0  0999 V2000
   64.6090   32.5160   49.3740 C   0  0  0  0  0  0  0  0  0  0  0  0
   63.4040   33.1180   48.7230 C   0  0  0  0  0  0  0  0  0  0  0  0
   63.3700   33.3080   47.3360 C   0  0  0  0  0  0  0  0  0  0  0  0
   62.2290   33.8560   46.7480 C   0  0  0  0  0  0  0  0  0  0  0  0
   61.1330   34.2160   47.5440 C   0  0  0  0  0  0  0  0  0  0  0  0
   59.8810   34.7680   46.9180 C   0  0  0  0  0  0  0  0  0  0  0  0
   59.0890   33.6800   46.3320 N   0  0  0  0  0  0  0  0  0  0  0  0
   57.8360   33.9580   45.8160 C   0  0  0  0  0  0  0  0  0  0  0  0
   57.0220   32.9430   45.2730 C   0  0  0  0  0  0  0  0  0  0  0  0
   57.5330   31.6580   45.2880 C   0  0  0  0  0  0  0  0  0  0  0  0
   56.9810   30.5190   44.8540 N   0  0  0  0  0  0  0  0  0  0  0  0
   57.9330   29.5820   45.1370 C   0  0  0  0  0  0  0  0  0  0  0  0
   57.7550   28.1450   44.8270 C   0  0  0  0  0  0  0  0  0  0  0  0
   57.9220   27.6740   43.5130 C   0  0  0  0  0  0  0  0  0  0  0  0
   57.7690   26.3170   43.2260 C   0  0  0  0  0  0  0  0  0  0  0  0
   57.4400   25.4150   44.2390 C   0  0  0  0  0  0  0  0  0  0  0  0
   57.2410   25.8660   45.5540 C   0  0  0  0  0  0  0  0  0  0  0  0
   56.9330   24.8880   46.6600 C   0  0  0  0  0  0  0  0  0  0  0  0
   55.5770   24.6110   46.7020 F   0  0  0  0  0  0  0  0  0  0  0  0
   57.6120   23.6970   46.4660 F   0  0  0  0  0  0  0  0  0  0  0  0
   57.3200   25.4330   47.8710 F   0  0  0  0  0  0  0  0  0  0  0  0
   57.4240   27.2300   45.8440 C   0  0  0  0  0  0  0  0  0  0  0  0
   59.0610   30.0720   45.7310 N   0  0  0  0  0  0  0  0  0  0  0  0
   58.8080   31.3840   45.8250 C   0  0  0  0  0  0  0  0  0  0  0  0
   59.5870   32.3980   46.3530 C   0  0  0  0  0  0  0  0  0  0  0  0
   61.2020   33.9920   48.9260 C   0  0  0  0  0  0  0  0  0  0  0  0
   62.3230   33.4560   49.4780 N   0  0  0  0  0  0  0  0  0  0  0  0
   64.5006   32.5701   50.4673 H   0  0  0  0  0  0  0  0  0  0  0  0
   64.7048   31.4642   49.0667 H   0  0  0  0  0  0  0  0  0  0  0  0
   65.5076   33.0711   49.0667 H   0  0  0  0  0  0  0  0  0  0  0  0
   64.2343   33.0280   46.7159 H   0  0  0  0  0  0  0  0  0  0  0  0
   62.1899   34.0055   45.6589 H   0  0  0  0  0  0  0  0  0  0  0  0
   59.2840   35.2790   47.6877 H   0  0  0  0  0  0  0  0  0  0  0  0
   60.1576   35.4794   46.1259 H   0  0  0  0  0  0  0  0  0  0  0  0
   57.4665   34.9940   45.8297 H   0  0  0  0  0  0  0  0  0  0  0  0
   56.0276   33.1627   44.8571 H   0  0  0  0  0  0  0  0  0  0  0  0
   58.1746   28.3787   42.7070 H   0  0  0  0  0  0  0  0  0  0  0  0
   57.9084   25.9564   42.1962 H   0  0  0  0  0  0  0  0  0  0  0  0
   57.3360   24.3450   44.0061 H   0  0  0  0  0  0  0  0  0  0  0  0
   57.3070   27.5860   46.8782 H   0  0  0  0  0  0  0  0  0  0  0  0
   60.5787   32.1846   46.7785 H   0  0  0  0  0  0  0  0  0  0  0  0
   60.3459   34.2509   49.5664 H   0  0  0  0  0  0  0  0  0  0  0  0
  1  2  1  0
  2  3  2  0
  3  4  1  0
  4  5  2  0
  5  6  1  0
  6  7  1  0
  7  8  1  0
  8  9  2  0
  9 10  1  0
 10 11  2  0
 11 12  1  0
 12 13  1  0
 13 14  2  0
 14 15  1  0
 15 16  2  0
 16 17  1  0
 17 18  1  0
 18 19  1  0
 18 20  1  0
 18 21  1  0
 17 22  2  0
 12 23  2  0
 23 24  1  0
 24 25  2  0
  5 26  1  0
 26 27  2  0
 27  2  1  0
 25  7  1  0
 24 10  1  0
 22 13  1  0
  1 28  1  0
  1 29  1  0
  1 30  1  0
  3 31  1  0
  4 32  1  0
  6 33  1  0
  6 34  1  0
  8 35  1  0
  9 36  1  0
 14 37  1  0
 15 38  1  0
 16 39  1  0
 22 40  1  0
 25 41  1  0
 26 42  1  0
M  END
>  <UniqueID>  (6) 
6

>  <SMILES>  (6) 
Cc1ccc(Cn2ccc3nc(-c4cccc(C(F)(F)F)c4)nc-3c2)cn1

>  <Energy>  (6) 
83.81714910944068

>  <Genealogy>  (6) 
Cc1ccc(Cn2ccc3nc(-c4cccc(C(F)(F)F)c4)nc-3c2)cn1 (3D coordinates assigned)
Cc1ccc(Cn2ccc3nc(-c4cccc(C(F)(F)F)c4)nc-3c2)cn1 (optimized conformer: 83.81714910944068 kcal/mol)

>  <smiles>  (6) 
Cc1ccc(Cn2ccc3nc(-c4cccc(C(F)(F)F)c4)nc-3c2)cn1

>  <score_type>  (6) 
oracle

>  <origin>  (6) 
adg

>  <m_score__min__energy>  (6) 
-8.0700000000000003

>  <m_primary>  (6) 
energy

$$$$
6:0
     RDKit          3D

 49 52  0  0  0  0  0  0  0  0999 V2000
   62.6930   32.3680   50.0520 C   0  0  0  0  0  0  0  0  0  0  0  0
   61.8170   33.0070   49.0100 C   0  0  0  0  0  0  0  0  0  0  0  0
   62.3810   33.4400   47.8030 C   0  0  0  0  0  0  0  0  0  0  0  0
   61.5830   34.0390   46.8300 C   0  0  0  0  0  0  0  0  0  0  0  0
   60.2150   34.2100   47.0680 C   0  0  0  0  0  0  0  0  0  0  0  0
   59.3390   34.8780   46.0440 C   0  0  0  0  0  0  0  0  0  0  0  0
   58.9110   33.8930   45.0330 N   0  0  0  0  0  0  0  0  0  0  0  0
   57.4430   33.8230   44.9390 C   0  0  0  0  0  0  0  0  0  0  0  0
   57.3980   32.3970   45.4660 C   0  0  0  0  0  0  0  0  0  0  0  0
   56.9430   31.4160   44.4750 N   0  0  0  0  0  0  0  0  0  0  0  0
   57.3110   31.3210   43.1790 C   0  0  0  0  0  0  0  0  0  0  0  0
   56.6420   30.2570   42.6140 C   0  0  0  0  0  0  0  0  0  0  0  0
   55.8700   29.7430   43.6360 C   0  0  0  0  0  0  0  0  0  0  0  0
   56.0690   30.4630   44.7570 N   0  0  0  0  0  0  0  0  0  0  0  0
   58.9120   32.5170   45.5600 C   0  0  0  0  0  0  0  0  0  0  0  0
   59.6820   33.8070   48.2580 N   0  0  0  0  0  0  0  0  0  0  0  0
   60.4420   33.2270   49.2300 C   0  0  0  0  0  0  0  0  0  0  0  0
   59.8200   32.8410   50.4640 N   0  0  0  0  0  0  0  0  0  0  0  0
   59.2690   31.4900   50.6050 C   0  0  0  0  0  0  0  0  0  0  0  0
   57.7790   31.5560   50.9690 C   0  0  0  0  0  0  0  0  0  0  0  0
   57.4410   32.6520   52.0060 C   0  0  0  0  0  0  0  0  0  0  0  0
   58.6830   33.3180   52.6130 C   0  0  0  0  0  0  0  0  0  0  0  0
   59.6020   33.8510   51.5070 C   0  0  0  0  0  0  0  0  0  0  0  0
   62.3260   32.6357   51.0538 H   0  0  0  0  0  0  0  0  0  0  0  0
   62.6676   31.2748   49.9322 H   0  0  0  0  0  0  0  0  0  0  0  0
   63.7262   32.7261   49.9322 H   0  0  0  0  0  0  0  0  0  0  0  0
   63.4579   33.3067   47.6225 H   0  0  0  0  0  0  0  0  0  0  0  0
   62.0259   34.3752   45.8809 H   0  0  0  0  0  0  0  0  0  0  0  0
   58.4529   35.2997   46.5409 H   0  0  0  0  0  0  0  0  0  0  0  0
   59.9053   35.6817   45.5507 H   0  0  0  0  0  0  0  0  0  0  0  0
   56.9283   34.5458   45.5890 H   0  0  0  0  0  0  0  0  0  0  0  0
   56.9624   34.0472   43.9753 H   0  0  0  0  0  0  0  0  0  0  0  0
   56.7675   32.0902   46.3136 H   0  0  0  0  0  0  0  0  0  0  0  0
   58.0236   31.9808   42.6623 H   0  0  0  0  0  0  0  0  0  0  0  0
   56.7086   29.8967   41.5768 H   0  0  0  0  0  0  0  0  0  0  0  0
   55.1958   28.8783   43.5486 H   0  0  0  0  0  0  0  0  0  0  0  0
   59.2937   32.4429   46.5890 H   0  0  0  0  0  0  0  0  0  0  0  0
   59.5360   31.7593   45.0636 H   0  0  0  0  0  0  0  0  0  0  0  0
   58.6640   33.9580   48.4380 H   0  0  0  0  0  0  0  0  0  0  0  0
   59.3864   30.9495   49.6542 H   0  0  0  0  0  0  0  0  0  0  0  0
   59.8097   30.9656   51.4067 H   0  0  0  0  0  0  0  0  0  0  0  0
   57.2059   31.7570   50.0518 H   0  0  0  0  0  0  0  0  0  0  0  0
   57.5161   30.5900   51.4246 H   0  0  0  0  0  0  0  0  0  0  0  0
   56.8365   33.4263   51.5110 H   0  0  0  0  0  0  0  0  0  0  0  0
   56.8978   32.1648   52.8292 H   0  0  0  0  0  0  0  0  0  0  0  0
   58.3681   34.1533   53.2557 H   0  0  0  0  0  0  0  0  0  0  0  0
   59.2338   32.5714   53.2038 H   0  0  0  0  0  0  0  0  0  0  0  0
   59.1395   34.7403   51.0540 H   0  0  0  0  0  0  0  0  0  0  0  0
   60.5743   34.1044   51.9546 H   0  0  0  0  0  0  0  0  0  0  0  0
  1  2  1  0
  2  3  2  0
  3  4  1  0
  4  5  2  0
  5  6  1  0
  6  7  1  0
  7  8  1  0
  8  9  1  0
  9 10  1  0
 10 11  1  0
 11 12  2  0
 12 13  1  0
 13 14  2  0
  9 15  1  0
  5 16  1  0
 16 17  2  0
 17 18  1  0
 18 19  1  0
 19 20  1  0
 20 21  1  0
 21 22  1  0
 22 23  1  0
 17  2  1  0
 23 18  1  0
 15  7  1  0
 14 10  1  0
  1 24  1  0
  1 25  1  0
  1 26  1  0
  3 27  1  0
  4 28  1  0
  6 29  1  0
  6 30  1  0
  8 31  1  0
  8 32  1  0
  9 33  1  0
 11 34  1  0
 12 35  1  0
 13 36  1  0
 15 37  1  0
 15 38  1  0
 16 39  1  0
 19 40  1  0
 19 41  1  0
 20 42  1  0
 20 43  1  0
 21 44  1  0
 21 45  1  0
 22 46  1  0
 22 47  1  0
 23 48  1  0
 23 49  1  0
M  CHG  1  16   1
M  END
>  <UniqueID>  (7) 
7

>  <SMILES>  (7) 
Cc1ccc(CN2CC(n3cccn3)C2)[nH+]c1N1CCCCC1

>  <Energy>  (7) 
156.57644186571343

>  <Genealogy>  (7) 
Cc1ccc(CN2CC(n3cccn3)C2)[nH+]c1N1CCCCC1 (protonated)
Cc1ccc(CN2CC(n3cccn3)C2)[nH+]c1N1CCCCC1 (3D coordinates assigned)
Cc1ccc(CN2CC(n3cccn3)C2)[nH+]c1N1CCCCC1 (nonaromatic ring conformer: 156.57644186571343 kcal/mol)

>  <smiles>  (7) 
Cc1ccc(CN2CC(n3cccn3)C2)nc1N1CCCCC1

>  <score_type>  (7) 
oracle

>  <origin>  (7) 
adg

>  <m_score__min__energy>  (7) 
-6.5599999999999996

>  <m_primary>  (7) 
energy

$$$$
7:0
     RDKit          3D

 50 52  0  0  0  0  0  0  0  0999 V2000
   58.9540   30.3580   51.2660 F   0  0  0  0  0  0  0  0  0  0  0  0
   58.6980   30.2590   49.9110 C   0  0  0  0  0  0  0  0  0  0  0  0
   58.4200   31.5180   49.4130 F   0  0  0  0  0  0  0  0  0  0  0  0
   59.8310   29.7290   49.2300 O   0  0  0  0  0  0  0  0  0  0  0  0
   59.8220   29.2480   47.9100 C   0  0  0  0  0  0  0  0  0  0  0  0
   58.8970   28.2730   47.4790 C   0  0  0  0  0  0  0  0  0  0  0  0
   58.9040   27.8260   46.1560 C   0  0  0  0  0  0  0  0  0  0  0  0
   59.8300   28.3410   45.2470 C   0  0  0  0  0  0  0  0  0  0  0  0
   60.7500   29.3060   45.6570 C   0  0  0  0  0  0  0  0  0  0  0  0
   60.7570   29.7650   46.9860 C   0  0  0  0  0  0  0  0  0  0  0  0
   61.7190   30.8580   47.3930 C   0  0  0  0  0  0  0  0  0  0  0  0
   61.1750   31.7200   48.4610 N   0  0  0  0  0  0  0  0  0  0  0  0
   61.7100   33.1100   48.4360 C   0  0  0  0  0  0  0  0  0  0  0  0
   62.0960   33.5620   47.0000 C   0  0  0  0  0  0  0  0  0  0  0  0
   60.9160   34.1800   46.2210 C   0  0  0  0  0  0  0  0  0  0  0  0
   59.6330   33.7020   46.7670 N   0  0  0  0  0  0  0  0  0  0  0  0
   58.5130   34.0610   45.8740 C   0  0  0  0  0  0  0  0  0  0  0  0
   58.1440   32.8940   44.9960 C   0  0  0  0  0  0  0  0  0  0  0  0
   58.1410   33.0220   43.5990 C   0  0  0  0  0  0  0  0  0  0  0  0
   57.7660   31.9430   42.7930 C   0  0  0  0  0  0  0  0  0  0  0  0
   57.3890   30.7310   43.3770 C   0  0  0  0  0  0  0  0  0  0  0  0
   57.3870   30.5950   44.7670 C   0  0  0  0  0  0  0  0  0  0  0  0
   57.7590   31.6740   45.5770 C   0  0  0  0  0  0  0  0  0  0  0  0
   59.4210   34.2240   48.1390 C   0  0  0  0  0  0  0  0  0  0  0  0
   60.6890   34.1130   49.0150 C   0  0  0  0  0  0  0  0  0  0  0  0
   57.8406   29.5877   49.7552 H   0  0  0  0  0  0  0  0  0  0  0  0
   58.1653   27.8623   48.1903 H   0  0  0  0  0  0  0  0  0  0  0  0
   58.1784   27.0665   45.8294 H   0  0  0  0  0  0  0  0  0  0  0  0
   59.8341   27.9853   44.2061 H   0  0  0  0  0  0  0  0  0  0  0  0
   61.4751   29.7107   44.9356 H   0  0  0  0  0  0  0  0  0  0  0  0
   62.6487   30.3936   47.7535 H   0  0  0  0  0  0  0  0  0  0  0  0
   61.8989   31.4908   46.5114 H   0  0  0  0  0  0  0  0  0  0  0  0
   61.4300   31.2590   49.3670 H   0  0  0  0  0  0  0  0  0  0  0  0
   60.1290   31.7170   48.4180 H   0  0  0  0  0  0  0  0  0  0  0  0
   62.6157   33.1014   49.0602 H   0  0  0  0  0  0  0  0  0  0  0  0
   62.8980   34.3114   47.0728 H   0  0  0  0  0  0  0  0  0  0  0  0
   62.4179   32.6655   46.4499 H   0  0  0  0  0  0  0  0  0  0  0  0
   60.9601   35.2759   46.3057 H   0  0  0  0  0  0  0  0  0  0  0  0
   60.9887   33.8791   45.1655 H   0  0  0  0  0  0  0  0  0  0  0  0
   57.6420   34.3461   46.4823 H   0  0  0  0  0  0  0  0  0  0  0  0
   58.8218   34.9025   45.2364 H   0  0  0  0  0  0  0  0  0  0  0  0
   58.4350   33.9754   43.1358 H   0  0  0  0  0  0  0  0  0  0  0  0
   57.7678   32.0483   41.6981 H   0  0  0  0  0  0  0  0  0  0  0  0
   57.0935   29.8832   42.7415 H   0  0  0  0  0  0  0  0  0  0  0  0
   57.0929   29.6393   45.2254 H   0  0  0  0  0  0  0  0  0  0  0  0
   57.7499   31.5666   46.6717 H   0  0  0  0  0  0  0  0  0  0  0  0
   59.1291   35.2825   48.0729 H   0  0  0  0  0  0  0  0  0  0  0  0
   58.6340   33.6170   48.6104 H   0  0  0  0  0  0  0  0  0  0  0  0
   61.1629   35.1036   49.0800 H   0  0  0  0  0  0  0  0  0  0  0  0
   60.3838   33.7502   50.0076 H   0  0  0  0  0  0  0  0  0  0  0  0
  1  2  1  0
  2  3  1  0
  2  4  1  0
  4  5  1  0
  5  6  2  0
  6  7  1  0
  7  8  2  0
  8  9  1  0
  9 10  2  0
 10 11  1  0
 11 12  1  0
 12 13  1  0
 13 14  1  0
 14 15  1  0
 15 16  1  0
 16 17  1  0
 17 18  1  0
 18 19  2  0
 19 20  1  0
 20 21  2  0
 21 22  1  0
 22 23  2  0
 16 24  1  0
 24 25  1  0
 10  5  1  0
 25 13  1  0
 23 18  1  0
  2 26  1  0
  6 27  1  0
  7 28  1  0
  8 29  1  0
  9 30  1  0
 11 31  1  0
 11 32  1  0
 12 33  1  0
 12 34  1  0
 13 35  1  0
 14 36  1  0
 14 37  1  0
 15 38  1  0
 15 39  1  0
 17 40  1  0
 17 41  1  0
 19 42  1  0
 20 43  1  0
 21 44  1  0
 22 45  1  0
 23 46  1  0
 24 47  1  0
 24 48  1  0
 25 49  1  0
 25 50  1  0
M  CHG  1  12   1
M  END
>  <UniqueID>  (8) 
8

>  <SMILES>  (8) 
FC(F)Oc1ccccc1C[NH2+]C1CCN(Cc2ccccc2)CC1

>  <Energy>  (8) 
59.67882353244837

>  <Genealogy>  (8) 
FC(F)Oc1ccccc1C[NH2+]C1CCN(Cc2ccccc2)CC1 (protonated)
FC(F)Oc1ccccc1C[NH2+]C1CCN(Cc2ccccc2)CC1 (3D coordinates assigned)
FC(F)Oc1ccccc1C[NH2+]C1CCN(Cc2ccccc2)CC1 (nonaromatic ring conformer: 59.67882353244837 kcal/mol)

>  <smiles>  (8) 
FC(F)Oc1ccccc1CNC1CCN(Cc2ccccc2)CC1

>  <score_type>  (8) 
oracle

>  <origin>  (8) 
adg

>  <m_score__min__energy>  (8) 
-5.0700000000000003

>  <m_primary>  (8) 
energy

$$$$
8:0
     RDKit          3D

 28 28  0  0  0  0  0  0  0  0999 V2000
   61.8100   32.8620   48.3200 C   0  0  0  0  0  0  0  0  0  0  0  0
   60.6110   32.4250   47.5210 C   0  0  0  0  0  0  0  0  0  0  0  0
   60.5350   31.0980   47.0790 C   0  0  0  0  0  0  0  0  0  0  0  0
   59.4580   30.6650   46.3120 C   0  0  0  0  0  0  0  0  0  0  0  0
   58.4120   31.5460   45.9860 C   0  0  0  0  0  0  0  0  0  0  0  0
   57.3260   31.1320   45.1960 O   0  0  0  0  0  0  0  0  0  0  0  0
   57.4370   30.4200   43.9670 C   0  0  0  0  0  0  0  0  0  0  0  0
   56.1550   29.7020   43.7000 C   0  0  0  0  0  0  0  0  0  0  0  0
   55.2190   29.4830   44.7550 N   0  0  0  0  0  0  0  0  0  0  0  0
   55.9130   29.2550   42.5470 O   0  0  0  0  0  0  0  0  0  0  0  0
   58.4470   32.8730   46.4630 C   0  0  0  0  0  0  0  0  0  0  0  0
   57.3090   33.8120   46.1430 C   0  0  0  0  0  0  0  0  0  0  0  0
   59.5620   33.3230   47.2180 C   0  0  0  0  0  0  0  0  0  0  0  0
   59.6300   34.6860   47.6690 N   0  0  0  0  0  0  0  0  0  0  0  0
   59.6300   34.9460   48.8900 O   0  0  0  0  0  0  0  0  0  0  0  0
   59.6710   35.7170   46.7600 O   0  0  0  0  0  0  0  0  0  0  0  0
   61.5849   32.7800   49.3936 H   0  0  0  0  0  0  0  0  0  0  0  0
   62.6681   32.2188   48.0751 H   0  0  0  0  0  0  0  0  0  0  0  0
   62.0530   33.9065   48.0751 H   0  0  0  0  0  0  0  0  0  0  0  0
   61.3355   30.3906   47.3412 H   0  0  0  0  0  0  0  0  0  0  0  0
   59.4246   29.6242   45.9575 H   0  0  0  0  0  0  0  0  0  0  0  0
   57.6405   31.1268   43.1490 H   0  0  0  0  0  0  0  0  0  0  0  0
   58.2611   29.6944   44.0325 H   0  0  0  0  0  0  0  0  0  0  0  0
   55.4160   29.8280   45.7210 H   0  0  0  0  0  0  0  0  0  0  0  0
   54.3280   28.9700   44.5720 H   0  0  0  0  0  0  0  0  0  0  0  0
   56.8631   34.1800   47.0788 H   0  0  0  0  0  0  0  0  0  0  0  0
   57.6890   34.6629   45.5585 H   0  0  0  0  0  0  0  0  0  0  0  0
   56.5458   33.2773   45.5585 H   0  0  0  0  0  0  0  0  0  0  0  0
  1  2  1  0
  2  3  2  0
  3  4  1  0
  4  5  2  0
  5  6  1  0
  6  7  1  0
  7  8  1  0
  8  9  1  0
  8 10  2  0
  5 11  1  0
 11 12  1  0
 11 13  2  0
 13 14  1  0
 14 15  2  0
 14 16  1  0
 13  2  1  0
  1 17  1  0
  1 18  1  0
  1 19  1  0
  3 20  1  0
  4 21  1  0
  7 22  1  0
  7 23  1  0
  9 24  1  0
  9 25  1  0
 12 26  1  0
 12 27  1  0
 12 28  1  0
M  CHG  2  14   1  16  -1
M  END
>  <UniqueID>  (9) 
9

>  <SMILES>  (9) 
Cc1ccc(OCC(N)=O)c(C)c1[N+](=O)[O-]

>  <Energy>  (9) 
30.798720510081154

>  <Genealogy>  (9) 
Cc1ccc(OCC(N)=O)c(C)c1[N+](=O)[O-] (3D coordinates assigned)
Cc1ccc(OCC(N)=O)c(C)c1[N+](=O)[O-] (optimized conformer: 30.798720510081154 kcal/mol)

>  <smiles>  (9) 
Cc1ccc(OCC(N)=O)c(C)c1[N+](=O)[O-]

>  <score_type>  (9) 
oracle

>  <origin>  (9) 
adg

>  <m_score__min__energy>  (9) 
-6.6699999999999999

>  <m_primary>  (9) 
energy

$$$$
9:0
     RDKit          3D

 37 38  0  0  0  0  0  0  0  0999 V2000
   63.5170   33.1730   47.0760 C   0  0  0  0  0  0  0  0  0  0  0  0
   62.0640   33.6430   47.0250 C   0  0  0  0  0  0  0  0  0  0  0  0
   61.4530   33.8500   48.4220 C   0  0  0  0  0  0  0  0  0  0  0  0
   59.9410   34.1270   48.4160 C   0  0  0  0  0  0  0  0  0  0  0  0
   59.3260   33.8890   47.0650 C   0  0  0  0  0  0  0  0  0  0  0  0
   58.8840   32.6100   46.6960 C   0  0  0  0  0  0  0  0  0  0  0  0
   58.3410   32.4020   45.4190 C   0  0  0  0  0  0  0  0  0  0  0  0
   57.8960   31.0920   45.0170 N   0  0  0  0  0  0  0  0  0  0  0  0
   58.1790   29.9250   45.8620 C   0  0  0  0  0  0  0  0  0  0  0  0
   57.2820   28.7430   45.4690 C   0  0  0  0  0  0  0  0  0  0  0  0
   55.9220   29.2090   45.1650 N   0  0  0  0  0  0  0  0  0  0  0  0
   55.8770   30.1000   43.9880 C   0  0  0  0  0  0  0  0  0  0  0  0
   57.1810   30.8890   43.7510 C   0  0  0  0  0  0  0  0  0  0  0  0
   58.2700   33.4850   44.5280 C   0  0  0  0  0  0  0  0  0  0  0  0
   58.7230   34.7420   44.9310 C   0  0  0  0  0  0  0  0  0  0  0  0
   59.2380   34.9150   46.1760 N   0  0  0  0  0  0  0  0  0  0  0  0
   63.8327   33.0709   48.1248 H   0  0  0  0  0  0  0  0  0  0  0  0
   63.6057   32.2003   46.5700 H   0  0  0  0  0  0  0  0  0  0  0  0
   64.1586   33.9094   46.5700 H   0  0  0  0  0  0  0  0  0  0  0  0
   62.0225   34.5969   46.4788 H   0  0  0  0  0  0  0  0  0  0  0  0
   61.4802   32.8580   46.5221 H   0  0  0  0  0  0  0  0  0  0  0  0
   61.6346   32.9418   49.0155 H   0  0  0  0  0  0  0  0  0  0  0  0
   61.9352   34.7423   48.8478 H   0  0  0  0  0  0  0  0  0  0  0  0
   59.4564   33.4639   49.1477 H   0  0  0  0  0  0  0  0  0  0  0  0
   59.7904   35.1856   48.6741 H   0  0  0  0  0  0  0  0  0  0  0  0
   58.9628   31.7729   47.4053 H   0  0  0  0  0  0  0  0  0  0  0  0
   59.2330   29.6358   45.7378 H   0  0  0  0  0  0  0  0  0  0  0  0
   57.9779   30.1894   46.9106 H   0  0  0  0  0  0  0  0  0  0  0  0
   57.7025   28.2489   44.5808 H   0  0  0  0  0  0  0  0  0  0  0  0
   57.2364   28.0355   46.3100 H   0  0  0  0  0  0  0  0  0  0  0  0
   55.5570   29.7300   45.9980 H   0  0  0  0  0  0  0  0  0  0  0  0
   55.6764   29.4869   43.0970 H   0  0  0  0  0  0  0  0  0  0  0  0
   55.0860   30.8404   44.1781 H   0  0  0  0  0  0  0  0  0  0  0  0
   57.8239   30.3261   43.0583 H   0  0  0  0  0  0  0  0  0  0  0  0
   56.9302   31.8706   43.3225 H   0  0  0  0  0  0  0  0  0  0  0  0
   57.8594   33.3433   43.5174 H   0  0  0  0  0  0  0  0  0  0  0  0
   58.6629   35.5948   44.2388 H   0  0  0  0  0  0  0  0  0  0  0  0
  1  2  1  0
  2  3  1  0
  3  4  1  0
  4  5  1  0
  5  6  2  0
  6  7  1  0
  7  8  1  0
  8  9  1  0
  9 10  1  0
 10 11  1  0
 11 12  1  0
 12 13  1  0
  7 14  2  0
 14 15  1  0
 15 16  2  0
 16  5  1  0
 13  8  1  0
  1 17  1  0
  1 18  1  0
  1 19  1  0
  2 20  1  0
  2 21  1  0
  3 22  1  0
  3 23  1  0
  4 24  1  0
  4 25  1  0
  6 26  1  0
  9 27  1  0
  9 28  1  0
 10 29  1  0
 10 30  1  0
 11 31  1  0
 12 32  1  0
 12 33  1  0
 13 34  1  0
 13 35  1  0
 14 36  1  0
 15 37  1  0
M  END
>  <UniqueID>  (10) 
10

>  <SMILES>  (10) 
CCCCc1cc(N2CCNCC2)ccn1

>  <Energy>  (10) 
38.22884738873903

>  <Genealogy>  (10) 
CCCCc1cc(N2CCNCC2)ccn1 (3D coordinates assigned)
CCCCc1cc(N2CCNCC2)ccn1 (nonaromatic ring conformer: 38.22884738873903 kcal/mol)

>  <smiles>  (10) 
CCCCc1cc(N2CCNCC2)ccn1

>  <score_type>  (10) 
oracle

>  <origin>  (10) 
adg

>  <m_score__min__energy>  (10) 
-6.9199999999999999

>  <m_primary>  (10) 
energy

$$$$
10:0
     RDKit          3D

 52 54  0  0  0  0  0  0  0  0999 V2000
   57.5730   21.9320   44.1930 C   0  0  0  0  0  0  0  0  0  0  0  0
   56.8310   22.8130   45.0300 O   0  0  0  0  0  0  0  0  0  0  0  0
   57.3230   24.0190   45.5560 C   0  0  0  0  0  0  0  0  0  0  0  0
   57.5200   25.1560   44.7600 C   0  0  0  0  0  0  0  0  0  0  0  0
   58.0160   26.3560   45.3120 C   0  0  0  0  0  0  0  0  0  0  0  0
   58.1760   27.4920   44.5000 C   0  0  0  0  0  0  0  0  0  0  0  0
   57.8980   27.4090   43.2680 O   0  0  0  0  0  0  0  0  0  0  0  0
   58.6200   28.6810   45.0220 N   0  0  0  0  0  0  0  0  0  0  0  0
   58.6690   29.8590   44.1210 C   0  0  0  0  0  0  0  0  0  0  0  0
   57.4860   30.8010   44.3950 C   0  0  0  0  0  0  0  0  0  0  0  0
   56.2490   30.4590   43.5490 C   0  0  0  0  0  0  0  0  0  0  0  0
   56.4950   29.3340   42.6450 N   0  0  0  0  0  0  0  0  0  0  0  0
   59.0320   28.7570   46.3430 C   0  0  0  0  0  0  0  0  0  0  0  0
   59.6220   29.9370   46.8630 C   0  0  0  0  0  0  0  0  0  0  0  0
   60.0230   30.0350   48.2020 C   0  0  0  0  0  0  0  0  0  0  0  0
   60.6010   31.2030   48.7270 O   0  0  0  0  0  0  0  0  0  0  0  0
   61.8280   31.7750   48.2850 C   0  0  0  0  0  0  0  0  0  0  0  0
   59.8580   28.9450   49.0520 C   0  0  0  0  0  0  0  0  0  0  0  0
   60.2710   29.0820   50.3890 O   0  0  0  0  0  0  0  0  0  0  0  0
   61.6250   29.1090   50.8260 C   0  0  0  0  0  0  0  0  0  0  0  0
   59.3010   27.7560   48.5580 C   0  0  0  0  0  0  0  0  0  0  0  0
   58.8840   27.6320   47.2090 C   0  0  0  0  0  0  0  0  0  0  0  0
   58.3400   26.4220   46.6860 C   0  0  0  0  0  0  0  0  0  0  0  0
   58.1170   25.2650   47.4780 C   0  0  0  0  0  0  0  0  0  0  0  0
   57.6170   24.0750   46.9190 C   0  0  0  0  0  0  0  0  0  0  0  0
   57.3950   22.9200   47.6880 O   0  0  0  0  0  0  0  0  0  0  0  0
   56.1260   22.4990   48.1780 C   0  0  0  0  0  0  0  0  0  0  0  0
   58.1568   21.2388   44.8164 H   0  0  0  0  0  0  0  0  0  0  0  0
   56.8808   21.3597   43.5580 H   0  0  0  0  0  0  0  0  0  0  0  0
   58.2547   22.5168   43.5580 H   0  0  0  0  0  0  0  0  0  0  0  0
   57.2838   25.1119   43.6866 H   0  0  0  0  0  0  0  0  0  0  0  0
   59.6103   30.4030   44.2885 H   0  0  0  0  0  0  0  0  0  0  0  0
   58.6102   29.5106   43.0793 H   0  0  0  0  0  0  0  0  0  0  0  0
   57.2164   30.7275   45.4589 H   0  0  0  0  0  0  0  0  0  0  0  0
   57.8022   31.8196   44.1257 H   0  0  0  0  0  0  0  0  0  0  0  0
   55.4195   30.1981   44.2226 H   0  0  0  0  0  0  0  0  0  0  0  0
   56.0033   31.3389   42.9363 H   0  0  0  0  0  0  0  0  0  0  0  0
   56.3310   28.4400   43.1630 H   0  0  0  0  0  0  0  0  0  0  0  0
   57.4850   29.3430   42.3130 H   0  0  0  0  0  0  0  0  0  0  0  0
   55.8430   29.3730   41.8290 H   0  0  0  0  0  0  0  0  0  0  0  0
   59.7690   30.7996   46.1965 H   0  0  0  0  0  0  0  0  0  0  0  0
   62.4357   32.0583   49.1571 H   0  0  0  0  0  0  0  0  0  0  0  0
   62.3775   31.0402   47.6783 H   0  0  0  0  0  0  0  0  0  0  0  0
   61.6186   32.6683   47.6783 H   0  0  0  0  0  0  0  0  0  0  0  0
   61.6555   29.1096   51.9256 H   0  0  0  0  0  0  0  0  0  0  0  0
   62.1510   28.2212   50.4451 H   0  0  0  0  0  0  0  0  0  0  0  0
   62.1152   30.0171   50.4451 H   0  0  0  0  0  0  0  0  0  0  0  0
   59.1848   26.8972   49.2355 H   0  0  0  0  0  0  0  0  0  0  0  0
   58.3406   25.3000   48.5545 H   0  0  0  0  0  0  0  0  0  0  0  0
   56.1380   22.5030   49.2779 H   0  0  0  0  0  0  0  0  0  0  0  0
   55.3471   23.1869   47.8173 H   0  0  0  0  0  0  0  0  0  0  0  0
   55.9127   21.4820   47.8173 H   0  0  0  0  0  0  0  0  0  0  0  0
  1  2  1  0
  2  3  1  0
  3  4  2  0
  4  5  1  0
  5  6  1  0
  6  7  2  0
  6  8  1  0
  8  9  1  0
  9 10  1  0
 10 11  1  0
 11 12  1  0
  8 13  1  0
 13 14  2  0
 14 15  1  0
 15 16  1  0
 16 17  1  0
 15 18  2  0
 18 19  1  0
 19 20  1  0
 18 21  1  0
 21 22  2  0
 22 23  1  0
 23 24  1  0
 24 25  2  0
 25 26  1  0
 26 27  1  0
 25  3  1  0
 23  5  2  0
 22 13  1  0
  1 28  1  0
  1 29  1  0
  1 30  1  0
  4 31  1  0
  9 32  1  0
  9 33  1  0
 10 34  1  0
 10 35  1  0
 11 36  1  0
 11 37  1  0
 12 38  1  0
 12 39  1  0
 12 40  1  0
 14 41  1  0
 17 42  1  0
 17 43  1  0
 17 44  1  0
 20 45  1  0
 20 46  1  0
 20 47  1  0
 21 48  1  0
 24 49  1  0
 27 50  1  0
 27 51  1  0
 27 52  1  0
M  CHG  1  12   1
M  END
>  <UniqueID>  (11) 
11

>  <SMILES>  (11) 
COc1cc2c(=O)n(CCC[NH3+])c3cc(OC)c(OC)cc3c2cc1OC

>  <Energy>  (11) 
69.85651966852605

>  <Genealogy>  (11) 
COc1cc2c(=O)n(CCC[NH3+])c3cc(OC)c(OC)cc3c2cc1OC (protonated)
COc1cc2c(=O)n(CCC[NH3+])c3cc(OC)c(OC)cc3c2cc1OC (3D coordinates assigned)
COc1cc2c(=O)n(CCC[NH3+])c3cc(OC)c(OC)cc3c2cc1OC (optimized conformer: 69.85651966852605 kcal/mol)

>  <smiles>  (11) 
COc1cc2c(=O)n(CCCN)c3cc(OC)c(OC)cc3c2cc1OC

>  <score_type>  (11) 
oracle

>  <origin>  (11) 
adg

>  <m_score__min__energy>  (11) 
-4.2800000000000002

>  <m_primary>  (11) 
energy

$$$$
11:0
     RDKit          3D

 75 80  0  0  0  0  0  0  0  0999 V2000
   58.6800   34.3430   45.0010 C   0  0  0  0  0  0  0  0  0  0  0  0
   57.6190   33.8730   45.9890 C   0  0  0  0  0  0  0  0  0  0  0  0
   58.2430   33.5080   47.3410 C   0  0  0  0  0  0  0  0  0  0  0  0
   59.3100   32.4660   47.1580 C   0  0  0  0  0  0  0  0  0  0  0  0
   59.0320   31.1880   46.8160 N   0  0  0  0  0  0  0  0  0  0  0  0
   60.2010   30.5860   46.6560 N   0  0  0  0  0  0  0  0  0  0  0  0
   60.3660   29.1900   46.2610 C   0  0  0  0  0  0  0  0  0  0  0  0
   59.4890   28.3010   47.0990 C   0  0  0  0  0  0  0  0  0  0  0  0
   59.5840   28.3820   48.3540 O   0  0  0  0  0  0  0  0  0  0  0  0
   58.5700   27.3530   46.5170 N   0  0  0  0  0  0  0  0  0  0  0  0
   57.9660   27.5560   45.1920 C   0  0  0  0  0  0  0  0  0  0  0  0
   58.0760   26.2670   44.3770 C   0  0  0  0  0  0  0  0  0  0  0  0
   57.6030   25.1010   45.1450 N   0  0  0  0  0  0  0  0  0  0  0  0
   57.3720   23.8480   44.4610 C   0  0  0  0  0  0  0  0  0  0  0  0
   58.0920   22.6930   44.8210 C   0  0  0  0  0  0  0  0  0  0  0  0
   57.8730   21.4860   44.1540 C   0  0  0  0  0  0  0  0  0  0  0  0
   56.9380   21.4130   43.1190 C   0  0  0  0  0  0  0  0  0  0  0  0
   56.2230   22.5530   42.7470 C   0  0  0  0  0  0  0  0  0  0  0  0
   56.4360   23.7640   43.4110 C   0  0  0  0  0  0  0  0  0  0  0  0
   57.2050   25.2630   46.5520 C   0  0  0  0  0  0  0  0  0  0  0  0
   58.2000   26.1620   47.2990 C   0  0  0  0  0  0  0  0  0  0  0  0
   61.1660   31.4910   46.8930 C   0  0  0  0  0  0  0  0  0  0  0  0
   62.4020   31.2500   46.8010 O   0  0  0  0  0  0  0  0  0  0  0  0
   60.6470   32.6900   47.2160 N   0  0  0  0  0  0  0  0  0  0  0  0
   61.3670   33.9460   47.4460 C   0  0  0  0  0  0  0  0  0  0  0  0
   62.4590   33.7390   48.4610 C   0  0  0  0  0  0  0  0  0  0  0  0
   62.2600   34.0840   49.8080 C   0  0  0  0  0  0  0  0  0  0  0  0
   63.2990   33.9470   50.7320 C   0  0  0  0  0  0  0  0  0  0  0  0
   64.5490   33.4510   50.3260 C   0  0  0  0  0  0  0  0  0  0  0  0
   65.6650   33.3440   51.2960 C   0  0  0  0  0  0  0  0  0  0  0  0
   66.4070   34.5040   51.5860 C   0  0  0  0  0  0  0  0  0  0  0  0
   67.5430   34.4390   52.3920 C   0  0  0  0  0  0  0  0  0  0  0  0
   67.9610   33.2160   52.9130 C   0  0  0  0  0  0  0  0  0  0  0  0
   67.2280   32.0570   52.6500 C   0  0  0  0  0  0  0  0  0  0  0  0
   66.0650   32.1060   51.8630 C   0  0  0  0  0  0  0  0  0  0  0  0
   65.2870   30.8570   51.6840 C   0  0  0  0  0  0  0  0  0  0  0  0
   65.8250   29.6240   51.6700 N   0  0  0  0  0  0  0  0  0  0  0  0
   64.7940   28.8000   51.5330 N   0  0  0  0  0  0  0  0  0  0  0  0
   63.6670   29.4930   51.4800 N   0  0  0  0  0  0  0  0  0  0  0  0
   63.9490   30.7800   51.5760 N   0  0  0  0  0  0  0  0  0  0  0  0
   64.7450   33.1020   48.9800 C   0  0  0  0  0  0  0  0  0  0  0  0
   63.7040   33.2350   48.0580 C   0  0  0  0  0  0  0  0  0  0  0  0
   59.5500   34.7284   45.5530 H   0  0  0  0  0  0  0  0  0  0  0  0
   58.9917   33.4987   44.3685 H   0  0  0  0  0  0  0  0  0  0  0  0
   58.2641   35.1411   44.3685 H   0  0  0  0  0  0  0  0  0  0  0  0
   56.8856   34.6791   46.1383 H   0  0  0  0  0  0  0  0  0  0  0  0
   57.1320   32.9769   45.5769 H   0  0  0  0  0  0  0  0  0  0  0  0
   58.6879   34.4081   47.7902 H   0  0  0  0  0  0  0  0  0  0  0  0
   57.4594   33.1061   48.0002 H   0  0  0  0  0  0  0  0  0  0  0  0
   60.0896   29.0778   45.2022 H   0  0  0  0  0  0  0  0  0  0  0  0
   61.4161   28.8986   46.4104 H   0  0  0  0  0  0  0  0  0  0  0  0
   56.9061   27.8256   45.3099 H   0  0  0  0  0  0  0  0  0  0  0  0
   58.4952   28.3661   44.6688 H   0  0  0  0  0  0  0  0  0  0  0  0
   57.4668   26.3665   43.4665 H   0  0  0  0  0  0  0  0  0  0  0  0
   59.1346   26.1076   44.1239 H   0  0  0  0  0  0  0  0  0  0  0  0
   58.8321   22.7417   45.6333 H   0  0  0  0  0  0  0  0  0  0  0  0
   58.4392   20.5889   44.4449 H   0  0  0  0  0  0  0  0  0  0  0  0
   56.7654   20.4596   42.5982 H   0  0  0  0  0  0  0  0  0  0  0  0
   55.4898   22.4978   41.9288 H   0  0  0  0  0  0  0  0  0  0  0  0
   55.8690   24.6579   43.1119 H   0  0  0  0  0  0  0  0  0  0  0  0
   56.2049   25.7191   46.5938 H   0  0  0  0  0  0  0  0  0  0  0  0
   57.1944   24.2733   47.0320 H   0  0  0  0  0  0  0  0  0  0  0  0
   57.7421   26.4875   48.2447 H   0  0  0  0  0  0  0  0  0  0  0  0
   59.1148   25.5777   47.4769 H   0  0  0  0  0  0  0  0  0  0  0  0
   61.8104   34.2895   46.4997 H   0  0  0  0  0  0  0  0  0  0  0  0
   60.6620   34.7004   47.8251 H   0  0  0  0  0  0  0  0  0  0  0  0
   61.2815   34.4638   50.1369 H   0  0  0  0  0  0  0  0  0  0  0  0
   63.1374   34.2290   51.7829 H   0  0  0  0  0  0  0  0  0  0  0  0
   66.0876   35.4720   51.1726 H   0  0  0  0  0  0  0  0  0  0  0  0
   68.1100   35.3544   52.6169 H   0  0  0  0  0  0  0  0  0  0  0  0
   68.8689   33.1636   53.5318 H   0  0  0  0  0  0  0  0  0  0  0  0
   67.5648   31.0949   53.0635 H   0  0  0  0  0  0  0  0  0  0  0  0
   63.2450   31.5510   51.5970 H   0  0  0  0  0  0  0  0  0  0  0  0
   65.7231   32.7220   48.6500 H   0  0  0  0  0  0  0  0  0  0  0  0
   63.8619   32.9426   47.0094 H   0  0  0  0  0  0  0  0  0  0  0  0
  1  2  1  0
  2  3  1  0
  3  4  1  0
  4  5  2  0
  5  6  1  0
  6  7  1  0
  7  8  1  0
  8  9  2  0
  8 10  1  0
 10 11  1  0
 11 12  1  0
 12 13  1  0
 13 14  1  0
 14 15  2  0
 15 16  1  0
 16 17  2  0
 17 18  1  0
 18 19  2  0
 13 20  1  0
 20 21  1  0
  6 22  1  0
 22 23  2  0
 22 24  1  0
 24 25  1  0
 25 26  1  0
 26 27  2  0
 27 28  1  0
 28 29  2  0
 29 30  1  0
 30 31  2  0
 31 32  1  0
 32 33  2  0
 33 34  1  0
 34 35  2  0
 35 36  1  0
 36 37  2  0
 37 38  1  0
 38 39  1  0
 39 40  2  0
 29 41  1  0
 41 42  2  0
 24  4  1  0
 42 26  1  0
 21 10  1  0
 35 30  1  0
 40 36  1  0
 19 14  1  0
  1 43  1  0
  1 44  1  0
  1 45  1  0
  2 46  1  0
  2 47  1  0
  3 48  1  0
  3 49  1  0
  7 50  1  0
  7 51  1  0
 11 52  1  0
 11 53  1  0
 12 54  1  0
 12 55  1  0
 15 56  1  0
 16 57  1  0
 17 58  1  0
 18 59  1  0
 19 60  1  0
 20 61  1  0
 20 62  1  0
 21 63  1  0
 21 64  1  0
 25 65  1  0
 25 66  1  0
 27 67  1  0
 28 68  1  0
 31 69  1  0
 32 70  1  0
 33 71  1  0
 34 72  1  0
 40 73  1  0
 41 74  1  0
 42 75  1  0
M  CHG  2  38  -1  40   1
M  END
>  <UniqueID>  (12) 
12

>  <SMILES>  (12) 
CCCc1nn(CC(=O)N2CCN(c3ccccc3)CC2)c(=O)n1Cc1ccc(-c2ccccc2-c2n[n-]n[nH+]2)cc1

>  <Energy>  (12) 
165.32614581255268

>  <Genealogy>  (12) 
CCCc1nn(CC(=O)N2CCN(c3ccccc3)CC2)c(=O)n1Cc1ccc(-c2ccccc2-c2n[n-]n[nH+]2)cc1 (protonated)
CCCc1nn(CC(=O)N2CCN(c3ccccc3)CC2)c(=O)n1Cc1ccc(-c2ccccc2-c2n[n-]n[nH+]2)cc1 (3D coordinates assigned)
CCCc1nn(CC(=O)N2CCN(c3ccccc3)CC2)c(=O)n1Cc1ccc(-c2ccccc2-c2n[n-]n[nH+]2)cc1 (nonaromatic ring conformer: 165.32614581255268 kcal/mol)

>  <smiles>  (12) 
CCCc1nn(CC(=O)N2CCN(c3ccccc3)CC2)c(=O)n1Cc1ccc(-c2ccccc2-c2nn[nH]n2)cc1

>  <score_type>  (12) 
oracle

>  <origin>  (12) 
adg

>  <m_score__min__energy>  (12) 
-11.109999999999999

>  <m_primary>  (12) 
energy

$$$$
12:0
     RDKit          3D

 41 42  0  0  0  0  0  0  0  0999 V2000
   56.3020   29.7290   42.8360 C   0  0  0  0  0  0  0  0  0  0  0  0
   56.0520   29.9900   44.2820 C   0  0  0  0  0  0  0  0  0  0  0  0
   55.1460   29.3550   44.8850 O   0  0  0  0  0  0  0  0  0  0  0  0
   56.8780   30.9230   44.9850 N   0  0  0  0  0  0  0  0  0  0  0  0
   57.0170   32.3300   44.6110 C   0  0  2  0  0  0  0  0  0  0  0  0
   58.1990   32.4830   43.6510 C   0  0  0  0  0  0  0  0  0  0  0  0
   57.1650   33.2250   45.8600 C   0  0  0  0  0  0  0  0  0  0  0  0
   58.4810   33.0360   46.5770 C   0  0  0  0  0  0  0  0  0  0  0  0
   58.7780   31.8140   47.2050 C   0  0  0  0  0  0  0  0  0  0  0  0
   59.9880   31.6460   47.8860 C   0  0  0  0  0  0  0  0  0  0  0  0
   60.9120   32.6960   47.9450 C   0  0  0  0  0  0  0  0  0  0  0  0
   62.1570   32.5220   48.6450 C   0  0  0  0  0  0  0  0  0  0  0  0
   63.2030   32.3810   49.2280 C   0  0  0  0  0  0  0  0  0  0  0  0
   64.4510   32.2120   49.9300 C   0  0  0  0  0  0  0  0  0  0  0  0
   65.5190   33.0750   49.6640 C   0  0  0  0  0  0  0  0  0  0  0  0
   66.6990   32.9210   50.3210 N   0  0  0  0  0  0  0  0  0  0  0  0
   66.8600   31.9330   51.2410 C   0  0  0  0  0  0  0  0  0  0  0  0
   65.8360   31.0840   51.5150 N   0  0  0  0  0  0  0  0  0  0  0  0
   64.6350   31.1960   50.8840 C   0  0  0  0  0  0  0  0  0  0  0  0
   63.5380   30.2310   51.2290 C   0  0  0  0  0  0  0  0  0  0  0  0
   60.6230   33.9150   47.3200 C   0  0  0  0  0  0  0  0  0  0  0  0
   59.4130   34.0850   46.6400 C   0  0  0  0  0  0  0  0  0  0  0  0
   57.0595   28.9382   42.7318 H   0  0  0  0  0  0  0  0  0  0  0  0
   55.3669   29.4068   42.3545 H   0  0  0  0  0  0  0  0  0  0  0  0
   56.6641   30.6494   42.3545 H   0  0  0  0  0  0  0  0  0  0  0  0
   56.1046   32.6631   44.0947 H   0  0  0  0  0  0  0  0  0  0  0  0
   59.1274   32.6032   44.2287 H   0  0  0  0  0  0  0  0  0  0  0  0
   58.2749   31.5872   43.0172 H   0  0  0  0  0  0  0  0  0  0  0  0
   58.0443   33.3686   43.0172 H   0  0  0  0  0  0  0  0  0  0  0  0
   57.0854   34.2767   45.5475 H   0  0  0  0  0  0  0  0  0  0  0  0
   56.3674   32.9400   46.5618 H   0  0  0  0  0  0  0  0  0  0  0  0
   58.0553   30.9859   47.1606 H   0  0  0  0  0  0  0  0  0  0  0  0
   60.2139   30.6874   48.3760 H   0  0  0  0  0  0  0  0  0  0  0  0
   65.4040   33.8792   48.9224 H   0  0  0  0  0  0  0  0  0  0  0  0
   67.4910   33.5690   50.1160 H   0  0  0  0  0  0  0  0  0  0  0  0
   67.8211   31.8211   51.7642 H   0  0  0  0  0  0  0  0  0  0  0  0
   63.4490   30.1527   52.3226 H   0  0  0  0  0  0  0  0  0  0  0  0
   62.5874   30.5910   50.8086 H   0  0  0  0  0  0  0  0  0  0  0  0
   63.7738   29.2422   50.8086 H   0  0  0  0  0  0  0  0  0  0  0  0
   61.3489   34.7403   47.3639 H   0  0  0  0  0  0  0  0  0  0  0  0
   59.1899   35.0452   46.1519 H   0  0  0  0  0  0  0  0  0  0  0  0
  1  2  1  0
  2  3  2  0
  2  4  1  0
  4  5  1  0
  5  6  1  0
  5  7  1  0
  7  8  1  0
  8  9  2  0
  9 10  1  0
 10 11  2  0
 11 12  1  0
 12 13  3  0
 13 14  1  0
 14 15  2  0
 15 16  1  0
 16 17  2  0
 17 18  1  0
 18 19  2  0
 19 20  1  0
 11 21  1  0
 21 22  2  0
 22  8  1  0
 19 14  1  0
  1 23  1  0
  1 24  1  0
  1 25  1  0
  5 26  1  6
  6 27  1  0
  6 28  1  0
  6 29  1  0
  7 30  1  0
  7 31  1  0
  9 32  1  0
 10 33  1  0
 15 34  1  0
 16 35  1  0
 17 36  1  0
 20 37  1  0
 20 38  1  0
 20 39  1  0
 21 40  1  0
 22 41  1  0
M  CHG  2   4  -1  16   1
M  END
>  <UniqueID>  (13) 
13

>  <SMILES>  (13) 
CC(=O)[N-][C@H](C)Cc1ccc(C#Cc2c[nH+]cnc2C)cc1

>  <Energy>  (13) 
29.58382405737917

>  <Genealogy>  (13) 
CC(=O)[N-]C(C)Cc1ccc(C#Cc2c[nH+]cnc2C)cc1 (protonated)
CC(=O)[N-][C@H](C)Cc1ccc(C#Cc2c[nH+]cnc2C)cc1 (chirality)
CC(=O)[N-][C@H](C)Cc1ccc(C#Cc2c[nH+]cnc2C)cc1 (3D coordinates assigned)
CC(=O)[N-][C@H](C)Cc1ccc(C#Cc2c[nH+]cnc2C)cc1 (optimized conformer: 29.58382405737917 kcal/mol)

>  <smiles>  (13) 
CC(=O)NC(C)Cc1ccc(C#Cc2cncnc2C)cc1

>  <score_type>  (13) 
oracle

>  <origin>  (13) 
adg

>  <m_score__min__energy>  (13) 
-7.7000000000000002

>  <m_primary>  (13) 
energy

$$$$
13:0
     RDKit          3D

 37 38  0  0  0  0  0  0  0  0999 V2000
   56.9490   34.2130   45.0620 C   0  0  0  0  0  0  0  0  0  0  0  0
   57.3890   32.8540   45.5000 C   0  0  0  0  0  0  0  0  0  0  0  0
   57.0230   31.7160   44.8780 N   0  0  0  0  0  0  0  0  0  0  0  0
   57.5920   30.7080   45.5200 N   0  0  0  0  0  0  0  0  0  0  0  0
   57.4160   29.3120   45.1340 C   0  0  0  0  0  0  0  0  0  0  0  0
   58.3410   31.1770   46.5410 C   0  0  0  0  0  0  0  0  0  0  0  0
   59.0870   30.3210   47.5220 C   0  0  0  0  0  0  0  0  0  0  0  0
   58.2280   32.5590   46.5660 C   0  0  0  0  0  0  0  0  0  0  0  0
   58.7980   33.5250   47.5690 C   0  0  0  0  0  0  0  0  0  0  0  0
   60.1180   34.0990   47.0960 C   0  0  0  0  0  0  0  0  0  0  0  0
   60.1000   35.0850   46.3700 O   0  0  0  0  0  0  0  0  0  0  0  0
   61.3960   33.4860   47.4200 N   0  0  0  0  0  0  0  0  0  0  0  0
   61.8270   33.8260   48.7950 C   0  0  0  0  0  0  0  0  0  0  0  0
   63.3060   33.4540   49.0250 C   0  0  0  0  0  0  0  0  0  0  0  0
   63.7500   32.5230   48.0600 O   0  0  0  0  0  0  0  0  0  0  0  0
   63.7670   33.1280   46.7780 C   0  0  0  0  0  0  0  0  0  0  0  0
   62.4350   33.8370   46.4350 C   0  0  0  0  0  0  0  0  0  0  0  0
   56.7474   34.8358   45.9460 H   0  0  0  0  0  0  0  0  0  0  0  0
   57.7423   34.6785   44.4587 H   0  0  0  0  0  0  0  0  0  0  0  0
   56.0334   34.1252   44.4587 H   0  0  0  0  0  0  0  0  0  0  0  0
   57.3375   28.6890   46.0371 H   0  0  0  0  0  0  0  0  0  0  0  0
   56.4978   29.2096   44.5369 H   0  0  0  0  0  0  0  0  0  0  0  0
   58.2800   28.9849   44.5369 H   0  0  0  0  0  0  0  0  0  0  0  0
   58.8238   30.6230   48.5465 H   0  0  0  0  0  0  0  0  0  0  0  0
   58.8149   29.2662   47.3693 H   0  0  0  0  0  0  0  0  0  0  0  0
   60.1691   30.4463   47.3693 H   0  0  0  0  0  0  0  0  0  0  0  0
   58.0835   34.3477   47.7195 H   0  0  0  0  0  0  0  0  0  0  0  0
   58.9737   32.9832   48.5101 H   0  0  0  0  0  0  0  0  0  0  0  0
   61.2690   32.4460   47.3790 H   0  0  0  0  0  0  0  0  0  0  0  0
   61.7003   34.9071   48.9535 H   0  0  0  0  0  0  0  0  0  0  0  0
   61.2102   33.2546   49.5042 H   0  0  0  0  0  0  0  0  0  0  0  0
   63.9205   34.3638   48.9565 H   0  0  0  0  0  0  0  0  0  0  0  0
   63.4017   32.9982   50.0216 H   0  0  0  0  0  0  0  0  0  0  0  0
   64.5783   33.8703   46.7498 H   0  0  0  0  0  0  0  0  0  0  0  0
   63.9197   32.3304   46.0360 H   0  0  0  0  0  0  0  0  0  0  0  0
   62.5911   34.9258   46.4456 H   0  0  0  0  0  0  0  0  0  0  0  0
   62.1047   33.5115   45.4375 H   0  0  0  0  0  0  0  0  0  0  0  0
  1  2  1  0
  2  3  2  0
  3  4  1  0
  4  5  1  0
  4  6  1  0
  6  7  1  0
  6  8  2  0
  8  9  1  0
  9 10  1  0
 10 11  2  0
 10 12  1  0
 12 13  1  0
 13 14  1  0
 14 15  1  0
 15 16  1  0
 16 17  1  0
  8  2  1  0
 17 12  1  0
  1 18  1  0
  1 19  1  0
  1 20  1  0
  5 21  1  0
  5 22  1  0
  5 23  1  0
  7 24  1  0
  7 25  1  0
  7 26  1  0
  9 27  1  0
  9 28  1  0
 12 29  1  0
 13 30  1  0
 13 31  1  0
 14 32  1  0
 14 33  1  0
 16 34  1  0
 16 35  1  0
 17 36  1  0
 17 37  1  0
M  CHG  1  12   1
M  END
>  <UniqueID>  (14) 
14

>  <SMILES>  (14) 
Cc1nn(C)c(C)c1CC(=O)[NH+]1CCOCC1

>  <Energy>  (14) 
73.0701454572966

>  <Genealogy>  (14) 
Cc1nn(C)c(C)c1CC(=O)[NH+]1CCOCC1 (protonated)
Cc1nn(C)c(C)c1CC(=O)[NH+]1CCOCC1 (3D coordinates assigned)
Cc1nn(C)c(C)c1CC(=O)[NH+]1CCOCC1 (nonaromatic ring conformer: 73.0701454572966 kcal/mol)

>  <smiles>  (14) 
Cc1nn(C)c(C)c1CC(=O)N1CCOCC1

>  <score_type>  (14) 
oracle

>  <origin>  (14) 
adg

>  <m_score__min__energy>  (14) 
-4.9199999999999999

>  <m_primary>  (14) 
energy

$$$$
14:0
     RDKit          3D

 62 64  0  0  0  0  0  0  0  0999 V2000
   57.5540   34.8971   46.7920 H   0  0  0  0  0  0  0  0  0  0  0  0
   58.0800   33.9430   46.6400 C   0  0  0  0  0  0  0  0  0  0  0  0
   57.3950   32.9140   46.1240 C   0  0  0  0  0  0  0  0  0  0  0  0
   56.4662   32.6048   46.6258 H   0  0  0  0  0  0  0  0  0  0  0  0
   57.8250   32.1570   44.8960 C   0  0  0  0  0  0  0  0  0  0  0  0
   58.8843   32.3712   44.6913 H   0  0  0  0  0  0  0  0  0  0  0  0
   57.2026   32.4746   44.0465 H   0  0  0  0  0  0  0  0  0  0  0  0
   57.6530   30.7030   45.0970 N   0  0  0  0  0  0  0  0  0  0  0  0
   58.6260   30.1250   46.0480 C   0  0  0  0  0  0  0  0  0  0  0  0
   58.7963   30.8575   46.8508 H   0  0  0  0  0  0  0  0  0  0  0  0
   59.5319   29.9004   45.4658 H   0  0  0  0  0  0  0  0  0  0  0  0
   58.1870   28.7990   46.6950 C   0  0  0  0  0  0  0  0  0  0  0  0
   57.7612   29.0344   47.6816 H   0  0  0  0  0  0  0  0  0  0  0  0
   59.0936   28.1767   46.7225 H   0  0  0  0  0  0  0  0  0  0  0  0
   57.1470   27.9650   45.9250 C   0  0  0  0  0  0  0  0  0  0  0  0
   56.2414   28.5766   45.7993 H   0  0  0  0  0  0  0  0  0  0  0  0
   56.9738   27.0558   46.5195 H   0  0  0  0  0  0  0  0  0  0  0  0
   57.5910   27.5120   44.5810 N   0  0  2  0  0  0  0  0  0  0  0  0
   56.7560   27.1120   44.0900 H   0  0  0  0  0  0  0  0  0  0  0  0
   58.5970   26.4230   44.7110 C   0  0  0  0  0  0  0  0  0  0  0  0
   59.2841   26.6749   45.5322 H   0  0  0  0  0  0  0  0  0  0  0  0
   59.1249   26.3418   43.7493 H   0  0  0  0  0  0  0  0  0  0  0  0
   57.9670   25.0770   45.0020 C   0  0  0  0  0  0  0  0  0  0  0  0
   57.9210   24.5930   46.3120 C   0  0  0  0  0  0  0  0  0  0  0  0
   58.3268   25.2028   47.1327 H   0  0  0  0  0  0  0  0  0  0  0  0
   57.3610   23.3340   46.5910 C   0  0  0  0  0  0  0  0  0  0  0  0
   57.2960   22.8260   47.8980 O   0  0  0  0  0  0  0  0  0  0  0  0
   56.0890   22.5220   48.5910 C   0  0  0  0  0  0  0  0  0  0  0  0
   56.2676   22.5670   49.6755 H   0  0  0  0  0  0  0  0  0  0  0  0
   55.3144   23.2531   48.3163 H   0  0  0  0  0  0  0  0  0  0  0  0
   55.7531   21.5112   48.3163 H   0  0  0  0  0  0  0  0  0  0  0  0
   56.8460   22.5460   45.5480 C   0  0  0  0  0  0  0  0  0  0  0  0
   56.2970   21.3010   45.9100 O   0  0  0  0  0  0  0  0  0  0  0  0
   56.9710   20.0460   45.9220 C   0  0  0  0  0  0  0  0  0  0  0  0
   57.1403   19.7307   46.9621 H   0  0  0  0  0  0  0  0  0  0  0  0
   56.3553   19.2942   45.4066 H   0  0  0  0  0  0  0  0  0  0  0  0
   57.9378   20.1441   45.4066 H   0  0  0  0  0  0  0  0  0  0  0  0
   56.8990   23.0260   44.2130 C   0  0  0  0  0  0  0  0  0  0  0  0
   56.4010   22.2380   43.1640 O   0  0  0  0  0  0  0  0  0  0  0  0
   57.0500   21.0940   42.6190 C   0  0  0  0  0  0  0  0  0  0  0  0
   57.4130   20.4541   43.4367 H   0  0  0  0  0  0  0  0  0  0  0  0
   56.3380   20.5288   41.9996 H   0  0  0  0  0  0  0  0  0  0  0  0
   57.9004   21.4152   41.9996 H   0  0  0  0  0  0  0  0  0  0  0  0
   57.4580   24.2940   43.9600 C   0  0  0  0  0  0  0  0  0  0  0  0
   57.4949   24.6741   42.9284 H   0  0  0  0  0  0  0  0  0  0  0  0
   58.1320   28.6000   43.7120 C   0  0  0  0  0  0  0  0  0  0  0  0
   58.0641   28.2679   42.6655 H   0  0  0  0  0  0  0  0  0  0  0  0
   59.1654   28.7773   44.0445 H   0  0  0  0  0  0  0  0  0  0  0  0
   57.3950   29.9560   43.8360 C   0  0  0  0  0  0  0  0  0  0  0  0
   56.3140   29.7634   43.7693 H   0  0  0  0  0  0  0  0  0  0  0  0
   57.7790   30.5883   43.0219 H   0  0  0  0  0  0  0  0  0  0  0  0
   59.5020   33.8610   47.0140 C   0  0  0  0  0  0  0  0  0  0  0  0
   60.5010   33.8410   46.0290 C   0  0  0  0  0  0  0  0  0  0  0  0
   60.2244   33.8891   44.9654 H   0  0  0  0  0  0  0  0  0  0  0  0
   61.8480   33.7600   46.3970 C   0  0  0  0  0  0  0  0  0  0  0  0
   62.6297   33.7561   45.6230 H   0  0  0  0  0  0  0  0  0  0  0  0
   62.2020   33.6840   47.7470 C   0  0  0  0  0  0  0  0  0  0  0  0
   63.2619   33.6250   48.0352 H   0  0  0  0  0  0  0  0  0  0  0  0
   61.2090   33.6830   48.7310 C   0  0  0  0  0  0  0  0  0  0  0  0
   61.4880   33.6193   49.7931 H   0  0  0  0  0  0  0  0  0  0  0  0
   59.8600   33.7630   48.3660 C   0  0  0  0  0  0  0  0  0  0  0  0
   59.0796   33.7490   49.1411 H   0  0  0  0  0  0  0  0  0  0  0  0
  1  2  1  0
  2  3  2  0
  3  4  1  0
  3  5  1  0
  5  6  1  0
  5  7  1  0
  5  8  1  0
  8  9  1  0
  9 10  1  0
  9 11  1  0
  9 12  1  0
 12 13  1  0
 12 14  1  0
 12 15  1  0
 15 16  1  0
 15 17  1  0
 15 18  1  0
 18 19  1  6
 18 20  1  0
 20 21  1  0
 20 22  1  0
 20 23  1  0
 23 24  2  0
 24 25  1  0
 24 26  1  0
 26 27  1  0
 27 28  1  0
 28 29  1  0
 28 30  1  0
 28 31  1  0
 26 32  2  0
 32 33  1  0
 33 34  1  0
 34 35  1  0
 34 36  1  0
 34 37  1  0
 32 38  1  0
 38 39  1  0
 39 40  1  0
 40 41  1  0
 40 42  1  0
 40 43  1  0
 38 44  2  0
 44 45  1  0
 18 46  1  0
 46 47  1  0
 46 48  1  0
 46 49  1  0
 49 50  1  0
 49 51  1  0
  2 52  1  0
 52 53  2  0
 53 54  1  0
 53 55  1  0
 55 56  1  0
 55 57  2  0
 57 58  1  0
 57 59  1  0
 59 60  1  0
 59 61  2  0
 61 62  1  0
 49  8  1  0
 61 52  1  0
 44 23  1  0
M  CHG  1  18   1
M  END
>  <UniqueID>  (15) 
15

>  <SMILES>  (15) 
COc1cc(C[N@H+]2CCCN(C/C=C\c3ccccc3)CC2)cc(OC)c1OC

>  <Energy>  (15) 
93.79824165639876

>  <Genealogy>  (15) 
COc1cc(C[NH+]2CCCN(CC=Cc3ccccc3)CC2)cc(OC)c1OC (protonated)
COc1cc(C[N@H+]2CCCN(CC=Cc3ccccc3)CC2)cc(OC)c1OC (chirality)
COc1cc(C[N@H+]2CCCN(C/C=C\c3ccccc3)CC2)cc(OC)c1OC (cis-trans isomerization)
COc1cc(C[N@H+]2CCCN(C/C=C\c3ccccc3)CC2)cc(OC)c1OC (3D coordinates assigned)
COc1cc(C[N@H+]2CCCN(C/C=C\c3ccccc3)CC2)cc(OC)c1OC (nonaromatic ring conformer: 93.79824165639876 kcal/mol)

>  <smiles>  (15) 
COc1cc(CN2CCCN(CC=Cc3ccccc3)CC2)cc(OC)c1OC

>  <score_type>  (15) 
oracle

>  <origin>  (15) 
adg

>  <m_score__min__energy>  (15) 
-4.6299999999999999

>  <m_primary>  (15) 
energy

$$$$
15:0
     RDKit          3D

 50 51  0  0  0  0  0  0  0  0999 V2000
   57.7387   25.0892   46.5488 H   0  0  0  0  0  0  0  0  0  0  0  0
   57.1390   25.9850   46.3300 C   0  0  0  0  0  0  0  0  0  0  0  0
   55.8820   26.0000   46.6400 N   0  0  0  0  0  0  0  0  0  0  0  0
   54.9220   25.7660   45.6830 O   0  0  0  0  0  0  0  0  0  0  0  0
   54.6480   24.4420   45.2510 C   0  0  0  0  0  0  0  0  0  0  0  0
   54.7998   23.7447   46.0881 H   0  0  0  0  0  0  0  0  0  0  0  0
   53.6060   24.3786   44.9041 H   0  0  0  0  0  0  0  0  0  0  0  0
   55.5890   24.0730   44.1040 C   0  0  0  0  0  0  0  0  0  0  0  0
   55.2331   24.5489   43.1783 H   0  0  0  0  0  0  0  0  0  0  0  0
   56.6012   24.4255   44.3513 H   0  0  0  0  0  0  0  0  0  0  0  0
   55.6320   22.6070   43.9100 N   0  0  0  0  0  0  0  0  0  0  0  0
   55.9540   21.9360   45.1790 C   0  0  0  0  0  0  0  0  0  0  0  0
   55.6472   22.5753   46.0199 H   0  0  0  0  0  0  0  0  0  0  0  0
   55.4180   20.9769   45.2330 H   0  0  0  0  0  0  0  0  0  0  0  0
   57.0375   21.7541   45.2330 H   0  0  0  0  0  0  0  0  0  0  0  0
   56.6330   22.2370   42.8940 C   0  0  0  0  0  0  0  0  0  0  0  0
   57.5528   21.8970   43.3923 H   0  0  0  0  0  0  0  0  0  0  0  0
   56.2353   21.4265   42.2656 H   0  0  0  0  0  0  0  0  0  0  0  0
   56.8581   23.1113   42.2656 H   0  0  0  0  0  0  0  0  0  0  0  0
   57.7820   27.1490   45.6880 C   0  0  0  0  0  0  0  0  0  0  0  0
   59.1820   27.2380   45.6770 C   0  0  0  0  0  0  0  0  0  0  0  0
   59.7847   26.4390   46.1334 H   0  0  0  0  0  0  0  0  0  0  0  0
   59.8140   28.3350   45.0900 C   0  0  0  0  0  0  0  0  0  0  0  0
   60.9121   28.3995   45.0905 H   0  0  0  0  0  0  0  0  0  0  0  0
   59.0580   29.3510   44.5020 C   0  0  0  0  0  0  0  0  0  0  0  0
   59.5644   30.2164   44.0496 H   0  0  0  0  0  0  0  0  0  0  0  0
   57.6560   29.2760   44.4840 C   0  0  0  0  0  0  0  0  0  0  0  0
   56.8930   30.3850   43.8580 C   0  0  0  0  0  0  0  0  0  0  0  0
   55.8388   30.2102   43.5970 H   0  0  0  0  0  0  0  0  0  0  0  0
   57.4220   31.5890   43.5940 C   0  0  0  0  0  0  0  0  0  0  0  0
   57.4917   31.9087   42.5438 H   0  0  0  0  0  0  0  0  0  0  0  0
   57.9180   32.5120   44.6440 C   0  0  0  0  0  0  0  0  0  0  0  0
   57.7750   32.2390   46.0180 C   0  0  0  0  0  0  0  0  0  0  0  0
   57.2891   31.3068   46.3419 H   0  0  0  0  0  0  0  0  0  0  0  0
   58.2460   33.1440   46.9730 C   0  0  0  0  0  0  0  0  0  0  0  0
   58.1396   32.9129   48.0432 H   0  0  0  0  0  0  0  0  0  0  0  0
   58.8540   34.3460   46.5770 C   0  0  0  0  0  0  0  0  0  0  0  0
   59.3640   35.2670   47.5630 N   0  0  0  0  0  0  0  0  0  0  0  0
   59.8610   36.0600   47.0920 H   0  0  0  0  0  0  0  0  0  0  0  0
   58.5770   35.6670   48.1240 H   0  0  0  0  0  0  0  0  0  0  0  0
   60.2960   34.5820   48.4600 C   0  0  0  0  0  0  0  0  0  0  0  0
   60.0174   34.7868   49.5042 H   0  0  0  0  0  0  0  0  0  0  0  0
   60.2536   33.4985   48.2749 H   0  0  0  0  0  0  0  0  0  0  0  0
   61.3174   34.9459   48.2749 H   0  0  0  0  0  0  0  0  0  0  0  0
   58.9910   34.6230   45.2070 C   0  0  0  0  0  0  0  0  0  0  0  0
   59.4720   35.5580   44.8837 H   0  0  0  0  0  0  0  0  0  0  0  0
   58.5200   33.7180   44.2520 C   0  0  0  0  0  0  0  0  0  0  0  0
   58.6220   33.9531   43.1823 H   0  0  0  0  0  0  0  0  0  0  0  0
   57.0220   28.1750   45.0940 C   0  0  0  0  0  0  0  0  0  0  0  0
   55.9236   28.1166   45.1062 H   0  0  0  0  0  0  0  0  0  0  0  0
  1  2  1  0
  2  3  2  0
  3  4  1  0
  4  5  1  0
  5  6  1  0
  5  7  1  0
  5  8  1  0
  8  9  1  0
  8 10  1  0
  8 11  1  0
 11 12  1  0
 12 13  1  0
 12 14  1  0
 12 15  1  0
 11 16  1  0
 16 17  1  0
 16 18  1  0
 16 19  1  0
  2 20  1  0
 20 21  2  0
 21 22  1  0
 21 23  1  0
 23 24  1  0
 23 25  2  0
 25 26  1  0
 25 27  1  0
 27 28  1  0
 28 29  1  0
 28 30  2  0
 30 31  1  0
 30 32  1  0
 32 33  2  0
 33 34  1  0
 33 35  1  0
 35 36  1  0
 35 37  2  0
 37 38  1  0
 38 39  1  0
 38 40  1  0
 38 41  1  0
 41 42  1  0
 41 43  1  0
 41 44  1  0
 37 45  1  0
 45 46  1  0
 45 47  2  0
 47 48  1  0
 27 49  2  0
 49 50  1  0
 49 20  1  0
 47 32  1  0
M  CHG  1  38   1
M  END
>  <UniqueID>  (16) 
16

>  <SMILES>  (16) 
C[NH2+]c1ccc(/C=C/c2cccc(/C=N/OCCN(C)C)c2)cc1

>  <Energy>  (16) 
48.771095052227906

>  <Genealogy>  (16) 
C[NH2+]c1ccc(C=Cc2cccc(C=NOCCN(C)C)c2)cc1 (protonated)
C[NH2+]c1ccc(/C=C/c2cccc(/C=N/OCCN(C)C)c2)cc1 (cis-trans isomerization)
C[NH2+]c1ccc(/C=C/c2cccc(/C=N/OCCN(C)C)c2)cc1 (3D coordinates assigned)
C[NH2+]c1ccc(/C=C/c2cccc(/C=N/OCCN(C)C)c2)cc1 (optimized conformer: 48.771095052227906 kcal/mol)

>  <smiles>  (16) 
CNc1ccc(C=Cc2cccc(C=NOCCN(C)C)c2)cc1

>  <score_type>  (16) 
oracle

>  <origin>  (16) 
adg

>  <m_score__min__energy>  (16) 
-7.1100000000000003

>  <m_primary>  (16) 
energy

$$$$
16:0
     RDKit          3D

 46 49  0  0  0  0  0  0  0  0999 V2000
   56.0806   30.4415   42.0110 H   0  0  0  0  0  0  0  0  0  0  0  0
   56.6770   30.3930   42.9340 C   0  0  0  0  0  0  0  0  0  0  0  0
   57.6530   31.3590   43.1860 C   0  0  0  0  0  0  0  0  0  0  0  0
   57.8222   32.1699   42.4623 H   0  0  0  0  0  0  0  0  0  0  0  0
   58.4150   31.2980   44.3550 C   0  0  0  0  0  0  0  0  0  0  0  0
   59.1809   32.0636   44.5480 H   0  0  0  0  0  0  0  0  0  0  0  0
   58.2100   30.2640   45.2880 C   0  0  0  0  0  0  0  0  0  0  0  0
   59.0240   30.2110   46.5260 C   0  0  0  0  0  0  0  0  0  0  0  0
   58.5220   29.6050   47.7050 C   0  0  0  0  0  0  0  0  0  0  0  0
   57.5157   29.1608   47.7016 H   0  0  0  0  0  0  0  0  0  0  0  0
   59.2940   29.5650   48.8770 C   0  0  0  0  0  0  0  0  0  0  0  0
   58.9101   29.1008   49.7974 H   0  0  0  0  0  0  0  0  0  0  0  0
   60.5620   30.1340   48.8310 C   0  0  0  0  0  0  0  0  0  0  0  0
   61.5140   30.2490   49.8250 C   0  0  0  0  0  0  0  0  0  0  0  0
   61.4189   29.8830   50.8579 H   0  0  0  0  0  0  0  0  0  0  0  0
   62.5850   30.8920   49.3030 N   0  0  0  0  0  0  0  0  0  0  0  0
   63.4680   31.1340   49.8060 H   0  0  0  0  0  0  0  0  0  0  0  0
   62.2590   31.1450   48.0130 C   0  0  0  0  0  0  0  0  0  0  0  0
   63.0260   31.7590   47.1620 N   0  0  0  0  0  0  0  0  0  0  0  0
   63.4940   33.1350   47.3020 C   0  0  0  0  0  0  0  0  0  0  0  0
   64.5603   33.1864   47.0367 H   0  0  0  0  0  0  0  0  0  0  0  0
   63.3538   33.4611   48.3432 H   0  0  0  0  0  0  0  0  0  0  0  0
   62.6960   34.0530   46.3750 C   0  0  0  0  0  0  0  0  0  0  0  0
   62.7770   33.6785   45.3439 H   0  0  0  0  0  0  0  0  0  0  0  0
   63.1091   35.0694   46.4546 H   0  0  0  0  0  0  0  0  0  0  0  0
   61.2410   34.1000   46.7670 C   0  0  0  0  0  0  0  0  0  0  0  0
   60.8640   33.9480   48.1110 C   0  0  0  0  0  0  0  0  0  0  0  0
   61.6352   33.8475   48.8889 H   0  0  0  0  0  0  0  0  0  0  0  0
   59.5130   33.9240   48.4630 C   0  0  0  0  0  0  0  0  0  0  0  0
   59.2236   33.8142   49.5186 H   0  0  0  0  0  0  0  0  0  0  0  0
   58.5270   34.0390   47.4790 C   0  0  0  0  0  0  0  0  0  0  0  0
   57.4643   34.0078   47.7615 H   0  0  0  0  0  0  0  0  0  0  0  0
   58.8880   34.1940   46.1330 C   0  0  0  0  0  0  0  0  0  0  0  0
   57.8350   34.2550   45.0660 C   0  0  0  0  0  0  0  0  0  0  0  0
   56.8413   34.3126   45.5343 H   0  0  0  0  0  0  0  0  0  0  0  0
   57.9978   35.1452   44.4407 H   0  0  0  0  0  0  0  0  0  0  0  0
   57.8939   33.3519   44.4407 H   0  0  0  0  0  0  0  0  0  0  0  0
   60.2460   34.2100   45.7800 C   0  0  0  0  0  0  0  0  0  0  0  0
   60.5341   34.3094   44.7231 H   0  0  0  0  0  0  0  0  0  0  0  0
   61.0310   30.6930   47.7050 N   0  0  0  0  0  0  0  0  0  0  0  0
   60.3220   30.7600   46.5490 C   0  0  0  0  0  0  0  0  0  0  0  0
   60.7502   31.2313   45.6521 H   0  0  0  0  0  0  0  0  0  0  0  0
   57.2170   29.2970   45.0260 C   0  0  0  0  0  0  0  0  0  0  0  0
   56.9520   28.3120   45.9220 F   0  0  0  0  0  0  0  0  0  0  0  0
   56.4580   29.3660   43.8530 C   0  0  0  0  0  0  0  0  0  0  0  0
   55.6859   28.6081   43.6544 H   0  0  0  0  0  0  0  0  0  0  0  0
  1  2  1  0
  2  3  2  0
  3  4  1  0
  3  5  1  0
  5  6  1  0
  5  7  2  0
  7  8  1  0
  8  9  1  0
  9 10  1  0
  9 11  2  0
 11 12  1  0
 11 13  1  0
 13 14  2  0
 14 15  1  0
 14 16  1  0
 16 17  1  0
 16 18  1  0
 18 19  2  0
 19 20  1  0
 20 21  1  0
 20 22  1  0
 20 23  1  0
 23 24  1  0
 23 25  1  0
 23 26  1  0
 26 27  2  0
 27 28  1  0
 27 29  1  0
 29 30  1  0
 29 31  2  0
 31 32  1  0
 31 33  1  0
 33 34  1  0
 34 35  1  0
 34 36  1  0
 34 37  1  0
 33 38  2  0
 38 39  1  0
 18 40  1  0
 40 41  1  0
 41 42  1  0
  7 43  1  0
 43 44  1  0
 43 45  2  0
 45 46  1  0
 45  2  1  0
 41  8  2  0
 40 13  1  0
 38 26  1  0
M  END
>  <UniqueID>  (17) 
17

>  <SMILES>  (17) 
Cc1cccc(CC/N=c2\[nH]cc3ccc(-c4ccccc4F)cn23)c1

>  <Energy>  (17) 
89.09589432759363

>  <Genealogy>  (17) 
Cc1cccc(CC/N=c2\[nH]cc3ccc(-c4ccccc4F)cn23)c1 (cis-trans isomerization)
Cc1cccc(CC/N=c2\[nH]cc3ccc(-c4ccccc4F)cn23)c1 (3D coordinates assigned)
Cc1cccc(CC/N=c2\[nH]cc3ccc(-c4ccccc4F)cn23)c1 (optimized conformer: 89.09589432759363 kcal/mol)

>  <smiles>  (17) 
Cc1cccc(CCN=c2[nH]cc3ccc(-c4ccccc4F)cn23)c1

>  <score_type>  (17) 
oracle

>  <origin>  (17) 
adg

>  <m_score__min__energy>  (17) 
-8.4199999999999999

>  <m_primary>  (17) 
energy

$$$$
17:0
     RDKit          3D

 29 30  0  0  0  0  0  0  0  0999 V2000
   56.6540   30.2840   43.4180 C   0  0  0  0  0  0  0  0  0  0  0  0
   56.4740   31.0280   44.6190 O   0  0  0  0  0  0  0  0  0  0  0  0
   57.4600   31.8360   45.2050 C   0  0  0  0  0  0  0  0  0  0  0  0
   58.5520   31.2140   45.8190 C   0  0  0  0  0  0  0  0  0  0  0  0
   59.5610   31.9750   46.4170 C   0  0  0  0  0  0  0  0  0  0  0  0
   59.4900   33.3760   46.4060 C   0  0  0  0  0  0  0  0  0  0  0  0
   60.5550   34.2000   47.0780 C   0  0  0  0  0  0  0  0  0  0  0  0
   62.2010   33.8460   46.3700 S   0  0  0  0  0  0  0  0  0  0  0  0
   62.9970   33.6130   47.9580 C   0  0  0  0  0  0  0  0  0  0  0  0
   62.5590   34.1510   49.0400 N   0  0  0  0  0  0  0  0  0  0  0  0
   63.4040   33.7500   50.1590 C   0  0  0  0  0  0  0  0  0  0  0  0
   64.4740   32.8320   49.5450 C   0  0  0  0  0  0  0  0  0  0  0  0
   64.1440   32.8090   48.1350 N   0  0  0  0  0  0  0  0  0  0  0  0
   58.3950   34.0040   45.7950 C   0  0  0  0  0  0  0  0  0  0  0  0
   57.3870   33.2430   45.1960 C   0  0  0  0  0  0  0  0  0  0  0  0
   56.9060   29.2424   43.6662 H   0  0  0  0  0  0  0  0  0  0  0  0
   55.7246   30.3063   42.8301 H   0  0  0  0  0  0  0  0  0  0  0  0
   57.4705   30.7287   42.8301 H   0  0  0  0  0  0  0  0  0  0  0  0
   58.6176   30.1160   45.8315 H   0  0  0  0  0  0  0  0  0  0  0  0
   60.4137   31.4733   46.8979 H   0  0  0  0  0  0  0  0  0  0  0  0
   60.3256   35.2668   46.9390 H   0  0  0  0  0  0  0  0  0  0  0  0
   60.5718   33.9455   48.1480 H   0  0  0  0  0  0  0  0  0  0  0  0
   63.8715   34.6302   50.6246 H   0  0  0  0  0  0  0  0  0  0  0  0
   62.8294   33.2426   50.9479 H   0  0  0  0  0  0  0  0  0  0  0  0
   65.4815   33.2436   49.7047 H   0  0  0  0  0  0  0  0  0  0  0  0
   64.4822   31.8286   49.9957 H   0  0  0  0  0  0  0  0  0  0  0  0
   64.6440   32.2740   47.3910 H   0  0  0  0  0  0  0  0  0  0  0  0
   58.3289   35.1020   45.7871 H   0  0  0  0  0  0  0  0  0  0  0  0
   56.5337   33.7444   44.7159 H   0  0  0  0  0  0  0  0  0  0  0  0
  1  2  1  0
  2  3  1  0
  3  4  2  0
  4  5  1  0
  5  6  2  0
  6  7  1  0
  7  8  1  0
  8  9  1  0
  9 10  2  0
 10 11  1  0
 11 12  1  0
 12 13  1  0
  6 14  1  0
 14 15  2  0
 15  3  1  0
 13  9  1  0
  1 16  1  0
  1 17  1  0
  1 18  1  0
  4 19  1  0
  5 20  1  0
  7 21  1  0
  7 22  1  0
 11 23  1  0
 11 24  1  0
 12 25  1  0
 12 26  1  0
 13 27  1  0
 14 28  1  0
 15 29  1  0
M  END
>  <UniqueID>  (18) 
18

>  <SMILES>  (18) 
COc1ccc(CSC2=NCCN2)cc1

>  <Energy>  (18) 
34.38730172057977

>  <Genealogy>  (18) 
COc1ccc(CSC2=NCCN2)cc1 (3D coordinates assigned)
COc1ccc(CSC2=NCCN2)cc1 (nonaromatic ring conformer: 34.38730172057977 kcal/mol)

>  <smiles>  (18) 
COc1ccc(CSC2=NCCN2)cc1

>  <score_type>  (18) 
oracle

>  <origin>  (18) 
adg

>  <m_score__min__energy>  (18) 
-5.8200000000000003

>  <m_primary>  (18) 
energy

$$$$
18:0
     RDKit          3D

 42 44  0  0  0  0  0  0  0  0999 V2000
   57.8050   32.2630   45.4660 C   0  0  0  0  0  0  0  0  0  0  0  0
   58.5180   33.3070   46.2720 C   0  0  0  0  0  0  0  0  0  0  0  0
   58.9760   34.5120   45.7150 C   0  0  0  0  0  0  0  0  0  0  0  0
   59.6420   35.3300   46.6190 C   0  0  0  0  0  0  0  0  0  0  0  0
   59.6700   34.5530   48.1080 S   0  0  0  0  0  0  0  0  0  0  0  0
   58.8270   33.1780   47.6280 C   0  0  0  0  0  0  0  0  0  0  0  0
   58.5180   32.0070   48.5270 C   0  0  0  0  0  0  0  0  0  0  0  0
   59.2110   32.1180   49.8420 N   0  0  1  0  0  0  0  0  0  0  0  0
   58.2590   32.4840   50.9340 C   0  0  0  0  0  0  0  0  0  0  0  0
   57.8570   31.2990   51.8440 C   0  0  0  0  0  0  0  0  0  0  0  0
   57.7750   30.0410   51.0960 N   0  0  0  0  0  0  0  0  0  0  0  0
   59.0440   29.6830   50.4330 C   0  0  0  0  0  0  0  0  0  0  0  0
   59.9830   30.8960   50.2100 C   0  0  1  0  0  0  0  0  0  0  0  0
   61.1350   30.5380   49.2340 C   0  0  0  0  0  0  0  0  0  0  0  0
   61.9370   31.7460   48.8150 C   0  0  0  0  0  0  0  0  0  0  0  0
   62.2730   31.9510   47.4670 C   0  0  0  0  0  0  0  0  0  0  0  0
   62.9850   33.0950   47.1020 C   0  0  0  0  0  0  0  0  0  0  0  0
   63.3510   34.0020   48.0460 N   0  0  0  0  0  0  0  0  0  0  0  0
   63.0420   33.8290   49.3580 C   0  0  0  0  0  0  0  0  0  0  0  0
   62.3290   32.6980   49.7670 C   0  0  0  0  0  0  0  0  0  0  0  0
   57.3162   31.5473   46.1434 H   0  0  0  0  0  0  0  0  0  0  0  0
   57.0462   32.7444   44.8316 H   0  0  0  0  0  0  0  0  0  0  0  0
   58.5295   31.7313   44.8316 H   0  0  0  0  0  0  0  0  0  0  0  0
   58.8216   34.7832   44.6602 H   0  0  0  0  0  0  0  0  0  0  0  0
   60.0761   36.3163   46.3979 H   0  0  0  0  0  0  0  0  0  0  0  0
   57.4323   31.9677   48.6993 H   0  0  0  0  0  0  0  0  0  0  0  0
   58.8739   31.0924   48.0301 H   0  0  0  0  0  0  0  0  0  0  0  0
   59.8990   32.9050   49.7720 H   0  0  0  0  0  0  0  0  0  0  0  0
   58.7311   33.2557   51.5598 H   0  0  0  0  0  0  0  0  0  0  0  0
   57.3380   32.8372   50.4472 H   0  0  0  0  0  0  0  0  0  0  0  0
   58.6079   31.1912   52.6406 H   0  0  0  0  0  0  0  0  0  0  0  0
   56.8629   31.5124   52.2637 H   0  0  0  0  0  0  0  0  0  0  0  0
   57.0100   30.1220   50.3860 H   0  0  0  0  0  0  0  0  0  0  0  0
   59.5687   28.9457   51.0583 H   0  0  0  0  0  0  0  0  0  0  0  0
   58.7910   29.2803   49.4411 H   0  0  0  0  0  0  0  0  0  0  0  0
   60.4774   31.1477   51.1598 H   0  0  0  0  0  0  0  0  0  0  0  0
   61.8079   29.8232   49.7303 H   0  0  0  0  0  0  0  0  0  0  0  0
   60.6828   30.1077   48.3283 H   0  0  0  0  0  0  0  0  0  0  0  0
   61.9773   31.2156   46.7043 H   0  0  0  0  0  0  0  0  0  0  0  0
   63.2505   33.2629   46.0478 H   0  0  0  0  0  0  0  0  0  0  0  0
   63.3533   34.5798   50.0992 H   0  0  0  0  0  0  0  0  0  0  0  0
   62.0773   32.5560   50.8283 H   0  0  0  0  0  0  0  0  0  0  0  0
  1  2  1  0
  2  3  1  0
  3  4  2  0
  4  5  1  0
  5  6  1  0
  6  7  1  0
  7  8  1  0
  8  9  1  0
  9 10  1  0
 10 11  1  0
 11 12  1  0
 12 13  1  0
 13 14  1  0
 14 15  1  0
 15 16  2  0
 16 17  1  0
 17 18  2  0
 18 19  1  0
 19 20  2  0
  6  2  2  0
 13  8  1  0
 20 15  1  0
  1 21  1  0
  1 22  1  0
  1 23  1  0
  3 24  1  0
  4 25  1  0
  7 26  1  0
  7 27  1  0
  8 28  1  6
  9 29  1  0
  9 30  1  0
 10 31  1  0
 10 32  1  0
 11 33  1  0
 12 34  1  0
 12 35  1  0
 13 36  1  1
 14 37  1  0
 14 38  1  0
 16 39  1  0
 17 40  1  0
 19 41  1  0
 20 42  1  0
M  CHG  1   8   1
M  END
>  <UniqueID>  (19) 
19

>  <SMILES>  (19) 
Cc1ccsc1C[N@H+]1CCNC[C@H]1Cc1ccncc1

>  <Energy>  (19) 
81.76818033802596

>  <Genealogy>  (19) 
Cc1ccsc1C[NH+]1CCNCC1Cc1ccncc1 (protonated)
Cc1ccsc1C[N@H+]1CCNC[C@H]1Cc1ccncc1 (chirality)
Cc1ccsc1C[N@H+]1CCNC[C@H]1Cc1ccncc1 (3D coordinates assigned)
Cc1ccsc1C[N@H+]1CCNC[C@H]1Cc1ccncc1 (nonaromatic ring conformer: 81.76818033802596 kcal/mol)

>  <smiles>  (19) 
Cc1ccsc1CN1CCNCC1Cc1ccncc1

>  <score_type>  (19) 
oracle

>  <origin>  (19) 
adg

>  <m_score__min__energy>  (19) 
-4.6500000000000004

>  <m_primary>  (19) 
energy

$$$$
19:0
     RDKit          3D

 70 73  0  0  0  0  0  0  0  0999 V2000
   59.6370   33.3750   50.7380 C   0  0  0  0  0  0  0  0  0  0  0  0
   58.7220   33.7000   51.9320 C   0  0  0  0  0  0  0  0  0  0  0  0
   58.1450   32.5180   52.6300 N   0  0  2  0  0  0  0  0  0  0  0  0
   56.6890   32.3440   52.3690 C   0  0  0  0  0  0  0  0  0  0  0  0
   56.3380   31.0040   51.6720 C   0  0  0  0  0  0  0  0  0  0  0  0
   57.4870   30.0840   51.6050 N   0  0  0  0  0  0  0  0  0  0  0  0
   57.6210   29.1900   52.7700 C   0  0  0  0  0  0  0  0  0  0  0  0
   59.0230   29.2500   53.4190 C   0  0  0  0  0  0  0  0  0  0  0  0
   59.9700   30.0820   52.6550 N   0  0  0  0  0  0  0  0  0  0  0  0
   61.0120   29.3030   51.9640 C   0  0  0  0  0  0  0  0  0  0  0  0
   60.6120   28.9500   50.5240 C   0  0  0  0  0  0  0  0  0  0  0  0
   60.7450   30.1120   49.6310 N   0  0  0  0  0  0  0  0  0  0  0  0
   59.6100   30.5780   48.8740 C   0  0  0  0  0  0  0  0  0  0  0  0
   58.4790   30.0460   49.0400 O   0  0  0  0  0  0  0  0  0  0  0  0
   59.7690   31.6830   47.9010 C   0  0  0  0  0  0  0  0  0  0  0  0
   58.6780   32.1150   47.1260 C   0  0  0  0  0  0  0  0  0  0  0  0
   58.8290   33.1560   46.2070 C   0  0  0  0  0  0  0  0  0  0  0  0
   60.0650   33.7840   46.0510 C   0  0  0  0  0  0  0  0  0  0  0  0
   61.1670   33.3700   46.8110 C   0  0  0  0  0  0  0  0  0  0  0  0
   62.4090   34.0030   46.6550 C   0  0  0  0  0  0  0  0  0  0  0  0
   63.5060   33.5930   47.4120 C   0  0  0  0  0  0  0  0  0  0  0  0
   63.3780   32.5450   48.3250 C   0  0  0  0  0  0  0  0  0  0  0  0
   62.1450   31.8930   48.5000 C   0  0  0  0  0  0  0  0  0  0  0  0
   61.0260   32.3090   47.7420 C   0  0  0  0  0  0  0  0  0  0  0  0
   62.0130   30.7810   49.4680 C   0  0  0  0  0  0  0  0  0  0  0  0
   63.0100   30.4260   50.1550 O   0  0  0  0  0  0  0  0  0  0  0  0
   58.5470   32.4250   54.0640 C   0  0  0  0  0  0  0  0  0  0  0  0
   59.4630   33.5300   54.5610 C   0  0  0  0  0  0  0  0  0  0  0  0
   58.9130   34.6020   55.2840 C   0  0  0  0  0  0  0  0  0  0  0  0
   59.7220   35.6300   55.7540 C   0  0  0  0  0  0  0  0  0  0  0  0
   61.0980   35.5820   55.5550 C   0  0  0  0  0  0  0  0  0  0  0  0
   61.6850   34.5060   54.8810 C   0  0  0  0  0  0  0  0  0  0  0  0
   63.6020   34.4980   54.8310 Br  0  0  0  0  0  0  0  0  0  0  0  0
   60.8660   33.4680   54.3590 C   0  0  0  0  0  0  0  0  0  0  0  0
   61.3750   32.3610   53.6590 O   0  0  0  0  0  0  0  0  0  0  0  0
   62.2500   32.4130   52.5370 C   0  0  0  0  0  0  0  0  0  0  0  0
   60.6132   33.0283   51.1079 H   0  0  0  0  0  0  0  0  0  0  0  0
   59.1753   32.5859   50.1264 H   0  0  0  0  0  0  0  0  0  0  0  0
   59.7765   34.2786   50.1264 H   0  0  0  0  0  0  0  0  0  0  0  0
   59.3090   34.2741   52.6640 H   0  0  0  0  0  0  0  0  0  0  0  0
   57.8681   34.2569   51.5189 H   0  0  0  0  0  0  0  0  0  0  0  0
   58.6230   31.7020   52.1810 H   0  0  0  0  0  0  0  0  0  0  0  0
   56.1561   32.3857   53.3304 H   0  0  0  0  0  0  0  0  0  0  0  0
   56.3854   33.1514   51.6864 H   0  0  0  0  0  0  0  0  0  0  0  0
   55.5278   30.5160   52.2337 H   0  0  0  0  0  0  0  0  0  0  0  0
   56.0338   31.2340   50.6402 H   0  0  0  0  0  0  0  0  0  0  0  0
   57.3890   29.4960   50.7450 H   0  0  0  0  0  0  0  0  0  0  0  0
   56.8735   29.4807   53.5228 H   0  0  0  0  0  0  0  0  0  0  0  0
   57.4666   28.1606   52.4144 H   0  0  0  0  0  0  0  0  0  0  0  0
   58.9242   29.6690   54.4313 H   0  0  0  0  0  0  0  0  0  0  0  0
   59.4232   28.2256   53.4391 H   0  0  0  0  0  0  0  0  0  0  0  0
   60.4300   30.7630   53.3030 H   0  0  0  0  0  0  0  0  0  0  0  0
   61.9390   29.8946   51.9394 H   0  0  0  0  0  0  0  0  0  0  0  0
   61.1526   28.3621   52.5161 H   0  0  0  0  0  0  0  0  0  0  0  0
   61.2630   28.1417   50.1594 H   0  0  0  0  0  0  0  0  0  0  0  0
   59.5590   28.6319   50.5247 H   0  0  0  0  0  0  0  0  0  0  0  0
   57.6981   31.6294   47.2444 H   0  0  0  0  0  0  0  0  0  0  0  0
   57.9692   33.4822   45.6034 H   0  0  0  0  0  0  0  0  0  0  0  0
   60.1748   34.6067   45.3291 H   0  0  0  0  0  0  0  0  0  0  0  0
   62.5180   34.8257   45.9330 H   0  0  0  0  0  0  0  0  0  0  0  0
   64.4758   34.0974   47.2892 H   0  0  0  0  0  0  0  0  0  0  0  0
   64.2509   32.2261   48.9136 H   0  0  0  0  0  0  0  0  0  0  0  0
   57.6319   32.4438   54.6741 H   0  0  0  0  0  0  0  0  0  0  0  0
   59.1229   31.4923   54.1555 H   0  0  0  0  0  0  0  0  0  0  0  0
   57.8309   34.6280   55.4801 H   0  0  0  0  0  0  0  0  0  0  0  0
   59.2734   36.4830   56.2842 H   0  0  0  0  0  0  0  0  0  0  0  0
   61.7311   36.3989   55.9317 H   0  0  0  0  0  0  0  0  0  0  0  0
   63.2912   32.4749   52.8865 H   0  0  0  0  0  0  0  0  0  0  0  0
   62.1207   31.5056   51.9288 H   0  0  0  0  0  0  0  0  0  0  0  0
   62.0141   33.2987   51.9288 H   0  0  0  0  0  0  0  0  0  0  0  0
  1  2  1  0
  2  3  1  0
  3  4  1  0
  4  5  1  0
  5  6  1  0
  6  7  1  0
  7  8  1  0
  8  9  1  0
  9 10  1  0
 10 11  1  0
 11 12  1  0
 12 13  1  0
 13 14  2  0
 13 15  1  0
 15 16  2  0
 16 17  1  0
 17 18  2  0
 18 19  1  0
 19 20  2  0
 20 21  1  0
 21 22  2  0
 22 23  1  0
 23 24  2  0
 23 25  1  0
 25 26  2  0
  3 27  1  0
 27 28  1  0
 28 29  2  0
 29 30  1  0
 30 31  2  0
 31 32  1  0
 32 33  1  0
 32 34  2  0
 34 35  1  0
 35 36  1  0
 25 12  1  0
 34 28  1  0
 24 15  1  0
 24 19  1  0
  1 37  1  0
  1 38  1  0
  1 39  1  0
  2 40  1  0
  2 41  1  0
  3 42  1  6
  4 43  1  0
  4 44  1  0
  5 45  1  0
  5 46  1  0
  6 47  1  0
  7 48  1  0
  7 49  1  0
  8 50  1  0
  8 51  1  0
  9 52  1  0
 10 53  1  0
 10 54  1  0
 11 55  1  0
 11 56  1  0
 16 57  1  0
 17 58  1  0
 18 59  1  0
 20 60  1  0
 21 61  1  0
 22 62  1  0
 27 63  1  0
 27 64  1  0
 29 65  1  0
 30 66  1  0
 31 67  1  0
 36 68  1  0
 36 69  1  0
 36 70  1  0
M  CHG  1   3   1
M  END
>  <UniqueID>  (20) 
20

>  <SMILES>  (20) 
CC[N@H+](CCNCCNCCN1C(=O)c2cccc3cccc(c23)C1=O)Cc1cccc(Br)c1OC

>  <Energy>  (20) 
96.7422752012068

>  <Genealogy>  (20) 
CC[NH+](CCNCCNCCN1C(=O)c2cccc3cccc(c23)C1=O)Cc1cccc(Br)c1OC (protonated)
CC[N@H+](CCNCCNCCN1C(=O)c2cccc3cccc(c23)C1=O)Cc1cccc(Br)c1OC (chirality)
CC[N@H+](CCNCCNCCN1C(=O)c2cccc3cccc(c23)C1=O)Cc1cccc(Br)c1OC (3D coordinates assigned)
CC[N@H+](CCNCCNCCN1C(=O)c2cccc3cccc(c23)C1=O)Cc1cccc(Br)c1OC (nonaromatic ring conformer: 96.7422752012068 kcal/mol)

>  <smiles>  (20) 
CCN(CCNCCNCCN1C(=O)c2cccc3cccc(c23)C1=O)Cc1cccc(Br)c1OC

>  <score_type>  (20) 
oracle

>  <origin>  (20) 
adg

>  <m_score__min__energy>  (20) 
-6.2800000000000002

>  <m_primary>  (20) 
energy

$$$$
20:0
     RDKit          3D

 34 34  0  0  0  0  0  0  0  0999 V2000
   62.5430   31.5170   47.9260 C   0  0  0  0  0  0  0  0  0  0  0  0
   63.7600   32.3380   47.7800 N   0  0  0  0  0  0  0  0  0  0  0  0
   64.1970   32.8610   49.0880 C   0  0  0  0  0  0  0  0  0  0  0  0
   63.5850   33.4190   46.7820 C   0  0  0  0  0  0  0  0  0  0  0  0
   62.1830   33.8550   46.6430 C   0  0  0  0  0  0  0  0  0  0  0  0
   61.0350   34.2060   46.5260 C   0  0  0  0  0  0  0  0  0  0  0  0
   59.6370   34.6250   46.3760 C   0  0  0  0  0  0  0  0  0  0  0  0
   58.7180   33.5170   46.7160 N   0  0  0  0  0  0  0  0  0  0  0  0
   57.3020   33.8180   46.4010 C   0  0  0  0  0  0  0  0  0  0  0  0
   57.0230   33.8560   44.8840 C   0  0  0  0  0  0  0  0  0  0  0  0
   57.8720   32.8440   44.0960 C   0  0  0  0  0  0  0  0  0  0  0  0
   58.3310   31.6910   44.9830 C   0  0  0  0  0  0  0  0  0  0  0  0
   59.1700   32.2070   46.1710 C   0  0  0  0  0  0  0  0  0  0  0  0
   62.3256   31.3703   48.9943 H   0  0  0  0  0  0  0  0  0  0  0  0
   61.6957   32.0288   47.4463 H   0  0  0  0  0  0  0  0  0  0  0  0
   62.7003   30.5397   47.4463 H   0  0  0  0  0  0  0  0  0  0  0  0
   64.5190   31.7100   47.4250 H   0  0  0  0  0  0  0  0  0  0  0  0
   63.7159   32.2852   49.8924 H   0  0  0  0  0  0  0  0  0  0  0  0
   65.2897   32.7680   49.1736 H   0  0  0  0  0  0  0  0  0  0  0  0
   63.9113   33.9198   49.1736 H   0  0  0  0  0  0  0  0  0  0  0  0
   64.1915   34.2830   47.0914 H   0  0  0  0  0  0  0  0  0  0  0  0
   63.9034   33.0209   45.8073 H   0  0  0  0  0  0  0  0  0  0  0  0
   59.4411   35.4748   47.0464 H   0  0  0  0  0  0  0  0  0  0  0  0
   59.4663   34.9164   45.3291 H   0  0  0  0  0  0  0  0  0  0  0  0
   56.6681   33.0426   46.8558 H   0  0  0  0  0  0  0  0  0  0  0  0
   57.0775   34.8164   46.8046 H   0  0  0  0  0  0  0  0  0  0  0  0
   55.9599   33.6287   44.7164 H   0  0  0  0  0  0  0  0  0  0  0  0
   57.2872   34.8612   44.5239 H   0  0  0  0  0  0  0  0  0  0  0  0
   57.2707   32.4408   43.2678 H   0  0  0  0  0  0  0  0  0  0  0  0
   58.7637   33.3633   43.7149 H   0  0  0  0  0  0  0  0  0  0  0  0
   57.4480   31.1610   45.3696 H   0  0  0  0  0  0  0  0  0  0  0  0
   58.9548   31.0132   44.3817 H   0  0  0  0  0  0  0  0  0  0  0  0
   59.1191   31.4617   46.9784 H   0  0  0  0  0  0  0  0  0  0  0  0
   60.1920   32.3582   45.7933 H   0  0  0  0  0  0  0  0  0  0  0  0
  1  2  1  0
  2  3  1  0
  2  4  1  0
  4  5  1  0
  5  6  3  0
  6  7  1  0
  7  8  1  0
  8  9  1  0
  9 10  1  0
 10 11  1  0
 11 12  1  0
 12 13  1  0
 13  8  1  0
  1 14  1  0
  1 15  1  0
  1 16  1  0
  2 17  1  0
  3 18  1  0
  3 19  1  0
  3 20  1  0
  4 21  1  0
  4 22  1  0
  7 23  1  0
  7 24  1  0
  9 25  1  0
  9 26  1  0
 10 27  1  0
 10 28  1  0
 11 29  1  0
 11 30  1  0
 12 31  1  0
 12 32  1  0
 13 33  1  0
 13 34  1  0
M  CHG  1   2   1
M  END
>  <UniqueID>  (21) 
21

>  <SMILES>  (21) 
C[NH+](C)CC#CCN1CCCCC1

>  <Energy>  (21) 
35.8804608606396

>  <Genealogy>  (21) 
C[NH+](C)CC#CCN1CCCCC1 (protonated)
C[NH+](C)CC#CCN1CCCCC1 (3D coordinates assigned)
C[NH+](C)CC#CCN1CCCCC1 (nonaromatic ring conformer: 35.8804608606396 kcal/mol)

>  <smiles>  (21) 
CN(C)CC#CCN1CCCCC1

>  <score_type>  (21) 
oracle

>  <origin>  (21) 
adg

>  <m_score__min__energy>  (21) 
-3.5299999999999998

>  <m_primary>  (21) 
energy

$$$$
21:0
     RDKit          3D

 44 46  0  0  0  0  0  0  0  0999 V2000
   63.3050   33.0810   47.1860 C   0  0  0  0  0  0  0  0  0  0  0  0
   61.8360   32.7190   47.3410 C   0  0  0  0  0  0  0  0  0  0  0  0
   61.6780   31.3300   47.1380 O   0  0  0  0  0  0  0  0  0  0  0  0
   60.3580   31.0350   46.7200 C   0  0  0  0  0  0  0  0  0  0  0  0
   59.4090   30.9540   47.9190 C   0  0  0  0  0  0  0  0  0  0  0  0
   58.1520   32.2840   47.8900 S   0  0  0  0  0  0  0  0  0  0  0  0
   58.1840   32.4980   46.1110 C   0  0  0  0  0  0  0  0  0  0  0  0
   58.8680   33.5900   45.5300 C   0  0  0  0  0  0  0  0  0  0  0  0
   58.8880   33.7430   44.1340 C   0  0  0  0  0  0  0  0  0  0  0  0
   58.2070   32.7890   43.3900 C   0  0  0  0  0  0  0  0  0  0  0  0
   58.1000   32.6880   42.0550 N   0  0  0  0  0  0  0  0  0  0  0  0
   57.3850   31.5940   41.7960 N   0  0  0  0  0  0  0  0  0  0  0  0
   57.0540   31.0520   42.9940 C   0  0  0  0  0  0  0  0  0  0  0  0
   56.3250   29.7530   43.1650 C   0  0  0  0  0  0  0  0  0  0  0  0
   55.5280   29.7370   44.4680 C   0  0  0  0  0  0  0  0  0  0  0  0
   55.8430   28.5380   45.2350 N   0  0  0  0  0  0  0  0  0  0  0  0
   57.1720   28.2030   45.6490 C   0  0  0  0  0  0  0  0  0  0  0  0
   57.4650   28.1890   46.8750 O   0  0  0  0  0  0  0  0  0  0  0  0
   58.2430   27.8760   44.6440 C   0  0  0  0  0  0  0  0  0  0  0  0
   59.6040   27.5430   45.2360 C   0  0  0  0  0  0  0  0  0  0  0  0
   59.3880   28.8740   44.5290 C   0  0  0  0  0  0  0  0  0  0  0  0
   57.5680   31.7860   43.9920 N   0  0  0  0  0  0  0  0  0  0  0  0
   57.5340   31.6040   45.3100 N   0  0  0  0  0  0  0  0  0  0  0  0
   63.7618   33.1936   48.1803 H   0  0  0  0  0  0  0  0  0  0  0  0
   63.8227   32.2836   46.6328 H   0  0  0  0  0  0  0  0  0  0  0  0
   63.3930   34.0277   46.6328 H   0  0  0  0  0  0  0  0  0  0  0  0
   61.4961   32.9843   48.3530 H   0  0  0  0  0  0  0  0  0  0  0  0
   61.2382   33.2718   46.6014 H   0  0  0  0  0  0  0  0  0  0  0  0
   60.0109   31.8261   46.0390 H   0  0  0  0  0  0  0  0  0  0  0  0
   60.3613   30.0611   46.2087 H   0  0  0  0  0  0  0  0  0  0  0  0
   58.8967   29.9808   47.9012 H   0  0  0  0  0  0  0  0  0  0  0  0
   60.0074   31.0721   48.8344 H   0  0  0  0  0  0  0  0  0  0  0  0
   59.3844   34.3197   46.1709 H   0  0  0  0  0  0  0  0  0  0  0  0
   59.4178   34.5786   43.6532 H   0  0  0  0  0  0  0  0  0  0  0  0
   58.5070   33.3230   41.3340 H   0  0  0  0  0  0  0  0  0  0  0  0
   55.6346   29.6145   42.3199 H   0  0  0  0  0  0  0  0  0  0  0  0
   57.0643   28.9392   43.1977 H   0  0  0  0  0  0  0  0  0  0  0  0
   55.7847   30.6265   45.0621 H   0  0  0  0  0  0  0  0  0  0  0  0
   54.4536   29.7408   44.2321 H   0  0  0  0  0  0  0  0  0  0  0  0
   57.5598   27.3982   43.9264 H   0  0  0  0  0  0  0  0  0  0  0  0
   59.7369   27.5155   46.3276 H   0  0  0  0  0  0  0  0  0  0  0  0
   60.3165   26.7120   45.1280 H   0  0  0  0  0  0  0  0  0  0  0  0
   59.3642   29.8080   45.1096 H   0  0  0  0  0  0  0  0  0  0  0  0
   59.8789   29.4030   43.6988 H   0  0  0  0  0  0  0  0  0  0  0  0
  1  2  1  0
  2  3  1  0
  3  4  1  0
  4  5  1  0
  5  6  1  0
  6  7  1  0
  7  8  1  0
  8  9  2  0
  9 10  1  0
 10 11  2  0
 11 12  1  0
 12 13  2  0
 13 14  1  0
 14 15  1  0
 15 16  1  0
 16 17  1  0
 17 18  2  0
 17 19  1  0
 19 20  1  0
 20 21  1  0
 13 22  1  0
 22 23  1  0
 23  7  2  0
 22 10  1  0
 21 19  1  0
  1 24  1  0
  1 25  1  0
  1 26  1  0
  2 27  1  0
  2 28  1  0
  4 29  1  0
  4 30  1  0
  5 31  1  0
  5 32  1  0
  8 33  1  0
  9 34  1  0
 11 35  1  0
 14 36  1  0
 14 37  1  0
 15 38  1  0
 15 39  1  0
 19 40  1  0
 20 41  1  0
 20 42  1  0
 21 43  1  0
 21 44  1  0
M  CHG  2  11   1  16  -1
M  END
>  <UniqueID>  (22) 
22

>  <SMILES>  (22) 
CCOCCSc1ccc2[nH+]nc(CC[N-]C(=O)C3CC3)n2n1

>  <Energy>  (22) 
340.73554177256324

>  <Genealogy>  (22) 
CCOCCSc1ccc2[nH+]nc(CC[N-]C(=O)C3CC3)n2n1 (protonated)
CCOCCSc1ccc2[nH+]nc(CC[N-]C(=O)C3CC3)n2n1 (3D coordinates assigned)
CCOCCSc1ccc2[nH+]nc(CC[N-]C(=O)C3CC3)n2n1 (nonaromatic ring conformer: 340.73554177256324 kcal/mol)

>  <smiles>  (22) 
CCOCCSc1ccc2nnc(CCNC(=O)C3CC3)n2n1

>  <score_type>  (22) 
oracle

>  <origin>  (22) 
adg

>  <m_score__min__energy>  (22) 
-8.5800000000000001

>  <m_primary>  (22) 
energy

$$$$
22:0
     RDKit          3D

 31 32  0  0  0  0  0  0  0  0999 V2000
   59.1310   34.7890   46.7410 C   0  0  0  0  0  0  0  0  0  0  0  0
   58.7170   33.4720   46.1530 C   0  0  0  0  0  0  0  0  0  0  0  0
   59.2770   32.2790   46.6290 C   0  0  0  0  0  0  0  0  0  0  0  0
   58.9210   31.0530   46.0580 C   0  0  0  0  0  0  0  0  0  0  0  0
   58.0120   31.0050   44.9850 C   0  0  0  0  0  0  0  0  0  0  0  0
   57.6280   29.7600   44.3670 N   0  0  0  0  0  0  0  0  0  0  0  0
   56.6040   28.8560   44.8950 C   0  0  0  0  0  0  0  0  0  0  0  0
   57.2400   27.6550   45.5540 C   0  0  0  0  0  0  0  0  0  0  0  0
   58.6390   27.5730   45.6550 C   0  0  0  0  0  0  0  0  0  0  0  0
   59.2400   26.4640   46.2520 C   0  0  0  0  0  0  0  0  0  0  0  0
   61.1450   26.3600   46.3700 Br  0  0  0  0  0  0  0  0  0  0  0  0
   58.4530   25.4300   46.7600 C   0  0  0  0  0  0  0  0  0  0  0  0
   57.0590   25.4990   46.6790 C   0  0  0  0  0  0  0  0  0  0  0  0
   56.0400   24.0460   47.4040 Br  0  0  0  0  0  0  0  0  0  0  0  0
   56.4420   26.6170   46.0780 C   0  0  0  0  0  0  0  0  0  0  0  0
   55.0510   26.7170   45.9940 O   0  0  0  0  0  0  0  0  0  0  0  0
   57.4610   32.2040   44.5070 C   0  0  0  0  0  0  0  0  0  0  0  0
   57.8170   33.4290   45.0790 C   0  0  0  0  0  0  0  0  0  0  0  0
   59.1103   34.7231   47.8388 H   0  0  0  0  0  0  0  0  0  0  0  0
   60.1499   35.0353   46.4076 H   0  0  0  0  0  0  0  0  0  0  0  0
   58.4363   35.5740   46.4076 H   0  0  0  0  0  0  0  0  0  0  0  0
   60.0009   32.3069   47.4567 H   0  0  0  0  0  0  0  0  0  0  0  0
   59.3541   30.1209   46.4499 H   0  0  0  0  0  0  0  0  0  0  0  0
   58.1520   29.4450   43.5200 H   0  0  0  0  0  0  0  0  0  0  0  0
   55.9948   29.3941   45.6362 H   0  0  0  0  0  0  0  0  0  0  0  0
   55.9744   28.5100   44.0620 H   0  0  0  0  0  0  0  0  0  0  0  0
   59.2643   28.3878   45.2611 H   0  0  0  0  0  0  0  0  0  0  0  0
   58.9316   24.5563   47.2265 H   0  0  0  0  0  0  0  0  0  0  0  0
   54.4300   26.3920   46.7230 H   0  0  0  0  0  0  0  0  0  0  0  0
   56.7423   32.1797   43.6746 H   0  0  0  0  0  0  0  0  0  0  0  0
   57.3893   34.3627   44.6848 H   0  0  0  0  0  0  0  0  0  0  0  0
  1  2  1  0
  2  3  2  0
  3  4  1  0
  4  5  2  0
  5  6  1  0
  6  7  1  0
  7  8  1  0
  8  9  2  0
  9 10  1  0
 10 11  1  0
 10 12  2  0
 12 13  1  0
 13 14  1  0
 13 15  2  0
 15 16  1  0
  5 17  1  0
 17 18  2  0
 18  2  1  0
 15  8  1  0
  1 19  1  0
  1 20  1  0
  1 21  1  0
  3 22  1  0
  4 23  1  0
  6 24  1  0
  7 25  1  0
  7 26  1  0
  9 27  1  0
 12 28  1  0
 16 29  1  0
 17 30  1  0
 18 31  1  0
M  END
>  <UniqueID>  (23) 
23

>  <SMILES>  (23) 
Cc1ccc(NCc2cc(Br)cc(Br)c2O)cc1

>  <Energy>  (23) 
31.203754291977965

>  <Genealogy>  (23) 
Cc1ccc(NCc2cc(Br)cc(Br)c2O)cc1 (3D coordinates assigned)
Cc1ccc(NCc2cc(Br)cc(Br)c2O)cc1 (optimized conformer: 31.203754291977965 kcal/mol)

>  <smiles>  (23) 
Cc1ccc(NCc2cc(Br)cc(Br)c2O)cc1

>  <score_type>  (23) 
oracle

>  <origin>  (23) 
adg

>  <m_score__min__energy>  (23) 
-8.6099999999999994

>  <m_primary>  (23) 
energy

$$$$
23:0
     RDKit          3D

 49 51  0  0  0  0  0  0  0  0999 V2000
   56.9040   21.0190   43.0320 C   0  0  0  0  0  0  0  0  0  0  0  0
   56.2330   22.2130   43.4190 O   0  0  0  0  0  0  0  0  0  0  0  0
   56.8540   23.3010   44.0500 C   0  0  0  0  0  0  0  0  0  0  0  0
   57.0370   24.5400   43.4110 C   0  0  0  0  0  0  0  0  0  0  0  0
   57.6620   25.5960   44.0830 C   0  0  0  0  0  0  0  0  0  0  0  0
   58.1220   25.4330   45.4020 C   0  0  0  0  0  0  0  0  0  0  0  0
   58.7660   26.5270   46.0960 N   0  0  0  0  0  0  0  0  0  0  0  0
   60.1590   26.8890   45.7760 C   0  0  0  0  0  0  0  0  0  0  0  0
   60.3840   28.4010   45.9210 C   0  0  0  0  0  0  0  0  0  0  0  0
   59.7390   28.9380   47.1260 N   0  0  0  0  0  0  0  0  0  0  0  0
   59.8030   30.3510   47.3760 C   0  0  0  0  0  0  0  0  0  0  0  0
   60.9050   30.9530   47.2710 O   0  0  0  0  0  0  0  0  0  0  0  0
   58.5610   31.1430   47.6710 C   0  0  0  0  0  0  0  0  0  0  0  0
   58.4340   32.2880   46.6990 C   0  0  0  0  0  0  0  0  0  0  0  0
   59.0760   33.5080   46.9690 C   0  0  0  0  0  0  0  0  0  0  0  0
   58.9900   34.5690   46.0660 C   0  0  0  0  0  0  0  0  0  0  0  0
   58.2690   34.4210   44.8810 C   0  0  0  0  0  0  0  0  0  0  0  0
   57.6340   33.2110   44.5920 C   0  0  0  0  0  0  0  0  0  0  0  0
   57.7130   32.1310   45.4940 C   0  0  0  0  0  0  0  0  0  0  0  0
   57.0970   30.8970   45.2270 O   0  0  0  0  0  0  0  0  0  0  0  0
   56.7510   30.4310   43.9270 C   0  0  0  0  0  0  0  0  0  0  0  0
   59.0450   28.0340   48.0470 C   0  0  0  0  0  0  0  0  0  0  0  0
   58.0900   27.1430   47.2520 C   0  0  0  0  0  0  0  0  0  0  0  0
   57.9290   24.1930   46.0370 C   0  0  0  0  0  0  0  0  0  0  0  0
   57.3030   23.1400   45.3650 C   0  0  0  0  0  0  0  0  0  0  0  0
   57.2150   20.4656   43.9303 H   0  0  0  0  0  0  0  0  0  0  0  0
   56.2248   20.3943   42.4333 H   0  0  0  0  0  0  0  0  0  0  0  0
   57.7908   21.2743   42.4333 H   0  0  0  0  0  0  0  0  0  0  0  0
   56.6870   24.6797   42.3776 H   0  0  0  0  0  0  0  0  0  0  0  0
   57.7948   26.5626   43.5751 H   0  0  0  0  0  0  0  0  0  0  0  0
   60.8350   26.3577   46.4621 H   0  0  0  0  0  0  0  0  0  0  0  0
   60.3637   26.6035   44.7336 H   0  0  0  0  0  0  0  0  0  0  0  0
   61.4651   28.5956   45.9797 H   0  0  0  0  0  0  0  0  0  0  0  0
   59.9384   28.8972   45.0462 H   0  0  0  0  0  0  0  0  0  0  0  0
   57.6817   30.4885   47.5791 H   0  0  0  0  0  0  0  0  0  0  0  0
   58.6239   31.5439   48.6934 H   0  0  0  0  0  0  0  0  0  0  0  0
   59.6509   33.6281   47.8991 H   0  0  0  0  0  0  0  0  0  0  0  0
   59.4911   35.5225   46.2890 H   0  0  0  0  0  0  0  0  0  0  0  0
   58.2004   35.2595   44.1723 H   0  0  0  0  0  0  0  0  0  0  0  0
   57.0689   33.1003   43.6548 H   0  0  0  0  0  0  0  0  0  0  0  0
   56.0974   29.5507   44.0150 H   0  0  0  0  0  0  0  0  0  0  0  0
   56.2230   31.2266   43.3808 H   0  0  0  0  0  0  0  0  0  0  0  0
   57.6653   30.1557   43.3808 H   0  0  0  0  0  0  0  0  0  0  0  0
   59.7810   27.4078   48.5724 H   0  0  0  0  0  0  0  0  0  0  0  0
   58.4764   28.6212   48.7831 H   0  0  0  0  0  0  0  0  0  0  0  0
   57.7109   26.3476   47.9105 H   0  0  0  0  0  0  0  0  0  0  0  0
   57.2647   27.7669   46.8784 H   0  0  0  0  0  0  0  0  0  0  0  0
   58.2739   24.0509   47.0718 H   0  0  0  0  0  0  0  0  0  0  0  0
   57.1619   22.1755   45.8747 H   0  0  0  0  0  0  0  0  0  0  0  0
  1  2  1  0
  2  3  1  0
  3  4  2  0
  4  5  1  0
  5  6  2  0
  6  7  1  0
  7  8  1  0
  8  9  1  0
  9 10  1  0
 10 11  1  0
 11 12  2  0
 11 13  1  0
 13 14  1  0
 14 15  2  0
 15 16  1  0
 16 17  2  0
 17 18  1  0
 18 19  2  0
 19 20  1  0
 20 21  1  0
 10 22  1  0
 22 23  1  0
  6 24  1  0
 24 25  2  0
 25  3  1  0
 23  7  1  0
 19 14  1  0
  1 26  1  0
  1 27  1  0
  1 28  1  0
  4 29  1  0
  5 30  1  0
  8 31  1  0
  8 32  1  0
  9 33  1  0
  9 34  1  0
 13 35  1  0
 13 36  1  0
 15 37  1  0
 16 38  1  0
 17 39  1  0
 18 40  1  0
 21 41  1  0
 21 42  1  0
 21 43  1  0
 22 44  1  0
 22 45  1  0
 23 46  1  0
 23 47  1  0
 24 48  1  0
 25 49  1  0
M  END
>  <UniqueID>  (24) 
24

>  <SMILES>  (24) 
COc1ccc(N2CCN(C(=O)Cc3ccccc3OC)CC2)cc1

>  <Energy>  (24) 
52.82551351001237

>  <Genealogy>  (24) 
COc1ccc(N2CCN(C(=O)Cc3ccccc3OC)CC2)cc1 (3D coordinates assigned)
COc1ccc(N2CCN(C(=O)Cc3ccccc3OC)CC2)cc1 (nonaromatic ring conformer: 52.82551351001237 kcal/mol)

>  <smiles>  (24) 
COc1ccc(N2CCN(C(=O)Cc3ccccc3OC)CC2)cc1

>  <score_type>  (24) 
oracle

>  <origin>  (24) 
adg

>  <m_score__min__energy>  (24) 
-7.4400000000000004

>  <m_primary>  (24) 
energy

$$$$
24:0
     RDKit          3D

 33 36  0  0  0  0  0  0  0  0999 V2000
   59.2780   29.8890   48.8690 C   0  0  0  0  0  0  0  0  0  0  0  0
   60.2190   29.9750   47.8040 O   0  0  0  0  0  0  0  0  0  0  0  0
   61.0200   31.0960   47.5240 C   0  0  0  0  0  0  0  0  0  0  0  0
   62.3090   31.2160   48.0830 C   0  0  0  0  0  0  0  0  0  0  0  0
   63.0080   32.4160   48.0000 C   0  0  0  0  0  0  0  0  0  0  0  0
   62.4100   33.5310   47.4230 C   0  0  0  0  0  0  0  0  0  0  0  0
   61.1390   33.4290   46.8410 C   0  0  0  0  0  0  0  0  0  0  0  0
   60.4800   34.5880   46.4170 C   0  0  0  0  0  0  0  0  0  0  0  0
   59.1710   34.5180   45.9540 C   0  0  0  0  0  0  0  0  0  0  0  0
   58.5570   33.2750   45.7450 C   0  0  0  0  0  0  0  0  0  0  0  0
   57.2380   33.1920   45.2590 C   0  0  0  0  0  0  0  0  0  0  0  0
   56.5350   34.2290   45.1210 O   0  0  0  0  0  0  0  0  0  0  0  0
   56.7160   32.0170   44.9340 O   0  0  0  0  0  0  0  0  0  0  0  0
   57.4080   30.8880   44.9700 C   0  0  0  0  0  0  0  0  0  0  0  0
   56.8150   29.7140   44.4920 C   0  0  0  0  0  0  0  0  0  0  0  0
   57.5720   28.5470   44.3670 C   0  0  0  0  0  0  0  0  0  0  0  0
   58.9290   28.5600   44.6850 C   0  0  0  0  0  0  0  0  0  0  0  0
   59.5210   29.7210   45.1910 C   0  0  0  0  0  0  0  0  0  0  0  0
   58.7470   30.8760   45.4390 C   0  0  0  0  0  0  0  0  0  0  0  0
   59.2750   32.0760   45.9970 C   0  0  0  0  0  0  0  0  0  0  0  0
   60.4940   32.1650   46.7460 C   0  0  0  0  0  0  0  0  0  0  0  0
   59.8082   29.9375   49.8316 H   0  0  0  0  0  0  0  0  0  0  0  0
   58.5676   30.7260   48.7991 H   0  0  0  0  0  0  0  0  0  0  0  0
   58.7311   28.9371   48.7991 H   0  0  0  0  0  0  0  0  0  0  0  0
   62.7660   30.3530   48.5893 H   0  0  0  0  0  0  0  0  0  0  0  0
   64.0340   32.4828   48.3909 H   0  0  0  0  0  0  0  0  0  0  0  0
   62.9365   34.4968   47.4233 H   0  0  0  0  0  0  0  0  0  0  0  0
   60.9990   35.5573   46.4501 H   0  0  0  0  0  0  0  0  0  0  0  0
   58.6133   35.4440   45.7503 H   0  0  0  0  0  0  0  0  0  0  0  0
   55.7507   29.7103   44.2142 H   0  0  0  0  0  0  0  0  0  0  0  0
   57.0975   27.6181   44.0178 H   0  0  0  0  0  0  0  0  0  0  0  0
   59.5357   27.6544   44.5374 H   0  0  0  0  0  0  0  0  0  0  0  0
   60.6012   29.7351   45.3982 H   0  0  0  0  0  0  0  0  0  0  0  0
  1  2  1  0
  2  3  1  0
  3  4  2  0
  4  5  1  0
  5  6  2  0
  6  7  1  0
  7  8  2  0
  8  9  1  0
  9 10  2  0
 10 11  1  0
 11 12  2  0
 11 13  1  0
 13 14  1  0
 14 15  2  0
 15 16  1  0
 16 17  2  0
 17 18  1  0
 18 19  2  0
 19 20  1  0
 20 21  2  0
 21  3  1  0
 21  7  1  0
 20 10  1  0
 19 14  1  0
  1 22  1  0
  1 23  1  0
  1 24  1  0
  4 25  1  0
  5 26  1  0
  6 27  1  0
  8 28  1  0
  9 29  1  0
 15 30  1  0
 16 31  1  0
 17 32  1  0
 18 33  1  0
M  END
>  <UniqueID>  (25) 
25

>  <SMILES>  (25) 
COc1cccc2ccc3c(=O)oc4ccccc4c3c12

>  <Energy>  (25) 
72.50824372108312

>  <Genealogy>  (25) 
COc1cccc2ccc3c(=O)oc4ccccc4c3c12 (3D coordinates assigned)
COc1cccc2ccc3c(=O)oc4ccccc4c3c12 (optimized conformer: 72.50824372108312 kcal/mol)

>  <smiles>  (25) 
COc1cccc2ccc3c(=O)oc4ccccc4c3c12

>  <score_type>  (25) 
oracle

>  <origin>  (25) 
adg

>  <m_score__min__energy>  (25) 
-7.5199999999999996

>  <m_primary>  (25) 
energy

$$$$
25:0
     RDKit          3D

 25 25  0  0  0  0  0  0  0  0999 V2000
   57.9740   27.5490   46.7760 C   0  0  0  0  0  0  0  0  0  0  0  0
   56.9530   27.0440   45.7610 C   0  0  0  0  0  0  0  0  0  0  0  0
   56.1560   28.1520   45.2350 N   0  0  0  0  0  0  0  0  0  0  0  0
   56.6280   29.1010   44.2610 C   0  0  0  0  0  0  0  0  0  0  0  0
   55.5190   29.9370   43.3820 S   0  0  0  0  0  0  0  0  0  0  0  0
   58.0260   29.4350   44.1420 N   0  0  0  0  0  0  0  0  0  0  0  0
   58.2750   30.7220   44.7440 C   0  0  0  0  0  0  0  0  0  0  0  0
   58.8510   30.8110   46.0250 C   0  0  0  0  0  0  0  0  0  0  0  0
   59.1140   32.0590   46.5980 C   0  0  0  0  0  0  0  0  0  0  0  0
   58.8080   33.2300   45.8980 C   0  0  0  0  0  0  0  0  0  0  0  0
   59.1400   34.7950   46.6180 Cl  0  0  0  0  0  0  0  0  0  0  0  0
   58.2410   33.1530   44.6220 C   0  0  0  0  0  0  0  0  0  0  0  0
   57.9770   31.9070   44.0470 C   0  0  0  0  0  0  0  0  0  0  0  0
   57.6009   27.3645   47.7942 H   0  0  0  0  0  0  0  0  0  0  0  0
   58.9268   27.0183   46.6328 H   0  0  0  0  0  0  0  0  0  0  0  0
   58.1304   28.6284   46.6328 H   0  0  0  0  0  0  0  0  0  0  0  0
   57.4816   26.5532   44.9305 H   0  0  0  0  0  0  0  0  0  0  0  0
   56.2810   26.3304   46.2602 H   0  0  0  0  0  0  0  0  0  0  0  0
   55.1510   28.1940   45.5180 H   0  0  0  0  0  0  0  0  0  0  0  0
   58.2880   29.4550   43.1290 H   0  0  0  0  0  0  0  0  0  0  0  0
   58.6310   28.7120   44.5900 H   0  0  0  0  0  0  0  0  0  0  0  0
   59.0959   29.8928   46.5790 H   0  0  0  0  0  0  0  0  0  0  0  0
   59.5622   32.1196   47.6007 H   0  0  0  0  0  0  0  0  0  0  0  0
   58.0025   34.0743   44.0703 H   0  0  0  0  0  0  0  0  0  0  0  0
   57.5330   31.8524   43.0421 H   0  0  0  0  0  0  0  0  0  0  0  0
  1  2  1  0
  2  3  1  0
  3  4  1  0
  4  5  2  0
  4  6  1  0
  6  7  1  0
  7  8  2  0
  8  9  1  0
  9 10  2  0
 10 11  1  0
 10 12  1  0
 12 13  2  0
 13  7  1  0
  1 14  1  0
  1 15  1  0
  1 16  1  0
  2 17  1  0
  2 18  1  0
  3 19  1  0
  6 20  1  0
  6 21  1  0
  8 22  1  0
  9 23  1  0
 12 24  1  0
 13 25  1  0
M  CHG  1   6   1
M  END
>  <UniqueID>  (26) 
26

>  <SMILES>  (26) 
CCNC(=S)[NH2+]c1ccc(Cl)cc1

>  <Energy>  (26) 
21.197848141291004

>  <Genealogy>  (26) 
CCNC(=S)[NH2+]c1ccc(Cl)cc1 (protonated)
CCNC(=S)[NH2+]c1ccc(Cl)cc1 (3D coordinates assigned)
CCNC(=S)[NH2+]c1ccc(Cl)cc1 (optimized conformer: 21.197848141291004 kcal/mol)

>  <smiles>  (26) 
CCNC(=S)Nc1ccc(Cl)cc1

>  <score_type>  (26) 
oracle

>  <origin>  (26) 
adg

>  <m_score__min__energy>  (26) 
-4.2699999999999996

>  <m_primary>  (26) 
energy

$$$$
26:0
     RDKit          3D

 50 52  0  0  1  0  0  0  0  0999 V2000
   64.5510   32.6100   49.5400 C   0  0  0  0  0  0  0  0  0  0  0  0
   63.3400   31.7170   49.5580 C   0  0  0  0  0  0  0  0  0  0  0  0
   62.6460   31.6480   48.3610 N   0  0  0  0  0  0  0  0  0  0  0  0
   63.2120   32.0670   47.1460 C   0  0  0  0  0  0  0  0  0  0  0  0
   62.8370   33.4780   46.8030 C   0  0  0  0  0  0  0  0  0  0  0  0
   61.2760   31.2830   48.3160 C   0  0  0  0  0  0  0  0  0  0  0  0
   61.1410   29.7910   48.2960 C   0  0  0  0  0  0  0  0  0  0  0  0
   59.8530   29.2340   48.1230 N   0  0  0  0  0  0  0  0  0  0  0  0
   59.2040   29.0810   46.8520 C   0  0  0  0  0  0  0  0  0  0  0  0
   58.3770   30.0740   46.3470 C   0  0  0  0  0  0  0  0  0  0  0  0
   57.7810   29.8930   45.1040 C   0  0  0  0  0  0  0  0  0  0  0  0
   56.9590   30.8640   44.5820 C   0  0  0  0  0  0  0  0  0  0  0  0
   56.7030   31.9810   45.2240 N   0  0  0  0  0  0  0  0  0  0  0  0
   57.7110   32.9570   45.4260 C   0  0  0  0  0  0  0  0  0  0  0  0
   58.2760   33.7190   44.4490 C   0  0  0  0  0  0  0  0  0  0  0  0
   59.2690   34.6530   44.7650 C   0  0  0  0  0  0  0  0  0  0  0  0
   59.7020   34.8250   46.0670 C   0  0  0  0  0  0  0  0  0  0  0  0
   59.1320   34.0530   47.0620 C   0  0  0  0  0  0  0  0  0  0  0  0
   59.6590   34.2110   48.9000 Br  0  0  0  0  0  0  0  0  0  0  0  0
   58.1530   33.1350   46.7420 C   0  0  0  0  0  0  0  0  0  0  0  0
   56.3870   30.6930   43.3870 N   0  0  0  0  0  0  0  0  0  0  0  0
   56.5960   29.5830   42.6710 C   0  0  0  0  0  0  0  0  0  0  0  0
   57.3950   28.5920   43.1300 N   0  0  0  0  0  0  0  0  0  0  0  0
   57.9840   28.7590   44.3500 C   0  0  0  0  0  0  0  0  0  0  0  0
   58.8100   27.7600   44.8470 C   0  0  0  0  0  0  0  0  0  0  0  0
   59.4110   27.9250   46.0870 C   0  0  0  0  0  0  0  0  0  0  0  0
   60.5450   26.5200   46.7350 Br  0  0  0  0  0  0  0  0  0  0  0  0
   64.8561   32.8350   50.5726 H   0  0  0  0  0  0  0  0  0  0  0  0
   65.3741   32.1011   49.0171 H   0  0  0  0  0  0  0  0  0  0  0  0
   64.3081   33.5468   49.0171 H   0  0  0  0  0  0  0  0  0  0  0  0
   63.6692   30.7008   49.8207 H   0  0  0  0  0  0  0  0  0  0  0  0
   62.6462   32.1544   50.2910 H   0  0  0  0  0  0  0  0  0  0  0  0
   64.3072   32.0005   47.2238 H   0  0  0  0  0  0  0  0  0  0  0  0
   62.8267   31.4123   46.3505 H   0  0  0  0  0  0  0  0  0  0  0  0
   62.6844   34.0522   47.7287 H   0  0  0  0  0  0  0  0  0  0  0  0
   63.6438   33.9391   46.2143 H   0  0  0  0  0  0  0  0  0  0  0  0
   61.9078   33.4777   46.2143 H   0  0  0  0  0  0  0  0  0  0  0  0
   60.7637   31.6828   49.2035 H   0  0  0  0  0  0  0  0  0  0  0  0
   60.8227   31.6977   47.4036 H   0  0  0  0  0  0  0  0  0  0  0  0
   61.7693   29.4188   47.4734 H   0  0  0  0  0  0  0  0  0  0  0  0
   61.4361   29.4795   49.3089 H   0  0  0  0  0  0  0  0  0  0  0  0
   59.3290   28.8990   48.9630 H   0  0  0  0  0  0  0  0  0  0  0  0
   58.1951   30.9933   46.9230 H   0  0  0  0  0  0  0  0  0  0  0  0
   57.9499   33.5996   43.4052 H   0  0  0  0  0  0  0  0  0  0  0  0
   59.7131   35.2613   43.9633 H   0  0  0  0  0  0  0  0  0  0  0  0
   60.4839   35.5609   46.3060 H   0  0  0  0  0  0  0  0  0  0  0  0
   57.7078   32.5265   47.5429 H   0  0  0  0  0  0  0  0  0  0  0  0
   55.7630   31.4390   43.0040 H   0  0  0  0  0  0  0  0  0  0  0  0
   56.1093   29.4735   41.6906 H   0  0  0  0  0  0  0  0  0  0  0  0
   58.9867   26.8450   44.2626 H   0  0  0  0  0  0  0  0  0  0  0  0
  1  2  1  0
  2  3  1  0
  3  4  1  0
  4  5  1  0
  3  6  1  0
  6  7  1  0
  7  8  1  0
  8  9  1  0
  9 10  2  0
 10 11  1  0
 11 12  1  0
 12 13  2  0
 13 14  1  0
 14 15  2  0
 15 16  1  0
 16 17  2  0
 17 18  1  0
 18 19  1  0
 18 20  2  0
 12 21  1  0
 21 22  1  0
 22 23  2  0
 23 24  1  0
 24 25  1  0
 25 26  2  0
 26 27  1  0
 26  9  1  0
 24 11  2  0
 20 14  1  0
  1 28  1  0
  1 29  1  0
  1 30  1  0
  2 31  1  0
  2 32  1  0
  4 33  1  0
  4 34  1  0
  5 35  1  0
  5 36  1  0
  5 37  1  0
  6 38  1  0
  6 39  1  0
  7 40  1  0
  7 41  1  0
  8 42  1  0
 10 43  1  0
 15 44  1  0
 16 45  1  0
 17 46  1  0
 20 47  1  0
 21 48  1  0
 22 49  1  0
 25 50  1  0
M  END
>  <smiles>  (27) 
CCN(CC)CCNc1cc2c(=Nc3cccc(Br)c3)[nH]cnc2cc1Br

>  <score_type>  (27) 
oracle

>  <origin>  (27) 
adg

>  <m_score__min__energy>  (27) 
-8.4199999999999999

>  <m_primary>  (27) 
energy

$$$$
27:0
     RDKit          3D

 53 56  0  0  0  0  0  0  0  0999 V2000
   56.7010   30.3530   43.3960 C   0  0  0  0  0  0  0  0  0  0  0  0
   57.6820   30.7940   44.4790 C   0  0  0  0  0  0  0  0  0  0  0  0
   57.9610   29.6860   45.4160 N   0  0  0  0  0  0  0  0  0  0  0  0
   57.2190   28.5450   45.2660 C   0  0  0  0  0  0  0  0  0  0  0  0
   57.4160   27.4290   46.0830 C   0  0  0  0  0  0  0  0  0  0  0  0
   56.5920   26.2140   45.8610 C   0  0  0  0  0  0  0  0  0  0  0  0
   55.3410   26.3020   45.9940 O   0  0  0  0  0  0  0  0  0  0  0  0
   57.1890   24.9140   45.4680 C   0  0  0  0  0  0  0  0  0  0  0  0
   58.4910   24.5650   45.8680 C   0  0  0  0  0  0  0  0  0  0  0  0
   59.0460   23.3430   45.4800 C   0  0  0  0  0  0  0  0  0  0  0  0
   58.3150   22.4590   44.6840 C   0  0  0  0  0  0  0  0  0  0  0  0
   57.0150   22.7960   44.2620 C   0  0  0  0  0  0  0  0  0  0  0  0
   56.2420   21.9460   43.4580 O   0  0  0  0  0  0  0  0  0  0  0  0
   56.6660   20.6660   43.0000 C   0  0  0  0  0  0  0  0  0  0  0  0
   56.4650   24.0230   44.6540 C   0  0  0  0  0  0  0  0  0  0  0  0
   58.3640   27.4980   47.1130 C   0  0  0  0  0  0  0  0  0  0  0  0
   58.5210   26.5180   47.8930 O   0  0  0  0  0  0  0  0  0  0  0  0
   59.1180   28.6710   47.2900 C   0  0  0  0  0  0  0  0  0  0  0  0
   60.0780   28.7590   48.3150 C   0  0  0  0  0  0  0  0  0  0  0  0
   60.8150   29.9260   48.5050 C   0  0  0  0  0  0  0  0  0  0  0  0
   61.7500   29.9630   49.4870 F   0  0  0  0  0  0  0  0  0  0  0  0
   60.6050   31.0340   47.6750 C   0  0  0  0  0  0  0  0  0  0  0  0
   61.3460   32.2530   47.8680 N   0  0  0  0  0  0  0  0  0  0  0  0
   62.6470   32.4520   47.2250 C   0  0  0  0  0  0  0  0  0  0  0  0
   63.5370   33.3070   48.1340 C   0  0  0  0  0  0  0  0  0  0  0  0
   62.8740   34.5020   48.5050 O   0  0  0  0  0  0  0  0  0  0  0  0
   61.7410   34.1970   49.3000 C   0  0  0  0  0  0  0  0  0  0  0  0
   60.7040   33.4140   48.4900 C   0  0  0  0  0  0  0  0  0  0  0  0
   59.6530   30.9580   46.6490 C   0  0  0  0  0  0  0  0  0  0  0  0
   58.9000   29.7790   46.4280 C   0  0  0  0  0  0  0  0  0  0  0  0
   55.7942   29.9453   43.8666 H   0  0  0  0  0  0  0  0  0  0  0  0
   56.4327   31.2171   42.7704 H   0  0  0  0  0  0  0  0  0  0  0  0
   57.1692   29.5787   42.7704 H   0  0  0  0  0  0  0  0  0  0  0  0
   58.6228   31.1119   44.0058 H   0  0  0  0  0  0  0  0  0  0  0  0
   57.2358   31.6276   45.0411 H   0  0  0  0  0  0  0  0  0  0  0  0
   56.4482   28.5061   44.4822 H   0  0  0  0  0  0  0  0  0  0  0  0
   59.0761   25.2583   46.4901 H   0  0  0  0  0  0  0  0  0  0  0  0
   60.0631   23.0762   45.8030 H   0  0  0  0  0  0  0  0  0  0  0  0
   58.7562   21.4965   44.3858 H   0  0  0  0  0  0  0  0  0  0  0  0
   56.8801   20.0198   43.8641 H   0  0  0  0  0  0  0  0  0  0  0  0
   55.8701   20.2123   42.3911 H   0  0  0  0  0  0  0  0  0  0  0  0
   57.5753   20.7772   42.3911 H   0  0  0  0  0  0  0  0  0  0  0  0
   55.4524   24.2942   44.3208 H   0  0  0  0  0  0  0  0  0  0  0  0
   60.2488   27.8955   48.9746 H   0  0  0  0  0  0  0  0  0  0  0  0
   63.1256   31.4763   47.0548 H   0  0  0  0  0  0  0  0  0  0  0  0
   62.5068   32.9630   46.2610 H   0  0  0  0  0  0  0  0  0  0  0  0
   63.7828   32.7343   49.0404 H   0  0  0  0  0  0  0  0  0  0  0  0
   64.4545   33.5677   47.5860 H   0  0  0  0  0  0  0  0  0  0  0  0
   62.0576   33.5914   50.1620 H   0  0  0  0  0  0  0  0  0  0  0  0
   61.2852   35.1384   49.6406 H   0  0  0  0  0  0  0  0  0  0  0  0
   59.8982   33.0739   49.1571 H   0  0  0  0  0  0  0  0  0  0  0  0
   60.2829   34.0631   47.7081 H   0  0  0  0  0  0  0  0  0  0  0  0
   59.4873   31.8321   46.0021 H   0  0  0  0  0  0  0  0  0  0  0  0
  1  2  1  0
  2  3  1  0
  3  4  1  0
  4  5  2  0
  5  6  1  0
  6  7  2  0
  6  8  1  0
  8  9  2  0
  9 10  1  0
 10 11  2  0
 11 12  1  0
 12 13  1  0
 13 14  1  0
 12 15  2  0
  5 16  1  0
 16 17  2  0
 16 18  1  0
 18 19  2  0
 19 20  1  0
 20 21  1  0
 20 22  2  0
 22 23  1  0
 23 24  1  0
 24 25  1  0
 25 26  1  0
 26 27  1  0
 27 28  1  0
 22 29  1  0
 29 30  2  0
 30  3  1  0
 15  8  1  0
 30 18  1  0
 28 23  1  0
  1 31  1  0
  1 32  1  0
  1 33  1  0
  2 34  1  0
  2 35  1  0
  4 36  1  0
  9 37  1  0
 10 38  1  0
 11 39  1  0
 14 40  1  0
 14 41  1  0
 14 42  1  0
 15 43  1  0
 19 44  1  0
 24 45  1  0
 24 46  1  0
 25 47  1  0
 25 48  1  0
 27 49  1  0
 27 50  1  0
 28 51  1  0
 28 52  1  0
 29 53  1  0
M  END
>  <UniqueID>  (28) 
27

>  <SMILES>  (28) 
CCn1cc(C(=O)c2cccc(OC)c2)c(=O)c2cc(F)c(N3CCOCC3)cc21

>  <Energy>  (28) 
76.83948418821488

>  <Genealogy>  (28) 
CCn1cc(C(=O)c2cccc(OC)c2)c(=O)c2cc(F)c(N3CCOCC3)cc21 (3D coordinates assigned)
CCn1cc(C(=O)c2cccc(OC)c2)c(=O)c2cc(F)c(N3CCOCC3)cc21 (nonaromatic ring conformer: 76.83948418821488 kcal/mol)

>  <smiles>  (28) 
CCn1cc(C(=O)c2cccc(OC)c2)c(=O)c2cc(F)c(N3CCOCC3)cc21

>  <score_type>  (28) 
oracle

>  <origin>  (28) 
adg

>  <m_score__min__energy>  (28) 
-8.6199999999999992

>  <m_primary>  (28) 
energy

$$$$
28:0
     RDKit          3D

 39 39  0  0  0  0  0  0  0  0999 V2000
   59.3160   30.0860   45.6540 C   0  0  0  0  0  0  0  0  0  0  0  0
   57.8210   29.7780   45.5530 C   0  0  0  0  0  0  0  0  0  0  0  0
   57.0100   30.8780   44.9830 N   0  0  0  0  0  0  0  0  0  0  0  0
   55.8880   30.4510   44.1140 C   0  0  0  0  0  0  0  0  0  0  0  0
   56.3190   29.7300   42.8260 C   0  0  0  0  0  0  0  0  0  0  0  0
   57.7690   32.0600   44.5200 C   0  0  0  0  0  0  0  0  0  0  0  0
   57.0750   33.3780   44.9120 C   0  0  0  0  0  0  0  0  0  0  0  0
   57.3920   33.8210   46.3490 C   0  0  0  0  0  0  0  0  0  0  0  0
   58.7170   33.3620   46.7640 N   0  0  0  0  0  0  0  0  0  0  0  0
   59.8770   34.2060   46.7060 C   0  0  0  0  0  0  0  0  0  0  0  0
   59.8500   35.2590   46.0130 O   0  0  0  0  0  0  0  0  0  0  0  0
   61.1120   33.8470   47.4400 C   0  0  0  0  0  0  0  0  0  0  0  0
   61.1500   33.8830   48.8460 C   0  0  0  0  0  0  0  0  0  0  0  0
   62.3250   33.5520   49.5300 C   0  0  0  0  0  0  0  0  0  0  0  0
   63.4700   33.1840   48.8200 C   0  0  0  0  0  0  0  0  0  0  0  0
   65.0730   32.7360   49.7560 Br  0  0  0  0  0  0  0  0  0  0  0  0
   63.4430   33.1510   47.4240 C   0  0  0  0  0  0  0  0  0  0  0  0
   62.2730   33.4840   46.7350 C   0  0  0  0  0  0  0  0  0  0  0  0
   59.6073   30.1460   46.7130 H   0  0  0  0  0  0  0  0  0  0  0  0
   59.8891   29.2871   45.1608 H   0  0  0  0  0  0  0  0  0  0  0  0
   59.5266   31.0464   45.1608 H   0  0  0  0  0  0  0  0  0  0  0  0
   57.6943   28.8904   44.9157 H   0  0  0  0  0  0  0  0  0  0  0  0
   57.4613   29.6209   46.5806 H   0  0  0  0  0  0  0  0  0  0  0  0
   55.2463   29.7692   44.6913 H   0  0  0  0  0  0  0  0  0  0  0  0
   55.3679   31.3682   43.8005 H   0  0  0  0  0  0  0  0  0  0  0  0
   56.8675   28.8125   43.0854 H   0  0  0  0  0  0  0  0  0  0  0  0
   55.4280   29.4701   42.2356 H   0  0  0  0  0  0  0  0  0  0  0  0
   56.9698   30.3917   42.2356 H   0  0  0  0  0  0  0  0  0  0  0  0
   58.7717   32.0381   44.9718 H   0  0  0  0  0  0  0  0  0  0  0  0
   57.8276   32.0190   43.4223 H   0  0  0  0  0  0  0  0  0  0  0  0
   57.4062   34.1672   44.2211 H   0  0  0  0  0  0  0  0  0  0  0  0
   55.9898   33.2080   44.8526 H   0  0  0  0  0  0  0  0  0  0  0  0
   57.3602   34.9193   46.4011 H   0  0  0  0  0  0  0  0  0  0  0  0
   56.6434   33.3788   47.0229 H   0  0  0  0  0  0  0  0  0  0  0  0
   58.8150   32.3760   47.0930 H   0  0  0  0  0  0  0  0  0  0  0  0
   60.2514   34.1728   49.4104 H   0  0  0  0  0  0  0  0  0  0  0  0
   62.3469   33.5817   50.6294 H   0  0  0  0  0  0  0  0  0  0  0  0
   64.3452   32.8621   46.8649 H   0  0  0  0  0  0  0  0  0  0  0  0
   62.2607   33.4619   45.6353 H   0  0  0  0  0  0  0  0  0  0  0  0
  1  2  1  0
  2  3  1  0
  3  4  1  0
  4  5  1  0
  3  6  1  0
  6  7  1  0
  7  8  1  0
  8  9  1  0
  9 10  1  0
 10 11  2  0
 10 12  1  0
 12 13  2  0
 13 14  1  0
 14 15  2  0
 15 16  1  0
 15 17  1  0
 17 18  2  0
 18 12  1  0
  1 19  1  0
  1 20  1  0
  1 21  1  0
  2 22  1  0
  2 23  1  0
  4 24  1  0
  4 25  1  0
  5 26  1  0
  5 27  1  0
  5 28  1  0
  6 29  1  0
  6 30  1  0
  7 31  1  0
  7 32  1  0
  8 33  1  0
  8 34  1  0
  9 35  1  0
 13 36  1  0
 14 37  1  0
 17 38  1  0
 18 39  1  0
M  END
>  <UniqueID>  (29) 
28

>  <SMILES>  (29) 
CCN(CC)CCCNC(=O)c1ccc(Br)cc1

>  <Energy>  (29) 
39.21555905369575

>  <Genealogy>  (29) 
CCN(CC)CCCNC(=O)c1ccc(Br)cc1 (3D coordinates assigned)
CCN(CC)CCCNC(=O)c1ccc(Br)cc1 (optimized conformer: 39.21555905369575 kcal/mol)

>  <smiles>  (29) 
CCN(CC)CCCNC(=O)c1ccc(Br)cc1

>  <score_type>  (29) 
oracle

>  <origin>  (29) 
adg

>  <m_score__min__energy>  (29) 
-6.71

>  <m_primary>  (29) 
energy

$$$$
29:0
     RDKit          3D

 54 55  0  0  0  0  0  0  0  0999 V2000
   62.4060   28.3150   52.1820 C   0  0  0  0  0  0  0  0  0  0  0  0
   63.6520   28.5980   53.0300 C   0  0  0  0  0  0  0  0  0  0  0  0
   64.6830   29.3850   52.3030 N   0  0  0  0  0  0  0  0  0  0  0  0
   65.7050   28.5390   51.6280 C   0  0  0  0  0  0  0  0  0  0  0  0
   66.9970   29.2780   51.2460 C   0  0  0  0  0  0  0  0  0  0  0  0
   65.3280   30.3820   53.2000 C   0  0  0  0  0  0  0  0  0  0  0  0
   64.8540   31.8290   52.9680 C   0  0  0  0  0  0  0  0  0  0  0  0
   63.6310   31.8610   52.2300 O   0  0  0  0  0  0  0  0  0  0  0  0
   63.5650   31.8830   50.8320 C   0  0  0  0  0  0  0  0  0  0  0  0
   63.1920   30.8630   50.1900 O   0  0  0  0  0  0  0  0  0  0  0  0
   63.9100   33.1530   50.1050 C   0  0  1  0  0  0  0  0  0  0  0  0
   65.2980   33.0770   49.4570 C   0  0  0  0  0  0  0  0  0  0  0  0
   62.8390   33.4960   49.0890 C   0  0  0  0  0  0  0  0  0  0  0  0
   63.1190   33.4030   47.7150 C   0  0  0  0  0  0  0  0  0  0  0  0
   62.1410   33.7210   46.7670 C   0  0  0  0  0  0  0  0  0  0  0  0
   60.8660   34.1480   47.1740 C   0  0  0  0  0  0  0  0  0  0  0  0
   59.8150   34.4710   46.1780 C   0  0  0  0  0  0  0  0  0  0  0  0
   59.6110   35.6790   45.8780 O   0  0  0  0  0  0  0  0  0  0  0  0
   58.9960   33.4230   45.5210 C   0  0  0  0  0  0  0  0  0  0  0  0
   58.5560   33.5730   44.1930 C   0  0  0  0  0  0  0  0  0  0  0  0
   57.7700   32.5860   43.5920 C   0  0  0  0  0  0  0  0  0  0  0  0
   57.4060   31.4440   44.3110 C   0  0  0  0  0  0  0  0  0  0  0  0
   56.3320   30.0970   43.4870 Br  0  0  0  0  0  0  0  0  0  0  0  0
   57.8240   31.2920   45.6360 C   0  0  0  0  0  0  0  0  0  0  0  0
   58.6100   32.2780   46.2410 C   0  0  0  0  0  0  0  0  0  0  0  0
   60.5790   34.2250   48.5470 C   0  0  0  0  0  0  0  0  0  0  0  0
   61.5560   33.9090   49.4950 C   0  0  0  0  0  0  0  0  0  0  0  0
   61.5488   28.1203   52.8433 H   0  0  0  0  0  0  0  0  0  0  0  0
   62.1888   29.1867   51.5472 H   0  0  0  0  0  0  0  0  0  0  0  0
   62.5866   27.4350   51.5472 H   0  0  0  0  0  0  0  0  0  0  0  0
   63.3469   29.1614   53.9242 H   0  0  0  0  0  0  0  0  0  0  0  0
   64.1009   27.6278   53.2893 H   0  0  0  0  0  0  0  0  0  0  0  0
   64.2020   29.9030   51.5330 H   0  0  0  0  0  0  0  0  0  0  0  0
   65.9694   27.7140   52.3059 H   0  0  0  0  0  0  0  0  0  0  0  0
   65.2524   28.1957   50.6860 H   0  0  0  0  0  0  0  0  0  0  0  0
   67.5291   29.5823   52.1594 H   0  0  0  0  0  0  0  0  0  0  0  0
   67.6393   28.6107   50.6526 H   0  0  0  0  0  0  0  0  0  0  0  0
   66.7475   30.1700   50.6526 H   0  0  0  0  0  0  0  0  0  0  0  0
   65.1041   30.1070   54.2413 H   0  0  0  0  0  0  0  0  0  0  0  0
   66.4055   30.3598   52.9796 H   0  0  0  0  0  0  0  0  0  0  0  0
   64.6979   32.3158   53.9420 H   0  0  0  0  0  0  0  0  0  0  0  0
   65.6242   32.3586   52.3881 H   0  0  0  0  0  0  0  0  0  0  0  0
   63.9479   33.9652   50.8459 H   0  0  0  0  0  0  0  0  0  0  0  0
   66.0674   33.0349   50.2421 H   0  0  0  0  0  0  0  0  0  0  0  0
   65.3620   32.1740   48.8321 H   0  0  0  0  0  0  0  0  0  0  0  0
   65.4602   33.9676   48.8321 H   0  0  0  0  0  0  0  0  0  0  0  0
   64.1156   33.0774   47.3823 H   0  0  0  0  0  0  0  0  0  0  0  0
   62.3719   33.6361   45.6949 H   0  0  0  0  0  0  0  0  0  0  0  0
   58.8325   34.4730   43.6241 H   0  0  0  0  0  0  0  0  0  0  0  0
   57.4371   32.7082   42.5507 H   0  0  0  0  0  0  0  0  0  0  0  0
   57.5343   30.3955   46.2038 H   0  0  0  0  0  0  0  0  0  0  0  0
   58.9285   32.1572   47.2869 H   0  0  0  0  0  0  0  0  0  0  0  0
   59.5775   34.5364   48.8785 H   0  0  0  0  0  0  0  0  0  0  0  0
   61.3205   33.9836   50.5669 H   0  0  0  0  0  0  0  0  0  0  0  0
  1  2  1  0
  2  3  1  0
  3  4  1  0
  4  5  1  0
  3  6  1  0
  6  7  1  0
  7  8  1  0
  8  9  1  0
  9 10  2  0
  9 11  1  0
 11 12  1  0
 11 13  1  0
 13 14  2  0
 14 15  1  0
 15 16  2  0
 16 17  1  0
 17 18  2  0
 17 19  1  0
 19 20  2  0
 20 21  1  0
 21 22  2  0
 22 23  1  0
 22 24  1  0
 24 25  2  0
 16 26  1  0
 26 27  2  0
 27 13  1  0
 25 19  1  0
  1 28  1  0
  1 29  1  0
  1 30  1  0
  2 31  1  0
  2 32  1  0
  3 33  1  0
  4 34  1  0
  4 35  1  0
  5 36  1  0
  5 37  1  0
  5 38  1  0
  6 39  1  0
  6 40  1  0
  7 41  1  0
  7 42  1  0
 11 43  1  1
 12 44  1  0
 12 45  1  0
 12 46  1  0
 14 47  1  0
 15 48  1  0
 20 49  1  0
 21 50  1  0
 24 51  1  0
 25 52  1  0
 26 53  1  0
 27 54  1  0
M  CHG  1   3   1
M  END
>  <UniqueID>  (30) 
29

>  <SMILES>  (30) 
CC[NH+](CC)CCOC(=O)[C@@H](C)c1ccc(C(=O)c2ccc(Br)cc2)cc1

>  <Energy>  (30) 
59.83768804349336

>  <Genealogy>  (30) 
CC[NH+](CC)CCOC(=O)C(C)c1ccc(C(=O)c2ccc(Br)cc2)cc1 (protonated)
CC[NH+](CC)CCOC(=O)[C@@H](C)c1ccc(C(=O)c2ccc(Br)cc2)cc1 (chirality)
CC[NH+](CC)CCOC(=O)[C@@H](C)c1ccc(C(=O)c2ccc(Br)cc2)cc1 (3D coordinates assigned)
CC[NH+](CC)CCOC(=O)[C@@H](C)c1ccc(C(=O)c2ccc(Br)cc2)cc1 (optimized conformer: 59.83768804349336 kcal/mol)

>  <smiles>  (30) 
CCN(CC)CCOC(=O)C(C)c1ccc(C(=O)c2ccc(Br)cc2)cc1

>  <score_type>  (30) 
oracle

>  <origin>  (30) 
adg

>  <m_score__min__energy>  (30) 
-7.3399999999999999

>  <m_primary>  (30) 
energy

$$$$
30:0
     RDKit          3D

 39 42  0  0  0  0  0  0  0  0999 V2000
   55.5030   24.4760   45.3010 C   0  0  0  0  0  0  0  0  0  0  0  0
   55.4690   25.7060   46.0190 O   0  0  0  0  0  0  0  0  0  0  0  0
   56.6020   26.4720   46.3370 C   0  0  0  0  0  0  0  0  0  0  0  0
   57.6730   25.9480   47.0790 C   0  0  0  0  0  0  0  0  0  0  0  0
   58.7580   26.7540   47.4130 C   0  0  0  0  0  0  0  0  0  0  0  0
   58.8060   28.0880   46.9910 C   0  0  0  0  0  0  0  0  0  0  0  0
   57.7830   28.6120   46.1680 C   0  0  0  0  0  0  0  0  0  0  0  0
   56.6480   27.8050   45.9020 C   0  0  0  0  0  0  0  0  0  0  0  0
   55.5350   28.3220   45.2470 O   0  0  0  0  0  0  0  0  0  0  0  0
   57.9090   30.0310   45.6950 C   0  0  0  0  0  0  0  0  0  0  0  0
   57.2780   30.4930   44.5240 C   0  0  0  0  0  0  0  0  0  0  0  0
   57.3730   31.8340   44.1490 C   0  0  0  0  0  0  0  0  0  0  0  0
   58.1100   32.7300   44.9210 C   0  0  0  0  0  0  0  0  0  0  0  0
   58.7960   32.2870   46.0590 C   0  0  0  0  0  0  0  0  0  0  0  0
   58.7460   30.9200   46.4120 C   0  0  0  0  0  0  0  0  0  0  0  0
   59.5180   30.4060   47.6150 C   0  0  1  0  0  0  0  0  0  0  0  0
   59.9810   28.9510   47.3740 C   0  0  0  0  0  0  0  0  0  0  0  0
   60.6330   31.3040   48.0140 N   0  0  0  0  0  0  0  0  0  0  0  0
   61.8140   31.2400   47.1270 C   0  0  0  0  0  0  0  0  0  0  0  0
   60.1420   32.6890   48.1640 C   0  0  0  0  0  0  0  0  0  0  0  0
   59.6360   33.2690   46.8340 C   0  0  0  0  0  0  0  0  0  0  0  0
   55.5262   23.6369   46.0119 H   0  0  0  0  0  0  0  0  0  0  0  0
   54.6067   24.3959   44.6683 H   0  0  0  0  0  0  0  0  0  0  0  0
   56.4023   24.4455   44.6683 H   0  0  0  0  0  0  0  0  0  0  0  0
   57.6546   24.8954   47.3979 H   0  0  0  0  0  0  0  0  0  0  0  0
   59.5825   26.3401   48.0121 H   0  0  0  0  0  0  0  0  0  0  0  0
   56.7055   29.7912   43.8997 H   0  0  0  0  0  0  0  0  0  0  0  0
   56.8636   32.1854   43.2396 H   0  0  0  0  0  0  0  0  0  0  0  0
   58.1533   33.7913   44.6350 H   0  0  0  0  0  0  0  0  0  0  0  0
   58.8324   30.4043   48.4752 H   0  0  0  0  0  0  0  0  0  0  0  0
   60.7232   28.9355   46.5623 H   0  0  0  0  0  0  0  0  0  0  0  0
   60.4284   28.5586   48.2991 H   0  0  0  0  0  0  0  0  0  0  0  0
   62.7282   31.1905   47.7367 H   0  0  0  0  0  0  0  0  0  0  0  0
   61.7476   30.3441   46.4922 H   0  0  0  0  0  0  0  0  0  0  0  0
   61.8449   32.1378   46.4922 H   0  0  0  0  0  0  0  0  0  0  0  0
   59.3166   32.6961   48.8912 H   0  0  0  0  0  0  0  0  0  0  0  0
   60.9815   33.3111   48.5078 H   0  0  0  0  0  0  0  0  0  0  0  0
   59.0293   34.1617   47.0464 H   0  0  0  0  0  0  0  0  0  0  0  0
   60.5152   33.5144   46.2202 H   0  0  0  0  0  0  0  0  0  0  0  0
  1  2  1  0
  2  3  1  0
  3  4  2  0
  4  5  1  0
  5  6  2  0
  6  7  1  0
  7  8  2  0
  8  9  1  0
  7 10  1  0
 10 11  2  0
 11 12  1  0
 12 13  2  0
 13 14  1  0
 14 15  2  0
 15 16  1  0
 16 17  1  0
 16 18  1  0
 18 19  1  0
 18 20  1  0
 20 21  1  0
  8  3  1  0
 15 10  1  0
 17  6  1  0
 21 14  1  0
  1 22  1  0
  1 23  1  0
  1 24  1  0
  4 25  1  0
  5 26  1  0
 11 27  1  0
 12 28  1  0
 13 29  1  0
 16 30  1  1
 17 31  1  0
 17 32  1  0
 19 33  1  0
 19 34  1  0
 19 35  1  0
 20 36  1  0
 20 37  1  0
 21 38  1  0
 21 39  1  0
M  CHG  1   9  -1
M  END
>  <UniqueID>  (31) 
30

>  <SMILES>  (31) 
COc1ccc2c(c1[O-])-c1cccc3c1[C@@H](C2)N(C)CC3

>  <Energy>  (31) 
60.847565995286494

>  <Genealogy>  (31) 
COc1ccc2c(c1[O-])-c1cccc3c1C(C2)N(C)CC3 (protonated)
COc1ccc2c(c1[O-])-c1cccc3c1[C@@H](C2)N(C)CC3 (chirality)
COc1ccc2c(c1[O-])-c1cccc3c1[C@@H](C2)N(C)CC3 (3D coordinates assigned)
COc1ccc2c(c1[O-])-c1cccc3c1[C@@H](C2)N(C)CC3 (nonaromatic ring conformer: 60.847565995286494 kcal/mol)

>  <smiles>  (31) 
COc1ccc2c(c1O)-c1cccc3c1C(C2)N(C)CC3

>  <score_type>  (31) 
oracle

>  <origin>  (31) 
adg

>  <m_score__min__energy>  (31) 
-11.33

>  <m_primary>  (31) 
energy

$$$$
31:0
     RDKit          3D

 48 52  0  0  0  0  0  0  0  0999 V2000
   58.5150   29.8450   47.2430 O   0  0  0  0  0  0  0  0  0  0  0  0
   58.3740   30.8780   46.5290 C   0  0  0  0  0  0  0  0  0  0  0  0
   57.7780   30.7140   45.1700 C   0  0  0  0  0  0  0  0  0  0  0  0
   57.3490   29.4350   44.7540 C   0  0  0  0  0  0  0  0  0  0  0  0
   56.7890   29.2440   43.4880 C   0  0  0  0  0  0  0  0  0  0  0  0
   56.6460   30.3220   42.6170 C   0  0  0  0  0  0  0  0  0  0  0  0
   57.0650   31.5920   43.0090 C   0  0  0  0  0  0  0  0  0  0  0  0
   57.6280   31.7950   44.2770 C   0  0  0  0  0  0  0  0  0  0  0  0
   58.1400   33.4070   44.7150 S   0  0  0  0  0  0  0  0  0  0  0  0
   59.2350   33.8530   43.7890 O   0  0  0  0  0  0  0  0  0  0  0  0
   56.9690   34.3440   44.6220 O   0  0  0  0  0  0  0  0  0  0  0  0
   58.7390   33.3880   46.3570 C   0  0  0  0  0  0  0  0  0  0  0  0
   59.1500   34.5970   46.9320 C   0  0  0  0  0  0  0  0  0  0  0  0
   59.6410   34.6300   48.2360 C   0  0  0  0  0  0  0  0  0  0  0  0
   59.7400   33.4490   48.9800 C   0  0  0  0  0  0  0  0  0  0  0  0
   60.2460   33.4940   50.3680 C   0  0  0  0  0  0  0  0  0  0  0  0
   59.4820   33.2460   51.4910 C   0  0  0  0  0  0  0  0  0  0  0  0
   60.3580   33.3930   52.5470 C   0  0  0  0  0  0  0  0  0  0  0  0
   61.5760   33.7260   52.0800 N   0  0  0  0  0  0  0  0  0  0  0  0
   61.5090   33.7900   50.7580 N   0  0  0  0  0  0  0  0  0  0  0  0
   62.6390   34.2080   49.9110 C   0  0  0  0  0  0  0  0  0  0  0  0
   63.9770   34.1560   50.7030 C   0  0  0  0  0  0  0  0  0  0  0  0
   64.9770   33.1220   50.1640 C   0  0  0  0  0  0  0  0  0  0  0  0
   64.2830   31.7900   49.8720 C   0  0  0  0  0  0  0  0  0  0  0  0
   63.1510   31.9260   48.8350 C   0  0  0  0  0  0  0  0  0  0  0  0
   62.6760   33.3750   48.6140 C   0  0  0  0  0  0  0  0  0  0  0  0
   59.3050   32.2410   48.4140 C   0  0  0  0  0  0  0  0  0  0  0  0
   58.8080   32.1900   47.0940 C   0  0  0  0  0  0  0  0  0  0  0  0
   57.4569   28.5779   45.4350 H   0  0  0  0  0  0  0  0  0  0  0  0
   56.4605   28.2408   43.1786 H   0  0  0  0  0  0  0  0  0  0  0  0
   56.2031   30.1709   41.6215 H   0  0  0  0  0  0  0  0  0  0  0  0
   56.9533   32.4412   42.3188 H   0  0  0  0  0  0  0  0  0  0  0  0
   59.0848   35.5280   46.3498 H   0  0  0  0  0  0  0  0  0  0  0  0
   59.9514   35.5867   48.6814 H   0  0  0  0  0  0  0  0  0  0  0  0
   58.4134   32.9886   51.5342 H   0  0  0  0  0  0  0  0  0  0  0  0
   60.1005   33.2587   53.6080 H   0  0  0  0  0  0  0  0  0  0  0  0
   62.4961   35.2573   49.6136 H   0  0  0  0  0  0  0  0  0  0  0  0
   64.4465   35.1497   50.6562 H   0  0  0  0  0  0  0  0  0  0  0  0
   63.7288   33.8555   51.7317 H   0  0  0  0  0  0  0  0  0  0  0  0
   65.4257   33.5052   49.2356 H   0  0  0  0  0  0  0  0  0  0  0  0
   65.7527   32.9540   50.9256 H   0  0  0  0  0  0  0  0  0  0  0  0
   65.0302   31.0805   49.4868 H   0  0  0  0  0  0  0  0  0  0  0  0
   63.8334   31.4358   50.8113 H   0  0  0  0  0  0  0  0  0  0  0  0
   63.5121   31.5298   47.8745 H   0  0  0  0  0  0  0  0  0  0  0  0
   62.2902   31.3646   49.2273 H   0  0  0  0  0  0  0  0  0  0  0  0
   63.3609   33.8629   47.9049 H   0  0  0  0  0  0  0  0  0  0  0  0
   61.6470   33.3258   48.2283 H   0  0  0  0  0  0  0  0  0  0  0  0
   59.3522   31.3174   49.0096 H   0  0  0  0  0  0  0  0  0  0  0  0
  1  2  2  0
  2  3  1  0
  3  4  2  0
  4  5  1  0
  5  6  2  0
  6  7  1  0
  7  8  2  0
  8  9  1  0
  9 10  2  0
  9 11  2  0
  9 12  1  0
 12 13  2  0
 13 14  1  0
 14 15  2  0
 15 16  1  0
 16 17  2  0
 17 18  1  0
 18 19  2  0
 19 20  1  0
 20 21  1  0
 21 22  1  0
 22 23  1  0
 23 24  1  0
 24 25  1  0
 25 26  1  0
 15 27  1  0
 27 28  2  0
 28  2  1  0
  8  3  1  0
 28 12  1  0
 20 16  1  0
 26 21  1  0
  4 29  1  0
  5 30  1  0
  6 31  1  0
  7 32  1  0
 13 33  1  0
 14 34  1  0
 17 35  1  0
 18 36  1  0
 21 37  1  0
 22 38  1  0
 22 39  1  0
 23 40  1  0
 23 41  1  0
 24 42  1  0
 24 43  1  0
 25 44  1  0
 25 45  1  0
 26 46  1  0
 26 47  1  0
 27 48  1  0
M  END
>  <UniqueID>  (32) 
31

>  <SMILES>  (32) 
O=C1c2ccccc2S(=O)(=O)c2ccc(-c3ccnn3C3CCCCC3)cc21

>  <Energy>  (32) 
100.2922874642726

>  <Genealogy>  (32) 
O=C1c2ccccc2S(=O)(=O)c2ccc(-c3ccnn3C3CCCCC3)cc21 (3D coordinates assigned)
O=C1c2ccccc2S(=O)(=O)c2ccc(-c3ccnn3C3CCCCC3)cc21 (nonaromatic ring conformer: 100.2922874642726 kcal/mol)

>  <smiles>  (32) 
O=C1c2ccccc2S(=O)(=O)c2ccc(-c3ccnn3C3CCCCC3)cc21

>  <score_type>  (32) 
oracle

>  <origin>  (32) 
adg

>  <m_score__min__energy>  (32) 
-9.3800000000000008

>  <m_primary>  (32) 
energy

$$$$
32:0
     RDKit          3D

 59 62  0  0  0  0  0  0  0  0999 V2000
   54.5090   24.8090   45.3910 C   0  0  0  0  0  0  0  0  0  0  0  0
   55.1480   25.8850   46.0720 O   0  0  0  0  0  0  0  0  0  0  0  0
   56.5160   26.1900   45.9740 C   0  0  0  0  0  0  0  0  0  0  0  0
   56.9680   27.4480   45.5340 C   0  0  0  0  0  0  0  0  0  0  0  0
   58.3420   27.7380   45.4660 C   0  0  0  0  0  0  0  0  0  0  0  0
   58.7880   29.1390   45.1220 C   0  0  0  0  0  0  0  0  0  0  0  0
   58.6500   30.0280   46.2930 N   0  0  0  0  0  0  0  0  0  0  0  0
   59.1420   29.5030   47.5840 C   0  0  0  0  0  0  0  0  0  0  0  0
   58.8800   30.4640   48.7460 C   0  0  0  0  0  0  0  0  0  0  0  0
   59.3990   31.8590   48.3990 C   0  0  0  0  0  0  0  0  0  0  0  0
   58.7220   32.3570   47.1530 C   0  0  0  0  0  0  0  0  0  0  0  0
   58.4930   33.7320   46.9880 C   0  0  0  0  0  0  0  0  0  0  0  0
   57.8300   34.2050   45.8550 C   0  0  0  0  0  0  0  0  0  0  0  0
   57.3770   33.3060   44.8880 C   0  0  0  0  0  0  0  0  0  0  0  0
   57.6170   31.9360   45.0340 C   0  0  0  0  0  0  0  0  0  0  0  0
   58.3370   31.4440   46.1440 C   0  0  0  0  0  0  0  0  0  0  0  0
   59.2700   26.7280   45.7750 C   0  0  0  0  0  0  0  0  0  0  0  0
   60.6020   26.9430   45.6520 F   0  0  0  0  0  0  0  0  0  0  0  0
   58.8280   25.4780   46.2080 C   0  0  0  0  0  0  0  0  0  0  0  0
   57.4580   25.2130   46.3430 C   0  0  0  0  0  0  0  0  0  0  0  0
   57.0160   23.9050   46.8710 C   0  0  0  0  0  0  0  0  0  0  0  0
   56.6970   23.8090   48.2360 C   0  0  0  0  0  0  0  0  0  0  0  0
   56.2820   22.5930   48.7820 C   0  0  0  0  0  0  0  0  0  0  0  0
   56.1860   21.4600   47.9750 C   0  0  0  0  0  0  0  0  0  0  0  0
   56.5080   21.5360   46.6180 C   0  0  0  0  0  0  0  0  0  0  0  0
   56.9220   22.7520   46.0470 C   0  0  0  0  0  0  0  0  0  0  0  0
   57.3030   22.7570   44.5760 C   0  0  0  0  0  0  0  0  0  0  0  0
   56.2930   22.0410   43.7660 N   0  0  0  0  0  0  0  0  0  0  0  0
   56.9120   20.9340   43.0100 C   0  0  0  0  0  0  0  0  0  0  0  0
   55.6490   22.9780   42.8270 C   0  0  0  0  0  0  0  0  0  0  0  0
   54.0914   24.1059   46.1267 H   0  0  0  0  0  0  0  0  0  0  0  0
   53.6989   25.2038   44.7603 H   0  0  0  0  0  0  0  0  0  0  0  0
   55.2433   24.2866   44.7603 H   0  0  0  0  0  0  0  0  0  0  0  0
   56.2364   28.2148   45.2393 H   0  0  0  0  0  0  0  0  0  0  0  0
   59.8417   29.1163   44.8069 H   0  0  0  0  0  0  0  0  0  0  0  0
   58.1567   29.5233   44.3073 H   0  0  0  0  0  0  0  0  0  0  0  0
   58.6347   28.5497   47.7935 H   0  0  0  0  0  0  0  0  0  0  0  0
   60.2307   29.3716   47.4981 H   0  0  0  0  0  0  0  0  0  0  0  0
   57.7983   30.5156   48.9390 H   0  0  0  0  0  0  0  0  0  0  0  0
   59.4023   30.0974   49.6420 H   0  0  0  0  0  0  0  0  0  0  0  0
   59.1847   32.5461   49.2309 H   0  0  0  0  0  0  0  0  0  0  0  0
   60.4847   31.8114   48.2289 H   0  0  0  0  0  0  0  0  0  0  0  0
   58.8379   34.4402   47.7557 H   0  0  0  0  0  0  0  0  0  0  0  0
   57.6646   35.2846   45.7241 H   0  0  0  0  0  0  0  0  0  0  0  0
   56.8297   33.6762   44.0086 H   0  0  0  0  0  0  0  0  0  0  0  0
   57.2405   31.2340   44.2754 H   0  0  0  0  0  0  0  0  0  0  0  0
   59.5610   24.6930   46.4457 H   0  0  0  0  0  0  0  0  0  0  0  0
   56.7748   24.6982   48.8789 H   0  0  0  0  0  0  0  0  0  0  0  0
   56.0303   22.5286   49.8509 H   0  0  0  0  0  0  0  0  0  0  0  0
   55.8559   20.5042   48.4080 H   0  0  0  0  0  0  0  0  0  0  0  0
   56.4369   20.6356   45.9901 H   0  0  0  0  0  0  0  0  0  0  0  0
   57.3736   23.7974   44.2259 H   0  0  0  0  0  0  0  0  0  0  0  0
   58.2707   22.2465   44.4621 H   0  0  0  0  0  0  0  0  0  0  0  0
   57.3249   20.1956   43.7131 H   0  0  0  0  0  0  0  0  0  0  0  0
   56.1522   20.4525   42.3768 H   0  0  0  0  0  0  0  0  0  0  0  0
   57.7201   21.3292   42.3768 H   0  0  0  0  0  0  0  0  0  0  0  0
   55.1148   23.7552   43.3932 H   0  0  0  0  0  0  0  0  0  0  0  0
   56.4161   23.4476   42.1937 H   0  0  0  0  0  0  0  0  0  0  0  0
   54.9357   22.4301   42.1937 H   0  0  0  0  0  0  0  0  0  0  0  0
  1  2  1  0
  2  3  1  0
  3  4  2  0
  4  5  1  0
  5  6  1  0
  6  7  1  0
  7  8  1  0
  8  9  1  0
  9 10  1  0
 10 11  1  0
 11 12  2  0
 12 13  1  0
 13 14  2  0
 14 15  1  0
 15 16  2  0
  5 17  2  0
 17 18  1  0
 17 19  1  0
 19 20  2  0
 20 21  1  0
 21 22  2  0
 22 23  1  0
 23 24  2  0
 24 25  1  0
 25 26  2  0
 26 27  1  0
 27 28  1  0
 28 29  1  0
 28 30  1  0
 20  3  1  0
 26 21  1  0
 16  7  1  0
 16 11  1  0
  1 31  1  0
  1 32  1  0
  1 33  1  0
  4 34  1  0
  6 35  1  0
  6 36  1  0
  8 37  1  0
  8 38  1  0
  9 39  1  0
  9 40  1  0
 10 41  1  0
 10 42  1  0
 12 43  1  0
 13 44  1  0
 14 45  1  0
 15 46  1  0
 19 47  1  0
 22 48  1  0
 23 49  1  0
 24 50  1  0
 25 51  1  0
 27 52  1  0
 27 53  1  0
 29 54  1  0
 29 55  1  0
 29 56  1  0
 30 57  1  0
 30 58  1  0
 30 59  1  0
M  END
>  <UniqueID>  (33) 
32

>  <SMILES>  (33) 
COc1cc(CN2CCCc3ccccc32)c(F)cc1-c1ccccc1CN(C)C

>  <Energy>  (33) 
71.44187227407207

>  <Genealogy>  (33) 
COc1cc(CN2CCCc3ccccc32)c(F)cc1-c1ccccc1CN(C)C (3D coordinates assigned)
COc1cc(CN2CCCc3ccccc32)c(F)cc1-c1ccccc1CN(C)C (nonaromatic ring conformer: 71.44187227407207 kcal/mol)

>  <smiles>  (33) 
COc1cc(CN2CCCc3ccccc32)c(F)cc1-c1ccccc1CN(C)C

>  <score_type>  (33) 
oracle

>  <origin>  (33) 
adg

>  <m_score__min__energy>  (33) 
-8.2400000000000002

>  <m_primary>  (33) 
energy

$$$$
33:0
     RDKit          3D

 52 55  0  0  0  0  0  0  0  0999 V2000
   58.0270   31.3480   43.9490 C   0  0  0  0  0  0  0  0  0  0  0  0
   57.4160   32.3390   44.6030 C   0  0  0  0  0  0  0  0  0  0  0  0
   57.9090   33.7570   44.5190 C   0  0  0  0  0  0  0  0  0  0  0  0
   57.9870   34.3610   45.8670 N   0  0  0  0  0  0  0  0  0  0  0  0
   59.3180   34.9460   46.1310 C   0  0  0  0  0  0  0  0  0  0  0  0
   60.3940   33.8580   46.2650 C   0  0  0  0  0  0  0  0  0  0  0  0
   59.9080   32.7300   47.0690 N   0  0  0  0  0  0  0  0  0  0  0  0
   60.7880   31.6160   47.3150 C   0  0  0  0  0  0  0  0  0  0  0  0
   62.0370   31.7990   47.3120 O   0  0  0  0  0  0  0  0  0  0  0  0
   60.2680   30.2540   47.5720 C   0  0  0  0  0  0  0  0  0  0  0  0
   59.9470   29.4180   46.4900 C   0  0  0  0  0  0  0  0  0  0  0  0
   59.4490   28.1230   46.7100 C   0  0  0  0  0  0  0  0  0  0  0  0
   59.1610   27.2120   45.5430 C   0  0  0  0  0  0  0  0  0  0  0  0
   57.8170   26.5220   45.6540 C   0  0  0  0  0  0  0  0  0  0  0  0
   56.6990   27.2650   45.8830 N   0  0  0  0  0  0  0  0  0  0  0  0
   55.4890   26.7180   45.9910 N   0  0  0  0  0  0  0  0  0  0  0  0
   55.2970   25.3820   45.8790 C   0  0  0  0  0  0  0  0  0  0  0  0
   54.1310   24.9160   45.9890 O   0  0  0  0  0  0  0  0  0  0  0  0
   56.3960   24.5420   45.6410 C   0  0  0  0  0  0  0  0  0  0  0  0
   56.2400   23.1490   45.5180 C   0  0  0  0  0  0  0  0  0  0  0  0
   57.3480   22.3330   45.2820 C   0  0  0  0  0  0  0  0  0  0  0  0
   58.6190   22.8960   45.1670 C   0  0  0  0  0  0  0  0  0  0  0  0
   58.7920   24.2760   45.2870 C   0  0  0  0  0  0  0  0  0  0  0  0
   57.6860   25.1190   45.5250 C   0  0  0  0  0  0  0  0  0  0  0  0
   59.2830   27.6630   48.0240 C   0  0  0  0  0  0  0  0  0  0  0  0
   59.5810   28.4970   49.1040 C   0  0  0  0  0  0  0  0  0  0  0  0
   60.0650   29.7890   48.8850 C   0  0  0  0  0  0  0  0  0  0  0  0
   60.3050   30.5920   49.9520 F   0  0  0  0  0  0  0  0  0  0  0  0
   58.6670   32.8930   47.8350 C   0  0  0  0  0  0  0  0  0  0  0  0
   57.5330   33.4300   46.9370 C   0  0  0  0  0  0  0  0  0  0  0  0
   57.6452   30.3194   44.0280 H   0  0  0  0  0  0  0  0  0  0  0  0
   58.9121   31.5602   43.3313 H   0  0  0  0  0  0  0  0  0  0  0  0
   56.5319   32.1128   45.2172 H   0  0  0  0  0  0  0  0  0  0  0  0
   58.9088   33.7657   44.0604 H   0  0  0  0  0  0  0  0  0  0  0  0
   57.2055   34.3418   43.9082 H   0  0  0  0  0  0  0  0  0  0  0  0
   59.5864   35.6138   45.2991 H   0  0  0  0  0  0  0  0  0  0  0  0
   59.2691   35.5019   47.0789 H   0  0  0  0  0  0  0  0  0  0  0  0
   60.6642   33.4946   45.2625 H   0  0  0  0  0  0  0  0  0  0  0  0
   61.2702   34.2933   46.7677 H   0  0  0  0  0  0  0  0  0  0  0  0
   60.0868   29.7806   45.4609 H   0  0  0  0  0  0  0  0  0  0  0  0
   59.1741   27.8093   44.6194 H   0  0  0  0  0  0  0  0  0  0  0  0
   59.9347   26.4302   45.5346 H   0  0  0  0  0  0  0  0  0  0  0  0
   55.2397   22.7005   45.6083 H   0  0  0  0  0  0  0  0  0  0  0  0
   57.2185   21.2448   45.1866 H   0  0  0  0  0  0  0  0  0  0  0  0
   59.4892   22.2494   44.9808 H   0  0  0  0  0  0  0  0  0  0  0  0
   59.7987   24.7097   45.1953 H   0  0  0  0  0  0  0  0  0  0  0  0
   58.9168   26.6417   48.2050 H   0  0  0  0  0  0  0  0  0  0  0  0
   59.4339   28.1347   50.1321 H   0  0  0  0  0  0  0  0  0  0  0  0
   58.3682   31.9185   48.2485 H   0  0  0  0  0  0  0  0  0  0  0  0
   58.8460   33.6152   48.6452 H   0  0  0  0  0  0  0  0  0  0  0  0
   57.0363   32.5725   46.4595 H   0  0  0  0  0  0  0  0  0  0  0  0
   56.8598   34.0049   47.5899 H   0  0  0  0  0  0  0  0  0  0  0  0
  1  2  2  0
  2  3  1  0
  3  4  1  0
  4  5  1  0
  5  6  1  0
  6  7  1  0
  7  8  1  0
  8  9  2  0
  8 10  1  0
 10 11  2  0
 11 12  1  0
 12 13  1  0
 13 14  1  0
 14 15  2  0
 15 16  1  0
 16 17  1  0
 17 18  2  0
 17 19  1  0
 19 20  2  0
 20 21  1  0
 21 22  2  0
 22 23  1  0
 23 24  2  0
 12 25  2  0
 25 26  1  0
 26 27  2  0
 27 28  1  0
  7 29  1  0
 29 30  1  0
 30  4  1  0
 27 10  1  0
 24 14  1  0
 24 19  1  0
  1 31  1  0
  1 32  1  0
  2 33  1  0
  3 34  1  0
  3 35  1  0
  5 36  1  0
  5 37  1  0
  6 38  1  0
  6 39  1  0
 11 40  1  0
 13 41  1  0
 13 42  1  0
 20 43  1  0
 21 44  1  0
 22 45  1  0
 23 46  1  0
 25 47  1  0
 26 48  1  0
 29 49  1  0
 29 50  1  0
 30 51  1  0
 30 52  1  0
M  CHG  1  16  -1
M  END
>  <UniqueID>  (34) 
33

>  <SMILES>  (34) 
C=CCN1CCN(C(=O)c2cc(Cc3n[n-]c(=O)c4ccccc34)ccc2F)CC1

>  <Energy>  (34) 
73.97592819497613

>  <Genealogy>  (34) 
C=CCN1CCN(C(=O)c2cc(Cc3n[n-]c(=O)c4ccccc34)ccc2F)CC1 (protonated)
C=CCN1CCN(C(=O)c2cc(Cc3n[n-]c(=O)c4ccccc34)ccc2F)CC1 (3D coordinates assigned)
C=CCN1CCN(C(=O)c2cc(Cc3n[n-]c(=O)c4ccccc34)ccc2F)CC1 (nonaromatic ring conformer: 73.97592819497613 kcal/mol)

>  <smiles>  (34) 
C=CCN1CCN(C(=O)c2cc(Cc3n[nH]c(=O)c4ccccc34)ccc2F)CC1

>  <score_type>  (34) 
oracle

>  <origin>  (34) 
adg

>  <m_score__min__energy>  (34) 
-12.02

>  <m_primary>  (34) 
energy

$$$$
34:0
     RDKit          3D

 46 46  0  0  0  0  0  0  0  0999 V2000
   62.9570   32.3410   47.4800 C   0  0  0  0  0  0  0  0  0  0  0  0
   62.8410   33.8380   47.7530 C   0  0  0  0  0  0  0  0  0  0  0  0
   61.8100   34.1710   48.8380 C   0  0  0  0  0  0  0  0  0  0  0  0
   60.5820   34.6300   48.2660 O   0  0  0  0  0  0  0  0  0  0  0  0
   59.7680   33.9300   47.3600 C   0  0  0  0  0  0  0  0  0  0  0  0
   59.7040   34.4010   46.0430 C   0  0  0  0  0  0  0  0  0  0  0  0
   58.9090   33.7550   45.0920 C   0  0  0  0  0  0  0  0  0  0  0  0
   58.1530   32.6240   45.4430 C   0  0  0  0  0  0  0  0  0  0  0  0
   57.3050   31.9430   44.4380 C   0  0  0  0  0  0  0  0  0  0  0  0
   57.3930   32.2520   43.2190 O   0  0  0  0  0  0  0  0  0  0  0  0
   56.3780   30.9320   44.8490 N   0  0  0  0  0  0  0  0  0  0  0  0
   56.1400   29.7130   44.0860 C   0  0  0  0  0  0  0  0  0  0  0  0
   57.3790   28.8010   44.1270 C   0  0  0  0  0  0  0  0  0  0  0  0
   58.2970   29.0650   45.2690 N   0  0  0  0  0  0  0  0  0  0  0  0
   58.0600   28.0490   46.3280 C   0  0  0  0  0  0  0  0  0  0  0  0
   57.1670   26.8890   45.8700 C   0  0  0  0  0  0  0  0  0  0  0  0
   59.7290   29.1790   44.8700 C   0  0  0  0  0  0  0  0  0  0  0  0
   60.6680   29.6930   45.9710 C   0  0  0  0  0  0  0  0  0  0  0  0
   58.2130   32.1530   46.7660 C   0  0  0  0  0  0  0  0  0  0  0  0
   59.0100   32.7990   47.7170 C   0  0  0  0  0  0  0  0  0  0  0  0
   62.9992   31.7964   48.4348 H   0  0  0  0  0  0  0  0  0  0  0  0
   62.0822   32.0044   46.9042 H   0  0  0  0  0  0  0  0  0  0  0  0
   63.8732   32.1432   46.9042 H   0  0  0  0  0  0  0  0  0  0  0  0
   63.8235   34.2125   48.0762 H   0  0  0  0  0  0  0  0  0  0  0  0
   62.5050   34.3172   46.8216 H   0  0  0  0  0  0  0  0  0  0  0  0
   61.6121   33.2675   49.4334 H   0  0  0  0  0  0  0  0  0  0  0  0
   62.2189   34.9727   49.4706 H   0  0  0  0  0  0  0  0  0  0  0  0
   60.2855   35.2888   45.7537 H   0  0  0  0  0  0  0  0  0  0  0  0
   58.8750   34.1352   44.0604 H   0  0  0  0  0  0  0  0  0  0  0  0
   55.2818   29.1774   44.5179 H   0  0  0  0  0  0  0  0  0  0  0  0
   55.9313   29.9829   43.0402 H   0  0  0  0  0  0  0  0  0  0  0  0
   57.0367   27.7578   44.1943 H   0  0  0  0  0  0  0  0  0  0  0  0
   57.9508   29.0052   43.2097 H   0  0  0  0  0  0  0  0  0  0  0  0
   58.0220   29.9900   45.6780 H   0  0  0  0  0  0  0  0  0  0  0  0
   59.0313   27.6387   46.6413 H   0  0  0  0  0  0  0  0  0  0  0  0
   57.5372   28.5554   47.1528 H   0  0  0  0  0  0  0  0  0  0  0  0
   56.7646   26.3663   46.7503 H   0  0  0  0  0  0  0  0  0  0  0  0
   56.3363   27.2823   45.2656 H   0  0  0  0  0  0  0  0  0  0  0  0
   57.7597   26.1865   45.2656 H   0  0  0  0  0  0  0  0  0  0  0  0
   60.0780   28.1827   44.5609 H   0  0  0  0  0  0  0  0  0  0  0  0
   59.7655   29.9235   44.0610 H   0  0  0  0  0  0  0  0  0  0  0  0
   60.2400   29.4587   46.9568 H   0  0  0  0  0  0  0  0  0  0  0  0
   61.6496   29.2064   45.8724 H   0  0  0  0  0  0  0  0  0  0  0  0
   60.7871   30.7821   45.8724 H   0  0  0  0  0  0  0  0  0  0  0  0
   57.6277   31.2680   47.0563 H   0  0  0  0  0  0  0  0  0  0  0  0
   59.0445   32.4210   48.7494 H   0  0  0  0  0  0  0  0  0  0  0  0
  1  2  1  0
  2  3  1  0
  3  4  1  0
  4  5  1  0
  5  6  2  0
  6  7  1  0
  7  8  2  0
  8  9  1  0
  9 10  2  0
  9 11  1  0
 11 12  1  0
 12 13  1  0
 13 14  1  0
 14 15  1  0
 15 16  1  0
 14 17  1  0
 17 18  1  0
  8 19  1  0
 19 20  2  0
 20  5  1  0
  1 21  1  0
  1 22  1  0
  1 23  1  0
  2 24  1  0
  2 25  1  0
  3 26  1  0
  3 27  1  0
  6 28  1  0
  7 29  1  0
 12 30  1  0
 12 31  1  0
 13 32  1  0
 13 33  1  0
 14 34  1  0
 15 35  1  0
 15 36  1  0
 16 37  1  0
 16 38  1  0
 16 39  1  0
 17 40  1  0
 17 41  1  0
 18 42  1  0
 18 43  1  0
 18 44  1  0
 19 45  1  0
 20 46  1  0
M  CHG  2  11  -1  14   1
M  END
>  <UniqueID>  (35) 
34

>  <SMILES>  (35) 
CCCOc1ccc(C(=O)[N-]CC[NH+](CC)CC)cc1

>  <Energy>  (35) 
41.96926072327297

>  <Genealogy>  (35) 
CCCOc1ccc(C(=O)[N-]CC[NH+](CC)CC)cc1 (protonated)
CCCOc1ccc(C(=O)[N-]CC[NH+](CC)CC)cc1 (3D coordinates assigned)
CCCOc1ccc(C(=O)[N-]CC[NH+](CC)CC)cc1 (optimized conformer: 41.96926072327297 kcal/mol)

>  <smiles>  (35) 
CCCOc1ccc(C(=O)NCCN(CC)CC)cc1

>  <score_type>  (35) 
oracle

>  <origin>  (35) 
adg

>  <m_score__min__energy>  (35) 
-5

>  <m_primary>  (35) 
energy

$$$$
35:0
     RDKit          3D

 34 35  0  0  0  0  0  0  0  0999 V2000
   58.1460   32.2250   42.8090 C   0  0  0  0  0  0  0  0  0  0  0  0
   57.4620   32.8460   43.9580 C   0  0  0  0  0  0  0  0  0  0  0  0
   58.2360   33.3170   45.1070 C   0  0  0  0  0  0  0  0  0  0  0  0
   58.2170   33.0000   46.3610 C   0  0  0  0  0  0  0  0  0  0  0  0
   58.1370   31.7170   47.0630 C   0  0  0  0  0  0  0  0  0  0  0  0
   58.9560   30.7170   46.3830 N   0  0  0  0  0  0  0  0  0  0  0  0
   60.2940   30.6370   46.6180 C   0  0  0  0  0  0  0  0  0  0  0  0
   60.7650   29.6360   45.8510 N   0  0  0  0  0  0  0  0  0  0  0  0
   59.7500   29.0990   45.1500 C   0  0  0  0  0  0  0  0  0  0  0  0
   59.6900   28.0860   44.2520 N   0  0  0  0  0  0  0  0  0  0  0  0
   58.4810   27.7790   43.7080 C   0  0  0  0  0  0  0  0  0  0  0  0
   57.3580   28.4540   44.0410 N   0  0  0  0  0  0  0  0  0  0  0  0
   57.3720   29.4660   44.9280 C   0  0  0  0  0  0  0  0  0  0  0  0
   56.3130   30.0960   45.2380 N   0  0  0  0  0  0  0  0  0  0  0  0
   58.5900   29.7870   45.4860 C   0  0  0  0  0  0  0  0  0  0  0  0
   59.2610   34.3960   44.7210 C   0  0  0  0  0  0  0  0  0  0  0  0
   59.6910   35.1430   45.9570 C   0  0  0  0  0  0  0  0  0  0  0  0
   58.9145   31.5273   43.1731 H   0  0  0  0  0  0  0  0  0  0  0  0
   57.4132   31.6772   42.1983 H   0  0  0  0  0  0  0  0  0  0  0  0
   58.6206   33.0072   42.1983 H   0  0  0  0  0  0  0  0  0  0  0  0
   56.9131   33.7157   43.5678 H   0  0  0  0  0  0  0  0  0  0  0  0
   56.8705   32.0180   44.3758 H   0  0  0  0  0  0  0  0  0  0  0  0
   58.2719   33.8676   47.0350 H   0  0  0  0  0  0  0  0  0  0  0  0
   58.4998   31.8437   48.0937 H   0  0  0  0  0  0  0  0  0  0  0  0
   57.0907   31.3777   47.0717 H   0  0  0  0  0  0  0  0  0  0  0  0
   60.8784   31.2689   47.3030 H   0  0  0  0  0  0  0  0  0  0  0  0
   58.4157   26.9593   42.9774 H   0  0  0  0  0  0  0  0  0  0  0  0
   56.4510   28.1960   43.6080 H   0  0  0  0  0  0  0  0  0  0  0  0
   56.3250   31.1470   45.2620 H   0  0  0  0  0  0  0  0  0  0  0  0
   60.1372   33.9203   44.2563 H   0  0  0  0  0  0  0  0  0  0  0  0
   58.8045   35.0980   44.0077 H   0  0  0  0  0  0  0  0  0  0  0  0
   59.3712   34.5875   46.8510 H   0  0  0  0  0  0  0  0  0  0  0  0
   60.7862   35.2453   45.9612 H   0  0  0  0  0  0  0  0  0  0  0  0
   59.2294   36.1415   45.9612 H   0  0  0  0  0  0  0  0  0  0  0  0
  1  2  1  0
  2  3  1  0
  3  4  2  3
  4  5  1  0
  5  6  1  0
  6  7  1  0
  7  8  2  0
  8  9  1  0
  9 10  1  0
 10 11  2  0
 11 12  1  0
 12 13  1  0
 13 14  2  3
 13 15  1  0
  3 16  1  0
 16 17  1  0
 15  6  1  0
 15  9  2  0
  1 18  1  0
  1 19  1  0
  1 20  1  0
  2 21  1  0
  2 22  1  0
  4 23  1  0
  5 24  1  0
  5 25  1  0
  7 26  1  0
 11 27  1  0
 12 28  1  0
 14 29  1  0
 16 30  1  0
 16 31  1  0
 17 32  1  0
 17 33  1  0
 17 34  1  0
M  END
>  <smiles>  (36) 
CCC(=CCn1cnc2nc[nH]c(=N)c21)CC

>  <score_type>  (36) 
oracle

>  <origin>  (36) 
adg

>  <m_score__min__energy>  (36) 
-5.6200000000000001

>  <m_primary>  (36) 
energy

$$$$
36:0
     RDKit          3D

 57 59  0  0  0  0  0  0  0  0999 V2000
   63.2330   33.8870   46.0540 C   0  0  0  0  0  0  0  0  0  0  0  0
   63.0670   33.3320   47.4400 C   0  0  0  0  0  0  0  0  0  0  0  0
   64.1380   33.0090   48.0960 N   0  0  0  0  0  0  0  0  0  0  0  0
   64.0980   32.4180   49.3970 C   0  0  0  0  0  0  0  0  0  0  0  0
   65.2890   32.2460   50.1270 C   0  0  0  0  0  0  0  0  0  0  0  0
   66.5100   32.7170   49.6440 O   0  0  0  0  0  0  0  0  0  0  0  0
   65.2590   31.5890   51.3610 C   0  0  0  0  0  0  0  0  0  0  0  0
   64.0580   31.0780   51.8560 C   0  0  0  0  0  0  0  0  0  0  0  0
   64.0370   30.2210   53.3860 Cl  0  0  0  0  0  0  0  0  0  0  0  0
   62.8760   31.2380   51.1290 C   0  0  0  0  0  0  0  0  0  0  0  0
   62.8760   31.9500   49.9140 C   0  0  0  0  0  0  0  0  0  0  0  0
   61.6110   32.1030   49.0770 C   0  0  1  0  0  0  0  0  0  0  0  0
   60.3790   32.2850   49.9590 C   0  0  0  0  0  0  0  0  0  0  0  0
   60.2700   33.3890   50.8260 C   0  0  0  0  0  0  0  0  0  0  0  0
   59.1290   33.5670   51.6140 C   0  0  0  0  0  0  0  0  0  0  0  0
   58.0830   32.6450   51.5480 C   0  0  0  0  0  0  0  0  0  0  0  0
   58.1750   31.5430   50.6950 C   0  0  0  0  0  0  0  0  0  0  0  0
   59.3130   31.3590   49.9030 C   0  0  0  0  0  0  0  0  0  0  0  0
   59.3650   30.2890   49.0690 F   0  0  0  0  0  0  0  0  0  0  0  0
   61.7670   33.1860   48.0670 N   0  0  0  0  0  0  0  0  0  0  0  0
   60.6120   33.9630   47.5620 C   0  0  0  0  0  0  0  0  0  0  0  0
   59.4940   33.0610   47.0120 C   0  0  0  0  0  0  0  0  0  0  0  0
   59.0440   33.5350   45.6800 N   0  0  0  0  0  0  0  0  0  0  0  0
   59.2620   34.9860   45.5370 C   0  0  0  0  0  0  0  0  0  0  0  0
   57.6290   33.1810   45.4200 C   0  0  0  0  0  0  0  0  0  0  0  0
   57.5180   32.0950   44.3380 C   0  0  0  0  0  0  0  0  0  0  0  0
   56.8810   30.8690   44.8670 N   0  0  0  0  0  0  0  0  0  0  0  0
   56.2460   30.0910   43.7880 C   0  0  0  0  0  0  0  0  0  0  0  0
   57.8910   30.0340   45.5390 C   0  0  0  0  0  0  0  0  0  0  0  0
   63.5477   34.9392   46.1156 H   0  0  0  0  0  0  0  0  0  0  0  0
   63.9969   33.3067   45.5157 H   0  0  0  0  0  0  0  0  0  0  0  0
   62.2759   33.8215   45.5157 H   0  0  0  0  0  0  0  0  0  0  0  0
   66.6420   32.9850   48.6750 H   0  0  0  0  0  0  0  0  0  0  0  0
   66.1850   31.4745   51.9436 H   0  0  0  0  0  0  0  0  0  0  0  0
   61.9387   30.8048   51.5082 H   0  0  0  0  0  0  0  0  0  0  0  0
   61.4520   31.1702   48.5161 H   0  0  0  0  0  0  0  0  0  0  0  0
   61.0909   34.1189   50.8839 H   0  0  0  0  0  0  0  0  0  0  0  0
   59.0554   34.4343   52.2866 H   0  0  0  0  0  0  0  0  0  0  0  0
   57.1856   32.7865   52.1683 H   0  0  0  0  0  0  0  0  0  0  0  0
   57.3497   30.8174   50.6459 H   0  0  0  0  0  0  0  0  0  0  0  0
   60.2051   34.5672   48.3863 H   0  0  0  0  0  0  0  0  0  0  0  0
   60.9689   34.5961   46.7363 H   0  0  0  0  0  0  0  0  0  0  0  0
   59.8726   32.0323   46.9200 H   0  0  0  0  0  0  0  0  0  0  0  0
   58.6406   33.0936   47.7053 H   0  0  0  0  0  0  0  0  0  0  0  0
   59.3312   35.4464   46.5336 H   0  0  0  0  0  0  0  0  0  0  0  0
   60.1969   35.1637   44.9853 H   0  0  0  0  0  0  0  0  0  0  0  0
   58.4206   35.4306   44.9853 H   0  0  0  0  0  0  0  0  0  0  0  0
   57.1755   32.8084   46.3503 H   0  0  0  0  0  0  0  0  0  0  0  0
   57.1041   34.0805   45.0661 H   0  0  0  0  0  0  0  0  0  0  0  0
   56.9135   32.4811   43.5041 H   0  0  0  0  0  0  0  0  0  0  0  0
   58.5327   31.8392   43.9989 H   0  0  0  0  0  0  0  0  0  0  0  0
   55.6080   29.3093   44.2262 H   0  0  0  0  0  0  0  0  0  0  0  0
   55.6323   30.7594   43.1663 H   0  0  0  0  0  0  0  0  0  0  0  0
   57.0239   29.6236   43.1663 H   0  0  0  0  0  0  0  0  0  0  0  0
   57.7777   30.1276   46.6291 H   0  0  0  0  0  0  0  0  0  0  0  0
   57.7525   28.9831   45.2449 H   0  0  0  0  0  0  0  0  0  0  0  0
   58.8971   30.3676   45.2449 H   0  0  0  0  0  0  0  0  0  0  0  0
  1  2  1  0
  2  3  2  0
  3  4  1  0
  4  5  2  0
  5  6  1  0
  5  7  1  0
  7  8  2  0
  8  9  1  0
  8 10  1  0
 10 11  2  0
 11 12  1  0
 12 13  1  0
 13 14  2  0
 14 15  1  0
 15 16  2  0
 16 17  1  0
 17 18  2  0
 18 19  1  0
 12 20  1  0
 20 21  1  0
 21 22  1  0
 22 23  1  0
 23 24  1  0
 23 25  1  0
 25 26  1  0
 26 27  1  0
 27 28  1  0
 27 29  1  0
 20  2  1  0
 11  4  1  0
 18 13  1  0
  1 30  1  0
  1 31  1  0
  1 32  1  0
  6 33  1  0
  7 34  1  0
 10 35  1  0
 12 36  1  6
 14 37  1  0
 15 38  1  0
 16 39  1  0
 17 40  1  0
 21 41  1  0
 21 42  1  0
 22 43  1  0
 22 44  1  0
 24 45  1  0
 24 46  1  0
 24 47  1  0
 25 48  1  0
 25 49  1  0
 26 50  1  0
 26 51  1  0
 28 52  1  0
 28 53  1  0
 28 54  1  0
 29 55  1  0
 29 56  1  0
 29 57  1  0
M  END
>  <UniqueID>  (37) 
35

>  <SMILES>  (37) 
CC1=Nc2c(O)cc(Cl)cc2[C@@H](c2ccccc2F)N1CCN(C)CCN(C)C

>  <Energy>  (37) 
63.84594170814712

>  <Genealogy>  (37) 
CC1=Nc2c(O)cc(Cl)cc2[C@@H](c2ccccc2F)N1CCN(C)CCN(C)C (chirality)
CC1=Nc2c(O)cc(Cl)cc2[C@@H](c2ccccc2F)N1CCN(C)CCN(C)C (3D coordinates assigned)
CC1=Nc2c(O)cc(Cl)cc2[C@@H](c2ccccc2F)N1CCN(C)CCN(C)C (nonaromatic ring conformer: 63.84594170814712 kcal/mol)

>  <smiles>  (37) 
CC1=Nc2c(O)cc(Cl)cc2C(c2ccccc2F)N1CCN(C)CCN(C)C

>  <score_type>  (37) 
oracle

>  <origin>  (37) 
adg

>  <m_score__min__energy>  (37) 
-7.4100000000000001

>  <m_primary>  (37) 
energy

$$$$
37:0
     RDKit          3D

 35 36  0  0  0  0  0  0  0  0999 V2000
   62.2349   31.0964   47.5772 H   0  0  0  0  0  0  0  0  0  0  0  0
   61.4630   31.7660   47.1700 C   0  0  0  0  0  0  0  0  0  0  0  0
   61.7060   33.1500   47.1030 C   0  0  0  0  0  0  0  0  0  0  0  0
   63.2330   33.7990   47.6680 Cl  0  0  0  0  0  0  0  0  0  0  0  0
   60.7280   34.0140   46.5860 C   0  0  0  0  0  0  0  0  0  0  0  0
   60.9113   35.0972   46.5312 H   0  0  0  0  0  0  0  0  0  0  0  0
   59.5200   33.4760   46.1430 C   0  0  0  0  0  0  0  0  0  0  0  0
   59.2800   32.1230   46.2070 C   0  0  0  0  0  0  0  0  0  0  0  0
   60.2390   31.2290   46.7200 C   0  0  0  0  0  0  0  0  0  0  0  0
   59.9830   29.7510   46.7920 C   0  0  0  0  0  0  0  0  0  0  0  0
   59.9290   29.4391   47.8455 H   0  0  0  0  0  0  0  0  0  0  0  0
   59.0313   29.5189   46.2916 H   0  0  0  0  0  0  0  0  0  0  0  0
   60.8012   29.2123   46.2916 H   0  0  0  0  0  0  0  0  0  0  0  0
   57.9530   31.8750   45.6780 C   0  0  0  0  0  0  0  0  0  0  0  0
   57.3950   30.7090   45.5950 N   0  0  0  0  0  0  0  0  0  0  0  0
   56.2560   30.5170   44.8470 O   0  0  0  0  0  0  0  0  0  0  0  0
   56.3270   30.4500   43.4310 C   0  0  0  0  0  0  0  0  0  0  0  0
   56.9013   31.3097   43.0553 H   0  0  0  0  0  0  0  0  0  0  0  0
   55.3069   30.4701   43.0200 H   0  0  0  0  0  0  0  0  0  0  0  0
   57.0160   29.1510   42.9940 C   0  0  0  0  0  0  0  0  0  0  0  0
   57.9423   29.4082   42.4593 H   0  0  0  0  0  0  0  0  0  0  0  0
   56.3100   28.6037   42.3521 H   0  0  0  0  0  0  0  0  0  0  0  0
   57.3560   28.2710   44.1260 N   0  0  0  0  0  0  0  0  0  0  0  0
   57.1730   28.7970   45.0120 H   0  0  0  0  0  0  0  0  0  0  0  0
   56.7430   27.4210   44.1240 H   0  0  0  0  0  0  0  0  0  0  0  0
   58.7640   27.8590   44.1240 C   0  0  0  0  0  0  0  0  0  0  0  0
   59.1173   27.7556   45.1606 H   0  0  0  0  0  0  0  0  0  0  0  0
   58.8630   26.8942   43.6050 H   0  0  0  0  0  0  0  0  0  0  0  0
   59.3675   28.6182   43.6050 H   0  0  0  0  0  0  0  0  0  0  0  0
   57.3100   33.1580   45.2530 C   0  0  0  0  0  0  0  0  0  0  0  0
   57.0783   33.1405   44.1778 H   0  0  0  0  0  0  0  0  0  0  0  0
   56.3564   33.3418   45.7696 H   0  0  0  0  0  0  0  0  0  0  0  0
   58.3690   34.2370   45.5670 C   0  0  0  0  0  0  0  0  0  0  0  0
   58.6712   34.7636   44.6498 H   0  0  0  0  0  0  0  0  0  0  0  0
   57.9902   35.0068   46.2555 H   0  0  0  0  0  0  0  0  0  0  0  0
  1  2  1  0
  2  3  2  0
  3  4  1  0
  3  5  1  0
  5  6  1  0
  5  7  2  0
  7  8  1  0
  8  9  2  0
  9 10  1  0
 10 11  1  0
 10 12  1  0
 10 13  1  0
  8 14  1  0
 14 15  2  0
 15 16  1  0
 16 17  1  0
 17 18  1  0
 17 19  1  0
 17 20  1  0
 20 21  1  0
 20 22  1  0
 20 23  1  0
 23 24  1  0
 23 25  1  0
 23 26  1  0
 26 27  1  0
 26 28  1  0
 26 29  1  0
 14 30  1  0
 30 31  1  0
 30 32  1  0
 30 33  1  0
 33 34  1  0
 33 35  1  0
  9  2  1  0
 33  7  1  0
M  CHG  1  23   1
M  END
>  <UniqueID>  (38) 
36

>  <SMILES>  (38) 
C[NH2+]CCO/N=C1\CCc2cc(Cl)cc(C)c21

>  <Energy>  (38) 
41.436496035653185

>  <Genealogy>  (38) 
C[NH2+]CCON=C1CCc2cc(Cl)cc(C)c21 (protonated)
C[NH2+]CCO/N=C1\CCc2cc(Cl)cc(C)c21 (cis-trans isomerization)
C[NH2+]CCO/N=C1\CCc2cc(Cl)cc(C)c21 (3D coordinates assigned)
C[NH2+]CCO/N=C1\CCc2cc(Cl)cc(C)c21 (nonaromatic ring conformer: 41.436496035653185 kcal/mol)

>  <smiles>  (38) 
CNCCON=C1CCc2cc(Cl)cc(C)c21

>  <score_type>  (38) 
oracle

>  <origin>  (38) 
adg

>  <m_score__min__energy>  (38) 
-5.46

>  <m_primary>  (38) 
energy

$$$$
38:0
     RDKit          3D

 49 52  0  0  0  0  0  0  0  0999 V2000
   62.9270   31.7140   48.4740 C   0  0  0  0  0  0  0  0  0  0  0  0
   61.7410   30.8720   48.1060 C   0  0  0  0  0  0  0  0  0  0  0  0
   61.4390   30.6270   46.7580 C   0  0  0  0  0  0  0  0  0  0  0  0
   60.3570   29.8110   46.4150 C   0  0  0  0  0  0  0  0  0  0  0  0
   59.5650   29.2280   47.4160 C   0  0  0  0  0  0  0  0  0  0  0  0
   58.4250   28.3150   47.0480 C   0  0  0  0  0  0  0  0  0  0  0  0
   58.3840   28.0940   45.5380 C   0  0  0  0  0  0  0  0  0  0  0  0
   57.0100   28.2090   45.0620 N   0  0  0  0  0  0  0  0  0  0  0  0
   56.3480   29.4570   44.8290 C   0  0  0  0  0  0  0  0  0  0  0  0
   55.1710   29.6140   45.2450 O   0  0  0  0  0  0  0  0  0  0  0  0
   57.0250   30.5760   44.1440 C   0  0  0  0  0  0  0  0  0  0  0  0
   56.9550   30.6350   42.7510 C   0  0  0  0  0  0  0  0  0  0  0  0
   57.5370   31.6950   42.0690 C   0  0  0  0  0  0  0  0  0  0  0  0
   58.1930   32.6950   42.7810 C   0  0  0  0  0  0  0  0  0  0  0  0
   58.2890   32.6450   44.1500 N   0  0  0  0  0  0  0  0  0  0  0  0
   58.9480   33.6430   44.8270 C   0  0  0  0  0  0  0  0  0  0  0  0
   59.4550   34.6170   44.1990 O   0  0  0  0  0  0  0  0  0  0  0  0
   59.0660   33.5910   46.2250 C   0  0  0  0  0  0  0  0  0  0  0  0
   59.7320   34.5940   46.9560 C   0  0  0  0  0  0  0  0  0  0  0  0
   59.8300   34.5040   48.3460 C   0  0  0  0  0  0  0  0  0  0  0  0
   59.2590   33.4220   49.0290 C   0  0  0  0  0  0  0  0  0  0  0  0
   59.4010   33.3090   50.5190 C   0  0  0  0  0  0  0  0  0  0  0  0
   58.6130   32.4110   48.3030 C   0  0  0  0  0  0  0  0  0  0  0  0
   58.5070   32.4950   46.9040 C   0  0  0  0  0  0  0  0  0  0  0  0
   57.8660   31.5200   46.2050 N   0  0  0  0  0  0  0  0  0  0  0  0
   57.7280   31.5890   44.8460 C   0  0  0  0  0  0  0  0  0  0  0  0
   59.8870   29.4470   48.7640 C   0  0  0  0  0  0  0  0  0  0  0  0
   60.9690   30.2640   49.1070 C   0  0  0  0  0  0  0  0  0  0  0  0
   63.0094   31.7725   49.5693 H   0  0  0  0  0  0  0  0  0  0  0  0
   63.8405   31.2611   48.0612 H   0  0  0  0  0  0  0  0  0  0  0  0
   62.8006   32.7258   48.0612 H   0  0  0  0  0  0  0  0  0  0  0  0
   62.0563   31.0789   45.9676 H   0  0  0  0  0  0  0  0  0  0  0  0
   60.1254   29.6251   45.3558 H   0  0  0  0  0  0  0  0  0  0  0  0
   58.5593   27.3466   47.5522 H   0  0  0  0  0  0  0  0  0  0  0  0
   57.4799   28.7796   47.3657 H   0  0  0  0  0  0  0  0  0  0  0  0
   59.0080   28.8510   45.0405 H   0  0  0  0  0  0  0  0  0  0  0  0
   58.7672   27.0893   45.3061 H   0  0  0  0  0  0  0  0  0  0  0  0
   56.4380   29.8405   42.1929 H   0  0  0  0  0  0  0  0  0  0  0  0
   57.4800   31.7443   40.9716 H   0  0  0  0  0  0  0  0  0  0  0  0
   58.6421   33.5396   42.2379 H   0  0  0  0  0  0  0  0  0  0  0  0
   60.1767   35.4516   46.4298 H   0  0  0  0  0  0  0  0  0  0  0  0
   60.3589   35.2876   48.9084 H   0  0  0  0  0  0  0  0  0  0  0  0
   58.6301   33.9224   51.0084 H   0  0  0  0  0  0  0  0  0  0  0  0
   59.2792   32.2581   50.8203 H   0  0  0  0  0  0  0  0  0  0  0  0
   60.3977   33.6637   50.8203 H   0  0  0  0  0  0  0  0  0  0  0  0
   58.1862   31.5462   48.8321 H   0  0  0  0  0  0  0  0  0  0  0  0
   57.4780   30.7080   46.7350 H   0  0  0  0  0  0  0  0  0  0  0  0
   59.2858   28.9740   49.5545 H   0  0  0  0  0  0  0  0  0  0  0  0
   61.2156   30.4305   50.1660 H   0  0  0  0  0  0  0  0  0  0  0  0
  1  2  1  0
  2  3  2  0
  3  4  1  0
  4  5  2  0
  5  6  1  0
  6  7  1  0
  7  8  1  0
  8  9  1  0
  9 10  2  0
  9 11  1  0
 11 12  2  0
 12 13  1  0
 13 14  2  0
 14 15  1  0
 15 16  1  0
 16 17  2  0
 16 18  1  0
 18 19  2  0
 19 20  1  0
 20 21  2  0
 21 22  1  0
 21 23  1  0
 23 24  2  0
 24 25  1  0
 25 26  2  0
  5 27  1  0
 27 28  2  0
 28  2  1  0
 26 11  1  0
 26 15  1  0
 24 18  1  0
  1 29  1  0
  1 30  1  0
  1 31  1  0
  3 32  1  0
  4 33  1  0
  6 34  1  0
  6 35  1  0
  7 36  1  0
  7 37  1  0
 12 38  1  0
 13 39  1  0
 14 40  1  0
 19 41  1  0
 20 42  1  0
 22 43  1  0
 22 44  1  0
 22 45  1  0
 23 46  1  0
 25 47  1  0
 27 48  1  0
 28 49  1  0
M  CHG  2   8  -1  25   1
M  END
>  <UniqueID>  (39) 
37

>  <SMILES>  (39) 
Cc1ccc(CC[N-]C(=O)c2cccn3c(=O)c4ccc(C)cc4[nH+]c23)cc1

>  <Energy>  (39) 
64.84318586718194

>  <Genealogy>  (39) 
Cc1ccc(CC[N-]C(=O)c2cccn3c(=O)c4ccc(C)cc4[nH+]c23)cc1 (protonated)
Cc1ccc(CC[N-]C(=O)c2cccn3c(=O)c4ccc(C)cc4[nH+]c23)cc1 (3D coordinates assigned)
Cc1ccc(CC[N-]C(=O)c2cccn3c(=O)c4ccc(C)cc4[nH+]c23)cc1 (optimized conformer: 64.84318586718194 kcal/mol)

>  <smiles>  (39) 
Cc1ccc(CCNC(=O)c2cccn3c(=O)c4ccc(C)cc4nc23)cc1

>  <score_type>  (39) 
oracle

>  <origin>  (39) 
adg

>  <m_score__min__energy>  (39) 
-9

>  <m_primary>  (39) 
energy

$$$$
39:0
     RDKit          3D

 32 33  0  0  0  0  0  0  0  0999 V2000
   55.5270   29.7440   43.4610 C   0  0  0  0  0  0  0  0  0  0  0  0
   56.0550   29.7980   44.7820 O   0  0  0  0  0  0  0  0  0  0  0  0
   57.1950   29.1030   45.2160 C   0  0  0  0  0  0  0  0  0  0  0  0
   57.1410   27.7370   45.5610 C   0  0  0  0  0  0  0  0  0  0  0  0
   58.2890   27.0710   45.9960 C   0  0  0  0  0  0  0  0  0  0  0  0
   59.5000   27.7530   46.0950 C   0  0  0  0  0  0  0  0  0  0  0  0
   59.5700   29.1050   45.7560 C   0  0  0  0  0  0  0  0  0  0  0  0
   58.4260   29.7910   45.3120 C   0  0  0  0  0  0  0  0  0  0  0  0
   58.5440   31.2520   44.9310 C   0  0  0  0  0  0  0  0  0  0  0  0
   57.2310   31.9210   44.8700 N   0  0  0  0  0  0  0  0  0  0  0  0
   57.3060   33.3870   45.0130 C   0  0  0  0  0  0  0  0  0  0  0  0
   58.2540   33.8150   46.0990 C   0  0  0  0  0  0  0  0  0  0  0  0
   59.2690   34.7530   45.9600 C   0  0  0  0  0  0  0  0  0  0  0  0
   60.0420   34.9070   47.1170 C   0  0  0  0  0  0  0  0  0  0  0  0
   59.6540   34.0780   48.1610 C   0  0  0  0  0  0  0  0  0  0  0  0
   58.3490   33.1530   47.6430 S   0  0  0  0  0  0  0  0  0  0  0  0
   54.4337   29.6322   43.5074 H   0  0  0  0  0  0  0  0  0  0  0  0
   55.7783   30.6725   42.9274 H   0  0  0  0  0  0  0  0  0  0  0  0
   55.9611   28.8856   42.9274 H   0  0  0  0  0  0  0  0  0  0  0  0
   56.1883   27.1921   45.4871 H   0  0  0  0  0  0  0  0  0  0  0  0
   58.2370   26.0047   46.2613 H   0  0  0  0  0  0  0  0  0  0  0  0
   60.4013   27.2255   46.4405 H   0  0  0  0  0  0  0  0  0  0  0  0
   60.5286   29.6385   45.8369 H   0  0  0  0  0  0  0  0  0  0  0  0
   59.1676   31.7636   45.6789 H   0  0  0  0  0  0  0  0  0  0  0  0
   58.9956   31.3037   43.9293 H   0  0  0  0  0  0  0  0  0  0  0  0
   56.6140   31.5450   45.6260 H   0  0  0  0  0  0  0  0  0  0  0  0
   56.7740   31.6840   43.9570 H   0  0  0  0  0  0  0  0  0  0  0  0
   57.6458   33.8170   44.0592 H   0  0  0  0  0  0  0  0  0  0  0  0
   56.3029   33.7466   45.2860 H   0  0  0  0  0  0  0  0  0  0  0  0
   59.4476   35.3183   45.0334 H   0  0  0  0  0  0  0  0  0  0  0  0
   60.8781   35.6179   47.1919 H   0  0  0  0  0  0  0  0  0  0  0  0
   60.1204   34.0339   49.1563 H   0  0  0  0  0  0  0  0  0  0  0  0
  1  2  1  0
  2  3  1  0
  3  4  2  0
  4  5  1  0
  5  6  2  0
  6  7  1  0
  7  8  2  0
  8  9  1  0
  9 10  1  0
 10 11  1  0
 11 12  1  0
 12 13  2  0
 13 14  1  0
 14 15  2  0
 15 16  1  0
  8  3  1  0
 16 12  1  0
  1 17  1  0
  1 18  1  0
  1 19  1  0
  4 20  1  0
  5 21  1  0
  6 22  1  0
  7 23  1  0
  9 24  1  0
  9 25  1  0
 10 26  1  0
 10 27  1  0
 11 28  1  0
 11 29  1  0
 13 30  1  0
 14 31  1  0
 15 32  1  0
M  CHG  1  10   1
M  END
>  <UniqueID>  (40) 
38

>  <SMILES>  (40) 
COc1ccccc1C[NH2+]Cc1cccs1

>  <Energy>  (40) 
56.89774032628256

>  <Genealogy>  (40) 
COc1ccccc1C[NH2+]Cc1cccs1 (protonated)
COc1ccccc1C[NH2+]Cc1cccs1 (3D coordinates assigned)
COc1ccccc1C[NH2+]Cc1cccs1 (optimized conformer: 56.89774032628256 kcal/mol)

>  <smiles>  (40) 
COc1ccccc1CNCc1cccs1

>  <score_type>  (40) 
oracle

>  <origin>  (40) 
adg

>  <m_score__min__energy>  (40) 
-4.1399999999999997

>  <m_primary>  (40) 
energy

$$$$
40:0
     RDKit          3D

 47 48  0  0  0  0  0  0  0  0999 V2000
   55.8140   30.0690   44.1150 C   0  0  0  0  0  0  0  0  0  0  0  0
   57.0240   29.2450   43.6850 C   0  0  0  0  0  0  0  0  0  0  0  0
   57.7610   28.7570   44.8740 N   0  0  0  0  0  0  0  0  0  0  0  0
   56.9970   27.7040   45.5820 C   0  0  0  0  0  0  0  0  0  0  0  0
   57.5660   26.3260   45.2530 C   0  0  0  0  0  0  0  0  0  0  0  0
   59.1150   28.2820   44.5060 C   0  0  0  0  0  0  0  0  0  0  0  0
   60.1150   28.6190   45.6260 C   0  0  0  0  0  0  0  0  0  0  0  0
   59.5050   29.4310   46.6940 N   0  0  0  0  0  0  0  0  0  0  0  0
   60.0660   30.7660   46.7400 C   0  0  0  0  0  0  0  0  0  0  0  0
   61.4010   30.9390   47.1390 C   0  0  0  0  0  0  0  0  0  0  0  0
   61.9880   32.2050   47.1720 C   0  0  0  0  0  0  0  0  0  0  0  0
   63.3270   32.3010   47.5810 O   0  0  0  0  0  0  0  0  0  0  0  0
   63.9630   33.5080   47.9890 C   0  0  0  0  0  0  0  0  0  0  0  0
   61.2320   33.3290   46.7980 C   0  0  0  0  0  0  0  0  0  0  0  0
   59.8900   33.1910   46.3910 C   0  0  0  0  0  0  0  0  0  0  0  0
   59.1010   34.3040   46.0010 C   0  0  0  0  0  0  0  0  0  0  0  0
   59.6460   35.7090   45.9990 C   0  0  0  0  0  0  0  0  0  0  0  0
   57.7740   34.0920   45.6020 C   0  0  0  0  0  0  0  0  0  0  0  0
   57.2460   32.8030   45.5940 C   0  0  0  0  0  0  0  0  0  0  0  0
   58.0130   31.7510   45.9700 N   0  0  0  0  0  0  0  0  0  0  0  0
   59.3070   31.8970   46.3660 C   0  0  0  0  0  0  0  0  0  0  0  0
   55.7648   30.1025   45.2134 H   0  0  0  0  0  0  0  0  0  0  0  0
   55.9080   31.0916   43.7208 H   0  0  0  0  0  0  0  0  0  0  0  0
   54.8969   29.6069   43.7208 H   0  0  0  0  0  0  0  0  0  0  0  0
   56.6844   28.3845   43.0899 H   0  0  0  0  0  0  0  0  0  0  0  0
   57.6931   29.8778   43.0835 H   0  0  0  0  0  0  0  0  0  0  0  0
   57.0632   27.8746   46.6667 H   0  0  0  0  0  0  0  0  0  0  0  0
   55.9466   27.7445   45.2581 H   0  0  0  0  0  0  0  0  0  0  0  0
   57.7880   25.7885   46.1867 H   0  0  0  0  0  0  0  0  0  0  0  0
   56.8299   25.7555   44.6676 H   0  0  0  0  0  0  0  0  0  0  0  0
   58.4902   26.4411   44.6676 H   0  0  0  0  0  0  0  0  0  0  0  0
   59.0902   27.1926   44.3558 H   0  0  0  0  0  0  0  0  0  0  0  0
   59.4319   28.7802   43.5779 H   0  0  0  0  0  0  0  0  0  0  0  0
   60.4861   27.6803   46.0633 H   0  0  0  0  0  0  0  0  0  0  0  0
   60.9327   29.2058   45.1821 H   0  0  0  0  0  0  0  0  0  0  0  0
   59.6900   28.9600   47.6100 H   0  0  0  0  0  0  0  0  0  0  0  0
   58.4650   29.4510   46.5790 H   0  0  0  0  0  0  0  0  0  0  0  0
   61.9953   30.0606   47.4310 H   0  0  0  0  0  0  0  0  0  0  0  0
   63.9882   33.5559   49.0877 H   0  0  0  0  0  0  0  0  0  0  0  0
   64.9906   33.5315   47.5972 H   0  0  0  0  0  0  0  0  0  0  0  0
   63.4014   34.3689   47.5972 H   0  0  0  0  0  0  0  0  0  0  0  0
   61.6929   34.3275   46.8232 H   0  0  0  0  0  0  0  0  0  0  0  0
   59.7791   36.0521   47.0356 H   0  0  0  0  0  0  0  0  0  0  0  0
   60.6157   35.7254   45.4800 H   0  0  0  0  0  0  0  0  0  0  0  0
   58.9410   36.3750   45.4800 H   0  0  0  0  0  0  0  0  0  0  0  0
   57.1494   34.9439   45.2951 H   0  0  0  0  0  0  0  0  0  0  0  0
   56.2041   32.6387   45.2818 H   0  0  0  0  0  0  0  0  0  0  0  0
  1  2  1  0
  2  3  1  0
  3  4  1  0
  4  5  1  0
  3  6  1  0
  6  7  1  0
  7  8  1  0
  8  9  1  0
  9 10  2  0
 10 11  1  0
 11 12  1  0
 12 13  1  0
 11 14  2  0
 14 15  1  0
 15 16  2  0
 16 17  1  0
 16 18  1  0
 18 19  2  0
 19 20  1  0
 20 21  2  0
 21  9  1  0
 21 15  1  0
  1 22  1  0
  1 23  1  0
  1 24  1  0
  2 25  1  0
  2 26  1  0
  4 27  1  0
  4 28  1  0
  5 29  1  0
  5 30  1  0
  5 31  1  0
  6 32  1  0
  6 33  1  0
  7 34  1  0
  7 35  1  0
  8 36  1  0
  8 37  1  0
 10 38  1  0
 13 39  1  0
 13 40  1  0
 13 41  1  0
 14 42  1  0
 17 43  1  0
 17 44  1  0
 17 45  1  0
 18 46  1  0
 19 47  1  0
M  CHG  1   8   1
M  END
>  <UniqueID>  (41) 
39

>  <SMILES>  (41) 
CCN(CC)CC[NH2+]c1cc(OC)cc2c(C)ccnc12

>  <Energy>  (41) 
49.95113811279914

>  <Genealogy>  (41) 
CCN(CC)CC[NH2+]c1cc(OC)cc2c(C)ccnc12 (protonated)
CCN(CC)CC[NH2+]c1cc(OC)cc2c(C)ccnc12 (3D coordinates assigned)
CCN(CC)CC[NH2+]c1cc(OC)cc2c(C)ccnc12 (optimized conformer: 49.95113811279914 kcal/mol)

>  <smiles>  (41) 
CCN(CC)CCNc1cc(OC)cc2c(C)ccnc12

>  <score_type>  (41) 
oracle

>  <origin>  (41) 
adg

>  <m_score__min__energy>  (41) 
-4.1100000000000003

>  <m_primary>  (41) 
energy

$$$$
41:0
     RDKit          3D

 35 37  0  0  0  0  0  0  0  0999 V2000
   57.9380   21.4520   43.7710 C   0  0  0  0  0  0  0  0  0  0  0  0
   56.8950   21.9370   43.0930 C   0  0  0  0  0  0  0  0  0  0  0  0
   56.6130   23.4080   43.0450 C   0  0  0  0  0  0  0  0  0  0  0  0
   57.5040   24.0950   43.9200 O   0  0  0  0  0  0  0  0  0  0  0  0
   57.4510   25.4710   44.1850 C   0  0  0  0  0  0  0  0  0  0  0  0
   57.0560   25.9870   45.4330 C   0  0  0  0  0  0  0  0  0  0  0  0
   57.0180   27.3680   45.6470 C   0  0  0  0  0  0  0  0  0  0  0  0
   57.3760   28.2600   44.6200 C   0  0  0  0  0  0  0  0  0  0  0  0
   57.3460   29.7270   44.8210 C   0  0  0  0  0  0  0  0  0  0  0  0
   58.3750   30.4850   45.2490 N   0  0  0  0  0  0  0  0  0  0  0  0
   57.8490   31.7260   45.2640 C   0  0  0  0  0  0  0  0  0  0  0  0
   58.5630   32.9570   45.6610 C   0  0  0  0  0  0  0  0  0  0  0  0
   58.5970   34.0970   44.8380 C   0  0  0  0  0  0  0  0  0  0  0  0
   59.2900   35.2310   45.2680 C   0  0  0  0  0  0  0  0  0  0  0  0
   59.9400   35.2260   46.5020 C   0  0  0  0  0  0  0  0  0  0  0  0
   59.8870   34.0790   47.2950 C   0  0  0  0  0  0  0  0  0  0  0  0
   59.2070   32.9830   46.8610 N   0  0  0  0  0  0  0  0  0  0  0  0
   56.5620   31.7200   44.8630 N   0  0  0  0  0  0  0  0  0  0  0  0
   56.2900   30.4760   44.6000 O   0  0  0  0  0  0  0  0  0  0  0  0
   57.7700   27.7390   43.3760 C   0  0  0  0  0  0  0  0  0  0  0  0
   57.8060   26.3590   43.1630 C   0  0  0  0  0  0  0  0  0  0  0  0
   58.1247   20.3682   43.7916 H   0  0  0  0  0  0  0  0  0  0  0  0
   58.6106   22.1363   44.3089 H   0  0  0  0  0  0  0  0  0  0  0  0
   56.2294   21.2429   42.5590 H   0  0  0  0  0  0  0  0  0  0  0  0
   56.7542   23.7744   42.0175 H   0  0  0  0  0  0  0  0  0  0  0  0
   55.5759   23.5914   43.3624 H   0  0  0  0  0  0  0  0  0  0  0  0
   56.7755   25.2999   46.2449 H   0  0  0  0  0  0  0  0  0  0  0  0
   56.7057   27.7601   46.6261 H   0  0  0  0  0  0  0  0  0  0  0  0
   59.3400   30.1850   45.5050 H   0  0  0  0  0  0  0  0  0  0  0  0
   58.0830   34.0956   43.8655 H   0  0  0  0  0  0  0  0  0  0  0  0
   59.3231   36.1286   44.6330 H   0  0  0  0  0  0  0  0  0  0  0  0
   60.4879   36.1156   46.8460 H   0  0  0  0  0  0  0  0  0  0  0  0
   60.3947   34.0607   48.2706 H   0  0  0  0  0  0  0  0  0  0  0  0
   58.0525   28.4238   42.5628 H   0  0  0  0  0  0  0  0  0  0  0  0
   58.1161   25.9666   42.1833 H   0  0  0  0  0  0  0  0  0  0  0  0
  1  2  2  0
  2  3  1  0
  3  4  1  0
  4  5  1  0
  5  6  2  0
  6  7  1  0
  7  8  2  0
  8  9  1  0
  9 10  2  0
 10 11  1  0
 11 12  1  0
 12 13  2  0
 13 14  1  0
 14 15  2  0
 15 16  1  0
 16 17  2  0
 11 18  2  0
 18 19  1  0
  8 20  1  0
 20 21  2  0
 21  5  1  0
 19  9  1  0
 17 12  1  0
  1 22  1  0
  1 23  1  0
  2 24  1  0
  3 25  1  0
  3 26  1  0
  6 27  1  0
  7 28  1  0
 10 29  1  0
 13 30  1  0
 14 31  1  0
 15 32  1  0
 16 33  1  0
 20 34  1  0
 21 35  1  0
M  CHG  1  10   1
M  END
>  <UniqueID>  (42) 
40

>  <SMILES>  (42) 
C=CCOc1ccc(-c2[nH+]c(-c3ccccn3)no2)cc1

>  <Energy>  (42) 
71.09345069260357

>  <Genealogy>  (42) 
C=CCOc1ccc(-c2[nH+]c(-c3ccccn3)no2)cc1 (protonated)
C=CCOc1ccc(-c2[nH+]c(-c3ccccn3)no2)cc1 (3D coordinates assigned)
C=CCOc1ccc(-c2[nH+]c(-c3ccccn3)no2)cc1 (optimized conformer: 71.09345069260357 kcal/mol)

>  <smiles>  (42) 
C=CCOc1ccc(-c2nc(-c3ccccn3)no2)cc1

>  <score_type>  (42) 
oracle

>  <origin>  (42) 
adg

>  <m_score__min__energy>  (42) 
-5.6100000000000003

>  <m_primary>  (42) 
energy

$$$$
42:0
     RDKit          3D

 50 53  0  0  0  0  0  0  0  0999 V2000
   62.3920   33.8430   46.3510 C   0  0  0  0  0  0  0  0  0  0  0  0
   63.3880   32.7630   46.7710 C   0  0  0  0  0  0  0  0  0  0  0  0
   64.1370   33.1030   48.0790 C   0  0  0  0  0  0  0  0  0  0  0  0
   63.6670   32.3410   49.2650 N   0  0  0  0  0  0  0  0  0  0  0  0
   62.3380   31.7160   49.0180 C   0  0  0  0  0  0  0  0  0  0  0  0
   61.5750   31.4540   50.3270 C   0  0  0  0  0  0  0  0  0  0  0  0
   61.3190   32.7030   51.0900 N   0  0  0  0  0  0  0  0  0  0  0  0
   59.9340   33.1890   50.9200 C   0  0  0  0  0  0  0  0  0  0  0  0
   59.5890   33.2900   49.4560 C   0  0  0  0  0  0  0  0  0  0  0  0
   59.7530   34.5020   48.7670 C   0  0  0  0  0  0  0  0  0  0  0  0
   59.4390   34.5870   47.4090 C   0  0  0  0  0  0  0  0  0  0  0  0
   58.9610   33.4650   46.7240 C   0  0  0  0  0  0  0  0  0  0  0  0
   58.6620   33.5610   45.4050 N   0  0  0  0  0  0  0  0  0  0  0  0
   58.1940   32.5080   44.6880 C   0  0  0  0  0  0  0  0  0  0  0  0
   57.9090   32.6880   43.3310 C   0  0  0  0  0  0  0  0  0  0  0  0
   57.4290   31.6280   42.5680 C   0  0  0  0  0  0  0  0  0  0  0  0
   57.2290   30.3790   43.1530 C   0  0  0  0  0  0  0  0  0  0  0  0
   57.5050   30.1700   44.5110 C   0  0  0  0  0  0  0  0  0  0  0  0
   57.2100   28.5450   45.1280 Cl  0  0  0  0  0  0  0  0  0  0  0  0
   57.9980   31.2440   45.3070 C   0  0  0  0  0  0  0  0  0  0  0  0
   58.3050   31.1240   46.6870 C   0  0  0  0  0  0  0  0  0  0  0  0
   58.1520   30.0270   47.2900 O   0  0  0  0  0  0  0  0  0  0  0  0
   58.7900   32.2390   47.4010 C   0  0  0  0  0  0  0  0  0  0  0  0
   59.1070   32.1630   48.7710 C   0  0  0  0  0  0  0  0  0  0  0  0
   62.2880   33.7820   50.7890 C   0  0  0  0  0  0  0  0  0  0  0  0
   63.6770   33.2080   50.4770 C   0  0  0  0  0  0  0  0  0  0  0  0
   61.9597   34.3117   47.2474 H   0  0  0  0  0  0  0  0  0  0  0  0
   62.9099   34.6063   45.7516 H   0  0  0  0  0  0  0  0  0  0  0  0
   61.5894   33.3885   45.7516 H   0  0  0  0  0  0  0  0  0  0  0  0
   62.8408   31.8199   46.9162 H   0  0  0  0  0  0  0  0  0  0  0  0
   64.1413   32.6843   45.9733 H   0  0  0  0  0  0  0  0  0  0  0  0
   65.2054   32.8868   47.9311 H   0  0  0  0  0  0  0  0  0  0  0  0
   63.9425   34.1653   48.2880 H   0  0  0  0  0  0  0  0  0  0  0  0
   64.3550   31.5720   49.4460 H   0  0  0  0  0  0  0  0  0  0  0  0
   61.7401   32.3897   48.3867 H   0  0  0  0  0  0  0  0  0  0  0  0
   62.5034   30.7489   48.5206 H   0  0  0  0  0  0  0  0  0  0  0  0
   60.6107   30.9826   50.0861 H   0  0  0  0  0  0  0  0  0  0  0  0
   62.1972   30.7982   50.9538 H   0  0  0  0  0  0  0  0  0  0  0  0
   59.2412   32.4877   51.4082 H   0  0  0  0  0  0  0  0  0  0  0  0
   59.8468   34.1858   51.3769 H   0  0  0  0  0  0  0  0  0  0  0  0
   60.1302   35.3880   49.2987 H   0  0  0  0  0  0  0  0  0  0  0  0
   59.5681   35.5404   46.8757 H   0  0  0  0  0  0  0  0  0  0  0  0
   58.0649   33.6719   42.8646 H   0  0  0  0  0  0  0  0  0  0  0  0
   57.2069   31.7762   41.5009 H   0  0  0  0  0  0  0  0  0  0  0  0
   56.8499   29.5470   42.5414 H   0  0  0  0  0  0  0  0  0  0  0  0
   58.9759   31.2126   49.3091 H   0  0  0  0  0  0  0  0  0  0  0  0
   61.9314   34.3522   49.9186 H   0  0  0  0  0  0  0  0  0  0  0  0
   62.3700   34.4334   51.6716 H   0  0  0  0  0  0  0  0  0  0  0  0
   64.3758   34.0412   50.3111 H   0  0  0  0  0  0  0  0  0  0  0  0
   63.9877   32.5901   51.3324 H   0  0  0  0  0  0  0  0  0  0  0  0
  1  2  1  0
  2  3  1  0
  3  4  1  0
  4  5  1  0
  5  6  1  0
  6  7  1  0
  7  8  1  0
  8  9  1  0
  9 10  2  0
 10 11  1  0
 11 12  2  0
 12 13  1  0
 13 14  1  0
 14 15  2  0
 15 16  1  0
 16 17  2  0
 17 18  1  0
 18 19  1  0
 18 20  2  0
 20 21  1  0
 21 22  2  0
 21 23  1  0
 23 24  2  0
  7 25  1  0
 25 26  1  0
 26  4  1  0
 24  9  1  0
 23 12  1  0
 20 14  1  0
  1 27  1  0
  1 28  1  0
  1 29  1  0
  2 30  1  0
  2 31  1  0
  3 32  1  0
  3 33  1  0
  4 34  1  0
  5 35  1  0
  5 36  1  0
  6 37  1  0
  6 38  1  0
  8 39  1  0
  8 40  1  0
 10 41  1  0
 11 42  1  0
 15 43  1  0
 16 44  1  0
 17 45  1  0
 24 46  1  0
 25 47  1  0
 25 48  1  0
 26 49  1  0
 26 50  1  0
M  CHG  2   4   1  13  -1
M  END
>  <UniqueID>  (43) 
41

>  <SMILES>  (43) 
CCC[NH+]1CCN(Cc2ccc3[n-]c4cccc(Cl)c4c(=O)c3c2)CC1

>  <Energy>  (43) 
76.34694995836475

>  <Genealogy>  (43) 
CCC[NH+]1CCN(Cc2ccc3[n-]c4cccc(Cl)c4c(=O)c3c2)CC1 (protonated)
CCC[NH+]1CCN(Cc2ccc3[n-]c4cccc(Cl)c4c(=O)c3c2)CC1 (3D coordinates assigned)
CCC[NH+]1CCN(Cc2ccc3[n-]c4cccc(Cl)c4c(=O)c3c2)CC1 (nonaromatic ring conformer: 76.34694995836475 kcal/mol)

>  <smiles>  (43) 
CCCN1CCN(Cc2ccc3[nH]c4cccc(Cl)c4c(=O)c3c2)CC1

>  <score_type>  (43) 
oracle

>  <origin>  (43) 
adg

>  <m_score__min__energy>  (43) 
-8.7899999999999991

>  <m_primary>  (43) 
energy

$$$$
43:0
     RDKit          3D

 28 29  0  0  0  0  0  0  0  0999 V2000
   58.0845   32.5711   44.6489 H   0  0  0  0  0  0  0  0  0  0  0  0
   57.5430   31.6940   44.2650 C   0  0  0  0  0  0  0  0  0  0  0  0
   56.9780   30.7670   45.0810 N   0  0  0  0  0  0  0  0  0  0  0  0
   56.3660   29.7890   44.3720 C   0  0  0  0  0  0  0  0  0  0  0  0
   55.7200   28.7940   44.9040 N   0  0  0  0  0  0  0  0  0  0  0  0
   56.3070   27.6980   45.6220 C   0  0  0  0  0  0  0  0  0  0  0  0
   55.5930   26.6890   45.8660 O   0  0  0  0  0  0  0  0  0  0  0  0
   57.7370   27.6860   46.0200 C   0  0  0  0  0  0  0  0  0  0  0  0
   58.1300   28.3220   47.2120 C   0  0  0  0  0  0  0  0  0  0  0  0
   57.3745   28.8120   47.8438 H   0  0  0  0  0  0  0  0  0  0  0  0
   59.4710   28.3360   47.5990 C   0  0  0  0  0  0  0  0  0  0  0  0
   59.9450   29.1250   49.0930 Cl  0  0  0  0  0  0  0  0  0  0  0  0
   60.4360   27.7260   46.7950 C   0  0  0  0  0  0  0  0  0  0  0  0
   61.4926   27.7379   47.1006 H   0  0  0  0  0  0  0  0  0  0  0  0
   60.0620   27.1010   45.6040 C   0  0  0  0  0  0  0  0  0  0  0  0
   60.8278   26.6258   44.9734 H   0  0  0  0  0  0  0  0  0  0  0  0
   58.7110   27.0740   45.2030 C   0  0  0  0  0  0  0  0  0  0  0  0
   58.3080   26.4380   44.0170 O   0  0  0  0  0  0  0  0  0  0  0  0
   58.1200   27.0960   42.7680 C   0  0  0  0  0  0  0  0  0  0  0  0
   57.8217   28.1399   42.9448 H   0  0  0  0  0  0  0  0  0  0  0  0
   59.0601   27.0749   42.1973 H   0  0  0  0  0  0  0  0  0  0  0  0
   57.3329   26.5814   42.1973 H   0  0  0  0  0  0  0  0  0  0  0  0
   56.4760   30.0410   42.7140 S   0  0  0  0  0  0  0  0  0  0  0  0
   57.3830   31.4470   42.9060 C   0  0  0  0  0  0  0  0  0  0  0  0
   57.8290   32.3410   41.7980 C   0  0  0  0  0  0  0  0  0  0  0  0
   58.2824   33.2499   42.2202 H   0  0  0  0  0  0  0  0  0  0  0  0
   58.5704   31.8152   41.1784 H   0  0  0  0  0  0  0  0  0  0  0  0
   56.9630   32.6171   41.1784 H   0  0  0  0  0  0  0  0  0  0  0  0
  1  2  1  0
  2  3  1  0
  3  4  1  0
  4  5  2  0
  5  6  1  0
  6  7  2  0
  6  8  1  0
  8  9  2  0
  9 10  1  0
  9 11  1  0
 11 12  1  0
 11 13  2  0
 13 14  1  0
 13 15  1  0
 15 16  1  0
 15 17  2  0
 17 18  1  0
 18 19  1  0
 19 20  1  0
 19 21  1  0
 19 22  1  0
  4 23  1  0
 23 24  1  0
 24 25  1  0
 25 26  1  0
 25 27  1  0
 25 28  1  0
 24  2  2  0
 17  8  1  0
M  CHG  1   3  -1
M  END
>  <UniqueID>  (44) 
42

>  <SMILES>  (44) 
COc1ccc(Cl)cc1C(=O)/N=c1\[n-]cc(C)s1

>  <Energy>  (44) 
64.88230533095962

>  <Genealogy>  (44) 
COc1ccc(Cl)cc1C(=O)N=c1[n-]cc(C)s1 (protonated)
COc1ccc(Cl)cc1C(=O)/N=c1\[n-]cc(C)s1 (cis-trans isomerization)
COc1ccc(Cl)cc1C(=O)/N=c1\[n-]cc(C)s1 (3D coordinates assigned)
COc1ccc(Cl)cc1C(=O)/N=c1\[n-]cc(C)s1 (optimized conformer: 64.88230533095962 kcal/mol)

>  <smiles>  (44) 
COc1ccc(Cl)cc1C(=O)N=c1[nH]cc(C)s1

>  <score_type>  (44) 
oracle

>  <origin>  (44) 
adg

>  <m_score__min__energy>  (44) 
-8.9199999999999999

>  <m_primary>  (44) 
energy

$$$$
44:0
     RDKit          3D

 45 48  0  0  0  0  0  0  0  0999 V2000
   60.4990   29.9690   49.7750 C   0  0  0  0  0  0  0  0  0  0  0  0
   61.6830   30.8540   49.4860 C   0  0  0  0  0  0  0  0  0  0  0  0
   62.7020   30.9620   50.4480 C   0  0  0  0  0  0  0  0  0  0  0  0
   63.8090   31.7830   50.2230 C   0  0  0  0  0  0  0  0  0  0  0  0
   63.9170   32.4980   49.0310 C   0  0  0  0  0  0  0  0  0  0  0  0
   62.9210   32.3920   48.0590 C   0  0  0  0  0  0  0  0  0  0  0  0
   61.7970   31.5740   48.2690 C   0  0  0  0  0  0  0  0  0  0  0  0
   60.7800   31.4630   47.1990 C   0  0  0  0  0  0  0  0  0  0  0  0
   60.6500   30.3920   46.3780 N   0  0  0  0  0  0  0  0  0  0  0  0
   59.6750   30.6460   45.5460 O   0  0  0  0  0  0  0  0  0  0  0  0
   59.1670   31.8300   45.7880 C   0  0  0  0  0  0  0  0  0  0  0  0
   58.1080   32.4740   45.1420 C   0  0  0  0  0  0  0  0  0  0  0  0
   57.3720   31.8170   44.0080 C   0  0  0  0  0  0  0  0  0  0  0  0
   56.2190   31.0790   44.5100 N   0  0  0  0  0  0  0  0  0  0  0  0
   56.2690   29.7050   44.9050 C   0  0  0  0  0  0  0  0  0  0  0  0
   55.2250   28.9980   44.8680 O   0  0  0  0  0  0  0  0  0  0  0  0
   57.5070   29.1570   45.3810 N   0  0  0  0  0  0  0  0  0  0  0  0
   57.7240   27.7600   45.6470 C   0  0  0  0  0  0  0  0  0  0  0  0
   57.9580   27.3400   46.9660 C   0  0  0  0  0  0  0  0  0  0  0  0
   58.1930   25.9910   47.2480 C   0  0  0  0  0  0  0  0  0  0  0  0
   58.2130   25.0520   46.2130 C   0  0  0  0  0  0  0  0  0  0  0  0
   58.0060   25.4640   44.8950 C   0  0  0  0  0  0  0  0  0  0  0  0
   57.7700   26.8120   44.6080 C   0  0  0  0  0  0  0  0  0  0  0  0
   57.7360   33.7480   45.6260 C   0  0  0  0  0  0  0  0  0  0  0  0
   58.4190   34.3300   46.7180 C   0  0  0  0  0  0  0  0  0  0  0  0
   59.4820   33.6510   47.3410 C   0  0  0  0  0  0  0  0  0  0  0  0
   59.8350   32.4010   46.8340 C   0  0  0  0  0  0  0  0  0  0  0  0
   60.3702   29.8727   50.8632 H   0  0  0  0  0  0  0  0  0  0  0  0
   59.5934   30.4134   49.3364 H   0  0  0  0  0  0  0  0  0  0  0  0
   60.6688   28.9746   49.3364 H   0  0  0  0  0  0  0  0  0  0  0  0
   62.6268   30.3943   51.3872 H   0  0  0  0  0  0  0  0  0  0  0  0
   64.5963   31.8656   50.9868 H   0  0  0  0  0  0  0  0  0  0  0  0
   64.7882   33.1464   48.8564 H   0  0  0  0  0  0  0  0  0  0  0  0
   63.0165   32.9545   47.1185 H   0  0  0  0  0  0  0  0  0  0  0  0
   57.0294   32.5887   43.3029 H   0  0  0  0  0  0  0  0  0  0  0  0
   58.0510   31.1159   43.5006 H   0  0  0  0  0  0  0  0  0  0  0  0
   58.2630   29.8320   45.6350 H   0  0  0  0  0  0  0  0  0  0  0  0
   57.9564   28.0769   47.7827 H   0  0  0  0  0  0  0  0  0  0  0  0
   58.3624   25.6682   48.2858 H   0  0  0  0  0  0  0  0  0  0  0  0
   58.3916   23.9898   46.4364 H   0  0  0  0  0  0  0  0  0  0  0  0
   58.0287   24.7257   44.0799 H   0  0  0  0  0  0  0  0  0  0  0  0
   57.6198   27.1325   43.5665 H   0  0  0  0  0  0  0  0  0  0  0  0
   56.9075   34.2919   45.1488 H   0  0  0  0  0  0  0  0  0  0  0  0
   58.1168   35.3224   47.0839 H   0  0  0  0  0  0  0  0  0  0  0  0
   60.0153   34.0902   48.1970 H   0  0  0  0  0  0  0  0  0  0  0  0
  1  2  1  0
  2  3  2  0
  3  4  1  0
  4  5  2  0
  5  6  1  0
  6  7  2  0
  7  8  1  0
  8  9  2  0
  9 10  1  0
 10 11  1  0
 11 12  2  0
 12 13  1  0
 13 14  1  0
 14 15  1  0
 15 16  2  0
 15 17  1  0
 17 18  1  0
 18 19  2  0
 19 20  1  0
 20 21  2  0
 21 22  1  0
 22 23  2  0
 12 24  1  0
 24 25  2  0
 25 26  1  0
 26 27  2  0
  7  2  1  0
 27  8  1  0
 27 11  1  0
 23 18  1  0
  1 28  1  0
  1 29  1  0
  1 30  1  0
  3 31  1  0
  4 32  1  0
  5 33  1  0
  6 34  1  0
 13 35  1  0
 13 36  1  0
 17 37  1  0
 19 38  1  0
 20 39  1  0
 21 40  1  0
 22 41  1  0
 23 42  1  0
 24 43  1  0
 25 44  1  0
 26 45  1  0
M  CHG  1  14  -1
M  END
>  <UniqueID>  (45) 
43

>  <SMILES>  (45) 
Cc1ccccc1-c1noc2c(C[N-]C(=O)Nc3ccccc3)cccc12

>  <Energy>  (45) 
95.14532707882641

>  <Genealogy>  (45) 
Cc1ccccc1-c1noc2c(C[N-]C(=O)Nc3ccccc3)cccc12 (protonated)
Cc1ccccc1-c1noc2c(C[N-]C(=O)Nc3ccccc3)cccc12 (3D coordinates assigned)
Cc1ccccc1-c1noc2c(C[N-]C(=O)Nc3ccccc3)cccc12 (optimized conformer: 95.14532707882641 kcal/mol)

>  <smiles>  (45) 
Cc1ccccc1-c1noc2c(CNC(=O)Nc3ccccc3)cccc12

>  <score_type>  (45) 
oracle

>  <origin>  (45) 
adg

>  <m_score__min__energy>  (45) 
-10.630000000000001

>  <m_primary>  (45) 
energy

$$$$
