0:0
     RDKit          3D

 48 51  0  0  0  0  0  0  0  0999 V2000
   58.7340   28.0470   44.1190 C   0  0  0  0  0  0  0  0  0  0  0  0
   57.6180   28.8960   44.7490 C   0  0  1  0  0  0  0  0  0  0  0  0
   58.0490   29.5020   46.0940 C   0  0  0  0  0  0  0  0  0  0  0  0
   58.9780   30.7240   45.9360 C   0  0  0  0  0  0  0  0  0  0  0  0
   58.5120   31.7300   44.9470 N   0  0  2  0  0  0  0  0  0  0  0  0
   57.5020   32.6750   45.4150 C   0  0  0  0  0  0  0  0  0  0  0  0
   56.3220   32.3930   45.2470 O   0  0  0  0  0  0  0  0  0  0  0  0
   57.8340   33.9700   46.1320 C   0  0  0  0  0  0  0  0  0  0  0  0
   58.9630   33.7950   47.0570 N   0  0  0  0  0  0  0  0  0  0  0  0
   58.6880   33.5430   48.3490 N   0  0  0  0  0  0  0  0  0  0  0  0
   59.6640   33.3390   49.2780 C   0  0  0  0  0  0  0  0  0  0  0  0
   60.9800   33.3950   48.8500 C   0  0  0  0  0  0  0  0  0  0  0  0
   62.1710   33.2220   49.5140 C   0  0  0  0  0  0  0  0  0  0  0  0
   62.4490   32.9380   50.8480 C   0  0  0  0  0  0  0  0  0  0  0  0
   63.7980   32.8060   51.2220 C   0  0  0  0  0  0  0  0  0  0  0  0
   64.8230   32.9560   50.2640 C   0  0  0  0  0  0  0  0  0  0  0  0
   64.5160   33.2410   48.9210 C   0  0  0  0  0  0  0  0  0  0  0  0
   63.1670   33.3720   48.5660 C   0  0  0  0  0  0  0  0  0  0  0  0
   62.6360   33.6390   47.3430 N   0  0  0  0  0  0  0  0  0  0  0  0
   63.3430   33.8430   46.0770 C   0  0  0  0  0  0  0  0  0  0  0  0
   61.2900   33.6420   47.5370 C   0  0  0  0  0  0  0  0  0  0  0  0
   60.2640   33.8410   46.6070 C   0  0  0  0  0  0  0  0  0  0  0  0
   60.5240   34.0470   45.3910 O   0  0  0  0  0  0  0  0  0  0  0  0
   58.1340   31.1290   43.6490 C   0  0  0  0  0  0  0  0  0  0  0  0
   57.1140   29.9920   43.7980 C   0  0  0  0  0  0  0  0  0  0  0  0
   59.3385   27.5872   44.9147 H   0  0  0  0  0  0  0  0  0  0  0  0
   58.2873   27.2584   43.4957 H   0  0  0  0  0  0  0  0  0  0  0  0
   59.3749   28.6880   43.4957 H   0  0  0  0  0  0  0  0  0  0  0  0
   56.7798   28.2095   44.9390 H   0  0  0  0  0  0  0  0  0  0  0  0
   57.1481   29.8154   46.6418 H   0  0  0  0  0  0  0  0  0  0  0  0
   58.6124   28.7290   46.6371 H   0  0  0  0  0  0  0  0  0  0  0  0
   59.0638   31.2188   46.9147 H   0  0  0  0  0  0  0  0  0  0  0  0
   59.9384   30.3398   45.5618 H   0  0  0  0  0  0  0  0  0  0  0  0
   59.3570   32.3180   44.7510 H   0  0  0  0  0  0  0  0  0  0  0  0
   56.9526   34.3004   46.7011 H   0  0  0  0  0  0  0  0  0  0  0  0
   58.1156   34.7209   45.3792 H   0  0  0  0  0  0  0  0  0  0  0  0
   59.4154   33.1370   50.3303 H   0  0  0  0  0  0  0  0  0  0  0  0
   61.6406   32.8208   51.5848 H   0  0  0  0  0  0  0  0  0  0  0  0
   64.0559   32.5844   52.2681 H   0  0  0  0  0  0  0  0  0  0  0  0
   65.8739   32.8489   50.5707 H   0  0  0  0  0  0  0  0  0  0  0  0
   65.3123   33.3577   48.1711 H   0  0  0  0  0  0  0  0  0  0  0  0
   64.3815   34.1427   46.2811 H   0  0  0  0  0  0  0  0  0  0  0  0
   63.3383   32.9069   45.4994 H   0  0  0  0  0  0  0  0  0  0  0  0
   62.8403   34.6327   45.4994 H   0  0  0  0  0  0  0  0  0  0  0  0
   57.6973   31.9124   43.0122 H   0  0  0  0  0  0  0  0  0  0  0  0
   59.0443   30.7026   43.2024 H   0  0  0  0  0  0  0  0  0  0  0  0
   56.1755   30.4052   44.1961 H   0  0  0  0  0  0  0  0  0  0  0  0
   56.9576   29.5403   42.8073 H   0  0  0  0  0  0  0  0  0  0  0  0
  1  2  1  0
  2  3  1  0
  3  4  1  0
  4  5  1  0
  5  6  1  0
  6  7  2  0
  6  8  1  0
  8  9  1  0
  9 10  1  0
 10 11  2  0
 11 12  1  0
 12 13  1  0
 13 14  2  0
 14 15  1  0
 15 16  2  0
 16 17  1  0
 17 18  2  0
 18 19  1  0
 19 20  1  0
 19 21  1  0
 21 22  1  0
 22 23  2  0
  5 24  1  0
 24 25  1  0
 25  2  1  0
 22  9  1  0
 21 12  2  0
 18 13  1  0
  1 26  1  0
  1 27  1  0
  1 28  1  0
  2 29  1  1
  3 30  1  0
  3 31  1  0
  4 32  1  0
  4 33  1  0
  5 34  1  6
  8 35  1  0
  8 36  1  0
 11 37  1  0
 14 38  1  0
 15 39  1  0
 16 40  1  0
 17 41  1  0
 20 42  1  0
 20 43  1  0
 20 44  1  0
 24 45  1  0
 24 46  1  0
 25 47  1  0
 25 48  1  0
M  CHG  1   5   1
M  END
>  <UniqueID>  (1) 
1

>  <SMILES>  (1) 
CC1CC[NH+](C(=O)Cn2ncc3c4ccccc4n(C)c3c2=O)CC1

>  <Energy>  (1) 
103.35164855569721

>  <Genealogy>  (1) 
CC1CC[NH+](C(=O)Cn2ncc3c4ccccc4n(C)c3c2=O)CC1 (protonated)
CC1CC[NH+](C(=O)Cn2ncc3c4ccccc4n(C)c3c2=O)CC1 (3D coordinates assigned)
CC1CC[NH+](C(=O)Cn2ncc3c4ccccc4n(C)c3c2=O)CC1 (nonaromatic ring conformer: 103.35164855569721 kcal/mol)

>  <smiles>  (1) 
CC1CCN(C(=O)Cn2ncc3c4ccccc4n(C)c3c2=O)CC1

>  <score_type>  (1) 
oracle

>  <origin>  (1) 
adg

>  <m_score__min__energy>  (1) 
-6.5800000000000001

>  <m_primary>  (1) 
energy

$$$$
1:0
     RDKit          3D

 61 64  0  0  0  0  0  0  0  0999 V2000
   63.7660   31.1160   51.0100 C   0  0  0  0  0  0  0  0  0  0  0  0
   62.6690   31.4670   50.1750 O   0  0  0  0  0  0  0  0  0  0  0  0
   62.7650   32.2560   49.0170 C   0  0  0  0  0  0  0  0  0  0  0  0
   64.0080   32.5400   48.4150 C   0  0  0  0  0  0  0  0  0  0  0  0
   64.0710   33.3070   47.2500 C   0  0  0  0  0  0  0  0  0  0  0  0
   62.9010   33.8050   46.6760 C   0  0  0  0  0  0  0  0  0  0  0  0
   61.6640   33.5370   47.2630 C   0  0  0  0  0  0  0  0  0  0  0  0
   61.5850   32.7620   48.4320 C   0  0  0  0  0  0  0  0  0  0  0  0
   60.2680   32.4900   49.0440 C   0  0  0  0  0  0  0  0  0  0  0  0
   60.0680   31.6210   50.0530 N   0  0  0  0  0  0  0  0  0  0  0  0
   58.7690   31.5630   50.3160 N   0  0  0  0  0  0  0  0  0  0  0  0
   58.1750   30.7240   51.3250 C   0  0  0  0  0  0  0  0  0  0  0  0
   58.9360   29.7320   51.9690 C   0  0  0  0  0  0  0  0  0  0  0  0
   58.3600   28.9260   52.9550 C   0  0  0  0  0  0  0  0  0  0  0  0
   57.0200   29.0960   53.3050 C   0  0  0  0  0  0  0  0  0  0  0  0
   56.2400   30.0680   52.6610 C   0  0  0  0  0  0  0  0  0  0  0  0
   54.8090   30.2740   53.0600 C   0  0  0  0  0  0  0  0  0  0  0  0
   56.8260   30.8890   51.6850 C   0  0  0  0  0  0  0  0  0  0  0  0
   58.1130   32.3910   49.4740 C   0  0  0  0  0  0  0  0  0  0  0  0
   59.0390   33.0010   48.6490 C   0  0  0  0  0  0  0  0  0  0  0  0
   58.7310   33.9180   47.4990 C   0  0  0  0  0  0  0  0  0  0  0  0
   57.5560   33.4610   46.7420 N   0  0  0  0  0  0  0  0  0  0  0  0
   57.5070   33.9460   45.3500 C   0  0  0  0  0  0  0  0  0  0  0  0
   57.8030   32.8490   44.3070 C   0  0  0  0  0  0  0  0  0  0  0  0
   57.1740   31.5640   44.6770 N   0  0  0  0  0  0  0  0  0  0  0  0
   58.1140   30.6790   45.3920 C   0  0  0  0  0  0  0  0  0  0  0  0
   57.4190   29.3530   45.7700 C   0  0  0  0  0  0  0  0  0  0  0  0
   56.1110   29.2650   45.2340 O   0  0  0  0  0  0  0  0  0  0  0  0
   56.1590   29.4550   43.8330 C   0  0  0  0  0  0  0  0  0  0  0  0
   56.6490   30.8740   43.4820 C   0  0  0  0  0  0  0  0  0  0  0  0
   63.4690   31.2110   52.0649 H   0  0  0  0  0  0  0  0  0  0  0  0
   64.0649   30.0774   50.8054 H   0  0  0  0  0  0  0  0  0  0  0  0
   64.6123   31.7882   50.8054 H   0  0  0  0  0  0  0  0  0  0  0  0
   64.9343   32.1547   48.8662 H   0  0  0  0  0  0  0  0  0  0  0  0
   65.0446   33.5189   46.7840 H   0  0  0  0  0  0  0  0  0  0  0  0
   62.9539   34.4101   45.7589 H   0  0  0  0  0  0  0  0  0  0  0  0
   60.7451   33.9349   46.8077 H   0  0  0  0  0  0  0  0  0  0  0  0
   60.8060   31.0610   50.5360 H   0  0  0  0  0  0  0  0  0  0  0  0
   59.9917   29.5895   51.6949 H   0  0  0  0  0  0  0  0  0  0  0  0
   58.9645   28.1558   53.4563 H   0  0  0  0  0  0  0  0  0  0  0  0
   56.5738   28.4658   54.0884 H   0  0  0  0  0  0  0  0  0  0  0  0
   54.7322   30.2850   54.1573 H   0  0  0  0  0  0  0  0  0  0  0  0
   54.4506   31.2330   52.6577 H   0  0  0  0  0  0  0  0  0  0  0  0
   54.1946   29.4550   52.6577 H   0  0  0  0  0  0  0  0  0  0  0  0
   56.2237   31.6694   51.1969 H   0  0  0  0  0  0  0  0  0  0  0  0
   57.0252   32.5525   49.4492 H   0  0  0  0  0  0  0  0  0  0  0  0
   58.5334   34.9270   47.8900 H   0  0  0  0  0  0  0  0  0  0  0  0
   59.5970   33.9221   46.8207 H   0  0  0  0  0  0  0  0  0  0  0  0
   57.5310   32.4150   46.7570 H   0  0  0  0  0  0  0  0  0  0  0  0
   56.5018   34.3487   45.1565 H   0  0  0  0  0  0  0  0  0  0  0  0
   58.2896   34.7120   45.2459 H   0  0  0  0  0  0  0  0  0  0  0  0
   57.4119   33.1700   43.3303 H   0  0  0  0  0  0  0  0  0  0  0  0
   58.8920   32.6997   44.2637 H   0  0  0  0  0  0  0  0  0  0  0  0
   58.9759   30.4648   44.7429 H   0  0  0  0  0  0  0  0  0  0  0  0
   58.4501   31.1816   46.3109 H   0  0  0  0  0  0  0  0  0  0  0  0
   58.0180   28.5157   45.3827 H   0  0  0  0  0  0  0  0  0  0  0  0
   57.3390   29.3132   46.8664 H   0  0  0  0  0  0  0  0  0  0  0  0
   56.8477   28.7182   43.3939 H   0  0  0  0  0  0  0  0  0  0  0  0
   55.1446   29.3254   43.4278 H   0  0  0  0  0  0  0  0  0  0  0  0
   57.4471   30.8027   42.7283 H   0  0  0  0  0  0  0  0  0  0  0  0
   55.7986   31.4511   43.0899 H   0  0  0  0  0  0  0  0  0  0  0  0
  1  2  1  0
  2  3  1  0
  3  4  2  0
  4  5  1  0
  5  6  2  0
  6  7  1  0
  7  8  2  0
  8  9  1  0
  9 10  2  0
 10 11  1  0
 11 12  1  0
 12 13  2  0
 13 14  1  0
 14 15  2  0
 15 16  1  0
 16 17  1  0
 16 18  2  0
 11 19  1  0
 19 20  2  0
 20 21  1  0
 21 22  1  0
 22 23  1  0
 23 24  1  0
 24 25  1  0
 25 26  1  0
 26 27  1  0
 27 28  1  0
 28 29  1  0
 29 30  1  0
  8  3  1  0
 20  9  1  0
 30 25  1  0
 18 12  1  0
  1 31  1  0
  1 32  1  0
  1 33  1  0
  4 34  1  0
  5 35  1  0
  6 36  1  0
  7 37  1  0
 10 38  1  0
 13 39  1  0
 14 40  1  0
 15 41  1  0
 17 42  1  0
 17 43  1  0
 17 44  1  0
 18 45  1  0
 19 46  1  0
 21 47  1  0
 21 48  1  0
 22 49  1  0
 23 50  1  0
 23 51  1  0
 24 52  1  0
 24 53  1  0
 26 54  1  0
 26 55  1  0
 27 56  1  0
 27 57  1  0
 29 58  1  0
 29 59  1  0
 30 60  1  0
 30 61  1  0
M  CHG  1  10   1
M  END
>  <UniqueID>  (2) 
2

>  <SMILES>  (2) 
COc1ccccc1-c1[nH+]n(-c2cccc(C)c2)cc1CNCCN1CCOCC1

>  <Energy>  (2) 
109.4553302090408

>  <Genealogy>  (2) 
COc1ccccc1-c1[nH+]n(-c2cccc(C)c2)cc1CNCCN1CCOCC1 (protonated)
COc1ccccc1-c1[nH+]n(-c2cccc(C)c2)cc1CNCCN1CCOCC1 (3D coordinates assigned)
COc1ccccc1-c1[nH+]n(-c2cccc(C)c2)cc1CNCCN1CCOCC1 (nonaromatic ring conformer: 109.4553302090408 kcal/mol)

>  <smiles>  (2) 
COc1ccccc1-c1nn(-c2cccc(C)c2)cc1CNCCN1CCOCC1

>  <score_type>  (2) 
oracle

>  <origin>  (2) 
adg

>  <m_score__min__energy>  (2) 
-6.8799999999999999

>  <m_primary>  (2) 
energy

$$$$
2:0
     RDKit          3D

 43 45  0  0  0  0  0  0  0  0999 V2000
   62.4390   33.5050   46.7670 C   0  0  0  0  0  0  0  0  0  0  0  0
   61.3980   33.5600   47.8870 C   0  0  0  0  0  0  0  0  0  0  0  0
   60.1680   34.2950   47.5250 N   0  0  0  0  0  0  0  0  0  0  0  0
   60.1250   34.8310   46.1470 C   0  0  0  0  0  0  0  0  0  0  0  0
   58.8220   34.4810   45.4150 C   0  0  0  0  0  0  0  0  0  0  0  0
   58.4800   33.0630   45.6390 N   0  0  0  0  0  0  0  0  0  0  0  0
   57.3610   32.6630   44.7490 C   0  0  0  0  0  0  0  0  0  0  0  0
   57.6860   31.4240   43.8830 C   0  0  0  0  0  0  0  0  0  0  0  0
   57.6220   30.1700   44.6720 N   0  0  0  0  0  0  0  0  0  0  0  0
   56.5190   29.3340   44.6090 C   0  0  0  0  0  0  0  0  0  0  0  0
   55.1720   29.7190   43.7500 S   0  0  0  0  0  0  0  0  0  0  0  0
   56.5130   28.1560   45.2860 N   0  0  0  0  0  0  0  0  0  0  0  0
   57.5750   27.7780   46.0350 C   0  0  0  0  0  0  0  0  0  0  0  0
   58.6720   28.5870   46.1440 C   0  0  0  0  0  0  0  0  0  0  0  0
   58.6910   29.8060   45.4640 C   0  0  0  0  0  0  0  0  0  0  0  0
   59.6950   30.5600   45.5870 O   0  0  0  0  0  0  0  0  0  0  0  0
   59.7700   28.0690   47.0000 C   0  0  0  0  0  0  0  0  0  0  0  0
   59.2450   26.4310   47.6240 S   0  0  0  0  0  0  0  0  0  0  0  0
   57.6210   26.5020   46.7850 C   0  0  0  0  0  0  0  0  0  0  0  0
   58.1550   32.8190   47.0690 C   0  0  0  0  0  0  0  0  0  0  0  0
   58.9060   33.7450   48.0580 C   0  0  0  0  0  0  0  0  0  0  0  0
   63.4466   33.4518   47.2052 H   0  0  0  0  0  0  0  0  0  0  0  0
   62.2620   32.6150   46.1453 H   0  0  0  0  0  0  0  0  0  0  0  0
   62.3568   34.4087   46.1453 H   0  0  0  0  0  0  0  0  0  0  0  0
   61.1202   32.5294   48.1527 H   0  0  0  0  0  0  0  0  0  0  0  0
   61.8592   34.1023   48.7256 H   0  0  0  0  0  0  0  0  0  0  0  0
   60.2198   35.9260   46.1923 H   0  0  0  0  0  0  0  0  0  0  0  0
   60.9537   34.3734   45.5868 H   0  0  0  0  0  0  0  0  0  0  0  0
   58.0087   35.1161   45.7961 H   0  0  0  0  0  0  0  0  0  0  0  0
   58.9572   34.6529   44.3370 H   0  0  0  0  0  0  0  0  0  0  0  0
   59.3180   32.4950   45.3780 H   0  0  0  0  0  0  0  0  0  0  0  0
   56.4835   32.4342   45.3716 H   0  0  0  0  0  0  0  0  0  0  0  0
   57.1726   33.5018   44.0627 H   0  0  0  0  0  0  0  0  0  0  0  0
   56.9592   31.3643   43.0595 H   0  0  0  0  0  0  0  0  0  0  0  0
   58.7105   31.5345   43.4980 H   0  0  0  0  0  0  0  0  0  0  0  0
   60.6927   27.9691   46.4096 H   0  0  0  0  0  0  0  0  0  0  0  0
   59.9722   28.7574   47.8338 H   0  0  0  0  0  0  0  0  0  0  0  0
   57.5162   25.6534   46.0930 H   0  0  0  0  0  0  0  0  0  0  0  0
   56.8000   26.4466   47.5149 H   0  0  0  0  0  0  0  0  0  0  0  0
   57.0743   32.9702   47.2078 H   0  0  0  0  0  0  0  0  0  0  0  0
   58.4740   31.7907   47.2946 H   0  0  0  0  0  0  0  0  0  0  0  0
   58.2442   34.5850   48.3159 H   0  0  0  0  0  0  0  0  0  0  0  0
   59.1703   33.1305   48.9312 H   0  0  0  0  0  0  0  0  0  0  0  0
  1  2  1  0
  2  3  1  0
  3  4  1  0
  4  5  1  0
  5  6  1  0
  6  7  1  0
  7  8  1  0
  8  9  1  0
  9 10  1  0
 10 11  2  0
 10 12  1  0
 12 13  1  0
 13 14  2  0
 14 15  1  0
 15 16  2  0
 14 17  1  0
 17 18  1  0
 18 19  1  0
  6 20  1  0
 20 21  1  0
 21  3  1  0
 15  9  1  0
 19 13  1  0
  1 22  1  0
  1 23  1  0
  1 24  1  0
  2 25  1  0
  2 26  1  0
  4 27  1  0
  4 28  1  0
  5 29  1  0
  5 30  1  0
  6 31  1  0
  7 32  1  0
  7 33  1  0
  8 34  1  0
  8 35  1  0
 17 36  1  0
 17 37  1  0
 19 38  1  0
 19 39  1  0
 20 40  1  0
 20 41  1  0
 21 42  1  0
 21 43  1  0
M  CHG  2   6   1  12  -1
M  END
>  <UniqueID>  (3) 
3

>  <SMILES>  (3) 
CCN1CC[NH+](CCn2c(=S)[n-]c3c(c2=O)CSC3)CC1

>  <Energy>  (3) 
63.48906628044927

>  <Genealogy>  (3) 
CCN1CC[NH+](CCn2c(=S)[n-]c3c(c2=O)CSC3)CC1 (protonated)
CCN1CC[NH+](CCn2c(=S)[n-]c3c(c2=O)CSC3)CC1 (3D coordinates assigned)
CCN1CC[NH+](CCn2c(=S)[n-]c3c(c2=O)CSC3)CC1 (nonaromatic ring conformer: 63.48906628044927 kcal/mol)

>  <smiles>  (3) 
CCN1CCN(CCn2c(=S)[nH]c3c(c2=O)CSC3)CC1

>  <score_type>  (3) 
oracle

>  <origin>  (3) 
adg

>  <m_score__min__energy>  (3) 
-6.6500000000000004

>  <m_primary>  (3) 
energy

$$$$
3:0
     RDKit          3D

 59 62  0  0  0  0  0  0  0  0999 V2000
   56.2810   29.7480   42.7070 C   0  0  0  0  0  0  0  0  0  0  0  0
   55.8910   30.4200   44.0220 C   0  0  0  0  0  0  0  0  0  0  0  0
   57.0660   30.6390   44.9050 N   0  0  0  0  0  0  0  0  0  0  0  0
   57.6370   32.0010   44.7240 C   0  0  0  0  0  0  0  0  0  0  0  0
   56.6870   33.0870   45.2510 C   0  0  0  0  0  0  0  0  0  0  0  0
   57.3980   34.1980   46.0520 C   0  0  0  0  0  0  0  0  0  0  0  0
   58.5980   33.6850   46.7270 N   0  0  0  0  0  0  0  0  0  0  0  0
   58.4380   32.8790   47.7790 N   0  0  0  0  0  0  0  0  0  0  0  0
   59.4810   32.3450   48.4690 C   0  0  0  0  0  0  0  0  0  0  0  0
   59.1670   31.4260   49.6240 C   0  0  0  0  0  0  0  0  0  0  0  0
   58.8430   32.2000   50.8760 C   0  0  0  0  0  0  0  0  0  0  0  0
   58.0400   31.6280   51.8730 C   0  0  0  0  0  0  0  0  0  0  0  0
   57.7690   32.3440   53.0400 C   0  0  0  0  0  0  0  0  0  0  0  0
   58.2880   33.5900   53.2130 N   0  0  0  0  0  0  0  0  0  0  0  0
   59.0790   34.1660   52.2670 C   0  0  0  0  0  0  0  0  0  0  0  0
   59.3750   33.4800   51.0860 C   0  0  0  0  0  0  0  0  0  0  0  0
   60.7990   32.6770   48.0840 C   0  0  0  0  0  0  0  0  0  0  0  0
   61.9340   32.1960   48.7690 C   0  0  0  0  0  0  0  0  0  0  0  0
   63.2180   32.5450   48.3480 C   0  0  0  0  0  0  0  0  0  0  0  0
   63.3930   33.3750   47.2420 C   0  0  0  0  0  0  0  0  0  0  0  0
   62.2840   33.8620   46.5510 C   0  0  0  0  0  0  0  0  0  0  0  0
   60.9800   33.5230   46.9630 C   0  0  0  0  0  0  0  0  0  0  0  0
   59.8510   34.0090   46.2830 C   0  0  0  0  0  0  0  0  0  0  0  0
   59.9930   34.7450   45.2660 O   0  0  0  0  0  0  0  0  0  0  0  0
   58.0990   29.6060   44.6430 C   0  0  0  0  0  0  0  0  0  0  0  0
   58.7980   29.1900   45.9120 C   0  0  0  0  0  0  0  0  0  0  0  0
   60.0440   29.7400   46.2490 C   0  0  0  0  0  0  0  0  0  0  0  0
   60.6890   29.3380   47.4210 C   0  0  0  0  0  0  0  0  0  0  0  0
   60.0750   28.4030   48.2550 C   0  0  0  0  0  0  0  0  0  0  0  0
   58.8680   27.8790   47.9170 N   0  0  0  0  0  0  0  0  0  0  0  0
   58.2250   28.2430   46.7750 C   0  0  0  0  0  0  0  0  0  0  0  0
   56.8228   28.8144   42.9189 H   0  0  0  0  0  0  0  0  0  0  0  0
   55.3737   29.5220   42.1275 H   0  0  0  0  0  0  0  0  0  0  0  0
   56.9273   30.4236   42.1275 H   0  0  0  0  0  0  0  0  0  0  0  0
   55.4274   31.3925   43.8000 H   0  0  0  0  0  0  0  0  0  0  0  0
   55.1896   29.7557   44.5482 H   0  0  0  0  0  0  0  0  0  0  0  0
   58.5896   32.0642   45.2704 H   0  0  0  0  0  0  0  0  0  0  0  0
   57.7895   32.1699   43.6478 H   0  0  0  0  0  0  0  0  0  0  0  0
   56.1779   33.5494   44.3925 H   0  0  0  0  0  0  0  0  0  0  0  0
   55.9851   32.5935   45.9393 H   0  0  0  0  0  0  0  0  0  0  0  0
   57.6912   35.0043   45.3636 H   0  0  0  0  0  0  0  0  0  0  0  0
   56.7028   34.5733   46.8174 H   0  0  0  0  0  0  0  0  0  0  0  0
   58.3026   30.8000   49.3575 H   0  0  0  0  0  0  0  0  0  0  0  0
   60.0542   30.8066   49.8221 H   0  0  0  0  0  0  0  0  0  0  0  0
   57.6251   30.6185   51.7359 H   0  0  0  0  0  0  0  0  0  0  0  0
   57.1346   31.9002   53.8214 H   0  0  0  0  0  0  0  0  0  0  0  0
   58.0770   34.1140   54.0910 H   0  0  0  0  0  0  0  0  0  0  0  0
   59.4864   35.1743   52.4325 H   0  0  0  0  0  0  0  0  0  0  0  0
   60.0218   33.9417   50.3254 H   0  0  0  0  0  0  0  0  0  0  0  0
   61.8062   31.5400   49.6427 H   0  0  0  0  0  0  0  0  0  0  0  0
   64.0953   32.1636   48.8911 H   0  0  0  0  0  0  0  0  0  0  0  0
   64.4073   33.6462   46.9138 H   0  0  0  0  0  0  0  0  0  0  0  0
   62.4283   34.5155   45.6780 H   0  0  0  0  0  0  0  0  0  0  0  0
   57.6174   28.7245   44.1946 H   0  0  0  0  0  0  0  0  0  0  0  0
   58.8483   30.0325   43.9599 H   0  0  0  0  0  0  0  0  0  0  0  0
   60.5124   30.4869   45.5911 H   0  0  0  0  0  0  0  0  0  0  0  0
   61.6723   29.7549   47.6841 H   0  0  0  0  0  0  0  0  0  0  0  0
   60.5686   28.0899   49.1869 H   0  0  0  0  0  0  0  0  0  0  0  0
   57.2522   27.7935   46.5269 H   0  0  0  0  0  0  0  0  0  0  0  0
  1  2  1  0
  2  3  1  0
  3  4  1  0
  4  5  1  0
  5  6  1  0
  6  7  1  0
  7  8  1  0
  8  9  2  0
  9 10  1  0
 10 11  1  0
 11 12  2  0
 12 13  1  0
 13 14  2  0
 14 15  1  0
 15 16  2  0
  9 17  1  0
 17 18  2  0
 18 19  1  0
 19 20  2  0
 20 21  1  0
 21 22  2  0
 22 23  1  0
 23 24  2  0
  3 25  1  0
 25 26  1  0
 26 27  2  0
 27 28  1  0
 28 29  2  0
 29 30  1  0
 30 31  2  0
 23  7  1  0
 31 26  1  0
 16 11  1  0
 22 17  1  0
  1 32  1  0
  1 33  1  0
  1 34  1  0
  2 35  1  0
  2 36  1  0
  4 37  1  0
  4 38  1  0
  5 39  1  0
  5 40  1  0
  6 41  1  0
  6 42  1  0
 10 43  1  0
 10 44  1  0
 12 45  1  0
 13 46  1  0
 14 47  1  0
 15 48  1  0
 16 49  1  0
 18 50  1  0
 19 51  1  0
 20 52  1  0
 21 53  1  0
 25 54  1  0
 25 55  1  0
 27 56  1  0
 28 57  1  0
 29 58  1  0
 31 59  1  0
M  CHG  1  14   1
M  END
>  <UniqueID>  (4) 
4

>  <SMILES>  (4) 
CCN(CCCn1nc(Cc2cc[nH+]cc2)c2ccccc2c1=O)Cc1cccnc1

>  <Energy>  (4) 
66.25015855004274

>  <Genealogy>  (4) 
CCN(CCCn1nc(Cc2cc[nH+]cc2)c2ccccc2c1=O)Cc1cccnc1 (protonated)
CCN(CCCn1nc(Cc2cc[nH+]cc2)c2ccccc2c1=O)Cc1cccnc1 (3D coordinates assigned)
CCN(CCCn1nc(Cc2cc[nH+]cc2)c2ccccc2c1=O)Cc1cccnc1 (optimized conformer: 66.25015855004274 kcal/mol)

>  <smiles>  (4) 
CCN(CCCn1nc(Cc2ccncc2)c2ccccc2c1=O)Cc1cccnc1

>  <score_type>  (4) 
oracle

>  <origin>  (4) 
adg

>  <m_score__min__energy>  (4) 
-7.4199999999999999

>  <m_primary>  (4) 
energy

$$$$
4:0
     RDKit          3D

 44 45  0  0  0  0  0  0  0  0999 V2000
   56.3435   30.9864   45.7722 H   0  0  0  0  0  0  0  0  0  0  0  0
   56.8500   30.6130   44.8700 C   0  0  0  0  0  0  0  0  0  0  0  0
   56.4580   29.3030   44.3260 C   0  0  0  0  0  0  0  0  0  0  0  0
   56.4560   29.0940   43.0820 O   0  0  0  0  0  0  0  0  0  0  0  0
   56.0840   28.2590   45.2310 N   0  0  0  0  0  0  0  0  0  0  0  0
   57.0210   27.5890   46.1250 C   0  0  0  0  0  0  0  0  0  0  0  0
   56.4597   26.9708   46.8411 H   0  0  0  0  0  0  0  0  0  0  0  0
   57.6084   28.3491   46.6610 H   0  0  0  0  0  0  0  0  0  0  0  0
   57.9790   26.6920   45.3230 C   0  0  0  0  0  0  0  0  0  0  0  0
   58.0225   25.7037   45.8039 H   0  0  0  0  0  0  0  0  0  0  0  0
   58.9645   27.1806   45.3128 H   0  0  0  0  0  0  0  0  0  0  0  0
   57.5480   26.5170   43.9140 N   0  0  0  0  0  0  0  0  0  0  0  0
   56.6460   27.0260   43.7610 H   0  0  0  0  0  0  0  0  0  0  0  0
   58.5530   27.1030   43.0090 C   0  0  0  0  0  0  0  0  0  0  0  0
   59.3531   27.5695   43.6024 H   0  0  0  0  0  0  0  0  0  0  0  0
   58.9804   26.3125   42.3746 H   0  0  0  0  0  0  0  0  0  0  0  0
   58.0756   27.8643   42.3746 H   0  0  0  0  0  0  0  0  0  0  0  0
   57.3510   25.0950   43.5780 C   0  0  0  0  0  0  0  0  0  0  0  0
   57.2696   24.5073   44.5042 H   0  0  0  0  0  0  0  0  0  0  0  0
   56.4286   24.9817   42.9895 H   0  0  0  0  0  0  0  0  0  0  0  0
   58.2079   24.7352   42.9895 H   0  0  0  0  0  0  0  0  0  0  0  0
   57.8030   31.3670   44.3040 C   0  0  0  0  0  0  0  0  0  0  0  0
   58.1042   31.1452   43.2695 H   0  0  0  0  0  0  0  0  0  0  0  0
   58.4700   32.4890   45.0130 C   0  0  0  0  0  0  0  0  0  0  0  0
   58.3340   33.8090   44.5350 C   0  0  0  0  0  0  0  0  0  0  0  0
   57.6842   34.0105   43.6706 H   0  0  0  0  0  0  0  0  0  0  0  0
   59.0150   34.8620   45.1470 C   0  0  0  0  0  0  0  0  0  0  0  0
   58.8920   35.8877   44.7692 H   0  0  0  0  0  0  0  0  0  0  0  0
   59.8510   34.6180   46.2360 C   0  0  0  0  0  0  0  0  0  0  0  0
   60.3885   35.4503   46.7138 H   0  0  0  0  0  0  0  0  0  0  0  0
   60.0060   33.3180   46.7200 C   0  0  0  0  0  0  0  0  0  0  0  0
   60.6712   33.1314   47.5760 H   0  0  0  0  0  0  0  0  0  0  0  0
   59.3200   32.2440   46.1240 C   0  0  0  0  0  0  0  0  0  0  0  0
   59.4860   30.8900   46.7050 C   0  0  0  0  0  0  0  0  0  0  0  0
   60.1970   29.9010   46.0040 C   0  0  0  0  0  0  0  0  0  0  0  0
   60.6240   30.1299   45.0164 H   0  0  0  0  0  0  0  0  0  0  0  0
   60.3640   28.6280   46.5560 C   0  0  0  0  0  0  0  0  0  0  0  0
   60.9164   27.8566   45.9994 H   0  0  0  0  0  0  0  0  0  0  0  0
   59.8310   28.3330   47.8130 C   0  0  0  0  0  0  0  0  0  0  0  0
   59.9602   27.3292   48.2440 H   0  0  0  0  0  0  0  0  0  0  0  0
   59.1330   29.3150   48.5230 C   0  0  0  0  0  0  0  0  0  0  0  0
   58.7160   29.0834   49.5142 H   0  0  0  0  0  0  0  0  0  0  0  0
   58.9640   30.5900   47.9760 C   0  0  0  0  0  0  0  0  0  0  0  0
   58.4209   31.3615   48.5415 H   0  0  0  0  0  0  0  0  0  0  0  0
  1  2  1  0
  2  3  1  0
  3  4  2  0
  3  5  1  0
  5  6  1  0
  6  7  1  0
  6  8  1  0
  6  9  1  0
  9 10  1  0
  9 11  1  0
  9 12  1  0
 12 13  1  0
 12 14  1  0
 14 15  1  0
 14 16  1  0
 14 17  1  0
 12 18  1  0
 18 19  1  0
 18 20  1  0
 18 21  1  0
  2 22  2  0
 22 23  1  0
 22 24  1  0
 24 25  2  0
 25 26  1  0
 25 27  1  0
 27 28  1  0
 27 29  2  0
 29 30  1  0
 29 31  1  0
 31 32  1  0
 31 33  2  0
 33 34  1  0
 34 35  2  0
 35 36  1  0
 35 37  1  0
 37 38  1  0
 37 39  2  0
 39 40  1  0
 39 41  1  0
 41 42  1  0
 41 43  2  0
 43 44  1  0
 33 24  1  0
 43 34  1  0
M  CHG  2   5  -1  12   1
M  END
>  <UniqueID>  (5) 
5

>  <SMILES>  (5) 
C[NH+](C)CC[N-]C(=O)/C=C/c1ccccc1-c1ccccc1

>  <Energy>  (5) 
50.873636129709844

>  <Genealogy>  (5) 
C[NH+](C)CC[N-]C(=O)C=Cc1ccccc1-c1ccccc1 (protonated)
C[NH+](C)CC[N-]C(=O)/C=C/c1ccccc1-c1ccccc1 (cis-trans isomerization)
C[NH+](C)CC[N-]C(=O)/C=C/c1ccccc1-c1ccccc1 (3D coordinates assigned)
C[NH+](C)CC[N-]C(=O)/C=C/c1ccccc1-c1ccccc1 (optimized conformer: 50.873636129709844 kcal/mol)

>  <smiles>  (5) 
CN(C)CCNC(=O)C=Cc1ccccc1-c1ccccc1

>  <score_type>  (5) 
oracle

>  <origin>  (5) 
adg

>  <m_score__min__energy>  (5) 
-7.5800000000000001

>  <m_primary>  (5) 
energy

$$$$
5:0
     RDKit          3D

 34 36  0  0  0  0  0  0  0  0999 V2000
   54.6140   25.4140   45.6340 C   0  0  0  0  0  0  0  0  0  0  0  0
   55.3300   26.5930   45.9820 O   0  0  0  0  0  0  0  0  0  0  0  0
   56.7280   26.7220   45.9380 C   0  0  0  0  0  0  0  0  0  0  0  0
   57.5780   25.6390   46.2850 C   0  0  0  0  0  0  0  0  0  0  0  0
   58.9710   25.7710   46.2230 C   0  0  0  0  0  0  0  0  0  0  0  0
   59.4800   26.9940   45.8110 C   0  0  0  0  0  0  0  0  0  0  0  0
   60.7730   27.3310   45.6920 N   0  0  0  0  0  0  0  0  0  0  0  0
   60.7100   28.6170   45.2780 C   0  0  0  0  0  0  0  0  0  0  0  0
   59.4330   29.0480   45.1510 N   0  0  0  0  0  0  0  0  0  0  0  0
   58.6770   28.0140   45.4860 N   0  0  0  0  0  0  0  0  0  0  0  0
   57.3130   27.9520   45.5300 C   0  0  0  0  0  0  0  0  0  0  0  0
   56.4880   29.1350   45.1600 C   0  0  0  0  0  0  0  0  0  0  0  0
   55.2820   28.9800   44.8260 O   0  0  0  0  0  0  0  0  0  0  0  0
   57.0490   30.4530   45.1710 N   0  0  0  0  0  0  0  0  0  0  0  0
   57.8140   31.0000   46.2850 C   0  0  0  0  0  0  0  0  0  0  0  0
   58.2880   32.3900   45.9580 C   0  0  0  0  0  0  0  0  0  0  0  0
   57.5030   33.2560   45.1820 C   0  0  0  0  0  0  0  0  0  0  0  0
   57.9730   34.5330   44.8700 C   0  0  0  0  0  0  0  0  0  0  0  0
   59.2280   34.9320   45.3340 C   0  0  0  0  0  0  0  0  0  0  0  0
   59.9810   34.0800   46.0790 N   0  0  0  0  0  0  0  0  0  0  0  0
   59.5460   32.8310   46.3960 C   0  0  0  0  0  0  0  0  0  0  0  0
   54.2978   24.8933   46.5499 H   0  0  0  0  0  0  0  0  0  0  0  0
   53.7276   25.6847   45.0415 H   0  0  0  0  0  0  0  0  0  0  0  0
   55.2630   24.7523   45.0415 H   0  0  0  0  0  0  0  0  0  0  0  0
   57.1369   24.6840   46.6067 H   0  0  0  0  0  0  0  0  0  0  0  0
   59.6361   24.9367   46.4908 H   0  0  0  0  0  0  0  0  0  0  0  0
   61.6210   26.7500   45.8760 H   0  0  0  0  0  0  0  0  0  0  0  0
   61.5925   29.2395   45.0691 H   0  0  0  0  0  0  0  0  0  0  0  0
   57.1766   31.0350   47.1808 H   0  0  0  0  0  0  0  0  0  0  0  0
   58.6875   30.3575   46.4699 H   0  0  0  0  0  0  0  0  0  0  0  0
   56.5173   32.9288   44.8195 H   0  0  0  0  0  0  0  0  0  0  0  0
   57.3609   35.2179   44.2648 H   0  0  0  0  0  0  0  0  0  0  0  0
   59.6077   35.9367   45.0965 H   0  0  0  0  0  0  0  0  0  0  0  0
   60.1820   32.1648   46.9973 H   0  0  0  0  0  0  0  0  0  0  0  0
  1  2  1  0
  2  3  1  0
  3  4  1  0
  4  5  2  0
  5  6  1  0
  6  7  2  0
  7  8  1  0
  8  9  2  0
  9 10  1  0
 10 11  1  0
 11 12  1  0
 12 13  2  0
 12 14  1  0
 14 15  1  0
 15 16  1  0
 16 17  2  0
 17 18  1  0
 18 19  2  0
 19 20  1  0
 20 21  2  0
 11  3  2  0
 21 16  1  0
 10  6  1  0
  1 22  1  0
  1 23  1  0
  1 24  1  0
  4 25  1  0
  5 26  1  0
  7 27  1  0
  8 28  1  0
 15 29  1  0
 15 30  1  0
 17 31  1  0
 18 32  1  0
 19 33  1  0
 21 34  1  0
M  CHG  2   7   1  14  -1
M  END
>  <UniqueID>  (6) 
6

>  <SMILES>  (6) 
COc1ccc2[nH+]cnn2c1C(=O)[N-]Cc1cccnc1

>  <Energy>  (6) 
77.64110258932459

>  <Genealogy>  (6) 
COc1ccc2[nH+]cnn2c1C(=O)[N-]Cc1cccnc1 (protonated)
COc1ccc2[nH+]cnn2c1C(=O)[N-]Cc1cccnc1 (3D coordinates assigned)
COc1ccc2[nH+]cnn2c1C(=O)[N-]Cc1cccnc1 (optimized conformer: 77.64110258932459 kcal/mol)

>  <smiles>  (6) 
COc1ccc2ncnn2c1C(=O)NCc1cccnc1

>  <score_type>  (6) 
oracle

>  <origin>  (6) 
adg

>  <m_score__min__energy>  (6) 
-7.54

>  <m_primary>  (6) 
energy

$$$$
6:0
     RDKit          3D

 78 81  0  0  0  0  0  0  0  0999 V2000
   57.3880   33.5090   45.3420 C   0  0  0  0  0  0  0  0  0  0  0  0
   58.4110   32.3790   45.3090 C   0  0  0  0  0  0  0  0  0  0  0  0
   57.7630   31.1000   45.0100 N   0  0  0  0  0  0  0  0  0  0  0  0
   58.1190   29.8380   45.6110 C   0  0  0  0  0  0  0  0  0  0  0  0
   59.0130   29.8270   46.6900 C   0  0  0  0  0  0  0  0  0  0  0  0
   59.3900   28.6210   47.3060 C   0  0  0  0  0  0  0  0  0  0  0  0
   60.3680   28.6020   48.4210 C   0  0  0  0  0  0  0  0  0  0  0  0
   60.9540   27.5230   48.7080 O   0  0  0  0  0  0  0  0  0  0  0  0
   60.6780   29.8020   49.1510 N   0  0  0  0  0  0  0  0  0  0  0  0
   61.6140   29.8370   50.2850 C   0  0  1  0  0  0  0  0  0  0  0  0
   62.0390   31.2890   50.6120 C   0  0  0  0  0  0  0  0  0  0  0  0
   62.6160   32.0530   49.4460 C   0  0  0  0  0  0  0  0  0  0  0  0
   62.9210   33.4210   49.5730 C   0  0  0  0  0  0  0  0  0  0  0  0
   63.4310   34.1330   48.4820 C   0  0  0  0  0  0  0  0  0  0  0  0
   63.6510   33.4870   47.2640 C   0  0  0  0  0  0  0  0  0  0  0  0
   63.3660   32.1240   47.1340 C   0  0  0  0  0  0  0  0  0  0  0  0
   62.8550   31.4070   48.2210 C   0  0  0  0  0  0  0  0  0  0  0  0
   61.0700   29.0390   51.5100 C   0  0  2  0  0  0  0  0  0  0  0  0
   60.5440   27.8040   51.0840 O   0  0  0  0  0  0  0  0  0  0  0  0
   60.0120   29.7880   52.3550 C   0  0  0  0  0  0  0  0  0  0  0  0
   58.6710   29.5350   51.8150 N   0  0  0  0  0  0  0  0  0  0  0  0
   57.8790   30.7690   51.8000 C   0  0  0  0  0  0  0  0  0  0  0  0
   58.5430   31.7830   50.9090 C   0  0  0  0  0  0  0  0  0  0  0  0
   58.4100   31.6930   49.5150 C   0  0  0  0  0  0  0  0  0  0  0  0
   58.9630   32.6750   48.6870 C   0  0  0  0  0  0  0  0  0  0  0  0
   59.6480   33.7730   49.2470 C   0  0  0  0  0  0  0  0  0  0  0  0
   60.2110   34.7900   48.4600 O   0  0  0  0  0  0  0  0  0  0  0  0
   59.9530   34.9640   47.0700 C   0  0  0  0  0  0  0  0  0  0  0  0
   59.7720   33.8620   50.6390 C   0  0  0  0  0  0  0  0  0  0  0  0
   59.2210   32.8780   51.4670 C   0  0  0  0  0  0  0  0  0  0  0  0
   58.8260   27.4180   46.8500 C   0  0  0  0  0  0  0  0  0  0  0  0
   57.9250   27.4100   45.7770 C   0  0  0  0  0  0  0  0  0  0  0  0
   57.3610   26.1710   45.3130 N   0  0  0  0  0  0  0  0  0  0  0  0
   57.8390   25.4360   44.1470 C   0  0  0  0  0  0  0  0  0  0  0  0
   56.7530   24.4140   43.7380 C   0  0  0  0  0  0  0  0  0  0  0  0
   55.9100   24.0200   44.9580 C   0  0  0  0  0  0  0  0  0  0  0  0
   56.0250   25.3950   46.0530 S   0  0  0  0  0  0  0  0  0  0  0  0
   56.3290   24.9520   47.4580 O   0  0  0  0  0  0  0  0  0  0  0  0
   54.7920   26.2530   45.9980 O   0  0  0  0  0  0  0  0  0  0  0  0
   57.5780   28.6210   45.1600 C   0  0  0  0  0  0  0  0  0  0  0  0
   57.1570   33.7641   46.3868 H   0  0  0  0  0  0  0  0  0  0  0  0
   57.8003   34.3919   44.8315 H   0  0  0  0  0  0  0  0  0  0  0  0
   56.4686   33.1863   44.8315 H   0  0  0  0  0  0  0  0  0  0  0  0
   59.1607   32.5936   44.5332 H   0  0  0  0  0  0  0  0  0  0  0  0
   58.8912   32.3089   46.2962 H   0  0  0  0  0  0  0  0  0  0  0  0
   56.9730   31.1200   44.3260 H   0  0  0  0  0  0  0  0  0  0  0  0
   59.4261   30.7767   47.0607 H   0  0  0  0  0  0  0  0  0  0  0  0
   60.2960   30.7080   48.8030 H   0  0  0  0  0  0  0  0  0  0  0  0
   62.5365   29.3142   49.9922 H   0  0  0  0  0  0  0  0  0  0  0  0
   61.1535   31.8323   50.9736 H   0  0  0  0  0  0  0  0  0  0  0  0
   62.8387   31.2176   51.3639 H   0  0  0  0  0  0  0  0  0  0  0  0
   62.7579   33.9322   50.5333 H   0  0  0  0  0  0  0  0  0  0  0  0
   63.6592   35.2042   48.5841 H   0  0  0  0  0  0  0  0  0  0  0  0
   64.0485   34.0500   46.4067 H   0  0  0  0  0  0  0  0  0  0  0  0
   63.5440   31.6149   46.1753 H   0  0  0  0  0  0  0  0  0  0  0  0
   62.6394   30.3334   48.1165 H   0  0  0  0  0  0  0  0  0  0  0  0
   61.9362   28.8939   52.1723 H   0  0  0  0  0  0  0  0  0  0  0  0
   59.7510   27.9980   50.5200 H   0  0  0  0  0  0  0  0  0  0  0  0
   60.0590   29.4341   53.3954 H   0  0  0  0  0  0  0  0  0  0  0  0
   60.2188   30.8678   52.3199 H   0  0  0  0  0  0  0  0  0  0  0  0
   58.7830   29.2110   50.8250 H   0  0  0  0  0  0  0  0  0  0  0  0
   56.8700   30.5520   51.4194 H   0  0  0  0  0  0  0  0  0  0  0  0
   57.8083   31.1705   52.8216 H   0  0  0  0  0  0  0  0  0  0  0  0
   57.8677   30.8452   49.0710 H   0  0  0  0  0  0  0  0  0  0  0  0
   58.8633   32.5906   47.5948 H   0  0  0  0  0  0  0  0  0  0  0  0
   59.0475   35.5747   46.9388 H   0  0  0  0  0  0  0  0  0  0  0  0
   60.8083   35.4705   46.5989 H   0  0  0  0  0  0  0  0  0  0  0  0
   59.8039   33.9812   46.5989 H   0  0  0  0  0  0  0  0  0  0  0  0
   60.3073   34.7130   51.0854 H   0  0  0  0  0  0  0  0  0  0  0  0
   59.3195   32.9628   52.5593 H   0  0  0  0  0  0  0  0  0  0  0  0
   59.0949   26.4711   47.3411 H   0  0  0  0  0  0  0  0  0  0  0  0
   58.0239   26.1342   43.3174 H   0  0  0  0  0  0  0  0  0  0  0  0
   58.7781   24.9155   44.3861 H   0  0  0  0  0  0  0  0  0  0  0  0
   56.1002   24.8632   42.9750 H   0  0  0  0  0  0  0  0  0  0  0  0
   57.2405   23.5149   43.3330 H   0  0  0  0  0  0  0  0  0  0  0  0
   54.8642   23.8449   44.6654 H   0  0  0  0  0  0  0  0  0  0  0  0
   56.2661   23.0893   45.4238 H   0  0  0  0  0  0  0  0  0  0  0  0
   56.8749   28.6186   44.3140 H   0  0  0  0  0  0  0  0  0  0  0  0
  1  2  1  0
  2  3  1  0
  3  4  1  0
  4  5  2  0
  5  6  1  0
  6  7  1  0
  7  8  2  0
  7  9  1  0
  9 10  1  0
 10 11  1  0
 11 12  1  0
 12 13  2  0
 13 14  1  0
 14 15  2  0
 15 16  1  0
 16 17  2  0
 10 18  1  0
 18 19  1  0
 18 20  1  0
 20 21  1  0
 21 22  1  0
 22 23  1  0
 23 24  2  0
 24 25  1  0
 25 26  2  0
 26 27  1  0
 27 28  1  0
 26 29  1  0
 29 30  2  0
  6 31  2  0
 31 32  1  0
 32 33  1  0
 33 34  1  0
 34 35  1  0
 35 36  1  0
 36 37  1  0
 37 38  2  0
 37 39  2  0
 32 40  2  0
 40  4  1  0
 17 12  1  0
 30 23  1  0
 37 33  1  0
  1 41  1  0
  1 42  1  0
  1 43  1  0
  2 44  1  0
  2 45  1  0
  3 46  1  0
  5 47  1  0
  9 48  1  0
 10 49  1  6
 11 50  1  0
 11 51  1  0
 13 52  1  0
 14 53  1  0
 15 54  1  0
 16 55  1  0
 17 56  1  0
 18 57  1  1
 19 58  1  0
 20 59  1  0
 20 60  1  0
 21 61  1  0
 22 62  1  0
 22 63  1  0
 24 64  1  0
 25 65  1  0
 28 66  1  0
 28 67  1  0
 28 68  1  0
 29 69  1  0
 30 70  1  0
 31 71  1  0
 34 72  1  0
 34 73  1  0
 35 74  1  0
 35 75  1  0
 36 76  1  0
 36 77  1  0
 40 78  1  0
M  END
>  <UniqueID>  (7) 
7

>  <SMILES>  (7) 
CCNc1cc(C(=O)N[C@@H](Cc2ccccc2)[C@H](O)CNCc2ccc(OC)cc2)cc(N2CCCS2(=O)=O)c1

>  <Energy>  (7) 
85.90739985309591

>  <Genealogy>  (7) 
CCNc1cc(C(=O)N[C@@H](Cc2ccccc2)[C@H](O)CNCc2ccc(OC)cc2)cc(N2CCCS2(=O)=O)c1 (chirality)
CCNc1cc(C(=O)N[C@@H](Cc2ccccc2)[C@H](O)CNCc2ccc(OC)cc2)cc(N2CCCS2(=O)=O)c1 (3D coordinates assigned)
CCNc1cc(C(=O)N[C@@H](Cc2ccccc2)[C@H](O)CNCc2ccc(OC)cc2)cc(N2CCCS2(=O)=O)c1 (nonaromatic ring conformer: 85.90739985309591 kcal/mol)

>  <smiles>  (7) 
CCNc1cc(C(=O)NC(Cc2ccccc2)C(O)CNCc2ccc(OC)cc2)cc(N2CCCS2(=O)=O)c1

>  <score_type>  (7) 
oracle

>  <origin>  (7) 
adg

>  <m_score__min__energy>  (7) 
-9.5399999999999991

>  <m_primary>  (7) 
energy

$$$$
7:0
     RDKit          3D

 39 41  0  0  0  0  0  0  0  0999 V2000
   63.6010   32.7490   51.0620 C   0  0  0  0  0  0  0  0  0  0  0  0
   63.0070   33.5030   49.9420 N   0  0  1  0  0  0  0  0  0  0  0  0
   63.9390   33.4820   48.7890 C   0  0  0  0  0  0  0  0  0  0  0  0
   63.4250   32.6160   47.6270 C   0  0  0  0  0  0  0  0  0  0  0  0
   62.4460   33.3630   46.7130 C   0  0  0  0  0  0  0  0  0  0  0  0
   61.0970   33.5230   47.2770 N   0  0  0  0  0  0  0  0  0  0  0  0
   59.9960   33.5960   46.3550 C   0  0  0  0  0  0  0  0  0  0  0  0
   59.6680   34.8360   45.7900 C   0  0  0  0  0  0  0  0  0  0  0  0
   58.6140   34.9480   44.8840 C   0  0  0  0  0  0  0  0  0  0  0  0
   57.8690   33.8240   44.5300 C   0  0  0  0  0  0  0  0  0  0  0  0
   58.1720   32.5720   45.0850 C   0  0  0  0  0  0  0  0  0  0  0  0
   57.4170   31.4420   44.7320 C   0  0  0  0  0  0  0  0  0  0  0  0
   57.7120   30.1970   45.2900 C   0  0  0  0  0  0  0  0  0  0  0  0
   56.9780   29.1100   44.9470 F   0  0  0  0  0  0  0  0  0  0  0  0
   58.7590   30.0690   46.2040 C   0  0  0  0  0  0  0  0  0  0  0  0
   59.5210   31.1830   46.5640 C   0  0  0  0  0  0  0  0  0  0  0  0
   59.2430   32.4480   46.0090 C   0  0  0  0  0  0  0  0  0  0  0  0
   60.8510   33.8280   48.6930 C   0  0  0  0  0  0  0  0  0  0  0  0
   61.6860   32.9220   49.6090 C   0  0  0  0  0  0  0  0  0  0  0  0
   63.2613   33.1801   52.0153 H   0  0  0  0  0  0  0  0  0  0  0  0
   63.2868   31.6965   51.0030 H   0  0  0  0  0  0  0  0  0  0  0  0
   64.6978   32.8081   51.0030 H   0  0  0  0  0  0  0  0  0  0  0  0
   62.8790   34.4890   50.2730 H   0  0  0  0  0  0  0  0  0  0  0  0
   64.0747   34.5119   48.4272 H   0  0  0  0  0  0  0  0  0  0  0  0
   64.8870   33.0447   49.1356 H   0  0  0  0  0  0  0  0  0  0  0  0
   64.2860   32.2885   47.0258 H   0  0  0  0  0  0  0  0  0  0  0  0
   62.8834   31.7645   48.0647 H   0  0  0  0  0  0  0  0  0  0  0  0
   62.8567   34.3634   46.5119 H   0  0  0  0  0  0  0  0  0  0  0  0
   62.3378   32.7557   45.8022 H   0  0  0  0  0  0  0  0  0  0  0  0
   60.2478   35.7297   46.0640 H   0  0  0  0  0  0  0  0  0  0  0  0
   58.3693   35.9273   44.4468 H   0  0  0  0  0  0  0  0  0  0  0  0
   57.0405   33.9194   43.8128 H   0  0  0  0  0  0  0  0  0  0  0  0
   56.5900   31.5382   44.0131 H   0  0  0  0  0  0  0  0  0  0  0  0
   58.9852   29.0861   46.6430 H   0  0  0  0  0  0  0  0  0  0  0  0
   60.3437   31.0720   47.2857 H   0  0  0  0  0  0  0  0  0  0  0  0
   61.1184   34.8774   48.8858 H   0  0  0  0  0  0  0  0  0  0  0  0
   59.7862   33.6536   48.9071 H   0  0  0  0  0  0  0  0  0  0  0  0
   61.1289   32.7575   50.5431 H   0  0  0  0  0  0  0  0  0  0  0  0
   61.8651   31.9804   49.0693 H   0  0  0  0  0  0  0  0  0  0  0  0
  1  2  1  0
  2  3  1  0
  3  4  1  0
  4  5  1  0
  5  6  1  0
  6  7  1  0
  7  8  2  0
  8  9  1  0
  9 10  2  0
 10 11  1  0
 11 12  2  0
 12 13  1  0
 13 14  1  0
 13 15  2  0
 15 16  1  0
 16 17  2  0
  6 18  1  0
 18 19  1  0
 19  2  1  0
 17  7  1  0
 17 11  1  0
  1 20  1  0
  1 21  1  0
  1 22  1  0
  2 23  1  1
  3 24  1  0
  3 25  1  0
  4 26  1  0
  4 27  1  0
  5 28  1  0
  5 29  1  0
  8 30  1  0
  9 31  1  0
 10 32  1  0
 12 33  1  0
 15 34  1  0
 16 35  1  0
 18 36  1  0
 18 37  1  0
 19 38  1  0
 19 39  1  0
M  CHG  1   2   1
M  END
>  <UniqueID>  (8) 
8

>  <SMILES>  (8) 
C[N@H+]1CCCN(c2cccc3cc(F)ccc23)CC1

>  <Energy>  (8) 
53.67247363690724

>  <Genealogy>  (8) 
C[NH+]1CCCN(c2cccc3cc(F)ccc23)CC1 (protonated)
C[N@H+]1CCCN(c2cccc3cc(F)ccc23)CC1 (chirality)
C[N@H+]1CCCN(c2cccc3cc(F)ccc23)CC1 (3D coordinates assigned)
C[N@H+]1CCCN(c2cccc3cc(F)ccc23)CC1 (nonaromatic ring conformer: 53.67247363690724 kcal/mol)

>  <smiles>  (8) 
CN1CCCN(c2cccc3cc(F)ccc23)CC1

>  <score_type>  (8) 
oracle

>  <origin>  (8) 
adg

>  <m_score__min__energy>  (8) 
-3.5499999999999998

>  <m_primary>  (8) 
energy

$$$$
8:0
     RDKit          3D

 36 36  0  0  0  0  0  0  0  0999 V2000
   63.1510   33.4300   47.1530 C   0  0  0  0  0  0  0  0  0  0  0  0
   61.9110   33.8570   46.3580 C   0  0  0  0  0  0  0  0  0  0  0  0
   60.6280   33.5680   47.0350 N   0  0  0  0  0  0  0  0  0  0  0  0
   60.4770   34.2640   48.3280 C   0  0  0  0  0  0  0  0  0  0  0  0
   59.6540   33.4230   49.3010 C   0  0  0  0  0  0  0  0  0  0  0  0
   59.2320   33.7340   45.9780 S   0  0  0  0  0  0  0  0  0  0  0  0
   58.2860   34.7560   46.5460 O   0  0  0  0  0  0  0  0  0  0  0  0
   59.6950   34.2450   44.6430 O   0  0  0  0  0  0  0  0  0  0  0  0
   58.3440   32.2240   45.7110 C   0  0  0  0  0  0  0  0  0  0  0  0
   58.6030   31.1040   46.5140 C   0  0  0  0  0  0  0  0  0  0  0  0
   57.9230   29.9020   46.2950 C   0  0  0  0  0  0  0  0  0  0  0  0
   56.9940   29.7940   45.2450 C   0  0  0  0  0  0  0  0  0  0  0  0
   56.2800   28.5800   44.9760 N   0  0  0  0  0  0  0  0  0  0  0  0
   56.5840   27.0390   45.7110 S   0  0  0  0  0  0  0  0  0  0  0  0
   57.6020   26.0440   44.6440 C   0  0  0  0  0  0  0  0  0  0  0  0
   57.3130   27.2580   47.0070 O   0  0  0  0  0  0  0  0  0  0  0  0
   55.2860   26.3400   46.0000 O   0  0  0  0  0  0  0  0  0  0  0  0
   56.7650   30.9020   44.4220 C   0  0  0  0  0  0  0  0  0  0  0  0
   57.4370   32.1070   44.6480 C   0  0  0  0  0  0  0  0  0  0  0  0
   62.9391   33.5030   48.2299 H   0  0  0  0  0  0  0  0  0  0  0  0
   63.4092   32.3912   46.8996 H   0  0  0  0  0  0  0  0  0  0  0  0
   63.9941   34.0896   46.8996 H   0  0  0  0  0  0  0  0  0  0  0  0
   61.9711   34.9410   46.1808 H   0  0  0  0  0  0  0  0  0  0  0  0
   61.9158   33.2722   45.4264 H   0  0  0  0  0  0  0  0  0  0  0  0
   61.4727   34.4443   48.7594 H   0  0  0  0  0  0  0  0  0  0  0  0
   59.9565   35.2179   48.1574 H   0  0  0  0  0  0  0  0  0  0  0  0
   59.9186   33.6934   50.3339 H   0  0  0  0  0  0  0  0  0  0  0  0
   58.5833   33.6130   49.1350 H   0  0  0  0  0  0  0  0  0  0  0  0
   59.8672   32.3567   49.1350 H   0  0  0  0  0  0  0  0  0  0  0  0
   59.3464   31.1715   47.3220 H   0  0  0  0  0  0  0  0  0  0  0  0
   58.1156   29.0372   46.9469 H   0  0  0  0  0  0  0  0  0  0  0  0
   58.2566   25.4041   45.2539 H   0  0  0  0  0  0  0  0  0  0  0  0
   56.9616   25.4140   44.0092 H   0  0  0  0  0  0  0  0  0  0  0  0
   58.2172   26.6986   44.0092 H   0  0  0  0  0  0  0  0  0  0  0  0
   56.0499   30.8244   43.5898 H   0  0  0  0  0  0  0  0  0  0  0  0
   57.2532   32.9679   43.9884 H   0  0  0  0  0  0  0  0  0  0  0  0
  1  2  1  0
  2  3  1  0
  3  4  1  0
  4  5  1  0
  3  6  1  0
  6  7  2  0
  6  8  2  0
  6  9  1  0
  9 10  2  0
 10 11  1  0
 11 12  2  0
 12 13  1  0
 13 14  1  0
 14 15  1  0
 14 16  2  0
 14 17  2  0
 12 18  1  0
 18 19  2  0
 19  9  1  0
  1 20  1  0
  1 21  1  0
  1 22  1  0
  2 23  1  0
  2 24  1  0
  4 25  1  0
  4 26  1  0
  5 27  1  0
  5 28  1  0
  5 29  1  0
 10 30  1  0
 11 31  1  0
 15 32  1  0
 15 33  1  0
 15 34  1  0
 18 35  1  0
 19 36  1  0
M  CHG  1  13  -1
M  END
>  <UniqueID>  (9) 
9

>  <SMILES>  (9) 
CCN(CC)S(=O)(=O)c1ccc([N-]S(C)(=O)=O)cc1

>  <Energy>  (9) 
33.632871184570604

>  <Genealogy>  (9) 
CCN(CC)S(=O)(=O)c1ccc([N-]S(C)(=O)=O)cc1 (protonated)
CCN(CC)S(=O)(=O)c1ccc([N-]S(C)(=O)=O)cc1 (3D coordinates assigned)
CCN(CC)S(=O)(=O)c1ccc([N-]S(C)(=O)=O)cc1 (optimized conformer: 33.632871184570604 kcal/mol)

>  <smiles>  (9) 
CCN(CC)S(=O)(=O)c1ccc(NS(C)(=O)=O)cc1

>  <score_type>  (9) 
oracle

>  <origin>  (9) 
adg

>  <m_score__min__energy>  (9) 
-8.5500000000000007

>  <m_primary>  (9) 
energy

$$$$
9:0
     RDKit          3D

 42 44  0  0  0  0  0  0  0  0999 V2000
   61.5300   28.7250   51.3190 C   0  0  0  0  0  0  0  0  0  0  0  0
   61.4780   29.5550   50.1640 O   0  0  0  0  0  0  0  0  0  0  0  0
   60.6450   29.3260   49.0590 C   0  0  0  0  0  0  0  0  0  0  0  0
   60.4260   28.0070   48.6570 C   0  0  0  0  0  0  0  0  0  0  0  0
   59.5990   27.7240   47.5700 C   0  0  0  0  0  0  0  0  0  0  0  0
   58.9670   28.7570   46.8620 C   0  0  0  0  0  0  0  0  0  0  0  0
   57.8630   28.3250   45.5440 S   0  0  0  0  0  0  0  0  0  0  0  0
   58.5410   28.6270   44.2380 O   0  0  0  0  0  0  0  0  0  0  0  0
   56.5790   29.1050   45.6120 O   0  0  0  0  0  0  0  0  0  0  0  0
   57.4910   26.6310   45.5880 N   0  0  0  0  0  0  0  0  0  0  0  0
   56.3160   26.0690   45.6080 C   0  0  0  0  0  0  0  0  0  0  0  0
   55.2440   26.7140   46.0010 O   0  0  0  0  0  0  0  0  0  0  0  0
   54.1870   25.9590   45.9360 N   0  0  0  0  0  0  0  0  0  0  0  0
   54.5880   24.7600   45.4730 C   0  0  0  0  0  0  0  0  0  0  0  0
   53.6720   23.5990   45.2650 C   0  0  0  0  0  0  0  0  0  0  0  0
   55.9520   24.7740   45.2490 C   0  0  0  0  0  0  0  0  0  0  0  0
   56.8960   23.4110   44.6640 Cl  0  0  0  0  0  0  0  0  0  0  0  0
   59.2060   30.1000   47.2430 C   0  0  0  0  0  0  0  0  0  0  0  0
   58.6120   31.2410   46.5140 C   0  0  0  0  0  0  0  0  0  0  0  0
   58.1450   32.3580   47.2210 C   0  0  0  0  0  0  0  0  0  0  0  0
   57.5780   33.4350   46.5350 C   0  0  0  0  0  0  0  0  0  0  0  0
   57.4840   33.4110   45.1410 C   0  0  0  0  0  0  0  0  0  0  0  0
   56.9170   34.4620   44.4950 F   0  0  0  0  0  0  0  0  0  0  0  0
   57.9730   32.3100   44.4190 C   0  0  0  0  0  0  0  0  0  0  0  0
   57.8520   32.2710   42.9240 C   0  0  0  0  0  0  0  0  0  0  0  0
   58.5310   31.2230   45.1130 C   0  0  0  0  0  0  0  0  0  0  0  0
   60.0310   30.3710   48.3460 C   0  0  0  0  0  0  0  0  0  0  0  0
   61.4908   29.3512   52.2225 H   0  0  0  0  0  0  0  0  0  0  0  0
   60.6733   28.0350   51.3136 H   0  0  0  0  0  0  0  0  0  0  0  0
   62.4661   28.1473   51.3136 H   0  0  0  0  0  0  0  0  0  0  0  0
   60.9100   27.1835   49.2025 H   0  0  0  0  0  0  0  0  0  0  0  0
   59.4406   26.6792   47.2646 H   0  0  0  0  0  0  0  0  0  0  0  0
   53.3576   23.2005   46.2409 H   0  0  0  0  0  0  0  0  0  0  0  0
   52.7867   23.9270   44.7004 H   0  0  0  0  0  0  0  0  0  0  0  0
   54.1969   22.8143   44.7004 H   0  0  0  0  0  0  0  0  0  0  0  0
   58.2251   32.3865   48.3177 H   0  0  0  0  0  0  0  0  0  0  0  0
   57.2041   34.3052   47.0944 H   0  0  0  0  0  0  0  0  0  0  0  0
   56.8389   31.9444   42.6465 H   0  0  0  0  0  0  0  0  0  0  0  0
   58.0387   33.2748   42.5147 H   0  0  0  0  0  0  0  0  0  0  0  0
   58.5897   31.5651   42.5147 H   0  0  0  0  0  0  0  0  0  0  0  0
   58.9066   30.3527   44.5548 H   0  0  0  0  0  0  0  0  0  0  0  0
   60.1991   31.4129   48.6562 H   0  0  0  0  0  0  0  0  0  0  0  0
  1  2  1  0
  2  3  1  0
  3  4  2  0
  4  5  1  0
  5  6  2  0
  6  7  1  0
  7  8  2  0
  7  9  2  0
  7 10  1  0
 10 11  2  3
 11 12  1  0
 12 13  1  0
 13 14  1  0
 14 15  1  0
 14 16  2  0
 16 17  1  0
  6 18  1  0
 18 19  1  0
 19 20  2  0
 20 21  1  0
 21 22  2  0
 22 23  1  0
 22 24  1  0
 24 25  1  0
 24 26  2  0
 18 27  2  0
 27  3  1  0
 16 11  1  0
 26 19  1  0
  1 28  1  0
  1 29  1  0
  1 30  1  0
  4 31  1  0
  5 32  1  0
 15 33  1  0
 15 34  1  0
 15 35  1  0
 20 36  1  0
 21 37  1  0
 25 38  1  0
 25 39  1  0
 25 40  1  0
 26 41  1  0
 27 42  1  0
M  CHG  1  13  -1
M  END
>  <UniqueID>  (10) 
10

>  <SMILES>  (10) 
COc1ccc(S(=O)(=O)N=c2o[n-]c(C)c2Cl)c(-c2ccc(F)c(C)c2)c1

>  <Energy>  (10) 
89.4390647701222

>  <Genealogy>  (10) 
COc1ccc(S(=O)(=O)N=c2o[n-]c(C)c2Cl)c(-c2ccc(F)c(C)c2)c1 (protonated)
COc1ccc(S(=O)(=O)N=c2o[n-]c(C)c2Cl)c(-c2ccc(F)c(C)c2)c1 (3D coordinates assigned)
COc1ccc(S(=O)(=O)N=c2o[n-]c(C)c2Cl)c(-c2ccc(F)c(C)c2)c1 (optimized conformer: 89.4390647701222 kcal/mol)

>  <smiles>  (10) 
COc1ccc(S(=O)(=O)N=c2o[nH]c(C)c2Cl)c(-c2ccc(F)c(C)c2)c1

>  <score_type>  (10) 
oracle

>  <origin>  (10) 
adg

>  <m_score__min__energy>  (10) 
-11.57

>  <m_primary>  (10) 
energy

$$$$
10:0
     RDKit          3D

 73 77  0  0  0  0  0  0  0  0999 V2000
   64.1490   34.7950   53.4450 C   0  0  0  0  0  0  0  0  0  0  0  0
   63.0660   33.8950   52.8310 C   0  0  0  0  0  0  0  0  0  0  0  0
   63.1170   33.8030   51.3540 N   0  0  0  0  0  0  0  0  0  0  0  0
   63.8250   32.6130   50.8600 C   0  0  0  0  0  0  0  0  0  0  0  0
   64.1910   32.8140   49.3860 C   0  0  0  0  0  0  0  0  0  0  0  0
   63.0660   33.4800   48.5350 C   0  0  0  0  0  0  0  0  0  0  0  0
   63.0250   32.8360   47.1870 N   0  0  0  0  0  0  0  0  0  0  0  0
   62.0750   33.5320   46.2790 C   0  0  0  0  0  0  0  0  0  0  0  0
   60.6300   33.5450   46.8380 C   0  0  0  0  0  0  0  0  0  0  0  0
   59.8580   32.2440   46.6820 C   0  0  0  0  0  0  0  0  0  0  0  0
   58.6870   32.2320   45.9050 C   0  0  0  0  0  0  0  0  0  0  0  0
   57.9390   31.0500   45.7420 C   0  0  0  0  0  0  0  0  0  0  0  0
   56.7540   31.0200   44.9870 O   0  0  0  0  0  0  0  0  0  0  0  0
   56.6970   30.8530   43.5770 C   0  0  0  0  0  0  0  0  0  0  0  0
   58.3800   29.8660   46.3620 C   0  0  0  0  0  0  0  0  0  0  0  0
   57.6900   28.6560   46.2150 O   0  0  0  0  0  0  0  0  0  0  0  0
   57.7920   27.8000   45.1070 C   0  0  0  0  0  0  0  0  0  0  0  0
   58.3640   28.2240   43.9410 N   0  0  0  0  0  0  0  0  0  0  0  0
   58.4710   27.3960   42.8670 C   0  0  0  0  0  0  0  0  0  0  0  0
   58.0220   26.1180   42.9420 N   0  0  0  0  0  0  0  0  0  0  0  0
   57.4600   25.6390   44.0810 C   0  0  0  0  0  0  0  0  0  0  0  0
   57.0160   24.3150   44.1370 C   0  0  0  0  0  0  0  0  0  0  0  0
   56.4390   23.8060   45.3160 C   0  0  0  0  0  0  0  0  0  0  0  0
   55.9830   22.4810   45.4100 O   0  0  0  0  0  0  0  0  0  0  0  0
   56.6800   21.3480   44.9000 C   0  0  0  0  0  0  0  0  0  0  0  0
   56.3090   24.6360   46.4420 C   0  0  0  0  0  0  0  0  0  0  0  0
   55.7320   24.0940   47.6010 O   0  0  0  0  0  0  0  0  0  0  0  0
   56.2400   22.9650   48.3070 C   0  0  0  0  0  0  0  0  0  0  0  0
   56.7530   25.9710   46.3830 C   0  0  0  0  0  0  0  0  0  0  0  0
   57.3320   26.4750   45.2060 C   0  0  0  0  0  0  0  0  0  0  0  0
   59.5160   29.8860   47.1730 C   0  0  0  0  0  0  0  0  0  0  0  0
   60.2590   31.0610   47.3440 C   0  0  0  0  0  0  0  0  0  0  0  0
   61.5450   31.0200   48.1270 C   0  0  0  0  0  0  0  0  0  0  0  0
   62.7380   31.3770   47.2180 C   0  0  0  0  0  0  0  0  0  0  0  0
   61.7120   33.4040   49.2910 C   0  0  0  0  0  0  0  0  0  0  0  0
   61.7960   33.9950   50.7150 C   0  0  0  0  0  0  0  0  0  0  0  0
   64.0887   34.7449   54.5422 H   0  0  0  0  0  0  0  0  0  0  0  0
   65.1409   34.4515   53.1162 H   0  0  0  0  0  0  0  0  0  0  0  0
   63.9929   35.8330   53.1162 H   0  0  0  0  0  0  0  0  0  0  0  0
   63.1846   32.8823   53.2438 H   0  0  0  0  0  0  0  0  0  0  0  0
   62.0969   34.3490   53.0856 H   0  0  0  0  0  0  0  0  0  0  0  0
   64.7419   32.4609   51.4484 H   0  0  0  0  0  0  0  0  0  0  0  0
   63.1754   31.7310   50.9603 H   0  0  0  0  0  0  0  0  0  0  0  0
   65.0854   33.4524   49.3362 H   0  0  0  0  0  0  0  0  0  0  0  0
   64.3589   31.8131   48.9618 H   0  0  0  0  0  0  0  0  0  0  0  0
   63.2762   34.5487   48.3812 H   0  0  0  0  0  0  0  0  0  0  0  0
   62.4114   34.5705   46.1438 H   0  0  0  0  0  0  0  0  0  0  0  0
   62.0615   32.9866   45.3238 H   0  0  0  0  0  0  0  0  0  0  0  0
   60.6834   33.7812   47.9110 H   0  0  0  0  0  0  0  0  0  0  0  0
   60.0833   34.2944   46.2468 H   0  0  0  0  0  0  0  0  0  0  0  0
   58.3501   33.1587   45.4174 H   0  0  0  0  0  0  0  0  0  0  0  0
   56.3499   29.8360   43.3420 H   0  0  0  0  0  0  0  0  0  0  0  0
   55.9985   31.5870   43.1488 H   0  0  0  0  0  0  0  0  0  0  0  0
   57.6985   31.0067   43.1488 H   0  0  0  0  0  0  0  0  0  0  0  0
   58.7510   29.1900   43.8600 H   0  0  0  0  0  0  0  0  0  0  0  0
   58.9233   27.7641   41.9343 H   0  0  0  0  0  0  0  0  0  0  0  0
   57.1180   23.6665   43.2543 H   0  0  0  0  0  0  0  0  0  0  0  0
   57.0539   20.7402   45.7371 H   0  0  0  0  0  0  0  0  0  0  0  0
   55.9971   20.7439   44.2846 H   0  0  0  0  0  0  0  0  0  0  0  0
   57.5271   21.6851   44.2846 H   0  0  0  0  0  0  0  0  0  0  0  0
   56.1599   23.1430   49.3895 H   0  0  0  0  0  0  0  0  0  0  0  0
   55.6571   22.0717   48.0382 H   0  0  0  0  0  0  0  0  0  0  0  0
   57.2952   22.8088   48.0382 H   0  0  0  0  0  0  0  0  0  0  0  0
   56.6461   26.6226   47.2627 H   0  0  0  0  0  0  0  0  0  0  0  0
   59.8323   28.9654   47.6853 H   0  0  0  0  0  0  0  0  0  0  0  0
   61.4896   31.7437   48.9535 H   0  0  0  0  0  0  0  0  0  0  0  0
   61.6895   30.0043   48.5237 H   0  0  0  0  0  0  0  0  0  0  0  0
   63.6307   30.8513   47.5877 H   0  0  0  0  0  0  0  0  0  0  0  0
   62.4770   31.0698   46.1945 H   0  0  0  0  0  0  0  0  0  0  0  0
   60.9573   33.9649   48.7202 H   0  0  0  0  0  0  0  0  0  0  0  0
   61.4409   32.3421   49.3853 H   0  0  0  0  0  0  0  0  0  0  0  0
   61.5900   35.0740   50.6574 H   0  0  0  0  0  0  0  0  0  0  0  0
   61.0566   33.4629   51.3316 H   0  0  0  0  0  0  0  0  0  0  0  0
  1  2  1  0
  2  3  1  0
  3  4  1  0
  4  5  1  0
  5  6  1  0
  6  7  1  0
  7  8  1  0
  8  9  1  0
  9 10  1  0
 10 11  2  0
 11 12  1  0
 12 13  1  0
 13 14  1  0
 12 15  2  0
 15 16  1  0
 16 17  1  0
 17 18  2  0
 18 19  1  0
 19 20  2  0
 20 21  1  0
 21 22  2  0
 22 23  1  0
 23 24  1  0
 24 25  1  0
 23 26  2  0
 26 27  1  0
 27 28  1  0
 26 29  1  0
 29 30  2  0
 15 31  1  0
 31 32  2  0
 32 33  1  0
 33 34  1  0
  6 35  1  0
 35 36  1  0
 36  3  1  0
 34  7  1  0
 32 10  1  0
 30 17  1  0
 30 21  1  0
  1 37  1  0
  1 38  1  0
  1 39  1  0
  2 40  1  0
  2 41  1  0
  4 42  1  0
  4 43  1  0
  5 44  1  0
  5 45  1  0
  6 46  1  0
  8 47  1  0
  8 48  1  0
  9 49  1  0
  9 50  1  0
 11 51  1  0
 14 52  1  0
 14 53  1  0
 14 54  1  0
 18 55  1  0
 19 56  1  0
 22 57  1  0
 25 58  1  0
 25 59  1  0
 25 60  1  0
 28 61  1  0
 28 62  1  0
 28 63  1  0
 29 64  1  0
 31 65  1  0
 33 66  1  0
 33 67  1  0
 34 68  1  0
 34 69  1  0
 35 70  1  0
 35 71  1  0
 36 72  1  0
 36 73  1  0
M  CHG  1  18   1
M  END
>  <UniqueID>  (11) 
11

>  <SMILES>  (11) 
CCN1CCC(N2CCc3cc(OC)c(Oc4[nH+]cnc5cc(OC)c(OC)cc45)cc3CC2)CC1

>  <Energy>  (11) 
110.72864759553423

>  <Genealogy>  (11) 
CCN1CCC(N2CCc3cc(OC)c(Oc4[nH+]cnc5cc(OC)c(OC)cc45)cc3CC2)CC1 (protonated)
CCN1CCC(N2CCc3cc(OC)c(Oc4[nH+]cnc5cc(OC)c(OC)cc45)cc3CC2)CC1 (3D coordinates assigned)
CCN1CCC(N2CCc3cc(OC)c(Oc4[nH+]cnc5cc(OC)c(OC)cc45)cc3CC2)CC1 (nonaromatic ring conformer: 110.72864759553423 kcal/mol)

>  <smiles>  (11) 
CCN1CCC(N2CCc3cc(OC)c(Oc4ncnc5cc(OC)c(OC)cc45)cc3CC2)CC1

>  <score_type>  (11) 
oracle

>  <origin>  (11) 
adg

>  <m_score__min__energy>  (11) 
-4.6399999999999997

>  <m_primary>  (11) 
energy

$$$$
11:0
     RDKit          3D

 36 37  0  0  0  0  0  0  0  0999 V2000
   63.0450   33.8830   46.5610 C   0  0  0  0  0  0  0  0  0  0  0  0
   63.4910   32.7520   47.4860 C   0  0  0  0  0  0  0  0  0  0  0  0
   62.5670   31.5220   47.4190 C   0  0  0  0  0  0  0  0  0  0  0  0
   61.1740   31.7430   48.0310 C   0  0  0  0  0  0  0  0  0  0  0  0
   60.0800   31.5410   47.0220 C   0  0  0  0  0  0  0  0  0  0  0  0
   59.7220   30.2830   46.6680 N   0  0  0  0  0  0  0  0  0  0  0  0
   58.7130   30.0440   45.7930 C   0  0  0  0  0  0  0  0  0  0  0  0
   58.3920   28.6390   45.4870 C   0  0  0  0  0  0  0  0  0  0  0  0
   58.0720   27.7540   46.5240 C   0  0  0  0  0  0  0  0  0  0  0  0
   57.8060   26.4140   46.2260 C   0  0  0  0  0  0  0  0  0  0  0  0
   57.8760   25.9750   44.9410 N   0  0  0  0  0  0  0  0  0  0  0  0
   58.2020   26.8100   43.9190 C   0  0  0  0  0  0  0  0  0  0  0  0
   58.4750   28.1560   44.1730 C   0  0  0  0  0  0  0  0  0  0  0  0
   57.9980   31.1310   45.2390 C   0  0  0  0  0  0  0  0  0  0  0  0
   56.7880   30.9270   44.3540 C   0  0  0  0  0  0  0  0  0  0  0  0
   55.9370   29.9840   44.9440 O   0  0  0  0  0  0  0  0  0  0  0  0
   58.3730   32.4310   45.6420 C   0  0  0  0  0  0  0  0  0  0  0  0
   57.5120   33.8600   45.0700 Cl  0  0  0  0  0  0  0  0  0  0  0  0
   59.4020   32.6040   46.5130 N   0  0  0  0  0  0  0  0  0  0  0  0
   62.7076   34.7386   47.1643 H   0  0  0  0  0  0  0  0  0  0  0  0
   63.8887   34.1919   45.9263 H   0  0  0  0  0  0  0  0  0  0  0  0
   62.2176   33.5329   45.9263 H   0  0  0  0  0  0  0  0  0  0  0  0
   64.5070   32.4436   47.1984 H   0  0  0  0  0  0  0  0  0  0  0  0
   63.4552   33.1354   48.5164 H   0  0  0  0  0  0  0  0  0  0  0  0
   62.4390   31.2445   46.3623 H   0  0  0  0  0  0  0  0  0  0  0  0
   63.0503   30.7322   48.0129 H   0  0  0  0  0  0  0  0  0  0  0  0
   61.0316   31.0309   48.8572 H   0  0  0  0  0  0  0  0  0  0  0  0
   61.1200   32.7818   48.3888 H   0  0  0  0  0  0  0  0  0  0  0  0
   58.0303   28.1099   47.5640 H   0  0  0  0  0  0  0  0  0  0  0  0
   57.5398   25.7143   47.0319 H   0  0  0  0  0  0  0  0  0  0  0  0
   58.2509   26.4248   42.8898 H   0  0  0  0  0  0  0  0  0  0  0  0
   58.7525   28.8310   43.3500 H   0  0  0  0  0  0  0  0  0  0  0  0
   56.2537   31.8813   44.2363 H   0  0  0  0  0  0  0  0  0  0  0  0
   57.1104   30.5656   43.3664 H   0  0  0  0  0  0  0  0  0  0  0  0
   55.1360   30.4860   45.2480 H   0  0  0  0  0  0  0  0  0  0  0  0
   59.6650   33.5720   46.8060 H   0  0  0  0  0  0  0  0  0  0  0  0
  1  2  1  0
  2  3  1  0
  3  4  1  0
  4  5  1  0
  5  6  2  0
  6  7  1  0
  7  8  1  0
  8  9  2  0
  9 10  1  0
 10 11  2  0
 11 12  1  0
 12 13  2  0
  7 14  2  0
 14 15  1  0
 15 16  1  0
 14 17  1  0
 17 18  1  0
 17 19  2  0
 19  5  1  0
 13  8  1  0
  1 20  1  0
  1 21  1  0
  1 22  1  0
  2 23  1  0
  2 24  1  0
  3 25  1  0
  3 26  1  0
  4 27  1  0
  4 28  1  0
  9 29  1  0
 10 30  1  0
 12 31  1  0
 13 32  1  0
 15 33  1  0
 15 34  1  0
 16 35  1  0
 19 36  1  0
M  CHG  1  19   1
M  END
>  <UniqueID>  (12) 
12

>  <SMILES>  (12) 
CCCCc1nc(-c2ccncc2)c(CO)c(Cl)[nH+]1

>  <Energy>  (12) 
39.4316715744406

>  <Genealogy>  (12) 
CCCCc1nc(-c2ccncc2)c(CO)c(Cl)[nH+]1 (protonated)
CCCCc1nc(-c2ccncc2)c(CO)c(Cl)[nH+]1 (3D coordinates assigned)
CCCCc1nc(-c2ccncc2)c(CO)c(Cl)[nH+]1 (optimized conformer: 39.4316715744406 kcal/mol)

>  <smiles>  (12) 
CCCCc1nc(Cl)c(CO)c(-c2ccncc2)n1

>  <score_type>  (12) 
oracle

>  <origin>  (12) 
adg

>  <m_score__min__energy>  (12) 
-5.4800000000000004

>  <m_primary>  (12) 
energy

$$$$
12:0
     RDKit          3D

 49 52  0  0  0  0  0  0  0  0999 V2000
   57.3660   34.1680   44.8650 C   0  0  0  0  0  0  0  0  0  0  0  0
   58.3070   33.9680   46.0150 C   0  0  0  0  0  0  0  0  0  0  0  0
   59.2520   34.9560   46.3350 C   0  0  0  0  0  0  0  0  0  0  0  0
   60.1560   34.7540   47.3830 C   0  0  0  0  0  0  0  0  0  0  0  0
   60.1380   33.5550   48.1070 C   0  0  0  0  0  0  0  0  0  0  0  0
   61.0700   33.3460   49.1850 N   0  0  0  0  0  0  0  0  0  0  0  0
   60.6500   33.3270   50.4960 C   0  0  0  0  0  0  0  0  0  0  0  0
   59.1890   33.4620   50.8840 C   0  0  0  0  0  0  0  0  0  0  0  0
   58.7230   32.2420   51.5730 N   0  0  0  0  0  0  0  0  0  0  0  0
   57.2740   32.3250   51.8290 C   0  0  0  0  0  0  0  0  0  0  0  0
   56.7880   31.0290   52.4900 C   0  0  0  0  0  0  0  0  0  0  0  0
   57.0620   29.9130   51.6650 O   0  0  0  0  0  0  0  0  0  0  0  0
   58.4590   29.7950   51.4750 C   0  0  0  0  0  0  0  0  0  0  0  0
   59.0180   31.0370   50.7720 C   0  0  0  0  0  0  0  0  0  0  0  0
   61.5560   33.1370   51.4970 N   0  0  0  0  0  0  0  0  0  0  0  0
   62.8790   32.9600   51.2360 C   0  0  0  0  0  0  0  0  0  0  0  0
   63.7890   32.7650   52.2830 C   0  0  0  0  0  0  0  0  0  0  0  0
   65.1470   32.5810   52.0130 C   0  0  0  0  0  0  0  0  0  0  0  0
   65.6200   32.5900   50.6900 C   0  0  0  0  0  0  0  0  0  0  0  0
   67.0200   32.4020   50.4110 N   0  0  0  0  0  0  0  0  0  0  0  0
   67.5390   31.2680   50.4890 O   0  0  0  0  0  0  0  0  0  0  0  0
   67.8130   33.4680   50.0530 O   0  0  0  0  0  0  0  0  0  0  0  0
   64.7060   32.7870   49.6390 C   0  0  0  0  0  0  0  0  0  0  0  0
   63.3350   32.9720   49.9060 C   0  0  0  0  0  0  0  0  0  0  0  0
   62.3960   33.1700   48.8820 C   0  0  0  0  0  0  0  0  0  0  0  0
   62.7770   33.1920   47.6770 O   0  0  0  0  0  0  0  0  0  0  0  0
   59.1980   32.5650   47.7870 C   0  0  0  0  0  0  0  0  0  0  0  0
   58.2940   32.7660   46.7400 C   0  0  0  0  0  0  0  0  0  0  0  0
   56.3578   34.3823   45.2492 H   0  0  0  0  0  0  0  0  0  0  0  0
   57.7116   35.0127   44.2510 H   0  0  0  0  0  0  0  0  0  0  0  0
   57.3382   33.2557   44.2510 H   0  0  0  0  0  0  0  0  0  0  0  0
   59.2815   35.8927   45.7591 H   0  0  0  0  0  0  0  0  0  0  0  0
   60.8830   35.5387   47.6393 H   0  0  0  0  0  0  0  0  0  0  0  0
   59.0710   34.3249   51.5559 H   0  0  0  0  0  0  0  0  0  0  0  0
   58.5904   33.6070   49.9726 H   0  0  0  0  0  0  0  0  0  0  0  0
   57.0693   33.1746   52.4970 H   0  0  0  0  0  0  0  0  0  0  0  0
   56.7443   32.4671   50.8755 H   0  0  0  0  0  0  0  0  0  0  0  0
   57.3024   30.9004   53.4538 H   0  0  0  0  0  0  0  0  0  0  0  0
   55.7008   31.0967   52.6434 H   0  0  0  0  0  0  0  0  0  0  0  0
   58.9482   29.6835   52.4539 H   0  0  0  0  0  0  0  0  0  0  0  0
   58.6568   28.9143   50.8464 H   0  0  0  0  0  0  0  0  0  0  0  0
   60.1070   30.9324   50.6576 H   0  0  0  0  0  0  0  0  0  0  0  0
   58.5484   31.1356   49.7822 H   0  0  0  0  0  0  0  0  0  0  0  0
   61.2220   33.1170   52.4880 H   0  0  0  0  0  0  0  0  0  0  0  0
   63.4321   32.7567   53.3235 H   0  0  0  0  0  0  0  0  0  0  0  0
   65.8522   32.4277   52.8432 H   0  0  0  0  0  0  0  0  0  0  0  0
   65.0649   32.7967   48.5992 H   0  0  0  0  0  0  0  0  0  0  0  0
   59.1719   31.6274   48.3616 H   0  0  0  0  0  0  0  0  0  0  0  0
   57.5695   31.9791   46.4831 H   0  0  0  0  0  0  0  0  0  0  0  0
  1  2  1  0
  2  3  2  0
  3  4  1  0
  4  5  2  0
  5  6  1  0
  6  7  1  0
  7  8  1  0
  8  9  1  0
  9 10  1  0
 10 11  1  0
 11 12  1  0
 12 13  1  0
 13 14  1  0
  7 15  2  0
 15 16  1  0
 16 17  2  0
 17 18  1  0
 18 19  2  0
 19 20  1  0
 20 21  2  0
 20 22  1  0
 19 23  1  0
 23 24  2  0
 24 25  1  0
 25 26  2  0
  5 27  1  0
 27 28  2  0
 28  2  1  0
 25  6  1  0
 14  9  1  0
 24 16  1  0
  1 29  1  0
  1 30  1  0
  1 31  1  0
  3 32  1  0
  4 33  1  0
  8 34  1  0
  8 35  1  0
 10 36  1  0
 10 37  1  0
 11 38  1  0
 11 39  1  0
 13 40  1  0
 13 41  1  0
 14 42  1  0
 14 43  1  0
 15 44  1  0
 17 45  1  0
 18 46  1  0
 23 47  1  0
 27 48  1  0
 28 49  1  0
M  CHG  3  15   1  20   1  22  -1
M  END
>  <UniqueID>  (13) 
13

>  <SMILES>  (13) 
Cc1ccc(-n2c(CN3CCOCC3)[nH+]c3ccc([N+](=O)[O-])cc3c2=O)cc1

>  <Energy>  (13) 
69.65590111128745

>  <Genealogy>  (13) 
Cc1ccc(-n2c(CN3CCOCC3)[nH+]c3ccc([N+](=O)[O-])cc3c2=O)cc1 (protonated)
Cc1ccc(-n2c(CN3CCOCC3)[nH+]c3ccc([N+](=O)[O-])cc3c2=O)cc1 (3D coordinates assigned)
Cc1ccc(-n2c(CN3CCOCC3)[nH+]c3ccc([N+](=O)[O-])cc3c2=O)cc1 (nonaromatic ring conformer: 69.65590111128745 kcal/mol)

>  <smiles>  (13) 
Cc1ccc(-n2c(CN3CCOCC3)nc3ccc([N+](=O)[O-])cc3c2=O)cc1

>  <score_type>  (13) 
oracle

>  <origin>  (13) 
adg

>  <m_score__min__energy>  (13) 
-6.5099999999999998

>  <m_primary>  (13) 
energy

$$$$
13:0
     RDKit          3D

 55 58  0  0  0  0  0  0  0  0999 V2000
   57.0320   21.0410   42.6330 C   0  0  0  0  0  0  0  0  0  0  0  0
   56.2670   22.0430   43.2950 O   0  0  0  0  0  0  0  0  0  0  0  0
   56.6800   22.7530   44.4350 C   0  0  0  0  0  0  0  0  0  0  0  0
   57.0030   24.1220   44.3550 C   0  0  0  0  0  0  0  0  0  0  0  0
   57.4160   24.8380   45.4880 C   0  0  0  0  0  0  0  0  0  0  0  0
   57.7440   26.2420   45.3880 N   0  0  0  0  0  0  0  0  0  0  0  0
   58.0790   27.0210   46.5880 C   0  0  0  0  0  0  0  0  0  0  0  0
   57.7160   28.4970   46.3770 C   0  0  0  0  0  0  0  0  0  0  0  0
   58.3500   29.0920   45.1720 N   0  0  0  0  0  0  0  0  0  0  0  0
   59.4930   29.9540   45.5360 C   0  0  0  0  0  0  0  0  0  0  0  0
   59.0570   31.3390   45.7120 N   0  0  0  0  0  0  0  0  0  0  0  0
   57.7620   31.8740   45.4260 C   0  0  0  0  0  0  0  0  0  0  0  0
   56.8600   31.2580   44.7980 O   0  0  0  0  0  0  0  0  0  0  0  0
   57.6450   33.2140   45.9840 C   0  0  0  0  0  0  0  0  0  0  0  0
   56.6470   33.9790   45.9230 O   0  0  0  0  0  0  0  0  0  0  0  0
   58.9150   33.4750   46.6440 C   0  0  0  0  0  0  0  0  0  0  0  0
   59.3460   34.5830   47.3690 C   0  0  0  0  0  0  0  0  0  0  0  0
   60.6340   34.5450   47.9310 C   0  0  0  0  0  0  0  0  0  0  0  0
   61.4530   33.4090   47.7640 C   0  0  0  0  0  0  0  0  0  0  0  0
   60.9940   32.3000   47.0310 C   0  0  0  0  0  0  0  0  0  0  0  0
   59.7150   32.3580   46.4730 C   0  0  0  0  0  0  0  0  0  0  0  0
   58.7310   28.1070   44.1270 C   0  0  0  0  0  0  0  0  0  0  0  0
   57.7760   26.9100   44.0810 C   0  0  0  0  0  0  0  0  0  0  0  0
   57.5060   24.1710   46.7170 C   0  0  0  0  0  0  0  0  0  0  0  0
   57.1880   22.8060   46.8210 C   0  0  0  0  0  0  0  0  0  0  0  0
   57.2710   22.1170   48.0430 O   0  0  0  0  0  0  0  0  0  0  0  0
   56.1530   21.7680   48.8530 C   0  0  0  0  0  0  0  0  0  0  0  0
   56.7740   22.0910   45.6850 C   0  0  0  0  0  0  0  0  0  0  0  0
   56.4740   20.7280   45.8730 O   0  0  0  0  0  0  0  0  0  0  0  0
   55.2230   20.0920   45.6300 C   0  0  0  0  0  0  0  0  0  0  0  0
   57.5216   20.3997   43.3807 H   0  0  0  0  0  0  0  0  0  0  0  0
   56.3688   20.4296   42.0034 H   0  0  0  0  0  0  0  0  0  0  0  0
   57.7966   21.5196   42.0034 H   0  0  0  0  0  0  0  0  0  0  0  0
   56.9299   24.6385   43.3866 H   0  0  0  0  0  0  0  0  0  0  0  0
   57.5155   26.6269   47.4466 H   0  0  0  0  0  0  0  0  0  0  0  0
   59.1591   26.9398   46.7800 H   0  0  0  0  0  0  0  0  0  0  0  0
   56.6239   28.5764   46.2721 H   0  0  0  0  0  0  0  0  0  0  0  0
   58.0901   29.0524   47.2497 H   0  0  0  0  0  0  0  0  0  0  0  0
   59.9343   29.5916   46.4762 H   0  0  0  0  0  0  0  0  0  0  0  0
   60.2376   29.9164   44.7272 H   0  0  0  0  0  0  0  0  0  0  0  0
   58.6977   35.4622   47.4982 H   0  0  0  0  0  0  0  0  0  0  0  0
   61.0055   35.4069   48.5047 H   0  0  0  0  0  0  0  0  0  0  0  0
   62.4582   33.3903   48.2104 H   0  0  0  0  0  0  0  0  0  0  0  0
   61.6263   31.4094   46.9005 H   0  0  0  0  0  0  0  0  0  0  0  0
   58.7184   28.6075   43.1476 H   0  0  0  0  0  0  0  0  0  0  0  0
   59.7343   27.7280   44.3713 H   0  0  0  0  0  0  0  0  0  0  0  0
   56.7649   27.2604   43.8262 H   0  0  0  0  0  0  0  0  0  0  0  0
   58.1269   26.1974   43.3200 H   0  0  0  0  0  0  0  0  0  0  0  0
   57.8297   24.7228   47.6118 H   0  0  0  0  0  0  0  0  0  0  0  0
   56.4282   21.8539   49.9145 H   0  0  0  0  0  0  0  0  0  0  0  0
   55.3159   22.4476   48.6351 H   0  0  0  0  0  0  0  0  0  0  0  0
   55.8512   20.7329   48.6351 H   0  0  0  0  0  0  0  0  0  0  0  0
   54.7432   19.8481   46.5893 H   0  0  0  0  0  0  0  0  0  0  0  0
   54.5728   20.7690   45.0565 H   0  0  0  0  0  0  0  0  0  0  0  0
   55.3868   19.1677   45.0565 H   0  0  0  0  0  0  0  0  0  0  0  0
  1  2  1  0
  2  3  1  0
  3  4  2  0
  4  5  1  0
  5  6  1  0
  6  7  1  0
  7  8  1  0
  8  9  1  0
  9 10  1  0
 10 11  1  0
 11 12  1  0
 12 13  2  0
 12 14  1  0
 14 15  2  0
 14 16  1  0
 16 17  2  0
 17 18  1  0
 18 19  2  0
 19 20  1  0
 20 21  2  0
  9 22  1  0
 22 23  1  0
  5 24  2  0
 24 25  1  0
 25 26  1  0
 26 27  1  0
 25 28  2  0
 28 29  1  0
 29 30  1  0
 28  3  1  0
 23  6  1  0
 21 11  1  0
 21 16  1  0
  1 31  1  0
  1 32  1  0
  1 33  1  0
  4 34  1  0
  7 35  1  0
  7 36  1  0
  8 37  1  0
  8 38  1  0
 10 39  1  0
 10 40  1  0
 17 41  1  0
 18 42  1  0
 19 43  1  0
 20 44  1  0
 22 45  1  0
 22 46  1  0
 23 47  1  0
 23 48  1  0
 24 49  1  0
 27 50  1  0
 27 51  1  0
 27 52  1  0
 30 53  1  0
 30 54  1  0
 30 55  1  0
M  END
>  <UniqueID>  (14) 
14

>  <SMILES>  (14) 
COc1cc(N2CCN(CN3C(=O)C(=O)c4ccccc43)CC2)cc(OC)c1OC

>  <Energy>  (14) 
101.05755451688279

>  <Genealogy>  (14) 
COc1cc(N2CCN(CN3C(=O)C(=O)c4ccccc43)CC2)cc(OC)c1OC (3D coordinates assigned)
COc1cc(N2CCN(CN3C(=O)C(=O)c4ccccc43)CC2)cc(OC)c1OC (nonaromatic ring conformer: 101.05755451688279 kcal/mol)

>  <smiles>  (14) 
COc1cc(N2CCN(CN3C(=O)C(=O)c4ccccc43)CC2)cc(OC)c1OC

>  <score_type>  (14) 
oracle

>  <origin>  (14) 
adg

>  <m_score__min__energy>  (14) 
-8.1099999999999994

>  <m_primary>  (14) 
energy

$$$$
14:0
     RDKit          3D

 36 39  0  0  0  0  0  0  0  0999 V2000
   59.3440   33.6380   50.7700 C   0  0  0  0  0  0  0  0  0  0  0  0
   60.2550   34.1630   49.8100 O   0  0  0  0  0  0  0  0  0  0  0  0
   61.6170   33.8410   49.7500 C   0  0  0  0  0  0  0  0  0  0  0  0
   62.3970   33.6300   50.9140 C   0  0  0  0  0  0  0  0  0  0  0  0
   63.7610   33.2910   50.8160 C   0  0  0  0  0  0  0  0  0  0  0  0
   64.3730   33.1540   49.5620 C   0  0  0  0  0  0  0  0  0  0  0  0
   63.5940   33.3690   48.4270 C   0  0  0  0  0  0  0  0  0  0  0  0
   64.0020   33.2880   47.1500 N   0  0  0  0  0  0  0  0  0  0  0  0
   62.9230   33.5800   46.3930 C   0  0  0  0  0  0  0  0  0  0  0  0
   61.8190   33.8490   47.1970 C   0  0  0  0  0  0  0  0  0  0  0  0
   60.4650   34.2530   46.6860 C   0  0  0  0  0  0  0  0  0  0  0  0
   59.5470   33.0680   46.6570 C   0  0  0  0  0  0  0  0  0  0  0  0
   59.3860   32.1170   47.6650 C   0  0  0  0  0  0  0  0  0  0  0  0
   58.5320   31.1450   47.2690 N   0  0  0  0  0  0  0  0  0  0  0  0
   58.1650   31.4740   46.0190 C   0  0  0  0  0  0  0  0  0  0  0  0
   57.3300   30.7650   45.2190 N   0  0  0  0  0  0  0  0  0  0  0  0
   57.0730   31.2240   43.9580 C   0  0  0  0  0  0  0  0  0  0  0  0
   57.6720   32.4160   43.4900 C   0  0  0  0  0  0  0  0  0  0  0  0
   58.5380   33.1370   44.3290 C   0  0  0  0  0  0  0  0  0  0  0  0
   58.7620   32.6320   45.6070 C   0  0  0  0  0  0  0  0  0  0  0  0
   62.2620   33.7070   48.5090 C   0  0  0  0  0  0  0  0  0  0  0  0
   59.7153   33.8520   51.7831 H   0  0  0  0  0  0  0  0  0  0  0  0
   58.3580   34.1064   50.6343 H   0  0  0  0  0  0  0  0  0  0  0  0
   59.2549   32.5500   50.6343 H   0  0  0  0  0  0  0  0  0  0  0  0
   61.9321   33.7321   51.9057 H   0  0  0  0  0  0  0  0  0  0  0  0
   64.3507   33.1325   51.7309 H   0  0  0  0  0  0  0  0  0  0  0  0
   65.4362   32.8849   49.4768 H   0  0  0  0  0  0  0  0  0  0  0  0
   64.9600   33.0540   46.8060 H   0  0  0  0  0  0  0  0  0  0  0  0
   62.9171   33.6023   45.2932 H   0  0  0  0  0  0  0  0  0  0  0  0
   60.0424   35.0238   47.3473 H   0  0  0  0  0  0  0  0  0  0  0  0
   60.5706   34.6499   45.6655 H   0  0  0  0  0  0  0  0  0  0  0  0
   59.8840   32.1524   48.6452 H   0  0  0  0  0  0  0  0  0  0  0  0
   58.2330   30.3080   47.8160 H   0  0  0  0  0  0  0  0  0  0  0  0
   56.3938   30.6609   43.3010 H   0  0  0  0  0  0  0  0  0  0  0  0
   57.4608   32.7776   42.4728 H   0  0  0  0  0  0  0  0  0  0  0  0
   59.0207   34.0652   43.9892 H   0  0  0  0  0  0  0  0  0  0  0  0
  1  2  1  0
  2  3  1  0
  3  4  2  0
  4  5  1  0
  5  6  2  0
  6  7  1  0
  7  8  1  0
  8  9  1  0
  9 10  2  0
 10 11  1  0
 11 12  1  0
 12 13  2  0
 13 14  1  0
 14 15  1  0
 15 16  2  0
 16 17  1  0
 17 18  2  0
 18 19  1  0
 19 20  2  0
 10 21  1  0
 21  3  1  0
 21  7  2  0
 20 12  1  0
 20 15  1  0
  1 22  1  0
  1 23  1  0
  1 24  1  0
  4 25  1  0
  5 26  1  0
  6 27  1  0
  8 28  1  0
  9 29  1  0
 11 30  1  0
 11 31  1  0
 13 32  1  0
 14 33  1  0
 17 34  1  0
 18 35  1  0
 19 36  1  0
M  END
>  <UniqueID>  (15) 
15

>  <SMILES>  (15) 
COc1cccc2[nH]cc(Cc3c[nH]c4ncccc34)c12

>  <Energy>  (15) 
106.20073517023343

>  <Genealogy>  (15) 
COc1cccc2[nH]cc(Cc3c[nH]c4ncccc34)c12 (3D coordinates assigned)
COc1cccc2[nH]cc(Cc3c[nH]c4ncccc34)c12 (optimized conformer: 106.20073517023343 kcal/mol)

>  <smiles>  (15) 
COc1cccc2[nH]cc(Cc3c[nH]c4ncccc34)c12

>  <score_type>  (15) 
oracle

>  <origin>  (15) 
adg

>  <m_score__min__energy>  (15) 
-7.0300000000000002

>  <m_primary>  (15) 
energy

$$$$
15:0
     RDKit          3D

 45 47  0  0  0  0  0  0  0  0999 V2000
   56.8150   19.7330   43.2410 H   0  0  0  0  0  0  0  0  0  0  0  0
   56.2730   20.5760   43.0890 O   0  0  0  0  0  0  0  0  0  0  0  0
   56.7210   21.8190   43.5280 C   0  0  0  0  0  0  0  0  0  0  0  0
   57.7300   21.9150   44.4940 C   0  0  0  0  0  0  0  0  0  0  0  0
   58.1762   21.0008   44.9126 H   0  0  0  0  0  0  0  0  0  0  0  0
   60.7550   29.1490   45.8280 C   0  0  0  0  0  0  0  0  0  0  0  0
   61.4682   29.6505   45.1573 H   0  0  0  0  0  0  0  0  0  0  0  0
   60.3970   29.7570   47.0460 C   0  0  0  0  0  0  0  0  0  0  0  0
   60.9530   31.0610   47.4840 C   0  0  0  0  0  0  0  0  0  0  0  0
   62.0128   31.1018   47.7759 H   0  0  0  0  0  0  0  0  0  0  0  0
   60.2350   32.1940   47.5440 C   0  0  0  0  0  0  0  0  0  0  0  0
   60.3471   32.8342   48.4315 H   0  0  0  0  0  0  0  0  0  0  0  0
   59.2980   32.6300   46.4780 C   0  0  0  0  0  0  0  0  0  0  0  0
   59.3380   33.9210   45.9160 C   0  0  0  0  0  0  0  0  0  0  0  0
   60.0907   34.6451   46.2612 H   0  0  0  0  0  0  0  0  0  0  0  0
   58.1730   23.1680   44.9290 C   0  0  0  0  0  0  0  0  0  0  0  0
   58.9726   23.2348   45.6815 H   0  0  0  0  0  0  0  0  0  0  0  0
   57.6000   24.3460   44.4080 C   0  0  0  0  0  0  0  0  0  0  0  0
   58.0440   25.6990   44.8270 C   0  0  0  0  0  0  0  0  0  0  0  0
   57.8185   26.5493   44.1667 H   0  0  0  0  0  0  0  0  0  0  0  0
   58.7060   25.9390   45.9690 C   0  0  0  0  0  0  0  0  0  0  0  0
   58.8163   25.1165   46.6910 H   0  0  0  0  0  0  0  0  0  0  0  0
   59.2970   27.2570   46.3080 C   0  0  0  0  0  0  0  0  0  0  0  0
   60.2120   27.9130   45.4630 C   0  0  0  0  0  0  0  0  0  0  0  0
   60.5021   27.4499   44.5083 H   0  0  0  0  0  0  0  0  0  0  0  0
   58.4270   34.2860   44.9230 C   0  0  0  0  0  0  0  0  0  0  0  0
   58.4706   35.2934   44.4834 H   0  0  0  0  0  0  0  0  0  0  0  0
   57.4620   33.3790   44.4860 C   0  0  0  0  0  0  0  0  0  0  0  0
   56.7515   33.6742   43.6998 H   0  0  0  0  0  0  0  0  0  0  0  0
   57.3910   32.0970   45.0400 C   0  0  0  0  0  0  0  0  0  0  0  0
   56.3970   31.2240   44.5730 O   0  0  0  0  0  0  0  0  0  0  0  0
   56.6460   30.0790   43.7640 C   0  0  0  0  0  0  0  0  0  0  0  0
   56.8353   29.2084   44.4091 H   0  0  0  0  0  0  0  0  0  0  0  0
   55.7699   29.8812   43.1290 H   0  0  0  0  0  0  0  0  0  0  0  0
   57.5251   30.2629   43.1290 H   0  0  0  0  0  0  0  0  0  0  0  0
   58.9700   27.8470   47.5370 C   0  0  0  0  0  0  0  0  0  0  0  0
   58.2794   27.3322   48.2212 H   0  0  0  0  0  0  0  0  0  0  0  0
   56.6000   24.2370   43.4270 C   0  0  0  0  0  0  0  0  0  0  0  0
   56.1593   25.1475   42.9949 H   0  0  0  0  0  0  0  0  0  0  0  0
   58.3100   31.7280   46.0420 C   0  0  0  0  0  0  0  0  0  0  0  0
   58.2546   30.7241   46.4882 H   0  0  0  0  0  0  0  0  0  0  0  0
   59.5120   29.0820   47.9020 C   0  0  0  0  0  0  0  0  0  0  0  0
   59.2426   29.5301   48.8698 H   0  0  0  0  0  0  0  0  0  0  0  0
   56.1600   22.9830   42.9950 C   0  0  0  0  0  0  0  0  0  0  0  0
   55.3697   22.9117   42.2332 H   0  0  0  0  0  0  0  0  0  0  0  0
  1  2  1  0
  2  3  1  0
  3  4  2  0
  4  5  1  0
  4  6  1  0
  6  7  1  0
  6  8  2  0
  8  9  1  0
  9 10  1  0
  9 11  2  0
 11 12  1  0
 11 13  1  0
 13 14  2  0
 14 15  1  0
 14 16  1  0
 16 17  1  0
 16 18  2  0
 18 19  1  0
 19 20  1  0
 19 21  2  0
 21 22  1  0
 21 23  1  0
 23 24  2  0
 24 25  1  0
 24 26  1  0
 26 27  1  0
 26 28  2  0
 28 29  1  0
 28 30  1  0
 30 31  1  0
 31 32  1  0
 32 33  1  0
 32 34  1  0
 32 35  1  0
 30 36  2  0
 36 37  1  0
 18 38  1  0
 38 39  1  0
 38 40  2  0
 40 41  1  0
  8 42  1  0
 42 43  1  0
 42 44  2  0
 44 45  1  0
 44  3  1  0
 40 13  1  0
 36 23  1  0
M  END
>  <UniqueID>  (16) 
16

>  <SMILES>  (16) 
COc1cccc(/C=C/c2ccc(/C=C/c3ccc(O)cc3)cc2)c1

>  <Energy>  (16) 
56.577530918235766

>  <Genealogy>  (16) 
COc1cccc(/C=C/c2ccc(/C=C/c3ccc(O)cc3)cc2)c1 (cis-trans isomerization)
COc1cccc(/C=C/c2ccc(/C=C/c3ccc(O)cc3)cc2)c1 (3D coordinates assigned)
COc1cccc(/C=C/c2ccc(/C=C/c3ccc(O)cc3)cc2)c1 (optimized conformer: 56.577530918235766 kcal/mol)

>  <smiles>  (16) 
COc1cccc(C=Cc2ccc(C=Cc3ccc(O)cc3)cc2)c1

>  <score_type>  (16) 
oracle

>  <origin>  (16) 
adg

>  <m_score__min__energy>  (16) 
-8.9199999999999999

>  <m_primary>  (16) 
energy

$$$$
16:0
     RDKit          3D

 59 63  0  0  0  0  0  0  0  0999 V2000
   58.0940   31.7480   50.8330 C   0  0  0  0  0  0  0  0  0  0  0  0
   58.3160   31.6350   49.4390 O   0  0  0  0  0  0  0  0  0  0  0  0
   58.8750   32.7330   48.7900 C   0  0  0  0  0  0  0  0  0  0  0  0
   59.6430   33.6710   49.4470 C   0  0  0  0  0  0  0  0  0  0  0  0
   60.2010   34.7590   48.8120 C   0  0  0  0  0  0  0  0  0  0  0  0
   59.9880   34.9330   47.4590 C   0  0  0  0  0  0  0  0  0  0  0  0
   59.2200   33.9950   46.8030 C   0  0  0  0  0  0  0  0  0  0  0  0
   59.0190   34.1870   45.4450 C   0  0  0  0  0  0  0  0  0  0  0  0
   58.2450   33.2510   44.7600 C   0  0  0  0  0  0  0  0  0  0  0  0
   57.6880   32.1580   45.4040 C   0  0  0  0  0  0  0  0  0  0  0  0
   56.7090   31.0170   44.4240 S   0  0  0  0  0  0  0  0  0  0  0  0
   56.9690   29.3350   45.0110 C   0  0  0  0  0  0  0  0  0  0  0  0
   55.9960   28.4120   45.2330 N   0  0  0  0  0  0  0  0  0  0  0  0
   56.5950   27.3040   45.6580 C   0  0  0  0  0  0  0  0  0  0  0  0
   56.0360   26.0840   46.0160 C   0  0  0  0  0  0  0  0  0  0  0  0
   54.7770   25.8820   45.9690 N   0  0  0  0  0  0  0  0  0  0  0  0
   56.9040   25.1310   46.4120 N   0  0  0  0  0  0  0  0  0  0  0  0
   58.2400   25.3420   46.4620 C   0  0  0  0  0  0  0  0  0  0  0  0
   58.7510   26.5540   46.1030 N   0  0  0  0  0  0  0  0  0  0  0  0
   57.9290   27.5520   45.6940 C   0  0  0  0  0  0  0  0  0  0  0  0
   58.1670   28.8180   45.2930 N   0  0  0  0  0  0  0  0  0  0  0  0
   59.4650   29.4950   45.1830 C   0  0  0  0  0  0  0  0  0  0  0  0
   60.3910   29.0520   46.2650 C   0  0  0  0  0  0  0  0  0  0  0  0
   60.6540   30.1250   47.2940 C   0  0  0  0  0  0  0  0  0  0  0  0
   61.8830   30.8940   46.8500 C   0  0  0  0  0  0  0  0  0  0  0  0
   62.0630   32.0780   47.7690 C   0  0  0  0  0  0  0  0  0  0  0  0
   62.1750   31.5540   49.1220 N   0  0  0  0  0  0  0  0  0  0  0  0
   63.2640   32.0180   49.9440 C   0  0  0  0  0  0  0  0  0  0  0  0
   63.4200   31.6040   51.1300 O   0  0  0  0  0  0  0  0  0  0  0  0
   61.2460   30.6090   49.6510 C   0  0  0  0  0  0  0  0  0  0  0  0
   60.8220   29.5540   48.6620 C   0  0  0  0  0  0  0  0  0  0  0  0
   57.8910   31.9720   46.7580 C   0  0  0  0  0  0  0  0  0  0  0  0
   58.6600   32.9010   47.4380 C   0  0  0  0  0  0  0  0  0  0  0  0
   58.9464   31.3141   51.3764 H   0  0  0  0  0  0  0  0  0  0  0  0
   57.9890   32.8092   51.1027 H   0  0  0  0  0  0  0  0  0  0  0  0
   57.1742   31.2084   51.1027 H   0  0  0  0  0  0  0  0  0  0  0  0
   59.8179   33.5451   50.5257 H   0  0  0  0  0  0  0  0  0  0  0  0
   60.8093   35.4809   49.3766 H   0  0  0  0  0  0  0  0  0  0  0  0
   60.4171   35.7919   46.9222 H   0  0  0  0  0  0  0  0  0  0  0  0
   59.4566   35.0512   44.9237 H   0  0  0  0  0  0  0  0  0  0  0  0
   58.0724   33.3837   43.6818 H   0  0  0  0  0  0  0  0  0  0  0  0
   54.1440   26.7120   45.9550 H   0  0  0  0  0  0  0  0  0  0  0  0
   56.4970   24.2060   46.6860 H   0  0  0  0  0  0  0  0  0  0  0  0
   58.9127   24.5366   46.7919 H   0  0  0  0  0  0  0  0  0  0  0  0
   59.9129   29.2582   44.2066 H   0  0  0  0  0  0  0  0  0  0  0  0
   59.3048   30.5789   45.2801 H   0  0  0  0  0  0  0  0  0  0  0  0
   59.9473   28.1822   46.7715 H   0  0  0  0  0  0  0  0  0  0  0  0
   61.3538   28.8062   45.7932 H   0  0  0  0  0  0  0  0  0  0  0  0
   59.7894   30.8018   47.3603 H   0  0  0  0  0  0  0  0  0  0  0  0
   62.7682   30.2433   46.9050 H   0  0  0  0  0  0  0  0  0  0  0  0
   61.7593   31.2369   45.8122 H   0  0  0  0  0  0  0  0  0  0  0  0
   62.9764   32.6290   47.5006 H   0  0  0  0  0  0  0  0  0  0  0  0
   61.2134   32.7717   47.6861 H   0  0  0  0  0  0  0  0  0  0  0  0
   63.9757   32.7483   49.5315 H   0  0  0  0  0  0  0  0  0  0  0  0
   61.7125   30.1091   50.5127 H   0  0  0  0  0  0  0  0  0  0  0  0
   60.3414   31.1699   49.9287 H   0  0  0  0  0  0  0  0  0  0  0  0
   61.5887   28.7659   48.6290 H   0  0  0  0  0  0  0  0  0  0  0  0
   59.8542   29.1444   48.9870 H   0  0  0  0  0  0  0  0  0  0  0  0
   57.4535   31.1092   47.2815 H   0  0  0  0  0  0  0  0  0  0  0  0
  1  2  1  0
  2  3  1  0
  3  4  2  0
  4  5  1  0
  5  6  2  0
  6  7  1  0
  7  8  2  0
  8  9  1  0
  9 10  2  0
 10 11  1  0
 11 12  1  0
 12 13  2  0
 13 14  1  0
 14 15  1  0
 15 16  2  3
 15 17  1  0
 17 18  1  0
 18 19  2  0
 19 20  1  0
 20 21  1  0
 21 22  1  0
 22 23  1  0
 23 24  1  0
 24 25  1  0
 25 26  1  0
 26 27  1  0
 27 28  1  0
 28 29  2  0
 27 30  1  0
 30 31  1  0
 10 32  1  0
 32 33  2  0
 33  3  1  0
 33  7  1  0
 21 12  1  0
 31 24  1  0
 20 14  2  0
  1 34  1  0
  1 35  1  0
  1 36  1  0
  4 37  1  0
  5 38  1  0
  6 39  1  0
  8 40  1  0
  9 41  1  0
 16 42  1  0
 17 43  1  0
 18 44  1  0
 22 45  1  0
 22 46  1  0
 23 47  1  0
 23 48  1  0
 24 49  1  0
 25 50  1  0
 25 51  1  0
 26 52  1  0
 26 53  1  0
 28 54  1  0
 30 55  1  0
 30 56  1  0
 31 57  1  0
 31 58  1  0
 32 59  1  0
M  END
>  <smiles>  (17) 
COc1cccc2ccc(Sc3nc4c(=N)[nH]cnc4n3CCC3CCN(C=O)CC3)cc12

>  <score_type>  (17) 
oracle

>  <origin>  (17) 
adg

>  <m_score__min__energy>  (17) 
-9.2300000000000004

>  <m_primary>  (17) 
energy

$$$$
17:0
     RDKit          3D

 49 51  0  0  0  0  0  0  0  0999 V2000
   55.7120   30.0350   43.7720 C   0  0  0  0  0  0  0  0  0  0  0  0
   56.6620   30.7170   44.6660 N   0  0  0  0  0  0  0  0  0  0  0  0
   57.5280   29.7630   45.4030 C   0  0  0  0  0  0  0  0  0  0  0  0
   58.6110   29.0800   44.5400 C   0  0  0  0  0  0  0  0  0  0  0  0
   59.7270   28.5090   45.4230 C   0  0  0  0  0  0  0  0  0  0  0  0
   60.6760   29.6140   45.8990 C   0  0  0  0  0  0  0  0  0  0  0  0
   60.2340   30.1720   47.1790 N   0  0  0  0  0  0  0  0  0  0  0  0
   60.7360   31.4160   47.7150 C   0  0  0  0  0  0  0  0  0  0  0  0
   61.8370   32.0710   47.1270 C   0  0  0  0  0  0  0  0  0  0  0  0
   62.3170   33.2750   47.6500 C   0  0  0  0  0  0  0  0  0  0  0  0
   61.7120   33.8480   48.7680 C   0  0  0  0  0  0  0  0  0  0  0  0
   60.6180   33.2190   49.3710 C   0  0  0  0  0  0  0  0  0  0  0  0
   59.9960   33.7790   50.4950 C   0  0  0  0  0  0  0  0  0  0  0  0
   58.9060   33.1340   51.0810 C   0  0  0  0  0  0  0  0  0  0  0  0
   58.4470   31.9340   50.5370 C   0  0  0  0  0  0  0  0  0  0  0  0
   59.0580   31.3990   49.4470 N   0  0  0  0  0  0  0  0  0  0  0  0
   60.1240   32.0000   48.8470 C   0  0  0  0  0  0  0  0  0  0  0  0
   57.3950   31.7800   43.9450 C   0  0  0  0  0  0  0  0  0  0  0  0
   57.9310   32.8180   44.8970 C   0  0  0  0  0  0  0  0  0  0  0  0
   58.8860   33.7560   44.4680 C   0  0  0  0  0  0  0  0  0  0  0  0
   59.3970   34.7000   45.3650 C   0  0  0  0  0  0  0  0  0  0  0  0
   58.9600   34.7130   46.6920 C   0  0  0  0  0  0  0  0  0  0  0  0
   58.0140   33.7810   47.1270 C   0  0  0  0  0  0  0  0  0  0  0  0
   57.5020   32.8350   46.2340 C   0  0  0  0  0  0  0  0  0  0  0  0
   54.9637   29.4978   44.3732 H   0  0  0  0  0  0  0  0  0  0  0  0
   55.2074   30.7784   43.1374 H   0  0  0  0  0  0  0  0  0  0  0  0
   56.2550   29.3192   43.1374 H   0  0  0  0  0  0  0  0  0  0  0  0
   58.0304   30.3113   46.2136 H   0  0  0  0  0  0  0  0  0  0  0  0
   56.8690   28.9616   45.7683 H   0  0  0  0  0  0  0  0  0  0  0  0
   58.1519   28.2626   43.9646 H   0  0  0  0  0  0  0  0  0  0  0  0
   59.0454   29.8279   43.8604 H   0  0  0  0  0  0  0  0  0  0  0  0
   59.2766   28.0204   46.2996 H   0  0  0  0  0  0  0  0  0  0  0  0
   60.3047   27.7848   44.8300 H   0  0  0  0  0  0  0  0  0  0  0  0
   61.6854   29.1937   46.0195 H   0  0  0  0  0  0  0  0  0  0  0  0
   60.6799   30.4188   45.1492 H   0  0  0  0  0  0  0  0  0  0  0  0
   59.5200   29.6400   47.7270 H   0  0  0  0  0  0  0  0  0  0  0  0
   62.3245   31.6290   46.2455 H   0  0  0  0  0  0  0  0  0  0  0  0
   63.1764   33.7730   47.1773 H   0  0  0  0  0  0  0  0  0  0  0  0
   62.0953   34.7950   49.1758 H   0  0  0  0  0  0  0  0  0  0  0  0
   60.3665   34.7258   50.9149 H   0  0  0  0  0  0  0  0  0  0  0  0
   58.4132   33.5677   51.9637 H   0  0  0  0  0  0  0  0  0  0  0  0
   57.5878   31.4192   50.9917 H   0  0  0  0  0  0  0  0  0  0  0  0
   58.2353   31.3279   43.3977 H   0  0  0  0  0  0  0  0  0  0  0  0
   56.6983   32.2725   43.2507 H   0  0  0  0  0  0  0  0  0  0  0  0
   59.2325   33.7477   43.4240 H   0  0  0  0  0  0  0  0  0  0  0  0
   60.1437   35.4328   45.0252 H   0  0  0  0  0  0  0  0  0  0  0  0
   59.3611   35.4578   47.3952 H   0  0  0  0  0  0  0  0  0  0  0  0
   57.6721   33.7917   48.1724 H   0  0  0  0  0  0  0  0  0  0  0  0
   56.7598   32.1007   46.5803 H   0  0  0  0  0  0  0  0  0  0  0  0
  1  2  1  0
  2  3  1  0
  3  4  1  0
  4  5  1  0
  5  6  1  0
  6  7  1  0
  7  8  1  0
  8  9  2  0
  9 10  1  0
 10 11  2  0
 11 12  1  0
 12 13  2  0
 13 14  1  0
 14 15  2  0
 15 16  1  0
 16 17  2  0
  2 18  1  0
 18 19  1  0
 19 20  2  0
 20 21  1  0
 21 22  2  0
 22 23  1  0
 23 24  2  0
 17  8  1  0
 24 19  1  0
 17 12  1  0
  1 25  1  0
  1 26  1  0
  1 27  1  0
  3 28  1  0
  3 29  1  0
  4 30  1  0
  4 31  1  0
  5 32  1  0
  5 33  1  0
  6 34  1  0
  6 35  1  0
  7 36  1  0
  9 37  1  0
 10 38  1  0
 11 39  1  0
 13 40  1  0
 14 41  1  0
 15 42  1  0
 18 43  1  0
 18 44  1  0
 20 45  1  0
 21 46  1  0
 22 47  1  0
 23 48  1  0
 24 49  1  0
M  END
>  <UniqueID>  (18) 
17

>  <SMILES>  (18) 
CN(CCCCNc1cccc2cccnc12)Cc1ccccc1

>  <Energy>  (18) 
52.82113616548063

>  <Genealogy>  (18) 
CN(CCCCNc1cccc2cccnc12)Cc1ccccc1 (3D coordinates assigned)
CN(CCCCNc1cccc2cccnc12)Cc1ccccc1 (optimized conformer: 52.82113616548063 kcal/mol)

>  <smiles>  (18) 
CN(CCCCNc1cccc2cccnc12)Cc1ccccc1

>  <score_type>  (18) 
oracle

>  <origin>  (18) 
adg

>  <m_score__min__energy>  (18) 
-7.5300000000000002

>  <m_primary>  (18) 
energy

$$$$
18:0
     RDKit          3D

 36 38  0  0  0  0  0  0  0  0999 V2000
   57.3500   26.0710   45.7510 C   0  0  0  0  0  0  0  0  0  0  0  0
   58.1360   27.3420   45.6060 C   0  0  0  0  0  0  0  0  0  0  0  0
   59.5350   27.3020   45.5390 C   0  0  0  0  0  0  0  0  0  0  0  0
   60.2640   28.4800   45.3700 C   0  0  0  0  0  0  0  0  0  0  0  0
   59.6020   29.7050   45.2520 C   0  0  0  0  0  0  0  0  0  0  0  0
   58.1970   29.7630   45.2920 C   0  0  0  0  0  0  0  0  0  0  0  0
   57.4920   31.0600   45.1630 C   0  0  0  0  0  0  0  0  0  0  0  0
   56.2740   31.0890   44.8380 O   0  0  0  0  0  0  0  0  0  0  0  0
   58.1810   32.2990   45.4010 N   0  0  0  0  0  0  0  0  0  0  0  0
   58.1550   33.3010   44.3270 C   0  0  0  0  0  0  0  0  0  0  0  0
   59.2940   34.3060   44.4890 C   0  0  0  0  0  0  0  0  0  0  0  0
   59.2220   34.9680   45.8640 C   0  0  0  0  0  0  0  0  0  0  0  0
   59.1900   33.9390   46.9630 C   0  0  0  0  0  0  0  0  0  0  0  0
   59.6400   34.2850   48.2460 C   0  0  0  0  0  0  0  0  0  0  0  0
   59.6030   33.3510   49.2830 C   0  0  0  0  0  0  0  0  0  0  0  0
   59.1110   32.0670   49.0490 C   0  0  0  0  0  0  0  0  0  0  0  0
   58.6430   31.7150   47.7810 C   0  0  0  0  0  0  0  0  0  0  0  0
   58.6540   32.6510   46.7260 C   0  0  0  0  0  0  0  0  0  0  0  0
   57.4710   28.5710   45.4690 C   0  0  0  0  0  0  0  0  0  0  0  0
   57.2107   25.8458   46.8187 H   0  0  0  0  0  0  0  0  0  0  0  0
   56.3678   26.1904   45.2703 H   0  0  0  0  0  0  0  0  0  0  0  0
   57.8956   25.2456   45.2703 H   0  0  0  0  0  0  0  0  0  0  0  0
   60.0604   26.3390   45.6199 H   0  0  0  0  0  0  0  0  0  0  0  0
   61.3627   28.4441   45.3296 H   0  0  0  0  0  0  0  0  0  0  0  0
   60.1835   30.6303   45.1270 H   0  0  0  0  0  0  0  0  0  0  0  0
   58.2594   32.7920   43.3574 H   0  0  0  0  0  0  0  0  0  0  0  0
   57.1992   33.8432   44.3763 H   0  0  0  0  0  0  0  0  0  0  0  0
   60.2567   33.7836   44.3872 H   0  0  0  0  0  0  0  0  0  0  0  0
   59.2028   35.0801   43.7128 H   0  0  0  0  0  0  0  0  0  0  0  0
   60.1046   35.6104   45.9996 H   0  0  0  0  0  0  0  0  0  0  0  0
   58.2979   35.5623   45.9164 H   0  0  0  0  0  0  0  0  0  0  0  0
   60.0242   35.2981   48.4360 H   0  0  0  0  0  0  0  0  0  0  0  0
   59.9621   33.6279   50.2852 H   0  0  0  0  0  0  0  0  0  0  0  0
   59.0915   31.3298   49.8651 H   0  0  0  0  0  0  0  0  0  0  0  0
   58.2623   30.6983   47.6035 H   0  0  0  0  0  0  0  0  0  0  0  0
   56.3719   28.6021   45.5004 H   0  0  0  0  0  0  0  0  0  0  0  0
  1  2  1  0
  2  3  2  0
  3  4  1  0
  4  5  2  0
  5  6  1  0
  6  7  1  0
  7  8  2  0
  7  9  1  0
  9 10  1  0
 10 11  1  0
 11 12  1  0
 12 13  1  0
 13 14  2  0
 14 15  1  0
 15 16  2  0
 16 17  1  0
 17 18  2  0
  6 19  2  0
 19  2  1  0
 18  9  1  0
 18 13  1  0
  1 20  1  0
  1 21  1  0
  1 22  1  0
  3 23  1  0
  4 24  1  0
  5 25  1  0
 10 26  1  0
 10 27  1  0
 11 28  1  0
 11 29  1  0
 12 30  1  0
 12 31  1  0
 14 32  1  0
 15 33  1  0
 16 34  1  0
 17 35  1  0
 19 36  1  0
M  END
>  <UniqueID>  (19) 
18

>  <SMILES>  (19) 
Cc1cccc(C(=O)N2CCCc3ccccc32)c1

>  <Energy>  (19) 
44.903952469941906

>  <Genealogy>  (19) 
Cc1cccc(C(=O)N2CCCc3ccccc32)c1 (3D coordinates assigned)
Cc1cccc(C(=O)N2CCCc3ccccc32)c1 (nonaromatic ring conformer: 44.903952469941906 kcal/mol)

>  <smiles>  (19) 
Cc1cccc(C(=O)N2CCCc3ccccc32)c1

>  <score_type>  (19) 
oracle

>  <origin>  (19) 
adg

>  <m_score__min__energy>  (19) 
-7.3700000000000001

>  <m_primary>  (19) 
energy

$$$$
19:0
     RDKit          3D

 52 53  0  0  0  0  0  0  0  0999 V2000
   56.2650   24.0950   46.4030 C   0  0  0  0  0  0  0  0  0  0  0  0
   55.5160   25.1880   45.6500 C   0  0  0  0  0  0  0  0  0  0  0  0
   55.9610   26.4790   46.0590 O   0  0  0  0  0  0  0  0  0  0  0  0
   57.2950   26.7750   46.3640 C   0  0  0  0  0  0  0  0  0  0  0  0
   57.6480   27.0060   47.5520 O   0  0  0  0  0  0  0  0  0  0  0  0
   58.3240   26.7520   45.2780 C   0  0  0  0  0  0  0  0  0  0  0  0
   57.7240   27.1630   44.0040 N   0  0  0  0  0  0  0  0  0  0  0  0
   57.9640   28.5920   43.7630 C   0  0  0  0  0  0  0  0  0  0  0  0
   56.6460   29.3630   43.5360 C   0  0  1  0  0  0  0  0  0  0  0  0
   55.6740   28.9650   44.4710 O   0  0  0  0  0  0  0  0  0  0  0  0
   56.8020   30.8990   43.5270 C   0  0  0  0  0  0  0  0  0  0  0  0
   56.5460   31.4470   44.8230 O   0  0  0  0  0  0  0  0  0  0  0  0
   57.4170   32.2480   45.5790 C   0  0  0  0  0  0  0  0  0  0  0  0
   57.5720   33.6310   45.3670 C   0  0  0  0  0  0  0  0  0  0  0  0
   58.4580   34.3720   46.1550 C   0  0  0  0  0  0  0  0  0  0  0  0
   59.2210   33.7410   47.1560 C   0  0  0  0  0  0  0  0  0  0  0  0
   60.1440   34.4280   47.9640 O   0  0  0  0  0  0  0  0  0  0  0  0
   60.3600   34.2210   49.3610 C   0  0  0  0  0  0  0  0  0  0  0  0
   61.2780   33.0200   49.6060 C   0  0  0  0  0  0  0  0  0  0  0  0
   62.3050   32.9100   48.5730 N   0  0  0  0  0  0  0  0  0  0  0  0
   62.8070   33.9090   47.8210 C   0  0  0  0  0  0  0  0  0  0  0  0
   63.7260   33.3670   46.9480 C   0  0  0  0  0  0  0  0  0  0  0  0
   63.7940   32.0400   47.1620 N   0  0  0  0  0  0  0  0  0  0  0  0
   62.9200   31.7860   48.1540 C   0  0  0  0  0  0  0  0  0  0  0  0
   59.0600   32.3680   47.3640 C   0  0  0  0  0  0  0  0  0  0  0  0
   58.1740   31.6270   46.5780 C   0  0  0  0  0  0  0  0  0  0  0  0
   56.1555   24.2547   47.4858 H   0  0  0  0  0  0  0  0  0  0  0  0
   55.8492   23.1130   46.1333 H   0  0  0  0  0  0  0  0  0  0  0  0
   57.3309   24.1284   46.1333 H   0  0  0  0  0  0  0  0  0  0  0  0
   55.6943   25.0700   44.5710 H   0  0  0  0  0  0  0  0  0  0  0  0
   54.4425   25.0978   45.8722 H   0  0  0  0  0  0  0  0  0  0  0  0
   59.1398   27.4435   45.5355 H   0  0  0  0  0  0  0  0  0  0  0  0
   58.7169   25.7295   45.1769 H   0  0  0  0  0  0  0  0  0  0  0  0
   56.6930   27.0080   44.0790 H   0  0  0  0  0  0  0  0  0  0  0  0
   58.4806   29.0186   44.6354 H   0  0  0  0  0  0  0  0  0  0  0  0
   58.5776   28.6879   42.8551 H   0  0  0  0  0  0  0  0  0  0  0  0
   56.3144   29.0958   42.5218 H   0  0  0  0  0  0  0  0  0  0  0  0
   55.8820   28.0340   44.7480 H   0  0  0  0  0  0  0  0  0  0  0  0
   57.8282   31.1547   43.2244 H   0  0  0  0  0  0  0  0  0  0  0  0
   56.0750   31.3213   42.8177 H   0  0  0  0  0  0  0  0  0  0  0  0
   56.9929   34.1315   44.5770 H   0  0  0  0  0  0  0  0  0  0  0  0
   58.5596   35.4551   45.9918 H   0  0  0  0  0  0  0  0  0  0  0  0
   60.8244   35.1213   49.7898 H   0  0  0  0  0  0  0  0  0  0  0  0
   59.3893   34.0213   49.8383 H   0  0  0  0  0  0  0  0  0  0  0  0
   61.7667   33.1377   50.5844 H   0  0  0  0  0  0  0  0  0  0  0  0
   60.6650   32.1070   49.5810 H   0  0  0  0  0  0  0  0  0  0  0  0
   62.5316   34.9716   47.8914 H   0  0  0  0  0  0  0  0  0  0  0  0
   64.3074   33.9264   46.2004 H   0  0  0  0  0  0  0  0  0  0  0  0
   64.3910   31.3480   46.6570 H   0  0  0  0  0  0  0  0  0  0  0  0
   62.7312   30.7857   48.5708 H   0  0  0  0  0  0  0  0  0  0  0  0
   59.6368   31.8659   48.1547 H   0  0  0  0  0  0  0  0  0  0  0  0
   58.0707   30.5449   46.7463 H   0  0  0  0  0  0  0  0  0  0  0  0
  1  2  1  0
  2  3  1  0
  3  4  1  0
  4  5  2  0
  4  6  1  0
  6  7  1  0
  7  8  1  0
  8  9  1  0
  9 10  1  0
  9 11  1  0
 11 12  1  0
 12 13  1  0
 13 14  2  0
 14 15  1  0
 15 16  2  0
 16 17  1  0
 17 18  1  0
 18 19  1  0
 19 20  1  0
 20 21  1  0
 21 22  2  0
 22 23  1  0
 23 24  2  0
 16 25  1  0
 25 26  2  0
 26 13  1  0
 24 20  1  0
  1 27  1  0
  1 28  1  0
  1 29  1  0
  2 30  1  0
  2 31  1  0
  6 32  1  0
  6 33  1  0
  7 34  1  0
  8 35  1  0
  8 36  1  0
  9 37  1  6
 10 38  1  0
 11 39  1  0
 11 40  1  0
 14 41  1  0
 15 42  1  0
 18 43  1  0
 18 44  1  0
 19 45  1  0
 19 46  1  0
 21 47  1  0
 22 48  1  0
 23 49  1  0
 24 50  1  0
 25 51  1  0
 26 52  1  0
M  CHG  1  23   1
M  END
>  <UniqueID>  (20) 
19

>  <SMILES>  (20) 
CCOC(=O)CNC[C@@H](O)COc1ccc(OCCn2cc[nH+]c2)cc1

>  <Energy>  (20) 
73.76245397337208

>  <Genealogy>  (20) 
CCOC(=O)CNCC(O)COc1ccc(OCCn2cc[nH+]c2)cc1 (protonated)
CCOC(=O)CNC[C@@H](O)COc1ccc(OCCn2cc[nH+]c2)cc1 (chirality)
CCOC(=O)CNC[C@@H](O)COc1ccc(OCCn2cc[nH+]c2)cc1 (3D coordinates assigned)
CCOC(=O)CNC[C@@H](O)COc1ccc(OCCn2cc[nH+]c2)cc1 (optimized conformer: 73.76245397337208 kcal/mol)

>  <smiles>  (20) 
CCOC(=O)CNCC(O)COc1ccc(OCCn2ccnc2)cc1

>  <score_type>  (20) 
oracle

>  <origin>  (20) 
adg

>  <m_score__min__energy>  (20) 
-6.4000000000000004

>  <m_primary>  (20) 
energy

$$$$
20:0
     RDKit          3D

 40 42  0  0  0  0  0  0  0  0999 V2000
   58.6651   35.8786   44.6934 H   0  0  0  0  0  0  0  0  0  0  0  0
   58.9150   34.9310   45.1930 C   0  0  0  0  0  0  0  0  0  0  0  0
   60.0140   34.8690   46.0490 C   0  0  0  0  0  0  0  0  0  0  0  0
   60.6250   35.7675   46.2204 H   0  0  0  0  0  0  0  0  0  0  0  0
   60.3450   33.6670   46.6930 C   0  0  0  0  0  0  0  0  0  0  0  0
   61.5150   33.5990   47.6060 C   0  0  0  0  0  0  0  0  0  0  0  0
   61.3710   33.8970   48.9740 C   0  0  0  0  0  0  0  0  0  0  0  0
   60.3852   34.1823   49.3700 H   0  0  0  0  0  0  0  0  0  0  0  0
   62.4720   33.8330   49.8330 C   0  0  0  0  0  0  0  0  0  0  0  0
   62.3494   34.0790   50.8981 H   0  0  0  0  0  0  0  0  0  0  0  0
   63.7320   33.4570   49.3450 C   0  0  0  0  0  0  0  0  0  0  0  0
   64.8890   33.4070   50.2610 C   0  0  0  0  0  0  0  0  0  0  0  0
   64.9370   34.2110   51.2300 O   0  0  0  0  0  0  0  0  0  0  0  0
   65.9440   32.4480   50.1090 N   0  0  0  0  0  0  0  0  0  0  0  0
   67.1940   32.4620   50.8590 C   0  0  0  0  0  0  0  0  0  0  0  0
   67.7914   31.5780   50.5914 H   0  0  0  0  0  0  0  0  0  0  0  0
   66.9736   32.4451   51.9366 H   0  0  0  0  0  0  0  0  0  0  0  0
   67.9770   33.7230   50.5230 C   0  0  0  0  0  0  0  0  0  0  0  0
   68.2864   34.2213   51.4535 H   0  0  0  0  0  0  0  0  0  0  0  0
   68.8683   33.4558   49.9363 H   0  0  0  0  0  0  0  0  0  0  0  0
   67.3422   34.4033   49.9363 H   0  0  0  0  0  0  0  0  0  0  0  0
   63.8840   33.1820   47.9780 C   0  0  0  0  0  0  0  0  0  0  0  0
   64.8741   32.9136   47.5809 H   0  0  0  0  0  0  0  0  0  0  0  0
   62.7850   33.2470   47.1180 C   0  0  0  0  0  0  0  0  0  0  0  0
   62.9149   33.0207   46.0494 H   0  0  0  0  0  0  0  0  0  0  0  0
   59.5520   32.5280   46.4620 C   0  0  0  0  0  0  0  0  0  0  0  0
   59.8049   31.5826   46.9642 H   0  0  0  0  0  0  0  0  0  0  0  0
   58.4400   32.5770   45.5990 C   0  0  0  0  0  0  0  0  0  0  0  0
   57.6350   31.3450   45.3840 C   0  0  0  0  0  0  0  0  0  0  0  0
   56.4520   31.3410   44.7200 N   0  0  0  0  0  0  0  0  0  0  0  0
   55.8830   30.1390   44.6330 N   0  0  0  0  0  0  0  0  0  0  0  0
   56.6050   29.1690   45.2280 C   0  0  0  0  0  0  0  0  0  0  0  0
   56.2210   27.9290   45.2520 N   0  0  0  0  0  0  0  0  0  0  0  0
   57.0480   26.8300   45.7360 C   0  0  0  0  0  0  0  0  0  0  0  0
   57.0490   26.8287   46.8360 H   0  0  0  0  0  0  0  0  0  0  0  0
   56.6418   25.8761   45.3686 H   0  0  0  0  0  0  0  0  0  0  0  0
   58.0771   26.9561   45.3686 H   0  0  0  0  0  0  0  0  0  0  0  0
   58.0230   29.7820   45.9050 S   0  0  0  0  0  0  0  0  0  0  0  0
   58.1290   33.7990   44.9650 C   0  0  0  0  0  0  0  0  0  0  0  0
   57.0690   33.9160   44.1270 F   0  0  0  0  0  0  0  0  0  0  0  0
  1  2  1  0
  2  3  2  0
  3  4  1  0
  3  5  1  0
  5  6  1  0
  6  7  2  0
  7  8  1  0
  7  9  1  0
  9 10  1  0
  9 11  2  0
 11 12  1  0
 12 13  2  0
 12 14  1  0
 14 15  1  0
 15 16  1  0
 15 17  1  0
 15 18  1  0
 18 19  1  0
 18 20  1  0
 18 21  1  0
 11 22  1  0
 22 23  1  0
 22 24  2  0
 24 25  1  0
  5 26  2  0
 26 27  1  0
 26 28  1  0
 28 29  1  0
 29 30  2  0
 30 31  1  0
 31 32  1  0
 32 33  2  0
 33 34  1  0
 34 35  1  0
 34 36  1  0
 34 37  1  0
 32 38  1  0
 28 39  2  0
 39 40  1  0
 39  2  1  0
 24  6  1  0
 38 29  1  0
M  CHG  2  14  -1  31  -1
M  END
>  <UniqueID>  (21) 
20

>  <SMILES>  (21) 
CC[N-]C(=O)c1ccc(-c2ccc(F)c(-c3n[n-]/c(=N/C)s3)c2)cc1

>  <Energy>  (21) 
84.66491367531361

>  <Genealogy>  (21) 
CC[N-]C(=O)c1ccc(-c2ccc(F)c(-c3n[n-]c(=NC)s3)c2)cc1 (protonated)
CC[N-]C(=O)c1ccc(-c2ccc(F)c(-c3n[n-]/c(=N/C)s3)c2)cc1 (cis-trans isomerization)
CC[N-]C(=O)c1ccc(-c2ccc(F)c(-c3n[n-]/c(=N/C)s3)c2)cc1 (3D coordinates assigned)
CC[N-]C(=O)c1ccc(-c2ccc(F)c(-c3n[n-]/c(=N/C)s3)c2)cc1 (optimized conformer: 84.66491367531361 kcal/mol)

>  <smiles>  (21) 
CCNC(=O)c1ccc(-c2ccc(F)c(-c3n[nH]c(=NC)s3)c2)cc1

>  <score_type>  (21) 
oracle

>  <origin>  (21) 
adg

>  <m_score__min__energy>  (21) 
-10.82

>  <m_primary>  (21) 
energy

$$$$
21:0
     RDKit          3D

 37 37  0  0  0  0  0  0  0  0999 V2000
   57.7410   31.9710   42.2850 C   0  0  0  0  0  0  0  0  0  0  0  0
   56.8050   30.9820   42.6950 O   0  0  0  0  0  0  0  0  0  0  0  0
   56.6800   30.5660   44.0250 C   0  0  0  0  0  0  0  0  0  0  0  0
   55.5410   30.2900   44.4910 O   0  0  0  0  0  0  0  0  0  0  0  0
   57.8840   30.4530   44.8760 C   0  0  0  0  0  0  0  0  0  0  0  0
   58.7660   29.3830   44.9350 C   0  0  0  0  0  0  0  0  0  0  0  0
   58.7130   28.1050   44.1580 C   0  0  0  0  0  0  0  0  0  0  0  0
   59.7230   29.7120   45.8740 C   0  0  0  0  0  0  0  0  0  0  0  0
   59.4630   30.9000   46.3660 O   0  0  0  0  0  0  0  0  0  0  0  0
   58.3790   31.3770   45.7950 C   0  0  0  0  0  0  0  0  0  0  0  0
   57.7990   32.7130   46.1580 C   0  0  0  0  0  0  0  0  0  0  0  0
   58.8190   33.8290   45.9200 C   0  0  0  0  0  0  0  0  0  0  0  0
   60.1700   33.3570   46.2160 N   0  0  0  0  0  0  0  0  0  0  0  0
   60.9300   33.8430   47.3330 C   0  0  0  0  0  0  0  0  0  0  0  0
   60.4190   34.6740   48.1320 O   0  0  0  0  0  0  0  0  0  0  0  0
   62.3370   33.3550   47.5620 C   0  0  0  0  0  0  0  0  0  0  0  0
   63.2630   33.8500   46.4470 C   0  0  0  0  0  0  0  0  0  0  0  0
   62.3650   31.8260   47.6580 C   0  0  0  0  0  0  0  0  0  0  0  0
   58.1879   32.4432   43.1723 H   0  0  0  0  0  0  0  0  0  0  0  0
   58.5319   31.5001   41.6828 H   0  0  0  0  0  0  0  0  0  0  0  0
   57.2273   32.7348   41.6828 H   0  0  0  0  0  0  0  0  0  0  0  0
   58.6777   27.2539   44.8540 H   0  0  0  0  0  0  0  0  0  0  0  0
   57.8138   28.0981   43.5245 H   0  0  0  0  0  0  0  0  0  0  0  0
   59.6085   28.0237   43.5245 H   0  0  0  0  0  0  0  0  0  0  0  0
   60.5723   29.0763   46.1647 H   0  0  0  0  0  0  0  0  0  0  0  0
   56.9086   32.9000   45.5398 H   0  0  0  0  0  0  0  0  0  0  0  0
   57.5285   32.7029   47.2242 H   0  0  0  0  0  0  0  0  0  0  0  0
   58.7688   34.1475   44.8683 H   0  0  0  0  0  0  0  0  0  0  0  0
   58.5835   34.6745   46.5830 H   0  0  0  0  0  0  0  0  0  0  0  0
   60.5700   32.6020   45.6160 H   0  0  0  0  0  0  0  0  0  0  0  0
   62.7000   33.7645   48.5162 H   0  0  0  0  0  0  0  0  0  0  0  0
   64.1505   34.3244   46.8911 H   0  0  0  0  0  0  0  0  0  0  0  0
   63.5752   32.9985   45.8246 H   0  0  0  0  0  0  0  0  0  0  0  0
   62.7284   34.5826   45.8246 H   0  0  0  0  0  0  0  0  0  0  0  0
   62.3705   31.5251   48.7160 H   0  0  0  0  0  0  0  0  0  0  0  0
   61.4743   31.4112   47.1634 H   0  0  0  0  0  0  0  0  0  0  0  0
   63.2703   31.4441   47.1634 H   0  0  0  0  0  0  0  0  0  0  0  0
  1  2  1  0
  2  3  1  0
  3  4  2  0
  3  5  1  0
  5  6  1  0
  6  7  1  0
  6  8  2  0
  8  9  1  0
  9 10  1  0
 10 11  1  0
 11 12  1  0
 12 13  1  0
 13 14  1  0
 14 15  2  0
 14 16  1  0
 16 17  1  0
 16 18  1  0
 10  5  2  0
  1 19  1  0
  1 20  1  0
  1 21  1  0
  7 22  1  0
  7 23  1  0
  7 24  1  0
  8 25  1  0
 11 26  1  0
 11 27  1  0
 12 28  1  0
 12 29  1  0
 13 30  1  0
 16 31  1  0
 17 32  1  0
 17 33  1  0
 17 34  1  0
 18 35  1  0
 18 36  1  0
 18 37  1  0
M  END
>  <UniqueID>  (22) 
21

>  <SMILES>  (22) 
COC(=O)c1c(C)coc1CCNC(=O)C(C)C

>  <Energy>  (22) 
48.25370915588552

>  <Genealogy>  (22) 
COC(=O)c1c(C)coc1CCNC(=O)C(C)C (3D coordinates assigned)
COC(=O)c1c(C)coc1CCNC(=O)C(C)C (optimized conformer: 48.25370915588552 kcal/mol)

>  <smiles>  (22) 
COC(=O)c1c(C)coc1CCNC(=O)C(C)C

>  <score_type>  (22) 
oracle

>  <origin>  (22) 
adg

>  <m_score__min__energy>  (22) 
-5.5499999999999998

>  <m_primary>  (22) 
energy

$$$$
22:0
     RDKit          3D

 49 52  0  0  0  0  0  0  0  0999 V2000
   62.0860   33.0170   47.7540 C   0  0  0  0  0  0  0  0  0  0  0  0
   61.1720   34.1260   47.4410 N   0  0  0  0  0  0  0  0  0  0  0  0
   60.7640   34.0700   46.0180 C   0  0  0  0  0  0  0  0  0  0  0  0
   59.4670   34.8570   45.7820 C   0  0  0  0  0  0  0  0  0  0  0  0
   58.3260   34.3110   46.5620 N   0  0  0  0  0  0  0  0  0  0  0  0
   57.4400   33.4860   45.7140 C   0  0  0  0  0  0  0  0  0  0  0  0
   57.9530   32.0820   45.6130 C   0  0  0  0  0  0  0  0  0  0  0  0
   57.1540   30.9950   45.6180 N   0  0  0  0  0  0  0  0  0  0  0  0
   58.0440   29.9810   45.5750 C   0  0  0  0  0  0  0  0  0  0  0  0
   59.3150   30.4450   45.5460 N   0  0  0  0  0  0  0  0  0  0  0  0
   59.2600   31.7650   45.5940 N   0  0  0  0  0  0  0  0  0  0  0  0
   60.5710   29.7200   45.7200 C   0  0  0  0  0  0  0  0  0  0  0  0
   60.4140   28.2190   45.4890 C   0  0  0  0  0  0  0  0  0  0  0  0
   59.6430   27.5560   46.6270 C   0  0  0  0  0  0  0  0  0  0  0  0
   58.2050   27.5530   46.3530 N   0  0  0  0  0  0  0  0  0  0  0  0
   57.3360   26.6410   47.1070 C   0  0  0  0  0  0  0  0  0  0  0  0
   56.6490   25.6900   46.1780 C   0  0  0  0  0  0  0  0  0  0  0  0
   57.2450   24.9820   45.1550 C   0  0  0  0  0  0  0  0  0  0  0  0
   56.2290   24.2670   44.5590 C   0  0  0  0  0  0  0  0  0  0  0  0
   55.0790   24.5830   45.2520 C   0  0  0  0  0  0  0  0  0  0  0  0
   55.3610   25.4360   46.2100 O   0  0  0  0  0  0  0  0  0  0  0  0
   57.6070   28.5710   45.5320 C   0  0  0  0  0  0  0  0  0  0  0  0
   56.7640   28.2370   44.6560 O   0  0  0  0  0  0  0  0  0  0  0  0
   58.7500   33.5730   47.7790 C   0  0  0  0  0  0  0  0  0  0  0  0
   60.0290   34.1690   48.3860 C   0  0  0  0  0  0  0  0  0  0  0  0
   62.1735   32.9108   48.8454 H   0  0  0  0  0  0  0  0  0  0  0  0
   61.6910   32.0841   47.3254 H   0  0  0  0  0  0  0  0  0  0  0  0
   63.0771   33.2266   47.3254 H   0  0  0  0  0  0  0  0  0  0  0  0
   61.5636   34.5015   45.3980 H   0  0  0  0  0  0  0  0  0  0  0  0
   60.5882   33.0186   45.7467 H   0  0  0  0  0  0  0  0  0  0  0  0
   59.6295   35.9037   46.0785 H   0  0  0  0  0  0  0  0  0  0  0  0
   59.2140   34.7764   44.7145 H   0  0  0  0  0  0  0  0  0  0  0  0
   56.4321   33.4705   46.1543 H   0  0  0  0  0  0  0  0  0  0  0  0
   57.4116   33.9235   44.7051 H   0  0  0  0  0  0  0  0  0  0  0  0
   61.3075   30.1125   45.0034 H   0  0  0  0  0  0  0  0  0  0  0  0
   60.9014   29.8665   46.7589 H   0  0  0  0  0  0  0  0  0  0  0  0
   59.8699   28.0573   44.5467 H   0  0  0  0  0  0  0  0  0  0  0  0
   61.4171   27.7698   45.4438 H   0  0  0  0  0  0  0  0  0  0  0  0
   59.9900   26.5183   46.7402 H   0  0  0  0  0  0  0  0  0  0  0  0
   59.8230   28.1249   47.5511 H   0  0  0  0  0  0  0  0  0  0  0  0
   57.9442   26.0711   47.8249 H   0  0  0  0  0  0  0  0  0  0  0  0
   56.5763   27.2308   47.6408 H   0  0  0  0  0  0  0  0  0  0  0  0
   58.3085   24.9872   44.8739 H   0  0  0  0  0  0  0  0  0  0  0  0
   56.3173   23.5820   43.7028 H   0  0  0  0  0  0  0  0  0  0  0  0
   54.0780   24.1816   45.0353 H   0  0  0  0  0  0  0  0  0  0  0  0
   57.9438   33.6231   48.5257 H   0  0  0  0  0  0  0  0  0  0  0  0
   58.9580   32.5311   47.4941 H   0  0  0  0  0  0  0  0  0  0  0  0
   59.8358   35.2165   48.6605 H   0  0  0  0  0  0  0  0  0  0  0  0
   60.2967   33.5666   49.2666 H   0  0  0  0  0  0  0  0  0  0  0  0
  1  2  1  0
  2  3  1  0
  3  4  1  0
  4  5  1  0
  5  6  1  0
  6  7  1  0
  7  8  1  0
  8  9  2  0
  9 10  1  0
 10 11  1  0
 10 12  1  0
 12 13  1  0
 13 14  1  0
 14 15  1  0
 15 16  1  0
 16 17  1  0
 17 18  2  0
 18 19  1  0
 19 20  2  0
 20 21  1  0
 15 22  1  0
 22 23  2  0
  5 24  1  0
 24 25  1  0
 25  2  1  0
 11  7  2  0
 21 17  1  0
 22  9  1  0
  1 26  1  0
  1 27  1  0
  1 28  1  0
  3 29  1  0
  3 30  1  0
  4 31  1  0
  4 32  1  0
  6 33  1  0
  6 34  1  0
 12 35  1  0
 12 36  1  0
 13 37  1  0
 13 38  1  0
 14 39  1  0
 14 40  1  0
 16 41  1  0
 16 42  1  0
 18 43  1  0
 19 44  1  0
 20 45  1  0
 24 46  1  0
 24 47  1  0
 25 48  1  0
 25 49  1  0
M  END
>  <UniqueID>  (23) 
22

>  <SMILES>  (23) 
CN1CCN(Cc2nc3n(n2)CCCN(Cc2ccco2)C3=O)CC1

>  <Energy>  (23) 
124.66637704288637

>  <Genealogy>  (23) 
CN1CCN(Cc2nc3n(n2)CCCN(Cc2ccco2)C3=O)CC1 (3D coordinates assigned)
CN1CCN(Cc2nc3n(n2)CCCN(Cc2ccco2)C3=O)CC1 (nonaromatic ring conformer: 124.66637704288637 kcal/mol)

>  <smiles>  (23) 
CN1CCN(Cc2nc3n(n2)CCCN(Cc2ccco2)C3=O)CC1

>  <score_type>  (23) 
oracle

>  <origin>  (23) 
adg

>  <m_score__min__energy>  (23) 
-6.5499999999999998

>  <m_primary>  (23) 
energy

$$$$
23:0
     RDKit          3D

 64 66  0  0  0  0  0  0  0  0999 V2000
   56.6080   22.1940   42.9680 C   0  0  0  0  0  0  0  0  0  0  0  0
   56.5220   23.6310   43.4710 C   0  0  0  0  0  0  0  0  0  0  0  0
   55.8090   23.7030   44.8260 C   0  0  0  0  0  0  0  0  0  0  0  0
   56.5280   24.6140   45.7280 N   0  0  0  0  0  0  0  0  0  0  0  0
   57.6480   24.0990   46.5320 C   0  0  0  0  0  0  0  0  0  0  0  0
   58.9420   24.0220   45.7090 C   0  0  0  0  0  0  0  0  0  0  0  0
   59.9220   25.1420   46.0590 C   0  0  0  0  0  0  0  0  0  0  0  0
   56.0120   25.9420   45.9500 C   0  0  0  0  0  0  0  0  0  0  0  0
   54.7650   26.1240   45.9950 O   0  0  0  0  0  0  0  0  0  0  0  0
   56.9150   27.1050   46.1020 C   0  0  0  0  0  0  0  0  0  0  0  0
   57.8390   27.1540   47.1560 C   0  0  0  0  0  0  0  0  0  0  0  0
   58.6870   28.2610   47.3160 C   0  0  0  0  0  0  0  0  0  0  0  0
   59.6470   28.3030   48.4430 C   0  0  0  0  0  0  0  0  0  0  0  0
   60.3440   27.2850   48.7050 O   0  0  0  0  0  0  0  0  0  0  0  0
   59.7860   29.4860   49.2460 N   0  0  0  0  0  0  0  0  0  0  0  0
   60.9230   29.6740   50.1540 C   0  0  2  0  0  0  0  0  0  0  0  0
   60.4390   30.0970   51.5450 C   0  0  0  0  0  0  0  0  0  0  0  0
   61.8720   30.7130   49.5950 C   0  0  0  0  0  0  0  0  0  0  0  0
   62.9260   31.2050   50.3840 C   0  0  0  0  0  0  0  0  0  0  0  0
   63.8090   32.1590   49.8680 C   0  0  0  0  0  0  0  0  0  0  0  0
   63.6430   32.6340   48.5620 C   0  0  0  0  0  0  0  0  0  0  0  0
   64.5030   33.5550   48.0600 F   0  0  0  0  0  0  0  0  0  0  0  0
   62.5910   32.1610   47.7750 C   0  0  0  0  0  0  0  0  0  0  0  0
   61.7050   31.2110   48.2900 C   0  0  0  0  0  0  0  0  0  0  0  0
   58.6300   29.3080   46.3820 C   0  0  0  0  0  0  0  0  0  0  0  0
   57.7220   29.2670   45.3090 C   0  0  0  0  0  0  0  0  0  0  0  0
   57.6660   30.3820   44.3280 C   0  0  0  0  0  0  0  0  0  0  0  0
   57.0260   30.2090   43.0850 C   0  0  0  0  0  0  0  0  0  0  0  0
   56.9740   31.2580   42.1630 C   0  0  0  0  0  0  0  0  0  0  0  0
   57.5580   32.4900   42.4690 C   0  0  0  0  0  0  0  0  0  0  0  0
   58.1930   32.6750   43.7000 C   0  0  0  0  0  0  0  0  0  0  0  0
   58.2490   31.6290   44.6250 C   0  0  0  0  0  0  0  0  0  0  0  0
   56.8690   28.1570   45.1760 C   0  0  0  0  0  0  0  0  0  0  0  0
   56.6491   21.5070   43.8261 H   0  0  0  0  0  0  0  0  0  0  0  0
   55.7219   21.9656   42.3575 H   0  0  0  0  0  0  0  0  0  0  0  0
   57.5150   22.0729   42.3575 H   0  0  0  0  0  0  0  0  0  0  0  0
   57.5395   24.0346   43.5792 H   0  0  0  0  0  0  0  0  0  0  0  0
   55.9458   24.2207   42.7428 H   0  0  0  0  0  0  0  0  0  0  0  0
   54.7834   24.0720   44.6781 H   0  0  0  0  0  0  0  0  0  0  0  0
   55.7848   22.6985   45.2736 H   0  0  0  0  0  0  0  0  0  0  0  0
   57.8094   24.7679   47.3902 H   0  0  0  0  0  0  0  0  0  0  0  0
   57.3926   23.0838   46.8698 H   0  0  0  0  0  0  0  0  0  0  0  0
   59.4274   23.0542   45.9034 H   0  0  0  0  0  0  0  0  0  0  0  0
   58.6722   24.1314   44.6482 H   0  0  0  0  0  0  0  0  0  0  0  0
   60.0007   25.2319   47.1525 H   0  0  0  0  0  0  0  0  0  0  0  0
   60.9111   24.9085   45.6382 H   0  0  0  0  0  0  0  0  0  0  0  0
   59.5593   26.0914   45.6382 H   0  0  0  0  0  0  0  0  0  0  0  0
   57.8998   26.3154   47.8653 H   0  0  0  0  0  0  0  0  0  0  0  0
   59.0500   30.2260   49.1890 H   0  0  0  0  0  0  0  0  0  0  0  0
   61.4559   28.7161   50.2462 H   0  0  0  0  0  0  0  0  0  0  0  0
   61.0320   29.5787   52.3129 H   0  0  0  0  0  0  0  0  0  0  0  0
   60.5598   31.1842   51.6603 H   0  0  0  0  0  0  0  0  0  0  0  0
   59.3777   29.8317   51.6603 H   0  0  0  0  0  0  0  0  0  0  0  0
   63.0571   30.8378   51.4126 H   0  0  0  0  0  0  0  0  0  0  0  0
   64.6347   32.5363   50.4892 H   0  0  0  0  0  0  0  0  0  0  0  0
   62.4597   32.5363   46.7494 H   0  0  0  0  0  0  0  0  0  0  0  0
   60.8709   30.8500   47.6704 H   0  0  0  0  0  0  0  0  0  0  0  0
   59.3038   30.1707   46.4910 H   0  0  0  0  0  0  0  0  0  0  0  0
   56.5640   29.2416   42.8384 H   0  0  0  0  0  0  0  0  0  0  0  0
   56.4725   31.1135   41.1947 H   0  0  0  0  0  0  0  0  0  0  0  0
   57.5179   33.3139   41.7412 H   0  0  0  0  0  0  0  0  0  0  0  0
   58.6498   33.6461   43.9414 H   0  0  0  0  0  0  0  0  0  0  0  0
   58.7518   31.7807   45.5915 H   0  0  0  0  0  0  0  0  0  0  0  0
   56.1586   28.1135   44.3373 H   0  0  0  0  0  0  0  0  0  0  0  0
  1  2  1  0
  2  3  1  0
  3  4  1  0
  4  5  1  0
  5  6  1  0
  6  7  1  0
  4  8  1  0
  8  9  2  0
  8 10  1  0
 10 11  2  0
 11 12  1  0
 12 13  1  0
 13 14  2  0
 13 15  1  0
 15 16  1  0
 16 17  1  0
 16 18  1  0
 18 19  2  0
 19 20  1  0
 20 21  2  0
 21 22  1  0
 21 23  1  0
 23 24  2  0
 12 25  2  0
 25 26  1  0
 26 27  1  0
 27 28  2  0
 28 29  1  0
 29 30  2  0
 30 31  1  0
 31 32  2  0
 26 33  2  0
 33 10  1  0
 24 18  1  0
 32 27  1  0
  1 34  1  0
  1 35  1  0
  1 36  1  0
  2 37  1  0
  2 38  1  0
  3 39  1  0
  3 40  1  0
  5 41  1  0
  5 42  1  0
  6 43  1  0
  6 44  1  0
  7 45  1  0
  7 46  1  0
  7 47  1  0
 11 48  1  0
 15 49  1  0
 16 50  1  1
 17 51  1  0
 17 52  1  0
 17 53  1  0
 19 54  1  0
 20 55  1  0
 23 56  1  0
 24 57  1  0
 25 58  1  0
 28 59  1  0
 29 60  1  0
 30 61  1  0
 31 62  1  0
 32 63  1  0
 33 64  1  0
M  END
>  <UniqueID>  (24) 
23

>  <SMILES>  (24) 
CCCN(CCC)C(=O)c1cc(C(=O)N[C@H](C)c2ccc(F)cc2)cc(-c2ccccc2)c1

>  <Energy>  (24) 
63.1402484144593

>  <Genealogy>  (24) 
CCCN(CCC)C(=O)c1cc(C(=O)N[C@H](C)c2ccc(F)cc2)cc(-c2ccccc2)c1 (chirality)
CCCN(CCC)C(=O)c1cc(C(=O)N[C@H](C)c2ccc(F)cc2)cc(-c2ccccc2)c1 (3D coordinates assigned)
CCCN(CCC)C(=O)c1cc(C(=O)N[C@H](C)c2ccc(F)cc2)cc(-c2ccccc2)c1 (optimized conformer: 63.1402484144593 kcal/mol)

>  <smiles>  (24) 
CCCN(CCC)C(=O)c1cc(C(=O)NC(C)c2ccc(F)cc2)cc(-c2ccccc2)c1

>  <score_type>  (24) 
oracle

>  <origin>  (24) 
adg

>  <m_score__min__energy>  (24) 
-9.6400000000000006

>  <m_primary>  (24) 
energy

$$$$
24:0
     RDKit          3D

 43 44  0  0  0  0  0  0  0  0999 V2000
   57.4140   32.3390   41.0860 C   0  0  0  0  0  0  0  0  0  0  0  0
   57.3130   31.4210   42.1700 O   0  0  0  0  0  0  0  0  0  0  0  0
   57.8130   31.6530   43.4630 C   0  0  0  0  0  0  0  0  0  0  0  0
   58.0190   32.9540   43.9550 C   0  0  0  0  0  0  0  0  0  0  0  0
   58.5260   33.1650   45.2460 C   0  0  0  0  0  0  0  0  0  0  0  0
   58.8740   32.0560   46.0470 C   0  0  0  0  0  0  0  0  0  0  0  0
   58.6530   30.7600   45.5630 C   0  0  0  0  0  0  0  0  0  0  0  0
   58.1170   30.5450   44.2820 C   0  0  0  0  0  0  0  0  0  0  0  0
   57.9360   29.1960   43.8000 N   0  0  0  0  0  0  0  0  0  0  0  0
   59.1150   28.3800   44.1260 C   0  0  0  0  0  0  0  0  0  0  0  0
   58.7400   27.1720   45.0140 C   0  0  0  0  0  0  0  0  0  0  0  0
   57.6220   27.4920   45.9290 N   0  0  0  0  0  0  0  0  0  0  0  0
   56.6880   26.3570   46.0450 C   0  0  0  0  0  0  0  0  0  0  0  0
   58.1470   27.8330   47.2610 C   0  0  0  0  0  0  0  0  0  0  0  0
   59.3830   32.2280   47.4600 C   0  0  0  0  0  0  0  0  0  0  0  0
   59.9440   33.6290   47.7180 C   0  0  0  0  0  0  0  0  0  0  0  0
   58.9700   34.6930   47.2170 C   0  0  0  0  0  0  0  0  0  0  0  0
   58.7940   34.5830   45.7000 C   0  0  0  0  0  0  0  0  0  0  0  0
   57.5263   33.3601   41.4795 H   0  0  0  0  0  0  0  0  0  0  0  0
   58.2896   32.0848   40.4706 H   0  0  0  0  0  0  0  0  0  0  0  0
   56.5041   32.2812   40.4706 H   0  0  0  0  0  0  0  0  0  0  0  0
   57.7792   33.8186   43.3186 H   0  0  0  0  0  0  0  0  0  0  0  0
   58.9033   29.8962   46.1964 H   0  0  0  0  0  0  0  0  0  0  0  0
   57.7870   29.2040   42.7630 H   0  0  0  0  0  0  0  0  0  0  0  0
   57.0780   28.7810   44.2310 H   0  0  0  0  0  0  0  0  0  0  0  0
   59.5638   28.0112   43.1919 H   0  0  0  0  0  0  0  0  0  0  0  0
   59.8269   29.0085   44.6811 H   0  0  0  0  0  0  0  0  0  0  0  0
   58.4428   26.3330   44.3677 H   0  0  0  0  0  0  0  0  0  0  0  0
   59.6172   26.9086   45.6232 H   0  0  0  0  0  0  0  0  0  0  0  0
   56.5076   26.1378   47.1077 H   0  0  0  0  0  0  0  0  0  0  0  0
   55.7363   26.6139   45.5569 H   0  0  0  0  0  0  0  0  0  0  0  0
   57.1233   25.4725   45.5569 H   0  0  0  0  0  0  0  0  0  0  0  0
   57.4907   27.4067   48.0340 H   0  0  0  0  0  0  0  0  0  0  0  0
   59.1606   27.4204   47.3723 H   0  0  0  0  0  0  0  0  0  0  0  0
   58.1821   28.9268   47.3723 H   0  0  0  0  0  0  0  0  0  0  0  0
   58.5523   32.0472   48.1580 H   0  0  0  0  0  0  0  0  0  0  0  0
   60.2020   31.5089   47.6086 H   0  0  0  0  0  0  0  0  0  0  0  0
   60.1026   33.7627   48.7983 H   0  0  0  0  0  0  0  0  0  0  0  0
   60.8974   33.7363   47.1799 H   0  0  0  0  0  0  0  0  0  0  0  0
   57.9951   34.5512   47.7063 H   0  0  0  0  0  0  0  0  0  0  0  0
   59.3728   35.6877   47.4585 H   0  0  0  0  0  0  0  0  0  0  0  0
   57.9468   35.2159   45.3970 H   0  0  0  0  0  0  0  0  0  0  0  0
   59.7337   34.9106   45.2313 H   0  0  0  0  0  0  0  0  0  0  0  0
  1  2  1  0
  2  3  1  0
  3  4  2  0
  4  5  1  0
  5  6  2  0
  6  7  1  0
  7  8  2  0
  8  9  1  0
  9 10  1  0
 10 11  1  0
 11 12  1  0
 12 13  1  0
 12 14  1  0
  6 15  1  0
 15 16  1  0
 16 17  1  0
 17 18  1  0
  8  3  1  0
 18  5  1  0
  1 19  1  0
  1 20  1  0
  1 21  1  0
  4 22  1  0
  7 23  1  0
  9 24  1  0
  9 25  1  0
 10 26  1  0
 10 27  1  0
 11 28  1  0
 11 29  1  0
 13 30  1  0
 13 31  1  0
 13 32  1  0
 14 33  1  0
 14 34  1  0
 14 35  1  0
 15 36  1  0
 15 37  1  0
 16 38  1  0
 16 39  1  0
 17 40  1  0
 17 41  1  0
 18 42  1  0
 18 43  1  0
M  CHG  1   9   1
M  END
>  <UniqueID>  (25) 
24

>  <SMILES>  (25) 
COc1cc2c(cc1[NH2+]CCN(C)C)CCCC2

>  <Energy>  (25) 
42.47622837780024

>  <Genealogy>  (25) 
COc1cc2c(cc1[NH2+]CCN(C)C)CCCC2 (protonated)
COc1cc2c(cc1[NH2+]CCN(C)C)CCCC2 (3D coordinates assigned)
COc1cc2c(cc1[NH2+]CCN(C)C)CCCC2 (nonaromatic ring conformer: 42.47622837780024 kcal/mol)

>  <smiles>  (25) 
COc1cc2c(cc1NCCN(C)C)CCCC2

>  <score_type>  (25) 
oracle

>  <origin>  (25) 
adg

>  <m_score__min__energy>  (25) 
-4.2699999999999996

>  <m_primary>  (25) 
energy

$$$$
25:0
     RDKit          3D

 41 43  0  0  0  0  0  0  0  0999 V2000
   52.5180   23.2000   45.6960 C   0  0  0  0  0  0  0  0  0  0  0  0
   53.2650   24.4490   45.2400 C   0  0  0  0  0  0  0  0  0  0  0  0
   54.7170   24.2080   45.2410 N   0  0  0  0  0  0  0  0  0  0  0  0
   55.2460   22.9870   44.6130 C   0  0  0  0  0  0  0  0  0  0  0  0
   56.1210   23.3300   43.4110 C   0  0  0  0  0  0  0  0  0  0  0  0
   55.6050   25.2050   45.7990 C   0  0  0  0  0  0  0  0  0  0  0  0
   55.1660   26.3610   46.0510 O   0  0  0  0  0  0  0  0  0  0  0  0
   56.9740   24.8880   46.1030 N   0  0  0  0  0  0  0  0  0  0  0  0
   58.0210   25.8720   46.1640 C   0  0  0  0  0  0  0  0  0  0  0  0
   59.3470   25.4560   46.3500 C   0  0  0  0  0  0  0  0  0  0  0  0
   60.3820   26.3920   46.3920 C   0  0  0  0  0  0  0  0  0  0  0  0
   60.1060   27.7520   46.2360 C   0  0  0  0  0  0  0  0  0  0  0  0
   58.7880   28.1880   46.0270 C   0  0  0  0  0  0  0  0  0  0  0  0
   58.4900   29.6230   45.8440 C   0  0  0  0  0  0  0  0  0  0  0  0
   57.3220   30.0850   45.3110 N   0  0  0  0  0  0  0  0  0  0  0  0
   57.5170   31.4120   45.3480 C   0  0  0  0  0  0  0  0  0  0  0  0
   56.6520   32.3700   44.9320 N   0  0  0  0  0  0  0  0  0  0  0  0
   57.0220   33.6830   45.0460 C   0  0  0  0  0  0  0  0  0  0  0  0
   58.2830   34.0310   45.5890 C   0  0  0  0  0  0  0  0  0  0  0  0
   59.1630   33.0190   46.0150 C   0  0  0  0  0  0  0  0  0  0  0  0
   58.7310   31.7070   45.8730 C   0  0  0  0  0  0  0  0  0  0  0  0
   59.3330   30.5910   46.1790 O   0  0  0  0  0  0  0  0  0  0  0  0
   57.7490   27.2420   45.9870 C   0  0  0  0  0  0  0  0  0  0  0  0
   52.4976   23.1658   46.7953 H   0  0  0  0  0  0  0  0  0  0  0  0
   51.4880   23.2277   45.3108 H   0  0  0  0  0  0  0  0  0  0  0  0
   53.0296   22.3057   45.3108 H   0  0  0  0  0  0  0  0  0  0  0  0
   52.9422   24.7129   44.2221 H   0  0  0  0  0  0  0  0  0  0  0  0
   53.0397   25.2725   45.9337 H   0  0  0  0  0  0  0  0  0  0  0  0
   55.8467   22.4339   45.3500 H   0  0  0  0  0  0  0  0  0  0  0  0
   54.4004   22.3732   44.2692 H   0  0  0  0  0  0  0  0  0  0  0  0
   57.0919   23.7106   43.7610 H   0  0  0  0  0  0  0  0  0  0  0  0
   56.2787   22.4271   42.8027 H   0  0  0  0  0  0  0  0  0  0  0  0
   55.6232   24.0995   42.8027 H   0  0  0  0  0  0  0  0  0  0  0  0
   57.2040   23.9130   46.3950 H   0  0  0  0  0  0  0  0  0  0  0  0
   59.5732   24.3855   46.4635 H   0  0  0  0  0  0  0  0  0  0  0  0
   61.4181   26.0572   46.5484 H   0  0  0  0  0  0  0  0  0  0  0  0
   60.9251   28.4851   46.2771 H   0  0  0  0  0  0  0  0  0  0  0  0
   56.3343   34.4744   44.7131 H   0  0  0  0  0  0  0  0  0  0  0  0
   58.5733   35.0883   45.6774 H   0  0  0  0  0  0  0  0  0  0  0  0
   60.1488   33.2565   46.4413 H   0  0  0  0  0  0  0  0  0  0  0  0
   56.7146   27.5750   45.8160 H   0  0  0  0  0  0  0  0  0  0  0  0
  1  2  1  0
  2  3  1  0
  3  4  1  0
  4  5  1  0
  3  6  1  0
  6  7  2  0
  6  8  1  0
  8  9  1  0
  9 10  2  0
 10 11  1  0
 11 12  2  0
 12 13  1  0
 13 14  1  0
 14 15  2  0
 15 16  1  0
 16 17  2  0
 17 18  1  0
 18 19  2  0
 19 20  1  0
 20 21  2  0
 21 22  1  0
 13 23  2  0
 23  9  1  0
 22 14  1  0
 21 16  1  0
  1 24  1  0
  1 25  1  0
  1 26  1  0
  2 27  1  0
  2 28  1  0
  4 29  1  0
  4 30  1  0
  5 31  1  0
  5 32  1  0
  5 33  1  0
  8 34  1  0
 10 35  1  0
 11 36  1  0
 12 37  1  0
 18 38  1  0
 19 39  1  0
 20 40  1  0
 23 41  1  0
M  END
>  <UniqueID>  (26) 
25

>  <SMILES>  (26) 
CCN(CC)C(=O)Nc1cccc(-c2nc3ncccc3o2)c1

>  <Energy>  (26) 
80.33321419446416

>  <Genealogy>  (26) 
CCN(CC)C(=O)Nc1cccc(-c2nc3ncccc3o2)c1 (3D coordinates assigned)
CCN(CC)C(=O)Nc1cccc(-c2nc3ncccc3o2)c1 (optimized conformer: 80.33321419446416 kcal/mol)

>  <smiles>  (26) 
CCN(CC)C(=O)Nc1cccc(-c2nc3ncccc3o2)c1

>  <score_type>  (26) 
oracle

>  <origin>  (26) 
adg

>  <m_score__min__energy>  (26) 
-6.9299999999999997

>  <m_primary>  (26) 
energy

$$$$
26:0
     RDKit          3D

 28 31  0  0  0  0  0  0  0  0999 V2000
   65.2240   32.5850   50.0150 C   0  0  0  0  0  0  0  0  0  0  0  0
   64.4120   31.5610   50.5100 C   0  0  0  0  0  0  0  0  0  0  0  0
   63.2200   31.3000   49.9110 N   0  0  0  0  0  0  0  0  0  0  0  0
   62.8030   32.0190   48.8350 C   0  0  0  0  0  0  0  0  0  0  0  0
   61.5740   31.7430   48.2270 C   0  0  0  0  0  0  0  0  0  0  0  0
   61.1470   32.4960   47.1150 C   0  0  0  0  0  0  0  0  0  0  0  0
   59.8430   32.2050   46.4660 C   0  0  0  0  0  0  0  0  0  0  0  0
   59.0570   33.2620   45.9260 C   0  0  0  0  0  0  0  0  0  0  0  0
   57.8200   32.9980   45.3080 C   0  0  0  0  0  0  0  0  0  0  0  0
   57.3980   31.6760   45.2440 C   0  0  0  0  0  0  0  0  0  0  0  0
   56.2650   31.1940   44.7040 N   0  0  0  0  0  0  0  0  0  0  0  0
   56.2830   29.8740   44.8690 N   0  0  0  0  0  0  0  0  0  0  0  0
   57.4210   29.5180   45.5110 C   0  0  0  0  0  0  0  0  0  0  0  0
   58.1430   30.6580   45.7580 C   0  0  0  0  0  0  0  0  0  0  0  0
   59.3700   30.8730   46.3780 C   0  0  0  0  0  0  0  0  0  0  0  0
   61.9740   33.5260   46.6270 C   0  0  0  0  0  0  0  0  0  0  0  0
   63.2030   33.8020   47.2350 C   0  0  0  0  0  0  0  0  0  0  0  0
   63.6200   33.0520   48.3380 C   0  0  0  0  0  0  0  0  0  0  0  0
   64.8120   33.3090   48.9410 N   0  0  0  0  0  0  0  0  0  0  0  0
   66.1909   32.8038   50.4917 H   0  0  0  0  0  0  0  0  0  0  0  0
   64.7355   30.9696   51.3793 H   0  0  0  0  0  0  0  0  0  0  0  0
   60.9383   30.9351   48.6183 H   0  0  0  0  0  0  0  0  0  0  0  0
   59.4208   34.2980   45.9925 H   0  0  0  0  0  0  0  0  0  0  0  0
   57.2083   33.8110   44.8899 H   0  0  0  0  0  0  0  0  0  0  0  0
   57.7149   28.4943   45.7862 H   0  0  0  0  0  0  0  0  0  0  0  0
   59.9539   30.0352   46.7867 H   0  0  0  0  0  0  0  0  0  0  0  0
   61.6503   34.1193   45.7591 H   0  0  0  0  0  0  0  0  0  0  0  0
   63.8409   34.6089   46.8452 H   0  0  0  0  0  0  0  0  0  0  0  0
  1  2  2  0
  2  3  1  0
  3  4  2  0
  4  5  1  0
  5  6  2  0
  6  7  1  0
  7  8  2  0
  8  9  1  0
  9 10  2  0
 10 11  1  0
 11 12  1  0
 12 13  2  0
 13 14  1  0
 14 15  2  0
  6 16  1  0
 16 17  2  0
 17 18  1  0
 18 19  2  0
 19  1  1  0
 18  4  1  0
 15  7  1  0
 14 10  1  0
  1 20  1  0
  2 21  1  0
  5 22  1  0
  8 23  1  0
  9 24  1  0
 13 25  1  0
 15 26  1  0
 16 27  1  0
 17 28  1  0
M  CHG  1  11  -1
M  END
>  <UniqueID>  (27) 
26

>  <SMILES>  (27) 
c1cnc2cc(-c3ccc4[n-]ncc4c3)ccc2n1

>  <Energy>  (27) 
80.06402719253946

>  <Genealogy>  (27) 
c1cnc2cc(-c3ccc4[n-]ncc4c3)ccc2n1 (protonated)
c1cnc2cc(-c3ccc4[n-]ncc4c3)ccc2n1 (3D coordinates assigned)
c1cnc2cc(-c3ccc4[n-]ncc4c3)ccc2n1 (optimized conformer: 80.06402719253946 kcal/mol)

>  <smiles>  (27) 
c1cnc2cc(-c3ccc4[nH]ncc4c3)ccc2n1

>  <score_type>  (27) 
oracle

>  <origin>  (27) 
adg

>  <m_score__min__energy>  (27) 
-8.4700000000000006

>  <m_primary>  (27) 
energy

$$$$
27:0
     RDKit          3D

 54 55  0  0  0  0  0  0  0  0999 V2000
   59.7070   34.9840   47.3370 C   0  0  0  0  0  0  0  0  0  0  0  0
   59.6420   35.2570   45.9680 C   0  0  0  0  0  0  0  0  0  0  0  0
   58.7720   34.5330   45.1480 C   0  0  0  0  0  0  0  0  0  0  0  0
   57.9590   33.5250   45.6950 C   0  0  0  0  0  0  0  0  0  0  0  0
   57.0430   32.7140   44.8110 C   0  0  0  0  0  0  0  0  0  0  0  0
   57.8130   32.0330   43.6710 C   0  0  0  0  0  0  0  0  0  0  0  0
   57.0400   30.8380   43.0890 C   0  0  0  0  0  0  0  0  0  0  0  0
   56.1830   30.1340   44.1420 C   0  0  0  0  0  0  0  0  0  0  0  0
   57.0170   29.7510   45.2920 N   0  0  0  0  0  0  0  0  0  0  0  0
   57.1920   28.2970   45.4010 C   0  0  0  0  0  0  0  0  0  0  0  0
   58.5980   27.8650   44.9500 C   0  0  0  0  0  0  0  0  0  0  0  0
   59.4940   29.0380   44.5080 C   0  0  0  0  0  0  0  0  0  0  0  0
   60.3830   29.5860   45.6450 C   0  0  0  0  0  0  0  0  0  0  0  0
   59.6900   30.5990   46.4600 N   0  0  0  0  0  0  0  0  0  0  0  0
   60.2710   30.7280   47.8070 C   0  0  0  0  0  0  0  0  0  0  0  0
   61.4900   31.6140   47.7730 C   0  0  0  0  0  0  0  0  0  0  0  0
   61.6280   32.5850   46.7670 C   0  0  0  0  0  0  0  0  0  0  0  0
   62.7420   33.4310   46.7520 C   0  0  0  0  0  0  0  0  0  0  0  0
   63.7210   33.3160   47.7430 C   0  0  0  0  0  0  0  0  0  0  0  0
   63.5850   32.3590   48.7520 C   0  0  0  0  0  0  0  0  0  0  0  0
   62.4740   31.5120   48.7700 C   0  0  0  0  0  0  0  0  0  0  0  0
   58.0390   33.2490   47.0710 C   0  0  0  0  0  0  0  0  0  0  0  0
   58.9060   33.9800   47.8870 C   0  0  0  0  0  0  0  0  0  0  0  0
   60.3883   35.5592   47.9812 H   0  0  0  0  0  0  0  0  0  0  0  0
   60.2771   36.0437   45.5347 H   0  0  0  0  0  0  0  0  0  0  0  0
   58.7233   34.7526   44.0712 H   0  0  0  0  0  0  0  0  0  0  0  0
   56.5509   31.9417   45.4204 H   0  0  0  0  0  0  0  0  0  0  0  0
   56.3027   33.3954   44.3665 H   0  0  0  0  0  0  0  0  0  0  0  0
   57.9866   32.7676   42.8709 H   0  0  0  0  0  0  0  0  0  0  0  0
   58.7632   31.6577   44.0787 H   0  0  0  0  0  0  0  0  0  0  0  0
   56.3844   31.1992   42.2829 H   0  0  0  0  0  0  0  0  0  0  0  0
   57.7756   30.1118   42.7128 H   0  0  0  0  0  0  0  0  0  0  0  0
   55.3873   30.8146   44.4791 H   0  0  0  0  0  0  0  0  0  0  0  0
   55.7372   29.2302   43.7010 H   0  0  0  0  0  0  0  0  0  0  0  0
   56.5400   30.0820   46.1640 H   0  0  0  0  0  0  0  0  0  0  0  0
   57.0442   27.9964   46.4487 H   0  0  0  0  0  0  0  0  0  0  0  0
   56.4539   27.8097   44.7470 H   0  0  0  0  0  0  0  0  0  0  0  0
   59.0889   27.3499   45.7889 H   0  0  0  0  0  0  0  0  0  0  0  0
   58.4684   27.2117   44.0746 H   0  0  0  0  0  0  0  0  0  0  0  0
   60.1446   28.6925   43.6911 H   0  0  0  0  0  0  0  0  0  0  0  0
   58.8297   29.8550   44.1897 H   0  0  0  0  0  0  0  0  0  0  0  0
   60.6789   28.7504   46.2963 H   0  0  0  0  0  0  0  0  0  0  0  0
   61.2585   30.0671   45.1845 H   0  0  0  0  0  0  0  0  0  0  0  0
   59.7100   31.5230   45.9700 H   0  0  0  0  0  0  0  0  0  0  0  0
   58.6880   30.3040   46.5530 H   0  0  0  0  0  0  0  0  0  0  0  0
   59.5230   31.1672   48.4834 H   0  0  0  0  0  0  0  0  0  0  0  0
   60.5659   29.7304   48.1645 H   0  0  0  0  0  0  0  0  0  0  0  0
   60.8571   32.6804   45.9881 H   0  0  0  0  0  0  0  0  0  0  0  0
   62.8476   34.1870   45.9600 H   0  0  0  0  0  0  0  0  0  0  0  0
   64.5986   33.9790   47.7286 H   0  0  0  0  0  0  0  0  0  0  0  0
   64.3541   32.2723   49.5336 H   0  0  0  0  0  0  0  0  0  0  0  0
   62.3695   30.7623   49.5682 H   0  0  0  0  0  0  0  0  0  0  0  0
   57.4163   32.4540   47.5072 H   0  0  0  0  0  0  0  0  0  0  0  0
   58.9581   33.7647   48.9645 H   0  0  0  0  0  0  0  0  0  0  0  0
  1  2  2  0
  2  3  1  0
  3  4  2  0
  4  5  1  0
  5  6  1  0
  6  7  1  0
  7  8  1  0
  8  9  1  0
  9 10  1  0
 10 11  1  0
 11 12  1  0
 12 13  1  0
 13 14  1  0
 14 15  1  0
 15 16  1  0
 16 17  2  0
 17 18  1  0
 18 19  2  0
 19 20  1  0
 20 21  2  0
  4 22  1  0
 22 23  2  0
 23  1  1  0
 21 16  1  0
  1 24  1  0
  2 25  1  0
  3 26  1  0
  5 27  1  0
  5 28  1  0
  6 29  1  0
  6 30  1  0
  7 31  1  0
  7 32  1  0
  8 33  1  0
  8 34  1  0
  9 35  1  0
 10 36  1  0
 10 37  1  0
 11 38  1  0
 11 39  1  0
 12 40  1  0
 12 41  1  0
 13 42  1  0
 13 43  1  0
 14 44  1  0
 14 45  1  0
 15 46  1  0
 15 47  1  0
 17 48  1  0
 18 49  1  0
 19 50  1  0
 20 51  1  0
 21 52  1  0
 22 53  1  0
 23 54  1  0
M  CHG  1  14   1
M  END
>  <UniqueID>  (28) 
27

>  <SMILES>  (28) 
c1ccc(CCCCNCCCC[NH2+]Cc2ccccc2)cc1

>  <Energy>  (28) 
39.81675777020273

>  <Genealogy>  (28) 
c1ccc(CCCCNCCCC[NH2+]Cc2ccccc2)cc1 (protonated)
c1ccc(CCCCNCCCC[NH2+]Cc2ccccc2)cc1 (3D coordinates assigned)
c1ccc(CCCCNCCCC[NH2+]Cc2ccccc2)cc1 (optimized conformer: 39.81675777020273 kcal/mol)

>  <smiles>  (28) 
c1ccc(CCCCNCCCCNCc2ccccc2)cc1

>  <score_type>  (28) 
oracle

>  <origin>  (28) 
adg

>  <m_score__min__energy>  (28) 
-6.2699999999999996

>  <m_primary>  (28) 
energy

$$$$
28:0
     RDKit          3D

 30 32  0  0  0  0  0  0  0  0999 V2000
   56.2490   30.2690   43.5150 C   0  0  0  0  0  0  0  0  0  0  0  0
   56.6480   30.2050   44.8760 O   0  0  0  0  0  0  0  0  0  0  0  0
   57.9630   30.1570   45.3160 N   0  0  0  0  0  0  0  0  0  0  0  0
   58.7090   29.0220   45.3610 C   0  0  0  0  0  0  0  0  0  0  0  0
   58.2570   27.7000   44.8700 C   0  0  0  0  0  0  0  0  0  0  0  0
   58.2090   27.4420   43.4880 C   0  0  0  0  0  0  0  0  0  0  0  0
   57.7760   26.1990   43.0160 C   0  0  0  0  0  0  0  0  0  0  0  0
   57.3800   25.2070   43.9150 C   0  0  0  0  0  0  0  0  0  0  0  0
   57.4120   25.4570   45.2890 C   0  0  0  0  0  0  0  0  0  0  0  0
   57.8450   26.6980   45.7670 C   0  0  0  0  0  0  0  0  0  0  0  0
   59.9240   29.2240   45.9250 N   0  0  0  0  0  0  0  0  0  0  0  0
   59.9390   30.5300   46.2340 C   0  0  0  0  0  0  0  0  0  0  0  0
   60.9700   31.2430   46.8370 C   0  0  0  0  0  0  0  0  0  0  0  0
   60.7710   32.6140   47.0770 C   0  0  0  0  0  0  0  0  0  0  0  0
   62.0610   33.5350   47.8380 Cl  0  0  0  0  0  0  0  0  0  0  0  0
   59.5490   33.2310   46.7050 C   0  0  0  0  0  0  0  0  0  0  0  0
   59.2800   34.9450   46.9910 Cl  0  0  0  0  0  0  0  0  0  0  0  0
   58.5260   32.4770   46.0960 C   0  0  0  0  0  0  0  0  0  0  0  0
   58.7530   31.1120   45.8720 C   0  0  0  0  0  0  0  0  0  0  0  0
   55.1643   30.4430   43.4587 H   0  0  0  0  0  0  0  0  0  0  0  0
   56.7790   31.0936   43.0159 H   0  0  0  0  0  0  0  0  0  0  0  0
   56.4945   29.3200   43.0159 H   0  0  0  0  0  0  0  0  0  0  0  0
   58.5137   28.2221   42.7749 H   0  0  0  0  0  0  0  0  0  0  0  0
   57.7473   26.0024   41.9341 H   0  0  0  0  0  0  0  0  0  0  0  0
   57.0429   24.2288   43.5415 H   0  0  0  0  0  0  0  0  0  0  0  0
   57.0960   24.6762   45.9965 H   0  0  0  0  0  0  0  0  0  0  0  0
   57.8634   26.8914   46.8497 H   0  0  0  0  0  0  0  0  0  0  0  0
   60.6890   28.5280   46.0750 H   0  0  0  0  0  0  0  0  0  0  0  0
   61.9121   30.7493   47.1175 H   0  0  0  0  0  0  0  0  0  0  0  0
   57.5751   32.9469   45.8043 H   0  0  0  0  0  0  0  0  0  0  0  0
  1  2  1  0
  2  3  1  0
  3  4  1  0
  4  5  1  0
  5  6  2  0
  6  7  1  0
  7  8  2  0
  8  9  1  0
  9 10  2  0
  4 11  2  0
 11 12  1  0
 12 13  2  0
 13 14  1  0
 14 15  1  0
 14 16  2  0
 16 17  1  0
 16 18  1  0
 18 19  2  0
 19  3  1  0
 10  5  1  0
 19 12  1  0
  1 20  1  0
  1 21  1  0
  1 22  1  0
  6 23  1  0
  7 24  1  0
  8 25  1  0
  9 26  1  0
 10 27  1  0
 11 28  1  0
 13 29  1  0
 18 30  1  0
M  CHG  1  11   1
M  END
>  <UniqueID>  (29) 
28

>  <SMILES>  (29) 
COn1c(-c2ccccc2)[nH+]c2cc(Cl)c(Cl)cc21

>  <Energy>  (29) 
79.59461508297218

>  <Genealogy>  (29) 
COn1c(-c2ccccc2)[nH+]c2cc(Cl)c(Cl)cc21 (protonated)
COn1c(-c2ccccc2)[nH+]c2cc(Cl)c(Cl)cc21 (3D coordinates assigned)
COn1c(-c2ccccc2)[nH+]c2cc(Cl)c(Cl)cc21 (optimized conformer: 79.59461508297218 kcal/mol)

>  <smiles>  (29) 
COn1c(-c2ccccc2)nc2cc(Cl)c(Cl)cc21

>  <score_type>  (29) 
oracle

>  <origin>  (29) 
adg

>  <m_score__min__energy>  (29) 
-5.54

>  <m_primary>  (29) 
energy

$$$$
29:0
     RDKit          3D

 40 43  0  0  0  0  0  0  0  0999 V2000
   56.9690   24.1880   47.5520 C   0  0  0  0  0  0  0  0  0  0  0  0
   57.7640   24.7120   46.4600 N   0  0  0  0  0  0  0  0  0  0  0  0
   58.1810   23.8190   45.3840 C   0  0  0  0  0  0  0  0  0  0  0  0
   58.1380   26.0830   46.4350 C   0  0  0  0  0  0  0  0  0  0  0  0
   59.3570   26.4620   46.9260 C   0  0  0  0  0  0  0  0  0  0  0  0
   59.6820   27.8010   46.8830 C   0  0  0  0  0  0  0  0  0  0  0  0
   58.8320   28.7580   46.3680 C   0  0  0  0  0  0  0  0  0  0  0  0
   57.6120   28.3480   45.8800 C   0  0  0  0  0  0  0  0  0  0  0  0
   57.2670   27.0150   45.9140 C   0  0  0  0  0  0  0  0  0  0  0  0
   56.7250   29.2540   45.3560 C   0  0  0  0  0  0  0  0  0  0  0  0
   55.5740   28.9940   44.8790 N   0  0  0  0  0  0  0  0  0  0  0  0
   57.1170   30.5510   45.3490 N   0  0  0  0  0  0  0  0  0  0  0  0
   58.3220   30.9230   45.8360 C   0  0  0  0  0  0  0  0  0  0  0  0
   59.2130   30.0770   46.3530 N   0  0  0  0  0  0  0  0  0  0  0  0
   60.4990   30.3700   46.8800 C   0  0  0  0  0  0  0  0  0  0  0  0
   60.8510   31.8250   46.8650 C   0  0  0  0  0  0  0  0  0  0  0  0
   59.8580   32.7250   46.2820 C   0  0  0  0  0  0  0  0  0  0  0  0
   60.1580   34.0750   46.2260 C   0  0  0  0  0  0  0  0  0  0  0  0
   59.2550   34.9710   45.6900 C   0  0  0  0  0  0  0  0  0  0  0  0
   58.0480   34.5720   45.2010 C   0  0  0  0  0  0  0  0  0  0  0  0
   57.7290   33.2410   45.2450 C   0  0  0  0  0  0  0  0  0  0  0  0
   58.6330   32.3450   45.7800 C   0  0  0  0  0  0  0  0  0  0  0  0
   57.4205   24.4856   48.5099 H   0  0  0  0  0  0  0  0  0  0  0  0
   55.9472   24.5902   47.4876 H   0  0  0  0  0  0  0  0  0  0  0  0
   56.9358   23.0904   47.4876 H   0  0  0  0  0  0  0  0  0  0  0  0
   58.6094   22.9017   45.8141 H   0  0  0  0  0  0  0  0  0  0  0  0
   57.3102   23.5611   44.7634 H   0  0  0  0  0  0  0  0  0  0  0  0
   58.9378   24.3211   44.7634 H   0  0  0  0  0  0  0  0  0  0  0  0
   60.0561   25.7216   47.3421 H   0  0  0  0  0  0  0  0  0  0  0  0
   60.6590   28.1195   47.2754 H   0  0  0  0  0  0  0  0  0  0  0  0
   56.2907   26.6926   45.5230 H   0  0  0  0  0  0  0  0  0  0  0  0
   55.1430   28.0630   44.8920 H   0  0  0  0  0  0  0  0  0  0  0  0
   60.5337   30.0173   47.9214 H   0  0  0  0  0  0  0  0  0  0  0  0
   61.2292   29.8613   46.2334 H   0  0  0  0  0  0  0  0  0  0  0  0
   61.0190   32.1400   47.9055 H   0  0  0  0  0  0  0  0  0  0  0  0
   61.7366   31.9061   46.2176 H   0  0  0  0  0  0  0  0  0  0  0  0
   61.1228   34.4365   46.6113 H   0  0  0  0  0  0  0  0  0  0  0  0
   59.5179   36.0386   45.6568 H   0  0  0  0  0  0  0  0  0  0  0  0
   57.3437   35.3041   44.7792 H   0  0  0  0  0  0  0  0  0  0  0  0
   56.7615   32.8890   44.8577 H   0  0  0  0  0  0  0  0  0  0  0  0
  1  2  1  0
  2  3  1  0
  2  4  1  0
  4  5  2  0
  5  6  1  0
  6  7  2  0
  7  8  1  0
  8  9  2  0
  8 10  1  0
 10 11  2  3
 10 12  1  0
 12 13  2  0
 13 14  1  0
 14 15  1  0
 15 16  1  0
 16 17  1  0
 17 18  2  0
 18 19  1  0
 19 20  2  0
 20 21  1  0
 21 22  2  0
  9  4  1  0
 22 13  1  0
 14  7  1  0
 22 17  1  0
  1 23  1  0
  1 24  1  0
  1 25  1  0
  3 26  1  0
  3 27  1  0
  3 28  1  0
  5 29  1  0
  6 30  1  0
  9 31  1  0
 11 32  1  0
 15 33  1  0
 15 34  1  0
 16 35  1  0
 16 36  1  0
 18 37  1  0
 19 38  1  0
 20 39  1  0
 21 40  1  0
M  END
>  <smiles>  (30) 
CN(C)c1ccc2c(c1)c(=N)nc1n2CCc2ccccc2-1

>  <score_type>  (30) 
oracle

>  <origin>  (30) 
adg

>  <m_score__min__energy>  (30) 
-8.3699999999999992

>  <m_primary>  (30) 
energy

$$$$
30:0
     RDKit          3D

 26 28  0  0  0  0  0  0  0  0999 V2000
   55.7010   29.3750   44.4620 O   0  0  0  0  0  0  0  0  0  0  0  0
   56.6440   30.1030   44.8710 C   0  0  0  0  0  0  0  0  0  0  0  0
   56.5500   31.4210   44.7210 O   0  0  0  0  0  0  0  0  0  0  0  0
   57.5080   32.2600   45.1010 C   0  0  0  0  0  0  0  0  0  0  0  0
   57.3460   33.6370   44.9160 C   0  0  0  0  0  0  0  0  0  0  0  0
   58.3540   34.5220   45.3130 C   0  0  0  0  0  0  0  0  0  0  0  0
   59.5280   34.0330   45.8960 C   0  0  0  0  0  0  0  0  0  0  0  0
   59.7000   32.6580   46.0850 C   0  0  0  0  0  0  0  0  0  0  0  0
   58.6920   31.7670   45.6880 C   0  0  0  0  0  0  0  0  0  0  0  0
   58.8260   30.3870   45.8630 C   0  0  0  0  0  0  0  0  0  0  0  0
   57.7920   29.5290   45.4600 C   0  0  0  0  0  0  0  0  0  0  0  0
   57.9260   28.0630   45.6550 C   0  0  0  0  0  0  0  0  0  0  0  0
   58.1560   27.5350   46.9360 C   0  0  0  0  0  0  0  0  0  0  0  0
   58.2710   26.1530   47.1030 C   0  0  0  0  0  0  0  0  0  0  0  0
   58.1550   25.3250   46.0330 N   0  0  0  0  0  0  0  0  0  0  0  0
   57.9260   25.8040   44.7820 C   0  0  0  0  0  0  0  0  0  0  0  0
   57.8050   27.1800   44.5700 C   0  0  0  0  0  0  0  0  0  0  0  0
   56.4243   34.0247   44.4575 H   0  0  0  0  0  0  0  0  0  0  0  0
   58.2233   35.6043   45.1665 H   0  0  0  0  0  0  0  0  0  0  0  0
   60.3183   34.7322   46.2067 H   0  0  0  0  0  0  0  0  0  0  0  0
   60.6238   32.2761   46.5440 H   0  0  0  0  0  0  0  0  0  0  0  0
   59.7399   29.9747   46.3156 H   0  0  0  0  0  0  0  0  0  0  0  0
   58.2451   28.2061   47.8030 H   0  0  0  0  0  0  0  0  0  0  0  0
   58.4559   25.7345   48.1033 H   0  0  0  0  0  0  0  0  0  0  0  0
   57.8358   25.1077   43.9352 H   0  0  0  0  0  0  0  0  0  0  0  0
   57.6160   27.5692   43.5587 H   0  0  0  0  0  0  0  0  0  0  0  0
  1  2  2  0
  2  3  1  0
  3  4  1  0
  4  5  2  0
  5  6  1  0
  6  7  2  0
  7  8  1  0
  8  9  2  0
  9 10  1  0
 10 11  2  0
 11 12  1  0
 12 13  2  0
 13 14  1  0
 14 15  2  0
 15 16  1  0
 16 17  2  0
 11  2  1  0
 17 12  1  0
  9  4  1  0
  5 18  1  0
  6 19  1  0
  7 20  1  0
  8 21  1  0
 10 22  1  0
 13 23  1  0
 14 24  1  0
 16 25  1  0
 17 26  1  0
M  END
>  <UniqueID>  (31) 
29

>  <SMILES>  (31) 
O=c1oc2ccccc2cc1-c1ccncc1

>  <Energy>  (31) 
40.64058069427534

>  <Genealogy>  (31) 
O=c1oc2ccccc2cc1-c1ccncc1 (3D coordinates assigned)
O=c1oc2ccccc2cc1-c1ccncc1 (optimized conformer: 40.64058069427534 kcal/mol)

>  <smiles>  (31) 
O=c1oc2ccccc2cc1-c1ccncc1

>  <score_type>  (31) 
oracle

>  <origin>  (31) 
adg

>  <m_score__min__energy>  (31) 
-6.5800000000000001

>  <m_primary>  (31) 
energy

$$$$
31:0
     RDKit          3D

 31 33  0  0  0  0  0  0  0  0999 V2000
   56.5670   30.4360   43.8820 C   0  0  0  0  0  0  0  0  0  0  0  0
   57.0200   30.8800   42.6450 C   0  0  0  0  0  0  0  0  0  0  0  0
   57.8680   32.3110   42.8890 S   0  0  0  0  0  0  0  0  0  0  0  0
   57.6300   32.2940   44.5530 C   0  0  0  0  0  0  0  0  0  0  0  0
   58.0960   33.3620   45.4950 C   0  0  0  0  0  0  0  0  0  0  0  0
   59.1960   32.8680   46.3500 N   0  0  0  0  0  0  0  0  0  0  0  0
   58.8430   32.9530   47.7940 C   0  0  0  0  0  0  0  0  0  0  0  0
   59.4190   34.2020   48.4770 C   0  0  0  0  0  0  0  0  0  0  0  0
   60.9560   34.2110   48.4260 C   0  0  0  0  0  0  0  0  0  0  0  0
   61.4880   33.4750   47.1730 C   0  0  0  0  0  0  0  0  0  0  0  0
   62.0840   32.1000   47.4290 C   0  0  0  0  0  0  0  0  0  0  0  0
   63.3780   32.5180   47.0610 O   0  0  0  0  0  0  0  0  0  0  0  0
   62.9180   33.8240   46.8000 C   0  0  0  0  0  0  0  0  0  0  0  0
   60.4900   33.5120   45.9970 C   0  0  0  0  0  0  0  0  0  0  0  0
   56.9020   31.2240   44.9380 N   0  0  0  0  0  0  0  0  0  0  0  0
   55.9796   29.5132   43.9981 H   0  0  0  0  0  0  0  0  0  0  0  0
   56.8532   30.3831   41.6779 H   0  0  0  0  0  0  0  0  0  0  0  0
   58.4518   34.2251   44.9133 H   0  0  0  0  0  0  0  0  0  0  0  0
   57.2538   33.6540   46.1396 H   0  0  0  0  0  0  0  0  0  0  0  0
   57.7472   32.9760   47.8868 H   0  0  0  0  0  0  0  0  0  0  0  0
   59.2774   32.0739   48.2925 H   0  0  0  0  0  0  0  0  0  0  0  0
   59.0386   35.0978   47.9643 H   0  0  0  0  0  0  0  0  0  0  0  0
   59.1077   34.1943   49.5320 H   0  0  0  0  0  0  0  0  0  0  0  0
   61.3065   35.2534   48.4035 H   0  0  0  0  0  0  0  0  0  0  0  0
   61.3332   33.6893   49.3179 H   0  0  0  0  0  0  0  0  0  0  0  0
   62.0092   31.7784   48.4783 H   0  0  0  0  0  0  0  0  0  0  0  0
   61.6435   31.2269   46.9253 H   0  0  0  0  0  0  0  0  0  0  0  0
   63.3678   34.5856   47.4540 H   0  0  0  0  0  0  0  0  0  0  0  0
   63.1164   34.2703   45.8144 H   0  0  0  0  0  0  0  0  0  0  0  0
   60.3026   34.5604   45.7219 H   0  0  0  0  0  0  0  0  0  0  0  0
   60.9309   32.9555   45.1568 H   0  0  0  0  0  0  0  0  0  0  0  0
  1  2  2  0
  2  3  1  0
  3  4  1  0
  4  5  1  0
  5  6  1  0
  6  7  1  0
  7  8  1  0
  8  9  1  0
  9 10  1  0
 10 11  1  0
 11 12  1  0
 12 13  1  0
 10 14  1  0
  4 15  2  0
 15  1  1  0
 14  6  1  0
 13 10  1  0
  1 16  1  0
  2 17  1  0
  5 18  1  0
  5 19  1  0
  7 20  1  0
  7 21  1  0
  8 22  1  0
  8 23  1  0
  9 24  1  0
  9 25  1  0
 11 26  1  0
 11 27  1  0
 13 28  1  0
 13 29  1  0
 14 30  1  0
 14 31  1  0
M  END
>  <UniqueID>  (32) 
30

>  <SMILES>  (32) 
c1csc(CN2CCCC3(COC3)C2)n1

>  <Energy>  (32) 
133.8623200307573

>  <Genealogy>  (32) 
c1csc(CN2CCCC3(COC3)C2)n1 (3D coordinates assigned)
c1csc(CN2CCCC3(COC3)C2)n1 (nonaromatic ring conformer: 133.8623200307573 kcal/mol)

>  <smiles>  (32) 
c1csc(CN2CCCC3(COC3)C2)n1

>  <score_type>  (32) 
oracle

>  <origin>  (32) 
adg

>  <m_score__min__energy>  (32) 
-6.21

>  <m_primary>  (32) 
energy

$$$$
32:0
     RDKit          3D

 49 52  0  0  1  0  0  0  0  0999 V2000
   59.6380   34.1200   52.9240 C   0  0  0  0  0  0  0  0  0  0  0  0
   60.4940   33.3620   52.0660 O   0  0  0  0  0  0  0  0  0  0  0  0
   60.0970   33.2090   50.7510 C   0  0  0  0  0  0  0  0  0  0  0  0
   59.0300   32.3710   50.5170 C   0  0  0  0  0  0  0  0  0  0  0  0
   58.3300   31.6980   51.5450 N   0  0  0  0  0  0  0  0  0  0  0  0
   57.0560   32.2500   52.0260 C   0  0  0  0  0  0  0  0  0  0  0  0
   55.9610   31.2070   51.9220 C   0  0  0  0  0  0  0  0  0  0  0  0
   56.4390   29.9020   51.9740 O   0  0  0  0  0  0  0  0  0  0  0  0
   57.5510   29.7610   52.7610 C   0  0  0  0  0  0  0  0  0  0  0  0
   58.7800   30.4810   52.1850 C   0  0  0  0  0  0  0  0  0  0  0  0
   58.5730   32.1660   49.2450 N   0  0  0  0  0  0  0  0  0  0  0  0
   59.1480   32.7690   48.2120 C   0  0  0  0  0  0  0  0  0  0  0  0
   58.7350   32.6150   46.8210 C   0  0  0  0  0  0  0  0  0  0  0  0
   58.7470   31.3770   46.1980 C   0  0  0  0  0  0  0  0  0  0  0  0
   58.3670   31.1870   44.8900 C   0  0  0  0  0  0  0  0  0  0  0  0
   57.9470   32.2520   44.1220 C   0  0  0  0  0  0  0  0  0  0  0  0
   57.4310   31.9630   42.3130 Br  0  0  0  0  0  0  0  0  0  0  0  0
   57.9260   33.4930   44.7220 C   0  0  0  0  0  0  0  0  0  0  0  0
   58.3110   33.6820   46.0500 C   0  0  0  0  0  0  0  0  0  0  0  0
   60.1950   33.5850   48.4640 N   0  0  0  0  0  0  0  0  0  0  0  0
   60.6850   33.8220   49.6850 C   0  0  0  0  0  0  0  0  0  0  0  0
   61.7060   34.5660   49.7960 N   0  0  0  0  0  0  0  0  0  0  0  0
   62.9970   34.0980   50.1060 C   0  0  0  0  0  0  0  0  0  0  0  0
   63.7120   34.4470   51.2320 C   0  0  0  0  0  0  0  0  0  0  0  0
   64.9790   33.9440   51.3970 C   0  0  0  0  0  0  0  0  0  0  0  0
   65.5860   33.0940   50.4800 C   0  0  0  0  0  0  0  0  0  0  0  0
   64.8640   32.7530   49.3620 C   0  0  0  0  0  0  0  0  0  0  0  0
   63.6080   33.2420   49.1840 C   0  0  0  0  0  0  0  0  0  0  0  0
   59.8845   33.9018   53.9736 H   0  0  0  0  0  0  0  0  0  0  0  0
   59.7809   35.1932   52.7293 H   0  0  0  0  0  0  0  0  0  0  0  0
   58.5900   33.8484   52.7293 H   0  0  0  0  0  0  0  0  0  0  0  0
   57.1666   32.5572   53.0764 H   0  0  0  0  0  0  0  0  0  0  0  0
   56.7847   33.1182   51.4074 H   0  0  0  0  0  0  0  0  0  0  0  0
   55.2575   31.3548   52.7546 H   0  0  0  0  0  0  0  0  0  0  0  0
   55.4771   31.3385   50.9430 H   0  0  0  0  0  0  0  0  0  0  0  0
   57.3333   30.1773   53.7557 H   0  0  0  0  0  0  0  0  0  0  0  0
   57.7881   28.6881   52.8122 H   0  0  0  0  0  0  0  0  0  0  0  0
   59.4833   30.7240   52.9952 H   0  0  0  0  0  0  0  0  0  0  0  0
   59.2931   29.8353   51.4571 H   0  0  0  0  0  0  0  0  0  0  0  0
   57.7720   31.5340   49.0850 H   0  0  0  0  0  0  0  0  0  0  0  0
   59.0769   30.5029   46.7786 H   0  0  0  0  0  0  0  0  0  0  0  0
   58.3984   30.1778   44.4534 H   0  0  0  0  0  0  0  0  0  0  0  0
   57.5951   34.3624   44.1350 H   0  0  0  0  0  0  0  0  0  0  0  0
   58.2769   34.6904   46.4882 H   0  0  0  0  0  0  0  0  0  0  0  0
   63.2745   35.1177   51.9861 H   0  0  0  0  0  0  0  0  0  0  0  0
   65.5411   34.2276   52.2990 H   0  0  0  0  0  0  0  0  0  0  0  0
   66.6037   32.7097   50.6429 H   0  0  0  0  0  0  0  0  0  0  0  0
   65.3034   32.0825   48.6088 H   0  0  0  0  0  0  0  0  0  0  0  0
   63.0511   32.9534   48.2804 H   0  0  0  0  0  0  0  0  0  0  0  0
  1  2  1  0
  2  3  1  0
  3  4  2  0
  4  5  1  0
  5  6  1  0
  6  7  1  0
  7  8  1  0
  8  9  1  0
  9 10  1  0
  4 11  1  0
 11 12  1  0
 12 13  1  0
 13 14  2  0
 14 15  1  0
 15 16  2  0
 16 17  1  0
 16 18  1  0
 18 19  2  0
 12 20  2  0
 20 21  1  0
 21 22  2  0
 22 23  1  0
 23 24  2  0
 24 25  1  0
 25 26  2  0
 26 27  1  0
 27 28  2  0
 21  3  1  0
 28 23  1  0
 10  5  1  0
 19 13  1  0
  1 29  1  0
  1 30  1  0
  1 31  1  0
  6 32  1  0
  6 33  1  0
  7 34  1  0
  7 35  1  0
  9 36  1  0
  9 37  1  0
 10 38  1  0
 10 39  1  0
 11 40  1  0
 14 41  1  0
 15 42  1  0
 18 43  1  0
 19 44  1  0
 24 45  1  0
 25 46  1  0
 26 47  1  0
 27 48  1  0
 28 49  1  0
M  END
>  <smiles>  (33) 
COc1c(N2CCOCC2)[nH]c(-c2ccc(Br)cc2)nc1=Nc1ccccc1

>  <score_type>  (33) 
oracle

>  <origin>  (33) 
adg

>  <m_score__min__energy>  (33) 
-7.5599999999999996

>  <m_primary>  (33) 
energy

$$$$
33:0
     RDKit          3D

 51 53  0  0  0  0  0  0  0  0999 V2000
   56.5820   30.7500   43.7570 C   0  0  0  0  0  0  0  0  0  0  0  0
   56.7790   30.3890   45.1210 O   0  0  0  0  0  0  0  0  0  0  0  0
   57.3640   29.1830   45.5450 C   0  0  0  0  0  0  0  0  0  0  0  0
   56.6300   27.9770   45.5350 C   0  0  0  0  0  0  0  0  0  0  0  0
   57.2240   26.7770   45.9240 C   0  0  0  0  0  0  0  0  0  0  0  0
   58.5550   26.7570   46.3300 C   0  0  0  0  0  0  0  0  0  0  0  0
   59.2950   27.9390   46.3550 C   0  0  0  0  0  0  0  0  0  0  0  0
   58.7160   29.1660   45.9730 C   0  0  0  0  0  0  0  0  0  0  0  0
   59.5490   30.3970   46.0390 C   0  0  0  0  0  0  0  0  0  0  0  0
   59.2250   31.4030   45.3470 O   0  0  0  0  0  0  0  0  0  0  0  0
   60.7330   30.4570   46.8440 N   0  0  0  0  0  0  0  0  0  0  0  0
   60.6870   30.8580   48.2490 C   0  0  0  0  0  0  0  0  0  0  0  0
   61.2830   32.2750   48.4750 C   0  0  2  0  0  0  0  0  0  0  0  0
   60.1790   33.1330   49.1490 C   0  0  0  0  0  0  0  0  0  0  0  0
   59.7580   34.1930   48.2920 O   0  0  0  0  0  0  0  0  0  0  0  0
   58.9370   34.0290   47.1680 C   0  0  0  0  0  0  0  0  0  0  0  0
   59.2010   34.7930   46.0270 C   0  0  0  0  0  0  0  0  0  0  0  0
   58.4040   34.6550   44.8900 C   0  0  0  0  0  0  0  0  0  0  0  0
   57.3430   33.7490   44.9040 C   0  0  0  0  0  0  0  0  0  0  0  0
   57.0930   33.0080   46.0180 N   0  0  0  0  0  0  0  0  0  0  0  0
   57.8580   33.1260   47.1390 C   0  0  0  0  0  0  0  0  0  0  0  0
   61.6850   32.9010   47.0970 C   0  0  0  0  0  0  0  0  0  0  0  0
   62.8870   33.8460   47.2150 C   0  0  0  0  0  0  0  0  0  0  0  0
   64.1040   33.1480   47.8600 C   0  0  0  0  0  0  0  0  0  0  0  0
   63.7390   31.9590   48.6490 N   0  0  0  0  0  0  0  0  0  0  0  0
   62.5170   32.1870   49.4240 C   0  0  0  0  0  0  0  0  0  0  0  0
   56.0557   31.7145   43.7053 H   0  0  0  0  0  0  0  0  0  0  0  0
   57.5575   30.8373   43.2563 H   0  0  0  0  0  0  0  0  0  0  0  0
   55.9807   29.9769   43.2563 H   0  0  0  0  0  0  0  0  0  0  0  0
   55.5771   27.9841   45.2166 H   0  0  0  0  0  0  0  0  0  0  0  0
   56.6399   25.8450   45.9100 H   0  0  0  0  0  0  0  0  0  0  0  0
   59.0236   25.8085   46.6313 H   0  0  0  0  0  0  0  0  0  0  0  0
   60.3463   27.9132   46.6777 H   0  0  0  0  0  0  0  0  0  0  0  0
   59.6391   30.8570   48.5835 H   0  0  0  0  0  0  0  0  0  0  0  0
   61.2917   30.1417   48.8245 H   0  0  0  0  0  0  0  0  0  0  0  0
   59.3152   32.4916   49.3782 H   0  0  0  0  0  0  0  0  0  0  0  0
   60.5904   33.5709   50.0704 H   0  0  0  0  0  0  0  0  0  0  0  0
   60.0395   35.5050   46.0257 H   0  0  0  0  0  0  0  0  0  0  0  0
   58.6102   35.2547   43.9912 H   0  0  0  0  0  0  0  0  0  0  0  0
   56.7077   33.6334   44.0135 H   0  0  0  0  0  0  0  0  0  0  0  0
   56.2960   32.3330   46.0120 H   0  0  0  0  0  0  0  0  0  0  0  0
   57.6316   32.5136   48.0243 H   0  0  0  0  0  0  0  0  0  0  0  0
   61.9408   32.0887   46.4007 H   0  0  0  0  0  0  0  0  0  0  0  0
   60.8297   33.4887   46.7323 H   0  0  0  0  0  0  0  0  0  0  0  0
   63.1672   34.1930   46.2095 H   0  0  0  0  0  0  0  0  0  0  0  0
   62.5966   34.6900   47.8578 H   0  0  0  0  0  0  0  0  0  0  0  0
   64.7942   32.8392   47.0610 H   0  0  0  0  0  0  0  0  0  0  0  0
   64.5672   33.8689   48.5497 H   0  0  0  0  0  0  0  0  0  0  0  0
   64.5180   31.7650   49.3210 H   0  0  0  0  0  0  0  0  0  0  0  0
   62.3739   31.3549   50.1291 H   0  0  0  0  0  0  0  0  0  0  0  0
   62.6137   33.1347   49.9741 H   0  0  0  0  0  0  0  0  0  0  0  0
  1  2  1  0
  2  3  1  0
  3  4  2  0
  4  5  1  0
  5  6  2  0
  6  7  1  0
  7  8  2  0
  8  9  1  0
  9 10  2  0
  9 11  1  0
 11 12  1  0
 13 12  1  6
 13 14  1  0
 14 15  1  0
 15 16  1  0
 16 17  2  0
 17 18  1  0
 18 19  2  0
 19 20  1  0
 20 21  2  0
 13 22  1  0
 22 23  1  0
 23 24  1  0
 24 25  1  0
 25 26  1  0
  8  3  1  0
 26 13  1  0
 21 16  1  0
  1 27  1  0
  1 28  1  0
  1 29  1  0
  4 30  1  0
  5 31  1  0
  6 32  1  0
  7 33  1  0
 12 34  1  0
 12 35  1  0
 14 36  1  0
 14 37  1  0
 17 38  1  0
 18 39  1  0
 19 40  1  0
 20 41  1  0
 21 42  1  0
 22 43  1  0
 22 44  1  0
 23 45  1  0
 23 46  1  0
 24 47  1  0
 24 48  1  0
 25 49  1  0
 26 50  1  0
 26 51  1  0
M  CHG  2  11  -1  20   1
M  END
>  <UniqueID>  (34) 
31

>  <SMILES>  (34) 
COc1ccccc1C(=O)[N-]C[C@]1(COc2ccc[nH+]c2)CCCNC1

>  <Energy>  (34) 
56.282990296310246

>  <Genealogy>  (34) 
COc1ccccc1C(=O)[N-]CC1(COc2ccc[nH+]c2)CCCNC1 (protonated)
COc1ccccc1C(=O)[N-]C[C@]1(COc2ccc[nH+]c2)CCCNC1 (chirality)
COc1ccccc1C(=O)[N-]C[C@]1(COc2ccc[nH+]c2)CCCNC1 (3D coordinates assigned)
COc1ccccc1C(=O)[N-]C[C@]1(COc2ccc[nH+]c2)CCCNC1 (nonaromatic ring conformer: 56.282990296310246 kcal/mol)

>  <smiles>  (34) 
COc1ccccc1C(=O)NCC1(COc2cccnc2)CCCNC1

>  <score_type>  (34) 
oracle

>  <origin>  (34) 
adg

>  <m_score__min__energy>  (34) 
-8.1999999999999993

>  <m_primary>  (34) 
energy

$$$$
34:0
     RDKit          3D

 42 42  0  0  0  0  0  0  0  0999 V2000
   62.8508   34.4460   46.5508 H   0  0  0  0  0  0  0  0  0  0  0  0
   62.1570   33.7480   47.0420 C   0  0  0  0  0  0  0  0  0  0  0  0
   61.0070   34.2140   47.5460 C   0  0  0  0  0  0  0  0  0  0  0  0
   61.0327   34.6957   48.5346 H   0  0  0  0  0  0  0  0  0  0  0  0
   59.7010   34.1190   46.8500 C   0  0  0  0  0  0  0  0  0  0  0  0
   59.5930   34.6440   45.5500 C   0  0  0  0  0  0  0  0  0  0  0  0
   60.4677   35.1143   45.0771 H   0  0  0  0  0  0  0  0  0  0  0  0
   58.3830   34.5730   44.8540 C   0  0  0  0  0  0  0  0  0  0  0  0
   58.3075   34.9935   43.8404 H   0  0  0  0  0  0  0  0  0  0  0  0
   57.2690   33.9690   45.4430 C   0  0  0  0  0  0  0  0  0  0  0  0
   56.3163   33.9177   44.8955 H   0  0  0  0  0  0  0  0  0  0  0  0
   57.3670   33.4310   46.7270 C   0  0  0  0  0  0  0  0  0  0  0  0
   56.4907   32.9520   47.1882 H   0  0  0  0  0  0  0  0  0  0  0  0
   58.5740   33.4980   47.4300 C   0  0  0  0  0  0  0  0  0  0  0  0
   58.6454   33.0651   48.4387 H   0  0  0  0  0  0  0  0  0  0  0  0
   62.5140   32.3190   47.1310 C   0  0  0  0  0  0  0  0  0  0  0  0
   63.8880   31.9850   47.3470 N   0  0  0  0  0  0  0  0  0  0  0  0
   64.2020   30.9900   47.3790 H   0  0  0  0  0  0  0  0  0  0  0  0
   64.6020   32.7370   47.4690 H   0  0  0  0  0  0  0  0  0  0  0  0
   61.6370   31.3610   46.9600 N   0  0  0  0  0  0  0  0  0  0  0  0
   61.2810   31.1790   45.9950 H   0  0  0  0  0  0  0  0  0  0  0  0
   61.0660   30.5270   48.0260 C   0  0  0  0  0  0  0  0  0  0  0  0
   60.6196   31.1809   48.7896 H   0  0  0  0  0  0  0  0  0  0  0  0
   61.8748   29.9162   48.4535 H   0  0  0  0  0  0  0  0  0  0  0  0
   59.9870   29.5820   47.4900 C   0  0  0  0  0  0  0  0  0  0  0  0
   59.0511   29.7449   48.0446 H   0  0  0  0  0  0  0  0  0  0  0  0
   60.3196   28.5415   47.6197 H   0  0  0  0  0  0  0  0  0  0  0  0
   59.7570   29.8450   46.0500 N   0  0  0  0  0  0  0  0  0  0  0  0
   60.3160   28.7840   45.1760 C   0  0  0  0  0  0  0  0  0  0  0  0
   60.9748   28.1463   45.7837 H   0  0  0  0  0  0  0  0  0  0  0  0
   60.8532   29.2918   44.3614 H   0  0  0  0  0  0  0  0  0  0  0  0
   59.2520   27.8930   44.5200 C   0  0  0  0  0  0  0  0  0  0  0  0
   58.6581   27.3956   45.3009 H   0  0  0  0  0  0  0  0  0  0  0  0
   58.5911   28.5110   43.8945 H   0  0  0  0  0  0  0  0  0  0  0  0
   59.7444   27.1338   43.8945 H   0  0  0  0  0  0  0  0  0  0  0  0
   58.3490   30.2030   45.7640 C   0  0  0  0  0  0  0  0  0  0  0  0
   57.7520   29.2808   45.7076 H   0  0  0  0  0  0  0  0  0  0  0  0
   57.9924   30.8573   46.5732 H   0  0  0  0  0  0  0  0  0  0  0  0
   58.2110   30.9620   44.4460 C   0  0  0  0  0  0  0  0  0  0  0  0
   58.0178   32.0248   44.6534 H   0  0  0  0  0  0  0  0  0  0  0  0
   59.1416   30.8646   43.8676 H   0  0  0  0  0  0  0  0  0  0  0  0
   57.3743   30.5433   43.8676 H   0  0  0  0  0  0  0  0  0  0  0  0
  1  2  1  0
  2  3  2  0
  3  4  1  0
  3  5  1  0
  5  6  2  0
  6  7  1  0
  6  8  1  0
  8  9  1  0
  8 10  2  0
 10 11  1  0
 10 12  1  0
 12 13  1  0
 12 14  2  0
 14 15  1  0
  2 16  1  0
 16 17  1  0
 17 18  1  0
 17 19  1  0
 16 20  2  0
 20 21  1  0
 20 22  1  0
 22 23  1  0
 22 24  1  0
 22 25  1  0
 25 26  1  0
 25 27  1  0
 25 28  1  0
 28 29  1  0
 29 30  1  0
 29 31  1  0
 29 32  1  0
 32 33  1  0
 32 34  1  0
 32 35  1  0
 28 36  1  0
 36 37  1  0
 36 38  1  0
 36 39  1  0
 39 40  1  0
 39 41  1  0
 39 42  1  0
 14  5  1  0
M  CHG  1  20   1
M  END
>  <UniqueID>  (35) 
32

>  <SMILES>  (35) 
CCN(CC)CC/[NH+]=C(N)\C=C\c1ccccc1

>  <Energy>  (35) 
47.44522217029538

>  <Genealogy>  (35) 
CCN(CC)CC[NH+]=C(N)C=Cc1ccccc1 (protonated)
CCN(CC)CC/[NH+]=C(N)\C=C\c1ccccc1 (cis-trans isomerization)
CCN(CC)CC/[NH+]=C(N)\C=C\c1ccccc1 (3D coordinates assigned)
CCN(CC)CC/[NH+]=C(N)\C=C\c1ccccc1 (optimized conformer: 47.44522217029538 kcal/mol)

>  <smiles>  (35) 
CCN(CC)CCN=C(N)C=Cc1ccccc1

>  <score_type>  (35) 
oracle

>  <origin>  (35) 
adg

>  <m_score__min__energy>  (35) 
-4.75

>  <m_primary>  (35) 
energy

$$$$
35:0
     RDKit          3D

 37 38  0  0  0  0  0  0  0  0999 V2000
   63.2850   33.8300   46.7540 C   0  0  0  0  0  0  0  0  0  0  0  0
   62.1630   33.2000   47.5780 C   0  0  0  0  0  0  0  0  0  0  0  0
   61.1720   34.2220   48.1810 C   0  0  0  0  0  0  0  0  0  0  0  0
   59.8190   34.2310   47.5810 N   0  0  0  0  0  0  0  0  0  0  0  0
   59.7490   34.7490   46.1980 C   0  0  0  0  0  0  0  0  0  0  0  0
   58.4960   34.2720   45.4570 C   0  0  0  0  0  0  0  0  0  0  0  0
   58.4010   32.8090   45.5200 N   0  0  0  0  0  0  0  0  0  0  0  0
   57.8340   32.0680   44.4180 C   0  0  0  0  0  0  0  0  0  0  0  0
   57.1860   30.8440   44.6410 C   0  0  0  0  0  0  0  0  0  0  0  0
   56.6510   30.1580   43.5540 C   0  0  0  0  0  0  0  0  0  0  0  0
   56.7620   30.6760   42.3060 N   0  0  0  0  0  0  0  0  0  0  0  0
   57.3940   31.8590   42.0910 C   0  0  0  0  0  0  0  0  0  0  0  0
   57.4760   32.4160   40.7060 C   0  0  0  0  0  0  0  0  0  0  0  0
   57.9170   32.5520   43.1430 N   0  0  0  0  0  0  0  0  0  0  0  0
   58.7690   32.1120   46.7610 C   0  0  0  0  0  0  0  0  0  0  0  0
   58.9370   33.0950   47.9270 C   0  0  0  0  0  0  0  0  0  0  0  0
   64.0419   34.2550   47.4296 H   0  0  0  0  0  0  0  0  0  0  0  0
   63.7501   33.0611   46.1196 H   0  0  0  0  0  0  0  0  0  0  0  0
   62.8707   34.6274   46.1196 H   0  0  0  0  0  0  0  0  0  0  0  0
   61.5995   32.5150   46.9275 H   0  0  0  0  0  0  0  0  0  0  0  0
   62.6416   32.6852   48.4241 H   0  0  0  0  0  0  0  0  0  0  0  0
   61.0655   33.9984   49.2528 H   0  0  0  0  0  0  0  0  0  0  0  0
   61.5997   35.2141   47.9742 H   0  0  0  0  0  0  0  0  0  0  0  0
   59.7414   35.8484   46.2328 H   0  0  0  0  0  0  0  0  0  0  0  0
   60.6255   34.3683   45.6531 H   0  0  0  0  0  0  0  0  0  0  0  0
   57.6050   34.7152   45.9256 H   0  0  0  0  0  0  0  0  0  0  0  0
   58.5588   34.5844   44.4042 H   0  0  0  0  0  0  0  0  0  0  0  0
   57.1020   30.4330   45.6579 H   0  0  0  0  0  0  0  0  0  0  0  0
   56.1388   29.1967   43.7076 H   0  0  0  0  0  0  0  0  0  0  0  0
   57.6360   33.5031   40.7569 H   0  0  0  0  0  0  0  0  0  0  0  0
   58.3147   31.9465   40.1711 H   0  0  0  0  0  0  0  0  0  0  0  0
   56.5376   32.2082   40.1711 H   0  0  0  0  0  0  0  0  0  0  0  0
   58.3700   33.4760   42.9630 H   0  0  0  0  0  0  0  0  0  0  0  0
   57.9790   31.3893   47.0133 H   0  0  0  0  0  0  0  0  0  0  0  0
   59.7291   31.6003   46.5988 H   0  0  0  0  0  0  0  0  0  0  0  0
   57.9474   33.4872   48.2044 H   0  0  0  0  0  0  0  0  0  0  0  0
   59.4018   32.5503   48.7620 H   0  0  0  0  0  0  0  0  0  0  0  0
  1  2  1  0
  2  3  1  0
  3  4  1  0
  4  5  1  0
  5  6  1  0
  6  7  1  0
  7  8  1  0
  8  9  2  0
  9 10  1  0
 10 11  2  0
 11 12  1  0
 12 13  1  0
 12 14  2  0
  7 15  1  0
 15 16  1  0
 16  4  1  0
 14  8  1  0
  1 17  1  0
  1 18  1  0
  1 19  1  0
  2 20  1  0
  2 21  1  0
  3 22  1  0
  3 23  1  0
  5 24  1  0
  5 25  1  0
  6 26  1  0
  6 27  1  0
  9 28  1  0
 10 29  1  0
 13 30  1  0
 13 31  1  0
 13 32  1  0
 14 33  1  0
 15 34  1  0
 15 35  1  0
 16 36  1  0
 16 37  1  0
M  CHG  1  14   1
M  END
>  <UniqueID>  (36) 
33

>  <SMILES>  (36) 
CCCN1CCN(c2ccnc(C)[nH+]2)CC1

>  <Energy>  (36) 
47.20731383040258

>  <Genealogy>  (36) 
CCCN1CCN(c2ccnc(C)[nH+]2)CC1 (protonated)
CCCN1CCN(c2ccnc(C)[nH+]2)CC1 (3D coordinates assigned)
CCCN1CCN(c2ccnc(C)[nH+]2)CC1 (nonaromatic ring conformer: 47.20731383040258 kcal/mol)

>  <smiles>  (36) 
CCCN1CCN(c2ccnc(C)n2)CC1

>  <score_type>  (36) 
oracle

>  <origin>  (36) 
adg

>  <m_score__min__energy>  (36) 
-4.4699999999999998

>  <m_primary>  (36) 
energy

$$$$
36:0
     RDKit          3D

 44 46  0  0  0  0  0  0  0  0999 V2000
   57.6950   32.3770   41.0040 C   0  0  0  0  0  0  0  0  0  0  0  0
   57.7930   31.9210   42.4580 C   0  0  0  0  0  0  0  0  0  0  0  0
   56.7480   30.8290   42.8000 C   0  0  0  0  0  0  0  0  0  0  0  0
   57.1200   29.9480   44.0210 C   0  0  1  0  0  0  0  0  0  0  0  0
   57.5190   28.5890   43.5580 N   0  0  0  0  0  0  0  0  0  0  0  0
   58.2120   27.7950   44.5890 C   0  0  0  0  0  0  0  0  0  0  0  0
   59.5540   28.4400   44.9650 C   0  0  0  0  0  0  0  0  0  0  0  0
   59.3100   29.8710   45.3090 C   0  0  0  0  0  0  0  0  0  0  0  0
   58.1870   30.5820   44.9040 C   0  0  0  0  0  0  0  0  0  0  0  0
   58.1140   31.7650   45.5820 N   0  0  0  0  0  0  0  0  0  0  0  0
   57.0040   32.7230   45.6420 C   0  0  0  0  0  0  0  0  0  0  0  0
   57.4430   34.1060   45.1600 C   0  0  0  0  0  0  0  0  0  0  0  0
   58.7440   34.0290   44.6170 O   0  0  0  0  0  0  0  0  0  0  0  0
   59.5720   34.9770   45.2500 C   0  0  0  0  0  0  0  0  0  0  0  0
   59.2240   31.8030   46.3510 C   0  0  0  0  0  0  0  0  0  0  0  0
   59.5480   32.7690   47.2480 N   0  0  0  0  0  0  0  0  0  0  0  0
   60.6730   32.6220   48.0110 C   0  0  0  0  0  0  0  0  0  0  0  0
   61.4750   31.4650   47.8900 C   0  0  0  0  0  0  0  0  0  0  0  0
   61.1160   30.4580   46.9790 C   0  0  0  0  0  0  0  0  0  0  0  0
   59.9750   30.6690   46.2100 C   0  0  0  0  0  0  0  0  0  0  0  0
   57.4640   33.4520   40.9716 H   0  0  0  0  0  0  0  0  0  0  0  0
   58.6533   32.1925   40.4965 H   0  0  0  0  0  0  0  0  0  0  0  0
   56.8971   31.8150   40.4965 H   0  0  0  0  0  0  0  0  0  0  0  0
   58.8001   31.5156   42.6351 H   0  0  0  0  0  0  0  0  0  0  0  0
   57.5939   32.7921   43.0995 H   0  0  0  0  0  0  0  0  0  0  0  0
   55.7892   31.3245   43.0124 H   0  0  0  0  0  0  0  0  0  0  0  0
   56.6993   30.1570   41.9305 H   0  0  0  0  0  0  0  0  0  0  0  0
   56.2266   29.8594   44.6566 H   0  0  0  0  0  0  0  0  0  0  0  0
   58.1480   28.6470   42.7230 H   0  0  0  0  0  0  0  0  0  0  0  0
   56.6600   28.0680   43.2660 H   0  0  0  0  0  0  0  0  0  0  0  0
   57.5771   27.7354   45.4853 H   0  0  0  0  0  0  0  0  0  0  0  0
   58.4049   26.7890   44.1881 H   0  0  0  0  0  0  0  0  0  0  0  0
   59.9868   27.9184   45.8314 H   0  0  0  0  0  0  0  0  0  0  0  0
   60.2564   28.3690   44.1214 H   0  0  0  0  0  0  0  0  0  0  0  0
   56.1843   32.3634   45.0027 H   0  0  0  0  0  0  0  0  0  0  0  0
   56.6714   32.8069   46.6871 H   0  0  0  0  0  0  0  0  0  0  0  0
   56.7451   34.4630   44.3883 H   0  0  0  0  0  0  0  0  0  0  0  0
   57.4431   34.8051   46.0093 H   0  0  0  0  0  0  0  0  0  0  0  0
   59.4810   34.8728   46.3413 H   0  0  0  0  0  0  0  0  0  0  0  0
   60.6172   34.8084   44.9515 H   0  0  0  0  0  0  0  0  0  0  0  0
   59.2643   35.9900   44.9515 H   0  0  0  0  0  0  0  0  0  0  0  0
   60.9558   33.4102   48.7243 H   0  0  0  0  0  0  0  0  0  0  0  0
   62.3783   31.3532   48.5077 H   0  0  0  0  0  0  0  0  0  0  0  0
   61.7126   29.5394   46.8773 H   0  0  0  0  0  0  0  0  0  0  0  0
  1  2  1  0
  2  3  1  0
  3  4  1  0
  4  5  1  0
  5  6  1  0
  6  7  1  0
  7  8  1  0
  8  9  2  0
  9 10  1  0
 10 11  1  0
 11 12  1  0
 12 13  1  0
 13 14  1  0
 10 15  1  0
 15 16  2  0
 16 17  1  0
 17 18  2  0
 18 19  1  0
 19 20  2  0
  9  4  1  0
 20 15  1  0
 20  8  1  0
  1 21  1  0
  1 22  1  0
  1 23  1  0
  2 24  1  0
  2 25  1  0
  3 26  1  0
  3 27  1  0
  4 28  1  1
  5 29  1  0
  5 30  1  0
  6 31  1  0
  6 32  1  0
  7 33  1  0
  7 34  1  0
 11 35  1  0
 11 36  1  0
 12 37  1  0
 12 38  1  0
 14 39  1  0
 14 40  1  0
 14 41  1  0
 17 42  1  0
 18 43  1  0
 19 44  1  0
M  CHG  1   5   1
M  END
>  <UniqueID>  (37) 
34

>  <SMILES>  (37) 
CCC[C@H]1[NH2+]CCc2c1n(CCOC)c1ncccc21

>  <Energy>  (37) 
84.1968776721256

>  <Genealogy>  (37) 
CCCC1[NH2+]CCc2c1n(CCOC)c1ncccc21 (protonated)
CCC[C@H]1[NH2+]CCc2c1n(CCOC)c1ncccc21 (chirality)
CCC[C@H]1[NH2+]CCc2c1n(CCOC)c1ncccc21 (3D coordinates assigned)
CCC[C@H]1[NH2+]CCc2c1n(CCOC)c1ncccc21 (nonaromatic ring conformer: 84.1968776721256 kcal/mol)

>  <smiles>  (37) 
CCCC1NCCc2c1n(CCOC)c1ncccc21

>  <score_type>  (37) 
oracle

>  <origin>  (37) 
adg

>  <m_score__min__energy>  (37) 
-5.3300000000000001

>  <m_primary>  (37) 
energy

$$$$
37:0
     RDKit          3D

 33 34  0  0  0  0  0  0  0  0999 V2000
   59.2760   34.9660   44.9940 C   0  0  0  0  0  0  0  0  0  0  0  0
   58.8410   33.6010   45.5420 C   0  0  0  0  0  0  0  0  0  0  0  0
   57.9180   33.7600   46.7560 C   0  0  0  0  0  0  0  0  0  0  0  0
   58.1910   32.7620   44.4670 C   0  0  0  0  0  0  0  0  0  0  0  0
   57.2830   31.7350   44.7810 C   0  0  0  0  0  0  0  0  0  0  0  0
   56.6990   30.9770   43.7510 C   0  0  0  0  0  0  0  0  0  0  0  0
   55.7380   29.8910   44.0630 C   0  0  0  0  0  0  0  0  0  0  0  0
   54.8060   29.6260   43.2570 O   0  0  0  0  0  0  0  0  0  0  0  0
   55.8990   29.1080   45.2530 N   0  0  0  0  0  0  0  0  0  0  0  0
   56.8790   28.0800   45.4530 C   0  0  0  0  0  0  0  0  0  0  0  0
   58.2370   28.4220   45.3690 C   0  0  0  0  0  0  0  0  0  0  0  0
   59.2240   27.4530   45.5730 C   0  0  0  0  0  0  0  0  0  0  0  0
   58.8630   26.1400   45.8810 C   0  0  0  0  0  0  0  0  0  0  0  0
   57.5140   25.7970   45.9990 C   0  0  0  0  0  0  0  0  0  0  0  0
   56.5200   26.7610   45.7960 C   0  0  0  0  0  0  0  0  0  0  0  0
   55.2230   26.4170   45.9940 F   0  0  0  0  0  0  0  0  0  0  0  0
   57.0400   31.2680   42.4210 C   0  0  0  0  0  0  0  0  0  0  0  0
   57.9440   32.2940   42.1470 C   0  0  0  0  0  0  0  0  0  0  0  0
   58.4930   33.0100   43.1620 N   0  0  0  0  0  0  0  0  0  0  0  0
   59.4925   35.6453   45.8316 H   0  0  0  0  0  0  0  0  0  0  0  0
   60.1795   34.8431   44.3787 H   0  0  0  0  0  0  0  0  0  0  0  0
   58.4680   35.3885   44.3787 H   0  0  0  0  0  0  0  0  0  0  0  0
   59.7453   33.0717   45.8767 H   0  0  0  0  0  0  0  0  0  0  0  0
   58.5065   33.6586   47.6798 H   0  0  0  0  0  0  0  0  0  0  0  0
   57.4451   34.7528   46.7296 H   0  0  0  0  0  0  0  0  0  0  0  0
   57.1402   32.9826   46.7296 H   0  0  0  0  0  0  0  0  0  0  0  0
   57.0301   31.5251   45.8308 H   0  0  0  0  0  0  0  0  0  0  0  0
   58.5269   29.4584   45.1413 H   0  0  0  0  0  0  0  0  0  0  0  0
   60.2865   27.7255   45.4907 H   0  0  0  0  0  0  0  0  0  0  0  0
   59.6403   25.3761   46.0306 H   0  0  0  0  0  0  0  0  0  0  0  0
   57.2317   24.7645   46.2526 H   0  0  0  0  0  0  0  0  0  0  0  0
   56.5959   30.6890   41.5979 H   0  0  0  0  0  0  0  0  0  0  0  0
   58.2132   32.5240   41.1055 H   0  0  0  0  0  0  0  0  0  0  0  0
  1  2  1  0
  2  3  1  0
  2  4  1  0
  4  5  2  0
  5  6  1  0
  6  7  1  0
  7  8  2  0
  7  9  1  0
  9 10  1  0
 10 11  2  0
 11 12  1  0
 12 13  2  0
 13 14  1  0
 14 15  2  0
 15 16  1  0
  6 17  2  0
 17 18  1  0
 18 19  2  0
 19  4  1  0
 15 10  1  0
  1 20  1  0
  1 21  1  0
  1 22  1  0
  2 23  1  0
  3 24  1  0
  3 25  1  0
  3 26  1  0
  5 27  1  0
 11 28  1  0
 12 29  1  0
 13 30  1  0
 14 31  1  0
 17 32  1  0
 18 33  1  0
M  CHG  1   9  -1
M  END
>  <UniqueID>  (38) 
35

>  <SMILES>  (38) 
CC(C)c1cc(C(=O)[N-]c2ccccc2F)ccn1

>  <Energy>  (38) 
35.801375429464855

>  <Genealogy>  (38) 
CC(C)c1cc(C(=O)[N-]c2ccccc2F)ccn1 (protonated)
CC(C)c1cc(C(=O)[N-]c2ccccc2F)ccn1 (3D coordinates assigned)
CC(C)c1cc(C(=O)[N-]c2ccccc2F)ccn1 (optimized conformer: 35.801375429464855 kcal/mol)

>  <smiles>  (38) 
CC(C)c1cc(C(=O)Nc2ccccc2F)ccn1

>  <score_type>  (38) 
oracle

>  <origin>  (38) 
adg

>  <m_score__min__energy>  (38) 
-9.3300000000000001

>  <m_primary>  (38) 
energy

$$$$
38:0
     RDKit          3D

 59 63  0  0  0  0  0  0  0  0999 V2000
   57.1400   30.8180   54.6670 C   0  0  0  0  0  0  0  0  0  0  0  0
   57.2820   32.0010   53.8840 O   0  0  0  0  0  0  0  0  0  0  0  0
   58.1520   32.1310   52.7890 C   0  0  0  0  0  0  0  0  0  0  0  0
   57.6920   32.0730   51.4600 C   0  0  0  0  0  0  0  0  0  0  0  0
   58.5860   32.2080   50.3940 C   0  0  0  0  0  0  0  0  0  0  0  0
   58.1230   32.1450   49.1180 N   0  0  0  0  0  0  0  0  0  0  0  0
   58.9410   32.2660   48.0390 C   0  0  0  0  0  0  0  0  0  0  0  0
   58.3740   32.1790   46.7270 N   0  0  0  0  0  0  0  0  0  0  0  0
   57.2810   33.0820   46.3470 C   0  0  0  0  0  0  0  0  0  0  0  0
   57.4810   33.6530   44.9280 C   0  0  0  0  0  0  0  0  0  0  0  0
   58.2580   32.7170   43.9810 C   0  0  0  0  0  0  0  0  0  0  0  0
   58.1970   31.2350   44.4200 C   0  0  2  0  0  0  0  0  0  0  0  0
   56.7930   30.7170   44.4680 N   0  0  0  0  0  0  0  0  0  0  0  0
   56.6990   29.4660   45.2500 C   0  0  0  0  0  0  0  0  0  0  0  0
   56.2670   30.4610   43.1100 C   0  0  0  0  0  0  0  0  0  0  0  0
   58.9050   31.1720   45.7970 C   0  0  0  0  0  0  0  0  0  0  0  0
   60.3210   32.4720   48.2300 C   0  0  0  0  0  0  0  0  0  0  0  0
   61.2200   32.6250   47.1650 C   0  0  0  0  0  0  0  0  0  0  0  0
   62.5390   32.8240   47.4120 N   0  0  0  0  0  0  0  0  0  0  0  0
   63.0170   32.8890   48.6810 C   0  0  0  0  0  0  0  0  0  0  0  0
   64.4920   33.1000   48.8960 C   0  0  0  0  0  0  0  0  0  0  0  0
   65.1490   32.0360   49.7670 C   0  0  0  0  0  0  0  0  0  0  0  0
   64.9580   33.4450   50.3090 C   0  0  0  0  0  0  0  0  0  0  0  0
   62.1640   32.7470   49.7300 N   0  0  0  0  0  0  0  0  0  0  0  0
   60.8310   32.5430   49.5430 C   0  0  0  0  0  0  0  0  0  0  0  0
   59.9600   32.4050   50.6410 C   0  0  0  0  0  0  0  0  0  0  0  0
   60.4180   32.4610   51.9700 C   0  0  0  0  0  0  0  0  0  0  0  0
   59.5170   32.3240   53.0450 C   0  0  0  0  0  0  0  0  0  0  0  0
   59.9410   32.3740   54.3830 O   0  0  0  0  0  0  0  0  0  0  0  0
   59.7810   33.5000   55.2410 C   0  0  0  0  0  0  0  0  0  0  0  0
   57.1714   31.0793   55.7351 H   0  0  0  0  0  0  0  0  0  0  0  0
   56.1778   30.3381   54.4350 H   0  0  0  0  0  0  0  0  0  0  0  0
   57.9613   30.1240   54.4350 H   0  0  0  0  0  0  0  0  0  0  0  0
   56.6214   31.9204   51.2589 H   0  0  0  0  0  0  0  0  0  0  0  0
   56.3323   32.5261   46.3773 H   0  0  0  0  0  0  0  0  0  0  0  0
   57.2677   33.9225   47.0565 H   0  0  0  0  0  0  0  0  0  0  0  0
   56.4907   33.8450   44.4893 H   0  0  0  0  0  0  0  0  0  0  0  0
   58.0810   34.5688   45.0343 H   0  0  0  0  0  0  0  0  0  0  0  0
   57.8286   32.8026   42.9719 H   0  0  0  0  0  0  0  0  0  0  0  0
   59.3136   33.0257   44.0028 H   0  0  0  0  0  0  0  0  0  0  0  0
   58.7013   30.5821   43.6924 H   0  0  0  0  0  0  0  0  0  0  0  0
   56.7168   29.7028   46.3241 H   0  0  0  0  0  0  0  0  0  0  0  0
   55.7595   28.9495   45.0039 H   0  0  0  0  0  0  0  0  0  0  0  0
   57.5508   28.8149   45.0039 H   0  0  0  0  0  0  0  0  0  0  0  0
   55.2801   29.9807   43.1836 H   0  0  0  0  0  0  0  0  0  0  0  0
   56.1717   31.4135   42.5681 H   0  0  0  0  0  0  0  0  0  0  0  0
   56.9578   29.7983   42.5681 H   0  0  0  0  0  0  0  0  0  0  0  0
   58.7544   30.1721   46.2300 H   0  0  0  0  0  0  0  0  0  0  0  0
   59.9746   31.3773   45.6428 H   0  0  0  0  0  0  0  0  0  0  0  0
   60.8554   32.5836   46.1280 H   0  0  0  0  0  0  0  0  0  0  0  0
   64.6699   33.5474   47.9070 H   0  0  0  0  0  0  0  0  0  0  0  0
   64.5481   31.2067   50.1685 H   0  0  0  0  0  0  0  0  0  0  0  0
   66.0077   31.3585   49.6505 H   0  0  0  0  0  0  0  0  0  0  0  0
   64.2187   33.6341   51.1012 H   0  0  0  0  0  0  0  0  0  0  0  0
   65.6204   34.2071   50.7454 H   0  0  0  0  0  0  0  0  0  0  0  0
   61.4886   32.6130   52.1718 H   0  0  0  0  0  0  0  0  0  0  0  0
   59.8277   33.1714   56.2897 H   0  0  0  0  0  0  0  0  0  0  0  0
   60.5851   34.2253   55.0479 H   0  0  0  0  0  0  0  0  0  0  0  0
   58.8067   33.9726   55.0479 H   0  0  0  0  0  0  0  0  0  0  0  0
  1  2  1  0
  2  3  1  0
  3  4  2  0
  4  5  1  0
  5  6  2  0
  6  7  1  0
  7  8  1  0
  8  9  1  0
  9 10  1  0
 10 11  1  0
 11 12  1  0
 12 13  1  0
 13 14  1  0
 13 15  1  0
 12 16  1  0
  7 17  2  0
 17 18  1  0
 18 19  2  0
 19 20  1  0
 20 21  1  0
 21 22  1  0
 22 23  1  0
 20 24  2  0
 24 25  1  0
 25 26  2  0
 26 27  1  0
 27 28  2  0
 28 29  1  0
 29 30  1  0
 28  3  1  0
 26  5  1  0
 16  8  1  0
 25 17  1  0
 23 21  1  0
  1 31  1  0
  1 32  1  0
  1 33  1  0
  4 34  1  0
  9 35  1  0
  9 36  1  0
 10 37  1  0
 10 38  1  0
 11 39  1  0
 11 40  1  0
 12 41  1  6
 14 42  1  0
 14 43  1  0
 14 44  1  0
 15 45  1  0
 15 46  1  0
 15 47  1  0
 16 48  1  0
 16 49  1  0
 18 50  1  0
 21 51  1  0
 22 52  1  0
 22 53  1  0
 23 54  1  0
 23 55  1  0
 27 56  1  0
 30 57  1  0
 30 58  1  0
 30 59  1  0
M  END
>  <UniqueID>  (39) 
36

>  <SMILES>  (39) 
COc1cc2nc(N3CCC[C@H](N(C)C)C3)c3cnc(C4CC4)nc3c2cc1OC

>  <Energy>  (39) 
348.963703255443

>  <Genealogy>  (39) 
COc1cc2nc(N3CCC[C@H](N(C)C)C3)c3cnc(C4CC4)nc3c2cc1OC (chirality)
COc1cc2nc(N3CCC[C@H](N(C)C)C3)c3cnc(C4CC4)nc3c2cc1OC (3D coordinates assigned)
COc1cc2nc(N3CCC[C@H](N(C)C)C3)c3cnc(C4CC4)nc3c2cc1OC (nonaromatic ring conformer: 348.963703255443 kcal/mol)

>  <smiles>  (39) 
COc1cc2nc(N3CCCC(N(C)C)C3)c3cnc(C4CC4)nc3c2cc1OC

>  <score_type>  (39) 
oracle

>  <origin>  (39) 
adg

>  <m_score__min__energy>  (39) 
-7.0700000000000003

>  <m_primary>  (39) 
energy

$$$$
39:0
     RDKit          3D

 31 30  0  0  0  0  0  0  0  0999 V2000
   59.9630   28.9080   44.8440 C   0  0  0  0  0  0  0  0  0  0  0  0
   58.5710   28.6370   45.4140 C   0  0  0  0  0  0  0  0  0  0  0  0
   57.4780   28.5680   44.3380 C   0  0  0  0  0  0  0  0  0  0  0  0
   56.4890   29.7120   44.4180 C   0  0  0  0  0  0  0  0  0  0  0  0
   55.3720   29.4860   44.8610 O   0  0  0  0  0  0  0  0  0  0  0  0
   56.7820   31.1070   43.8840 C   0  0  1  0  0  0  0  0  0  0  0  0
   57.8890   31.8520   44.6680 C   0  0  0  0  0  0  0  0  0  0  0  0
   57.3610   33.1200   45.3390 C   0  0  0  0  0  0  0  0  0  0  0  0
   57.0170   31.1140   42.3540 C   0  0  0  0  0  0  0  0  0  0  0  0
   57.8120   32.3190   41.8240 C   0  0  0  0  0  0  0  0  0  0  0  0
   57.3360   32.7180   40.4300 C   0  0  0  0  0  0  0  0  0  0  0  0
   60.6766   29.0469   45.6695 H   0  0  0  0  0  0  0  0  0  0  0  0
   60.2788   28.0545   44.2261 H   0  0  0  0  0  0  0  0  0  0  0  0
   59.9355   29.8177   44.2261 H   0  0  0  0  0  0  0  0  0  0  0  0
   58.5941   27.6770   45.9505 H   0  0  0  0  0  0  0  0  0  0  0  0
   58.3216   29.4770   46.0789 H   0  0  0  0  0  0  0  0  0  0  0  0
   57.9591   28.5903   43.3490 H   0  0  0  0  0  0  0  0  0  0  0  0
   56.9153   27.6373   44.5029 H   0  0  0  0  0  0  0  0  0  0  0  0
   55.8669   31.6910   44.0617 H   0  0  0  0  0  0  0  0  0  0  0  0
   58.2890   31.1807   45.4422 H   0  0  0  0  0  0  0  0  0  0  0  0
   58.6719   32.1464   43.9535 H   0  0  0  0  0  0  0  0  0  0  0  0
   57.4093   33.0039   46.4318 H   0  0  0  0  0  0  0  0  0  0  0  0
   57.9760   33.9795   45.0340 H   0  0  0  0  0  0  0  0  0  0  0  0
   56.3177   33.2890   45.0340 H   0  0  0  0  0  0  0  0  0  0  0  0
   57.5672   30.1990   42.0891 H   0  0  0  0  0  0  0  0  0  0  0  0
   56.0213   31.1747   41.8904 H   0  0  0  0  0  0  0  0  0  0  0  0
   57.6748   33.1694   42.5081 H   0  0  0  0  0  0  0  0  0  0  0  0
   58.8742   32.0394   41.7649 H   0  0  0  0  0  0  0  0  0  0  0  0
   56.4956   33.4224   40.5172 H   0  0  0  0  0  0  0  0  0  0  0  0
   58.1616   33.1979   39.8840 H   0  0  0  0  0  0  0  0  0  0  0  0
   57.0077   31.8213   39.8840 H   0  0  0  0  0  0  0  0  0  0  0  0
  1  2  1  0
  2  3  1  0
  3  4  1  0
  4  5  2  0
  4  6  1  0
  6  7  1  0
  7  8  1  0
  6  9  1  0
  9 10  1  0
 10 11  1  0
  1 12  1  0
  1 13  1  0
  1 14  1  0
  2 15  1  0
  2 16  1  0
  3 17  1  0
  3 18  1  0
  6 19  1  6
  7 20  1  0
  7 21  1  0
  8 22  1  0
  8 23  1  0
  8 24  1  0
  9 25  1  0
  9 26  1  0
 10 27  1  0
 10 28  1  0
 11 29  1  0
 11 30  1  0
 11 31  1  0
M  END
>  <UniqueID>  (40) 
37

>  <SMILES>  (40) 
CCCC(=O)[C@@H](CC)CCC

>  <Energy>  (40) 
14.6750895509445

>  <Genealogy>  (40) 
CCCC(=O)[C@@H](CC)CCC (chirality)
CCCC(=O)[C@@H](CC)CCC (3D coordinates assigned)
CCCC(=O)[C@@H](CC)CCC (optimized conformer: 14.6750895509445 kcal/mol)

>  <smiles>  (40) 
CCCC(=O)C(CC)CCC

>  <score_type>  (40) 
oracle

>  <origin>  (40) 
adg

>  <m_score__min__energy>  (40) 
-5.1699999999999999

>  <m_primary>  (40) 
energy

$$$$
40:0
     RDKit          3D

 59 62  0  0  0  0  0  0  0  0999 V2000
   61.5250   27.7280   51.4810 C   0  0  0  0  0  0  0  0  0  0  0  0
   60.7730   28.9310   51.3620 O   0  0  0  0  0  0  0  0  0  0  0  0
   60.2760   29.4370   50.1520 C   0  0  0  0  0  0  0  0  0  0  0  0
   60.7030   28.8450   48.9590 C   0  0  0  0  0  0  0  0  0  0  0  0
   60.2340   29.3080   47.7270 C   0  0  0  0  0  0  0  0  0  0  0  0
   59.3250   30.3790   47.6670 C   0  0  0  0  0  0  0  0  0  0  0  0
   58.8220   30.8760   46.3620 C   0  0  0  0  0  0  0  0  0  0  0  0
   58.5970   29.9920   45.3030 C   0  0  0  0  0  0  0  0  0  0  0  0
   58.1190   30.4810   44.0950 C   0  0  0  0  0  0  0  0  0  0  0  0
   57.8730   31.8440   43.9580 C   0  0  0  0  0  0  0  0  0  0  0  0
   57.4450   32.2840   42.8560 O   0  0  0  0  0  0  0  0  0  0  0  0
   58.1030   32.6880   45.0150 N   0  0  0  0  0  0  0  0  0  0  0  0
   57.8860   34.1400   44.8920 C   0  0  0  0  0  0  0  0  0  0  0  0
   59.2210   34.8980   44.8790 C   0  0  0  0  0  0  0  0  0  0  0  0
   59.6500   35.3340   46.2970 C   0  0  0  0  0  0  0  0  0  0  0  0
   60.2400   34.2430   47.1030 N   0  0  0  0  0  0  0  0  0  0  0  0
   60.3760   34.5790   48.5360 C   0  0  0  0  0  0  0  0  0  0  0  0
   61.0690   33.4470   49.2960 C   0  0  0  0  0  0  0  0  0  0  0  0
   62.3830   33.1580   48.7040 N   0  0  0  0  0  0  0  0  0  0  0  0
   63.4010   32.5030   49.4910 C   0  0  0  0  0  0  0  0  0  0  0  0
   63.1110   31.3160   50.1890 C   0  0  0  0  0  0  0  0  0  0  0  0
   64.0940   30.6860   50.9560 C   0  0  0  0  0  0  0  0  0  0  0  0
   65.3770   31.2310   51.0390 C   0  0  0  0  0  0  0  0  0  0  0  0
   65.6790   32.4110   50.3540 C   0  0  0  0  0  0  0  0  0  0  0  0
   67.2870   33.1020   50.4670 Cl  0  0  0  0  0  0  0  0  0  0  0  0
   64.6970   33.0450   49.5830 C   0  0  0  0  0  0  0  0  0  0  0  0
   62.6800   33.6450   47.3490 C   0  0  0  0  0  0  0  0  0  0  0  0
   61.4180   33.5930   46.4760 C   0  0  0  0  0  0  0  0  0  0  0  0
   58.5660   32.2050   46.1780 N   0  0  0  0  0  0  0  0  0  0  0  0
   58.9000   30.9770   48.8660 C   0  0  0  0  0  0  0  0  0  0  0  0
   59.3690   30.5120   50.0980 C   0  0  0  0  0  0  0  0  0  0  0  0
   61.6727   27.4917   52.5451 H   0  0  0  0  0  0  0  0  0  0  0  0
   60.9801   26.9053   50.9949 H   0  0  0  0  0  0  0  0  0  0  0  0
   62.5032   27.8575   50.9949 H   0  0  0  0  0  0  0  0  0  0  0  0
   61.4148   28.0070   48.9909 H   0  0  0  0  0  0  0  0  0  0  0  0
   60.5784   28.8313   46.7974 H   0  0  0  0  0  0  0  0  0  0  0  0
   58.7971   28.9174   45.4258 H   0  0  0  0  0  0  0  0  0  0  0  0
   57.9362   29.7970   43.2531 H   0  0  0  0  0  0  0  0  0  0  0  0
   57.3472   34.3449   43.9551 H   0  0  0  0  0  0  0  0  0  0  0  0
   57.2987   34.4806   45.7575 H   0  0  0  0  0  0  0  0  0  0  0  0
   59.9979   34.2427   44.4583 H   0  0  0  0  0  0  0  0  0  0  0  0
   59.0925   35.8038   44.2683 H   0  0  0  0  0  0  0  0  0  0  0  0
   60.3952   36.1376   46.2024 H   0  0  0  0  0  0  0  0  0  0  0  0
   58.7403   35.6636   46.8203 H   0  0  0  0  0  0  0  0  0  0  0  0
   60.9720   35.4981   48.6359 H   0  0  0  0  0  0  0  0  0  0  0  0
   59.3719   34.7256   48.9605 H   0  0  0  0  0  0  0  0  0  0  0  0
   61.2029   33.7451   50.3463 H   0  0  0  0  0  0  0  0  0  0  0  0
   60.4448   32.5433   49.2348 H   0  0  0  0  0  0  0  0  0  0  0  0
   62.1024   30.8808   50.1302 H   0  0  0  0  0  0  0  0  0  0  0  0
   63.8566   29.7577   51.4963 H   0  0  0  0  0  0  0  0  0  0  0  0
   66.1491   30.7320   51.6430 H   0  0  0  0  0  0  0  0  0  0  0  0
   64.9400   33.9733   49.0453 H   0  0  0  0  0  0  0  0  0  0  0  0
   63.0387   34.6833   47.4070 H   0  0  0  0  0  0  0  0  0  0  0  0
   63.4528   33.0041   46.8996 H   0  0  0  0  0  0  0  0  0  0  0  0
   61.6313   34.1015   45.5242 H   0  0  0  0  0  0  0  0  0  0  0  0
   61.1656   32.5319   46.3332 H   0  0  0  0  0  0  0  0  0  0  0  0
   58.7610   32.8680   46.9630 H   0  0  0  0  0  0  0  0  0  0  0  0
   58.1921   31.8183   48.8345 H   0  0  0  0  0  0  0  0  0  0  0  0
   59.0278   30.9881   51.0291 H   0  0  0  0  0  0  0  0  0  0  0  0
  1  2  1  0
  2  3  1  0
  3  4  2  0
  4  5  1  0
  5  6  2  0
  6  7  1  0
  7  8  1  0
  8  9  2  0
  9 10  1  0
 10 11  2  0
 10 12  1  0
 12 13  1  0
 13 14  1  0
 14 15  1  0
 15 16  1  0
 16 17  1  0
 17 18  1  0
 18 19  1  0
 19 20  1  0
 20 21  2  0
 21 22  1  0
 22 23  2  0
 23 24  1  0
 24 25  1  0
 24 26  2  0
 19 27  1  0
 27 28  1  0
 12 29  1  0
  6 30  1  0
 30 31  2  0
 31  3  1  0
 29  7  2  0
 28 16  1  0
 26 20  1  0
  1 32  1  0
  1 33  1  0
  1 34  1  0
  4 35  1  0
  5 36  1  0
  8 37  1  0
  9 38  1  0
 13 39  1  0
 13 40  1  0
 14 41  1  0
 14 42  1  0
 15 43  1  0
 15 44  1  0
 17 45  1  0
 17 46  1  0
 18 47  1  0
 18 48  1  0
 21 49  1  0
 22 50  1  0
 23 51  1  0
 26 52  1  0
 27 53  1  0
 27 54  1  0
 28 55  1  0
 28 56  1  0
 29 57  1  0
 30 58  1  0
 31 59  1  0
M  CHG  1  29   1
M  END
>  <UniqueID>  (41) 
38

>  <SMILES>  (41) 
COc1ccc(-c2ccc(=O)n(CCCN3CCN(c4cccc(Cl)c4)CC3)[nH+]2)cc1

>  <Energy>  (41) 
77.48796757162374

>  <Genealogy>  (41) 
COc1ccc(-c2ccc(=O)n(CCCN3CCN(c4cccc(Cl)c4)CC3)[nH+]2)cc1 (protonated)
COc1ccc(-c2ccc(=O)n(CCCN3CCN(c4cccc(Cl)c4)CC3)[nH+]2)cc1 (3D coordinates assigned)
COc1ccc(-c2ccc(=O)n(CCCN3CCN(c4cccc(Cl)c4)CC3)[nH+]2)cc1 (nonaromatic ring conformer: 77.48796757162374 kcal/mol)

>  <smiles>  (41) 
COc1ccc(-c2ccc(=O)n(CCCN3CCN(c4cccc(Cl)c4)CC3)n2)cc1

>  <score_type>  (41) 
oracle

>  <origin>  (41) 
adg

>  <m_score__min__energy>  (41) 
-6.7699999999999996

>  <m_primary>  (41) 
energy

$$$$
41:0
     RDKit          3D

 39 42  0  0  0  0  0  0  0  0999 V2000
   58.6680   34.1670   46.9800 C   0  0  0  0  0  0  0  0  0  0  0  0
   59.6800   34.2130   47.9140 C   0  0  0  0  0  0  0  0  0  0  0  0
   60.8470   33.9010   47.2270 C   0  0  0  0  0  0  0  0  0  0  0  0
   62.2480   33.8030   47.7730 C   0  0  0  0  0  0  0  0  0  0  0  0
   63.0040   32.5190   47.4630 C   0  0  0  0  0  0  0  0  0  0  0  0
   63.3680   33.8100   46.7440 C   0  0  0  0  0  0  0  0  0  0  0  0
   60.5670   33.6810   45.9630 O   0  0  0  0  0  0  0  0  0  0  0  0
   59.2760   33.8370   45.7860 C   0  0  0  0  0  0  0  0  0  0  0  0
   58.5820   33.6300   44.4790 C   0  0  0  0  0  0  0  0  0  0  0  0
   57.8810   32.3130   44.4880 C   0  0  0  0  0  0  0  0  0  0  0  0
   56.6030   32.1370   44.8720 N   0  0  0  0  0  0  0  0  0  0  0  0
   56.3640   30.8380   44.7790 N   0  0  0  0  0  0  0  0  0  0  0  0
   57.5080   30.2750   44.3480 C   0  0  0  0  0  0  0  0  0  0  0  0
   57.6880   28.8100   44.1060 C   0  0  0  0  0  0  0  0  0  0  0  0
   58.0550   28.1210   45.3610 N   0  0  0  0  0  0  0  0  0  0  0  0
   58.3720   29.0910   46.4190 C   0  0  0  0  0  0  0  0  0  0  0  0
   59.8650   29.3680   46.3640 C   0  0  0  0  0  0  0  0  0  0  0  0
   60.4660   28.1840   45.6300 C   0  0  0  0  0  0  0  0  0  0  0  0
   59.2830   27.3250   45.2010 C   0  0  0  0  0  0  0  0  0  0  0  0
   58.4450   31.1740   44.1670 O   0  0  0  0  0  0  0  0  0  0  0  0
   57.5976   34.3544   47.1507 H   0  0  0  0  0  0  0  0  0  0  0  0
   59.5839   34.4485   48.9842 H   0  0  0  0  0  0  0  0  0  0  0  0
   62.0248   34.3725   48.6873 H   0  0  0  0  0  0  0  0  0  0  0  0
   63.6912   32.0917   48.2081 H   0  0  0  0  0  0  0  0  0  0  0  0
   62.7185   31.5053   47.1453 H   0  0  0  0  0  0  0  0  0  0  0  0
   64.3186   34.3157   46.9692 H   0  0  0  0  0  0  0  0  0  0  0  0
   63.4547   34.1158   45.6909 H   0  0  0  0  0  0  0  0  0  0  0  0
   57.8481   34.4343   44.3227 H   0  0  0  0  0  0  0  0  0  0  0  0
   59.3225   33.6443   43.6657 H   0  0  0  0  0  0  0  0  0  0  0  0
   56.7474   28.3878   43.7226 H   0  0  0  0  0  0  0  0  0  0  0  0
   58.4942   28.6664   43.3716 H   0  0  0  0  0  0  0  0  0  0  0  0
   57.8122   30.0231   46.2519 H   0  0  0  0  0  0  0  0  0  0  0  0
   58.0920   28.6898   47.4042 H   0  0  0  0  0  0  0  0  0  0  0  0
   60.0636   30.3014   45.8170 H   0  0  0  0  0  0  0  0  0  0  0  0
   60.2965   29.4893   47.3685 H   0  0  0  0  0  0  0  0  0  0  0  0
   61.0323   28.5245   44.7506 H   0  0  0  0  0  0  0  0  0  0  0  0
   61.1667   27.6235   46.2662 H   0  0  0  0  0  0  0  0  0  0  0  0
   59.4003   27.0287   44.1482 H   0  0  0  0  0  0  0  0  0  0  0  0
   59.2298   26.4159   45.8180 H   0  0  0  0  0  0  0  0  0  0  0  0
  1  2  1  0
  2  3  2  0
  3  4  1  0
  4  5  1  0
  5  6  1  0
  3  7  1  0
  7  8  1  0
  8  9  1  0
  9 10  1  0
 10 11  2  0
 11 12  1  0
 12 13  2  0
 13 14  1  0
 14 15  1  0
 15 16  1  0
 16 17  1  0
 17 18  1  0
 18 19  1  0
 13 20  1  0
  8  1  2  0
 20 10  1  0
  6  4  1  0
 19 15  1  0
  1 21  1  0
  2 22  1  0
  4 23  1  0
  5 24  1  0
  5 25  1  0
  6 26  1  0
  6 27  1  0
  9 28  1  0
  9 29  1  0
 14 30  1  0
 14 31  1  0
 16 32  1  0
 16 33  1  0
 17 34  1  0
 17 35  1  0
 18 36  1  0
 18 37  1  0
 19 38  1  0
 19 39  1  0
M  END
>  <UniqueID>  (42) 
39

>  <SMILES>  (42) 
c1cc(C2CC2)oc1Cc1nnc(CN2CCCC2)o1

>  <Energy>  (42) 
365.5053995536026

>  <Genealogy>  (42) 
c1cc(C2CC2)oc1Cc1nnc(CN2CCCC2)o1 (3D coordinates assigned)
c1cc(C2CC2)oc1Cc1nnc(CN2CCCC2)o1 (nonaromatic ring conformer: 365.5053995536026 kcal/mol)

>  <smiles>  (42) 
c1cc(C2CC2)oc1Cc1nnc(CN2CCCC2)o1

>  <score_type>  (42) 
oracle

>  <origin>  (42) 
adg

>  <m_score__min__energy>  (42) 
-7.3200000000000003

>  <m_primary>  (42) 
energy

$$$$
42:0
     RDKit          3D

 30 30  0  0  0  0  0  0  0  0999 V2000
   59.7010   35.2980   46.4300 C   0  0  0  0  0  0  0  0  0  0  0  0
   58.9230   34.0860   46.0150 C   0  0  0  0  0  0  0  0  0  0  0  0
   58.9040   32.9440   46.8300 C   0  0  0  0  0  0  0  0  0  0  0  0
   58.1480   31.8270   46.4610 C   0  0  0  0  0  0  0  0  0  0  0  0
   57.4010   31.8380   45.2690 C   0  0  0  0  0  0  0  0  0  0  0  0
   56.5930   30.7220   44.8680 N   0  0  0  0  0  0  0  0  0  0  0  0
   56.9570   29.6970   43.9310 C   0  0  0  0  0  0  0  0  0  0  0  0
   56.4510   29.6940   42.7740 O   0  0  0  0  0  0  0  0  0  0  0  0
   57.8510   28.5540   44.3810 C   0  0  0  0  0  0  0  0  0  0  0  0
   57.8930   27.4960   43.2640 C   0  0  0  0  0  0  0  0  0  0  0  0
   59.2840   29.0600   44.6580 C   0  0  0  0  0  0  0  0  0  0  0  0
   57.2770   27.9300   45.6730 C   0  0  0  0  0  0  0  0  0  0  0  0
   55.8990   27.8150   45.6020 F   0  0  0  0  0  0  0  0  0  0  0  0
   57.3880   32.9950   44.4810 C   0  0  0  0  0  0  0  0  0  0  0  0
   58.1440   34.1110   44.8480 C   0  0  0  0  0  0  0  0  0  0  0  0
   59.7362   35.3528   47.5281 H   0  0  0  0  0  0  0  0  0  0  0  0
   60.7247   35.2302   46.0333 H   0  0  0  0  0  0  0  0  0  0  0  0
   59.2131   36.2005   46.0333 H   0  0  0  0  0  0  0  0  0  0  0  0
   59.4862   32.9273   47.7631 H   0  0  0  0  0  0  0  0  0  0  0  0
   58.1374   30.9358   47.1057 H   0  0  0  0  0  0  0  0  0  0  0  0
   57.9329   26.4919   43.7114 H   0  0  0  0  0  0  0  0  0  0  0  0
   56.9906   27.5844   42.6412 H   0  0  0  0  0  0  0  0  0  0  0  0
   58.7855   27.6556   42.6412 H   0  0  0  0  0  0  0  0  0  0  0  0
   59.4488   29.1182   45.7440 H   0  0  0  0  0  0  0  0  0  0  0  0
   60.0109   28.3642   44.2136 H   0  0  0  0  0  0  0  0  0  0  0  0
   59.4128   30.0580   44.2136 H   0  0  0  0  0  0  0  0  0  0  0  0
   57.7140   26.9304   45.8140 H   0  0  0  0  0  0  0  0  0  0  0  0
   57.5295   28.5856   46.5194 H   0  0  0  0  0  0  0  0  0  0  0  0
   56.7780   33.0256   43.5661 H   0  0  0  0  0  0  0  0  0  0  0  0
   58.1286   35.0135   44.2193 H   0  0  0  0  0  0  0  0  0  0  0  0
  1  2  1  0
  2  3  2  0
  3  4  1  0
  4  5  2  0
  5  6  1  0
  6  7  1  0
  7  8  2  0
  7  9  1  0
  9 10  1  0
  9 11  1  0
  9 12  1  0
 12 13  1  0
  5 14  1  0
 14 15  2  0
 15  2  1  0
  1 16  1  0
  1 17  1  0
  1 18  1  0
  3 19  1  0
  4 20  1  0
 10 21  1  0
 10 22  1  0
 10 23  1  0
 11 24  1  0
 11 25  1  0
 11 26  1  0
 12 27  1  0
 12 28  1  0
 14 29  1  0
 15 30  1  0
M  CHG  1   6  -1
M  END
>  <UniqueID>  (43) 
40

>  <SMILES>  (43) 
Cc1ccc([N-]C(=O)C(C)(C)CF)cc1

>  <Energy>  (43) 
27.128416072580542

>  <Genealogy>  (43) 
Cc1ccc([N-]C(=O)C(C)(C)CF)cc1 (protonated)
Cc1ccc([N-]C(=O)C(C)(C)CF)cc1 (3D coordinates assigned)
Cc1ccc([N-]C(=O)C(C)(C)CF)cc1 (optimized conformer: 27.128416072580542 kcal/mol)

>  <smiles>  (43) 
Cc1ccc(NC(=O)C(C)(C)CF)cc1

>  <score_type>  (43) 
oracle

>  <origin>  (43) 
adg

>  <m_score__min__energy>  (43) 
-7.6500000000000004

>  <m_primary>  (43) 
energy

$$$$
43:0
     RDKit          3D

 37 37  0  0  0  0  0  0  0  0999 V2000
   58.3670   21.8880   44.2420 C   0  0  0  0  0  0  0  0  0  0  0  0
   58.2070   23.3620   44.6170 C   0  0  0  0  0  0  0  0  0  0  0  0
   57.1280   24.0830   43.7920 C   0  0  0  0  0  0  0  0  0  0  0  0
   56.1460   23.1270   43.1060 C   0  0  0  0  0  0  0  0  0  0  0  0
   55.3240   22.4860   44.0760 O   0  0  0  0  0  0  0  0  0  0  0  0
   54.3690   23.1730   44.8290 C   0  0  0  0  0  0  0  0  0  0  0  0
   53.3730   23.7110   44.2730 O   0  0  0  0  0  0  0  0  0  0  0  0
   54.5580   23.3000   46.3020 C   0  0  0  0  0  0  0  0  0  0  0  0
   55.3020   24.5210   46.5860 N   0  0  0  0  0  0  0  0  0  0  0  0
   56.6000   24.5710   47.1930 C   0  0  0  0  0  0  0  0  0  0  0  0
   57.0030   23.5690   47.8390 O   0  0  0  0  0  0  0  0  0  0  0  0
   57.4990   25.7720   47.0800 C   0  0  0  0  0  0  0  0  0  0  0  0
   56.9250   26.7490   46.1580 N   0  0  0  0  0  0  0  0  0  0  0  0
   57.4940   28.0520   45.9660 C   0  0  0  0  0  0  0  0  0  0  0  0
   58.5190   28.3990   46.6140 O   0  0  0  0  0  0  0  0  0  0  0  0
   56.8850   28.9910   45.0120 C   0  0  0  0  0  0  0  0  0  0  0  0
   57.5690   29.8200   44.1420 C   0  0  0  0  0  0  0  0  0  0  0  0
   56.5980   30.5110   43.4510 C   0  0  0  0  0  0  0  0  0  0  0  0
   55.3870   30.0650   43.9380 C   0  0  0  0  0  0  0  0  0  0  0  0
   55.5910   29.1600   44.8680 O   0  0  0  0  0  0  0  0  0  0  0  0
   58.4328   21.2818   45.1575 H   0  0  0  0  0  0  0  0  0  0  0  0
   57.4987   21.5641   43.6494 H   0  0  0  0  0  0  0  0  0  0  0  0
   59.2845   21.7579   43.6494 H   0  0  0  0  0  0  0  0  0  0  0  0
   57.9338   23.4245   45.6807 H   0  0  0  0  0  0  0  0  0  0  0  0
   59.1657   23.8588   44.4069 H   0  0  0  0  0  0  0  0  0  0  0  0
   56.5598   24.7441   44.4630 H   0  0  0  0  0  0  0  0  0  0  0  0
   57.6455   24.6415   42.9981 H   0  0  0  0  0  0  0  0  0  0  0  0
   55.5112   23.6958   42.4107 H   0  0  0  0  0  0  0  0  0  0  0  0
   56.7146   22.3625   42.5562 H   0  0  0  0  0  0  0  0  0  0  0  0
   53.5764   23.3438   46.7965 H   0  0  0  0  0  0  0  0  0  0  0  0
   55.1164   22.4306   46.6794 H   0  0  0  0  0  0  0  0  0  0  0  0
   57.6149   26.2333   48.0719 H   0  0  0  0  0  0  0  0  0  0  0  0
   58.4791   25.4510   46.6973 H   0  0  0  0  0  0  0  0  0  0  0  0
   56.0610   26.4850   45.6340 H   0  0  0  0  0  0  0  0  0  0  0  0
   58.6592   29.9090   44.0260 H   0  0  0  0  0  0  0  0  0  0  0  0
   56.7566   31.2669   42.6678 H   0  0  0  0  0  0  0  0  0  0  0  0
   54.4004   30.4141   43.5991 H   0  0  0  0  0  0  0  0  0  0  0  0
  1  2  1  0
  2  3  1  0
  3  4  1  0
  4  5  1  0
  5  6  1  0
  6  7  2  0
  6  8  1  0
  8  9  1  0
  9 10  1  0
 10 11  2  0
 10 12  1  0
 12 13  1  0
 13 14  1  0
 14 15  2  0
 14 16  1  0
 16 17  2  0
 17 18  1  0
 18 19  2  0
 19 20  1  0
 20 16  1  0
  1 21  1  0
  1 22  1  0
  1 23  1  0
  2 24  1  0
  2 25  1  0
  3 26  1  0
  3 27  1  0
  4 28  1  0
  4 29  1  0
  8 30  1  0
  8 31  1  0
 12 32  1  0
 12 33  1  0
 13 34  1  0
 17 35  1  0
 18 36  1  0
 19 37  1  0
M  CHG  1   9  -1
M  END
>  <UniqueID>  (44) 
41

>  <SMILES>  (44) 
CCCCOC(=O)C[N-]C(=O)CNC(=O)c1ccco1

>  <Energy>  (44) 
45.99229350000871

>  <Genealogy>  (44) 
CCCCOC(=O)C[N-]C(=O)CNC(=O)c1ccco1 (protonated)
CCCCOC(=O)C[N-]C(=O)CNC(=O)c1ccco1 (3D coordinates assigned)
CCCCOC(=O)C[N-]C(=O)CNC(=O)c1ccco1 (optimized conformer: 45.99229350000871 kcal/mol)

>  <smiles>  (44) 
CCCCOC(=O)CNC(=O)CNC(=O)c1ccco1

>  <score_type>  (44) 
oracle

>  <origin>  (44) 
adg

>  <m_score__min__energy>  (44) 
-7.4699999999999998

>  <m_primary>  (44) 
energy

$$$$
44:0
     RDKit          3D

 50 51  0  0  0  0  0  0  0  0999 V2000
   58.0150   21.4630   43.7230 C   0  0  0  0  0  0  0  0  0  0  0  0
   57.3960   22.0930   44.9670 C   0  0  0  0  0  0  0  0  0  0  0  0
   57.4220   23.5660   44.8590 N   0  0  0  0  0  0  0  0  0  0  0  0
   56.6670   24.0810   43.6950 C   0  0  0  0  0  0  0  0  0  0  0  0
   55.3540   23.3350   43.4210 C   0  0  0  0  0  0  0  0  0  0  0  0
   56.9510   24.3540   46.3520 S   0  0  0  0  0  0  0  0  0  0  0  0
   55.4570   24.5220   46.4010 O   0  0  0  0  0  0  0  0  0  0  0  0
   57.3790   23.5310   47.5390 O   0  0  0  0  0  0  0  0  0  0  0  0
   57.6870   25.9500   46.4350 C   0  0  0  0  0  0  0  0  0  0  0  0
   58.9730   26.1230   46.9630 C   0  0  0  0  0  0  0  0  0  0  0  0
   59.5600   27.3910   46.9750 C   0  0  0  0  0  0  0  0  0  0  0  0
   58.8670   28.4900   46.4580 C   0  0  0  0  0  0  0  0  0  0  0  0
   57.5730   28.3330   45.9410 C   0  0  0  0  0  0  0  0  0  0  0  0
   56.8980   29.4630   45.3670 N   0  0  0  0  0  0  0  0  0  0  0  0
   57.0030   29.8220   43.9830 C   0  0  0  0  0  0  0  0  0  0  0  0
   57.0680   28.9270   43.0970 O   0  0  0  0  0  0  0  0  0  0  0  0
   57.0210   31.2650   43.5860 C   0  0  0  0  0  0  0  0  0  0  0  0
   56.7290   32.0910   44.7130 O   0  0  0  0  0  0  0  0  0  0  0  0
   57.6860   32.6770   45.5580 C   0  0  0  0  0  0  0  0  0  0  0  0
   58.1490   32.0550   46.7280 C   0  0  0  0  0  0  0  0  0  0  0  0
   59.0880   32.7040   47.5320 C   0  0  0  0  0  0  0  0  0  0  0  0
   59.5690   33.9370   47.1890 N   0  0  0  0  0  0  0  0  0  0  0  0
   60.5660   34.5920   48.0430 C   0  0  0  0  0  0  0  0  0  0  0  0
   59.1360   34.5540   46.0430 C   0  0  0  0  0  0  0  0  0  0  0  0
   59.5780   35.6910   45.7200 O   0  0  0  0  0  0  0  0  0  0  0  0
   58.1940   33.9310   45.2170 C   0  0  0  0  0  0  0  0  0  0  0  0
   56.9910   27.0520   45.9250 C   0  0  0  0  0  0  0  0  0  0  0  0
   58.7564   20.7084   44.0244 H   0  0  0  0  0  0  0  0  0  0  0  0
   57.2268   20.9837   43.1238 H   0  0  0  0  0  0  0  0  0  0  0  0
   58.5081   22.2427   43.1238 H   0  0  0  0  0  0  0  0  0  0  0  0
   56.3542   21.7542   45.0659 H   0  0  0  0  0  0  0  0  0  0  0  0
   57.9755   21.7874   45.8506 H   0  0  0  0  0  0  0  0  0  0  0  0
   56.4314   25.1399   43.8770 H   0  0  0  0  0  0  0  0  0  0  0  0
   57.3060   23.9341   42.8118 H   0  0  0  0  0  0  0  0  0  0  0  0
   54.8793   23.0653   44.3760 H   0  0  0  0  0  0  0  0  0  0  0  0
   54.6771   23.9834   42.8453 H   0  0  0  0  0  0  0  0  0  0  0  0
   55.5645   22.4216   42.8453 H   0  0  0  0  0  0  0  0  0  0  0  0
   59.5212   25.2598   47.3685 H   0  0  0  0  0  0  0  0  0  0  0  0
   60.5691   27.5249   47.3919 H   0  0  0  0  0  0  0  0  0  0  0  0
   59.3396   29.4833   46.4569 H   0  0  0  0  0  0  0  0  0  0  0  0
   56.3400   30.0860   45.9940 H   0  0  0  0  0  0  0  0  0  0  0  0
   58.0168   31.5219   43.1957 H   0  0  0  0  0  0  0  0  0  0  0  0
   56.2586   31.4332   42.8111 H   0  0  0  0  0  0  0  0  0  0  0  0
   57.7736   31.0603   47.0103 H   0  0  0  0  0  0  0  0  0  0  0  0
   59.4449   32.2178   48.4519 H   0  0  0  0  0  0  0  0  0  0  0  0
   60.3106   34.4242   49.0997 H   0  0  0  0  0  0  0  0  0  0  0  0
   61.5606   34.1708   47.8348 H   0  0  0  0  0  0  0  0  0  0  0  0
   60.5743   35.6721   47.8348 H   0  0  0  0  0  0  0  0  0  0  0  0
   57.8536   34.4303   44.2979 H   0  0  0  0  0  0  0  0  0  0  0  0
   55.9820   26.9157   45.5088 H   0  0  0  0  0  0  0  0  0  0  0  0
  1  2  1  0
  2  3  1  0
  3  4  1  0
  4  5  1  0
  3  6  1  0
  6  7  2  0
  6  8  2  0
  6  9  1  0
  9 10  2  0
 10 11  1  0
 11 12  2  0
 12 13  1  0
 13 14  1  0
 14 15  1  0
 15 16  2  0
 15 17  1  0
 17 18  1  0
 18 19  1  0
 19 20  1  0
 20 21  2  0
 21 22  1  0
 22 23  1  0
 22 24  1  0
 24 25  2  0
 24 26  1  0
 13 27  2  0
 27  9  1  0
 26 19  2  0
  1 28  1  0
  1 29  1  0
  1 30  1  0
  2 31  1  0
  2 32  1  0
  4 33  1  0
  4 34  1  0
  5 35  1  0
  5 36  1  0
  5 37  1  0
 10 38  1  0
 11 39  1  0
 12 40  1  0
 14 41  1  0
 17 42  1  0
 17 43  1  0
 20 44  1  0
 21 45  1  0
 23 46  1  0
 23 47  1  0
 23 48  1  0
 26 49  1  0
 27 50  1  0
M  END
>  <UniqueID>  (45) 
42

>  <SMILES>  (45) 
CCN(CC)S(=O)(=O)c1cccc(NC(=O)COc2ccn(C)c(=O)c2)c1

>  <Energy>  (45) 
49.3809962997449

>  <Genealogy>  (45) 
CCN(CC)S(=O)(=O)c1cccc(NC(=O)COc2ccn(C)c(=O)c2)c1 (3D coordinates assigned)
CCN(CC)S(=O)(=O)c1cccc(NC(=O)COc2ccn(C)c(=O)c2)c1 (optimized conformer: 49.3809962997449 kcal/mol)

>  <smiles>  (45) 
CCN(CC)S(=O)(=O)c1cccc(NC(=O)COc2ccn(C)c(=O)c2)c1

>  <score_type>  (45) 
oracle

>  <origin>  (45) 
adg

>  <m_score__min__energy>  (45) 
-7.8499999999999996

>  <m_primary>  (45) 
energy

$$$$
45:0
     RDKit          3D

 54 57  0  0  0  0  0  0  0  0999 V2000
   62.7680   34.1900   50.2830 C   0  0  0  0  0  0  0  0  0  0  0  0
   61.8610   34.2150   49.0740 C   0  0  0  0  0  0  0  0  0  0  0  0
   62.3680   33.3810   48.0000 N   0  0  0  0  0  0  0  0  0  0  0  0
   61.7670   33.6590   46.7440 C   0  0  0  0  0  0  0  0  0  0  0  0
   60.3950   34.2470   46.9380 C   0  0  0  0  0  0  0  0  0  0  0  0
   59.4440   33.2710   46.4260 N   0  0  0  0  0  0  0  0  0  0  0  0
   59.2210   33.4430   45.0040 C   0  0  0  0  0  0  0  0  0  0  0  0
   58.3070   32.3130   44.5190 C   0  0  0  0  0  0  0  0  0  0  0  0
   57.1380   32.3070   45.2420 O   0  0  0  0  0  0  0  0  0  0  0  0
   56.9970   33.3320   46.1540 C   0  0  0  0  0  0  0  0  0  0  0  0
   58.1730   33.4640   47.1010 C   0  0  0  0  0  0  0  0  0  0  0  0
   62.4340   32.0120   48.4010 C   0  0  0  0  0  0  0  0  0  0  0  0
   61.3430   31.1550   47.8700 C   0  0  0  0  0  0  0  0  0  0  0  0
   61.4950   30.4680   46.6800 C   0  0  0  0  0  0  0  0  0  0  0  0
   60.4760   29.6550   46.1670 C   0  0  0  0  0  0  0  0  0  0  0  0
   59.2760   29.4880   46.7960 C   0  0  0  0  0  0  0  0  0  0  0  0
   58.1430   28.7160   46.3570 C   0  0  0  0  0  0  0  0  0  0  0  0
   57.1880   29.1920   45.5080 N   0  0  0  0  0  0  0  0  0  0  0  0
   56.2860   28.2720   45.2580 N   0  0  0  0  0  0  0  0  0  0  0  0
   56.5730   27.1380   45.9120 C   0  0  0  0  0  0  0  0  0  0  0  0
   55.9620   25.9490   45.9590 N   0  0  0  0  0  0  0  0  0  0  0  0
   56.4510   24.9230   46.6950 C   0  0  0  0  0  0  0  0  0  0  0  0
   57.6180   25.1890   47.3880 C   0  0  0  0  0  0  0  0  0  0  0  0
   58.2620   26.4020   47.3530 C   0  0  0  0  0  0  0  0  0  0  0  0
   57.7490   27.4250   46.6040 C   0  0  0  0  0  0  0  0  0  0  0  0
   59.1390   30.1920   47.9980 C   0  0  0  0  0  0  0  0  0  0  0  0
   60.1310   30.9890   48.5090 C   0  0  0  0  0  0  0  0  0  0  0  0
   62.1588   34.2068   51.1988 H   0  0  0  0  0  0  0  0  0  0  0  0
   63.3778   33.2747   50.2650 H   0  0  0  0  0  0  0  0  0  0  0  0
   63.4273   35.0703   50.2650 H   0  0  0  0  0  0  0  0  0  0  0  0
   60.8659   33.8500   49.3683 H   0  0  0  0  0  0  0  0  0  0  0  0
   61.8108   35.2507   48.7068 H   0  0  0  0  0  0  0  0  0  0  0  0
   62.3938   34.3754   46.1928 H   0  0  0  0  0  0  0  0  0  0  0  0
   61.6765   32.7213   46.1761 H   0  0  0  0  0  0  0  0  0  0  0  0
   60.2097   34.4321   48.0064 H   0  0  0  0  0  0  0  0  0  0  0  0
   60.2984   35.2073   46.4103 H   0  0  0  0  0  0  0  0  0  0  0  0
   58.7411   34.4151   44.8179 H   0  0  0  0  0  0  0  0  0  0  0  0
   60.1790   33.4130   44.4643 H   0  0  0  0  0  0  0  0  0  0  0  0
   58.0754   32.4641   43.4543 H   0  0  0  0  0  0  0  0  0  0  0  0
   58.8207   31.3502   44.6576 H   0  0  0  0  0  0  0  0  0  0  0  0
   56.8868   34.2769   45.6017 H   0  0  0  0  0  0  0  0  0  0  0  0
   56.1127   33.1014   46.7661 H   0  0  0  0  0  0  0  0  0  0  0  0
   58.1577   34.4694   47.5471 H   0  0  0  0  0  0  0  0  0  0  0  0
   58.0768   32.6837   47.8703 H   0  0  0  0  0  0  0  0  0  0  0  0
   63.3930   31.5995   48.0542 H   0  0  0  0  0  0  0  0  0  0  0  0
   62.3293   32.0042   49.4960 H   0  0  0  0  0  0  0  0  0  0  0  0
   62.4387   30.5620   46.1226 H   0  0  0  0  0  0  0  0  0  0  0  0
   60.6502   29.1288   45.2169 H   0  0  0  0  0  0  0  0  0  0  0  0
   57.1200   30.1500   45.0760 H   0  0  0  0  0  0  0  0  0  0  0  0
   55.9532   23.9431   46.7388 H   0  0  0  0  0  0  0  0  0  0  0  0
   58.0541   24.3859   48.0003 H   0  0  0  0  0  0  0  0  0  0  0  0
   59.1889   26.5503   47.9265 H   0  0  0  0  0  0  0  0  0  0  0  0
   58.1955   30.1021   48.5564 H   0  0  0  0  0  0  0  0  0  0  0  0
   59.9549   31.5134   49.4598 H   0  0  0  0  0  0  0  0  0  0  0  0
  1  2  1  0
  2  3  1  0
  3  4  1  0
  4  5  1  0
  5  6  1  0
  6  7  1  0
  7  8  1  0
  8  9  1  0
  9 10  1  0
 10 11  1  0
  3 12  1  0
 12 13  1  0
 13 14  2  0
 14 15  1  0
 15 16  2  0
 16 17  1  0
 17 18  1  0
 18 19  1  0
 19 20  2  0
 20 21  1  0
 21 22  2  0
 22 23  1  0
 23 24  2  0
 24 25  1  0
 16 26  1  0
 26 27  2  0
 11  6  1  0
 27 13  1  0
 25 17  2  0
 25 20  1  0
  1 28  1  0
  1 29  1  0
  1 30  1  0
  2 31  1  0
  2 32  1  0
  4 33  1  0
  4 34  1  0
  5 35  1  0
  5 36  1  0
  7 37  1  0
  7 38  1  0
  8 39  1  0
  8 40  1  0
 10 41  1  0
 10 42  1  0
 11 43  1  0
 11 44  1  0
 12 45  1  0
 12 46  1  0
 14 47  1  0
 15 48  1  0
 18 49  1  0
 22 50  1  0
 23 51  1  0
 24 52  1  0
 26 53  1  0
 27 54  1  0
M  END
>  <smiles>  (46) 
CCN(CCN1CCOCC1)Cc1ccc(-c2[nH]nc3ncccc23)cc1

>  <score_type>  (46) 
oracle

>  <origin>  (46) 
adg

>  <m_score__min__energy>  (46) 
-8.7100000000000009

>  <m_primary>  (46) 
energy

$$$$
