0:0
     RDKit          3D

 85 90  0  0  0  0  0  0  0  0999 V2000
   57.0644   32.3899   54.3178 H   0  0  0  0  0  0  0  0  0  0  0  0
   57.4590   32.2890   53.2960 C   0  0  0  0  0  0  0  0  0  0  0  0
   58.4400   33.0290   52.8150 C   0  0  0  0  0  0  0  0  0  0  0  0
   58.9677   33.7972   53.3993 H   0  0  0  0  0  0  0  0  0  0  0  0
   58.7550   32.7100   51.3930 C   0  0  1  0  0  0  0  0  0  0  0  0
   58.5341   33.5180   50.6800 H   0  0  0  0  0  0  0  0  0  0  0  0
   60.2640   32.5210   51.1940 C   0  0  0  0  0  0  0  0  0  0  0  0
   61.1330   33.7720   51.2360 C   0  0  0  0  0  0  0  0  0  0  0  0
   60.4795   34.6523   51.3255 H   0  0  0  0  0  0  0  0  0  0  0  0
   61.8090   33.6799   52.0989 H   0  0  0  0  0  0  0  0  0  0  0  0
   62.1660   33.9590   49.7400 S   0  0  0  0  0  0  0  0  0  0  0  0
   60.8010   34.0450   48.5800 C   0  0  0  0  0  0  0  0  0  0  0  0
   60.7820   33.4720   47.3580 N   0  0  0  0  0  0  0  0  0  0  0  0
   61.8410   32.6640   46.7470 C   0  0  0  0  0  0  0  0  0  0  0  0
   61.7790   32.7540   45.6524 H   0  0  0  0  0  0  0  0  0  0  0  0
   62.8161   33.0279   47.1031 H   0  0  0  0  0  0  0  0  0  0  0  0
   61.6890   31.1990   47.1390 C   0  0  0  0  0  0  0  0  0  0  0  0
   61.6800   31.1119   48.2355 H   0  0  0  0  0  0  0  0  0  0  0  0
   60.7453   30.8066   46.7322 H   0  0  0  0  0  0  0  0  0  0  0  0
   62.5320   30.6212   46.7322 H   0  0  0  0  0  0  0  0  0  0  0  0
   59.4830   33.5920   46.9850 C   0  0  0  0  0  0  0  0  0  0  0  0
   58.8750   32.9690   45.7970 C   0  0  0  0  0  0  0  0  0  0  0  0
   58.2670   31.7100   45.8790 C   0  0  0  0  0  0  0  0  0  0  0  0
   58.2490   31.1725   46.8386 H   0  0  0  0  0  0  0  0  0  0  0  0
   57.6830   31.1330   44.7480 C   0  0  0  0  0  0  0  0  0  0  0  0
   57.1905   30.1525   44.8259 H   0  0  0  0  0  0  0  0  0  0  0  0
   57.7220   31.7980   43.5150 C   0  0  0  0  0  0  0  0  0  0  0  0
   57.0570   31.1930   42.3140 C   0  0  0  0  0  0  0  0  0  0  0  0
   56.2803   30.4864   42.6420 H   0  0  0  0  0  0  0  0  0  0  0  0
   56.5971   31.9888   41.7097 H   0  0  0  0  0  0  0  0  0  0  0  0
   57.8059   30.6601   41.7097 H   0  0  0  0  0  0  0  0  0  0  0  0
   58.3400   33.0550   43.4300 C   0  0  0  0  0  0  0  0  0  0  0  0
   58.3650   33.5892   42.4688 H   0  0  0  0  0  0  0  0  0  0  0  0
   58.9240   33.6310   44.5620 C   0  0  0  0  0  0  0  0  0  0  0  0
   59.4240   34.6076   44.4835 H   0  0  0  0  0  0  0  0  0  0  0  0
   58.7530   34.2240   47.9280 N   0  0  0  0  0  0  0  0  0  0  0  0
   59.5880   34.5150   48.9100 N   0  0  0  0  0  0  0  0  0  0  0  0
   59.3130   34.9690   49.8100 H   0  0  0  0  0  0  0  0  0  0  0  0
   60.8140   31.2750   51.2250 C   0  0  0  0  0  0  0  0  0  0  0  0
   62.1780   31.0250   50.6800 C   0  0  0  0  0  0  0  0  0  0  0  0
   62.3270   30.2360   49.7060 O   0  0  0  0  0  0  0  0  0  0  0  0
   63.2990   31.6120   51.2690 O   0  0  0  0  0  0  0  0  0  0  0  0
   64.6290   31.3210   50.8540 C   0  0  0  0  0  0  0  0  0  0  0  0
   64.6659   30.3078   50.4274 H   0  0  0  0  0  0  0  0  0  0  0  0
   65.3034   31.3804   51.7210 H   0  0  0  0  0  0  0  0  0  0  0  0
   65.0670   32.3270   49.8050 C   0  0  0  0  0  0  0  0  0  0  0  0
   65.4589   33.2271   50.3012 H   0  0  0  0  0  0  0  0  0  0  0  0
   65.8532   31.8829   49.1768 H   0  0  0  0  0  0  0  0  0  0  0  0
   64.2063   32.6000   49.1768 H   0  0  0  0  0  0  0  0  0  0  0  0
   59.8940   30.1190   51.6140 C   0  0  2  0  0  0  0  0  0  0  0  0
   59.5785   30.2699   52.6569 H   0  0  0  0  0  0  0  0  0  0  0  0
   60.5450   28.7440   51.8220 C   0  0  0  0  0  0  0  0  0  0  0  0
   60.7650   27.8430   50.7570 C   0  0  0  0  0  0  0  0  0  0  0  0
   60.4788   28.1324   49.7351 H   0  0  0  0  0  0  0  0  0  0  0  0
   61.3400   26.5910   50.9810 C   0  0  0  0  0  0  0  0  0  0  0  0
   61.5215   25.9124   50.1345 H   0  0  0  0  0  0  0  0  0  0  0  0
   61.6850   26.1970   52.2720 C   0  0  0  0  0  0  0  0  0  0  0  0
   62.1468   25.2134   52.4433 H   0  0  0  0  0  0  0  0  0  0  0  0
   61.4440   27.0510   53.3450 C   0  0  0  0  0  0  0  0  0  0  0  0
   61.7061   26.7328   54.3648 H   0  0  0  0  0  0  0  0  0  0  0  0
   60.8710   28.3110   53.1370 C   0  0  0  0  0  0  0  0  0  0  0  0
   60.5930   29.3220   54.5560 Cl  0  0  0  0  0  0  0  0  0  0  0  0
   58.6270   30.1780   50.7160 C   0  0  2  0  0  0  0  0  0  0  0  0
   58.0292   29.2812   50.9361 H   0  0  0  0  0  0  0  0  0  0  0  0
   58.9040   30.0940   49.2190 C   0  0  0  0  0  0  0  0  0  0  0  0
   59.3460   31.1110   48.6180 O   0  0  0  0  0  0  0  0  0  0  0  0
   58.5680   28.9100   48.4780 N   0  0  0  0  0  0  0  0  0  0  0  0
   58.8910   28.6690   47.2450 C   0  0  0  0  0  0  0  0  0  0  0  0
   57.9860   28.2610   46.3310 N   0  0  0  0  0  0  0  0  0  0  0  0
   58.7190   28.1720   45.2040 C   0  0  0  0  0  0  0  0  0  0  0  0
   58.1470   27.8290   43.8670 C   0  0  0  0  0  0  0  0  0  0  0  0
   57.2107   27.2676   44.0018 H   0  0  0  0  0  0  0  0  0  0  0  0
   57.9427   28.7537   43.3074 H   0  0  0  0  0  0  0  0  0  0  0  0
   58.8665   27.2132   43.3074 H   0  0  0  0  0  0  0  0  0  0  0  0
   60.0210   28.5390   45.4770 C   0  0  0  0  0  0  0  0  0  0  0  0
   61.1630   28.6110   44.5190 C   0  0  0  0  0  0  0  0  0  0  0  0
   62.1080   28.6706   45.0788 H   0  0  0  0  0  0  0  0  0  0  0  0
   61.1679   27.7114   43.8860 H   0  0  0  0  0  0  0  0  0  0  0  0
   61.0549   29.5041   43.8860 H   0  0  0  0  0  0  0  0  0  0  0  0
   60.0970   28.8380   46.7490 O   0  0  0  0  0  0  0  0  0  0  0  0
   57.8440   31.4840   51.0620 C   0  0  1  0  0  0  0  0  0  0  0  0
   57.2651   31.6767   50.1467 H   0  0  0  0  0  0  0  0  0  0  0  0
   56.9450   31.3050   52.3090 C   0  0  0  0  0  0  0  0  0  0  0  0
   57.0294   30.2815   52.7031 H   0  0  0  0  0  0  0  0  0  0  0  0
   55.8815   31.4665   52.0791 H   0  0  0  0  0  0  0  0  0  0  0  0
  1  2  1  0
  2  3  2  0
  3  4  1  0
  3  5  1  0
  5  6  1  6
  5  7  1  0
  7  8  1  0
  8  9  1  0
  8 10  1  0
  8 11  1  0
 11 12  1  0
 12 13  1  0
 13 14  1  0
 14 15  1  0
 14 16  1  0
 14 17  1  0
 17 18  1  0
 17 19  1  0
 17 20  1  0
 13 21  1  0
 21 22  1  0
 22 23  2  0
 23 24  1  0
 23 25  1  0
 25 26  1  0
 25 27  2  0
 27 28  1  0
 28 29  1  0
 28 30  1  0
 28 31  1  0
 27 32  1  0
 32 33  1  0
 32 34  2  0
 34 35  1  0
 21 36  2  0
 36 37  1  0
 37 38  1  0
  7 39  2  0
 39 40  1  0
 40 41  2  0
 40 42  1  0
 42 43  1  0
 43 44  1  0
 43 45  1  0
 43 46  1  0
 46 47  1  0
 46 48  1  0
 46 49  1  0
 39 50  1  0
 50 51  1  1
 50 52  1  0
 52 53  2  0
 53 54  1  0
 53 55  1  0
 55 56  1  0
 55 57  2  0
 57 58  1  0
 57 59  1  0
 59 60  1  0
 59 61  2  0
 61 62  1  0
 50 63  1  0
 63 64  1  1
 63 65  1  0
 65 66  2  0
 65 67  1  0
 67 68  2  0
 68 69  1  0
 69 70  1  0
 70 71  1  0
 71 72  1  0
 71 73  1  0
 71 74  1  0
 70 75  2  0
 75 76  1  0
 76 77  1  0
 76 78  1  0
 76 79  1  0
 75 80  1  0
 63 81  1  0
 81 82  1  6
 81 83  1  0
 83 84  1  0
 83 85  1  0
 83  2  1  0
 81  5  1  0
 37 12  2  0
 61 52  1  0
 80 68  1  0
 34 22  1  0
M  CHG  2  37   1  69  -1
M  END
>  <UniqueID>  (1) 
1

>  <SMILES>  (1) 
CCOC(=O)C1=C(CSc2[nH+]nc(-c3ccc(C)cc3)n2CC)[C@@H]2C=CC[C@@H]2C(C(=O)/N=c2/[n-]c(C)c(C)o2)C1c1ccccc1Cl

>  <Energy>  (1) 
175.80630242326663

>  <Genealogy>  (1) 
CCOC(=O)C1=C(CSc2[nH+]nc(-c3ccc(C)cc3)n2CC)C2C=CCC2C(C(=O)N=c2[n-]c(C)c(C)o2)C1c1ccccc1Cl (protonated)
CCOC(=O)C1=C(CSc2[nH+]nc(-c3ccc(C)cc3)n2CC)[C@@H]2C=CC[C@@H]2C(C(=O)N=c2[n-]c(C)c(C)o2)C1c1ccccc1Cl (chirality)
CCOC(=O)C1=C(CSc2[nH+]nc(-c3ccc(C)cc3)n2CC)[C@@H]2C=CC[C@@H]2C(C(=O)/N=c2/[n-]c(C)c(C)o2)C1c1ccccc1Cl (cis-trans isomerization)
CCOC(=O)C1=C(CSc2[nH+]nc(-c3ccc(C)cc3)n2CC)[C@@H]2C=CC[C@@H]2C(C(=O)/N=c2/[n-]c(C)c(C)o2)C1c1ccccc1Cl (3D coordinates assigned)
CCOC(=O)C1=C(CSc2[nH+]nc(-c3ccc(C)cc3)n2CC)[C@@H]2C=CC[C@@H]2C(C(=O)/N=c2/[n-]c(C)c(C)o2)C1c1ccccc1Cl (nonaromatic ring conformer: 175.80630242326663 kcal/mol)

>  <smiles>  (1) 
CCOC(=O)C1=C(CSc2nnc(-c3ccc(C)cc3)n2CC)C2C=CCC2C(C(=O)N=c2[nH]c(C)c(C)o2)C1c1ccccc1Cl

>  <score_type>  (1) 
oracle

>  <origin>  (1) 
adg

>  <m_score__min__energy>  (1) 
-11.550000000000001

>  <m_primary>  (1) 
energy

$$$$
1:0
     RDKit          3D

 46 47  0  0  0  0  0  0  0  0999 V2000
   55.5600   30.0760   44.1300 C   0  0  0  0  0  0  0  0  0  0  0  0
   56.6590   30.0160   45.0990 N   0  0  0  0  0  0  0  0  0  0  0  0
   57.9320   29.6840   44.4430 C   0  0  0  0  0  0  0  0  0  0  0  0
   58.3380   28.2390   44.7520 C   0  0  0  0  0  0  0  0  0  0  0  0
   58.1610   27.9640   46.1900 N   0  0  0  0  0  0  0  0  0  0  0  0
   59.4200   28.0670   46.9440 C   0  0  0  0  0  0  0  0  0  0  0  0
   59.6600   29.4830   47.4020 C   0  0  0  0  0  0  0  0  0  0  0  0
   58.8910   30.0200   48.4390 C   0  0  0  0  0  0  0  0  0  0  0  0
   59.1480   31.3070   48.9090 C   0  0  0  0  0  0  0  0  0  0  0  0
   60.1800   32.0810   48.3670 C   0  0  0  0  0  0  0  0  0  0  0  0
   60.3620   33.3620   48.9200 O   0  0  0  0  0  0  0  0  0  0  0  0
   59.7680   34.5750   48.4650 C   0  0  0  0  0  0  0  0  0  0  0  0
   59.1000   34.3260   47.1450 C   0  0  0  0  0  0  0  0  0  0  0  0
   59.7760   34.6030   45.9450 C   0  0  0  0  0  0  0  0  0  0  0  0
   59.1670   34.3350   44.7160 C   0  0  0  0  0  0  0  0  0  0  0  0
   57.8850   33.7780   44.6750 C   0  0  0  0  0  0  0  0  0  0  0  0
   57.2140   33.4830   45.8640 C   0  0  0  0  0  0  0  0  0  0  0  0
   57.8200   33.7490   47.0960 C   0  0  0  0  0  0  0  0  0  0  0  0
   60.9710   31.5480   47.3160 C   0  0  0  0  0  0  0  0  0  0  0  0
   62.0100   32.3100   46.7610 O   0  0  0  0  0  0  0  0  0  0  0  0
   63.1830   32.7230   47.4550 C   0  0  0  0  0  0  0  0  0  0  0  0
   60.6960   30.2460   46.8450 C   0  0  0  0  0  0  0  0  0  0  0  0
   54.6009   30.1284   44.6661 H   0  0  0  0  0  0  0  0  0  0  0  0
   55.6763   30.9691   43.4985 H   0  0  0  0  0  0  0  0  0  0  0  0
   55.5784   29.1755   43.4985 H   0  0  0  0  0  0  0  0  0  0  0  0
   56.4330   29.2450   45.7700 H   0  0  0  0  0  0  0  0  0  0  0  0
   57.8199   29.8031   43.3552 H   0  0  0  0  0  0  0  0  0  0  0  0
   58.7127   30.3601   44.8217 H   0  0  0  0  0  0  0  0  0  0  0  0
   57.7085   27.5507   44.1689 H   0  0  0  0  0  0  0  0  0  0  0  0
   59.3949   28.0946   44.4833 H   0  0  0  0  0  0  0  0  0  0  0  0
   57.5090   28.6850   46.5800 H   0  0  0  0  0  0  0  0  0  0  0  0
   59.3678   27.4083   47.8234 H   0  0  0  0  0  0  0  0  0  0  0  0
   60.2486   27.7658   46.2862 H   0  0  0  0  0  0  0  0  0  0  0  0
   58.0806   29.4250   48.8854 H   0  0  0  0  0  0  0  0  0  0  0  0
   58.5295   31.7208   49.7191 H   0  0  0  0  0  0  0  0  0  0  0  0
   59.0220   34.9177   49.1971 H   0  0  0  0  0  0  0  0  0  0  0  0
   60.5422   35.3479   48.3500 H   0  0  0  0  0  0  0  0  0  0  0  0
   60.7883   35.0324   45.9729 H   0  0  0  0  0  0  0  0  0  0  0  0
   59.6970   34.5626   43.7794 H   0  0  0  0  0  0  0  0  0  0  0  0
   57.4052   33.5723   43.7068 H   0  0  0  0  0  0  0  0  0  0  0  0
   56.2073   33.0408   45.8313 H   0  0  0  0  0  0  0  0  0  0  0  0
   57.2925   33.5056   48.0301 H   0  0  0  0  0  0  0  0  0  0  0  0
   63.0083   32.6615   48.5393 H   0  0  0  0  0  0  0  0  0  0  0  0
   64.0216   32.0661   47.1809 H   0  0  0  0  0  0  0  0  0  0  0  0
   63.4251   33.7604   47.1809 H   0  0  0  0  0  0  0  0  0  0  0  0
   61.3027   29.8244   46.0300 H   0  0  0  0  0  0  0  0  0  0  0  0
  1  2  1  0
  2  3  1  0
  3  4  1  0
  4  5  1  0
  5  6  1  0
  6  7  1  0
  7  8  2  0
  8  9  1  0
  9 10  2  0
 10 11  1  0
 11 12  1  0
 12 13  1  0
 13 14  2  0
 14 15  1  0
 15 16  2  0
 16 17  1  0
 17 18  2  0
 10 19  1  0
 19 20  1  0
 20 21  1  0
 19 22  2  0
 22  7  1  0
 18 13  1  0
  1 23  1  0
  1 24  1  0
  1 25  1  0
  2 26  1  0
  3 27  1  0
  3 28  1  0
  4 29  1  0
  4 30  1  0
  5 31  1  0
  6 32  1  0
  6 33  1  0
  8 34  1  0
  9 35  1  0
 12 36  1  0
 12 37  1  0
 14 38  1  0
 15 39  1  0
 16 40  1  0
 17 41  1  0
 18 42  1  0
 21 43  1  0
 21 44  1  0
 21 45  1  0
 22 46  1  0
M  END
>  <UniqueID>  (2) 
2

>  <SMILES>  (2) 
CNCCNCc1ccc(OCc2ccccc2)c(OC)c1

>  <Energy>  (2) 
42.97597368946615

>  <Genealogy>  (2) 
CNCCNCc1ccc(OCc2ccccc2)c(OC)c1 (3D coordinates assigned)
CNCCNCc1ccc(OCc2ccccc2)c(OC)c1 (optimized conformer: 42.97597368946615 kcal/mol)

>  <smiles>  (2) 
CNCCNCc1ccc(OCc2ccccc2)c(OC)c1

>  <score_type>  (2) 
oracle

>  <origin>  (2) 
adg

>  <m_score__min__energy>  (2) 
-7.4100000000000001

>  <m_primary>  (2) 
energy

$$$$
2:0
     RDKit          3D

 46 49  0  0  0  0  0  0  0  0999 V2000
   58.8660   33.3260   48.7610 O   0  0  0  0  0  0  0  0  0  0  0  0
   59.4430   33.8170   47.4640 S   0  0  0  0  0  0  0  0  0  0  0  0
   59.2390   35.3010   47.3640 O   0  0  0  0  0  0  0  0  0  0  0  0
   61.1630   33.4690   47.4010 C   0  0  0  0  0  0  0  0  0  0  0  0
   61.7410   32.5970   48.3300 C   0  0  0  0  0  0  0  0  0  0  0  0
   63.1140   32.3500   48.2710 C   0  0  0  0  0  0  0  0  0  0  0  0
   63.8900   32.9690   47.2890 C   0  0  0  0  0  0  0  0  0  0  0  0
   63.2770   33.8320   46.3770 C   0  0  0  0  0  0  0  0  0  0  0  0
   61.9380   34.0620   46.4520 N   0  0  0  0  0  0  0  0  0  0  0  0
   58.6420   33.0180   46.1490 N   0  0  0  0  0  0  0  0  0  0  0  0
   57.8350   33.6020   45.2350 C   0  0  0  0  0  0  0  0  0  0  0  0
   57.4000   32.6630   44.3050 C   0  0  0  0  0  0  0  0  0  0  0  0
   57.9840   31.4730   44.6880 C   0  0  0  0  0  0  0  0  0  0  0  0
   57.9080   30.2060   44.1150 C   0  0  0  0  0  0  0  0  0  0  0  0
   58.6400   29.1570   44.7150 C   0  0  0  0  0  0  0  0  0  0  0  0
   58.5890   27.7590   44.1310 C   0  0  0  0  0  0  0  0  0  0  0  0
   57.5020   26.9030   44.6700 N   0  0  0  0  0  0  0  0  0  0  0  0
   57.1920   27.2030   46.0890 C   0  0  0  0  0  0  0  0  0  0  0  0
   56.3060   26.1140   46.7410 C   0  0  0  0  0  0  0  0  0  0  0  0
   55.5790   25.3270   45.7400 N   0  0  0  0  0  0  0  0  0  0  0  0
   56.4980   24.6300   44.8220 C   0  0  0  0  0  0  0  0  0  0  0  0
   57.7540   25.4610   44.4760 C   0  0  0  0  0  0  0  0  0  0  0  0
   59.3950   29.4140   45.8900 C   0  0  0  0  0  0  0  0  0  0  0  0
   59.4500   30.7050   46.4430 C   0  0  0  0  0  0  0  0  0  0  0  0
   58.7300   31.7190   45.8100 C   0  0  0  0  0  0  0  0  0  0  0  0
   61.1209   32.1116   49.0980 H   0  0  0  0  0  0  0  0  0  0  0  0
   63.5833   31.6693   48.9965 H   0  0  0  0  0  0  0  0  0  0  0  0
   64.9721   32.7793   47.2340 H   0  0  0  0  0  0  0  0  0  0  0  0
   63.8770   34.3256   45.5983 H   0  0  0  0  0  0  0  0  0  0  0  0
   57.5614   34.6674   45.2276 H   0  0  0  0  0  0  0  0  0  0  0  0
   56.7327   32.8331   43.4472 H   0  0  0  0  0  0  0  0  0  0  0  0
   57.2947   30.0268   43.2196 H   0  0  0  0  0  0  0  0  0  0  0  0
   58.4495   27.8464   43.0434 H   0  0  0  0  0  0  0  0  0  0  0  0
   59.5356   27.2713   44.4069 H   0  0  0  0  0  0  0  0  0  0  0  0
   56.6530   27.1500   44.1050 H   0  0  0  0  0  0  0  0  0  0  0  0
   58.1357   27.2734   46.6498 H   0  0  0  0  0  0  0  0  0  0  0  0
   56.6350   28.1511   46.1180 H   0  0  0  0  0  0  0  0  0  0  0  0
   56.9466   25.4387   47.3272 H   0  0  0  0  0  0  0  0  0  0  0  0
   55.5663   26.6159   47.3820 H   0  0  0  0  0  0  0  0  0  0  0  0
   54.9590   25.9690   45.1910 H   0  0  0  0  0  0  0  0  0  0  0  0
   56.8192   23.6902   45.2948 H   0  0  0  0  0  0  0  0  0  0  0  0
   55.9526   24.4530   43.8833 H   0  0  0  0  0  0  0  0  0  0  0  0
   58.5830   25.1493   45.1285 H   0  0  0  0  0  0  0  0  0  0  0  0
   58.0099   25.2880   43.4203 H   0  0  0  0  0  0  0  0  0  0  0  0
   59.9437   28.5923   46.3735 H   0  0  0  0  0  0  0  0  0  0  0  0
   60.0424   30.9098   47.3470 H   0  0  0  0  0  0  0  0  0  0  0  0
  1  2  2  0
  2  3  2  0
  2  4  1  0
  4  5  2  0
  5  6  1  0
  6  7  2  0
  7  8  1  0
  8  9  2  0
  2 10  1  0
 10 11  1  0
 11 12  2  0
 12 13  1  0
 13 14  2  0
 14 15  1  0
 15 16  1  0
 16 17  1  0
 17 18  1  0
 18 19  1  0
 19 20  1  0
 20 21  1  0
 21 22  1  0
 15 23  2  0
 23 24  1  0
 24 25  2  0
  9  4  1  0
 25 10  1  0
 25 13  1  0
 22 17  1  0
  5 26  1  0
  6 27  1  0
  7 28  1  0
  8 29  1  0
 11 30  1  0
 12 31  1  0
 14 32  1  0
 16 33  1  0
 16 34  1  0
 17 35  1  0
 18 36  1  0
 18 37  1  0
 19 38  1  0
 19 39  1  0
 20 40  1  0
 21 41  1  0
 21 42  1  0
 22 43  1  0
 22 44  1  0
 23 45  1  0
 24 46  1  0
M  CHG  1  17   1
M  END
>  <UniqueID>  (3) 
3

>  <SMILES>  (3) 
O=S(=O)(c1ccccn1)n1ccc2cc(C[NH+]3CCNCC3)ccc21

>  <Energy>  (3) 
95.43137119755015

>  <Genealogy>  (3) 
O=S(=O)(c1ccccn1)n1ccc2cc(C[NH+]3CCNCC3)ccc21 (protonated)
O=S(=O)(c1ccccn1)n1ccc2cc(C[NH+]3CCNCC3)ccc21 (3D coordinates assigned)
O=S(=O)(c1ccccn1)n1ccc2cc(C[NH+]3CCNCC3)ccc21 (nonaromatic ring conformer: 95.43137119755015 kcal/mol)

>  <smiles>  (3) 
O=S(=O)(c1ccccn1)n1ccc2cc(CN3CCNCC3)ccc21

>  <score_type>  (3) 
oracle

>  <origin>  (3) 
adg

>  <m_score__min__energy>  (3) 
-7.4400000000000004

>  <m_primary>  (3) 
energy

$$$$
3:0
     RDKit          2D

 46 49  0  0  0  0  0  0  0  0999 V2000
    0.2861   11.7308    0.0000 C   0  0  0  0  0  0  0  0  0  0  0  0
    0.7496   10.3042    0.0000 C   0  0  0  0  0  0  0  0  0  0  0  0
    1.2131    8.8776    0.0000 N   0  0  0  0  0  0  0  0  0  0  0  0
    2.6804    8.5658    0.0000 C   0  0  0  0  0  0  0  0  0  0  0  0
    0.2095    7.7629    0.0000 C   0  0  0  0  0  0  0  0  0  0  0  0
   -0.7942    6.6482    0.0000 C   0  0  0  0  0  0  0  0  0  0  0  0
   -1.7979    5.5335    0.0000 N   0  0  0  0  0  0  0  0  0  0  0  0
   -1.3344    4.1069    0.0000 C   0  0  0  0  0  0  0  0  0  0  0  0
    0.1520    3.9056    0.0000 C   0  0  0  0  0  0  0  0  0  0  0  0
    0.9214    2.6179    0.0000 C   0  0  0  0  0  0  0  0  0  0  0  0
    0.3943    1.2135    0.0000 C   0  0  0  0  0  0  0  0  0  0  0  0
    1.2760    0.0000    0.0000 N   0  0  0  0  0  0  0  0  0  0  0  0
    0.3943   -1.2135    0.0000 C   0  0  0  0  0  0  0  0  0  0  0  0
   -1.0323   -0.7500    0.0000 N   0  0  0  0  0  0  0  0  0  0  0  0
   -2.5208   -0.9351    0.0000 C   0  0  0  0  0  0  0  0  0  0  0  0
   -2.8924   -2.3883    0.0000 C   0  0  0  0  0  0  0  0  0  0  0  0
   -4.3367   -2.7932    0.0000 C   0  0  0  0  0  0  0  0  0  0  0  0
   -5.4095   -1.7448    0.0000 C   0  0  0  0  0  0  0  0  0  0  0  0
   -5.0379   -0.2916    0.0000 C   0  0  0  0  0  0  0  0  0  0  0  0
   -3.5936    0.1133    0.0000 C   0  0  0  0  0  0  0  0  0  0  0  0
   -3.4428    1.6057    0.0000 C   0  0  0  0  0  0  0  0  0  0  0  0
   -4.7220    2.3891    0.0000 O   0  0  0  0  0  0  0  0  0  0  0  0
   -2.4186    3.0703    0.0000 C   0  0  0  0  0  0  0  0  0  0  0  0
   -2.2841    1.5763    0.0000 C   0  0  0  0  0  0  0  0  0  0  0  0
   -3.0593    0.8050    0.0000 O   0  0  0  0  0  0  0  0  0  0  0  0
   -1.0323    0.7500    0.0000 C   0  0  0  0  0  0  0  0  0  0  0  0
   -0.1774   13.1574    0.0000 H   0  0  0  0  0  0  0  0  0  0  0  0
   -1.1405   11.2673    0.0000 H   0  0  0  0  0  0  0  0  0  0  0  0
    1.7127   12.1943    0.0000 H   0  0  0  0  0  0  0  0  0  0  0  0
   -0.6770    9.8407    0.0000 H   0  0  0  0  0  0  0  0  0  0  0  0
    2.1762   10.7677    0.0000 H   0  0  0  0  0  0  0  0  0  0  0  0
    4.1476    8.2539    0.0000 H   0  0  0  0  0  0  0  0  0  0  0  0
    2.9922   10.0330    0.0000 H   0  0  0  0  0  0  0  0  0  0  0  0
    2.3685    7.0985    0.0000 H   0  0  0  0  0  0  0  0  0  0  0  0
    1.3242    6.7592    0.0000 H   0  0  0  0  0  0  0  0  0  0  0  0
   -0.9053    8.7666    0.0000 H   0  0  0  0  0  0  0  0  0  0  0  0
    0.4345    5.7879    0.0000 H   0  0  0  0  0  0  0  0  0  0  0  0
   -1.9090    7.6519    0.0000 H   0  0  0  0  0  0  0  0  0  0  0  0
   -3.2652    5.8454    0.0000 H   0  0  0  0  0  0  0  0  0  0  0  0
    1.1248    5.0473    0.0000 H   0  0  0  0  0  0  0  0  0  0  0  0
    2.4153    2.7523    0.0000 H   0  0  0  0  0  0  0  0  0  0  0  0
    0.8578   -2.6401    0.0000 H   0  0  0  0  0  0  0  0  0  0  0  0
   -1.8196   -3.4367    0.0000 H   0  0  0  0  0  0  0  0  0  0  0  0
   -4.7082   -4.2465    0.0000 H   0  0  0  0  0  0  0  0  0  0  0  0
   -6.8538   -2.1497    0.0000 H   0  0  0  0  0  0  0  0  0  0  0  0
   -6.1107    0.7568    0.0000 H   0  0  0  0  0  0  0  0  0  0  0  0
  1  2  1  0
  2  3  1  0
  3  4  1  0
  3  5  1  0
  5  6  1  0
  6  7  1  0
  7  8  1  0
  8  9  1  0
  9 10  2  0
 10 11  1  0
 11 12  1  0
 12 13  2  0
 13 14  1  0
 14 15  1  0
 15 16  2  0
 16 17  1  0
 17 18  2  0
 18 19  1  0
 19 20  2  0
 20 21  1  0
 21 22  2  0
 21 23  1  0
 23 24  1  0
 24 25  2  0
 24 26  1  0
 23  8  2  0
 26 11  2  0
 26 14  1  0
 20 15  1  0
  1 27  1  0
  1 28  1  0
  1 29  1  0
  2 30  1  0
  2 31  1  0
  4 32  1  0
  4 33  1  0
  4 34  1  0
  5 35  1  0
  5 36  1  0
  6 37  1  0
  6 38  1  0
  7 39  1  0
  9 40  1  0
 10 41  1  0
 13 42  1  0
 16 43  1  0
 17 44  1  0
 18 45  1  0
 19 46  1  0
M  END
>  <smiles>  (4) 
CCN(C)CCNc1ccc2ncn3c4ccccc4c(=O)c1c(=O)c23

>  <m_score__min__energy>  (4) 
nan

>  <m_primary>  (4) 
energy

$$$$
4:0
     RDKit          3D

 27 28  0  0  0  0  0  0  0  0999 V2000
   56.6270   29.5850   43.5550 C   0  0  0  0  0  0  0  0  0  0  0  0
   56.7050   30.1280   44.8690 O   0  0  0  0  0  0  0  0  0  0  0  0
   57.4030   31.2990   45.2010 C   0  0  0  0  0  0  0  0  0  0  0  0
   57.3850   32.3650   44.2930 C   0  0  0  0  0  0  0  0  0  0  0  0
   58.0640   33.5530   44.5800 C   0  0  0  0  0  0  0  0  0  0  0  0
   58.7670   33.6860   45.7820 C   0  0  0  0  0  0  0  0  0  0  0  0
   59.6330   35.2120   46.1520 S   0  0  0  0  0  0  0  0  0  0  0  0
   60.9260   34.3660   47.0620 C   0  0  0  0  0  0  0  0  0  0  0  0
   62.0260   33.8280   46.3820 C   0  0  0  0  0  0  0  0  0  0  0  0
   63.0320   33.1640   47.0920 C   0  0  0  0  0  0  0  0  0  0  0  0
   62.9420   33.0390   48.4830 C   0  0  0  0  0  0  0  0  0  0  0  0
   64.2030   32.2060   49.3720 Cl  0  0  0  0  0  0  0  0  0  0  0  0
   61.8450   33.5810   49.1640 C   0  0  0  0  0  0  0  0  0  0  0  0
   60.8390   34.2450   48.4540 C   0  0  0  0  0  0  0  0  0  0  0  0
   58.7950   32.6250   46.6930 C   0  0  0  0  0  0  0  0  0  0  0  0
   58.1160   31.4370   46.4090 C   0  0  0  0  0  0  0  0  0  0  0  0
   56.4708   28.4979   43.6162 H   0  0  0  0  0  0  0  0  0  0  0  0
   55.7859   30.0465   43.0169 H   0  0  0  0  0  0  0  0  0  0  0  0
   57.5640   29.7911   43.0169 H   0  0  0  0  0  0  0  0  0  0  0  0
   56.8325   32.2669   43.3469 H   0  0  0  0  0  0  0  0  0  0  0  0
   58.0454   34.3841   43.8597 H   0  0  0  0  0  0  0  0  0  0  0  0
   62.0989   33.9277   45.2890 H   0  0  0  0  0  0  0  0  0  0  0  0
   63.8943   32.7399   46.5566 H   0  0  0  0  0  0  0  0  0  0  0  0
   61.7743   33.4846   50.2575 H   0  0  0  0  0  0  0  0  0  0  0  0
   59.9788   34.6725   48.9900 H   0  0  0  0  0  0  0  0  0  0  0  0
   59.3530   32.7260   47.6356 H   0  0  0  0  0  0  0  0  0  0  0  0
   58.1381   30.6070   47.1305 H   0  0  0  0  0  0  0  0  0  0  0  0
  1  2  1  0
  2  3  1  0
  3  4  2  0
  4  5  1  0
  5  6  2  0
  6  7  1  0
  7  8  1  0
  8  9  2  0
  9 10  1  0
 10 11  2  0
 11 12  1  0
 11 13  1  0
 13 14  2  0
  6 15  1  0
 15 16  2  0
 16  3  1  0
 14  8  1  0
  1 17  1  0
  1 18  1  0
  1 19  1  0
  4 20  1  0
  5 21  1  0
  9 22  1  0
 10 23  1  0
 13 24  1  0
 14 25  1  0
 15 26  1  0
 16 27  1  0
M  END
>  <UniqueID>  (5) 
4

>  <SMILES>  (5) 
COc1ccc(Sc2ccc(Cl)cc2)cc1

>  <Energy>  (5) 
22.175196905612164

>  <Genealogy>  (5) 
COc1ccc(Sc2ccc(Cl)cc2)cc1 (3D coordinates assigned)
COc1ccc(Sc2ccc(Cl)cc2)cc1 (optimized conformer: 22.175196905612164 kcal/mol)

>  <smiles>  (5) 
COc1ccc(Sc2ccc(Cl)cc2)cc1

>  <score_type>  (5) 
oracle

>  <origin>  (5) 
adg

>  <m_score__min__energy>  (5) 
-6.6299999999999999

>  <m_primary>  (5) 
energy

$$$$
5:0
     RDKit          3D

 52 54  0  0  0  0  0  0  0  0999 V2000
   63.8560   33.4220   49.3020 C   0  0  0  0  0  0  0  0  0  0  0  0
   63.7240   33.8330   47.8310 C   0  0  0  0  0  0  0  0  0  0  0  0
   63.6310   32.6750   46.9250 N   0  0  0  0  0  0  0  0  0  0  0  0
   62.8060   31.5870   47.4690 C   0  0  0  0  0  0  0  0  0  0  0  0
   61.4560   31.5240   46.7460 C   0  0  0  0  0  0  0  0  0  0  0  0
   60.4870   30.7600   47.5410 N   0  0  0  0  0  0  0  0  0  0  0  0
   60.7800   30.5620   48.9760 C   0  0  0  0  0  0  0  0  0  0  0  0
   59.6870   31.0720   49.8950 C   0  0  0  0  0  0  0  0  0  0  0  0
   58.7580   30.1540   50.4220 C   0  0  0  0  0  0  0  0  0  0  0  0
   57.7570   30.5760   51.2990 C   0  0  0  0  0  0  0  0  0  0  0  0
   57.6470   31.9240   51.6350 C   0  0  0  0  0  0  0  0  0  0  0  0
   58.5220   32.8570   51.0750 C   0  0  0  0  0  0  0  0  0  0  0  0
   59.5320   32.4510   50.1930 C   0  0  0  0  0  0  0  0  0  0  0  0
   60.4820   33.7520   49.3710 S   0  0  0  0  0  0  0  0  0  0  0  0
   59.4560   33.8160   47.8990 C   0  0  0  0  0  0  0  0  0  0  0  0
   59.8920   34.5360   46.7770 C   0  0  0  0  0  0  0  0  0  0  0  0
   59.0950   34.5980   45.6300 C   0  0  0  0  0  0  0  0  0  0  0  0
   57.8650   33.9320   45.5970 C   0  0  0  0  0  0  0  0  0  0  0  0
   57.4440   33.1840   46.6990 C   0  0  0  0  0  0  0  0  0  0  0  0
   58.2440   33.1130   47.8440 C   0  0  0  0  0  0  0  0  0  0  0  0
   59.4980   29.9770   46.8350 C   0  0  0  0  0  0  0  0  0  0  0  0
   59.0900   28.7320   47.3460 C   0  0  0  0  0  0  0  0  0  0  0  0
   58.1310   27.9700   46.6730 C   0  0  0  0  0  0  0  0  0  0  0  0
   57.5730   28.4400   45.4810 C   0  0  0  0  0  0  0  0  0  0  0  0
   57.9750   29.6730   44.9620 C   0  0  0  0  0  0  0  0  0  0  0  0
   58.9300   30.4390   45.6370 C   0  0  0  0  0  0  0  0  0  0  0  0
   63.5833   34.2712   49.9459 H   0  0  0  0  0  0  0  0  0  0  0  0
   63.1846   32.5753   49.5078 H   0  0  0  0  0  0  0  0  0  0  0  0
   64.8948   33.1246   49.5078 H   0  0  0  0  0  0  0  0  0  0  0  0
   62.8165   34.4439   47.7160 H   0  0  0  0  0  0  0  0  0  0  0  0
   64.6293   34.3960   47.5600 H   0  0  0  0  0  0  0  0  0  0  0  0
   64.5940   32.3080   46.7350 H   0  0  0  0  0  0  0  0  0  0  0  0
   63.3334   30.6310   47.3349 H   0  0  0  0  0  0  0  0  0  0  0  0
   62.6285   31.7755   48.5381 H   0  0  0  0  0  0  0  0  0  0  0  0
   61.0769   32.5456   46.5958 H   0  0  0  0  0  0  0  0  0  0  0  0
   61.5934   31.0262   45.7747 H   0  0  0  0  0  0  0  0  0  0  0  0
   60.9134   29.4854   49.1583 H   0  0  0  0  0  0  0  0  0  0  0  0
   61.6878   31.1404   49.2026 H   0  0  0  0  0  0  0  0  0  0  0  0
   58.8218   29.0928   50.1395 H   0  0  0  0  0  0  0  0  0  0  0  0
   57.0549   29.8442   51.7249 H   0  0  0  0  0  0  0  0  0  0  0  0
   56.8707   32.2531   52.3415 H   0  0  0  0  0  0  0  0  0  0  0  0
   58.4172   33.9221   51.3290 H   0  0  0  0  0  0  0  0  0  0  0  0
   60.8628   35.0528   46.7996 H   0  0  0  0  0  0  0  0  0  0  0  0
   59.4348   35.1700   44.7540 H   0  0  0  0  0  0  0  0  0  0  0  0
   57.2287   33.9975   44.7021 H   0  0  0  0  0  0  0  0  0  0  0  0
   56.4826   32.6504   46.6663 H   0  0  0  0  0  0  0  0  0  0  0  0
   57.9221   32.5050   48.7023 H   0  0  0  0  0  0  0  0  0  0  0  0
   59.5287   28.3553   48.2818 H   0  0  0  0  0  0  0  0  0  0  0  0
   57.8150   26.9990   47.0821 H   0  0  0  0  0  0  0  0  0  0  0  0
   56.8181   27.8397   44.9521 H   0  0  0  0  0  0  0  0  0  0  0  0
   57.5398   30.0416   44.0214 H   0  0  0  0  0  0  0  0  0  0  0  0
   59.2389   31.4115   45.2262 H   0  0  0  0  0  0  0  0  0  0  0  0
  1  2  1  0
  2  3  1  0
  3  4  1  0
  4  5  1  0
  5  6  1  0
  6  7  1  0
  7  8  1  0
  8  9  2  0
  9 10  1  0
 10 11  2  0
 11 12  1  0
 12 13  2  0
 13 14  1  0
 14 15  1  0
 15 16  2  0
 16 17  1  0
 17 18  2  0
 18 19  1  0
 19 20  2  0
  6 21  1  0
 21 22  2  0
 22 23  1  0
 23 24  2  0
 24 25  1  0
 25 26  2  0
 13  8  1  0
 20 15  1  0
 26 21  1  0
  1 27  1  0
  1 28  1  0
  1 29  1  0
  2 30  1  0
  2 31  1  0
  3 32  1  0
  4 33  1  0
  4 34  1  0
  5 35  1  0
  5 36  1  0
  7 37  1  0
  7 38  1  0
  9 39  1  0
 10 40  1  0
 11 41  1  0
 12 42  1  0
 16 43  1  0
 17 44  1  0
 18 45  1  0
 19 46  1  0
 20 47  1  0
 22 48  1  0
 23 49  1  0
 24 50  1  0
 25 51  1  0
 26 52  1  0
M  END
>  <UniqueID>  (6) 
5

>  <SMILES>  (6) 
CCNCCN(Cc1ccccc1Sc1ccccc1)c1ccccc1

>  <Energy>  (6) 
53.47324492851737

>  <Genealogy>  (6) 
CCNCCN(Cc1ccccc1Sc1ccccc1)c1ccccc1 (3D coordinates assigned)
CCNCCN(Cc1ccccc1Sc1ccccc1)c1ccccc1 (optimized conformer: 53.47324492851737 kcal/mol)

>  <smiles>  (6) 
CCNCCN(Cc1ccccc1Sc1ccccc1)c1ccccc1

>  <score_type>  (6) 
oracle

>  <origin>  (6) 
adg

>  <m_score__min__energy>  (6) 
-7.8899999999999997

>  <m_primary>  (6) 
energy

$$$$
6:0
     RDKit          3D

 57 60  0  0  0  0  0  0  0  0999 V2000
   65.6590   32.7040   49.9760 C   0  0  0  0  0  0  0  0  0  0  0  0
   64.2050   32.3680   49.6300 C   0  0  0  0  0  0  0  0  0  0  0  0
   63.9430   32.3980   48.1570 N   0  0  0  0  0  0  0  0  0  0  0  0
   63.6790   33.7960   47.7220 C   0  0  0  0  0  0  0  0  0  0  0  0
   62.9720   33.8870   46.3600 C   0  0  0  0  0  0  0  0  0  0  0  0
   62.7990   31.5120   47.7920 C   0  0  0  0  0  0  0  0  0  0  0  0
   61.6940   31.4480   48.8750 C   0  0  0  0  0  0  0  0  0  0  0  0
   60.3620   30.8700   48.3730 C   0  0  0  0  0  0  0  0  0  0  0  0
   60.5110   30.2280   47.0660 N   0  0  0  0  0  0  0  0  0  0  0  0
   59.4870   30.3840   46.0780 C   0  0  0  0  0  0  0  0  0  0  0  0
   59.0590   31.6630   45.6590 C   0  0  0  0  0  0  0  0  0  0  0  0
   59.5900   32.8250   46.2510 C   0  0  0  0  0  0  0  0  0  0  0  0
   59.1460   34.0860   45.8610 C   0  0  0  0  0  0  0  0  0  0  0  0
   58.1650   34.2120   44.8830 C   0  0  0  0  0  0  0  0  0  0  0  0
   57.6280   33.0790   44.2710 C   0  0  0  0  0  0  0  0  0  0  0  0
   58.0730   31.7800   44.6210 C   0  0  0  0  0  0  0  0  0  0  0  0
   57.5730   30.6460   43.9960 N   0  0  0  0  0  0  0  0  0  0  0  0
   56.6400   30.7450   42.8580 C   0  0  0  0  0  0  0  0  0  0  0  0
   57.9560   29.4190   44.4740 C   0  0  0  0  0  0  0  0  0  0  0  0
   57.4870   28.2110   44.0700 N   0  0  0  0  0  0  0  0  0  0  0  0
   58.1320   27.3090   44.8370 C   0  0  0  0  0  0  0  0  0  0  0  0
   57.9670   25.9250   44.8160 C   0  0  0  0  0  0  0  0  0  0  0  0
   58.7100   25.1580   45.7310 C   0  0  0  0  0  0  0  0  0  0  0  0
   59.5790   25.7830   46.6500 C   0  0  0  0  0  0  0  0  0  0  0  0
   59.7210   27.1830   46.6590 C   0  0  0  0  0  0  0  0  0  0  0  0
   58.9940   27.9200   45.7220 C   0  0  0  0  0  0  0  0  0  0  0  0
   58.8840   29.2780   45.4860 C   0  0  0  0  0  0  0  0  0  0  0  0
   65.7788   32.7317   51.0691 H   0  0  0  0  0  0  0  0  0  0  0  0
   66.3234   31.9357   49.5537 H   0  0  0  0  0  0  0  0  0  0  0  0
   65.9189   33.6859   49.5537 H   0  0  0  0  0  0  0  0  0  0  0  0
   63.9765   31.3606   50.0082 H   0  0  0  0  0  0  0  0  0  0  0  0
   63.5659   33.1313   50.0980 H   0  0  0  0  0  0  0  0  0  0  0  0
   64.7960   32.0740   47.6430 H   0  0  0  0  0  0  0  0  0  0  0  0
   63.0447   34.2826   48.4776 H   0  0  0  0  0  0  0  0  0  0  0  0
   64.6544   34.2934   47.6161 H   0  0  0  0  0  0  0  0  0  0  0  0
   61.8920   34.0260   46.5160 H   0  0  0  0  0  0  0  0  0  0  0  0
   63.3737   34.7409   45.7947 H   0  0  0  0  0  0  0  0  0  0  0  0
   63.1444   32.9593   45.7947 H   0  0  0  0  0  0  0  0  0  0  0  0
   62.3513   31.8882   46.8603 H   0  0  0  0  0  0  0  0  0  0  0  0
   63.2017   30.4943   47.6817 H   0  0  0  0  0  0  0  0  0  0  0  0
   62.0552   30.8181   49.7013 H   0  0  0  0  0  0  0  0  0  0  0  0
   61.4944   32.4833   49.1886 H   0  0  0  0  0  0  0  0  0  0  0  0
   60.0006   30.1252   49.0973 H   0  0  0  0  0  0  0  0  0  0  0  0
   59.6452   31.6979   48.2696 H   0  0  0  0  0  0  0  0  0  0  0  0
   61.2230   29.4770   46.9220 H   0  0  0  0  0  0  0  0  0  0  0  0
   60.3627   32.7359   47.0288 H   0  0  0  0  0  0  0  0  0  0  0  0
   59.5727   34.9858   46.3282 H   0  0  0  0  0  0  0  0  0  0  0  0
   57.8103   35.2112   44.5902 H   0  0  0  0  0  0  0  0  0  0  0  0
   56.8472   33.1959   43.5050 H   0  0  0  0  0  0  0  0  0  0  0  0
   55.6123   30.8540   43.2348 H   0  0  0  0  0  0  0  0  0  0  0  0
   56.9007   31.6205   42.2452 H   0  0  0  0  0  0  0  0  0  0  0  0
   56.7111   29.8343   42.2452 H   0  0  0  0  0  0  0  0  0  0  0  0
   56.7540   27.9900   43.3610 H   0  0  0  0  0  0  0  0  0  0  0  0
   57.2766   25.4473   44.1053 H   0  0  0  0  0  0  0  0  0  0  0  0
   58.6129   24.0623   45.7302 H   0  0  0  0  0  0  0  0  0  0  0  0
   60.1496   25.1716   47.3646 H   0  0  0  0  0  0  0  0  0  0  0  0
   60.3840   27.6812   47.3816 H   0  0  0  0  0  0  0  0  0  0  0  0
  1  2  1  0
  2  3  1  0
  3  4  1  0
  4  5  1  0
  3  6  1  0
  6  7  1  0
  7  8  1  0
  8  9  1  0
  9 10  1  0
 10 11  2  0
 11 12  1  0
 12 13  2  0
 13 14  1  0
 14 15  2  0
 15 16  1  0
 16 17  2  0
 17 18  1  0
 17 19  1  0
 19 20  1  0
 20 21  1  0
 21 22  2  0
 22 23  1  0
 23 24  2  0
 24 25  1  0
 25 26  2  0
 26 27  1  0
 27 10  1  0
 16 11  1  0
 27 19  2  0
 26 21  1  0
  1 28  1  0
  1 29  1  0
  1 30  1  0
  2 31  1  0
  2 32  1  0
  3 33  1  0
  4 34  1  0
  4 35  1  0
  5 36  1  0
  5 37  1  0
  5 38  1  0
  6 39  1  0
  6 40  1  0
  7 41  1  0
  7 42  1  0
  8 43  1  0
  8 44  1  0
  9 45  1  0
 12 46  1  0
 13 47  1  0
 14 48  1  0
 15 49  1  0
 18 50  1  0
 18 51  1  0
 18 52  1  0
 20 53  1  0
 22 54  1  0
 23 55  1  0
 24 56  1  0
 25 57  1  0
M  CHG  2   3   1  17   1
M  END
>  <UniqueID>  (7) 
6

>  <SMILES>  (7) 
CC[NH+](CC)CCCNc1c2ccccc2[n+](C)c2[nH]c3ccccc3c12

>  <Energy>  (7) 
121.6864685555729

>  <Genealogy>  (7) 
CC[NH+](CC)CCCNc1c2ccccc2[n+](C)c2[nH]c3ccccc3c12 (protonated)
CC[NH+](CC)CCCNc1c2ccccc2[n+](C)c2[nH]c3ccccc3c12 (3D coordinates assigned)
CC[NH+](CC)CCCNc1c2ccccc2[n+](C)c2[nH]c3ccccc3c12 (optimized conformer: 121.6864685555729 kcal/mol)

>  <smiles>  (7) 
CCN(CC)CCCNc1c2ccccc2[n+](C)c2[nH]c3ccccc3c12

>  <score_type>  (7) 
oracle

>  <origin>  (7) 
adg

>  <m_score__min__energy>  (7) 
-5.8399999999999999

>  <m_primary>  (7) 
energy

$$$$
7:0
     RDKit          3D

 64 67  0  0  0  0  0  0  0  0999 V2000
   57.4620   32.2080   41.2920 C   0  0  0  0  0  0  0  0  0  0  0  0
   58.1400   32.6190   42.6020 C   0  0  0  0  0  0  0  0  0  0  0  0
   57.7040   31.7800   43.7510 N   0  0  0  0  0  0  0  0  0  0  0  0
   57.2560   32.6190   44.9090 C   0  0  0  0  0  0  0  0  0  0  0  0
   58.1110   33.8790   45.0630 C   0  0  0  0  0  0  0  0  0  0  0  0
   56.6280   30.8510   43.3100 C   0  0  0  0  0  0  0  0  0  0  0  0
   56.9760   29.3670   43.5530 C   0  0  0  0  0  0  0  0  0  0  0  0
   58.3910   29.1920   43.8990 N   0  0  0  0  0  0  0  0  0  0  0  0
   58.8120   28.5540   45.1190 C   0  0  0  0  0  0  0  0  0  0  0  0
   59.4100   29.3180   46.1390 C   0  0  0  0  0  0  0  0  0  0  0  0
   59.6600   30.6970   45.9610 C   0  0  0  0  0  0  0  0  0  0  0  0
   60.1550   31.4730   47.0070 C   0  0  0  0  0  0  0  0  0  0  0  0
   60.4100   30.8940   48.2430 C   0  0  0  0  0  0  0  0  0  0  0  0
   60.1950   29.5300   48.4350 C   0  0  0  0  0  0  0  0  0  0  0  0
   59.7200   28.7050   47.3820 C   0  0  0  0  0  0  0  0  0  0  0  0
   59.5220   27.3480   47.5560 N   0  0  0  0  0  0  0  0  0  0  0  0
   60.1090   26.6620   48.7260 C   0  0  0  0  0  0  0  0  0  0  0  0
   58.8170   26.6240   46.6140 C   0  0  0  0  0  0  0  0  0  0  0  0
   58.3480   25.3160   46.8840 C   0  0  0  0  0  0  0  0  0  0  0  0
   57.7230   24.5380   45.8930 C   0  0  0  0  0  0  0  0  0  0  0  0
   57.2400   23.2390   46.1840 C   0  0  0  0  0  0  0  0  0  0  0  0
   57.3380   22.7850   47.5140 O   0  0  0  0  0  0  0  0  0  0  0  0
   56.2550   22.5180   48.4030 C   0  0  0  0  0  0  0  0  0  0  0  0
   56.6790   22.4540   45.1440 C   0  0  0  0  0  0  0  0  0  0  0  0
   56.2490   21.1450   45.4100 O   0  0  0  0  0  0  0  0  0  0  0  0
   57.1080   20.0320   45.6440 C   0  0  0  0  0  0  0  0  0  0  0  0
   56.5730   22.9990   43.8500 C   0  0  0  0  0  0  0  0  0  0  0  0
   57.0030   24.2980   43.5850 C   0  0  0  0  0  0  0  0  0  0  0  0
   57.5770   25.0730   44.5980 C   0  0  0  0  0  0  0  0  0  0  0  0
   57.9740   26.3880   44.3360 C   0  0  0  0  0  0  0  0  0  0  0  0
   58.5310   27.1940   45.3480 C   0  0  0  0  0  0  0  0  0  0  0  0
   56.5409   31.6496   41.5153 H   0  0  0  0  0  0  0  0  0  0  0  0
   57.2134   33.1076   40.7098 H   0  0  0  0  0  0  0  0  0  0  0  0
   58.1446   31.5715   40.7098 H   0  0  0  0  0  0  0  0  0  0  0  0
   59.2289   32.5182   42.4835 H   0  0  0  0  0  0  0  0  0  0  0  0
   57.8538   33.6591   42.8171 H   0  0  0  0  0  0  0  0  0  0  0  0
   58.5300   31.2010   44.0280 H   0  0  0  0  0  0  0  0  0  0  0  0
   56.2091   32.9165   44.7491 H   0  0  0  0  0  0  0  0  0  0  0  0
   57.3615   32.0203   45.8258 H   0  0  0  0  0  0  0  0  0  0  0  0
   58.2572   34.0945   46.1317 H   0  0  0  0  0  0  0  0  0  0  0  0
   59.0883   33.7197   44.5840 H   0  0  0  0  0  0  0  0  0  0  0  0
   57.6019   34.7284   44.5840 H   0  0  0  0  0  0  0  0  0  0  0  0
   55.7087   31.0909   43.8644 H   0  0  0  0  0  0  0  0  0  0  0  0
   56.5004   30.9860   42.2258 H   0  0  0  0  0  0  0  0  0  0  0  0
   56.3572   28.9862   44.3788 H   0  0  0  0  0  0  0  0  0  0  0  0
   56.7784   28.8115   42.6243 H   0  0  0  0  0  0  0  0  0  0  0  0
   59.1010   29.7110   43.3360 H   0  0  0  0  0  0  0  0  0  0  0  0
   59.4615   31.1637   44.9849 H   0  0  0  0  0  0  0  0  0  0  0  0
   60.3440   32.5457   46.8534 H   0  0  0  0  0  0  0  0  0  0  0  0
   60.7825   31.5129   49.0726 H   0  0  0  0  0  0  0  0  0  0  0  0
   60.3971   29.0850   49.4204 H   0  0  0  0  0  0  0  0  0  0  0  0
   59.7208   27.1156   49.6499 H   0  0  0  0  0  0  0  0  0  0  0  0
   59.8391   25.5959   48.6995 H   0  0  0  0  0  0  0  0  0  0  0  0
   61.2040   26.7638   48.6995 H   0  0  0  0  0  0  0  0  0  0  0  0
   58.4755   24.8979   47.8934 H   0  0  0  0  0  0  0  0  0  0  0  0
   56.6042   22.6041   49.4425 H   0  0  0  0  0  0  0  0  0  0  0  0
   55.4478   23.2440   48.2260 H   0  0  0  0  0  0  0  0  0  0  0  0
   55.8778   21.5000   48.2260 H   0  0  0  0  0  0  0  0  0  0  0  0
   57.2250   19.8805   46.7272 H   0  0  0  0  0  0  0  0  0  0  0  0
   56.6700   19.1295   45.1927 H   0  0  0  0  0  0  0  0  0  0  0  0
   58.0920   20.2270   45.1927 H   0  0  0  0  0  0  0  0  0  0  0  0
   56.1456   22.3921   43.0383 H   0  0  0  0  0  0  0  0  0  0  0  0
   56.8903   24.7160   42.5738 H   0  0  0  0  0  0  0  0  0  0  0  0
   57.8493   26.7995   43.3235 H   0  0  0  0  0  0  0  0  0  0  0  0
  1  2  1  0
  2  3  1  0
  3  4  1  0
  4  5  1  0
  3  6  1  0
  6  7  1  0
  7  8  1  0
  8  9  1  0
  9 10  2  0
 10 11  1  0
 11 12  2  0
 12 13  1  0
 13 14  2  0
 14 15  1  0
 15 16  2  0
 16 17  1  0
 16 18  1  0
 18 19  2  0
 19 20  1  0
 20 21  2  0
 21 22  1  0
 22 23  1  0
 21 24  1  0
 24 25  1  0
 25 26  1  0
 24 27  2  0
 27 28  1  0
 28 29  2  0
 29 30  1  0
 30 31  2  0
 31  9  1  0
 15 10  1  0
 31 18  1  0
 29 20  1  0
  1 32  1  0
  1 33  1  0
  1 34  1  0
  2 35  1  0
  2 36  1  0
  3 37  1  0
  4 38  1  0
  4 39  1  0
  5 40  1  0
  5 41  1  0
  5 42  1  0
  6 43  1  0
  6 44  1  0
  7 45  1  0
  7 46  1  0
  8 47  1  0
 11 48  1  0
 12 49  1  0
 13 50  1  0
 14 51  1  0
 17 52  1  0
 17 53  1  0
 17 54  1  0
 19 55  1  0
 23 56  1  0
 23 57  1  0
 23 58  1  0
 26 59  1  0
 26 60  1  0
 26 61  1  0
 27 62  1  0
 28 63  1  0
 30 64  1  0
M  CHG  2   3   1  16   1
M  END
>  <UniqueID>  (8) 
7

>  <SMILES>  (8) 
CC[NH+](CC)CCNc1c2ccccc2[n+](C)c2cc3c(OC)c(OC)ccc3cc12

>  <Energy>  (8) 
100.20162249512921

>  <Genealogy>  (8) 
CC[NH+](CC)CCNc1c2ccccc2[n+](C)c2cc3c(OC)c(OC)ccc3cc12 (protonated)
CC[NH+](CC)CCNc1c2ccccc2[n+](C)c2cc3c(OC)c(OC)ccc3cc12 (3D coordinates assigned)
CC[NH+](CC)CCNc1c2ccccc2[n+](C)c2cc3c(OC)c(OC)ccc3cc12 (optimized conformer: 100.20162249512921 kcal/mol)

>  <smiles>  (8) 
CCN(CC)CCNc1c2ccccc2[n+](C)c2cc3c(OC)c(OC)ccc3cc12

>  <score_type>  (8) 
oracle

>  <origin>  (8) 
adg

>  <m_score__min__energy>  (8) 
-5

>  <m_primary>  (8) 
energy

$$$$
8:0
     RDKit          3D

 49 50  0  0  0  0  0  0  0  0999 V2000
   63.1850   33.4680   47.1340 C   0  0  0  0  0  0  0  0  0  0  0  0
   61.9790   33.3760   48.0840 C   0  0  0  0  0  0  0  0  0  0  0  0
   60.6760   33.1260   47.4170 N   0  0  0  0  0  0  0  0  0  0  0  0
   60.6010   33.6790   46.0350 C   0  0  0  0  0  0  0  0  0  0  0  0
   59.6560   34.8900   45.9360 C   0  0  0  0  0  0  0  0  0  0  0  0
   58.2750   34.5620   46.3760 N   0  0  0  0  0  0  0  0  0  0  0  0
   57.4140   34.1950   45.2280 C   0  0  0  0  0  0  0  0  0  0  0  0
   57.0770   32.6950   45.2390 C   0  0  0  0  0  0  0  0  0  0  0  0
   57.7370   31.9700   44.0600 C   0  0  0  0  0  0  0  0  0  0  0  0
   58.4530   30.7720   44.5270 N   0  0  0  0  0  0  0  0  0  0  0  0
   57.5240   29.6890   44.8730 C   0  0  0  0  0  0  0  0  0  0  0  0
   58.2840   28.5290   45.4710 C   0  0  0  0  0  0  0  0  0  0  0  0
   57.9240   27.2250   45.0880 C   0  0  0  0  0  0  0  0  0  0  0  0
   58.6210   26.1200   45.5780 C   0  0  0  0  0  0  0  0  0  0  0  0
   59.6860   26.3010   46.4580 C   0  0  0  0  0  0  0  0  0  0  0  0
   60.0470   27.5860   46.8640 C   0  0  0  0  0  0  0  0  0  0  0  0
   59.3460   28.7120   46.3950 C   0  0  0  0  0  0  0  0  0  0  0  0
   59.7250   30.0170   46.8660 N   0  0  0  0  0  0  0  0  0  0  0  0
   58.9280   30.6890   47.5540 O   0  0  0  0  0  0  0  0  0  0  0  0
   60.8660   30.6220   46.3970 O   0  0  0  0  0  0  0  0  0  0  0  0
   58.2280   33.5350   47.4510 C   0  0  0  0  0  0  0  0  0  0  0  0
   59.5230   33.5040   48.2720 C   0  0  0  0  0  0  0  0  0  0  0  0
   64.1113   33.5387   47.7231 H   0  0  0  0  0  0  0  0  0  0  0  0
   63.2215   32.5700   46.4997 H   0  0  0  0  0  0  0  0  0  0  0  0
   63.0848   34.3611   46.4997 H   0  0  0  0  0  0  0  0  0  0  0  0
   62.1636   32.5548   48.7922 H   0  0  0  0  0  0  0  0  0  0  0  0
   61.8933   34.3589   48.5703 H   0  0  0  0  0  0  0  0  0  0  0  0
   60.6210   32.0820   47.3140 H   0  0  0  0  0  0  0  0  0  0  0  0
   61.6090   33.9917   45.7248 H   0  0  0  0  0  0  0  0  0  0  0  0
   60.2033   32.8898   45.3800 H   0  0  0  0  0  0  0  0  0  0  0  0
   60.0478   35.6979   46.5715 H   0  0  0  0  0  0  0  0  0  0  0  0
   59.6101   35.1971   44.8807 H   0  0  0  0  0  0  0  0  0  0  0  0
   56.4794   34.7726   45.2821 H   0  0  0  0  0  0  0  0  0  0  0  0
   57.9585   34.4215   44.2995 H   0  0  0  0  0  0  0  0  0  0  0  0
   57.4378   32.2530   46.1795 H   0  0  0  0  0  0  0  0  0  0  0  0
   55.9863   32.5823   45.1509 H   0  0  0  0  0  0  0  0  0  0  0  0
   56.9617   31.6704   43.3394 H   0  0  0  0  0  0  0  0  0  0  0  0
   58.4567   32.6507   43.5817 H   0  0  0  0  0  0  0  0  0  0  0  0
   58.9690   31.0350   45.4000 H   0  0  0  0  0  0  0  0  0  0  0  0
   56.7892   30.0586   45.6034 H   0  0  0  0  0  0  0  0  0  0  0  0
   57.0071   29.3515   43.9625 H   0  0  0  0  0  0  0  0  0  0  0  0
   57.0836   27.0742   44.3944 H   0  0  0  0  0  0  0  0  0  0  0  0
   58.3295   25.1052   45.2693 H   0  0  0  0  0  0  0  0  0  0  0  0
   60.2428   25.4297   46.8331 H   0  0  0  0  0  0  0  0  0  0  0  0
   60.8893   27.7203   47.5587 H   0  0  0  0  0  0  0  0  0  0  0  0
   57.3869   33.7619   48.1226 H   0  0  0  0  0  0  0  0  0  0  0  0
   58.1029   32.5508   46.9758 H   0  0  0  0  0  0  0  0  0  0  0  0
   59.7028   34.5008   48.7010 H   0  0  0  0  0  0  0  0  0  0  0  0
   59.4166   32.7579   49.0732 H   0  0  0  0  0  0  0  0  0  0  0  0
  1  2  1  0
  2  3  1  0
  3  4  1  0
  4  5  1  0
  5  6  1  0
  6  7  1  0
  7  8  1  0
  8  9  1  0
  9 10  1  0
 10 11  1  0
 11 12  1  0
 12 13  2  0
 13 14  1  0
 14 15  2  0
 15 16  1  0
 16 17  2  0
 17 18  1  0
 18 19  2  0
 18 20  1  0
  6 21  1  0
 21 22  1  0
 22  3  1  0
 17 12  1  0
  1 23  1  0
  1 24  1  0
  1 25  1  0
  2 26  1  0
  2 27  1  0
  3 28  1  0
  4 29  1  0
  4 30  1  0
  5 31  1  0
  5 32  1  0
  7 33  1  0
  7 34  1  0
  8 35  1  0
  8 36  1  0
  9 37  1  0
  9 38  1  0
 10 39  1  0
 11 40  1  0
 11 41  1  0
 13 42  1  0
 14 43  1  0
 15 44  1  0
 16 45  1  0
 21 46  1  0
 21 47  1  0
 22 48  1  0
 22 49  1  0
M  CHG  3   3   1  18   1  20  -1
M  END
>  <UniqueID>  (9) 
8

>  <SMILES>  (9) 
CC[NH+]1CCN(CCCNCc2ccccc2[N+](=O)[O-])CC1

>  <Energy>  (9) 
64.23948202082623

>  <Genealogy>  (9) 
CC[NH+]1CCN(CCCNCc2ccccc2[N+](=O)[O-])CC1 (protonated)
CC[NH+]1CCN(CCCNCc2ccccc2[N+](=O)[O-])CC1 (3D coordinates assigned)
CC[NH+]1CCN(CCCNCc2ccccc2[N+](=O)[O-])CC1 (nonaromatic ring conformer: 64.23948202082623 kcal/mol)

>  <smiles>  (9) 
CCN1CCN(CCCNCc2ccccc2[N+](=O)[O-])CC1

>  <score_type>  (9) 
oracle

>  <origin>  (9) 
adg

>  <m_score__min__energy>  (9) 
-6.1100000000000003

>  <m_primary>  (9) 
energy

$$$$
9:0
     RDKit          3D

 32 33  0  0  0  0  0  0  0  0999 V2000
   57.3650   31.9520   41.6650 C   0  0  0  0  0  0  0  0  0  0  0  0
   58.1670   32.7150   42.7150 C   0  0  0  0  0  0  0  0  0  0  0  0
   57.6420   32.4400   44.0630 N   0  0  0  0  0  0  0  0  0  0  0  0
   57.2950   33.5740   44.9380 C   0  0  0  0  0  0  0  0  0  0  0  0
   58.3140   33.7290   46.0380 C   0  0  0  0  0  0  0  0  0  0  0  0
   59.5020   34.4420   45.8250 C   0  0  0  0  0  0  0  0  0  0  0  0
   60.4310   34.5750   46.8580 C   0  0  0  0  0  0  0  0  0  0  0  0
   60.1650   33.9860   48.0960 C   0  0  0  0  0  0  0  0  0  0  0  0
   59.0130   33.2890   48.2890 N   0  0  0  0  0  0  0  0  0  0  0  0
   58.0930   33.1470   47.2960 C   0  0  0  0  0  0  0  0  0  0  0  0
   57.5480   31.0690   44.5250 C   0  0  0  0  0  0  0  0  0  0  0  0
   58.6660   30.3760   45.0290 C   0  0  0  0  0  0  0  0  0  0  0  0
   58.5240   29.0540   45.4570 C   0  0  0  0  0  0  0  0  0  0  0  0
   57.2800   28.4290   45.3900 C   0  0  0  0  0  0  0  0  0  0  0  0
   57.0730   26.6220   45.9740 Br  0  0  0  0  0  0  0  0  0  0  0  0
   56.1880   29.1410   44.8940 C   0  0  0  0  0  0  0  0  0  0  0  0
   56.3450   30.4260   44.4800 N   0  0  0  0  0  0  0  0  0  0  0  0
   56.6552   31.2767   42.1651 H   0  0  0  0  0  0  0  0  0  0  0  0
   56.8117   32.6653   41.0364 H   0  0  0  0  0  0  0  0  0  0  0  0
   58.0499   31.3639   41.0364 H   0  0  0  0  0  0  0  0  0  0  0  0
   59.2200   32.4010   42.6653 H   0  0  0  0  0  0  0  0  0  0  0  0
   58.0837   33.7931   42.5131 H   0  0  0  0  0  0  0  0  0  0  0  0
   57.2665   34.4965   44.3395 H   0  0  0  0  0  0  0  0  0  0  0  0
   56.3112   33.3829   45.3914 H   0  0  0  0  0  0  0  0  0  0  0  0
   59.7020   34.8967   44.8436 H   0  0  0  0  0  0  0  0  0  0  0  0
   61.3627   35.1377   46.6988 H   0  0  0  0  0  0  0  0  0  0  0  0
   60.8894   34.0861   48.9177 H   0  0  0  0  0  0  0  0  0  0  0  0
   58.8310   32.8510   49.2200 H   0  0  0  0  0  0  0  0  0  0  0  0
   57.1724   32.5737   47.4802 H   0  0  0  0  0  0  0  0  0  0  0  0
   59.6456   30.8732   45.0852 H   0  0  0  0  0  0  0  0  0  0  0  0
   59.3943   28.5059   45.8471 H   0  0  0  0  0  0  0  0  0  0  0  0
   55.1992   28.6623   44.8379 H   0  0  0  0  0  0  0  0  0  0  0  0
  1  2  1  0
  2  3  1  0
  3  4  1  0
  4  5  1  0
  5  6  2  0
  6  7  1  0
  7  8  2  0
  8  9  1  0
  9 10  2  0
  3 11  1  0
 11 12  2  0
 12 13  1  0
 13 14  2  0
 14 15  1  0
 14 16  1  0
 16 17  2  0
 10  5  1  0
 17 11  1  0
  1 18  1  0
  1 19  1  0
  1 20  1  0
  2 21  1  0
  2 22  1  0
  4 23  1  0
  4 24  1  0
  6 25  1  0
  7 26  1  0
  8 27  1  0
  9 28  1  0
 10 29  1  0
 12 30  1  0
 13 31  1  0
 16 32  1  0
M  CHG  1   9   1
M  END
>  <UniqueID>  (10) 
9

>  <SMILES>  (10) 
CCN(Cc1ccc[nH+]c1)c1ccc(Br)cn1

>  <Energy>  (10) 
30.244371673525357

>  <Genealogy>  (10) 
CCN(Cc1ccc[nH+]c1)c1ccc(Br)cn1 (protonated)
CCN(Cc1ccc[nH+]c1)c1ccc(Br)cn1 (3D coordinates assigned)
CCN(Cc1ccc[nH+]c1)c1ccc(Br)cn1 (optimized conformer: 30.244371673525357 kcal/mol)

>  <smiles>  (10) 
CCN(Cc1cccnc1)c1ccc(Br)cn1

>  <score_type>  (10) 
oracle

>  <origin>  (10) 
adg

>  <m_score__min__energy>  (10) 
-5.1200000000000001

>  <m_primary>  (10) 
energy

$$$$
10:0
     RDKit          3D

 52 55  0  0  0  0  0  0  0  0999 V2000
   62.6370   33.3930   47.2960 C   0  0  0  0  0  0  0  0  0  0  0  0
   61.5140   33.8480   46.3680 C   0  0  0  0  0  0  0  0  0  0  0  0
   60.2180   33.8270   47.0830 N   0  0  0  0  0  0  0  0  0  0  0  0
   60.3930   34.1440   48.5190 C   0  0  0  0  0  0  0  0  0  0  0  0
   59.4330   33.3130   49.3670 C   0  0  0  0  0  0  0  0  0  0  0  0
   59.2190   34.7190   46.4400 C   0  0  0  0  0  0  0  0  0  0  0  0
   59.2020   34.4790   44.9270 C   0  0  0  0  0  0  0  0  0  0  0  0
   58.0960   33.6020   44.5330 N   0  0  0  0  0  0  0  0  0  0  0  0
   58.0740   32.1710   44.7230 C   0  0  0  0  0  0  0  0  0  0  0  0
   58.3270   31.6030   45.9900 C   0  0  0  0  0  0  0  0  0  0  0  0
   58.3020   30.2140   46.1750 C   0  0  0  0  0  0  0  0  0  0  0  0
   58.5450   29.6670   47.4110 N   0  0  0  0  0  0  0  0  0  0  0  0
   58.5210   28.3160   47.5970 C   0  0  0  0  0  0  0  0  0  0  0  0
   58.2490   27.5240   46.5340 N   0  0  0  0  0  0  0  0  0  0  0  0
   58.1780   26.2090   46.5080 N   0  0  0  0  0  0  0  0  0  0  0  0
   57.8810   25.9110   45.2180 C   0  0  0  0  0  0  0  0  0  0  0  0
   57.7010   24.5310   44.7190 C   0  0  0  0  0  0  0  0  0  0  0  0
   58.5420   23.4950   45.1660 C   0  0  0  0  0  0  0  0  0  0  0  0
   58.3690   22.1910   44.6940 C   0  0  0  0  0  0  0  0  0  0  0  0
   57.3590   21.9060   43.7730 C   0  0  0  0  0  0  0  0  0  0  0  0
   56.5190   22.9270   43.3210 C   0  0  0  0  0  0  0  0  0  0  0  0
   55.5380   22.6500   42.4260 F   0  0  0  0  0  0  0  0  0  0  0  0
   56.6870   24.2340   43.7910 C   0  0  0  0  0  0  0  0  0  0  0  0
   57.7640   27.0150   44.4300 N   0  0  0  0  0  0  0  0  0  0  0  0
   58.0060   28.0020   45.3140 C   0  0  0  0  0  0  0  0  0  0  0  0
   58.0200   29.3750   45.0710 C   0  0  0  0  0  0  0  0  0  0  0  0
   57.7700   29.9250   43.8100 C   0  0  0  0  0  0  0  0  0  0  0  0
   57.7960   31.3130   43.6320 C   0  0  0  0  0  0  0  0  0  0  0  0
   57.4000   31.9850   41.8800 Br  0  0  0  0  0  0  0  0  0  0  0  0
   62.3223   33.5205   48.3423 H   0  0  0  0  0  0  0  0  0  0  0  0
   62.8618   32.3329   47.1073 H   0  0  0  0  0  0  0  0  0  0  0  0
   63.5363   33.9977   47.1073 H   0  0  0  0  0  0  0  0  0  0  0  0
   61.7212   34.8714   46.0219 H   0  0  0  0  0  0  0  0  0  0  0  0
   61.4601   33.1638   45.5084 H   0  0  0  0  0  0  0  0  0  0  0  0
   61.4277   33.9188   48.8167 H   0  0  0  0  0  0  0  0  0  0  0  0
   60.1783   35.2110   48.6782 H   0  0  0  0  0  0  0  0  0  0  0  0
   59.6380   33.4904   50.4331 H   0  0  0  0  0  0  0  0  0  0  0  0
   58.3969   33.6040   49.1394 H   0  0  0  0  0  0  0  0  0  0  0  0
   59.5725   32.2459   49.1394 H   0  0  0  0  0  0  0  0  0  0  0  0
   58.2219   34.5079   46.8539 H   0  0  0  0  0  0  0  0  0  0  0  0
   59.4896   35.7668   46.6371 H   0  0  0  0  0  0  0  0  0  0  0  0
   59.0918   35.4454   44.4133 H   0  0  0  0  0  0  0  0  0  0  0  0
   60.1463   33.9902   44.6452 H   0  0  0  0  0  0  0  0  0  0  0  0
   57.2810   34.0690   44.0770 H   0  0  0  0  0  0  0  0  0  0  0  0
   58.5469   32.2599   46.8445 H   0  0  0  0  0  0  0  0  0  0  0  0
   58.7540   30.2820   48.2310 H   0  0  0  0  0  0  0  0  0  0  0  0
   58.7181   27.8805   48.5877 H   0  0  0  0  0  0  0  0  0  0  0  0
   59.3401   23.7128   45.8910 H   0  0  0  0  0  0  0  0  0  0  0  0
   59.0304   21.3869   45.0491 H   0  0  0  0  0  0  0  0  0  0  0  0
   57.2247   20.8786   43.4036 H   0  0  0  0  0  0  0  0  0  0  0  0
   56.0222   25.0338   43.4326 H   0  0  0  0  0  0  0  0  0  0  0  0
   57.5526   29.2658   42.9566 H   0  0  0  0  0  0  0  0  0  0  0  0
  1  2  1  0
  2  3  1  0
  3  4  1  0
  4  5  1  0
  3  6  1  0
  6  7  1  0
  7  8  1  0
  8  9  1  0
  9 10  2  0
 10 11  1  0
 11 12  1  0
 12 13  2  0
 13 14  1  0
 14 15  1  0
 15 16  2  0
 16 17  1  0
 17 18  2  0
 18 19  1  0
 19 20  2  0
 20 21  1  0
 21 22  1  0
 21 23  2  0
 16 24  1  0
 24 25  2  0
 25 26  1  0
 26 27  1  0
 27 28  2  0
 28 29  1  0
 28  9  1  0
 26 11  2  0
 25 14  1  0
 23 17  1  0
  1 30  1  0
  1 31  1  0
  1 32  1  0
  2 33  1  0
  2 34  1  0
  4 35  1  0
  4 36  1  0
  5 37  1  0
  5 38  1  0
  5 39  1  0
  6 40  1  0
  6 41  1  0
  7 42  1  0
  7 43  1  0
  8 44  1  0
 10 45  1  0
 12 46  1  0
 13 47  1  0
 18 48  1  0
 19 49  1  0
 20 50  1  0
 23 51  1  0
 27 52  1  0
M  CHG  1  12   1
M  END
>  <UniqueID>  (11) 
10

>  <SMILES>  (11) 
CCN(CC)CCNc1cc2[nH+]cn3nc(-c4cccc(F)c4)nc3c2cc1Br

>  <Energy>  (11) 
96.71633368499117

>  <Genealogy>  (11) 
CCN(CC)CCNc1cc2[nH+]cn3nc(-c4cccc(F)c4)nc3c2cc1Br (protonated)
CCN(CC)CCNc1cc2[nH+]cn3nc(-c4cccc(F)c4)nc3c2cc1Br (3D coordinates assigned)
CCN(CC)CCNc1cc2[nH+]cn3nc(-c4cccc(F)c4)nc3c2cc1Br (optimized conformer: 96.71633368499117 kcal/mol)

>  <smiles>  (11) 
CCN(CC)CCNc1cc2ncn3nc(-c4cccc(F)c4)nc3c2cc1Br

>  <score_type>  (11) 
oracle

>  <origin>  (11) 
adg

>  <m_score__min__energy>  (11) 
-6.8499999999999996

>  <m_primary>  (11) 
energy

$$$$
11:0
     RDKit          3D

 49 52  0  0  0  0  0  0  0  0999 V2000
   63.7600   32.8360   46.9190 C   0  0  0  0  0  0  0  0  0  0  0  0
   63.7310   34.1120   47.7510 C   0  0  0  0  0  0  0  0  0  0  0  0
   62.7690   33.9850   48.8430 N   0  0  0  0  0  0  0  0  0  0  0  0
   63.0440   33.9920   50.1680 C   0  0  0  0  0  0  0  0  0  0  0  0
   61.8860   33.7570   50.9080 C   0  0  0  0  0  0  0  0  0  0  0  0
   60.8790   33.5980   49.9730 C   0  0  0  0  0  0  0  0  0  0  0  0
   59.5210   33.2830   50.0760 C   0  0  0  0  0  0  0  0  0  0  0  0
   58.8510   33.1330   51.3420 N   0  0  0  0  0  0  0  0  0  0  0  0
   58.1360   31.9030   51.6890 C   0  0  0  0  0  0  0  0  0  0  0  0
   58.9250   34.2190   52.3190 C   0  0  0  0  0  0  0  0  0  0  0  0
   58.8320   33.0910   48.9110 N   0  0  0  0  0  0  0  0  0  0  0  0
   59.4290   33.2220   47.6840 C   0  0  0  0  0  0  0  0  0  0  0  0
   58.6430   33.0120   46.4620 C   0  0  0  0  0  0  0  0  0  0  0  0
   58.0320   33.9790   45.6820 C   0  0  0  0  0  0  0  0  0  0  0  0
   57.4210   33.3690   44.6510 N   0  0  0  0  0  0  0  0  0  0  0  0
   57.6160   32.0640   44.7520 N   0  0  0  0  0  0  0  0  0  0  0  0
   57.1570   31.0840   43.7710 C   0  0  0  0  0  0  0  0  0  0  0  0
   57.4210   29.6940   44.2790 C   0  0  0  0  0  0  0  0  0  0  0  0
   58.6930   29.1140   44.1320 C   0  0  0  0  0  0  0  0  0  0  0  0
   58.9470   27.8340   44.6390 C   0  0  0  0  0  0  0  0  0  0  0  0
   57.9350   27.1310   45.3000 C   0  0  0  0  0  0  0  0  0  0  0  0
   56.6720   27.7090   45.4640 C   0  0  0  0  0  0  0  0  0  0  0  0
   56.4150   28.9880   44.9600 C   0  0  0  0  0  0  0  0  0  0  0  0
   58.3620   31.8060   45.8440 C   0  0  0  0  0  0  0  0  0  0  0  0
   60.7540   33.5450   47.5970 N   0  0  0  0  0  0  0  0  0  0  0  0
   61.4530   33.7300   48.7430 C   0  0  0  0  0  0  0  0  0  0  0  0
   63.7798   31.9627   47.5876 H   0  0  0  0  0  0  0  0  0  0  0  0
   62.8626   32.7916   46.2844 H   0  0  0  0  0  0  0  0  0  0  0  0
   64.6585   32.8324   46.2844 H   0  0  0  0  0  0  0  0  0  0  0  0
   64.7319   34.2952   48.1689 H   0  0  0  0  0  0  0  0  0  0  0  0
   63.4314   34.9518   47.1068 H   0  0  0  0  0  0  0  0  0  0  0  0
   64.0414   34.1596   50.6006 H   0  0  0  0  0  0  0  0  0  0  0  0
   61.7929   33.7083   52.0030 H   0  0  0  0  0  0  0  0  0  0  0  0
   58.0805   31.8075   52.7834 H   0  0  0  0  0  0  0  0  0  0  0  0
   57.1187   31.9402   51.2721 H   0  0  0  0  0  0  0  0  0  0  0  0
   58.6717   31.0374   51.2721 H   0  0  0  0  0  0  0  0  0  0  0  0
   58.8965   33.8001   53.3357 H   0  0  0  0  0  0  0  0  0  0  0  0
   59.8632   34.7758   52.1780 H   0  0  0  0  0  0  0  0  0  0  0  0
   58.0710   34.8979   52.1780 H   0  0  0  0  0  0  0  0  0  0  0  0
   58.0443   35.0622   45.8731 H   0  0  0  0  0  0  0  0  0  0  0  0
   56.8880   33.8380   43.8850 H   0  0  0  0  0  0  0  0  0  0  0  0
   56.0775   31.2128   43.6035 H   0  0  0  0  0  0  0  0  0  0  0  0
   57.6990   31.2346   42.8257 H   0  0  0  0  0  0  0  0  0  0  0  0
   59.4916   29.6678   43.6168 H   0  0  0  0  0  0  0  0  0  0  0  0
   59.9422   27.3815   44.5174 H   0  0  0  0  0  0  0  0  0  0  0  0
   58.1325   26.1222   45.6915 H   0  0  0  0  0  0  0  0  0  0  0  0
   55.8795   27.1567   45.9903 H   0  0  0  0  0  0  0  0  0  0  0  0
   55.4227   29.4425   45.0971 H   0  0  0  0  0  0  0  0  0  0  0  0
   58.6897   30.8126   46.1841 H   0  0  0  0  0  0  0  0  0  0  0  0
  1  2  1  0
  2  3  1  0
  3  4  1  0
  4  5  2  0
  5  6  1  0
  6  7  2  0
  7  8  1  0
  8  9  1  0
  8 10  1  0
  7 11  1  0
 11 12  2  0
 12 13  1  0
 13 14  1  0
 14 15  2  0
 15 16  1  0
 16 17  1  0
 17 18  1  0
 18 19  2  0
 19 20  1  0
 20 21  2  0
 21 22  1  0
 22 23  2  0
 16 24  1  0
 12 25  1  0
 25 26  2  0
 26  3  1  0
 26  6  1  0
 24 13  2  0
 23 18  1  0
  1 27  1  0
  1 28  1  0
  1 29  1  0
  2 30  1  0
  2 31  1  0
  4 32  1  0
  5 33  1  0
  9 34  1  0
  9 35  1  0
  9 36  1  0
 10 37  1  0
 10 38  1  0
 10 39  1  0
 14 40  1  0
 15 41  1  0
 17 42  1  0
 17 43  1  0
 19 44  1  0
 20 45  1  0
 21 46  1  0
 22 47  1  0
 23 48  1  0
 24 49  1  0
M  CHG  1  15   1
M  END
>  <UniqueID>  (12) 
11

>  <SMILES>  (12) 
CCn1ccc2c(N(C)C)nc(-c3c[nH+]n(Cc4ccccc4)c3)nc21

>  <Energy>  (12) 
114.92597499693332

>  <Genealogy>  (12) 
CCn1ccc2c(N(C)C)nc(-c3c[nH+]n(Cc4ccccc4)c3)nc21 (protonated)
CCn1ccc2c(N(C)C)nc(-c3c[nH+]n(Cc4ccccc4)c3)nc21 (3D coordinates assigned)
CCn1ccc2c(N(C)C)nc(-c3c[nH+]n(Cc4ccccc4)c3)nc21 (optimized conformer: 114.92597499693332 kcal/mol)

>  <smiles>  (12) 
CCn1ccc2c(N(C)C)nc(-c3cnn(Cc4ccccc4)c3)nc21

>  <score_type>  (12) 
oracle

>  <origin>  (12) 
adg

>  <m_score__min__energy>  (12) 
-5.7400000000000002

>  <m_primary>  (12) 
energy

$$$$
12:0
     RDKit          3D

 68 72  0  0  0  0  0  0  0  0999 V2000
   62.6390   31.2280   47.1420 C   0  0  0  0  0  0  0  0  0  0  0  0
   63.5090   32.4690   47.3230 C   0  0  0  0  0  0  0  0  0  0  0  0
   63.4570   32.9300   48.7290 N   0  0  0  0  0  0  0  0  0  0  0  0
   64.8190   33.0860   49.2920 C   0  0  0  0  0  0  0  0  0  0  0  0
   65.1280   31.9460   50.2580 C   0  0  0  0  0  0  0  0  0  0  0  0
   62.6770   34.1830   48.8550 C   0  0  0  0  0  0  0  0  0  0  0  0
   61.5160   34.1870   47.8550 C   0  0  0  0  0  0  0  0  0  0  0  0
   60.2860   34.6860   48.4960 N   0  0  0  0  0  0  0  0  0  0  0  0
   59.9870   34.0040   49.7680 C   0  0  0  0  0  0  0  0  0  0  0  0
   60.1520   32.5050   49.6360 C   0  0  0  0  0  0  0  0  0  0  0  0
   59.5090   31.8120   48.5990 C   0  0  0  0  0  0  0  0  0  0  0  0
   59.6880   30.4590   48.4450 C   0  0  0  0  0  0  0  0  0  0  0  0
   60.4820   29.7270   49.2610 N   0  0  0  0  0  0  0  0  0  0  0  0
   61.1310   30.3400   50.2970 C   0  0  0  0  0  0  0  0  0  0  0  0
   61.9540   29.5850   51.1460 C   0  0  0  0  0  0  0  0  0  0  0  0
   62.6270   30.1980   52.2040 C   0  0  0  0  0  0  0  0  0  0  0  0
   62.4850   31.5660   52.4270 C   0  0  0  0  0  0  0  0  0  0  0  0
   61.6710   32.3380   51.5950 C   0  0  0  0  0  0  0  0  0  0  0  0
   60.9810   31.7470   50.5150 C   0  0  0  0  0  0  0  0  0  0  0  0
   58.9510   30.0410   47.2750 C   0  0  0  0  0  0  0  0  0  0  0  0
   58.8550   28.7710   46.7130 C   0  0  0  0  0  0  0  0  0  0  0  0
   58.0950   28.6040   45.5290 C   0  0  0  0  0  0  0  0  0  0  0  0
   57.4580   29.7520   44.9690 C   0  0  0  0  0  0  0  0  0  0  0  0
   57.5830   31.0070   45.6000 C   0  0  0  0  0  0  0  0  0  0  0  0
   57.0150   32.0290   45.1280 O   0  0  0  0  0  0  0  0  0  0  0  0
   58.3310   31.1050   46.7300 N   0  0  0  0  0  0  0  0  0  0  0  0
   58.6090   32.3190   47.5040 C   0  0  0  0  0  0  0  0  0  0  0  0
   56.6390   29.5890   43.7100 C   0  0  0  0  0  0  0  0  0  0  0  0
   57.2640   28.6420   42.8500 O   0  0  0  0  0  0  0  0  0  0  0  0
   57.8710   27.4910   43.3570 C   0  0  0  0  0  0  0  0  0  0  0  0
   58.4500   26.7110   42.5580 O   0  0  0  0  0  0  0  0  0  0  0  0
   57.8460   27.2360   44.8650 C   0  0  2  0  0  0  0  0  0  0  0  0
   56.5570   26.8250   45.2600 O   0  0  0  0  0  0  0  0  0  0  0  0
   58.8840   26.1460   45.2920 C   0  0  0  0  0  0  0  0  0  0  0  0
   58.4220   25.2120   46.4220 C   0  0  0  0  0  0  0  0  0  0  0  0
   62.3594   30.8292   48.1283 H   0  0  0  0  0  0  0  0  0  0  0  0
   61.7299   31.4958   46.5836 H   0  0  0  0  0  0  0  0  0  0  0  0
   63.2007   30.4647   46.5836 H   0  0  0  0  0  0  0  0  0  0  0  0
   64.5487   32.2254   47.0588 H   0  0  0  0  0  0  0  0  0  0  0  0
   63.1326   33.2694   46.6690 H   0  0  0  0  0  0  0  0  0  0  0  0
   65.5532   33.0763   48.4730 H   0  0  0  0  0  0  0  0  0  0  0  0
   64.8733   34.0402   49.8365 H   0  0  0  0  0  0  0  0  0  0  0  0
   65.0305   32.3058   51.2929 H   0  0  0  0  0  0  0  0  0  0  0  0
   64.4213   31.1202   50.0887 H   0  0  0  0  0  0  0  0  0  0  0  0
   66.1550   31.5902   50.0887 H   0  0  0  0  0  0  0  0  0  0  0  0
   62.2767   34.2605   49.8766 H   0  0  0  0  0  0  0  0  0  0  0  0
   63.3356   35.0383   48.6435 H   0  0  0  0  0  0  0  0  0  0  0  0
   61.7716   34.8378   47.0058 H   0  0  0  0  0  0  0  0  0  0  0  0
   61.3435   33.1585   47.5052 H   0  0  0  0  0  0  0  0  0  0  0  0
   59.4850   34.4940   47.8490 H   0  0  0  0  0  0  0  0  0  0  0  0
   60.6736   34.3739   50.5437 H   0  0  0  0  0  0  0  0  0  0  0  0
   58.9430   34.2173   50.0412 H   0  0  0  0  0  0  0  0  0  0  0  0
   60.5970   28.7030   49.0910 H   0  0  0  0  0  0  0  0  0  0  0  0
   62.0695   28.5042   50.9770 H   0  0  0  0  0  0  0  0  0  0  0  0
   63.2717   29.5991   52.8640 H   0  0  0  0  0  0  0  0  0  0  0  0
   63.0176   32.0412   53.2640 H   0  0  0  0  0  0  0  0  0  0  0  0
   61.5667   33.4167   51.7833 H   0  0  0  0  0  0  0  0  0  0  0  0
   59.3601   27.9125   47.1798 H   0  0  0  0  0  0  0  0  0  0  0  0
   59.1195   33.0742   46.8883 H   0  0  0  0  0  0  0  0  0  0  0  0
   57.7020   32.8162   47.8785 H   0  0  0  0  0  0  0  0  0  0  0  0
   55.6312   29.2350   43.9727 H   0  0  0  0  0  0  0  0  0  0  0  0
   56.5675   30.5579   43.1941 H   0  0  0  0  0  0  0  0  0  0  0  0
   56.1270   26.3510   44.4980 H   0  0  0  0  0  0  0  0  0  0  0  0
   59.1111   25.5281   44.4107 H   0  0  0  0  0  0  0  0  0  0  0  0
   59.7565   26.6904   45.6823 H   0  0  0  0  0  0  0  0  0  0  0  0
   58.6498   25.6726   47.3946 H   0  0  0  0  0  0  0  0  0  0  0  0
   57.3377   25.0457   46.3400 H   0  0  0  0  0  0  0  0  0  0  0  0
   58.9478   24.2493   46.3400 H   0  0  0  0  0  0  0  0  0  0  0  0
  1  2  1  0
  2  3  1  0
  3  4  1  0
  4  5  1  0
  3  6  1  0
  6  7  1  0
  7  8  1  0
  8  9  1  0
  9 10  1  0
 10 11  2  0
 11 12  1  0
 12 13  2  0
 13 14  1  0
 14 15  2  0
 15 16  1  0
 16 17  2  0
 17 18  1  0
 18 19  2  0
 12 20  1  0
 20 21  2  0
 21 22  1  0
 22 23  2  0
 23 24  1  0
 24 25  2  0
 24 26  1  0
 26 27  1  0
 23 28  1  0
 28 29  1  0
 29 30  1  0
 30 31  2  0
 30 32  1  0
 32 33  1  1
 32 34  1  0
 34 35  1  0
 19 10  1  0
 26 20  1  0
 27 11  1  0
 19 14  1  0
 32 22  1  0
  1 36  1  0
  1 37  1  0
  1 38  1  0
  2 39  1  0
  2 40  1  0
  4 41  1  0
  4 42  1  0
  5 43  1  0
  5 44  1  0
  5 45  1  0
  6 46  1  0
  6 47  1  0
  7 48  1  0
  7 49  1  0
  8 50  1  0
  9 51  1  0
  9 52  1  0
 13 53  1  0
 15 54  1  0
 16 55  1  0
 17 56  1  0
 18 57  1  0
 21 58  1  0
 27 59  1  0
 27 60  1  0
 28 61  1  0
 28 62  1  0
 33 63  1  0
 34 64  1  0
 34 65  1  0
 35 66  1  0
 35 67  1  0
 35 68  1  0
M  CHG  1  13   1
M  END
>  <UniqueID>  (13) 
12

>  <SMILES>  (13) 
CCN(CC)CCNCc1c2c([nH+]c3ccccc13)-c1cc3c(c(=O)n1C2)COC(=O)[C@@]3(O)CC

>  <Energy>  (13) 
110.22353252449967

>  <Genealogy>  (13) 
CCN(CC)CCNCc1c2c([nH+]c3ccccc13)-c1cc3c(c(=O)n1C2)COC(=O)C3(O)CC (protonated)
CCN(CC)CCNCc1c2c([nH+]c3ccccc13)-c1cc3c(c(=O)n1C2)COC(=O)[C@@]3(O)CC (chirality)
CCN(CC)CCNCc1c2c([nH+]c3ccccc13)-c1cc3c(c(=O)n1C2)COC(=O)[C@@]3(O)CC (3D coordinates assigned)
CCN(CC)CCNCc1c2c([nH+]c3ccccc13)-c1cc3c(c(=O)n1C2)COC(=O)[C@@]3(O)CC (nonaromatic ring conformer: 110.22353252449967 kcal/mol)

>  <smiles>  (13) 
CCN(CC)CCNCc1c2c(nc3ccccc13)-c1cc3c(c(=O)n1C2)COC(=O)C3(O)CC

>  <score_type>  (13) 
oracle

>  <origin>  (13) 
adg

>  <m_score__min__energy>  (13) 
-6.5599999999999996

>  <m_primary>  (13) 
energy

$$$$
13:0
     RDKit          3D

 64 67  0  0  0  0  0  0  0  0999 V2000
   59.6270   33.4810   50.8250 C   0  0  0  0  0  0  0  0  0  0  0  0
   60.8950   32.6270   50.8300 C   0  0  0  0  0  0  0  0  0  0  0  0
   61.2110   32.1600   49.4550 N   0  0  0  0  0  0  0  0  0  0  0  0
   62.4790   32.7500   48.9670 C   0  0  0  0  0  0  0  0  0  0  0  0
   62.7360   32.3550   47.5150 C   0  0  0  0  0  0  0  0  0  0  0  0
   61.2670   30.6770   49.4180 C   0  0  0  0  0  0  0  0  0  0  0  0
   60.1320   30.0680   48.5750 C   0  0  0  0  0  0  0  0  0  0  0  0
   58.9720   30.9770   48.4340 N   0  0  0  0  0  0  0  0  0  0  0  0
   58.7860   31.3740   47.0440 C   0  0  0  0  0  0  0  0  0  0  0  0
   59.0370   32.7070   46.6260 C   0  0  0  0  0  0  0  0  0  0  0  0
   59.5980   33.6700   47.5000 C   0  0  0  0  0  0  0  0  0  0  0  0
   59.8910   34.9590   47.0600 C   0  0  0  0  0  0  0  0  0  0  0  0
   59.6470   35.3160   45.7420 C   0  0  0  0  0  0  0  0  0  0  0  0
   59.0830   34.3960   44.8620 C   0  0  0  0  0  0  0  0  0  0  0  0
   58.7380   33.0880   45.2870 C   0  0  0  0  0  0  0  0  0  0  0  0
   58.1360   32.1920   44.4290 N   0  0  0  0  0  0  0  0  0  0  0  0
   57.5180   32.6710   43.1720 C   0  0  0  0  0  0  0  0  0  0  0  0
   58.1030   30.8480   44.7460 C   0  0  0  0  0  0  0  0  0  0  0  0
   57.7790   29.8700   43.7710 C   0  0  0  0  0  0  0  0  0  0  0  0
   57.7100   28.5190   44.0950 C   0  0  0  0  0  0  0  0  0  0  0  0
   57.9910   28.0870   45.3930 C   0  0  0  0  0  0  0  0  0  0  0  0
   57.8780   26.6510   45.7510 C   0  0  0  0  0  0  0  0  0  0  0  0
   57.8190   26.2620   47.1030 C   0  0  0  0  0  0  0  0  0  0  0  0
   57.7100   24.9130   47.4460 C   0  0  0  0  0  0  0  0  0  0  0  0
   57.6550   23.9270   46.4560 C   0  0  0  0  0  0  0  0  0  0  0  0
   57.5550   22.5860   46.8580 O   0  0  0  0  0  0  0  0  0  0  0  0
   57.4350   21.4840   45.9610 C   0  0  0  0  0  0  0  0  0  0  0  0
   57.7090   24.3110   45.1010 C   0  0  0  0  0  0  0  0  0  0  0  0
   57.8180   25.6610   44.7540 C   0  0  0  0  0  0  0  0  0  0  0  0
   58.3710   29.0300   46.3570 C   0  0  0  0  0  0  0  0  0  0  0  0
   58.4210   30.4150   46.0620 C   0  0  0  0  0  0  0  0  0  0  0  0
   59.3201   33.6877   51.8609 H   0  0  0  0  0  0  0  0  0  0  0  0
   59.8260   34.4298   50.3053 H   0  0  0  0  0  0  0  0  0  0  0  0
   58.8226   32.9399   50.3053 H   0  0  0  0  0  0  0  0  0  0  0  0
   61.7346   33.2271   51.2108 H   0  0  0  0  0  0  0  0  0  0  0  0
   60.7326   31.7513   51.4756 H   0  0  0  0  0  0  0  0  0  0  0  0
   62.4176   33.8460   49.0373 H   0  0  0  0  0  0  0  0  0  0  0  0
   63.3056   32.3728   49.5871 H   0  0  0  0  0  0  0  0  0  0  0  0
   63.3357   31.4333   47.4864 H   0  0  0  0  0  0  0  0  0  0  0  0
   61.7759   32.1837   47.0062 H   0  0  0  0  0  0  0  0  0  0  0  0
   63.2816   33.1634   47.0062 H   0  0  0  0  0  0  0  0  0  0  0  0
   62.2312   30.3705   48.9864 H   0  0  0  0  0  0  0  0  0  0  0  0
   61.1526   30.3111   50.4490 H   0  0  0  0  0  0  0  0  0  0  0  0
   60.5227   29.8385   47.5727 H   0  0  0  0  0  0  0  0  0  0  0  0
   59.7829   29.1629   49.0935 H   0  0  0  0  0  0  0  0  0  0  0  0
   59.0990   31.8190   49.0390 H   0  0  0  0  0  0  0  0  0  0  0  0
   58.0940   30.5590   48.8120 H   0  0  0  0  0  0  0  0  0  0  0  0
   59.8060   33.3953   48.5446 H   0  0  0  0  0  0  0  0  0  0  0  0
   60.3163   35.6945   47.7586 H   0  0  0  0  0  0  0  0  0  0  0  0
   59.8995   36.3276   45.3914 H   0  0  0  0  0  0  0  0  0  0  0  0
   58.9017   34.6895   43.8175 H   0  0  0  0  0  0  0  0  0  0  0  0
   56.6689   33.3291   43.4084 H   0  0  0  0  0  0  0  0  0  0  0  0
   58.2632   33.2298   42.5868 H   0  0  0  0  0  0  0  0  0  0  0  0
   57.1627   31.8100   42.5868 H   0  0  0  0  0  0  0  0  0  0  0  0
   57.5781   30.1866   42.7369 H   0  0  0  0  0  0  0  0  0  0  0  0
   57.4322   27.7858   43.3235 H   0  0  0  0  0  0  0  0  0  0  0  0
   57.8590   27.0256   47.8938 H   0  0  0  0  0  0  0  0  0  0  0  0
   57.6669   24.6228   48.5061 H   0  0  0  0  0  0  0  0  0  0  0  0
   57.3335   20.5521   46.5366 H   0  0  0  0  0  0  0  0  0  0  0  0
   56.5466   21.6221   45.3272 H   0  0  0  0  0  0  0  0  0  0  0  0
   58.3323   21.4277   45.3272 H   0  0  0  0  0  0  0  0  0  0  0  0
   57.6652   23.5450   44.3128 H   0  0  0  0  0  0  0  0  0  0  0  0
   57.8571   25.9508   43.6936 H   0  0  0  0  0  0  0  0  0  0  0  0
   58.6370   28.6868   47.3676 H   0  0  0  0  0  0  0  0  0  0  0  0
  1  2  1  0
  2  3  1  0
  3  4  1  0
  4  5  1  0
  3  6  1  0
  6  7  1  0
  7  8  1  0
  8  9  1  0
  9 10  2  0
 10 11  1  0
 11 12  2  0
 12 13  1  0
 13 14  2  0
 14 15  1  0
 15 16  2  0
 16 17  1  0
 16 18  1  0
 18 19  2  0
 19 20  1  0
 20 21  2  0
 21 22  1  0
 22 23  2  0
 23 24  1  0
 24 25  2  0
 25 26  1  0
 26 27  1  0
 25 28  1  0
 28 29  2  0
 21 30  1  0
 30 31  2  0
 31  9  1  0
 15 10  1  0
 31 18  1  0
 29 22  1  0
  1 32  1  0
  1 33  1  0
  1 34  1  0
  2 35  1  0
  2 36  1  0
  4 37  1  0
  4 38  1  0
  5 39  1  0
  5 40  1  0
  5 41  1  0
  6 42  1  0
  6 43  1  0
  7 44  1  0
  7 45  1  0
  8 46  1  0
  8 47  1  0
 11 48  1  0
 12 49  1  0
 13 50  1  0
 14 51  1  0
 17 52  1  0
 17 53  1  0
 17 54  1  0
 19 55  1  0
 20 56  1  0
 23 57  1  0
 24 58  1  0
 27 59  1  0
 27 60  1  0
 27 61  1  0
 28 62  1  0
 29 63  1  0
 30 64  1  0
M  CHG  2   8   1  16   1
M  END
>  <UniqueID>  (14) 
13

>  <SMILES>  (14) 
CCN(CC)CC[NH2+]c1c2ccccc2[n+](C)c2ccc(-c3ccc(OC)cc3)cc12

>  <Energy>  (14) 
98.12828560830322

>  <Genealogy>  (14) 
CCN(CC)CC[NH2+]c1c2ccccc2[n+](C)c2ccc(-c3ccc(OC)cc3)cc12 (protonated)
CCN(CC)CC[NH2+]c1c2ccccc2[n+](C)c2ccc(-c3ccc(OC)cc3)cc12 (3D coordinates assigned)
CCN(CC)CC[NH2+]c1c2ccccc2[n+](C)c2ccc(-c3ccc(OC)cc3)cc12 (optimized conformer: 98.12828560830322 kcal/mol)

>  <smiles>  (14) 
CCN(CC)CCNc1c2ccccc2[n+](C)c2ccc(-c3ccc(OC)cc3)cc12

>  <score_type>  (14) 
oracle

>  <origin>  (14) 
adg

>  <m_score__min__energy>  (14) 
-5.9299999999999997

>  <m_primary>  (14) 
energy

$$$$
14:0
     RDKit          3D

 55 57  0  0  0  0  0  0  0  0999 V2000
   55.8290   30.0550   43.9010 C   0  0  0  0  0  0  0  0  0  0  0  0
   56.6370   30.4120   42.6570 C   0  0  0  0  0  0  0  0  0  0  0  0
   57.5880   31.4980   42.9450 N   0  0  0  0  0  0  0  0  0  0  0  0
   58.0520   32.3540   41.8420 C   0  0  0  0  0  0  0  0  0  0  0  0
   57.0330   32.3860   40.7070 C   0  0  0  0  0  0  0  0  0  0  0  0
   58.0610   31.7280   44.2930 C   0  0  0  0  0  0  0  0  0  0  0  0
   58.7230   30.7130   45.0050 C   0  0  0  0  0  0  0  0  0  0  0  0
   59.1690   30.9360   46.3100 C   0  0  0  0  0  0  0  0  0  0  0  0
   58.9690   32.1780   46.9350 C   0  0  0  0  0  0  0  0  0  0  0  0
   59.4390   32.4030   48.3250 C   0  0  0  0  0  0  0  0  0  0  0  0
   60.7170   32.6930   48.6700 N   0  0  0  0  0  0  0  0  0  0  0  0
   60.8810   32.8550   50.0140 C   0  0  0  0  0  0  0  0  0  0  0  0
   62.1940   33.1790   50.6240 C   0  0  0  0  0  0  0  0  0  0  0  0
   62.2450   33.6970   51.9270 C   0  0  0  0  0  0  0  0  0  0  0  0
   63.4640   34.0360   52.5100 C   0  0  0  0  0  0  0  0  0  0  0  0
   64.6670   33.8400   51.8090 C   0  0  0  0  0  0  0  0  0  0  0  0
   65.9160   34.1550   52.3690 O   0  0  0  0  0  0  0  0  0  0  0  0
   66.6490   35.3430   52.0910 C   0  0  0  0  0  0  0  0  0  0  0  0
   64.6330   33.3020   50.5140 C   0  0  0  0  0  0  0  0  0  0  0  0
   65.8510   33.0660   49.8660 O   0  0  0  0  0  0  0  0  0  0  0  0
   66.8470   32.1860   50.3810 C   0  0  0  0  0  0  0  0  0  0  0  0
   63.3930   33.0200   49.8980 C   0  0  0  0  0  0  0  0  0  0  0  0
   63.3350   32.6350   48.5550 O   0  0  0  0  0  0  0  0  0  0  0  0
   63.7690   33.4960   47.5100 C   0  0  0  0  0  0  0  0  0  0  0  0
   59.7190   32.6800   50.7640 C   0  0  0  0  0  0  0  0  0  0  0  0
   58.4690   32.3270   49.6990 S   0  0  0  0  0  0  0  0  0  0  0  0
   58.3050   33.1930   46.2230 C   0  0  0  0  0  0  0  0  0  0  0  0
   57.8600   32.9700   44.9170 C   0  0  0  0  0  0  0  0  0  0  0  0
   56.4083   30.3109   44.8004 H   0  0  0  0  0  0  0  0  0  0  0  0
   54.8851   30.6199   43.8997 H   0  0  0  0  0  0  0  0  0  0  0  0
   55.6111   28.9768   43.8997 H   0  0  0  0  0  0  0  0  0  0  0  0
   57.1938   29.5246   42.3217 H   0  0  0  0  0  0  0  0  0  0  0  0
   55.9445   30.7490   41.8716 H   0  0  0  0  0  0  0  0  0  0  0  0
   58.2022   33.3764   42.2191 H   0  0  0  0  0  0  0  0  0  0  0  0
   58.9956   31.9433   41.4535 H   0  0  0  0  0  0  0  0  0  0  0  0
   56.0169   32.4179   41.1273 H   0  0  0  0  0  0  0  0  0  0  0  0
   57.2019   33.2793   40.0877 H   0  0  0  0  0  0  0  0  0  0  0  0
   57.1455   31.4839   40.0877 H   0  0  0  0  0  0  0  0  0  0  0  0
   58.8913   29.7349   44.5307 H   0  0  0  0  0  0  0  0  0  0  0  0
   59.6826   30.1298   46.8543 H   0  0  0  0  0  0  0  0  0  0  0  0
   61.5070   32.7370   47.9900 H   0  0  0  0  0  0  0  0  0  0  0  0
   61.3128   33.8369   52.4940 H   0  0  0  0  0  0  0  0  0  0  0  0
   63.4855   34.4596   53.5249 H   0  0  0  0  0  0  0  0  0  0  0  0
   66.9442   35.8214   53.0365 H   0  0  0  0  0  0  0  0  0  0  0  0
   67.5490   35.0912   51.5108 H   0  0  0  0  0  0  0  0  0  0  0  0
   66.0203   36.0345   51.5108 H   0  0  0  0  0  0  0  0  0  0  0  0
   66.8224   32.2077   51.4805 H   0  0  0  0  0  0  0  0  0  0  0  0
   66.6489   31.1625   50.0300 H   0  0  0  0  0  0  0  0  0  0  0  0
   67.8383   32.5086   50.0300 H   0  0  0  0  0  0  0  0  0  0  0  0
   64.2240   34.3987   47.9438 H   0  0  0  0  0  0  0  0  0  0  0  0
   64.5114   32.9734   46.8889 H   0  0  0  0  0  0  0  0  0  0  0  0
   62.9074   33.7820   46.8889 H   0  0  0  0  0  0  0  0  0  0  0  0
   59.6356   32.7590   51.8580 H   0  0  0  0  0  0  0  0  0  0  0  0
   58.1345   34.1704   46.6979 H   0  0  0  0  0  0  0  0  0  0  0  0
   57.3468   33.7760   44.3720 H   0  0  0  0  0  0  0  0  0  0  0  0
  1  2  1  0
  2  3  1  0
  3  4  1  0
  4  5  1  0
  3  6  1  0
  6  7  2  0
  7  8  1  0
  8  9  2  0
  9 10  1  0
 10 11  2  0
 11 12  1  0
 12 13  1  0
 13 14  2  0
 14 15  1  0
 15 16  2  0
 16 17  1  0
 17 18  1  0
 16 19  1  0
 19 20  1  0
 20 21  1  0
 19 22  2  0
 22 23  1  0
 23 24  1  0
 12 25  2  0
 25 26  1  0
  9 27  1  0
 27 28  2  0
 28  6  1  0
 26 10  1  0
 22 13  1  0
  1 29  1  0
  1 30  1  0
  1 31  1  0
  2 32  1  0
  2 33  1  0
  4 34  1  0
  4 35  1  0
  5 36  1  0
  5 37  1  0
  5 38  1  0
  7 39  1  0
  8 40  1  0
 11 41  1  0
 14 42  1  0
 15 43  1  0
 18 44  1  0
 18 45  1  0
 18 46  1  0
 21 47  1  0
 21 48  1  0
 21 49  1  0
 24 50  1  0
 24 51  1  0
 24 52  1  0
 25 53  1  0
 27 54  1  0
 28 55  1  0
M  CHG  1  11   1
M  END
>  <UniqueID>  (15) 
14

>  <SMILES>  (15) 
CCN(CC)c1ccc(-c2[nH+]c(-c3ccc(OC)c(OC)c3OC)cs2)cc1

>  <Energy>  (15) 
99.89888151788479

>  <Genealogy>  (15) 
CCN(CC)c1ccc(-c2[nH+]c(-c3ccc(OC)c(OC)c3OC)cs2)cc1 (protonated)
CCN(CC)c1ccc(-c2[nH+]c(-c3ccc(OC)c(OC)c3OC)cs2)cc1 (3D coordinates assigned)
CCN(CC)c1ccc(-c2[nH+]c(-c3ccc(OC)c(OC)c3OC)cs2)cc1 (optimized conformer: 99.89888151788479 kcal/mol)

>  <smiles>  (15) 
CCN(CC)c1ccc(-c2nc(-c3ccc(OC)c(OC)c3OC)cs2)cc1

>  <score_type>  (15) 
oracle

>  <origin>  (15) 
adg

>  <m_score__min__energy>  (15) 
-5.6200000000000001

>  <m_primary>  (15) 
energy

$$$$
15:0
     RDKit          3D

 60 61  0  0  0  0  0  0  0  0999 V2000
   64.9180   32.6360   49.7310 C   0  0  0  0  0  0  0  0  0  0  0  0
   63.6400   33.4010   49.4000 C   0  0  0  0  0  0  0  0  0  0  0  0
   62.7920   32.6090   48.4810 N   0  0  0  0  0  0  0  0  0  0  0  0
   63.3930   32.4890   47.1340 C   0  0  0  0  0  0  0  0  0  0  0  0
   63.3790   33.8190   46.3850 C   0  0  0  0  0  0  0  0  0  0  0  0
   62.3590   31.3190   49.0760 C   0  0  0  0  0  0  0  0  0  0  0  0
   61.3560   31.4380   50.2430 C   0  0  0  0  0  0  0  0  0  0  0  0
   60.0980   31.8630   49.7610 O   0  0  0  0  0  0  0  0  0  0  0  0
   59.7740   33.1280   50.3000 C   0  0  0  0  0  0  0  0  0  0  0  0
   59.9760   34.2090   49.2250 C   0  0  0  0  0  0  0  0  0  0  0  0
   60.5440   33.6850   47.9680 N   0  0  0  0  0  0  0  0  0  0  0  0
   59.6160   33.7460   46.8590 C   0  0  0  0  0  0  0  0  0  0  0  0
   59.6420   34.8620   45.9980 C   0  0  0  0  0  0  0  0  0  0  0  0
   58.8020   34.9280   44.8860 C   0  0  0  0  0  0  0  0  0  0  0  0
   57.9140   33.8890   44.6200 C   0  0  0  0  0  0  0  0  0  0  0  0
   57.8670   32.7770   45.4620 C   0  0  0  0  0  0  0  0  0  0  0  0
   58.7250   32.6780   46.5730 C   0  0  0  0  0  0  0  0  0  0  0  0
   58.6750   31.5080   47.4130 N   0  0  0  0  0  0  0  0  0  0  0  0
   58.9220   30.1710   46.9440 C   0  0  0  0  0  0  0  0  0  0  0  0
   59.6890   29.2950   47.7260 C   0  0  0  0  0  0  0  0  0  0  0  0
   59.9570   27.9910   47.2860 C   0  0  0  0  0  0  0  0  0  0  0  0
   60.7240   27.0420   48.1640 C   0  0  0  0  0  0  0  0  0  0  0  0
   59.4460   27.5590   46.0520 C   0  0  0  0  0  0  0  0  0  0  0  0
   58.7130   28.4400   45.2410 C   0  0  0  0  0  0  0  0  0  0  0  0
   58.1600   27.9750   43.9250 C   0  0  0  0  0  0  0  0  0  0  0  0
   58.4480   29.7400   45.6930 C   0  0  0  0  0  0  0  0  0  0  0  0
   65.0321   32.5677   50.8229 H   0  0  0  0  0  0  0  0  0  0  0  0
   64.8603   31.6238   49.3043 H   0  0  0  0  0  0  0  0  0  0  0  0
   65.7829   33.1650   49.3043 H   0  0  0  0  0  0  0  0  0  0  0  0
   63.0838   33.5978   50.3284 H   0  0  0  0  0  0  0  0  0  0  0  0
   63.9067   34.3505   48.9128 H   0  0  0  0  0  0  0  0  0  0  0  0
   64.4343   32.1501   47.2379 H   0  0  0  0  0  0  0  0  0  0  0  0
   62.7970   31.7663   46.5574 H   0  0  0  0  0  0  0  0  0  0  0  0
   63.3703   34.6473   47.1087 H   0  0  0  0  0  0  0  0  0  0  0  0
   64.2764   33.8935   45.7533 H   0  0  0  0  0  0  0  0  0  0  0  0
   62.4802   33.8746   45.7533 H   0  0  0  0  0  0  0  0  0  0  0  0
   61.8888   30.7191   48.2829 H   0  0  0  0  0  0  0  0  0  0  0  0
   63.2644   30.8577   49.4972 H   0  0  0  0  0  0  0  0  0  0  0  0
   61.2467   30.4578   50.7301 H   0  0  0  0  0  0  0  0  0  0  0  0
   61.7320   32.1760   50.9668 H   0  0  0  0  0  0  0  0  0  0  0  0
   58.7242   33.1289   50.6284 H   0  0  0  0  0  0  0  0  0  0  0  0
   60.4268   33.3388   51.1599 H   0  0  0  0  0  0  0  0  0  0  0  0
   59.0007   34.6668   49.0030 H   0  0  0  0  0  0  0  0  0  0  0  0
   60.6948   34.9378   49.6277 H   0  0  0  0  0  0  0  0  0  0  0  0
   60.8430   32.6940   48.1210 H   0  0  0  0  0  0  0  0  0  0  0  0
   61.4180   34.2160   47.7390 H   0  0  0  0  0  0  0  0  0  0  0  0
   60.3337   35.6917   46.2057 H   0  0  0  0  0  0  0  0  0  0  0  0
   58.8413   35.8017   44.2188 H   0  0  0  0  0  0  0  0  0  0  0  0
   57.2490   33.9447   43.7455 H   0  0  0  0  0  0  0  0  0  0  0  0
   57.1507   31.9683   45.2547 H   0  0  0  0  0  0  0  0  0  0  0  0
   58.3960   31.6190   48.4120 H   0  0  0  0  0  0  0  0  0  0  0  0
   60.0844   29.6346   48.6947 H   0  0  0  0  0  0  0  0  0  0  0  0
   60.5303   27.2816   49.2200 H   0  0  0  0  0  0  0  0  0  0  0  0
   60.4029   26.0104   47.9573 H   0  0  0  0  0  0  0  0  0  0  0  0
   61.8000   27.1395   47.9573 H   0  0  0  0  0  0  0  0  0  0  0  0
   59.6207   26.5253   45.7188 H   0  0  0  0  0  0  0  0  0  0  0  0
   57.3291   27.2764   44.1027 H   0  0  0  0  0  0  0  0  0  0  0  0
   57.7948   28.8414   43.3540 H   0  0  0  0  0  0  0  0  0  0  0  0
   58.9509   27.4665   43.3540 H   0  0  0  0  0  0  0  0  0  0  0  0
   57.8646   30.4282   45.0638 H   0  0  0  0  0  0  0  0  0  0  0  0
  1  2  1  0
  2  3  1  0
  3  4  1  0
  4  5  1  0
  3  6  1  0
  6  7  1  0
  7  8  1  0
  8  9  1  0
  9 10  1  0
 10 11  1  0
 11 12  1  0
 12 13  2  0
 13 14  1  0
 14 15  2  0
 15 16  1  0
 16 17  2  0
 17 18  1  0
 18 19  1  0
 19 20  2  0
 20 21  1  0
 21 22  1  0
 21 23  2  0
 23 24  1  0
 24 25  1  0
 24 26  2  0
 17 12  1  0
 26 19  1  0
  1 27  1  0
  1 28  1  0
  1 29  1  0
  2 30  1  0
  2 31  1  0
  4 32  1  0
  4 33  1  0
  5 34  1  0
  5 35  1  0
  5 36  1  0
  6 37  1  0
  6 38  1  0
  7 39  1  0
  7 40  1  0
  9 41  1  0
  9 42  1  0
 10 43  1  0
 10 44  1  0
 11 45  1  0
 11 46  1  0
 13 47  1  0
 14 48  1  0
 15 49  1  0
 16 50  1  0
 18 51  1  0
 20 52  1  0
 22 53  1  0
 22 54  1  0
 22 55  1  0
 23 56  1  0
 25 57  1  0
 25 58  1  0
 25 59  1  0
 26 60  1  0
M  CHG  1  11   1
M  END
>  <UniqueID>  (16) 
15

>  <SMILES>  (16) 
CCN(CC)CCOCC[NH2+]c1ccccc1Nc1cc(C)cc(C)c1

>  <Energy>  (16) 
64.20282028788249

>  <Genealogy>  (16) 
CCN(CC)CCOCC[NH2+]c1ccccc1Nc1cc(C)cc(C)c1 (protonated)
CCN(CC)CCOCC[NH2+]c1ccccc1Nc1cc(C)cc(C)c1 (3D coordinates assigned)
CCN(CC)CCOCC[NH2+]c1ccccc1Nc1cc(C)cc(C)c1 (optimized conformer: 64.20282028788249 kcal/mol)

>  <smiles>  (16) 
CCN(CC)CCOCCNc1ccccc1Nc1cc(C)cc(C)c1

>  <score_type>  (16) 
oracle

>  <origin>  (16) 
adg

>  <m_score__min__energy>  (16) 
-5.1799999999999997

>  <m_primary>  (16) 
energy

$$$$
16:0
     RDKit          3D

 32 33  0  0  0  0  0  0  0  0999 V2000
   63.2090   33.3870   47.1460 Br  0  0  0  0  0  0  0  0  0  0  0  0
   61.6680   32.4620   47.8730 C   0  0  0  0  0  0  0  0  0  0  0  0
   60.9880   31.5880   46.8170 C   0  0  0  0  0  0  0  0  0  0  0  0
   59.5220   31.6420   46.9370 N   0  0  0  0  0  0  0  0  0  0  0  0
   58.8860   32.6040   47.8500 C   0  0  0  0  0  0  0  0  0  0  0  0
   58.2330   33.7560   47.0840 C   0  0  0  0  0  0  0  0  0  0  0  0
   59.5540   34.9450   46.3030 Br  0  0  0  0  0  0  0  0  0  0  0  0
   58.7230   30.6360   46.2870 C   0  0  0  0  0  0  0  0  0  0  0  0
   58.5070   29.4140   46.9420 C   0  0  0  0  0  0  0  0  0  0  0  0
   57.7670   28.4010   46.3330 C   0  0  0  0  0  0  0  0  0  0  0  0
   57.2290   28.5910   45.0610 C   0  0  0  0  0  0  0  0  0  0  0  0
   57.4190   29.8070   44.3880 C   0  0  0  0  0  0  0  0  0  0  0  0
   56.8610   30.0010   43.1150 C   0  0  0  0  0  0  0  0  0  0  0  0
   57.0290   31.2180   42.4520 C   0  0  0  0  0  0  0  0  0  0  0  0
   57.7460   32.2520   43.0550 C   0  0  0  0  0  0  0  0  0  0  0  0
   58.3100   32.0730   44.3220 C   0  0  0  0  0  0  0  0  0  0  0  0
   58.1660   30.8470   45.0010 C   0  0  0  0  0  0  0  0  0  0  0  0
   61.9949   31.8246   48.7078 H   0  0  0  0  0  0  0  0  0  0  0  0
   60.9435   33.2155   48.2156 H   0  0  0  0  0  0  0  0  0  0  0  0
   61.2784   31.9435   45.8174 H   0  0  0  0  0  0  0  0  0  0  0  0
   61.3094   30.5472   46.9703 H   0  0  0  0  0  0  0  0  0  0  0  0
   58.1156   32.0834   48.4378 H   0  0  0  0  0  0  0  0  0  0  0  0
   59.6630   33.0225   48.5065 H   0  0  0  0  0  0  0  0  0  0  0  0
   57.6090   33.3398   46.2794 H   0  0  0  0  0  0  0  0  0  0  0  0
   57.6272   34.3381   47.7941 H   0  0  0  0  0  0  0  0  0  0  0  0
   58.9258   29.2534   47.9464 H   0  0  0  0  0  0  0  0  0  0  0  0
   57.6071   27.4480   46.8585 H   0  0  0  0  0  0  0  0  0  0  0  0
   56.6534   27.7844   44.5834 H   0  0  0  0  0  0  0  0  0  0  0  0
   56.2893   29.1913   42.6380 H   0  0  0  0  0  0  0  0  0  0  0  0
   56.5950   31.3621   41.4516 H   0  0  0  0  0  0  0  0  0  0  0  0
   57.8681   33.2118   42.5316 H   0  0  0  0  0  0  0  0  0  0  0  0
   58.8699   32.8951   44.7917 H   0  0  0  0  0  0  0  0  0  0  0  0
  1  2  1  0
  2  3  1  0
  3  4  1  0
  4  5  1  0
  5  6  1  0
  6  7  1  0
  4  8  1  0
  8  9  2  0
  9 10  1  0
 10 11  2  0
 11 12  1  0
 12 13  2  0
 13 14  1  0
 14 15  2  0
 15 16  1  0
 16 17  2  0
 17  8  1  0
 17 12  1  0
  2 18  1  0
  2 19  1  0
  3 20  1  0
  3 21  1  0
  5 22  1  0
  5 23  1  0
  6 24  1  0
  6 25  1  0
  9 26  1  0
 10 27  1  0
 11 28  1  0
 13 29  1  0
 14 30  1  0
 15 31  1  0
 16 32  1  0
M  END
>  <UniqueID>  (17) 
16

>  <SMILES>  (17) 
BrCCN(CCBr)c1cccc2ccccc12

>  <Energy>  (17) 
34.858214818456716

>  <Genealogy>  (17) 
BrCCN(CCBr)c1cccc2ccccc12 (3D coordinates assigned)
BrCCN(CCBr)c1cccc2ccccc12 (optimized conformer: 34.858214818456716 kcal/mol)

>  <smiles>  (17) 
BrCCN(CCBr)c1cccc2ccccc12

>  <score_type>  (17) 
oracle

>  <origin>  (17) 
adg

>  <m_score__min__energy>  (17) 
-6.21

>  <m_primary>  (17) 
energy

$$$$
17:0
     RDKit          3D

 45 48  0  0  1  0  0  0  0  0999 V2000
   58.0880   20.7390   46.1820 N   0  0  0  0  0  0  0  0  0  0  0  0
   57.7100   21.6180   45.3210 C   0  0  0  0  0  0  0  0  0  0  0  0
   57.3420   21.3170   44.0650 N   0  0  0  0  0  0  0  0  0  0  0  0
   56.9580   22.2920   43.2230 C   0  0  0  0  0  0  0  0  0  0  0  0
   56.9190   23.5940   43.5640 N   0  0  0  0  0  0  0  0  0  0  0  0
   57.2790   23.9390   44.8100 C   0  0  0  0  0  0  0  0  0  0  0  0
   57.6740   22.9500   45.6840 C   0  0  0  0  0  0  0  0  0  0  0  0
   57.9710   23.5690   46.8310 N   0  0  0  0  0  0  0  0  0  0  0  0
   57.7680   24.8830   46.6710 C   0  0  0  0  0  0  0  0  0  0  0  0
   57.3320   25.1380   45.4050 N   0  0  0  0  0  0  0  0  0  0  0  0
   57.0180   26.4550   44.9000 C   0  0  1  0  0  0  0  0  0  0  0  0
   57.1460   27.4680   45.8210 O   0  0  0  0  0  0  0  0  0  0  0  0
   57.0040   28.6030   44.9970 C   0  0  1  0  0  0  0  0  0  0  0  0
   57.5010   29.8630   45.6620 C   0  0  0  0  0  0  0  0  0  0  0  0
   56.9990   30.9850   44.9370 N   0  0  0  0  0  0  0  0  0  0  0  0
   58.0080   31.7090   44.2170 C   0  0  0  0  0  0  0  0  0  0  0  0
   58.4350   32.8700   45.0350 C   0  0  0  0  0  0  0  0  0  0  0  0
   58.2890   32.7300   46.4170 C   0  0  0  0  0  0  0  0  0  0  0  0
   58.6770   33.7960   47.2000 C   0  0  0  0  0  0  0  0  0  0  0  0
   59.1910   34.9610   46.6680 C   0  0  0  0  0  0  0  0  0  0  0  0
   59.3040   35.0240   45.3110 N   0  0  0  0  0  0  0  0  0  0  0  0
   58.9480   34.0330   44.4980 C   0  0  0  0  0  0  0  0  0  0  0  0
   57.8150   28.3400   43.7540 C   0  0  2  0  0  0  0  0  0  0  0  0
   57.0110   28.5860   42.6430 O   0  0  0  0  0  0  0  0  0  0  0  0
   58.0490   26.8390   43.8550 C   0  0  2  0  0  0  0  0  0  0  0  0
   57.7920   26.2210   42.6290 O   0  0  0  0  0  0  0  0  0  0  0  0
   58.7100   19.9470   45.9600 H   0  0  0  0  0  0  0  0  0  0  0  0
   57.3560   20.3190   43.7510 H   0  0  0  0  0  0  0  0  0  0  0  0
   56.6600   22.0115   42.2020 H   0  0  0  0  0  0  0  0  0  0  0  0
   57.9295   25.6451   47.4477 H   0  0  0  0  0  0  0  0  0  0  0  0
   55.9776   26.3726   44.5525 H   0  0  0  0  0  0  0  0  0  0  0  0
   55.9382   28.7621   44.7762 H   0  0  0  0  0  0  0  0  0  0  0  0
   57.1413   29.9012   46.7008 H   0  0  0  0  0  0  0  0  0  0  0  0
   58.6009   29.8784   45.6668 H   0  0  0  0  0  0  0  0  0  0  0  0
   56.2770   31.5480   45.3970 H   0  0  0  0  0  0  0  0  0  0  0  0
   58.8702   31.0527   44.0273 H   0  0  0  0  0  0  0  0  0  0  0  0
   57.6049   32.0567   43.2544 H   0  0  0  0  0  0  0  0  0  0  0  0
   57.8822   31.8095   46.8610 H   0  0  0  0  0  0  0  0  0  0  0  0
   58.5728   33.7149   48.2920 H   0  0  0  0  0  0  0  0  0  0  0  0
   59.4957   35.8007   47.3099 H   0  0  0  0  0  0  0  0  0  0  0  0
   59.0614   34.1396   43.4091 H   0  0  0  0  0  0  0  0  0  0  0  0
   58.7299   28.9441   43.6649 H   0  0  0  0  0  0  0  0  0  0  0  0
   56.6500   27.7140   42.3090 H   0  0  0  0  0  0  0  0  0  0  0  0
   59.0772   26.5455   44.1131 H   0  0  0  0  0  0  0  0  0  0  0  0
   56.8610   26.4030   42.3950 H   0  0  0  0  0  0  0  0  0  0  0  0
  1  2  2  3
  2  3  1  0
  3  4  1  0
  4  5  2  0
  5  6  1  0
  6  7  2  0
  7  8  1  0
  8  9  2  0
  9 10  1  0
 10 11  1  0
 11 12  1  0
 12 13  1  0
 13 14  1  0
 14 15  1  0
 15 16  1  0
 16 17  1  0
 17 18  2  0
 18 19  1  0
 19 20  2  0
 20 21  1  0
 21 22  2  0
 13 23  1  0
 23 24  1  0
 23 25  1  0
 25 26  1  0
  7  2  1  0
 25 11  1  0
 10  6  1  0
 22 17  1  0
  1 27  1  0
  3 28  1  0
  4 29  1  0
  9 30  1  0
 11 31  1  6
 13 32  1  6
 14 33  1  0
 14 34  1  0
 15 35  1  0
 16 36  1  0
 16 37  1  0
 18 38  1  0
 19 39  1  0
 20 40  1  0
 22 41  1  0
 23 42  1  6
 24 43  1  0
 25 44  1  1
 26 45  1  0
M  END
>  <smiles>  (18) 
N=c1[nH]cnc2c1ncn2C1OC(CNCc2cccnc2)C(O)C1O

>  <score_type>  (18) 
oracle

>  <origin>  (18) 
adg

>  <m_score__min__energy>  (18) 
-7.7999999999999998

>  <m_primary>  (18) 
energy

$$$$
18:0
     RDKit          3D

 52 54  0  0  0  0  0  0  0  0999 V2000
   59.4090   33.4900   50.4430 C   0  0  0  0  0  0  0  0  0  0  0  0
   60.8820   33.7960   50.6670 C   0  0  0  0  0  0  0  0  0  0  0  0
   61.5490   33.7980   49.4220 O   0  0  0  0  0  0  0  0  0  0  0  0
   62.9350   34.0310   49.6000 C   0  0  0  0  0  0  0  0  0  0  0  0
   63.7290   33.5090   48.3980 C   0  0  0  0  0  0  0  0  0  0  0  0
   62.8180   33.0540   47.3400 N   0  0  0  0  0  0  0  0  0  0  0  0
   62.8790   31.5960   47.1470 C   0  0  0  0  0  0  0  0  0  0  0  0
   61.8670   30.8260   48.0260 C   0  0  0  0  0  0  0  0  0  0  0  0
   60.5840   31.5280   48.1030 N   0  0  0  0  0  0  0  0  0  0  0  0
   59.6290   31.4760   47.0280 C   0  0  0  0  0  0  0  0  0  0  0  0
   59.3200   32.6340   46.2920 C   0  0  0  0  0  0  0  0  0  0  0  0
   59.8040   33.8990   46.6940 C   0  0  0  0  0  0  0  0  0  0  0  0
   59.4720   35.0470   45.9810 C   0  0  0  0  0  0  0  0  0  0  0  0
   58.6360   34.9620   44.8750 C   0  0  0  0  0  0  0  0  0  0  0  0
   58.1320   33.7260   44.4680 C   0  0  0  0  0  0  0  0  0  0  0  0
   58.4780   32.5330   45.1530 C   0  0  0  0  0  0  0  0  0  0  0  0
   57.9990   31.3000   44.7530 N   0  0  0  0  0  0  0  0  0  0  0  0
   57.3840   31.1440   43.4170 C   0  0  0  0  0  0  0  0  0  0  0  0
   58.1100   30.2110   45.5970 C   0  0  0  0  0  0  0  0  0  0  0  0
   57.3870   29.0110   45.3670 C   0  0  0  0  0  0  0  0  0  0  0  0
   57.5440   27.8890   46.1970 C   0  0  0  0  0  0  0  0  0  0  0  0
   56.8090   26.6750   45.9430 N   0  0  0  0  0  0  0  0  0  0  0  0
   57.4070   25.6120   45.6730 O   0  0  0  0  0  0  0  0  0  0  0  0
   55.4350   26.6670   45.9910 O   0  0  0  0  0  0  0  0  0  0  0  0
   58.4190   27.9660   47.2860 C   0  0  0  0  0  0  0  0  0  0  0  0
   59.1060   29.1450   47.5580 C   0  0  0  0  0  0  0  0  0  0  0  0
   58.9550   30.2780   46.7360 C   0  0  0  0  0  0  0  0  0  0  0  0
   58.9044   33.3852   51.4148 H   0  0  0  0  0  0  0  0  0  0  0  0
   58.9460   34.3111   49.8761 H   0  0  0  0  0  0  0  0  0  0  0  0
   59.3114   32.5524   49.8761 H   0  0  0  0  0  0  0  0  0  0  0  0
   60.9850   34.7831   51.1415 H   0  0  0  0  0  0  0  0  0  0  0  0
   61.3236   33.0308   51.3223 H   0  0  0  0  0  0  0  0  0  0  0  0
   63.1090   35.1119   49.7062 H   0  0  0  0  0  0  0  0  0  0  0  0
   63.2703   33.5007   50.5035 H   0  0  0  0  0  0  0  0  0  0  0  0
   64.3651   34.3162   48.0059 H   0  0  0  0  0  0  0  0  0  0  0  0
   64.3503   32.6611   48.7223 H   0  0  0  0  0  0  0  0  0  0  0  0
   61.8360   33.3310   47.5750 H   0  0  0  0  0  0  0  0  0  0  0  0
   62.6663   31.3733   46.0910 H   0  0  0  0  0  0  0  0  0  0  0  0
   63.8866   31.2676   47.4418 H   0  0  0  0  0  0  0  0  0  0  0  0
   61.7036   29.8280   47.5932 H   0  0  0  0  0  0  0  0  0  0  0  0
   62.2804   30.7476   49.0423 H   0  0  0  0  0  0  0  0  0  0  0  0
   60.3310   32.0320   48.9830 H   0  0  0  0  0  0  0  0  0  0  0  0
   60.4505   33.9773   47.5805 H   0  0  0  0  0  0  0  0  0  0  0  0
   59.8720   36.0228   46.2936 H   0  0  0  0  0  0  0  0  0  0  0  0
   58.3702   35.8724   44.3178 H   0  0  0  0  0  0  0  0  0  0  0  0
   57.4555   33.6760   43.6020 H   0  0  0  0  0  0  0  0  0  0  0  0
   56.3235   30.8750   43.5307 H   0  0  0  0  0  0  0  0  0  0  0  0
   57.4647   32.0911   42.8633 H   0  0  0  0  0  0  0  0  0  0  0  0
   57.9064   30.3499   42.8633 H   0  0  0  0  0  0  0  0  0  0  0  0
   56.6879   28.9588   44.5193 H   0  0  0  0  0  0  0  0  0  0  0  0
   58.5649   27.0878   47.9321 H   0  0  0  0  0  0  0  0  0  0  0  0
   59.7771   29.1926   48.4283 H   0  0  0  0  0  0  0  0  0  0  0  0
  1  2  1  0
  2  3  1  0
  3  4  1  0
  4  5  1  0
  5  6  1  0
  6  7  1  0
  7  8  1  0
  8  9  1  0
  9 10  1  0
 10 11  2  0
 11 12  1  0
 12 13  2  0
 13 14  1  0
 14 15  2  0
 15 16  1  0
 16 17  2  0
 17 18  1  0
 17 19  1  0
 19 20  2  0
 20 21  1  0
 21 22  1  0
 22 23  2  0
 22 24  1  0
 21 25  2  0
 25 26  1  0
 26 27  2  0
 27 10  1  0
 16 11  1  0
 27 19  1  0
  1 28  1  0
  1 29  1  0
  1 30  1  0
  2 31  1  0
  2 32  1  0
  4 33  1  0
  4 34  1  0
  5 35  1  0
  5 36  1  0
  6 37  1  0
  7 38  1  0
  7 39  1  0
  8 40  1  0
  8 41  1  0
  9 42  1  0
 12 43  1  0
 13 44  1  0
 14 45  1  0
 15 46  1  0
 18 47  1  0
 18 48  1  0
 18 49  1  0
 20 50  1  0
 25 51  1  0
 26 52  1  0
M  CHG  3  17   1  22   1  24  -1
M  END
>  <UniqueID>  (19) 
17

>  <SMILES>  (19) 
CCOCCNCCNc1c2ccccc2[n+](C)c2cc([N+](=O)[O-])ccc12

>  <Energy>  (19) 
79.08759549413864

>  <Genealogy>  (19) 
CCOCCNCCNc1c2ccccc2[n+](C)c2cc([N+](=O)[O-])ccc12 (3D coordinates assigned)
CCOCCNCCNc1c2ccccc2[n+](C)c2cc([N+](=O)[O-])ccc12 (optimized conformer: 79.08759549413864 kcal/mol)

>  <smiles>  (19) 
CCOCCNCCNc1c2ccccc2[n+](C)c2cc([N+](=O)[O-])ccc12

>  <score_type>  (19) 
oracle

>  <origin>  (19) 
adg

>  <m_score__min__energy>  (19) 
-6.5999999999999996

>  <m_primary>  (19) 
energy

$$$$
19:0
     RDKit          3D

 50 52  0  0  0  0  0  0  0  0999 V2000
   65.3350   32.7250   49.9210 C   0  0  0  0  0  0  0  0  0  0  0  0
   64.0780   31.9940   49.4180 C   0  0  0  0  0  0  0  0  0  0  0  0
   63.7220   32.2970   48.0070 N   0  0  0  0  0  0  0  0  0  0  0  0
   63.5820   33.7610   47.7950 C   0  0  0  0  0  0  0  0  0  0  0  0
   63.3240   34.1240   46.3300 C   0  0  0  0  0  0  0  0  0  0  0  0
   62.5150   31.5330   47.5680 C   0  0  0  0  0  0  0  0  0  0  0  0
   61.6590   31.0450   48.7510 C   0  0  0  0  0  0  0  0  0  0  0  0
   60.2530   31.4080   48.5740 N   0  0  0  0  0  0  0  0  0  0  0  0
   59.6970   31.5200   47.2560 C   0  0  0  0  0  0  0  0  0  0  0  0
   59.5240   32.7820   46.6660 C   0  0  0  0  0  0  0  0  0  0  0  0
   59.9570   33.9520   47.3240 C   0  0  0  0  0  0  0  0  0  0  0  0
   59.8250   35.1990   46.7200 C   0  0  0  0  0  0  0  0  0  0  0  0
   59.2800   35.3000   45.4450 C   0  0  0  0  0  0  0  0  0  0  0  0
   58.8440   34.1580   44.7750 C   0  0  0  0  0  0  0  0  0  0  0  0
   58.9280   32.8770   45.3790 C   0  0  0  0  0  0  0  0  0  0  0  0
   58.4670   31.7380   44.7440 N   0  0  0  0  0  0  0  0  0  0  0  0
   57.6010   31.8570   43.5490 C   0  0  0  0  0  0  0  0  0  0  0  0
   58.7960   30.4890   45.2380 C   0  0  0  0  0  0  0  0  0  0  0  0
   58.5770   29.3060   44.4860 C   0  0  0  0  0  0  0  0  0  0  0  0
   58.8620   28.0490   45.0210 C   0  0  0  0  0  0  0  0  0  0  0  0
   59.3830   27.9360   46.3060 C   0  0  0  0  0  0  0  0  0  0  0  0
   59.7320   26.3520   46.9760 Cl  0  0  0  0  0  0  0  0  0  0  0  0
   59.6490   29.0830   47.0530 C   0  0  0  0  0  0  0  0  0  0  0  0
   59.3840   30.3640   46.5240 C   0  0  0  0  0  0  0  0  0  0  0  0
   65.3415   32.7288   51.0210 H   0  0  0  0  0  0  0  0  0  0  0  0
   66.2326   32.2080   49.5508 H   0  0  0  0  0  0  0  0  0  0  0  0
   65.3296   33.7608   49.5508 H   0  0  0  0  0  0  0  0  0  0  0  0
   64.2501   30.9111   49.5057 H   0  0  0  0  0  0  0  0  0  0  0  0
   63.2392   32.3432   50.0381 H   0  0  0  0  0  0  0  0  0  0  0  0
   64.5530   31.9860   47.4500 H   0  0  0  0  0  0  0  0  0  0  0  0
   62.7397   34.1254   48.4014 H   0  0  0  0  0  0  0  0  0  0  0  0
   64.5308   34.2319   48.0918 H   0  0  0  0  0  0  0  0  0  0  0  0
   62.6874   35.0197   46.2808 H   0  0  0  0  0  0  0  0  0  0  0  0
   64.2817   34.3269   45.8284 H   0  0  0  0  0  0  0  0  0  0  0  0
   62.8176   33.2862   45.8284 H   0  0  0  0  0  0  0  0  0  0  0  0
   61.8979   32.1847   46.9321 H   0  0  0  0  0  0  0  0  0  0  0  0
   62.8643   30.6446   47.0214 H   0  0  0  0  0  0  0  0  0  0  0  0
   61.7401   29.9505   48.8247 H   0  0  0  0  0  0  0  0  0  0  0  0
   62.0290   31.5249   49.6690 H   0  0  0  0  0  0  0  0  0  0  0  0
   59.6730   31.7160   49.3870 H   0  0  0  0  0  0  0  0  0  0  0  0
   60.4043   33.8781   48.3263 H   0  0  0  0  0  0  0  0  0  0  0  0
   60.1520   36.1048   47.2516 H   0  0  0  0  0  0  0  0  0  0  0  0
   59.1925   36.2849   44.9630 H   0  0  0  0  0  0  0  0  0  0  0  0
   58.4279   34.2516   43.7611 H   0  0  0  0  0  0  0  0  0  0  0  0
   56.5573   32.0004   43.8654 H   0  0  0  0  0  0  0  0  0  0  0  0
   57.9234   32.7193   42.9469 H   0  0  0  0  0  0  0  0  0  0  0  0
   57.6789   30.9397   42.9469 H   0  0  0  0  0  0  0  0  0  0  0  0
   58.1760   29.3808   43.4645 H   0  0  0  0  0  0  0  0  0  0  0  0
   58.6740   27.1441   44.4244 H   0  0  0  0  0  0  0  0  0  0  0  0
   60.0697   28.9882   48.0649 H   0  0  0  0  0  0  0  0  0  0  0  0
  1  2  1  0
  2  3  1  0
  3  4  1  0
  4  5  1  0
  3  6  1  0
  6  7  1  0
  7  8  1  0
  8  9  1  0
  9 10  2  0
 10 11  1  0
 11 12  2  0
 12 13  1  0
 13 14  2  0
 14 15  1  0
 15 16  2  0
 16 17  1  0
 16 18  1  0
 18 19  2  0
 19 20  1  0
 20 21  2  0
 21 22  1  0
 21 23  1  0
 23 24  2  0
 24  9  1  0
 15 10  1  0
 24 18  1  0
  1 25  1  0
  1 26  1  0
  1 27  1  0
  2 28  1  0
  2 29  1  0
  3 30  1  0
  4 31  1  0
  4 32  1  0
  5 33  1  0
  5 34  1  0
  5 35  1  0
  6 36  1  0
  6 37  1  0
  7 38  1  0
  7 39  1  0
  8 40  1  0
 11 41  1  0
 12 42  1  0
 13 43  1  0
 14 44  1  0
 17 45  1  0
 17 46  1  0
 17 47  1  0
 19 48  1  0
 20 49  1  0
 23 50  1  0
M  CHG  2   3   1  16   1
M  END
>  <UniqueID>  (20) 
18

>  <SMILES>  (20) 
CC[NH+](CC)CCNc1c2ccccc2[n+](C)c2ccc(Cl)cc12

>  <Energy>  (20) 
79.49958065266571

>  <Genealogy>  (20) 
CC[NH+](CC)CCNc1c2ccccc2[n+](C)c2ccc(Cl)cc12 (protonated)
CC[NH+](CC)CCNc1c2ccccc2[n+](C)c2ccc(Cl)cc12 (3D coordinates assigned)
CC[NH+](CC)CCNc1c2ccccc2[n+](C)c2ccc(Cl)cc12 (optimized conformer: 79.49958065266571 kcal/mol)

>  <smiles>  (20) 
CCN(CC)CCNc1c2ccccc2[n+](C)c2ccc(Cl)cc12

>  <score_type>  (20) 
oracle

>  <origin>  (20) 
adg

>  <m_score__min__energy>  (20) 
-4.8600000000000003

>  <m_primary>  (20) 
energy

$$$$
20:0
     RDKit          3D

 33 35  0  0  0  0  0  0  0  0999 V2000
   59.6770   34.5750   48.9700 C   0  0  0  0  0  0  0  0  0  0  0  0
   58.7770   34.6710   47.8710 O   0  0  0  0  0  0  0  0  0  0  0  0
   58.6610   33.7090   46.8560 C   0  0  0  0  0  0  0  0  0  0  0  0
   57.8910   33.9210   45.6990 C   0  0  0  0  0  0  0  0  0  0  0  0
   57.8080   32.9290   44.7170 C   0  0  0  0  0  0  0  0  0  0  0  0
   58.5000   31.7150   44.8630 C   0  0  0  0  0  0  0  0  0  0  0  0
   58.3560   30.6440   43.7960 C   0  0  2  0  0  0  0  0  0  0  0  0
   56.8760   30.2950   43.5420 C   0  0  0  0  0  0  0  0  0  0  0  0
   56.3540   29.3320   44.5670 C   0  0  0  0  0  0  0  0  0  0  0  0
   55.1440   29.3840   44.9170 O   0  0  0  0  0  0  0  0  0  0  0  0
   57.2470   28.2840   45.0910 C   0  0  0  0  0  0  0  0  0  0  0  0
   56.7590   27.1990   45.8370 C   0  0  0  0  0  0  0  0  0  0  0  0
   57.6370   26.2080   46.2870 C   0  0  0  0  0  0  0  0  0  0  0  0
   59.0010   26.2940   45.9930 C   0  0  0  0  0  0  0  0  0  0  0  0
   59.4930   27.3770   45.2580 C   0  0  0  0  0  0  0  0  0  0  0  0
   58.6220   28.3780   44.8170 C   0  0  0  0  0  0  0  0  0  0  0  0
   59.1320   29.4790   44.1140 O   0  0  0  0  0  0  0  0  0  0  0  0
   59.2560   31.5030   46.0310 C   0  0  0  0  0  0  0  0  0  0  0  0
   59.3370   32.4940   47.0120 C   0  0  0  0  0  0  0  0  0  0  0  0
   59.1127   34.6352   49.9123 H   0  0  0  0  0  0  0  0  0  0  0  0
   60.2115   33.6147   48.9234 H   0  0  0  0  0  0  0  0  0  0  0  0
   60.4021   35.4009   48.9234 H   0  0  0  0  0  0  0  0  0  0  0  0
   57.3519   34.8706   45.5658 H   0  0  0  0  0  0  0  0  0  0  0  0
   57.1943   33.1010   43.8205 H   0  0  0  0  0  0  0  0  0  0  0  0
   58.7570   31.0551   42.8578 H   0  0  0  0  0  0  0  0  0  0  0  0
   56.2792   31.2181   43.5823 H   0  0  0  0  0  0  0  0  0  0  0  0
   56.7983   29.8211   42.5524 H   0  0  0  0  0  0  0  0  0  0  0  0
   55.6857   27.1286   46.0675 H   0  0  0  0  0  0  0  0  0  0  0  0
   57.2539   25.3596   46.8731 H   0  0  0  0  0  0  0  0  0  0  0  0
   59.6883   25.5085   46.3404 H   0  0  0  0  0  0  0  0  0  0  0  0
   60.5664   27.4416   45.0265 H   0  0  0  0  0  0  0  0  0  0  0  0
   59.7869   30.5500   46.1724 H   0  0  0  0  0  0  0  0  0  0  0  0
   59.9382   32.3175   47.9161 H   0  0  0  0  0  0  0  0  0  0  0  0
  1  2  1  0
  2  3  1  0
  3  4  2  0
  4  5  1  0
  5  6  2  0
  6  7  1  0
  7  8  1  0
  8  9  1  0
  9 10  2  0
  9 11  1  0
 11 12  2  0
 12 13  1  0
 13 14  2  0
 14 15  1  0
 15 16  2  0
 16 17  1  0
  6 18  1  0
 18 19  2  0
 19  3  1  0
 17  7  1  0
 16 11  1  0
  1 20  1  0
  1 21  1  0
  1 22  1  0
  4 23  1  0
  5 24  1  0
  7 25  1  6
  8 26  1  0
  8 27  1  0
 12 28  1  0
 13 29  1  0
 14 30  1  0
 15 31  1  0
 18 32  1  0
 19 33  1  0
M  END
>  <UniqueID>  (21) 
19

>  <SMILES>  (21) 
COc1ccc([C@@H]2CC(=O)c3ccccc3O2)cc1

>  <Energy>  (21) 
37.71585051896574

>  <Genealogy>  (21) 
COc1ccc([C@@H]2CC(=O)c3ccccc3O2)cc1 (chirality)
COc1ccc([C@@H]2CC(=O)c3ccccc3O2)cc1 (3D coordinates assigned)
COc1ccc([C@@H]2CC(=O)c3ccccc3O2)cc1 (nonaromatic ring conformer: 37.71585051896574 kcal/mol)

>  <smiles>  (21) 
COc1ccc(C2CC(=O)c3ccccc3O2)cc1

>  <score_type>  (21) 
oracle

>  <origin>  (21) 
adg

>  <m_score__min__energy>  (21) 
-6.79

>  <m_primary>  (21) 
energy

$$$$
21:0
     RDKit          3D

 51 54  0  0  0  0  0  0  0  0999 V2000
   61.6530   33.3540   48.0630 C   0  0  0  0  0  0  0  0  0  0  0  0
   60.2940   33.0140   47.6380 N   0  0  0  0  0  0  0  0  0  0  0  0
   59.4280   32.1330   48.2170 C   0  0  0  0  0  0  0  0  0  0  0  0
   59.7670   31.2290   49.3840 C   0  0  0  0  0  0  0  0  0  0  0  0
   59.9920   29.8150   49.0020 N   0  0  0  0  0  0  0  0  0  0  0  0
   60.9870   29.6310   47.9340 C   0  0  0  0  0  0  0  0  0  0  0  0
   60.2400   29.1550   46.7040 C   0  0  0  0  0  0  0  0  0  0  0  0
   59.0530   28.3690   47.2710 C   0  0  0  0  0  0  0  0  0  0  0  0
   59.4790   26.8900   47.5560 C   0  0  0  0  0  0  0  0  0  0  0  0
   58.2850   25.9390   47.4310 C   0  0  0  0  0  0  0  0  0  0  0  0
   57.7570   25.9170   46.0480 N   0  0  0  0  0  0  0  0  0  0  0  0
   56.1330   25.2710   46.0370 S   0  0  0  0  0  0  0  0  0  0  0  0
   55.8790   24.2460   44.6030 C   0  0  0  0  0  0  0  0  0  0  0  0
   55.1450   26.4040   45.9930 O   0  0  0  0  0  0  0  0  0  0  0  0
   55.8920   24.4540   47.2770 O   0  0  0  0  0  0  0  0  0  0  0  0
   57.8150   27.2260   45.3500 C   0  0  0  0  0  0  0  0  0  0  0  0
   57.8190   28.4170   46.3190 C   0  0  0  0  0  0  0  0  0  0  0  0
   58.7600   29.1120   48.5930 C   0  0  0  0  0  0  0  0  0  0  0  0
   58.1940   32.1470   47.6440 N   0  0  0  0  0  0  0  0  0  0  0  0
   58.3100   33.0750   46.6810 C   0  0  0  0  0  0  0  0  0  0  0  0
   57.3230   33.4990   45.7940 C   0  0  0  0  0  0  0  0  0  0  0  0
   57.6580   34.5150   44.8790 C   0  0  0  0  0  0  0  0  0  0  0  0
   58.9540   35.0780   44.8800 C   0  0  0  0  0  0  0  0  0  0  0  0
   59.9280   34.6280   45.7920 C   0  0  0  0  0  0  0  0  0  0  0  0
   59.5640   33.6100   46.6790 C   0  0  0  0  0  0  0  0  0  0  0  0
   61.7013   33.3661   49.1619 H   0  0  0  0  0  0  0  0  0  0  0  0
   62.3574   32.6044   47.6732 H   0  0  0  0  0  0  0  0  0  0  0  0
   61.9214   34.3470   47.6732 H   0  0  0  0  0  0  0  0  0  0  0  0
   60.6822   31.6086   49.8618 H   0  0  0  0  0  0  0  0  0  0  0  0
   58.9003   31.2430   50.0612 H   0  0  0  0  0  0  0  0  0  0  0  0
   61.4934   30.5842   47.7222 H   0  0  0  0  0  0  0  0  0  0  0  0
   61.7519   28.8997   48.2342 H   0  0  0  0  0  0  0  0  0  0  0  0
   59.8925   30.0084   46.1032 H   0  0  0  0  0  0  0  0  0  0  0  0
   60.8687   28.5482   46.0358 H   0  0  0  0  0  0  0  0  0  0  0  0
   60.2523   26.5930   46.8323 H   0  0  0  0  0  0  0  0  0  0  0  0
   59.8677   26.8299   48.5833 H   0  0  0  0  0  0  0  0  0  0  0  0
   58.6050   24.9238   47.7085 H   0  0  0  0  0  0  0  0  0  0  0  0
   57.4878   26.2928   48.1013 H   0  0  0  0  0  0  0  0  0  0  0  0
   55.6258   23.2244   44.9227 H   0  0  0  0  0  0  0  0  0  0  0  0
   55.0554   24.6563   44.0003 H   0  0  0  0  0  0  0  0  0  0  0  0
   56.7989   24.2242   44.0003 H   0  0  0  0  0  0  0  0  0  0  0  0
   58.7333   27.2616   44.7455 H   0  0  0  0  0  0  0  0  0  0  0  0
   56.9126   27.3092   44.7264 H   0  0  0  0  0  0  0  0  0  0  0  0
   57.8503   29.3509   45.7387 H   0  0  0  0  0  0  0  0  0  0  0  0
   56.9063   28.3695   46.9312 H   0  0  0  0  0  0  0  0  0  0  0  0
   57.9481   29.8385   48.4412 H   0  0  0  0  0  0  0  0  0  0  0  0
   58.4491   28.3999   49.3716 H   0  0  0  0  0  0  0  0  0  0  0  0
   56.3166   33.0552   45.8081 H   0  0  0  0  0  0  0  0  0  0  0  0
   56.9068   34.8725   44.1594 H   0  0  0  0  0  0  0  0  0  0  0  0
   59.2040   35.8738   44.1629 H   0  0  0  0  0  0  0  0  0  0  0  0
   60.9388   35.0616   45.8062 H   0  0  0  0  0  0  0  0  0  0  0  0
  1  2  1  0
  2  3  1  0
  3  4  1  0
  4  5  1  0
  5  6  1  0
  6  7  1  0
  7  8  1  0
  8  9  1  0
  9 10  1  0
 10 11  1  0
 11 12  1  0
 12 13  1  0
 12 14  2  0
 12 15  2  0
 11 16  1  0
 16 17  1  0
  8 18  1  0
  3 19  2  0
 19 20  1  0
 20 21  2  0
 21 22  1  0
 22 23  2  0
 23 24  1  0
 24 25  2  0
 25  2  1  0
 18  5  1  0
 25 20  1  0
 17  8  1  0
  1 26  1  0
  1 27  1  0
  1 28  1  0
  4 29  1  0
  4 30  1  0
  6 31  1  0
  6 32  1  0
  7 33  1  0
  7 34  1  0
  9 35  1  0
  9 36  1  0
 10 37  1  0
 10 38  1  0
 13 39  1  0
 13 40  1  0
 13 41  1  0
 16 42  1  0
 16 43  1  0
 17 44  1  0
 17 45  1  0
 18 46  1  0
 18 47  1  0
 21 48  1  0
 22 49  1  0
 23 50  1  0
 24 51  1  0
M  END
>  <UniqueID>  (22) 
20

>  <SMILES>  (22) 
Cn1c(CN2CCC3(CCN(S(C)(=O)=O)CC3)C2)nc2ccccc21

>  <Energy>  (22) 
101.89279248247311

>  <Genealogy>  (22) 
Cn1c(CN2CCC3(CCN(S(C)(=O)=O)CC3)C2)nc2ccccc21 (3D coordinates assigned)
Cn1c(CN2CCC3(CCN(S(C)(=O)=O)CC3)C2)nc2ccccc21 (nonaromatic ring conformer: 101.89279248247311 kcal/mol)

>  <smiles>  (22) 
Cn1c(CN2CCC3(CCN(S(C)(=O)=O)CC3)C2)nc2ccccc21

>  <score_type>  (22) 
oracle

>  <origin>  (22) 
adg

>  <m_score__min__energy>  (22) 
-8.5

>  <m_primary>  (22) 
energy

$$$$
22:0
     RDKit          3D

 48 50  0  0  0  0  0  0  0  0999 V2000
   55.5380   24.8290   45.5090 C   0  0  0  0  0  0  0  0  0  0  0  0
   55.4840   26.1600   46.0100 O   0  0  0  0  0  0  0  0  0  0  0  0
   56.4820   27.1050   45.7450 C   0  0  0  0  0  0  0  0  0  0  0  0
   56.1840   28.2220   45.2400 O   0  0  0  0  0  0  0  0  0  0  0  0
   57.9160   26.7720   46.0690 C   0  0  1  0  0  0  0  0  0  0  0  0
   58.8820   27.3980   45.0450 C   0  0  0  0  0  0  0  0  0  0  0  0
   59.0820   28.9170   45.2480 C   0  0  0  0  0  0  0  0  0  0  0  0
   59.0190   29.3500   46.6720 N   0  0  2  0  0  0  0  0  0  0  0  0
   59.8250   30.5730   46.9190 C   0  0  0  0  0  0  0  0  0  0  0  0
   59.3620   31.4090   48.1330 C   0  0  0  0  0  0  0  0  0  0  0  0
   58.2330   32.3670   47.7410 C   0  0  0  0  0  0  0  0  0  0  0  0
   58.5110   32.9730   46.4310 N   0  0  0  0  0  0  0  0  0  0  0  0
   59.2420   34.2130   46.3410 C   0  0  0  0  0  0  0  0  0  0  0  0
   59.7900   34.7120   47.3620 O   0  0  0  0  0  0  0  0  0  0  0  0
   59.2880   34.9680   45.0430 C   0  0  0  0  0  0  0  0  0  0  0  0
   59.1140   34.1000   43.9230 O   0  0  0  0  0  0  0  0  0  0  0  0
   58.3190   32.9510   43.9820 C   0  0  0  0  0  0  0  0  0  0  0  0
   57.8650   32.3440   42.8080 C   0  0  0  0  0  0  0  0  0  0  0  0
   57.0620   31.2050   42.8810 C   0  0  0  0  0  0  0  0  0  0  0  0
   56.7320   30.6820   44.1350 C   0  0  0  0  0  0  0  0  0  0  0  0
   57.2010   31.2750   45.2650 N   0  0  0  0  0  0  0  0  0  0  0  0
   57.9850   32.3900   45.2220 C   0  0  0  0  0  0  0  0  0  0  0  0
   59.3320   28.2600   47.6220 C   0  0  0  0  0  0  0  0  0  0  0  0
   58.2810   27.1400   47.5310 C   0  0  0  0  0  0  0  0  0  0  0  0
   55.5667   24.1213   46.3506 H   0  0  0  0  0  0  0  0  0  0  0  0
   54.6471   24.6321   44.8946 H   0  0  0  0  0  0  0  0  0  0  0  0
   56.4419   24.7049   44.8946 H   0  0  0  0  0  0  0  0  0  0  0  0
   58.0284   25.6806   45.9896 H   0  0  0  0  0  0  0  0  0  0  0  0
   58.4786   27.2301   44.0355 H   0  0  0  0  0  0  0  0  0  0  0  0
   59.8618   26.9175   45.1830 H   0  0  0  0  0  0  0  0  0  0  0  0
   58.2963   29.4473   44.6899 H   0  0  0  0  0  0  0  0  0  0  0  0
   60.0928   29.1567   44.8862 H   0  0  0  0  0  0  0  0  0  0  0  0
   58.0280   29.6340   46.8610 H   0  0  0  0  0  0  0  0  0  0  0  0
   60.8684   30.2688   47.0888 H   0  0  0  0  0  0  0  0  0  0  0  0
   59.7033   31.2131   46.0327 H   0  0  0  0  0  0  0  0  0  0  0  0
   59.0012   30.7308   48.9203 H   0  0  0  0  0  0  0  0  0  0  0  0
   60.2145   32.0018   48.4961 H   0  0  0  0  0  0  0  0  0  0  0  0
   57.2858   31.8101   47.6897 H   0  0  0  0  0  0  0  0  0  0  0  0
   58.1609   33.1636   48.4961 H   0  0  0  0  0  0  0  0  0  0  0  0
   58.4857   35.7206   45.0393 H   0  0  0  0  0  0  0  0  0  0  0  0
   60.2753   35.4454   44.9578 H   0  0  0  0  0  0  0  0  0  0  0  0
   58.1399   32.7630   41.8288 H   0  0  0  0  0  0  0  0  0  0  0  0
   56.6931   30.7244   41.9629 H   0  0  0  0  0  0  0  0  0  0  0  0
   56.0924   29.7900   44.2074 H   0  0  0  0  0  0  0  0  0  0  0  0
   59.3411   28.6643   48.6450 H   0  0  0  0  0  0  0  0  0  0  0  0
   60.3171   27.8417   47.3679 H   0  0  0  0  0  0  0  0  0  0  0  0
   57.3684   27.4722   48.0476 H   0  0  0  0  0  0  0  0  0  0  0  0
   58.7130   26.2432   47.9991 H   0  0  0  0  0  0  0  0  0  0  0  0
  1  2  1  0
  2  3  1  0
  3  4  2  0
  3  5  1  0
  5  6  1  0
  6  7  1  0
  7  8  1  0
  8  9  1  0
  9 10  1  0
 10 11  1  0
 11 12  1  0
 12 13  1  0
 13 14  2  0
 13 15  1  0
 15 16  1  0
 16 17  1  0
 17 18  2  0
 18 19  1  0
 19 20  2  0
 20 21  1  0
 21 22  2  0
  8 23  1  0
 23 24  1  0
 24  5  1  0
 22 12  1  0
 22 17  1  0
  1 25  1  0
  1 26  1  0
  1 27  1  0
  5 28  1  1
  6 29  1  0
  6 30  1  0
  7 31  1  0
  7 32  1  0
  8 33  1  1
  9 34  1  0
  9 35  1  0
 10 36  1  0
 10 37  1  0
 11 38  1  0
 11 39  1  0
 15 40  1  0
 15 41  1  0
 18 42  1  0
 19 43  1  0
 20 44  1  0
 23 45  1  0
 23 46  1  0
 24 47  1  0
 24 48  1  0
M  CHG  1   8   1
M  END
>  <UniqueID>  (23) 
21

>  <SMILES>  (23) 
COC(=O)C1CC[NH+](CCCN2C(=O)COc3cccnc32)CC1

>  <Energy>  (23) 
57.729491467093844

>  <Genealogy>  (23) 
COC(=O)C1CC[NH+](CCCN2C(=O)COc3cccnc32)CC1 (protonated)
COC(=O)C1CC[NH+](CCCN2C(=O)COc3cccnc32)CC1 (3D coordinates assigned)
COC(=O)C1CC[NH+](CCCN2C(=O)COc3cccnc32)CC1 (nonaromatic ring conformer: 57.729491467093844 kcal/mol)

>  <smiles>  (23) 
COC(=O)C1CCN(CCCN2C(=O)COc3cccnc32)CC1

>  <score_type>  (23) 
oracle

>  <origin>  (23) 
adg

>  <m_score__min__energy>  (23) 
-5.7599999999999998

>  <m_primary>  (23) 
energy

$$$$
23:0
     RDKit          3D

 46 50  0  0  0  0  0  0  0  0999 V2000
   63.4780   34.0420   46.9556 H   0  0  0  0  0  0  0  0  0  0  0  0
   62.6960   33.2740   47.0480 C   0  0  0  0  0  0  0  0  0  0  0  0
   62.9370   31.6730   47.5080 S   0  0  0  0  0  0  0  0  0  0  0  0
   61.3280   31.2050   47.3770 C   0  0  0  0  0  0  0  0  0  0  0  0
   60.7920   29.8590   47.7370 C   0  0  0  0  0  0  0  0  0  0  0  0
   59.9229   29.9746   48.4013 H   0  0  0  0  0  0  0  0  0  0  0  0
   61.5696   29.2776   48.2541 H   0  0  0  0  0  0  0  0  0  0  0  0
   60.3870   29.1630   46.5200 N   0  0  0  0  0  0  0  0  0  0  0  0
   59.2270   28.6070   46.2910 C   0  0  0  0  0  0  0  0  0  0  0  0
   58.9580   27.2760   46.6880 C   0  0  0  0  0  0  0  0  0  0  0  0
   59.7220   26.6747   47.2026 H   0  0  0  0  0  0  0  0  0  0  0  0
   57.7010   26.7480   46.4100 C   0  0  0  0  0  0  0  0  0  0  0  0
   57.1840   25.5040   46.6820 C   0  0  0  0  0  0  0  0  0  0  0  0
   57.7030   24.3720   47.3050 C   0  0  0  0  0  0  0  0  0  0  0  0
   58.7300   24.3617   47.6988 H   0  0  0  0  0  0  0  0  0  0  0  0
   56.8710   23.2400   47.4150 C   0  0  0  0  0  0  0  0  0  0  0  0
   57.3900   22.0980   48.0400 O   0  0  0  0  0  0  0  0  0  0  0  0
   57.0190   20.7630   47.7100 C   0  0  0  0  0  0  0  0  0  0  0  0
   56.8592   20.1878   48.6339 H   0  0  0  0  0  0  0  0  0  0  0  0
   56.0903   20.7756   47.1206 H   0  0  0  0  0  0  0  0  0  0  0  0
   57.8210   20.2946   47.1206 H   0  0  0  0  0  0  0  0  0  0  0  0
   55.5450   23.2860   46.8950 C   0  0  0  0  0  0  0  0  0  0  0  0
   54.8966   22.4015   46.9806 H   0  0  0  0  0  0  0  0  0  0  0  0
   55.0550   24.4500   46.2730 C   0  0  0  0  0  0  0  0  0  0  0  0
   54.0319   24.4909   45.8710 H   0  0  0  0  0  0  0  0  0  0  0  0
   55.9060   25.5470   46.1830 C   0  0  0  0  0  0  0  0  0  0  0  0
   55.6410   26.7490   45.6310 N   0  0  0  0  0  0  0  0  0  0  0  0
   56.7510   27.4670   45.7820 N   0  0  0  0  0  0  0  0  0  0  0  0
   56.9490   28.7510   45.3750 C   0  0  0  0  0  0  0  0  0  0  0  0
   55.9410   29.4750   44.7210 C   0  0  0  0  0  0  0  0  0  0  0  0
   54.9656   29.0045   44.5282 H   0  0  0  0  0  0  0  0  0  0  0  0
   56.1710   30.7900   44.3140 C   0  0  0  0  0  0  0  0  0  0  0  0
   55.3745   31.3505   43.8026 H   0  0  0  0  0  0  0  0  0  0  0  0
   57.4140   31.4040   44.5530 C   0  0  0  0  0  0  0  0  0  0  0  0
   57.6870   32.7230   44.1610 O   0  0  0  0  0  0  0  0  0  0  0  0
   57.8110   33.8200   45.0590 C   0  0  0  0  0  0  0  0  0  0  0  0
   57.7694   33.4524   46.0949 H   0  0  0  0  0  0  0  0  0  0  0  0
   58.7722   34.3269   44.8881 H   0  0  0  0  0  0  0  0  0  0  0  0
   56.9872   34.5287   44.8881 H   0  0  0  0  0  0  0  0  0  0  0  0
   58.4230   30.6850   45.2050 C   0  0  0  0  0  0  0  0  0  0  0  0
   59.3950   31.1645   45.3926 H   0  0  0  0  0  0  0  0  0  0  0  0
   58.2120   29.3550   45.6250 C   0  0  0  0  0  0  0  0  0  0  0  0
   60.5720   32.3050   46.9980 C   0  0  0  0  0  0  0  0  0  0  0  0
   59.4808   32.2734   46.8629 H   0  0  0  0  0  0  0  0  0  0  0  0
   61.3410   33.4600   46.8050 C   0  0  0  0  0  0  0  0  0  0  0  0
   60.9124   34.4231   46.4908 H   0  0  0  0  0  0  0  0  0  0  0  0
  1  2  1  0
  2  3  1  0
  3  4  1  0
  4  5  1  0
  5  6  1  0
  5  7  1  0
  5  8  1  0
  8  9  2  0
  9 10  1  0
 10 11  1  0
 10 12  2  0
 12 13  1  0
 13 14  2  0
 14 15  1  0
 14 16  1  0
 16 17  1  0
 17 18  1  0
 18 19  1  0
 18 20  1  0
 18 21  1  0
 16 22  2  0
 22 23  1  0
 22 24  1  0
 24 25  1  0
 24 26  2  0
 26 27  1  0
 27 28  1  0
 28 29  1  0
 29 30  2  0
 30 31  1  0
 30 32  1  0
 32 33  1  0
 32 34  2  0
 34 35  1  0
 35 36  1  0
 36 37  1  0
 36 38  1  0
 36 39  1  0
 34 40  1  0
 40 41  1  0
 40 42  2  0
  4 43  2  0
 43 44  1  0
 43 45  1  0
 45 46  1  0
 45  2  2  0
 42  9  1  0
 28 12  1  0
 42 29  1  0
 26 13  1  0
M  CHG  1  27  -1
M  END
>  <UniqueID>  (24) 
22

>  <SMILES>  (24) 
COc1ccc2c(c1)/c(=N/Cc1cccs1)cc1c3cc(OC)ccc3[n-]n21

>  <Energy>  (24) 
125.58593974359326

>  <Genealogy>  (24) 
COc1ccc2c(c1)c(=NCc1cccs1)cc1c3cc(OC)ccc3[n-]n21 (protonated)
COc1ccc2c(c1)/c(=N/Cc1cccs1)cc1c3cc(OC)ccc3[n-]n21 (cis-trans isomerization)
COc1ccc2c(c1)/c(=N/Cc1cccs1)cc1c3cc(OC)ccc3[n-]n21 (3D coordinates assigned)
COc1ccc2c(c1)/c(=N/Cc1cccs1)cc1c3cc(OC)ccc3[n-]n21 (optimized conformer: 125.58593974359326 kcal/mol)

>  <smiles>  (24) 
COc1ccc2c(c1)c(=NCc1cccs1)cc1c3cc(OC)ccc3[nH]n21

>  <score_type>  (24) 
oracle

>  <origin>  (24) 
adg

>  <m_score__min__energy>  (24) 
-9.8599999999999994

>  <m_primary>  (24) 
energy

$$$$
24:0
     RDKit          3D

 40 43  0  0  0  0  0  0  0  0999 V2000
   57.7550   25.9270   43.0370 C   0  0  0  0  0  0  0  0  0  0  0  0
   58.2140   27.3720   43.2470 C   0  0  0  0  0  0  0  0  0  0  0  0
   57.1990   28.3560   42.7990 N   0  0  0  0  0  0  0  0  0  0  0  0
   56.8830   29.4340   43.7660 C   0  0  1  0  0  0  0  0  0  0  0  0
   57.4820   29.1960   45.1730 C   0  0  0  0  0  0  0  0  0  0  0  0
   58.5510   30.2920   45.3800 C   0  0  2  0  0  0  0  0  0  0  0  0
   58.3620   31.1060   46.6090 C   0  0  0  0  0  0  0  0  0  0  0  0
   58.2230   32.4210   46.2970 C   0  0  0  0  0  0  0  0  0  0  0  0
   58.7280   33.1300   47.3610 C   0  0  0  0  0  0  0  0  0  0  0  0
   59.0170   34.4840   47.5030 C   0  0  0  0  0  0  0  0  0  0  0  0
   59.6680   34.8930   48.6810 C   0  0  0  0  0  0  0  0  0  0  0  0
   60.0480   33.9450   49.6560 C   0  0  0  0  0  0  0  0  0  0  0  0
   59.7920   32.5750   49.4600 C   0  0  0  0  0  0  0  0  0  0  0  0
   59.1180   32.1910   48.2980 C   0  0  0  0  0  0  0  0  0  0  0  0
   58.9070   30.9330   47.8360 N   0  0  0  0  0  0  0  0  0  0  0  0
   59.4880   29.6990   48.3550 C   0  0  0  0  0  0  0  0  0  0  0  0
   58.2640   32.6460   44.8330 C   0  0  0  0  0  0  0  0  0  0  0  0
   58.3610   31.2740   44.3130 N   0  0  0  0  0  0  0  0  0  0  0  0
   57.4380   30.7550   43.3730 C   0  0  0  0  0  0  0  0  0  0  0  0
   57.0620   31.4020   42.3590 O   0  0  0  0  0  0  0  0  0  0  0  0
   57.6020   25.4452   44.0140 H   0  0  0  0  0  0  0  0  0  0  0  0
   56.8106   25.9206   42.4730 H   0  0  0  0  0  0  0  0  0  0  0  0
   58.5226   25.3767   42.4730 H   0  0  0  0  0  0  0  0  0  0  0  0
   58.4100   27.5287   44.3180 H   0  0  0  0  0  0  0  0  0  0  0  0
   59.1217   27.5274   42.6454 H   0  0  0  0  0  0  0  0  0  0  0  0
   56.3080   27.8440   42.5980 H   0  0  0  0  0  0  0  0  0  0  0  0
   57.4870   28.7980   41.8930 H   0  0  0  0  0  0  0  0  0  0  0  0
   55.7831   29.4249   43.7748 H   0  0  0  0  0  0  0  0  0  0  0  0
   56.6978   29.2791   45.9399 H   0  0  0  0  0  0  0  0  0  0  0  0
   57.9192   28.1901   45.2566 H   0  0  0  0  0  0  0  0  0  0  0  0
   59.5195   29.7718   45.4174 H   0  0  0  0  0  0  0  0  0  0  0  0
   58.7458   35.2090   46.7214 H   0  0  0  0  0  0  0  0  0  0  0  0
   59.8827   35.9595   48.8439 H   0  0  0  0  0  0  0  0  0  0  0  0
   60.5484   34.2801   50.5765 H   0  0  0  0  0  0  0  0  0  0  0  0
   60.1134   31.8279   50.2006 H   0  0  0  0  0  0  0  0  0  0  0  0
   59.4769   29.7226   49.4547 H   0  0  0  0  0  0  0  0  0  0  0  0
   58.8999   28.8395   48.0008 H   0  0  0  0  0  0  0  0  0  0  0  0
   60.5251   29.6047   48.0008 H   0  0  0  0  0  0  0  0  0  0  0  0
   57.3486   33.1431   44.4797 H   0  0  0  0  0  0  0  0  0  0  0  0
   59.0859   33.3013   44.5088 H   0  0  0  0  0  0  0  0  0  0  0  0
  1  2  1  0
  2  3  1  0
  3  4  1  0
  4  5  1  0
  5  6  1  0
  6  7  1  0
  7  8  2  0
  8  9  1  0
  9 10  2  0
 10 11  1  0
 11 12  2  0
 12 13  1  0
 13 14  2  0
 14 15  1  0
 15 16  1  0
  8 17  1  0
 17 18  1  0
 18 19  1  0
 19 20  2  0
 19  4  1  0
 18  6  1  0
 15  7  1  0
 14  9  1  0
  1 21  1  0
  1 22  1  0
  1 23  1  0
  2 24  1  0
  2 25  1  0
  3 26  1  0
  3 27  1  0
  4 28  1  1
  5 29  1  0
  5 30  1  0
  6 31  1  1
 10 32  1  0
 11 33  1  0
 12 34  1  0
 13 35  1  0
 16 36  1  0
 16 37  1  0
 16 38  1  0
 17 39  1  0
 17 40  1  0
M  CHG  1   3   1
M  END
>  <UniqueID>  (25) 
23

>  <SMILES>  (25) 
CC[NH2+][C@H]1C[C@@H]2c3c(c4ccccc4n3C)CN2C1=O

>  <Energy>  (25) 
118.92875695695666

>  <Genealogy>  (25) 
CC[NH2+]C1CC2c3c(c4ccccc4n3C)CN2C1=O (protonated)
CC[NH2+][C@H]1C[C@@H]2c3c(c4ccccc4n3C)CN2C1=O (chirality)
CC[NH2+][C@H]1C[C@@H]2c3c(c4ccccc4n3C)CN2C1=O (3D coordinates assigned)
CC[NH2+][C@H]1C[C@@H]2c3c(c4ccccc4n3C)CN2C1=O (nonaromatic ring conformer: 118.92875695695666 kcal/mol)

>  <smiles>  (25) 
CCNC1CC2c3c(c4ccccc4n3C)CN2C1=O

>  <score_type>  (25) 
oracle

>  <origin>  (25) 
adg

>  <m_score__min__energy>  (25) 
-5.7000000000000002

>  <m_primary>  (25) 
energy

$$$$
25:0
     RDKit          3D

 24 25  0  0  0  0  0  0  0  0999 V2000
   62.2458   31.5505   48.0690 H   0  0  0  0  0  0  0  0  0  0  0  0
   61.4100   31.9810   47.4980 C   0  0  0  0  0  0  0  0  0  0  0  0
   61.4030   33.3630   47.2080 C   0  0  0  0  0  0  0  0  0  0  0  0
   62.4750   34.1430   47.6660 O   0  0  0  0  0  0  0  0  0  0  0  0
   63.7770   33.6370   47.9390 C   0  0  0  0  0  0  0  0  0  0  0  0
   63.9270   33.5787   49.0272 H   0  0  0  0  0  0  0  0  0  0  0  0
   63.8798   32.6335   47.5004 H   0  0  0  0  0  0  0  0  0  0  0  0
   64.5305   34.3078   47.5004 H   0  0  0  0  0  0  0  0  0  0  0  0
   60.3270   33.9160   46.4740 C   0  0  0  0  0  0  0  0  0  0  0  0
   60.2984   34.9898   46.2369 H   0  0  0  0  0  0  0  0  0  0  0  0
   59.3060   33.0660   46.0600 C   0  0  0  0  0  0  0  0  0  0  0  0
   57.9210   33.4380   45.1900 S   0  0  0  0  0  0  0  0  0  0  0  0
   57.3890   31.8230   45.2060 C   0  0  0  0  0  0  0  0  0  0  0  0
   56.2790   31.3670   44.7010 N   0  0  0  0  0  0  0  0  0  0  0  0
   55.9790   30.0480   44.2160 C   0  0  0  0  0  0  0  0  0  0  0  0
   55.1610   29.3420   44.8630 O   0  0  0  0  0  0  0  0  0  0  0  0
   56.6300   29.4550   43.0040 C   0  0  0  0  0  0  0  0  0  0  0  0
   57.4096   28.7449   43.3170 H   0  0  0  0  0  0  0  0  0  0  0  0
   55.8744   28.9284   42.4026 H   0  0  0  0  0  0  0  0  0  0  0  0
   57.0840   30.2563   42.4026 H   0  0  0  0  0  0  0  0  0  0  0  0
   58.2450   31.0140   45.8750 N   0  0  0  0  0  0  0  0  0  0  0  0
   59.3130   31.7100   46.3430 C   0  0  0  0  0  0  0  0  0  0  0  0
   60.3640   31.1490   47.0670 C   0  0  0  0  0  0  0  0  0  0  0  0
   60.3738   30.0733   47.2967 H   0  0  0  0  0  0  0  0  0  0  0  0
  1  2  1  0
  2  3  2  0
  3  4  1  0
  4  5  1  0
  5  6  1  0
  5  7  1  0
  5  8  1  0
  3  9  1  0
  9 10  1  0
  9 11  2  0
 11 12  1  0
 12 13  1  0
 13 14  2  0
 14 15  1  0
 15 16  2  0
 15 17  1  0
 17 18  1  0
 17 19  1  0
 17 20  1  0
 13 21  1  0
 21 22  1  0
 22 23  2  0
 23 24  1  0
 23  2  1  0
 22 11  1  0
M  CHG  1  21  -1
M  END
>  <UniqueID>  (26) 
24

>  <SMILES>  (26) 
COc1ccc2[n-]/c(=N/C(C)=O)sc2c1

>  <Energy>  (26) 
62.93033746286211

>  <Genealogy>  (26) 
COc1ccc2[n-]c(=NC(C)=O)sc2c1 (protonated)
COc1ccc2[n-]/c(=N/C(C)=O)sc2c1 (cis-trans isomerization)
COc1ccc2[n-]/c(=N/C(C)=O)sc2c1 (3D coordinates assigned)
COc1ccc2[n-]/c(=N/C(C)=O)sc2c1 (optimized conformer: 62.93033746286211 kcal/mol)

>  <smiles>  (26) 
COc1ccc2[nH]c(=NC(C)=O)sc2c1

>  <score_type>  (26) 
oracle

>  <origin>  (26) 
adg

>  <m_score__min__energy>  (26) 
-7.46

>  <m_primary>  (26) 
energy

$$$$
26:0
     RDKit          3D

 42 44  0  0  0  0  0  0  0  0999 V2000
   60.7580   27.0210   48.8230 C   0  0  0  0  0  0  0  0  0  0  0  0
   60.3770   26.9770   47.4520 O   0  0  0  0  0  0  0  0  0  0  0  0
   59.6970   28.0090   46.7870 C   0  0  0  0  0  0  0  0  0  0  0  0
   60.3500   29.1620   46.3110 C   0  0  0  0  0  0  0  0  0  0  0  0
   59.6270   30.1610   45.6540 C   0  0  0  0  0  0  0  0  0  0  0  0
   58.2450   30.0270   45.4680 C   0  0  0  0  0  0  0  0  0  0  0  0
   57.3490   31.2810   44.6130 S   0  0  0  0  0  0  0  0  0  0  0  0
   55.9150   30.8470   44.4860 O   0  0  0  0  0  0  0  0  0  0  0  0
   57.9190   31.4630   43.2330 O   0  0  0  0  0  0  0  0  0  0  0  0
   57.4310   32.7850   45.4970 N   0  0  0  0  0  0  0  0  0  0  0  0
   57.9940   32.5440   46.8460 C   0  0  0  0  0  0  0  0  0  0  0  0
   58.5060   33.8410   47.4840 C   0  0  0  0  0  0  0  0  0  0  0  0
   59.6450   34.4720   46.6460 C   0  0  0  0  0  0  0  0  0  0  0  0
   61.0040   34.1560   47.2280 C   0  0  0  0  0  0  0  0  0  0  0  0
   62.0720   33.7680   46.4060 C   0  0  0  0  0  0  0  0  0  0  0  0
   63.2730   33.4640   46.9650 N   0  0  0  0  0  0  0  0  0  0  0  0
   63.4590   33.5240   48.3090 C   0  0  0  0  0  0  0  0  0  0  0  0
   62.3980   33.8990   49.1330 C   0  0  0  0  0  0  0  0  0  0  0  0
   61.1970   34.2030   48.5760 N   0  0  0  0  0  0  0  0  0  0  0  0
   59.5910   34.0360   45.1650 C   0  0  0  0  0  0  0  0  0  0  0  0
   58.1390   33.8260   44.7110 C   0  0  0  0  0  0  0  0  0  0  0  0
   57.5930   28.8780   45.9350 C   0  0  0  0  0  0  0  0  0  0  0  0
   58.3170   27.8770   46.5920 C   0  0  0  0  0  0  0  0  0  0  0  0
   59.8640   26.9178   49.4555 H   0  0  0  0  0  0  0  0  0  0  0  0
   61.4552   26.1974   49.0364 H   0  0  0  0  0  0  0  0  0  0  0  0
   61.2492   27.9818   49.0364 H   0  0  0  0  0  0  0  0  0  0  0  0
   61.4342   29.2769   46.4570 H   0  0  0  0  0  0  0  0  0  0  0  0
   60.1453   31.0567   45.2811 H   0  0  0  0  0  0  0  0  0  0  0  0
   57.2107   32.1152   47.4883 H   0  0  0  0  0  0  0  0  0  0  0  0
   58.8427   31.8515   46.7459 H   0  0  0  0  0  0  0  0  0  0  0  0
   57.6744   34.5576   47.5545 H   0  0  0  0  0  0  0  0  0  0  0  0
   58.9020   33.6028   48.4822 H   0  0  0  0  0  0  0  0  0  0  0  0
   59.4895   35.5602   46.6854 H   0  0  0  0  0  0  0  0  0  0  0  0
   61.9385   33.7101   45.3157 H   0  0  0  0  0  0  0  0  0  0  0  0
   64.4389   33.2787   48.7444 H   0  0  0  0  0  0  0  0  0  0  0  0
   62.5325   33.9481   50.2236 H   0  0  0  0  0  0  0  0  0  0  0  0
   60.0544   34.8156   44.5424 H   0  0  0  0  0  0  0  0  0  0  0  0
   60.1351   33.0861   45.0570 H   0  0  0  0  0  0  0  0  0  0  0  0
   57.5967   34.7768   44.8197 H   0  0  0  0  0  0  0  0  0  0  0  0
   58.1669   33.4867   43.6650 H   0  0  0  0  0  0  0  0  0  0  0  0
   56.5094   28.7627   45.7848 H   0  0  0  0  0  0  0  0  0  0  0  0
   57.7977   26.9791   46.9582 H   0  0  0  0  0  0  0  0  0  0  0  0
  1  2  1  0
  2  3  1  0
  3  4  2  0
  4  5  1  0
  5  6  2  0
  6  7  1  0
  7  8  2  0
  7  9  2  0
  7 10  1  0
 10 11  1  0
 11 12  1  0
 12 13  1  0
 13 14  1  0
 14 15  2  0
 15 16  1  0
 16 17  2  0
 17 18  1  0
 18 19  2  0
 13 20  1  0
 20 21  1  0
  6 22  1  0
 22 23  2  0
 23  3  1  0
 21 10  1  0
 19 14  1  0
  1 24  1  0
  1 25  1  0
  1 26  1  0
  4 27  1  0
  5 28  1  0
 11 29  1  0
 11 30  1  0
 12 31  1  0
 12 32  1  0
 13 33  1  0
 15 34  1  0
 17 35  1  0
 18 36  1  0
 20 37  1  0
 20 38  1  0
 21 39  1  0
 21 40  1  0
 22 41  1  0
 23 42  1  0
M  END
>  <UniqueID>  (27) 
25

>  <SMILES>  (27) 
COc1ccc(S(=O)(=O)N2CCC(c3cnccn3)CC2)cc1

>  <Energy>  (27) 
51.08729010645821

>  <Genealogy>  (27) 
COc1ccc(S(=O)(=O)N2CCC(c3cnccn3)CC2)cc1 (3D coordinates assigned)
COc1ccc(S(=O)(=O)N2CCC(c3cnccn3)CC2)cc1 (nonaromatic ring conformer: 51.08729010645821 kcal/mol)

>  <smiles>  (27) 
COc1ccc(S(=O)(=O)N2CCC(c3cnccn3)CC2)cc1

>  <score_type>  (27) 
oracle

>  <origin>  (27) 
adg

>  <m_score__min__energy>  (27) 
-8.0199999999999996

>  <m_primary>  (27) 
energy

$$$$
27:0
     RDKit          3D

 56 58  0  0  0  0  0  0  0  0999 V2000
   57.8150   27.0570   42.6130 C   0  0  0  0  0  0  0  0  0  0  0  0
   58.7320   26.9780   43.6830 O   0  0  0  0  0  0  0  0  0  0  0  0
   59.3190   28.2430   43.9210 C   0  0  0  0  0  0  0  0  0  0  0  0
   60.5200   28.1000   44.8610 C   0  0  0  0  0  0  0  0  0  0  0  0
   60.2030   27.2570   45.9690 O   0  0  0  0  0  0  0  0  0  0  0  0
   60.0600   27.6790   47.3030 C   0  0  0  0  0  0  0  0  0  0  0  0
   60.9670   27.2940   48.3140 C   0  0  0  0  0  0  0  0  0  0  0  0
   60.7980   27.7450   49.6240 C   0  0  0  0  0  0  0  0  0  0  0  0
   59.7330   28.5860   49.9450 C   0  0  0  0  0  0  0  0  0  0  0  0
   58.8340   28.9820   48.9540 C   0  0  0  0  0  0  0  0  0  0  0  0
   58.9870   28.5310   47.6340 C   0  0  0  0  0  0  0  0  0  0  0  0
   58.0530   29.0200   46.5950 C   0  0  0  0  0  0  0  0  0  0  0  0
   57.0180   28.2880   46.0050 C   0  0  0  0  0  0  0  0  0  0  0  0
   56.6320   26.8830   46.2960 C   0  0  0  0  0  0  0  0  0  0  0  0
   55.4080   26.5800   46.3320 O   0  0  0  0  0  0  0  0  0  0  0  0
   57.6610   25.7910   46.4870 C   0  0  0  0  0  0  0  0  0  0  0  0
   57.6410   24.8390   45.2880 C   0  0  0  0  0  0  0  0  0  0  0  0
   57.4230   25.0220   47.7920 C   0  0  0  0  0  0  0  0  0  0  0  0
   56.3750   29.1850   45.1590 C   0  0  0  0  0  0  0  0  0  0  0  0
   55.2530   28.9480   44.3780 O   0  0  0  0  0  0  0  0  0  0  0  0
   57.0330   30.3870   45.2520 C   0  0  0  0  0  0  0  0  0  0  0  0
   56.7030   31.5260   44.5210 O   0  0  0  0  0  0  0  0  0  0  0  0
   58.0510   30.2950   46.1310 N   0  0  0  0  0  0  0  0  0  0  0  0
   58.9650   31.3430   46.4970 C   0  0  0  0  0  0  0  0  0  0  0  0
   58.4960   32.6480   46.7090 C   0  0  0  0  0  0  0  0  0  0  0  0
   59.3770   33.6560   47.1090 C   0  0  0  0  0  0  0  0  0  0  0  0
   60.7300   33.3690   47.3040 C   0  0  0  0  0  0  0  0  0  0  0  0
   61.2160   32.0710   47.0820 C   0  0  0  0  0  0  0  0  0  0  0  0
   62.6590   31.7480   47.3370 C   0  0  0  0  0  0  0  0  0  0  0  0
   60.3260   31.0580   46.6920 C   0  0  0  0  0  0  0  0  0  0  0  0
   56.7934   27.1450   43.0113 H   0  0  0  0  0  0  0  0  0  0  0  0
   58.0455   27.9386   41.9969 H   0  0  0  0  0  0  0  0  0  0  0  0
   57.8913   26.1490   41.9969 H   0  0  0  0  0  0  0  0  0  0  0  0
   59.6543   28.6736   42.9659 H   0  0  0  0  0  0  0  0  0  0  0  0
   58.5733   28.9026   44.3889 H   0  0  0  0  0  0  0  0  0  0  0  0
   61.3622   27.6624   44.3050 H   0  0  0  0  0  0  0  0  0  0  0  0
   60.7876   29.0962   45.2430 H   0  0  0  0  0  0  0  0  0  0  0  0
   61.8122   26.6344   48.0678 H   0  0  0  0  0  0  0  0  0  0  0  0
   61.5073   27.4360   50.4059 H   0  0  0  0  0  0  0  0  0  0  0  0
   59.6016   28.9371   50.9791 H   0  0  0  0  0  0  0  0  0  0  0  0
   57.9999   29.6521   49.2092 H   0  0  0  0  0  0  0  0  0  0  0  0
   58.6535   26.2604   46.5551 H   0  0  0  0  0  0  0  0  0  0  0  0
   57.6192   23.7991   45.6458 H   0  0  0  0  0  0  0  0  0  0  0  0
   56.7468   25.0359   44.6784 H   0  0  0  0  0  0  0  0  0  0  0  0
   58.5427   24.9981   44.6784 H   0  0  0  0  0  0  0  0  0  0  0  0
   57.6271   25.6813   48.6485 H   0  0  0  0  0  0  0  0  0  0  0  0
   56.3776   24.6820   47.8318 H   0  0  0  0  0  0  0  0  0  0  0  0
   58.0936   24.1510   47.8318 H   0  0  0  0  0  0  0  0  0  0  0  0
   56.0050   31.5080   43.7880 H   0  0  0  0  0  0  0  0  0  0  0  0
   57.4308   32.8785   46.5598 H   0  0  0  0  0  0  0  0  0  0  0  0
   59.0041   34.6782   47.2708 H   0  0  0  0  0  0  0  0  0  0  0  0
   61.4169   34.1628   47.6326 H   0  0  0  0  0  0  0  0  0  0  0  0
   62.8396   31.7076   48.4213 H   0  0  0  0  0  0  0  0  0  0  0  0
   62.9014   30.7734   46.8883 H   0  0  0  0  0  0  0  0  0  0  0  0
   63.2938   32.5263   46.8883 H   0  0  0  0  0  0  0  0  0  0  0  0
   60.6973   30.0340   46.5381 H   0  0  0  0  0  0  0  0  0  0  0  0
  1  2  1  0
  2  3  1  0
  3  4  1  0
  4  5  1  0
  5  6  1  0
  6  7  2  0
  7  8  1  0
  8  9  2  0
  9 10  1  0
 10 11  2  0
 11 12  1  0
 12 13  2  0
 13 14  1  0
 14 15  2  0
 14 16  1  0
 16 17  1  0
 16 18  1  0
 13 19  1  0
 19 20  1  0
 19 21  2  0
 21 22  1  0
 21 23  1  0
 23 24  1  0
 24 25  2  0
 25 26  1  0
 26 27  2  0
 27 28  1  0
 28 29  1  0
 28 30  2  0
 11  6  1  0
 23 12  1  0
 30 24  1  0
  1 31  1  0
  1 32  1  0
  1 33  1  0
  3 34  1  0
  3 35  1  0
  4 36  1  0
  4 37  1  0
  7 38  1  0
  8 39  1  0
  9 40  1  0
 10 41  1  0
 16 42  1  0
 17 43  1  0
 17 44  1  0
 17 45  1  0
 18 46  1  0
 18 47  1  0
 18 48  1  0
 22 49  1  0
 25 50  1  0
 26 51  1  0
 27 52  1  0
 29 53  1  0
 29 54  1  0
 29 55  1  0
 30 56  1  0
M  CHG  1  20  -1
M  END
>  <UniqueID>  (28) 
26

>  <SMILES>  (28) 
COCCOc1ccccc1-c1c(C(=O)C(C)C)c([O-])c(O)n1-c1cccc(C)c1

>  <Energy>  (28) 
93.98935758849564

>  <Genealogy>  (28) 
COCCOc1ccccc1-c1c(C(=O)C(C)C)c([O-])c(O)n1-c1cccc(C)c1 (protonated)
COCCOc1ccccc1-c1c(C(=O)C(C)C)c([O-])c(O)n1-c1cccc(C)c1 (3D coordinates assigned)
COCCOc1ccccc1-c1c(C(=O)C(C)C)c([O-])c(O)n1-c1cccc(C)c1 (optimized conformer: 93.98935758849564 kcal/mol)

>  <smiles>  (28) 
COCCOc1ccccc1-c1c(C(=O)C(C)C)c(O)c(O)n1-c1cccc(C)c1

>  <score_type>  (28) 
oracle

>  <origin>  (28) 
adg

>  <m_score__min__energy>  (28) 
-10.69

>  <m_primary>  (28) 
energy

$$$$
28:0
     RDKit          3D

 41 43  0  0  0  0  0  0  0  0999 V2000
   56.6430   26.3610   46.0220 C   0  0  0  0  0  0  0  0  0  0  0  0
   55.9150   27.5180   45.6200 O   0  0  0  0  0  0  0  0  0  0  0  0
   56.5050   28.7190   45.1970 C   0  0  0  0  0  0  0  0  0  0  0  0
   55.7200   29.6290   44.4790 C   0  0  0  0  0  0  0  0  0  0  0  0
   56.2620   30.8380   44.0340 C   0  0  0  0  0  0  0  0  0  0  0  0
   57.6000   31.1590   44.3120 C   0  0  0  0  0  0  0  0  0  0  0  0
   58.1960   32.4430   43.8010 C   0  0  0  0  0  0  0  0  0  0  0  0
   58.1030   33.5420   44.8610 C   0  0  0  0  0  0  0  0  0  0  0  0
   58.6180   33.0380   46.1410 N   0  0  0  0  0  0  0  0  0  0  0  0
   59.0610   34.1210   47.0420 C   0  0  1  0  0  0  0  0  0  0  0  0
   59.2160   33.6600   48.5190 C   0  0  0  0  0  0  0  0  0  0  0  0
   60.3180   32.6010   48.7120 C   0  0  0  0  0  0  0  0  0  0  0  0
   61.5290   32.9480   47.9020 C   0  0  0  0  0  0  0  0  0  0  0  0
   62.7410   32.3670   48.0380 N   0  0  0  0  0  0  0  0  0  0  0  0
   63.4610   32.9790   47.0670 C   0  0  0  0  0  0  0  0  0  0  0  0
   62.7210   33.8680   46.3760 N   0  0  0  0  0  0  0  0  0  0  0  0
   61.5100   33.8290   46.8910 N   0  0  0  0  0  0  0  0  0  0  0  0
   60.3940   34.7020   46.5280 C   0  0  0  0  0  0  0  0  0  0  0  0
   58.3930   30.2440   45.0230 C   0  0  0  0  0  0  0  0  0  0  0  0
   57.8500   29.0350   45.4690 C   0  0  0  0  0  0  0  0  0  0  0  0
   56.6745   26.3109   47.1204 H   0  0  0  0  0  0  0  0  0  0  0  0
   56.1481   25.4611   45.6280 H   0  0  0  0  0  0  0  0  0  0  0  0
   57.6684   26.4178   45.6280 H   0  0  0  0  0  0  0  0  0  0  0  0
   54.6680   29.3906   44.2633 H   0  0  0  0  0  0  0  0  0  0  0  0
   55.6374   31.5411   43.4634 H   0  0  0  0  0  0  0  0  0  0  0  0
   59.2530   32.2746   43.5473 H   0  0  0  0  0  0  0  0  0  0  0  0
   57.6358   32.7628   42.9100 H   0  0  0  0  0  0  0  0  0  0  0  0
   58.7000   34.4092   44.5423 H   0  0  0  0  0  0  0  0  0  0  0  0
   57.0521   33.8429   44.9835 H   0  0  0  0  0  0  0  0  0  0  0  0
   57.8820   32.4540   46.6020 H   0  0  0  0  0  0  0  0  0  0  0  0
   58.2768   34.8923   47.0344 H   0  0  0  0  0  0  0  0  0  0  0  0
   59.4626   34.5374   49.1350 H   0  0  0  0  0  0  0  0  0  0  0  0
   58.2635   33.1988   48.8191 H   0  0  0  0  0  0  0  0  0  0  0  0
   60.5948   32.5568   49.7757 H   0  0  0  0  0  0  0  0  0  0  0  0
   59.9352   31.6253   48.3781 H   0  0  0  0  0  0  0  0  0  0  0  0
   64.5231   32.7745   46.8667 H   0  0  0  0  0  0  0  0  0  0  0  0
   63.0340   34.4900   45.5980 H   0  0  0  0  0  0  0  0  0  0  0  0
   60.5517   35.6949   46.9744 H   0  0  0  0  0  0  0  0  0  0  0  0
   60.3473   34.7808   45.4318 H   0  0  0  0  0  0  0  0  0  0  0  0
   59.4473   30.4795   45.2303 H   0  0  0  0  0  0  0  0  0  0  0  0
   58.4756   28.3285   46.0342 H   0  0  0  0  0  0  0  0  0  0  0  0
  1  2  1  0
  2  3  1  0
  3  4  2  0
  4  5  1  0
  5  6  2  0
  6  7  1  0
  7  8  1  0
  8  9  1  0
  9 10  1  0
 10 11  1  0
 11 12  1  0
 12 13  1  0
 13 14  2  0
 14 15  1  0
 15 16  2  0
 16 17  1  0
 17 18  1  0
  6 19  1  0
 19 20  2  0
 20  3  1  0
 18 10  1  0
 17 13  1  0
  1 21  1  0
  1 22  1  0
  1 23  1  0
  4 24  1  0
  5 25  1  0
  7 26  1  0
  7 27  1  0
  8 28  1  0
  8 29  1  0
  9 30  1  0
 10 31  1  1
 11 32  1  0
 11 33  1  0
 12 34  1  0
 12 35  1  0
 15 36  1  0
 16 37  1  0
 18 38  1  0
 18 39  1  0
 19 40  1  0
 20 41  1  0
M  CHG  1  16   1
M  END
>  <UniqueID>  (29) 
27

>  <SMILES>  (29) 
COc1ccc(CCN[C@H]2CCc3nc[nH+]n3C2)cc1

>  <Energy>  (29) 
73.40932071565969

>  <Genealogy>  (29) 
COc1ccc(CCNC2CCc3nc[nH+]n3C2)cc1 (protonated)
COc1ccc(CCN[C@H]2CCc3nc[nH+]n3C2)cc1 (chirality)
COc1ccc(CCN[C@H]2CCc3nc[nH+]n3C2)cc1 (3D coordinates assigned)
COc1ccc(CCN[C@H]2CCc3nc[nH+]n3C2)cc1 (nonaromatic ring conformer: 73.40932071565969 kcal/mol)

>  <smiles>  (29) 
COc1ccc(CCNC2CCc3ncnn3C2)cc1

>  <score_type>  (29) 
oracle

>  <origin>  (29) 
adg

>  <m_score__min__energy>  (29) 
-5.8099999999999996

>  <m_primary>  (29) 
energy

$$$$
29:0
     RDKit          3D

 51 54  0  0  0  0  0  0  0  0999 V2000
   57.8040   26.2660   44.4580 C   0  0  0  0  0  0  0  0  0  0  0  0
   58.4100   26.3130   45.7450 O   0  0  0  0  0  0  0  0  0  0  0  0
   58.6650   27.4940   46.4580 C   0  0  0  0  0  0  0  0  0  0  0  0
   59.0470   27.4900   47.8100 C   0  0  0  0  0  0  0  0  0  0  0  0
   59.2900   28.6910   48.4780 C   0  0  0  0  0  0  0  0  0  0  0  0
   59.1540   29.9170   47.8070 C   0  0  0  0  0  0  0  0  0  0  0  0
   59.4050   31.1140   48.4830 C   0  0  0  0  0  0  0  0  0  0  0  0
   59.2790   32.3570   47.8400 C   0  0  0  0  0  0  0  0  0  0  0  0
   59.6310   33.5890   48.6540 C   0  0  0  0  0  0  0  0  0  0  0  0
   60.9610   33.4410   49.4280 C   0  0  0  0  0  0  0  0  0  0  0  0
   62.1430   33.2660   48.5410 N   0  0  0  0  0  0  0  0  0  0  0  0
   62.4590   31.8250   48.3680 C   0  0  0  0  0  0  0  0  0  0  0  0
   63.3930   31.5560   47.1640 C   0  0  0  0  0  0  0  0  0  0  0  0
   64.1310   32.7600   46.7670 N   0  0  0  0  0  0  0  0  0  0  0  0
   63.2210   33.8500   46.3740 C   0  0  0  0  0  0  0  0  0  0  0  0
   61.9270   33.8860   47.2160 C   0  0  0  0  0  0  0  0  0  0  0  0
   58.8910   32.3930   46.4700 C   0  0  0  0  0  0  0  0  0  0  0  0
   58.7480   33.5960   45.7450 C   0  0  0  0  0  0  0  0  0  0  0  0
   58.3840   33.5760   44.3990 C   0  0  0  0  0  0  0  0  0  0  0  0
   58.1530   32.3560   43.7660 C   0  0  0  0  0  0  0  0  0  0  0  0
   57.7650   32.3120   42.3230 C   0  0  0  0  0  0  0  0  0  0  0  0
   58.2860   31.2020   44.4660 N   0  0  0  0  0  0  0  0  0  0  0  0
   58.6420   31.1740   45.7820 C   0  0  0  0  0  0  0  0  0  0  0  0
   58.7720   29.9370   46.4490 C   0  0  0  0  0  0  0  0  0  0  0  0
   58.5300   28.7150   45.7870 C   0  0  0  0  0  0  0  0  0  0  0  0
   56.7129   26.1814   44.5693 H   0  0  0  0  0  0  0  0  0  0  0  0
   58.0459   27.1856   43.9050 H   0  0  0  0  0  0  0  0  0  0  0  0
   58.1848   25.3947   43.9050 H   0  0  0  0  0  0  0  0  0  0  0  0
   59.1552   26.5350   48.3450 H   0  0  0  0  0  0  0  0  0  0  0  0
   59.5898   28.6771   49.5363 H   0  0  0  0  0  0  0  0  0  0  0  0
   59.7074   31.0825   49.5401 H   0  0  0  0  0  0  0  0  0  0  0  0
   59.7160   34.4476   47.9717 H   0  0  0  0  0  0  0  0  0  0  0  0
   58.8321   33.7325   49.3964 H   0  0  0  0  0  0  0  0  0  0  0  0
   61.1126   34.3443   50.0372 H   0  0  0  0  0  0  0  0  0  0  0  0
   60.8795   32.5336   50.0444 H   0  0  0  0  0  0  0  0  0  0  0  0
   62.9740   33.7150   48.9920 H   0  0  0  0  0  0  0  0  0  0  0  0
   62.9505   31.4608   49.2822 H   0  0  0  0  0  0  0  0  0  0  0  0
   61.5121   31.2991   48.1764 H   0  0  0  0  0  0  0  0  0  0  0  0
   64.1133   30.7719   47.4404 H   0  0  0  0  0  0  0  0  0  0  0  0
   62.7715   31.2400   46.3132 H   0  0  0  0  0  0  0  0  0  0  0  0
   64.7230   33.0750   47.5720 H   0  0  0  0  0  0  0  0  0  0  0  0
   63.7470   34.8081   46.4978 H   0  0  0  0  0  0  0  0  0  0  0  0
   62.9292   33.6752   45.3279 H   0  0  0  0  0  0  0  0  0  0  0  0
   61.6160   34.9321   47.3541 H   0  0  0  0  0  0  0  0  0  0  0  0
   61.1466   33.3203   46.6860 H   0  0  0  0  0  0  0  0  0  0  0  0
   58.9255   34.5586   46.2469 H   0  0  0  0  0  0  0  0  0  0  0  0
   58.2798   34.5177   43.8401 H   0  0  0  0  0  0  0  0  0  0  0  0
   56.6751   32.1884   42.2400 H   0  0  0  0  0  0  0  0  0  0  0  0
   58.0660   33.2500   41.8336 H   0  0  0  0  0  0  0  0  0  0  0  0
   58.2684   31.4652   41.8336 H   0  0  0  0  0  0  0  0  0  0  0  0
   58.2310   28.7218   44.7284 H   0  0  0  0  0  0  0  0  0  0  0  0
  1  2  1  0
  2  3  1  0
  3  4  2  0
  4  5  1  0
  5  6  2  0
  6  7  1  0
  7  8  2  0
  8  9  1  0
  9 10  1  0
 10 11  1  0
 11 12  1  0
 12 13  1  0
 13 14  1  0
 14 15  1  0
 15 16  1  0
  8 17  1  0
 17 18  2  0
 18 19  1  0
 19 20  2  0
 20 21  1  0
 20 22  1  0
 22 23  2  0
 23 24  1  0
 24 25  2  0
 25  3  1  0
 24  6  1  0
 16 11  1  0
 23 17  1  0
  1 26  1  0
  1 27  1  0
  1 28  1  0
  4 29  1  0
  5 30  1  0
  7 31  1  0
  9 32  1  0
  9 33  1  0
 10 34  1  0
 10 35  1  0
 11 36  1  0
 12 37  1  0
 12 38  1  0
 13 39  1  0
 13 40  1  0
 14 41  1  0
 15 42  1  0
 15 43  1  0
 16 44  1  0
 16 45  1  0
 18 46  1  0
 19 47  1  0
 21 48  1  0
 21 49  1  0
 21 50  1  0
 25 51  1  0
M  CHG  1  11   1
M  END
>  <UniqueID>  (30) 
28

>  <SMILES>  (30) 
COc1ccc2cc(CC[NH+]3CCNCC3)c3ccc(C)nc3c2c1

>  <Energy>  (30) 
71.86606642678603

>  <Genealogy>  (30) 
COc1ccc2cc(CC[NH+]3CCNCC3)c3ccc(C)nc3c2c1 (protonated)
COc1ccc2cc(CC[NH+]3CCNCC3)c3ccc(C)nc3c2c1 (3D coordinates assigned)
COc1ccc2cc(CC[NH+]3CCNCC3)c3ccc(C)nc3c2c1 (nonaromatic ring conformer: 71.86606642678603 kcal/mol)

>  <smiles>  (30) 
COc1ccc2cc(CCN3CCNCC3)c3ccc(C)nc3c2c1

>  <score_type>  (30) 
oracle

>  <origin>  (30) 
adg

>  <m_score__min__energy>  (30) 
-6.4000000000000004

>  <m_primary>  (30) 
energy

$$$$
30:0
     RDKit          3D

 42 44  0  0  0  0  0  0  0  0999 V2000
   58.0680   32.8000   43.7990 C   0  0  0  0  0  0  0  0  0  0  0  0
   58.9560   33.8400   44.4790 C   0  0  0  0  0  0  0  0  0  0  0  0
   58.4500   34.1580   45.8320 N   0  0  0  0  0  0  0  0  0  0  0  0
   57.1690   33.4730   46.0690 C   0  0  0  0  0  0  0  0  0  0  0  0
   59.4330   33.8310   46.8940 C   0  0  0  0  0  0  0  0  0  0  0  0
   59.0200   32.5420   47.6080 C   0  0  0  0  0  0  0  0  0  0  0  0
   59.6630   31.3730   46.9950 N   0  0  0  0  0  0  0  0  0  0  0  0
   60.9960   31.1410   46.8200 C   0  0  0  0  0  0  0  0  0  0  0  0
   62.0340   31.9740   47.3500 N   0  0  0  0  0  0  0  0  0  0  0  0
   62.5260   33.0910   46.7770 C   0  0  0  0  0  0  0  0  0  0  0  0
   63.5640   33.6130   47.4660 N   0  0  0  0  0  0  0  0  0  0  0  0
   63.7150   32.7740   48.5110 C   0  0  0  0  0  0  0  0  0  0  0  0
   64.8140   32.8830   49.5140 C   0  0  0  0  0  0  0  0  0  0  0  0
   62.7960   31.7510   48.4340 C   0  0  0  0  0  0  0  0  0  0  0  0
   61.2650   30.0920   45.9990 N   0  0  0  0  0  0  0  0  0  0  0  0
   60.0420   29.6530   45.6630 C   0  0  0  0  0  0  0  0  0  0  0  0
   59.7300   28.6060   44.7980 C   0  0  0  0  0  0  0  0  0  0  0  0
   58.3720   28.3570   44.5330 C   0  0  0  0  0  0  0  0  0  0  0  0
   57.3680   29.1560   45.1250 C   0  0  0  0  0  0  0  0  0  0  0  0
   56.0630   28.9120   44.8520 F   0  0  0  0  0  0  0  0  0  0  0  0
   57.7160   30.2100   45.9910 C   0  0  0  0  0  0  0  0  0  0  0  0
   59.0750   30.4210   46.2450 C   0  0  0  0  0  0  0  0  0  0  0  0
   57.5550   32.1992   44.5644 H   0  0  0  0  0  0  0  0  0  0  0  0
   57.3217   33.3091   43.1714 H   0  0  0  0  0  0  0  0  0  0  0  0
   58.6878   32.1427   43.1714 H   0  0  0  0  0  0  0  0  0  0  0  0
   59.9787   33.4433   44.5604 H   0  0  0  0  0  0  0  0  0  0  0  0
   58.9491   34.7591   43.8747 H   0  0  0  0  0  0  0  0  0  0  0  0
   56.9971   33.3811   47.1516 H   0  0  0  0  0  0  0  0  0  0  0  0
   56.3527   34.0550   45.6163 H   0  0  0  0  0  0  0  0  0  0  0  0
   57.1998   32.4710   45.6163 H   0  0  0  0  0  0  0  0  0  0  0  0
   60.4265   33.6951   46.4419 H   0  0  0  0  0  0  0  0  0  0  0  0
   59.4653   34.6541   47.6230 H   0  0  0  0  0  0  0  0  0  0  0  0
   59.3189   32.6043   48.6648 H   0  0  0  0  0  0  0  0  0  0  0  0
   57.9293   32.4276   47.5227 H   0  0  0  0  0  0  0  0  0  0  0  0
   62.1261   33.5289   45.8505 H   0  0  0  0  0  0  0  0  0  0  0  0
   64.3903   32.8410   50.5282 H   0  0  0  0  0  0  0  0  0  0  0  0
   65.5197   32.0504   49.3766 H   0  0  0  0  0  0  0  0  0  0  0  0
   65.3424   33.8380   49.3766 H   0  0  0  0  0  0  0  0  0  0  0  0
   62.7029   30.9061   49.1321 H   0  0  0  0  0  0  0  0  0  0  0  0
   60.5201   27.9946   44.3378 H   0  0  0  0  0  0  0  0  0  0  0  0
   58.0889   27.5343   43.8600 H   0  0  0  0  0  0  0  0  0  0  0  0
   56.9456   30.8456   46.4520 H   0  0  0  0  0  0  0  0  0  0  0  0
  1  2  1  0
  2  3  1  0
  3  4  1  0
  3  5  1  0
  5  6  1  0
  6  7  1  0
  7  8  1  0
  8  9  1  0
  9 10  1  0
 10 11  2  0
 11 12  1  0
 12 13  1  0
 12 14  2  0
  8 15  2  0
 15 16  1  0
 16 17  2  0
 17 18  1  0
 18 19  2  0
 19 20  1  0
 19 21  1  0
 21 22  2  0
 22  7  1  0
 14  9  1  0
 22 16  1  0
  1 23  1  0
  1 24  1  0
  1 25  1  0
  2 26  1  0
  2 27  1  0
  4 28  1  0
  4 29  1  0
  4 30  1  0
  5 31  1  0
  5 32  1  0
  6 33  1  0
  6 34  1  0
 10 35  1  0
 13 36  1  0
 13 37  1  0
 13 38  1  0
 14 39  1  0
 17 40  1  0
 18 41  1  0
 21 42  1  0
M  END
>  <UniqueID>  (31) 
29

>  <SMILES>  (31) 
CCN(C)CCn1c(-n2cnc(C)c2)nc2ccc(F)cc21

>  <Energy>  (31) 
110.53380848540428

>  <Genealogy>  (31) 
CCN(C)CCn1c(-n2cnc(C)c2)nc2ccc(F)cc21 (3D coordinates assigned)
CCN(C)CCn1c(-n2cnc(C)c2)nc2ccc(F)cc21 (optimized conformer: 110.53380848540428 kcal/mol)

>  <smiles>  (31) 
CCN(C)CCn1c(-n2cnc(C)c2)nc2ccc(F)cc21

>  <score_type>  (31) 
oracle

>  <origin>  (31) 
adg

>  <m_score__min__energy>  (31) 
-6.0199999999999996

>  <m_primary>  (31) 
energy

$$$$
31:0
     RDKit          3D

 32 33  0  0  0  0  0  0  0  0999 V2000
   55.1320   24.9190   45.7050 C   0  0  0  0  0  0  0  0  0  0  0  0
   55.4210   26.1890   46.2750 O   0  0  0  0  0  0  0  0  0  0  0  0
   56.3150   27.0770   45.6800 C   0  0  0  0  0  0  0  0  0  0  0  0
   55.9970   28.2730   45.2440 O   0  0  0  0  0  0  0  0  0  0  0  0
   57.0770   28.8250   44.7330 C   0  0  0  0  0  0  0  0  0  0  0  0
   57.0740   30.1550   44.0930 C   0  0  0  0  0  0  0  0  0  0  0  0
   56.7960   30.1920   42.8610 O   0  0  0  0  0  0  0  0  0  0  0  0
   57.1810   31.3890   44.8630 N   0  0  0  0  0  0  0  0  0  0  0  0
   57.5680   32.5270   43.9990 C   0  0  0  0  0  0  0  0  0  0  0  0
   57.7370   33.8090   44.8230 C   0  0  0  0  0  0  0  0  0  0  0  0
   58.7220   33.6260   45.8170 O   0  0  0  0  0  0  0  0  0  0  0  0
   58.3100   32.6100   46.7100 C   0  0  0  0  0  0  0  0  0  0  0  0
   58.1400   31.2670   45.9810 C   0  0  0  0  0  0  0  0  0  0  0  0
   58.1470   27.9490   44.8220 C   0  0  0  0  0  0  0  0  0  0  0  0
   57.6540   26.8280   45.4580 C   0  0  0  0  0  0  0  0  0  0  0  0
   58.3900   25.5530   45.7070 C   0  0  0  0  0  0  0  0  0  0  0  0
   54.9652   24.1860   46.5081 H   0  0  0  0  0  0  0  0  0  0  0  0
   54.2278   24.9935   45.0830 H   0  0  0  0  0  0  0  0  0  0  0  0
   55.9794   24.5949   45.0830 H   0  0  0  0  0  0  0  0  0  0  0  0
   56.2300   31.5880   45.2570 H   0  0  0  0  0  0  0  0  0  0  0  0
   58.5195   32.2923   43.4995 H   0  0  0  0  0  0  0  0  0  0  0  0
   56.7731   32.6897   43.2563 H   0  0  0  0  0  0  0  0  0  0  0  0
   58.0411   34.6306   44.1577 H   0  0  0  0  0  0  0  0  0  0  0  0
   56.7799   34.0514   45.3080 H   0  0  0  0  0  0  0  0  0  0  0  0
   59.0676   32.4968   47.4994 H   0  0  0  0  0  0  0  0  0  0  0  0
   57.3404   32.8976   47.1427 H   0  0  0  0  0  0  0  0  0  0  0  0
   59.1150   30.9466   45.5852 H   0  0  0  0  0  0  0  0  0  0  0  0
   57.7523   30.5266   46.6962 H   0  0  0  0  0  0  0  0  0  0  0  0
   59.1733   28.1127   44.4616 H   0  0  0  0  0  0  0  0  0  0  0  0
   58.4843   25.3897   46.7907 H   0  0  0  0  0  0  0  0  0  0  0  0
   57.8361   24.7160   45.2569 H   0  0  0  0  0  0  0  0  0  0  0  0
   59.3918   25.6140   45.2569 H   0  0  0  0  0  0  0  0  0  0  0  0
  1  2  1  0
  2  3  1  0
  3  4  1  0
  4  5  1  0
  5  6  1  0
  6  7  2  0
  6  8  1  0
  8  9  1  0
  9 10  1  0
 10 11  1  0
 11 12  1  0
 12 13  1  0
  5 14  2  0
 14 15  1  0
 15 16  1  0
 15  3  2  0
 13  8  1  0
  1 17  1  0
  1 18  1  0
  1 19  1  0
  8 20  1  0
  9 21  1  0
  9 22  1  0
 10 23  1  0
 10 24  1  0
 12 25  1  0
 12 26  1  0
 13 27  1  0
 13 28  1  0
 14 29  1  0
 16 30  1  0
 16 31  1  0
 16 32  1  0
M  CHG  1   8   1
M  END
>  <UniqueID>  (32) 
30

>  <SMILES>  (32) 
COc1oc(C(=O)[NH+]2CCOCC2)cc1C

>  <Energy>  (32) 
68.197105321548

>  <Genealogy>  (32) 
COc1oc(C(=O)[NH+]2CCOCC2)cc1C (protonated)
COc1oc(C(=O)[NH+]2CCOCC2)cc1C (3D coordinates assigned)
COc1oc(C(=O)[NH+]2CCOCC2)cc1C (nonaromatic ring conformer: 68.197105321548 kcal/mol)

>  <smiles>  (32) 
COc1oc(C(=O)N2CCOCC2)cc1C

>  <score_type>  (32) 
oracle

>  <origin>  (32) 
adg

>  <m_score__min__energy>  (32) 
-4.3399999999999999

>  <m_primary>  (32) 
energy

$$$$
32:0
     RDKit          3D

 59 61  0  0  0  0  0  0  0  0999 V2000
   59.6500   34.2220   49.5240 C   0  0  0  0  0  0  0  0  0  0  0  0
   59.6810   32.9040   50.2900 C   0  0  0  0  0  0  0  0  0  0  0  0
   59.6170   31.7760   49.3510 N   0  0  0  0  0  0  0  0  0  0  0  0
   60.5550   30.7080   49.7310 C   0  0  0  0  0  0  0  0  0  0  0  0
   61.8220   31.3060   50.3540 C   0  0  0  0  0  0  0  0  0  0  0  0
   62.9140   31.5190   49.2920 C   0  0  0  0  0  0  0  0  0  0  0  0
   63.6860   32.7600   49.5350 N   0  0  0  0  0  0  0  0  0  0  0  0
   62.9250   33.8550   50.1890 C   0  0  0  0  0  0  0  0  0  0  0  0
   63.6680   34.5430   51.3440 C   0  0  0  0  0  0  0  0  0  0  0  0
   64.4070   33.2180   48.3240 C   0  0  0  0  0  0  0  0  0  0  0  0
   63.6350   32.8180   47.0620 C   0  0  0  0  0  0  0  0  0  0  0  0
   62.5020   33.8030   46.7480 C   0  0  0  0  0  0  0  0  0  0  0  0
   61.2150   33.2610   47.1860 N   0  0  0  0  0  0  0  0  0  0  0  0
   60.0010   33.2990   46.4030 C   0  0  0  0  0  0  0  0  0  0  0  0
   59.5020   34.5140   45.8940 C   0  0  0  0  0  0  0  0  0  0  0  0
   58.3280   34.5400   45.1400 C   0  0  0  0  0  0  0  0  0  0  0  0
   57.6320   33.3610   44.8760 C   0  0  0  0  0  0  0  0  0  0  0  0
   58.1070   32.1330   45.3660 C   0  0  0  0  0  0  0  0  0  0  0  0
   57.4190   30.9280   45.1190 C   0  0  0  0  0  0  0  0  0  0  0  0
   56.3520   30.9320   44.4400 O   0  0  0  0  0  0  0  0  0  0  0  0
   57.9240   29.7190   45.6320 C   0  0  0  0  0  0  0  0  0  0  0  0
   57.2720   28.4890   45.4180 C   0  0  0  0  0  0  0  0  0  0  0  0
   57.8010   27.3100   45.9520 C   0  0  0  0  0  0  0  0  0  0  0  0
   58.9810   27.3440   46.6990 C   0  0  0  0  0  0  0  0  0  0  0  0
   59.6390   28.5580   46.9170 C   0  0  0  0  0  0  0  0  0  0  0  0
   59.1180   29.7440   46.3890 C   0  0  0  0  0  0  0  0  0  0  0  0
   59.7590   30.9190   46.6120 N   0  0  0  0  0  0  0  0  0  0  0  0
   59.2990   32.1040   46.1290 C   0  0  0  0  0  0  0  0  0  0  0  0
   59.6303   35.0598   50.2365 H   0  0  0  0  0  0  0  0  0  0  0  0
   60.5466   34.2996   48.8914 H   0  0  0  0  0  0  0  0  0  0  0  0
   58.7508   34.2574   48.8914 H   0  0  0  0  0  0  0  0  0  0  0  0
   60.6130   32.8420   50.8709 H   0  0  0  0  0  0  0  0  0  0  0  0
   58.8156   32.8595   50.9676 H   0  0  0  0  0  0  0  0  0  0  0  0
   59.9040   32.1310   48.4090 H   0  0  0  0  0  0  0  0  0  0  0  0
   60.0708   30.0434   50.4616 H   0  0  0  0  0  0  0  0  0  0  0  0
   60.8336   30.1408   48.8306 H   0  0  0  0  0  0  0  0  0  0  0  0
   61.5739   32.2742   50.8133 H   0  0  0  0  0  0  0  0  0  0  0  0
   62.2032   30.6051   51.1113 H   0  0  0  0  0  0  0  0  0  0  0  0
   63.6029   30.6617   49.3133 H   0  0  0  0  0  0  0  0  0  0  0  0
   62.4233   31.6090   48.3116 H   0  0  0  0  0  0  0  0  0  0  0  0
   62.6932   34.6148   49.4281 H   0  0  0  0  0  0  0  0  0  0  0  0
   62.0255   33.3953   50.6244 H   0  0  0  0  0  0  0  0  0  0  0  0
   63.2732   34.1774   52.3034 H   0  0  0  0  0  0  0  0  0  0  0  0
   64.7417   34.3131   51.2779 H   0  0  0  0  0  0  0  0  0  0  0  0
   63.5212   35.6312   51.2779 H   0  0  0  0  0  0  0  0  0  0  0  0
   64.5094   34.3128   48.3550 H   0  0  0  0  0  0  0  0  0  0  0  0
   65.4008   32.7470   48.2998 H   0  0  0  0  0  0  0  0  0  0  0  0
   64.3319   32.7948   46.2113 H   0  0  0  0  0  0  0  0  0  0  0  0
   63.1877   31.8282   47.2355 H   0  0  0  0  0  0  0  0  0  0  0  0
   62.6920   34.7518   47.2711 H   0  0  0  0  0  0  0  0  0  0  0  0
   62.4664   33.9694   45.6612 H   0  0  0  0  0  0  0  0  0  0  0  0
   61.1880   32.8390   48.1430 H   0  0  0  0  0  0  0  0  0  0  0  0
   60.0428   35.4510   46.0927 H   0  0  0  0  0  0  0  0  0  0  0  0
   57.9492   35.4968   44.7514 H   0  0  0  0  0  0  0  0  0  0  0  0
   56.7070   33.3925   44.2815 H   0  0  0  0  0  0  0  0  0  0  0  0
   56.3437   28.4558   44.8289 H   0  0  0  0  0  0  0  0  0  0  0  0
   57.2863   26.3526   45.7834 H   0  0  0  0  0  0  0  0  0  0  0  0
   59.3933   26.4136   47.1165 H   0  0  0  0  0  0  0  0  0  0  0  0
   60.5684   28.5807   47.5050 H   0  0  0  0  0  0  0  0  0  0  0  0
  1  2  1  0
  2  3  1  0
  3  4  1  0
  4  5  1  0
  5  6  1  0
  6  7  1  0
  7  8  1  0
  8  9  1  0
  7 10  1  0
 10 11  1  0
 11 12  1  0
 12 13  1  0
 13 14  1  0
 14 15  2  0
 15 16  1  0
 16 17  2  0
 17 18  1  0
 18 19  1  0
 19 20  2  0
 19 21  1  0
 21 22  2  0
 22 23  1  0
 23 24  2  0
 24 25  1  0
 25 26  2  0
 26 27  1  0
 27 28  1  0
 28 14  1  0
 28 18  2  0
 26 21  1  0
  1 29  1  0
  1 30  1  0
  1 31  1  0
  2 32  1  0
  2 33  1  0
  3 34  1  0
  4 35  1  0
  4 36  1  0
  5 37  1  0
  5 38  1  0
  6 39  1  0
  6 40  1  0
  8 41  1  0
  8 42  1  0
  9 43  1  0
  9 44  1  0
  9 45  1  0
 10 46  1  0
 10 47  1  0
 11 48  1  0
 11 49  1  0
 12 50  1  0
 12 51  1  0
 13 52  1  0
 15 53  1  0
 16 54  1  0
 17 55  1  0
 22 56  1  0
 23 57  1  0
 24 58  1  0
 25 59  1  0
M  CHG  1  27  -1
M  END
>  <UniqueID>  (33) 
31

>  <SMILES>  (33) 
CCNCCCN(CC)CCCNc1cccc2c(=O)c3ccccc3[n-]c12

>  <Energy>  (33) 
63.73604936400127

>  <Genealogy>  (33) 
CCNCCCN(CC)CCCNc1cccc2c(=O)c3ccccc3[n-]c12 (protonated)
CCNCCCN(CC)CCCNc1cccc2c(=O)c3ccccc3[n-]c12 (3D coordinates assigned)
CCNCCCN(CC)CCCNc1cccc2c(=O)c3ccccc3[n-]c12 (optimized conformer: 63.73604936400127 kcal/mol)

>  <smiles>  (33) 
CCNCCCN(CC)CCCNc1cccc2c(=O)c3ccccc3[nH]c12

>  <score_type>  (33) 
oracle

>  <origin>  (33) 
adg

>  <m_score__min__energy>  (33) 
-8.3000000000000007

>  <m_primary>  (33) 
energy

$$$$
33:0
     RDKit          3D

 57 59  0  0  0  0  0  0  0  0999 V2000
   56.2219   26.4129   46.3913 H   0  0  0  0  0  0  0  0  0  0  0  0
   56.6600   27.0830   45.6370 C   0  0  0  0  0  0  0  0  0  0  0  0
   56.2590   28.3810   45.5690 N   0  0  0  0  0  0  0  0  0  0  0  0
   56.7630   29.2490   44.6470 C   0  0  0  0  0  0  0  0  0  0  0  0
   56.3880   30.4950   44.6130 N   0  0  0  0  0  0  0  0  0  0  0  0
   57.1650   31.6410   45.0010 C   0  0  0  0  0  0  0  0  0  0  0  0
   57.4020   32.7150   44.1200 C   0  0  0  0  0  0  0  0  0  0  0  0
   56.9637   32.7039   43.1111 H   0  0  0  0  0  0  0  0  0  0  0  0
   58.1930   33.7950   44.5250 C   0  0  0  0  0  0  0  0  0  0  0  0
   58.3646   34.6375   43.8388 H   0  0  0  0  0  0  0  0  0  0  0  0
   58.7660   33.8060   45.8000 C   0  0  0  0  0  0  0  0  0  0  0  0
   59.8470   35.2820   46.3500 Br  0  0  0  0  0  0  0  0  0  0  0  0
   58.5590   32.7290   46.6670 C   0  0  0  0  0  0  0  0  0  0  0  0
   59.0174   32.7324   47.6669 H   0  0  0  0  0  0  0  0  0  0  0  0
   57.7700   31.6480   46.2640 C   0  0  0  0  0  0  0  0  0  0  0  0
   57.6231   30.7961   46.9442 H   0  0  0  0  0  0  0  0  0  0  0  0
   57.7380   28.8050   43.7480 C   0  0  0  0  0  0  0  0  0  0  0  0
   58.1649   29.4977   43.0078 H   0  0  0  0  0  0  0  0  0  0  0  0
   58.1660   27.4770   43.7960 C   0  0  0  0  0  0  0  0  0  0  0  0
   58.9256   27.1206   43.0847 H   0  0  0  0  0  0  0  0  0  0  0  0
   57.6320   26.5950   44.7470 C   0  0  0  0  0  0  0  0  0  0  0  0
   58.0890   25.2310   44.7850 N   0  0  0  0  0  0  0  0  0  0  0  0
   57.9360   24.6420   43.9350 H   0  0  0  0  0  0  0  0  0  0  0  0
   58.7550   24.6420   45.9510 C   0  0  0  0  0  0  0  0  0  0  0  0
   58.9688   23.5837   45.7407 H   0  0  0  0  0  0  0  0  0  0  0  0
   58.0831   24.7484   46.8154 H   0  0  0  0  0  0  0  0  0  0  0  0
   60.0760   25.3590   46.2850 C   0  0  0  0  0  0  0  0  0  0  0  0
   60.6384   25.5224   45.3538 H   0  0  0  0  0  0  0  0  0  0  0  0
   60.6437   24.7251   46.9820 H   0  0  0  0  0  0  0  0  0  0  0  0
   59.8390   26.6660   46.9380 N   0  0  0  0  0  0  0  0  0  0  0  0
   60.3040   27.7920   46.0910 C   0  0  0  0  0  0  0  0  0  0  0  0
   59.6016   27.9157   45.2535 H   0  0  0  0  0  0  0  0  0  0  0  0
   61.3172   27.5469   45.7398 H   0  0  0  0  0  0  0  0  0  0  0  0
   60.3890   29.1250   46.8650 C   0  0  0  0  0  0  0  0  0  0  0  0
   60.0486   29.9411   46.2107 H   0  0  0  0  0  0  0  0  0  0  0  0
   61.4336   29.2810   47.1722 H   0  0  0  0  0  0  0  0  0  0  0  0
   59.5050   29.0970   48.1380 C   0  0  0  0  0  0  0  0  0  0  0  0
   58.4549   28.8884   47.8853 H   0  0  0  0  0  0  0  0  0  0  0  0
   59.4720   30.4330   48.8160 N   0  0  2  0  0  0  0  0  0  0  0  0
   58.9690   31.1020   48.1850 H   0  0  0  0  0  0  0  0  0  0  0  0
   60.8300   30.9850   49.0380 C   0  0  0  0  0  0  0  0  0  0  0  0
   61.0220   31.0630   50.1183 H   0  0  0  0  0  0  0  0  0  0  0  0
   61.5760   30.3187   48.5802 H   0  0  0  0  0  0  0  0  0  0  0  0
   60.8996   31.9828   48.5802 H   0  0  0  0  0  0  0  0  0  0  0  0
   58.7700   30.3540   50.1310 C   0  0  0  0  0  0  0  0  0  0  0  0
   59.4956   30.0597   50.9036 H   0  0  0  0  0  0  0  0  0  0  0  0
   57.9620   29.6131   50.0404 H   0  0  0  0  0  0  0  0  0  0  0  0
   58.1410   31.6930   50.5280 C   0  0  0  0  0  0  0  0  0  0  0  0
   58.1047   31.7702   51.6247 H   0  0  0  0  0  0  0  0  0  0  0  0
   58.7462   32.5171   50.1222 H   0  0  0  0  0  0  0  0  0  0  0  0
   57.1204   31.7533   50.1222 H   0  0  0  0  0  0  0  0  0  0  0  0
   60.0520   27.9580   49.0500 C   0  0  0  0  0  0  0  0  0  0  0  0
   59.2598   27.6614   49.7532 H   0  0  0  0  0  0  0  0  0  0  0  0
   60.9380   28.3508   49.5702 H   0  0  0  0  0  0  0  0  0  0  0  0
   60.4980   26.7110   48.2580 C   0  0  0  0  0  0  0  0  0  0  0  0
   60.2300   25.8079   48.8260 H   0  0  0  0  0  0  0  0  0  0  0  0
   61.5866   26.7592   48.1075 H   0  0  0  0  0  0  0  0  0  0  0  0
  1  2  1  0
  2  3  1  0
  3  4  1  0
  4  5  2  0
  5  6  1  0
  6  7  2  0
  7  8  1  0
  7  9  1  0
  9 10  1  0
  9 11  2  0
 11 12  1  0
 11 13  1  0
 13 14  1  0
 13 15  2  0
 15 16  1  0
  4 17  1  0
 17 18  1  0
 17 19  2  0
 19 20  1  0
 19 21  1  0
 21 22  1  0
 22 23  1  0
 22 24  1  0
 24 25  1  0
 24 26  1  0
 24 27  1  0
 27 28  1  0
 27 29  1  0
 27 30  1  0
 30 31  1  0
 31 32  1  0
 31 33  1  0
 31 34  1  0
 34 35  1  0
 34 36  1  0
 34 37  1  0
 37 38  1  0
 37 39  1  0
 39 40  1  6
 39 41  1  0
 41 42  1  0
 41 43  1  0
 41 44  1  0
 39 45  1  0
 45 46  1  0
 45 47  1  0
 45 48  1  0
 48 49  1  0
 48 50  1  0
 48 51  1  0
 37 52  1  0
 52 53  1  0
 52 54  1  0
 52 55  1  0
 55 56  1  0
 55 57  1  0
 21  2  2  0
 55 30  1  0
 15  6  1  0
M  CHG  2   3  -1  39   1
M  END
>  <UniqueID>  (34) 
32

>  <SMILES>  (34) 
CC[N@@H+](C)C1CCN(CCNc2cc/c(=N/c3ccc(Br)cc3)[n-]c2)CC1

>  <Energy>  (34) 
78.2305344998454

>  <Genealogy>  (34) 
CC[NH+](C)C1CCN(CCNc2ccc(=Nc3ccc(Br)cc3)[n-]c2)CC1 (protonated)
CC[N@@H+](C)C1CCN(CCNc2ccc(=Nc3ccc(Br)cc3)[n-]c2)CC1 (chirality)
CC[N@@H+](C)C1CCN(CCNc2cc/c(=N/c3ccc(Br)cc3)[n-]c2)CC1 (cis-trans isomerization)
CC[N@@H+](C)C1CCN(CCNc2cc/c(=N/c3ccc(Br)cc3)[n-]c2)CC1 (3D coordinates assigned)
CC[N@@H+](C)C1CCN(CCNc2cc/c(=N/c3ccc(Br)cc3)[n-]c2)CC1 (nonaromatic ring conformer: 78.2305344998454 kcal/mol)

>  <smiles>  (34) 
CCN(C)C1CCN(CCNc2ccc(=Nc3ccc(Br)cc3)[nH]c2)CC1

>  <score_type>  (34) 
oracle

>  <origin>  (34) 
adg

>  <m_score__min__energy>  (34) 
-9.1500000000000004

>  <m_primary>  (34) 
energy

$$$$
34:0
     RDKit          3D

 53 55  0  0  0  0  0  0  0  0999 V2000
   63.3720   33.7900   46.5750 C   0  0  0  0  0  0  0  0  0  0  0  0
   62.9480   33.0550   47.7800 N   0  0  0  0  0  0  0  0  0  0  0  0
   63.6760   33.5770   48.9480 C   0  0  0  0  0  0  0  0  0  0  0  0
   63.1900   31.6010   47.6460 C   0  0  0  0  0  0  0  0  0  0  0  0
   61.9020   30.7670   47.8110 C   0  0  0  0  0  0  0  0  0  0  0  0
   60.7140   31.5780   48.1460 N   0  0  0  0  0  0  0  0  0  0  0  0
   59.7710   31.6730   47.0360 C   0  0  0  0  0  0  0  0  0  0  0  0
   59.5700   32.8980   46.3320 C   0  0  0  0  0  0  0  0  0  0  0  0
   60.2480   34.0980   46.6770 C   0  0  0  0  0  0  0  0  0  0  0  0
   59.9870   35.2940   46.0140 C   0  0  0  0  0  0  0  0  0  0  0  0
   59.0460   35.3370   44.9990 C   0  0  0  0  0  0  0  0  0  0  0  0
   58.3910   34.1750   44.6090 C   0  0  0  0  0  0  0  0  0  0  0  0
   58.6700   32.9280   45.2260 C   0  0  0  0  0  0  0  0  0  0  0  0
   58.0810   31.7660   44.7750 N   0  0  0  0  0  0  0  0  0  0  0  0
   57.4410   31.7350   43.4380 C   0  0  0  0  0  0  0  0  0  0  0  0
   58.1180   30.6240   45.5450 C   0  0  0  0  0  0  0  0  0  0  0  0
   57.2790   29.5180   45.2530 C   0  0  0  0  0  0  0  0  0  0  0  0
   57.3520   28.3280   45.9760 C   0  0  0  0  0  0  0  0  0  0  0  0
   56.4910   27.2780   45.6130 O   0  0  0  0  0  0  0  0  0  0  0  0
   56.7790   25.8860   45.7350 C   0  0  0  0  0  0  0  0  0  0  0  0
   55.4870   25.0740   45.8400 C   0  0  0  0  0  0  0  0  0  0  0  0
   54.3330   25.9660   45.8760 N   0  0  0  0  0  0  0  0  0  0  0  0
   58.2640   28.2290   47.0300 C   0  0  0  0  0  0  0  0  0  0  0  0
   59.0660   29.3150   47.3700 C   0  0  0  0  0  0  0  0  0  0  0  0
   58.9940   30.5400   46.6590 C   0  0  0  0  0  0  0  0  0  0  0  0
   63.9012   34.7074   46.8723 H   0  0  0  0  0  0  0  0  0  0  0  0
   64.0436   33.1568   45.9767 H   0  0  0  0  0  0  0  0  0  0  0  0
   62.4877   34.0544   45.9767 H   0  0  0  0  0  0  0  0  0  0  0  0
   63.1886   33.2275   49.8701 H   0  0  0  0  0  0  0  0  0  0  0  0
   64.7151   33.2169   48.9234 H   0  0  0  0  0  0  0  0  0  0  0  0
   63.6684   34.6767   48.9234 H   0  0  0  0  0  0  0  0  0  0  0  0
   63.6116   31.4045   46.6492 H   0  0  0  0  0  0  0  0  0  0  0  0
   63.8840   31.3038   48.4460 H   0  0  0  0  0  0  0  0  0  0  0  0
   61.7070   30.2371   46.8670 H   0  0  0  0  0  0  0  0  0  0  0  0
   62.0692   30.0760   48.6504 H   0  0  0  0  0  0  0  0  0  0  0  0
   60.2330   31.1560   48.9720 H   0  0  0  0  0  0  0  0  0  0  0  0
   61.0120   32.4940   48.5300 H   0  0  0  0  0  0  0  0  0  0  0  0
   60.9946   34.0817   47.4847 H   0  0  0  0  0  0  0  0  0  0  0  0
   60.5300   36.2077   46.2973 H   0  0  0  0  0  0  0  0  0  0  0  0
   58.8169   36.2909   44.5014 H   0  0  0  0  0  0  0  0  0  0  0  0
   57.6411   34.2229   43.8057 H   0  0  0  0  0  0  0  0  0  0  0  0
   56.3486   31.6821   43.5556 H   0  0  0  0  0  0  0  0  0  0  0  0
   57.7063   32.6471   42.8832 H   0  0  0  0  0  0  0  0  0  0  0  0
   57.7932   30.8529   42.8832 H   0  0  0  0  0  0  0  0  0  0  0  0
   56.5504   29.6015   44.4332 H   0  0  0  0  0  0  0  0  0  0  0  0
   57.3427   25.5550   44.8503 H   0  0  0  0  0  0  0  0  0  0  0  0
   57.3724   25.7262   46.6473 H   0  0  0  0  0  0  0  0  0  0  0  0
   55.4045   24.4081   44.9684 H   0  0  0  0  0  0  0  0  0  0  0  0
   55.5106   24.4799   46.7655 H   0  0  0  0  0  0  0  0  0  0  0  0
   54.4150   26.6370   45.0770 H   0  0  0  0  0  0  0  0  0  0  0  0
   54.3980   26.5360   46.7500 H   0  0  0  0  0  0  0  0  0  0  0  0
   58.3487   27.2883   47.5939 H   0  0  0  0  0  0  0  0  0  0  0  0
   59.7713   29.2208   48.2089 H   0  0  0  0  0  0  0  0  0  0  0  0
  1  2  1  0
  2  3  1  0
  2  4  1  0
  4  5  1  0
  5  6  1  0
  6  7  1  0
  7  8  2  0
  8  9  1  0
  9 10  2  0
 10 11  1  0
 11 12  2  0
 12 13  1  0
 13 14  2  0
 14 15  1  0
 14 16  1  0
 16 17  2  0
 17 18  1  0
 18 19  1  0
 19 20  1  0
 20 21  1  0
 21 22  1  0
 18 23  2  0
 23 24  1  0
 24 25  2  0
 25  7  1  0
 13  8  1  0
 25 16  1  0
  1 26  1  0
  1 27  1  0
  1 28  1  0
  3 29  1  0
  3 30  1  0
  3 31  1  0
  4 32  1  0
  4 33  1  0
  5 34  1  0
  5 35  1  0
  6 36  1  0
  6 37  1  0
  9 38  1  0
 10 39  1  0
 11 40  1  0
 12 41  1  0
 15 42  1  0
 15 43  1  0
 15 44  1  0
 17 45  1  0
 20 46  1  0
 20 47  1  0
 21 48  1  0
 21 49  1  0
 22 50  1  0
 22 51  1  0
 23 52  1  0
 24 53  1  0
M  CHG  2   6   1  14   1
M  END
>  <UniqueID>  (35) 
33

>  <SMILES>  (35) 
CN(C)CC[NH2+]c1c2ccccc2[n+](C)c2cc(OCCN)ccc12

>  <Energy>  (35) 
80.28048636520272

>  <Genealogy>  (35) 
CN(C)CC[NH2+]c1c2ccccc2[n+](C)c2cc(OCCN)ccc12 (protonated)
CN(C)CC[NH2+]c1c2ccccc2[n+](C)c2cc(OCCN)ccc12 (3D coordinates assigned)
CN(C)CC[NH2+]c1c2ccccc2[n+](C)c2cc(OCCN)ccc12 (optimized conformer: 80.28048636520272 kcal/mol)

>  <smiles>  (35) 
CN(C)CCNc1c2ccccc2[n+](C)c2cc(OCCN)ccc12

>  <score_type>  (35) 
oracle

>  <origin>  (35) 
adg

>  <m_score__min__energy>  (35) 
-4.96

>  <m_primary>  (35) 
energy

$$$$
35:0
     RDKit          3D

 49 50  0  0  0  0  0  0  0  0999 V2000
   59.9550   34.2220   49.3390 C   0  0  0  0  0  0  0  0  0  0  0  0
   60.8970   33.0190   49.1690 C   0  0  0  0  0  0  0  0  0  0  0  0
   61.5920   32.9610   47.8610 N   0  0  0  0  0  0  0  0  0  0  0  0
   62.9090   33.6350   47.8140 C   0  0  0  0  0  0  0  0  0  0  0  0
   63.3850   33.8380   46.3750 C   0  0  0  0  0  0  0  0  0  0  0  0
   61.4940   31.6640   47.1510 C   0  0  0  0  0  0  0  0  0  0  0  0
   60.7240   30.5660   47.9080 C   0  0  0  0  0  0  0  0  0  0  0  0
   59.7300   29.9630   47.0820 O   0  0  0  0  0  0  0  0  0  0  0  0
   59.9460   29.6130   45.7450 C   0  0  0  0  0  0  0  0  0  0  0  0
   61.1180   29.4590   45.3020 O   0  0  0  0  0  0  0  0  0  0  0  0
   58.7540   29.3620   44.8540 C   0  0  1  0  0  0  0  0  0  0  0  0
   57.5920   28.6950   45.5830 C   0  0  0  0  0  0  0  0  0  0  0  0
   57.8300   27.6400   46.6240 C   0  0  0  0  0  0  0  0  0  0  0  0
   56.3630   28.9000   45.2070 N   0  0  0  0  0  0  0  0  0  0  0  0
   55.9900   29.7890   44.1500 C   0  0  0  0  0  0  0  0  0  0  0  0
   54.7710   29.9620   43.8850 O   0  0  0  0  0  0  0  0  0  0  0  0
   57.0350   30.4630   43.3140 C   0  0  0  0  0  0  0  0  0  0  0  0
   58.3420   30.6610   44.1030 C   0  0  1  0  0  0  0  0  0  0  0  0
   58.2850   31.9120   44.9810 C   0  0  0  0  0  0  0  0  0  0  0  0
   58.7370   33.1400   44.4650 C   0  0  0  0  0  0  0  0  0  0  0  0
   58.6910   34.2870   45.2590 C   0  0  0  0  0  0  0  0  0  0  0  0
   58.2090   34.2220   46.5270 N   0  0  0  0  0  0  0  0  0  0  0  0
   57.7620   33.0540   47.0570 C   0  0  0  0  0  0  0  0  0  0  0  0
   57.7900   31.8820   46.2980 C   0  0  0  0  0  0  0  0  0  0  0  0
   59.8010   34.4186   50.4103 H   0  0  0  0  0  0  0  0  0  0  0  0
   60.4021   35.1078   48.8642 H   0  0  0  0  0  0  0  0  0  0  0  0
   58.9878   34.0003   48.8642 H   0  0  0  0  0  0  0  0  0  0  0  0
   61.6590   33.0650   49.9609 H   0  0  0  0  0  0  0  0  0  0  0  0
   60.2677   32.1187   49.2285 H   0  0  0  0  0  0  0  0  0  0  0  0
   62.8259   34.6161   48.3045 H   0  0  0  0  0  0  0  0  0  0  0  0
   63.6408   32.9980   48.3324 H   0  0  0  0  0  0  0  0  0  0  0  0
   64.3968   34.2695   46.3809 H   0  0  0  0  0  0  0  0  0  0  0  0
   63.4026   32.8691   45.8545 H   0  0  0  0  0  0  0  0  0  0  0  0
   62.6980   34.5214   45.8545 H   0  0  0  0  0  0  0  0  0  0  0  0
   60.9857   31.8377   46.1911 H   0  0  0  0  0  0  0  0  0  0  0  0
   62.5244   31.2958   47.0383 H   0  0  0  0  0  0  0  0  0  0  0  0
   61.4340   29.7925   48.2361 H   0  0  0  0  0  0  0  0  0  0  0  0
   60.2227   31.0277   48.7715 H   0  0  0  0  0  0  0  0  0  0  0  0
   59.0616   28.6295   44.0932 H   0  0  0  0  0  0  0  0  0  0  0  0
   57.7299   28.0839   47.6255 H   0  0  0  0  0  0  0  0  0  0  0  0
   57.0911   26.8339   46.5047 H   0  0  0  0  0  0  0  0  0  0  0  0
   58.8434   27.2292   46.5047 H   0  0  0  0  0  0  0  0  0  0  0  0
   57.2411   29.8424   42.4295 H   0  0  0  0  0  0  0  0  0  0  0  0
   56.6563   31.4520   43.0165 H   0  0  0  0  0  0  0  0  0  0  0  0
   59.1570   30.8518   43.3893 H   0  0  0  0  0  0  0  0  0  0  0  0
   59.1260   33.1963   43.4376 H   0  0  0  0  0  0  0  0  0  0  0  0
   59.0464   35.2470   44.8563 H   0  0  0  0  0  0  0  0  0  0  0  0
   57.3768   33.0311   48.0871 H   0  0  0  0  0  0  0  0  0  0  0  0
   57.4259   30.9375   46.7287 H   0  0  0  0  0  0  0  0  0  0  0  0
  1  2  1  0
  2  3  1  0
  3  4  1  0
  4  5  1  0
  3  6  1  0
  6  7  1  0
  7  8  1  0
  8  9  1  0
  9 10  2  0
  9 11  1  0
 11 12  1  0
 12 13  1  0
 12 14  2  0
 14 15  1  0
 15 16  2  0
 15 17  1  0
 17 18  1  0
 18 19  1  0
 19 20  2  0
 20 21  1  0
 21 22  2  0
 22 23  1  0
 23 24  2  0
 18 11  1  0
 24 19  1  0
  1 25  1  0
  1 26  1  0
  1 27  1  0
  2 28  1  0
  2 29  1  0
  4 30  1  0
  4 31  1  0
  5 32  1  0
  5 33  1  0
  5 34  1  0
  6 35  1  0
  6 36  1  0
  7 37  1  0
  7 38  1  0
 11 39  1  6
 13 40  1  0
 13 41  1  0
 13 42  1  0
 17 43  1  0
 17 44  1  0
 18 45  1  6
 20 46  1  0
 21 47  1  0
 23 48  1  0
 24 49  1  0
M  END
>  <UniqueID>  (36) 
34

>  <SMILES>  (36) 
CCN(CC)CCOC(=O)[C@H]1C(C)=NC(=O)C[C@H]1c1ccncc1

>  <Energy>  (36) 
55.71557295331988

>  <Genealogy>  (36) 
CCN(CC)CCOC(=O)[C@H]1C(C)=NC(=O)C[C@H]1c1ccncc1 (chirality)
CCN(CC)CCOC(=O)[C@H]1C(C)=NC(=O)C[C@H]1c1ccncc1 (3D coordinates assigned)
CCN(CC)CCOC(=O)[C@H]1C(C)=NC(=O)C[C@H]1c1ccncc1 (nonaromatic ring conformer: 55.71557295331988 kcal/mol)

>  <smiles>  (36) 
CCN(CC)CCOC(=O)C1C(C)=NC(=O)CC1c1ccncc1

>  <score_type>  (36) 
oracle

>  <origin>  (36) 
adg

>  <m_score__min__energy>  (36) 
-6.7999999999999998

>  <m_primary>  (36) 
energy

$$$$
36:0
     RDKit          3D

 47 50  0  0  0  0  0  0  0  0999 V2000
   58.0960   32.2450   43.1720 C   0  0  0  0  0  0  0  0  0  0  0  0
   57.4400   31.7670   44.3990 N   0  0  0  0  0  0  0  0  0  0  0  0
   56.3460   30.8330   44.0890 C   0  0  0  0  0  0  0  0  0  0  0  0
   57.0240   32.8670   45.2980 C   0  0  0  0  0  0  0  0  0  0  0  0
   57.9470   34.1020   45.2620 C   0  0  0  0  0  0  0  0  0  0  0  0
   58.9300   34.0810   46.4380 C   0  0  0  0  0  0  0  0  0  0  0  0
   60.3460   33.7360   45.9700 C   0  0  0  0  0  0  0  0  0  0  0  0
   60.9040   32.6660   46.7990 N   0  0  0  0  0  0  0  0  0  0  0  0
   61.8970   32.7610   47.7250 C   0  0  0  0  0  0  0  0  0  0  0  0
   62.6490   33.8890   48.0680 C   0  0  0  0  0  0  0  0  0  0  0  0
   63.6200   33.7550   49.0790 C   0  0  0  0  0  0  0  0  0  0  0  0
   63.8170   32.5170   49.7290 C   0  0  0  0  0  0  0  0  0  0  0  0
   63.0450   31.3950   49.3810 C   0  0  0  0  0  0  0  0  0  0  0  0
   62.0970   31.5540   48.3740 C   0  0  0  0  0  0  0  0  0  0  0  0
   61.1800   30.6880   47.8370 C   0  0  0  0  0  0  0  0  0  0  0  0
   60.9120   29.3960   48.1390 N   0  0  0  0  0  0  0  0  0  0  0  0
   59.8950   28.7770   47.4670 C   0  0  0  0  0  0  0  0  0  0  0  0
   59.5830   27.4410   47.7410 C   0  0  0  0  0  0  0  0  0  0  0  0
   58.5380   26.8120   47.0570 C   0  0  0  0  0  0  0  0  0  0  0  0
   57.7970   27.5130   46.0990 C   0  0  0  0  0  0  0  0  0  0  0  0
   58.0940   28.8500   45.8140 C   0  0  0  0  0  0  0  0  0  0  0  0
   59.1400   29.4970   46.4880 C   0  0  0  0  0  0  0  0  0  0  0  0
   59.4410   30.8080   46.2210 N   0  0  0  0  0  0  0  0  0  0  0  0
   60.4680   31.3860   46.8980 C   0  0  0  0  0  0  0  0  0  0  0  0
   58.9586   32.8735   43.4384 H   0  0  0  0  0  0  0  0  0  0  0  0
   58.4389   31.3836   42.5801 H   0  0  0  0  0  0  0  0  0  0  0  0
   57.3810   32.8353   42.5801 H   0  0  0  0  0  0  0  0  0  0  0  0
   55.9072   30.4584   45.0256 H   0  0  0  0  0  0  0  0  0  0  0  0
   55.5733   31.3543   43.5048 H   0  0  0  0  0  0  0  0  0  0  0  0
   56.7396   29.9881   43.5048 H   0  0  0  0  0  0  0  0  0  0  0  0
   56.0120   33.1851   45.0071 H   0  0  0  0  0  0  0  0  0  0  0  0
   57.0704   32.4699   46.3228 H   0  0  0  0  0  0  0  0  0  0  0  0
   58.5130   34.1019   44.3188 H   0  0  0  0  0  0  0  0  0  0  0  0
   57.3273   35.0078   45.3364 H   0  0  0  0  0  0  0  0  0  0  0  0
   58.9411   35.0726   46.9141 H   0  0  0  0  0  0  0  0  0  0  0  0
   58.6021   33.3114   47.1523 H   0  0  0  0  0  0  0  0  0  0  0  0
   60.3118   33.4038   44.9219 H   0  0  0  0  0  0  0  0  0  0  0  0
   60.9820   34.6291   46.0594 H   0  0  0  0  0  0  0  0  0  0  0  0
   62.4868   34.8526   47.5629 H   0  0  0  0  0  0  0  0  0  0  0  0
   64.2313   34.6236   49.3653 H   0  0  0  0  0  0  0  0  0  0  0  0
   64.5817   32.4298   50.5149 H   0  0  0  0  0  0  0  0  0  0  0  0
   63.1847   30.4275   49.8855 H   0  0  0  0  0  0  0  0  0  0  0  0
   60.1599   26.8851   48.4948 H   0  0  0  0  0  0  0  0  0  0  0  0
   58.2972   25.7607   47.2731 H   0  0  0  0  0  0  0  0  0  0  0  0
   56.9762   27.0098   45.5669 H   0  0  0  0  0  0  0  0  0  0  0  0
   57.5064   29.3946   45.0603 H   0  0  0  0  0  0  0  0  0  0  0  0
   58.8900   31.3500   45.5190 H   0  0  0  0  0  0  0  0  0  0  0  0
  1  2  1  0
  2  3  1  0
  2  4  1  0
  4  5  1  0
  5  6  1  0
  6  7  1  0
  7  8  1  0
  8  9  1  0
  9 10  2  0
 10 11  1  0
 11 12  2  0
 12 13  1  0
 13 14  2  0
 14 15  1  0
 15 16  2  0
 16 17  1  0
 17 18  2  0
 18 19  1  0
 19 20  2  0
 20 21  1  0
 21 22  2  0
 22 23  1  0
 23 24  2  0
 24  8  1  0
 14  9  1  0
 24 15  1  0
 22 17  1  0
  1 25  1  0
  1 26  1  0
  1 27  1  0
  3 28  1  0
  3 29  1  0
  3 30  1  0
  4 31  1  0
  4 32  1  0
  5 33  1  0
  5 34  1  0
  6 35  1  0
  6 36  1  0
  7 37  1  0
  7 38  1  0
 10 39  1  0
 11 40  1  0
 12 41  1  0
 13 42  1  0
 18 43  1  0
 19 44  1  0
 20 45  1  0
 21 46  1  0
 23 47  1  0
M  CHG  1  23   1
M  END
>  <UniqueID>  (37) 
35

>  <SMILES>  (37) 
CN(C)CCCCn1c2ccccc2c2nc3ccccc3[nH+]c21

>  <Energy>  (37) 
95.25319995112307

>  <Genealogy>  (37) 
CN(C)CCCCn1c2ccccc2c2nc3ccccc3[nH+]c21 (protonated)
CN(C)CCCCn1c2ccccc2c2nc3ccccc3[nH+]c21 (3D coordinates assigned)
CN(C)CCCCn1c2ccccc2c2nc3ccccc3[nH+]c21 (optimized conformer: 95.25319995112307 kcal/mol)

>  <smiles>  (37) 
CN(C)CCCCn1c2ccccc2c2nc3ccccc3nc21

>  <score_type>  (37) 
oracle

>  <origin>  (37) 
adg

>  <m_score__min__energy>  (37) 
-5.8700000000000001

>  <m_primary>  (37) 
energy

$$$$
37:0
     RDKit          3D

 39 41  0  0  0  0  0  0  0  0999 V2000
   54.6910   23.6860   44.2720 C   0  0  0  0  0  0  0  0  0  0  0  0
   53.9310   24.4930   45.3190 C   0  0  0  0  0  0  0  0  0  0  0  0
   54.6190   25.7070   45.6220 O   0  0  0  0  0  0  0  0  0  0  0  0
   55.8950   25.8120   46.2050 C   0  0  0  0  0  0  0  0  0  0  0  0
   56.4550   24.7580   46.9470 C   0  0  0  0  0  0  0  0  0  0  0  0
   57.7170   24.8880   47.5110 C   0  0  0  0  0  0  0  0  0  0  0  0
   58.4450   26.0630   47.3450 C   0  0  0  0  0  0  0  0  0  0  0  0
   57.9200   27.1490   46.6010 C   0  0  0  0  0  0  0  0  0  0  0  0
   58.6400   28.3640   46.4110 C   0  0  0  0  0  0  0  0  0  0  0  0
   60.1490   28.5000   47.0760 S   0  0  0  0  0  0  0  0  0  0  0  0
   58.0480   29.4320   45.6500 C   0  0  0  0  0  0  0  0  0  0  0  0
   58.6800   30.7020   45.4020 C   0  0  0  0  0  0  0  0  0  0  0  0
   59.9610   30.9480   45.9380 O   0  0  0  0  0  0  0  0  0  0  0  0
   60.3680   32.0150   46.7890 C   0  0  0  0  0  0  0  0  0  0  0  0
   58.0060   31.6870   44.6260 C   0  0  0  0  0  0  0  0  0  0  0  0
   58.6150   32.9280   44.3740 O   0  0  0  0  0  0  0  0  0  0  0  0
   58.1980   34.1770   44.9170 C   0  0  0  0  0  0  0  0  0  0  0  0
   56.7320   31.4140   44.1150 C   0  0  0  0  0  0  0  0  0  0  0  0
   56.1180   30.2000   44.3550 C   0  0  0  0  0  0  0  0  0  0  0  0
   56.7530   29.2080   45.1090 C   0  0  0  0  0  0  0  0  0  0  0  0
   56.0990   28.0320   45.3110 N   0  0  0  0  0  0  0  0  0  0  0  0
   56.6320   27.0090   46.0310 C   0  0  0  0  0  0  0  0  0  0  0  0
   55.3620   22.9735   44.7742 H   0  0  0  0  0  0  0  0  0  0  0  0
   53.9758   23.1354   43.6432 H   0  0  0  0  0  0  0  0  0  0  0  0
   55.2835   24.3669   43.6432 H   0  0  0  0  0  0  0  0  0  0  0  0
   52.9296   24.7330   44.9322 H   0  0  0  0  0  0  0  0  0  0  0  0
   53.8533   23.8933   46.2379 H   0  0  0  0  0  0  0  0  0  0  0  0
   55.8898   23.8240   47.0818 H   0  0  0  0  0  0  0  0  0  0  0  0
   58.1442   24.0577   48.0925 H   0  0  0  0  0  0  0  0  0  0  0  0
   59.4434   26.1499   47.7984 H   0  0  0  0  0  0  0  0  0  0  0  0
   60.2519   31.7107   47.8397 H   0  0  0  0  0  0  0  0  0  0  0  0
   61.4224   32.2591   46.5923 H   0  0  0  0  0  0  0  0  0  0  0  0
   59.7440   32.8993   46.5923 H   0  0  0  0  0  0  0  0  0  0  0  0
   58.2159   34.1235   46.0156 H   0  0  0  0  0  0  0  0  0  0  0  0
   58.8800   34.9705   44.5774 H   0  0  0  0  0  0  0  0  0  0  0  0
   57.1761   34.4016   44.5774 H   0  0  0  0  0  0  0  0  0  0  0  0
   56.2130   32.1757   43.5147 H   0  0  0  0  0  0  0  0  0  0  0  0
   55.1142   30.0107   43.9468 H   0  0  0  0  0  0  0  0  0  0  0  0
   55.1470   27.9200   44.8930 H   0  0  0  0  0  0  0  0  0  0  0  0
  1  2  1  0
  2  3  1  0
  3  4  1  0
  4  5  2  0
  5  6  1  0
  6  7  2  0
  7  8  1  0
  8  9  1  0
  9 10  2  0
  9 11  1  0
 11 12  2  0
 12 13  1  0
 13 14  1  0
 12 15  1  0
 15 16  1  0
 16 17  1  0
 15 18  2  0
 18 19  1  0
 19 20  2  0
 20 21  1  0
 21 22  1  0
 22  4  1  0
 22  8  2  0
 20 11  1  0
  1 23  1  0
  1 24  1  0
  1 25  1  0
  2 26  1  0
  2 27  1  0
  5 28  1  0
  6 29  1  0
  7 30  1  0
 14 31  1  0
 14 32  1  0
 14 33  1  0
 17 34  1  0
 17 35  1  0
 17 36  1  0
 18 37  1  0
 19 38  1  0
 21 39  1  0
M  END
>  <UniqueID>  (38) 
36

>  <SMILES>  (38) 
CCOc1cccc2c(=S)c3c(OC)c(OC)ccc3[nH]c12

>  <Energy>  (38) 
63.247585749821894

>  <Genealogy>  (38) 
CCOc1cccc2c(=S)c3c(OC)c(OC)ccc3[nH]c12 (3D coordinates assigned)
CCOc1cccc2c(=S)c3c(OC)c(OC)ccc3[nH]c12 (optimized conformer: 63.247585749821894 kcal/mol)

>  <smiles>  (38) 
CCOc1cccc2c(=S)c3c(OC)c(OC)ccc3[nH]c12

>  <score_type>  (38) 
oracle

>  <origin>  (38) 
adg

>  <m_score__min__energy>  (38) 
-6.8700000000000001

>  <m_primary>  (38) 
energy

$$$$
38:0
     RDKit          3D

 30 31  0  0  0  0  0  0  0  0999 V2000
   55.9110   29.7700   44.1080 Br  0  0  0  0  0  0  0  0  0  0  0  0
   57.0470   31.0950   43.2710 C   0  0  0  0  0  0  0  0  0  0  0  0
   57.7820   31.8570   44.3200 C   0  0  0  0  0  0  0  0  0  0  0  0
   58.4780   31.2710   45.3190 N   0  0  0  0  0  0  0  0  0  0  0  0
   58.9810   32.1480   46.1850 N   0  0  0  0  0  0  0  0  0  0  0  0
   58.6830   33.4340   45.8960 C   0  0  0  0  0  0  0  0  0  0  0  0
   59.0660   34.5970   46.7570 C   0  0  0  0  0  0  0  0  0  0  0  0
   60.0360   34.1970   47.8760 C   0  0  0  0  0  0  0  0  0  0  0  0
   61.0450   33.2320   47.3780 N   0  0  0  0  0  0  0  0  0  0  0  0
   61.9590   33.8170   46.3640 C   0  0  0  0  0  0  0  0  0  0  0  0
   63.3930   33.9850   46.8950 C   0  0  0  0  0  0  0  0  0  0  0  0
   63.9680   32.7640   47.3340 O   0  0  0  0  0  0  0  0  0  0  0  0
   63.0460   31.8990   47.9850 C   0  0  0  0  0  0  0  0  0  0  0  0
   61.7720   32.5930   48.4950 C   0  0  0  0  0  0  0  0  0  0  0  0
   57.7400   33.5320   44.5020 S   0  0  0  0  0  0  0  0  0  0  0  0
   57.7686   30.5934   42.6095 H   0  0  0  0  0  0  0  0  0  0  0  0
   56.4279   31.7878   42.6821 H   0  0  0  0  0  0  0  0  0  0  0  0
   59.5370   31.8540   47.0180 H   0  0  0  0  0  0  0  0  0  0  0  0
   59.5471   35.3601   46.1275 H   0  0  0  0  0  0  0  0  0  0  0  0
   58.1501   34.9841   47.2274 H   0  0  0  0  0  0  0  0  0  0  0  0
   60.5494   35.0964   48.2468 H   0  0  0  0  0  0  0  0  0  0  0  0
   59.4632   33.7217   48.6859 H   0  0  0  0  0  0  0  0  0  0  0  0
   61.9827   33.1549   45.4859 H   0  0  0  0  0  0  0  0  0  0  0  0
   61.5778   34.8159   46.1053 H   0  0  0  0  0  0  0  0  0  0  0  0
   64.0188   34.3978   46.0901 H   0  0  0  0  0  0  0  0  0  0  0  0
   63.3456   34.6577   47.7640 H   0  0  0  0  0  0  0  0  0  0  0  0
   62.7487   31.1151   47.2729 H   0  0  0  0  0  0  0  0  0  0  0  0
   63.5621   31.5015   48.8714 H   0  0  0  0  0  0  0  0  0  0  0  0
   61.1194   31.8463   48.9709 H   0  0  0  0  0  0  0  0  0  0  0  0
   62.0570   33.3678   49.2220 H   0  0  0  0  0  0  0  0  0  0  0  0
  1  2  1  0
  2  3  1  0
  3  4  2  0
  4  5  1  0
  5  6  2  0
  6  7  1  0
  7  8  1  0
  8  9  1  0
  9 10  1  0
 10 11  1  0
 11 12  1  0
 12 13  1  0
 13 14  1  0
  6 15  1  0
 15  3  1  0
 14  9  1  0
  2 16  1  0
  2 17  1  0
  5 18  1  0
  7 19  1  0
  7 20  1  0
  8 21  1  0
  8 22  1  0
 10 23  1  0
 10 24  1  0
 11 25  1  0
 11 26  1  0
 13 27  1  0
 13 28  1  0
 14 29  1  0
 14 30  1  0
M  CHG  1   5   1
M  END
>  <UniqueID>  (39) 
37

>  <SMILES>  (39) 
BrCc1n[nH+]c(CCN2CCOCC2)s1

>  <Energy>  (39) 
72.02224538419343

>  <Genealogy>  (39) 
BrCc1n[nH+]c(CCN2CCOCC2)s1 (protonated)
BrCc1n[nH+]c(CCN2CCOCC2)s1 (3D coordinates assigned)
BrCc1n[nH+]c(CCN2CCOCC2)s1 (nonaromatic ring conformer: 72.02224538419343 kcal/mol)

>  <smiles>  (39) 
BrCc1nnc(CCN2CCOCC2)s1

>  <score_type>  (39) 
oracle

>  <origin>  (39) 
adg

>  <m_score__min__energy>  (39) 
-4.4400000000000004

>  <m_primary>  (39) 
energy

$$$$
39:0
     RDKit          3D

 36 38  0  0  0  0  0  0  0  0999 V2000
   61.0810   28.9610   44.9010 C   0  0  0  0  0  0  0  0  0  0  0  0
   59.9310   28.2720   45.5880 C   0  0  0  0  0  0  0  0  0  0  0  0
   59.8880   26.8670   45.6300 C   0  0  0  0  0  0  0  0  0  0  0  0
   58.8230   26.2100   46.2530 C   0  0  0  0  0  0  0  0  0  0  0  0
   57.7940   26.9460   46.8420 C   0  0  0  0  0  0  0  0  0  0  0  0
   57.8280   28.3420   46.8170 C   0  0  0  0  0  0  0  0  0  0  0  0
   58.8960   29.0120   46.2040 C   0  0  0  0  0  0  0  0  0  0  0  0
   58.9110   30.4850   46.2190 C   0  0  0  0  0  0  0  0  0  0  0  0
   59.2040   31.2070   47.3280 N   0  0  0  0  0  0  0  0  0  0  0  0
   59.1500   32.4830   46.9140 C   0  0  0  0  0  0  0  0  0  0  0  0
   59.3990   33.6380   47.6520 C   0  0  0  0  0  0  0  0  0  0  0  0
   59.3170   34.8720   46.9790 C   0  0  0  0  0  0  0  0  0  0  0  0
   59.0020   34.9180   45.6010 C   0  0  0  0  0  0  0  0  0  0  0  0
   58.7610   33.7300   44.8840 C   0  0  0  0  0  0  0  0  0  0  0  0
   58.8390   32.5240   45.5830 C   0  0  0  0  0  0  0  0  0  0  0  0
   58.6730   31.2650   45.1290 N   0  0  0  0  0  0  0  0  0  0  0  0
   58.4610   30.8330   43.7460 C   0  0  0  0  0  0  0  0  0  0  0  0
   56.9850   30.9720   43.3720 C   0  0  0  0  0  0  0  0  0  0  0  0
   56.1580   30.0910   44.2040 C   0  0  0  0  0  0  0  0  0  0  0  0
   55.5060   29.3970   44.8610 N   0  0  0  0  0  0  0  0  0  0  0  0
   61.7666   29.3718   45.6567 H   0  0  0  0  0  0  0  0  0  0  0  0
   61.6197   28.2367   44.2723 H   0  0  0  0  0  0  0  0  0  0  0  0
   60.6965   29.7776   44.2723 H   0  0  0  0  0  0  0  0  0  0  0  0
   60.6975   26.2814   45.1697 H   0  0  0  0  0  0  0  0  0  0  0  0
   58.7960   25.1106   46.2790 H   0  0  0  0  0  0  0  0  0  0  0  0
   56.9547   26.4258   47.3268 H   0  0  0  0  0  0  0  0  0  0  0  0
   57.0134   28.9181   47.2802 H   0  0  0  0  0  0  0  0  0  0  0  0
   59.4330   30.8510   48.2830 H   0  0  0  0  0  0  0  0  0  0  0  0
   59.6505   33.5878   48.7217 H   0  0  0  0  0  0  0  0  0  0  0  0
   59.4993   35.8071   47.5290 H   0  0  0  0  0  0  0  0  0  0  0  0
   58.9448   35.8882   45.0858 H   0  0  0  0  0  0  0  0  0  0  0  0
   58.5198   33.7516   43.8110 H   0  0  0  0  0  0  0  0  0  0  0  0
   59.0671   31.4572   43.0730 H   0  0  0  0  0  0  0  0  0  0  0  0
   58.7591   29.7786   43.6487 H   0  0  0  0  0  0  0  0  0  0  0  0
   56.6697   32.0147   43.5247 H   0  0  0  0  0  0  0  0  0  0  0  0
   56.8574   30.6874   42.3172 H   0  0  0  0  0  0  0  0  0  0  0  0
  1  2  1  0
  2  3  2  0
  3  4  1  0
  4  5  2  0
  5  6  1  0
  6  7  2  0
  7  8  1  0
  8  9  2  0
  9 10  1  0
 10 11  2  0
 11 12  1  0
 12 13  2  0
 13 14  1  0
 14 15  2  0
 15 16  1  0
 16 17  1  0
 17 18  1  0
 18 19  1  0
 19 20  3  0
  7  2  1  0
 16  8  1  0
 15 10  1  0
  1 21  1  0
  1 22  1  0
  1 23  1  0
  3 24  1  0
  4 25  1  0
  5 26  1  0
  6 27  1  0
  9 28  1  0
 11 29  1  0
 12 30  1  0
 13 31  1  0
 14 32  1  0
 17 33  1  0
 17 34  1  0
 18 35  1  0
 18 36  1  0
M  CHG  1   9   1
M  END
>  <UniqueID>  (40) 
38

>  <SMILES>  (40) 
Cc1ccccc1-c1[nH+]c2ccccc2n1CCC#N

>  <Energy>  (40) 
79.52144770406555

>  <Genealogy>  (40) 
Cc1ccccc1-c1[nH+]c2ccccc2n1CCC#N (protonated)
Cc1ccccc1-c1[nH+]c2ccccc2n1CCC#N (3D coordinates assigned)
Cc1ccccc1-c1[nH+]c2ccccc2n1CCC#N (optimized conformer: 79.52144770406555 kcal/mol)

>  <smiles>  (40) 
Cc1ccccc1-c1nc2ccccc2n1CCC#N

>  <score_type>  (40) 
oracle

>  <origin>  (40) 
adg

>  <m_score__min__energy>  (40) 
-5.4900000000000002

>  <m_primary>  (40) 
energy

$$$$
40:0
     RDKit          3D

 38 38  0  0  0  0  0  0  0  0999 V2000
   64.8630   32.3050   49.8810 C   0  0  0  0  0  0  0  0  0  0  0  0
   63.3920   31.9260   49.6800 C   0  0  0  0  0  0  0  0  0  0  0  0
   62.7600   32.6860   48.5590 N   0  0  0  0  0  0  0  0  0  0  0  0
   63.7460   33.4800   47.7790 C   0  0  0  0  0  0  0  0  0  0  0  0
   63.2380   33.8410   46.3800 C   0  0  0  0  0  0  0  0  0  0  0  0
   61.6420   33.5410   49.0360 C   0  0  0  0  0  0  0  0  0  0  0  0
   60.3430   33.3980   48.2190 C   0  0  0  0  0  0  0  0  0  0  0  0
   60.5870   32.6480   47.0280 O   0  0  0  0  0  0  0  0  0  0  0  0
   59.5690   31.9920   46.3220 C   0  0  0  0  0  0  0  0  0  0  0  0
   58.7380   32.7030   45.4330 C   0  0  0  0  0  0  0  0  0  0  0  0
   58.8550   34.6080   45.2500 Br  0  0  0  0  0  0  0  0  0  0  0  0
   57.7450   32.0320   44.7140 C   0  0  0  0  0  0  0  0  0  0  0  0
   57.5590   30.6590   44.8830 C   0  0  0  0  0  0  0  0  0  0  0  0
   56.2040   29.7500   43.8920 Br  0  0  0  0  0  0  0  0  0  0  0  0
   58.3530   29.9540   45.7900 C   0  0  0  0  0  0  0  0  0  0  0  0
   59.3480   30.6130   46.5300 C   0  0  0  0  0  0  0  0  0  0  0  0
   60.1890   29.8160   47.4940 C   0  0  0  0  0  0  0  0  0  0  0  0
   61.5100   30.2830   47.4870 O   0  0  0  0  0  0  0  0  0  0  0  0
   65.0833   32.3617   50.9572 H   0  0  0  0  0  0  0  0  0  0  0  0
   65.5050   31.5429   49.4150 H   0  0  0  0  0  0  0  0  0  0  0  0
   65.0568   33.2824   49.4150 H   0  0  0  0  0  0  0  0  0  0  0  0
   63.3308   30.8505   49.4574 H   0  0  0  0  0  0  0  0  0  0  0  0
   62.8502   32.1757   50.6042 H   0  0  0  0  0  0  0  0  0  0  0  0
   62.3130   32.0100   47.8930 H   0  0  0  0  0  0  0  0  0  0  0  0
   63.9613   34.4096   48.3262 H   0  0  0  0  0  0  0  0  0  0  0  0
   64.6481   32.8626   47.6564 H   0  0  0  0  0  0  0  0  0  0  0  0
   62.3442   34.4762   46.4671 H   0  0  0  0  0  0  0  0  0  0  0  0
   64.0228   34.3852   45.8341 H   0  0  0  0  0  0  0  0  0  0  0  0
   62.9822   32.9209   45.8341 H   0  0  0  0  0  0  0  0  0  0  0  0
   61.4239   33.2725   50.0802 H   0  0  0  0  0  0  0  0  0  0  0  0
   61.9723   34.5842   48.9237 H   0  0  0  0  0  0  0  0  0  0  0  0
   59.5874   32.8786   48.8266 H   0  0  0  0  0  0  0  0  0  0  0  0
   59.9812   34.3996   47.9436 H   0  0  0  0  0  0  0  0  0  0  0  0
   57.1070   32.5885   44.0116 H   0  0  0  0  0  0  0  0  0  0  0  0
   58.1977   28.8735   45.9259 H   0  0  0  0  0  0  0  0  0  0  0  0
   59.7736   29.9171   48.5075 H   0  0  0  0  0  0  0  0  0  0  0  0
   60.1810   28.7596   47.1875 H   0  0  0  0  0  0  0  0  0  0  0  0
   61.6280   30.7940   46.6450 H   0  0  0  0  0  0  0  0  0  0  0  0
  1  2  1  0
  2  3  1  0
  3  4  1  0
  4  5  1  0
  3  6  1  0
  6  7  1  0
  7  8  1  0
  8  9  1  0
  9 10  2  0
 10 11  1  0
 10 12  1  0
 12 13  2  0
 13 14  1  0
 13 15  1  0
 15 16  2  0
 16 17  1  0
 17 18  1  0
 16  9  1  0
  1 19  1  0
  1 20  1  0
  1 21  1  0
  2 22  1  0
  2 23  1  0
  3 24  1  0
  4 25  1  0
  4 26  1  0
  5 27  1  0
  5 28  1  0
  5 29  1  0
  6 30  1  0
  6 31  1  0
  7 32  1  0
  7 33  1  0
 12 34  1  0
 15 35  1  0
 17 36  1  0
 17 37  1  0
 18 38  1  0
M  CHG  1   3   1
M  END
>  <UniqueID>  (41) 
39

>  <SMILES>  (41) 
CC[NH+](CC)CCOc1c(Br)cc(Br)cc1CO

>  <Energy>  (41) 
44.60566682628537

>  <Genealogy>  (41) 
CC[NH+](CC)CCOc1c(Br)cc(Br)cc1CO (protonated)
CC[NH+](CC)CCOc1c(Br)cc(Br)cc1CO (3D coordinates assigned)
CC[NH+](CC)CCOc1c(Br)cc(Br)cc1CO (optimized conformer: 44.60566682628537 kcal/mol)

>  <smiles>  (41) 
CCN(CC)CCOc1c(Br)cc(Br)cc1CO

>  <score_type>  (41) 
oracle

>  <origin>  (41) 
adg

>  <m_score__min__energy>  (41) 
-4.7699999999999996

>  <m_primary>  (41) 
energy

$$$$
41:0
     RDKit          3D

 49 51  0  0  0  0  0  0  0  0999 V2000
   63.4340   33.4970   47.1650 C   0  0  0  0  0  0  0  0  0  0  0  0
   62.5960   33.1780   48.1550 C   0  0  0  0  0  0  0  0  0  0  0  0
   61.4620   34.0790   48.5610 C   0  0  0  0  0  0  0  0  0  0  0  0
   60.1920   33.5530   48.0480 N   0  0  0  0  0  0  0  0  0  0  0  0
   59.2230   32.9550   48.7790 C   0  0  0  0  0  0  0  0  0  0  0  0
   59.3040   32.6720   50.2490 C   0  0  0  0  0  0  0  0  0  0  0  0
   58.1580   32.6040   47.9750 C   0  0  0  0  0  0  0  0  0  0  0  0
   58.4780   33.0190   46.6940 C   0  0  0  0  0  0  0  0  0  0  0  0
   57.6360   32.8250   45.4890 C   0  0  0  0  0  0  0  0  0  0  0  0
   56.6480   33.5790   45.2790 O   0  0  0  0  0  0  0  0  0  0  0  0
   57.9550   31.7560   44.4840 C   0  0  0  0  0  0  0  0  0  0  0  0
   57.6310   30.4340   45.0180 N   0  0  0  0  0  0  0  0  0  0  0  0
   56.4000   29.7490   44.8610 C   0  0  0  0  0  0  0  0  0  0  0  0
   55.3310   30.3140   44.5110 O   0  0  0  0  0  0  0  0  0  0  0  0
   56.4860   28.3550   45.1230 N   0  0  0  0  0  0  0  0  0  0  0  0
   57.8820   28.0510   45.4550 C   0  0  0  0  0  0  0  0  0  0  0  0
   58.4570   27.0550   44.4290 C   0  0  0  0  0  0  0  0  0  0  0  0
   57.7300   25.6950   44.4690 C   0  0  0  0  0  0  0  0  0  0  0  0
   57.1600   25.3390   45.8580 C   0  0  0  0  0  0  0  0  0  0  0  0
   57.9820   25.9680   46.9870 C   0  0  0  0  0  0  0  0  0  0  0  0
   57.9840   27.5090   46.9060 C   0  0  0  0  0  0  0  0  0  0  0  0
   58.5520   29.3970   45.3310 C   0  0  0  0  0  0  0  0  0  0  0  0
   59.7910   29.5890   45.4600 O   0  0  0  0  0  0  0  0  0  0  0  0
   59.7320   33.6200   46.7730 C   0  0  0  0  0  0  0  0  0  0  0  0
   60.4800   34.2290   45.6190 C   0  0  0  0  0  0  0  0  0  0  0  0
   64.2524   32.8133   46.8954 H   0  0  0  0  0  0  0  0  0  0  0  0
   63.3057   34.4434   46.6193 H   0  0  0  0  0  0  0  0  0  0  0  0
   62.7395   32.2275   48.6897 H   0  0  0  0  0  0  0  0  0  0  0  0
   61.4162   34.1342   49.6587 H   0  0  0  0  0  0  0  0  0  0  0  0
   61.6316   35.0821   48.1427 H   0  0  0  0  0  0  0  0  0  0  0  0
   59.0440   33.5804   50.8122 H   0  0  0  0  0  0  0  0  0  0  0  0
   58.6003   31.8668   50.5067 H   0  0  0  0  0  0  0  0  0  0  0  0
   60.3272   32.3611   50.5067 H   0  0  0  0  0  0  0  0  0  0  0  0
   57.2356   32.0943   48.2903 H   0  0  0  0  0  0  0  0  0  0  0  0
   57.3669   31.9311   43.5710 H   0  0  0  0  0  0  0  0  0  0  0  0
   59.0307   31.7927   44.2568 H   0  0  0  0  0  0  0  0  0  0  0  0
   58.3520   27.4837   43.4214 H   0  0  0  0  0  0  0  0  0  0  0  0
   59.5135   26.8815   44.6812 H   0  0  0  0  0  0  0  0  0  0  0  0
   56.8988   25.7239   43.7491 H   0  0  0  0  0  0  0  0  0  0  0  0
   58.4740   24.9244   44.2188 H   0  0  0  0  0  0  0  0  0  0  0  0
   56.1252   25.7064   45.9233 H   0  0  0  0  0  0  0  0  0  0  0  0
   57.1988   24.2458   45.9742 H   0  0  0  0  0  0  0  0  0  0  0  0
   57.5523   25.6630   47.9526 H   0  0  0  0  0  0  0  0  0  0  0  0
   59.0207   25.6196   46.8881 H   0  0  0  0  0  0  0  0  0  0  0  0
   57.1270   27.8894   47.4812 H   0  0  0  0  0  0  0  0  0  0  0  0
   58.9454   27.8540   47.3143 H   0  0  0  0  0  0  0  0  0  0  0  0
   61.2794   34.8799   46.0028 H   0  0  0  0  0  0  0  0  0  0  0  0
   60.9209   33.4298   45.0051 H   0  0  0  0  0  0  0  0  0  0  0  0
   59.7868   34.8228   45.0051 H   0  0  0  0  0  0  0  0  0  0  0  0
  1  2  2  0
  2  3  1  0
  3  4  1  0
  4  5  1  0
  5  6  1  0
  5  7  2  0
  7  8  1  0
  8  9  1  0
  9 10  2  0
  9 11  1  0
 11 12  1  0
 12 13  1  0
 13 14  2  0
 13 15  1  0
 15 16  1  0
 16 17  1  0
 17 18  1  0
 18 19  1  0
 19 20  1  0
 20 21  1  0
 16 22  1  0
 22 23  2  0
  8 24  2  0
 24 25  1  0
 24  4  1  0
 22 12  1  0
 21 16  1  0
  1 26  1  0
  1 27  1  0
  2 28  1  0
  3 29  1  0
  3 30  1  0
  6 31  1  0
  6 32  1  0
  6 33  1  0
  7 34  1  0
 11 35  1  0
 11 36  1  0
 17 37  1  0
 17 38  1  0
 18 39  1  0
 18 40  1  0
 19 41  1  0
 19 42  1  0
 20 43  1  0
 20 44  1  0
 21 45  1  0
 21 46  1  0
 25 47  1  0
 25 48  1  0
 25 49  1  0
M  CHG  1  15  -1
M  END
>  <UniqueID>  (42) 
40

>  <SMILES>  (42) 
C=CCn1c(C)cc(C(=O)CN2C(=O)[N-]C3(CCCCC3)C2=O)c1C

>  <Energy>  (42) 
92.96439120329697

>  <Genealogy>  (42) 
C=CCn1c(C)cc(C(=O)CN2C(=O)[N-]C3(CCCCC3)C2=O)c1C (protonated)
C=CCn1c(C)cc(C(=O)CN2C(=O)[N-]C3(CCCCC3)C2=O)c1C (3D coordinates assigned)
C=CCn1c(C)cc(C(=O)CN2C(=O)[N-]C3(CCCCC3)C2=O)c1C (nonaromatic ring conformer: 92.96439120329697 kcal/mol)

>  <smiles>  (42) 
C=CCn1c(C)cc(C(=O)CN2C(=O)NC3(CCCCC3)C2=O)c1C

>  <score_type>  (42) 
oracle

>  <origin>  (42) 
adg

>  <m_score__min__energy>  (42) 
-10.369999999999999

>  <m_primary>  (42) 
energy

$$$$
42:0
     RDKit          3D

 34 35  0  0  0  0  0  0  0  0999 V2000
   56.9580   30.7880   43.0020 C   0  0  0  0  0  0  0  0  0  0  0  0
   56.4450   30.9490   44.4110 C   0  0  0  0  0  0  0  0  0  0  0  0
   56.1460   29.6950   45.0050 N   0  0  0  0  0  0  0  0  0  0  0  0
   56.9990   28.5910   44.6440 C   0  0  0  0  0  0  0  0  0  0  0  0
   58.0350   28.3270   45.7170 C   0  0  0  0  0  0  0  0  0  0  0  0
   57.5730   27.2320   46.6010 C   0  0  0  0  0  0  0  0  0  0  0  0
   57.7550   25.8740   46.0750 C   0  0  0  0  0  0  0  0  0  0  0  0
   56.7510   25.2360   45.3950 N   0  0  0  0  0  0  0  0  0  0  0  0
   57.1570   24.0450   44.9810 C   0  0  0  0  0  0  0  0  0  0  0  0
   56.5170   23.0880   44.2900 N   0  0  0  0  0  0  0  0  0  0  0  0
   57.1570   21.9410   43.9890 C   0  0  0  0  0  0  0  0  0  0  0  0
   56.5590   20.9900   43.3130 N   0  0  0  0  0  0  0  0  0  0  0  0
   58.4440   21.7480   44.3810 N   0  0  0  0  0  0  0  0  0  0  0  0
   59.0930   22.7180   45.0820 C   0  0  0  0  0  0  0  0  0  0  0  0
   60.3130   22.5580   45.4640 N   0  0  0  0  0  0  0  0  0  0  0  0
   58.4570   23.8850   45.3930 C   0  0  0  0  0  0  0  0  0  0  0  0
   58.7930   25.0310   46.0640 N   0  0  0  0  0  0  0  0  0  0  0  0
   58.0072   30.4587   43.0292 H   0  0  0  0  0  0  0  0  0  0  0  0
   56.3515   30.0370   42.4746 H   0  0  0  0  0  0  0  0  0  0  0  0
   56.8894   31.7509   42.4746 H   0  0  0  0  0  0  0  0  0  0  0  0
   57.2124   31.4559   45.0145 H   0  0  0  0  0  0  0  0  0  0  0  0
   55.5190   31.5417   44.3743 H   0  0  0  0  0  0  0  0  0  0  0  0
   55.8730   29.7070   45.9900 H   0  0  0  0  0  0  0  0  0  0  0  0
   56.3826   27.6897   44.5106 H   0  0  0  0  0  0  0  0  0  0  0  0
   57.5213   28.8448   43.7098 H   0  0  0  0  0  0  0  0  0  0  0  0
   58.9853   28.0384   45.2441 H   0  0  0  0  0  0  0  0  0  0  0  0
   58.1805   29.2393   46.3141 H   0  0  0  0  0  0  0  0  0  0  0  0
   58.1270   27.3052   47.5485 H   0  0  0  0  0  0  0  0  0  0  0  0
   56.4871   27.3701   46.7095 H   0  0  0  0  0  0  0  0  0  0  0  0
   55.5230   23.2570   43.9960 H   0  0  0  0  0  0  0  0  0  0  0  0
   56.9410   20.0220   43.3180 H   0  0  0  0  0  0  0  0  0  0  0  0
   58.9360   20.8370   44.1360 H   0  0  0  0  0  0  0  0  0  0  0  0
   61.0680   22.2380   44.8290 H   0  0  0  0  0  0  0  0  0  0  0  0
   59.7510   25.1340   46.4490 H   0  0  0  0  0  0  0  0  0  0  0  0
  1  2  1  0
  2  3  1  0
  3  4  1  0
  4  5  1  0
  5  6  1  0
  6  7  1  0
  7  8  2  0
  8  9  1  0
  9 10  1  0
 10 11  1  0
 11 12  2  3
 11 13  1  0
 13 14  1  0
 14 15  2  3
 14 16  1  0
 16 17  1  0
 17  7  1  0
 16  9  2  0
  1 18  1  0
  1 19  1  0
  1 20  1  0
  2 21  1  0
  2 22  1  0
  3 23  1  0
  4 24  1  0
  4 25  1  0
  5 26  1  0
  5 27  1  0
  6 28  1  0
  6 29  1  0
 10 30  1  0
 12 31  1  0
 13 32  1  0
 15 33  1  0
 17 34  1  0
M  END
>  <smiles>  (43) 
CCNCCCc1nc2[nH]c(=N)[nH]c(=N)c2[nH]1

>  <score_type>  (43) 
oracle

>  <origin>  (43) 
adg

>  <m_score__min__energy>  (43) 
-6.6100000000000003

>  <m_primary>  (43) 
energy

$$$$
43:0
     RDKit          3D

 44 46  0  0  0  0  0  0  0  0999 V2000
   55.8230   30.0410   44.1170 C   0  0  0  0  0  0  0  0  0  0  0  0
   56.7760   30.1590   45.2390 N   0  0  0  0  0  0  0  0  0  0  0  0
   57.3090   28.8370   45.6040 C   0  0  0  0  0  0  0  0  0  0  0  0
   57.8680   31.1510   45.0350 C   0  0  1  0  0  0  0  0  0  0  0  0
   58.2950   31.3440   43.5770 C   0  0  0  0  0  0  0  0  0  0  0  0
   57.7650   32.7120   43.1870 C   0  0  0  0  0  0  0  0  0  0  0  0
   57.5910   33.4970   44.4180 N   0  0  0  0  0  0  0  0  0  0  0  0
   58.6580   34.5050   44.6220 C   0  0  0  0  0  0  0  0  0  0  0  0
   59.2720   34.4570   45.9950 C   0  0  0  0  0  0  0  0  0  0  0  0
   60.2730   33.6180   46.3440 N   0  0  0  0  0  0  0  0  0  0  0  0
   60.4390   33.9270   47.6480 C   0  0  0  0  0  0  0  0  0  0  0  0
   61.4420   33.2520   48.5440 C   0  0  0  0  0  0  0  0  0  0  0  0
   62.6320   34.1660   48.8640 C   0  0  0  0  0  0  0  0  0  0  0  0
   63.8620   33.4970   48.2690 C   0  0  0  0  0  0  0  0  0  0  0  0
   63.5140   32.0240   48.1700 C   0  0  0  0  0  0  0  0  0  0  0  0
   62.0190   31.9840   47.9040 C   0  0  0  0  0  0  0  0  0  0  0  0
   59.5900   34.8920   48.0450 N   0  0  0  0  0  0  0  0  0  0  0  0
   58.8820   35.1980   47.0050 O   0  0  0  0  0  0  0  0  0  0  0  0
   57.4680   32.5460   45.5370 C   0  0  0  0  0  0  0  0  0  0  0  0
   54.8044   29.9149   44.5128 H   0  0  0  0  0  0  0  0  0  0  0  0
   55.8670   30.9515   43.5013 H   0  0  0  0  0  0  0  0  0  0  0  0
   56.0877   29.1688   43.5013 H   0  0  0  0  0  0  0  0  0  0  0  0
   57.3456   28.7462   46.6996 H   0  0  0  0  0  0  0  0  0  0  0  0
   56.6569   28.0524   45.1926 H   0  0  0  0  0  0  0  0  0  0  0  0
   58.3229   28.7241   45.1926 H   0  0  0  0  0  0  0  0  0  0  0  0
   58.7039   30.7202   45.6058 H   0  0  0  0  0  0  0  0  0  0  0  0
   59.3911   31.3150   43.4886 H   0  0  0  0  0  0  0  0  0  0  0  0
   57.9040   30.5494   42.9246 H   0  0  0  0  0  0  0  0  0  0  0  0
   58.4820   33.2148   42.5213 H   0  0  0  0  0  0  0  0  0  0  0  0
   56.8066   32.6145   42.6560 H   0  0  0  0  0  0  0  0  0  0  0  0
   59.4503   34.3290   43.8795 H   0  0  0  0  0  0  0  0  0  0  0  0
   58.1941   35.4959   44.5086 H   0  0  0  0  0  0  0  0  0  0  0  0
   60.8882   33.0042   49.4615 H   0  0  0  0  0  0  0  0  0  0  0  0
   62.4822   35.1574   48.4116 H   0  0  0  0  0  0  0  0  0  0  0  0
   62.7428   34.3100   49.9489 H   0  0  0  0  0  0  0  0  0  0  0  0
   64.0792   33.9086   47.2723 H   0  0  0  0  0  0  0  0  0  0  0  0
   64.7567   33.6644   48.8867 H   0  0  0  0  0  0  0  0  0  0  0  0
   64.0655   31.5522   47.3434 H   0  0  0  0  0  0  0  0  0  0  0  0
   63.7832   31.4759   49.0850 H   0  0  0  0  0  0  0  0  0  0  0  0
   61.8234   31.9792   46.8215 H   0  0  0  0  0  0  0  0  0  0  0  0
   61.5594   31.0764   48.3225 H   0  0  0  0  0  0  0  0  0  0  0  0
   59.4950   35.3160   48.9940 H   0  0  0  0  0  0  0  0  0  0  0  0
   58.1340   32.8503   46.3579 H   0  0  0  0  0  0  0  0  0  0  0  0
   56.4325   32.5312   45.9078 H   0  0  0  0  0  0  0  0  0  0  0  0
  1  2  1  0
  2  3  1  0
  2  4  1  0
  4  5  1  0
  5  6  1  0
  6  7  1  0
  7  8  1  0
  8  9  1  0
  9 10  2  0
 10 11  1  0
 11 12  1  0
 12 13  1  0
 13 14  1  0
 14 15  1  0
 15 16  1  0
 11 17  2  0
 17 18  1  0
  7 19  1  0
 19  4  1  0
 18  9  1  0
 16 12  1  0
  1 20  1  0
  1 21  1  0
  1 22  1  0
  3 23  1  0
  3 24  1  0
  3 25  1  0
  4 26  1  1
  5 27  1  0
  5 28  1  0
  6 29  1  0
  6 30  1  0
  8 31  1  0
  8 32  1  0
 12 33  1  0
 13 34  1  0
 13 35  1  0
 14 36  1  0
 14 37  1  0
 15 38  1  0
 15 39  1  0
 16 40  1  0
 16 41  1  0
 17 42  1  0
 19 43  1  0
 19 44  1  0
M  CHG  1  17   1
M  END
>  <UniqueID>  (44) 
41

>  <SMILES>  (44) 
CN(C)[C@H]1CCN(Cc2nc(C3CCCC3)[nH+]o2)C1

>  <Energy>  (44) 
87.49749819332617

>  <Genealogy>  (44) 
CN(C)C1CCN(Cc2nc(C3CCCC3)[nH+]o2)C1 (protonated)
CN(C)[C@H]1CCN(Cc2nc(C3CCCC3)[nH+]o2)C1 (chirality)
CN(C)[C@H]1CCN(Cc2nc(C3CCCC3)[nH+]o2)C1 (3D coordinates assigned)
CN(C)[C@H]1CCN(Cc2nc(C3CCCC3)[nH+]o2)C1 (nonaromatic ring conformer: 87.49749819332617 kcal/mol)

>  <smiles>  (44) 
CN(C)C1CCN(Cc2nc(C3CCCC3)no2)C1

>  <score_type>  (44) 
oracle

>  <origin>  (44) 
adg

>  <m_score__min__energy>  (44) 
-6.1600000000000001

>  <m_primary>  (44) 
energy

$$$$
44:0
     RDKit          3D

 54 57  0  0  0  0  0  0  0  0999 V2000
   60.6100   28.5180   45.0850 C   0  0  0  0  0  0  0  0  0  0  0  0
   59.6100   27.4410   45.5000 C   0  0  0  0  0  0  0  0  0  0  0  0
   59.2070   27.5760   46.9230 N   0  0  0  0  0  0  0  0  0  0  0  0
   58.2640   26.4930   47.2900 C   0  0  0  0  0  0  0  0  0  0  0  0
   57.0850   26.4470   46.3190 C   0  0  0  0  0  0  0  0  0  0  0  0
   60.3890   27.6100   47.8280 C   0  0  0  0  0  0  0  0  0  0  0  0
   60.2610   28.7620   48.8490 C   0  0  0  0  0  0  0  0  0  0  0  0
   59.0410   29.5730   48.6770 N   0  0  0  0  0  0  0  0  0  0  0  0
   59.2380   30.6960   47.7760 C   0  0  0  0  0  0  0  0  0  0  0  0
   60.1330   31.7810   48.0440 C   0  0  0  0  0  0  0  0  0  0  0  0
   60.9250   31.8370   49.2170 C   0  0  0  0  0  0  0  0  0  0  0  0
   61.8220   32.8810   49.4310 C   0  0  0  0  0  0  0  0  0  0  0  0
   61.9690   33.8850   48.4860 C   0  0  0  0  0  0  0  0  0  0  0  0
   61.1960   33.8780   47.3300 C   0  0  0  0  0  0  0  0  0  0  0  0
   60.2400   32.8610   47.0940 C   0  0  0  0  0  0  0  0  0  0  0  0
   59.4320   32.8930   45.9680 N   0  0  0  0  0  0  0  0  0  0  0  0
   59.2810   34.1150   45.1610 C   0  0  0  0  0  0  0  0  0  0  0  0
   58.7010   31.7770   45.6700 C   0  0  0  0  0  0  0  0  0  0  0  0
   58.5720   30.7200   46.5450 C   0  0  0  0  0  0  0  0  0  0  0  0
   57.7730   29.7550   46.0300 N   0  0  0  0  0  0  0  0  0  0  0  0
   57.4110   30.2020   44.8130 C   0  0  0  0  0  0  0  0  0  0  0  0
   56.6270   29.5200   43.8840 C   0  0  0  0  0  0  0  0  0  0  0  0
   56.4240   30.1130   42.6280 C   0  0  0  0  0  0  0  0  0  0  0  0
   57.0210   31.3520   42.3200 C   0  0  0  0  0  0  0  0  0  0  0  0
   57.8130   32.0200   43.2700 C   0  0  0  0  0  0  0  0  0  0  0  0
   57.9660   31.4350   44.5340 C   0  0  0  0  0  0  0  0  0  0  0  0
   61.0419   28.9831   45.9834 H   0  0  0  0  0  0  0  0  0  0  0  0
   61.4124   28.0622   44.4863 H   0  0  0  0  0  0  0  0  0  0  0  0
   60.0960   29.2844   44.4863 H   0  0  0  0  0  0  0  0  0  0  0  0
   58.7140   27.5253   44.8674 H   0  0  0  0  0  0  0  0  0  0  0  0
   60.0939   26.4611   45.3750 H   0  0  0  0  0  0  0  0  0  0  0  0
   58.7930   25.5290   47.2606 H   0  0  0  0  0  0  0  0  0  0  0  0
   57.8796   26.6885   48.3019 H   0  0  0  0  0  0  0  0  0  0  0  0
   56.1436   26.4103   46.8868 H   0  0  0  0  0  0  0  0  0  0  0  0
   57.0963   27.3463   45.6856 H   0  0  0  0  0  0  0  0  0  0  0  0
   57.1664   25.5513   45.6856 H   0  0  0  0  0  0  0  0  0  0  0  0
   60.4578   26.6544   48.3684 H   0  0  0  0  0  0  0  0  0  0  0  0
   61.2934   27.7720   47.2231 H   0  0  0  0  0  0  0  0  0  0  0  0
   60.2513   28.3301   49.8606 H   0  0  0  0  0  0  0  0  0  0  0  0
   61.1183   29.4320   48.6873 H   0  0  0  0  0  0  0  0  0  0  0  0
   58.2480   28.9540   48.4120 H   0  0  0  0  0  0  0  0  0  0  0  0
   58.7670   29.9480   49.6140 H   0  0  0  0  0  0  0  0  0  0  0  0
   60.8301   31.0425   49.9718 H   0  0  0  0  0  0  0  0  0  0  0  0
   62.4175   32.9091   50.3555 H   0  0  0  0  0  0  0  0  0  0  0  0
   62.7000   34.6902   48.6514 H   0  0  0  0  0  0  0  0  0  0  0  0
   61.3298   34.6769   46.5858 H   0  0  0  0  0  0  0  0  0  0  0  0
   59.1737   34.9836   45.8274 H   0  0  0  0  0  0  0  0  0  0  0  0
   60.1696   34.2474   44.5263 H   0  0  0  0  0  0  0  0  0  0  0  0
   58.3869   34.0271   44.5263 H   0  0  0  0  0  0  0  0  0  0  0  0
   57.5200   28.8330   46.4490 H   0  0  0  0  0  0  0  0  0  0  0  0
   56.1801   28.5450   44.1281 H   0  0  0  0  0  0  0  0  0  0  0  0
   55.7954   29.6078   41.8799 H   0  0  0  0  0  0  0  0  0  0  0  0
   56.8658   31.8002   41.3275 H   0  0  0  0  0  0  0  0  0  0  0  0
   58.2996   32.9763   43.0276 H   0  0  0  0  0  0  0  0  0  0  0  0
  1  2  1  0
  2  3  1  0
  3  4  1  0
  4  5  1  0
  3  6  1  0
  6  7  1  0
  7  8  1  0
  8  9  1  0
  9 10  2  0
 10 11  1  0
 11 12  2  0
 12 13  1  0
 13 14  2  0
 14 15  1  0
 15 16  2  0
 16 17  1  0
 16 18  1  0
 18 19  2  0
 19 20  1  0
 20 21  1  0
 21 22  2  0
 22 23  1  0
 23 24  2  0
 24 25  1  0
 25 26  2  0
 19  9  1  0
 26 21  1  0
 15 10  1  0
 26 18  1  0
  1 27  1  0
  1 28  1  0
  1 29  1  0
  2 30  1  0
  2 31  1  0
  4 32  1  0
  4 33  1  0
  5 34  1  0
  5 35  1  0
  5 36  1  0
  6 37  1  0
  6 38  1  0
  7 39  1  0
  7 40  1  0
  8 41  1  0
  8 42  1  0
 11 43  1  0
 12 44  1  0
 13 45  1  0
 14 46  1  0
 17 47  1  0
 17 48  1  0
 17 49  1  0
 20 50  1  0
 22 51  1  0
 23 52  1  0
 24 53  1  0
 25 54  1  0
M  CHG  2   8   1  16   1
M  END
>  <UniqueID>  (45) 
42

>  <SMILES>  (45) 
CCN(CC)CC[NH2+]c1c2ccccc2[n+](C)c2c1[nH]c1ccccc12

>  <Energy>  (45) 
117.99274814480547

>  <Genealogy>  (45) 
CCN(CC)CC[NH2+]c1c2ccccc2[n+](C)c2c1[nH]c1ccccc12 (protonated)
CCN(CC)CC[NH2+]c1c2ccccc2[n+](C)c2c1[nH]c1ccccc12 (3D coordinates assigned)
CCN(CC)CC[NH2+]c1c2ccccc2[n+](C)c2c1[nH]c1ccccc12 (optimized conformer: 117.99274814480547 kcal/mol)

>  <smiles>  (45) 
CCN(CC)CCNc1c2ccccc2[n+](C)c2c1[nH]c1ccccc12

>  <score_type>  (45) 
oracle

>  <origin>  (45) 
adg

>  <m_score__min__energy>  (45) 
-4.5099999999999998

>  <m_primary>  (45) 
energy

$$$$
