0:0
     RDKit          3D

 55 57  0  0  0  0  0  0  0  0999 V2000
   59.6350   35.2170   45.9310 C   0  0  0  0  0  0  0  0  0  0  0  0
   58.6130   34.6070   44.9770 C   0  0  0  0  0  0  0  0  0  0  0  0
   58.4120   33.1830   45.2820 N   0  0  0  0  0  0  0  0  0  0  0  0
   57.9950   32.4310   44.0920 C   0  0  0  0  0  0  0  0  0  0  0  0
   57.4650   31.0530   44.4920 C   0  0  0  0  0  0  0  0  0  0  0  0
   57.4350   30.9300   45.9030 O   0  0  0  0  0  0  0  0  0  0  0  0
   58.2480   29.8640   46.3550 C   0  0  0  0  0  0  0  0  0  0  0  0
   59.3860   30.4000   47.2360 C   0  0  0  0  0  0  0  0  0  0  0  0
   59.4660   31.8740   47.2170 N   0  0  0  0  0  0  0  0  0  0  0  0
   60.2640   32.3960   48.3140 C   0  0  0  0  0  0  0  0  0  0  0  0
   61.5520   32.9020   48.0760 C   0  0  0  0  0  0  0  0  0  0  0  0
   62.3450   33.3470   49.1040 C   0  0  0  0  0  0  0  0  0  0  0  0
   61.9270   33.3250   50.4090 N   0  0  0  0  0  0  0  0  0  0  0  0
   62.8310   33.7850   51.4830 C   0  0  0  0  0  0  0  0  0  0  0  0
   60.6470   32.8860   50.7000 C   0  0  0  0  0  0  0  0  0  0  0  0
   60.1480   32.9050   52.0260 C   0  0  0  0  0  0  0  0  0  0  0  0
   58.8590   32.4680   52.3180 C   0  0  0  0  0  0  0  0  0  0  0  0
   58.0250   31.9940   51.3060 C   0  0  0  0  0  0  0  0  0  0  0  0
   56.6220   31.5660   51.6240 C   0  0  0  0  0  0  0  0  0  0  0  0
   58.4800   31.9880   49.9840 C   0  0  0  0  0  0  0  0  0  0  0  0
   59.7880   32.4140   49.6560 C   0  0  0  0  0  0  0  0  0  0  0  0
   63.6620   33.8370   48.6060 C   0  0  0  0  0  0  0  0  0  0  0  0
   63.5710   33.7210   47.0790 C   0  0  0  0  0  0  0  0  0  0  0  0
   62.2270   33.0560   46.7560 C   0  0  0  0  0  0  0  0  0  0  0  0
   59.3237   35.0312   46.9695 H   0  0  0  0  0  0  0  0  0  0  0  0
   60.6195   34.7586   45.7557 H   0  0  0  0  0  0  0  0  0  0  0  0
   59.6988   36.3011   45.7557 H   0  0  0  0  0  0  0  0  0  0  0  0
   57.6559   35.1388   45.0830 H   0  0  0  0  0  0  0  0  0  0  0  0
   58.9864   34.7016   43.9466 H   0  0  0  0  0  0  0  0  0  0  0  0
   57.6400   33.1130   45.9860 H   0  0  0  0  0  0  0  0  0  0  0  0
   57.2019   32.9873   43.5709 H   0  0  0  0  0  0  0  0  0  0  0  0
   58.8631   32.3013   43.4290 H   0  0  0  0  0  0  0  0  0  0  0  0
   56.4472   30.9260   44.0947 H   0  0  0  0  0  0  0  0  0  0  0  0
   58.1292   30.2796   44.0788 H   0  0  0  0  0  0  0  0  0  0  0  0
   57.6351   29.1628   46.9403 H   0  0  0  0  0  0  0  0  0  0  0  0
   58.6807   29.3492   45.4845 H   0  0  0  0  0  0  0  0  0  0  0  0
   59.2173   30.0687   48.2713 H   0  0  0  0  0  0  0  0  0  0  0  0
   60.3328   30.0076   46.8364 H   0  0  0  0  0  0  0  0  0  0  0  0
   58.5050   32.2790   47.2590 H   0  0  0  0  0  0  0  0  0  0  0  0
   59.8420   32.1800   46.2900 H   0  0  0  0  0  0  0  0  0  0  0  0
   62.3834   33.5572   52.4617 H   0  0  0  0  0  0  0  0  0  0  0  0
   63.7987   33.2697   51.3935 H   0  0  0  0  0  0  0  0  0  0  0  0
   62.9841   34.8706   51.3935 H   0  0  0  0  0  0  0  0  0  0  0  0
   60.7910   33.2718   52.8396 H   0  0  0  0  0  0  0  0  0  0  0  0
   58.4953   32.4968   53.3557 H   0  0  0  0  0  0  0  0  0  0  0  0
   56.4894   31.5256   52.7152 H   0  0  0  0  0  0  0  0  0  0  0  0
   55.9121   32.2884   51.1949 H   0  0  0  0  0  0  0  0  0  0  0  0
   56.4362   30.5703   51.1949 H   0  0  0  0  0  0  0  0  0  0  0  0
   57.8077   31.6453   49.1837 H   0  0  0  0  0  0  0  0  0  0  0  0
   63.8252   34.8826   48.9062 H   0  0  0  0  0  0  0  0  0  0  0  0
   64.5027   33.2589   49.0171 H   0  0  0  0  0  0  0  0  0  0  0  0
   63.6171   34.7202   46.6214 H   0  0  0  0  0  0  0  0  0  0  0  0
   64.4071   33.1271   46.6812 H   0  0  0  0  0  0  0  0  0  0  0  0
   61.6299   33.6935   46.0874 H   0  0  0  0  0  0  0  0  0  0  0  0
   62.3534   32.0932   46.2392 H   0  0  0  0  0  0  0  0  0  0  0  0
  1  2  1  0
  2  3  1  0
  3  4  1  0
  4  5  1  0
  5  6  1  0
  6  7  1  0
  7  8  1  0
  8  9  1  0
  9 10  1  0
 10 11  2  0
 11 12  1  0
 12 13  2  0
 13 14  1  0
 13 15  1  0
 15 16  2  0
 16 17  1  0
 17 18  2  0
 18 19  1  0
 18 20  1  0
 20 21  2  0
 12 22  1  0
 22 23  1  0
 23 24  1  0
 21 10  1  0
 24 11  1  0
 21 15  1  0
  1 25  1  0
  1 26  1  0
  1 27  1  0
  2 28  1  0
  2 29  1  0
  3 30  1  0
  4 31  1  0
  4 32  1  0
  5 33  1  0
  5 34  1  0
  7 35  1  0
  7 36  1  0
  8 37  1  0
  8 38  1  0
  9 39  1  0
  9 40  1  0
 14 41  1  0
 14 42  1  0
 14 43  1  0
 16 44  1  0
 17 45  1  0
 19 46  1  0
 19 47  1  0
 19 48  1  0
 20 49  1  0
 22 50  1  0
 22 51  1  0
 23 52  1  0
 23 53  1  0
 24 54  1  0
 24 55  1  0
M  CHG  2   9   1  13   1
M  END
>  <UniqueID>  (1) 
1

>  <SMILES>  (1) 
CCNCCOCC[NH2+]c1c2c([n+](C)c3ccc(C)cc13)CCC2

>  <Energy>  (1) 
72.8333939419915

>  <Genealogy>  (1) 
CCNCCOCC[NH2+]c1c2c([n+](C)c3ccc(C)cc13)CCC2 (protonated)
CCNCCOCC[NH2+]c1c2c([n+](C)c3ccc(C)cc13)CCC2 (3D coordinates assigned)
CCNCCOCC[NH2+]c1c2c([n+](C)c3ccc(C)cc13)CCC2 (nonaromatic ring conformer: 72.8333939419915 kcal/mol)

>  <smiles>  (1) 
CCNCCOCCNc1c2c([n+](C)c3ccc(C)cc13)CCC2

>  <score_type>  (1) 
oracle

>  <origin>  (1) 
adg

>  <m_score__min__energy>  (1) 
-3.79

>  <m_primary>  (1) 
energy

$$$$
1:0
     RDKit          3D

 55 59  0  0  0  0  0  0  0  0999 V2000
   57.7300   27.3820   46.7750 C   0  0  0  0  0  0  0  0  0  0  0  0
   58.7160   28.2240   46.0970 N   0  0  0  0  0  0  0  0  0  0  0  0
   58.9460   28.3140   44.7710 C   0  0  0  0  0  0  0  0  0  0  0  0
   57.9980   27.4740   43.4970 S   0  0  0  0  0  0  0  0  0  0  0  0
   57.0510   28.9550   42.9970 C   0  0  0  0  0  0  0  0  0  0  0  0
   56.1150   29.4200   44.1170 C   0  0  0  0  0  0  0  0  0  0  0  0
   56.2530   30.9140   44.4490 C   0  0  0  0  0  0  0  0  0  0  0  0
   57.6710   31.2950   44.6660 N   0  0  0  0  0  0  0  0  0  0  0  0
   58.0560   32.4990   43.8990 C   0  0  0  0  0  0  0  0  0  0  0  0
   58.5660   33.5610   44.8550 C   0  0  1  0  0  0  0  0  0  0  0  0
   57.5470   34.1000   45.8500 C   0  0  0  0  0  0  0  0  0  0  0  0
   58.4900   32.9670   46.2330 C   0  0  2  0  0  0  0  0  0  0  0  0
   59.6360   33.2850   47.1570 C   0  0  0  0  0  0  0  0  0  0  0  0
   59.4050   33.8990   48.3970 C   0  0  0  0  0  0  0  0  0  0  0  0
   60.4780   34.2280   49.2280 C   0  0  0  0  0  0  0  0  0  0  0  0
   61.7880   33.9520   48.8270 C   0  0  0  0  0  0  0  0  0  0  0  0
   62.0370   33.3320   47.5910 C   0  0  0  0  0  0  0  0  0  0  0  0
   63.4560   33.0770   47.1470 C   0  0  0  0  0  0  0  0  0  0  0  0
   63.7490   33.7840   45.9940 F   0  0  0  0  0  0  0  0  0  0  0  0
   64.3250   33.4710   48.1490 F   0  0  0  0  0  0  0  0  0  0  0  0
   63.6480   31.7300   46.8880 F   0  0  0  0  0  0  0  0  0  0  0  0
   60.9540   33.0300   46.7470 C   0  0  0  0  0  0  0  0  0  0  0  0
   57.9910   31.5420   46.0860 C   0  0  0  0  0  0  0  0  0  0  0  0
   60.0100   29.0930   44.5040 N   0  0  0  0  0  0  0  0  0  0  0  0
   60.4670   29.5310   45.6680 N   0  0  0  0  0  0  0  0  0  0  0  0
   59.6740   29.0160   46.6290 C   0  0  0  0  0  0  0  0  0  0  0  0
   59.9040   29.2710   48.0650 C   0  0  0  0  0  0  0  0  0  0  0  0
   60.7040   28.4320   48.8560 C   0  0  0  0  0  0  0  0  0  0  0  0
   60.8610   28.7060   50.1780 N   0  0  0  0  0  0  0  0  0  0  0  0
   60.2500   29.7740   50.7550 C   0  0  0  0  0  0  0  0  0  0  0  0
   59.4330   30.5950   49.9800 C   0  0  0  0  0  0  0  0  0  0  0  0
   59.2730   30.3220   48.6580 N   0  0  0  0  0  0  0  0  0  0  0  0
   57.8484   27.4831   47.8639 H   0  0  0  0  0  0  0  0  0  0  0  0
   56.7169   27.6980   46.4854 H   0  0  0  0  0  0  0  0  0  0  0  0
   57.8834   26.3320   46.4854 H   0  0  0  0  0  0  0  0  0  0  0  0
   57.7542   29.7662   42.7575 H   0  0  0  0  0  0  0  0  0  0  0  0
   56.4410   28.6975   42.1186 H   0  0  0  0  0  0  0  0  0  0  0  0
   55.0775   29.2264   43.8068 H   0  0  0  0  0  0  0  0  0  0  0  0
   56.3904   28.8600   45.0228 H   0  0  0  0  0  0  0  0  0  0  0  0
   55.8481   31.5045   43.6139 H   0  0  0  0  0  0  0  0  0  0  0  0
   55.6964   31.1140   45.3765 H   0  0  0  0  0  0  0  0  0  0  0  0
   58.8483   32.2397   43.1813 H   0  0  0  0  0  0  0  0  0  0  0  0
   57.1815   32.8836   43.3536 H   0  0  0  0  0  0  0  0  0  0  0  0
   59.2935   34.0718   44.2071 H   0  0  0  0  0  0  0  0  0  0  0  0
   57.6785   35.1003   46.2883 H   0  0  0  0  0  0  0  0  0  0  0  0
   56.4567   34.2460   45.8527 H   0  0  0  0  0  0  0  0  0  0  0  0
   58.3760   34.1219   48.7156 H   0  0  0  0  0  0  0  0  0  0  0  0
   60.2915   34.7058   50.2011 H   0  0  0  0  0  0  0  0  0  0  0  0
   62.6290   34.2217   49.4828 H   0  0  0  0  0  0  0  0  0  0  0  0
   61.1412   32.5899   45.7564 H   0  0  0  0  0  0  0  0  0  0  0  0
   58.7714   30.8409   46.4166 H   0  0  0  0  0  0  0  0  0  0  0  0
   57.0924   31.3947   46.7031 H   0  0  0  0  0  0  0  0  0  0  0  0
   61.2008   27.5583   48.4090 H   0  0  0  0  0  0  0  0  0  0  0  0
   60.3989   29.9884   51.8236 H   0  0  0  0  0  0  0  0  0  0  0  0
   58.9219   31.4567   50.4342 H   0  0  0  0  0  0  0  0  0  0  0  0
  1  2  1  0
  2  3  1  0
  3  4  1  0
  4  5  1  0
  5  6  1  0
  6  7  1  0
  7  8  1  0
  8  9  1  0
  9 10  1  0
 10 11  1  0
 11 12  1  0
 12 13  1  1
 13 14  2  0
 14 15  1  0
 15 16  2  0
 16 17  1  0
 17 18  1  0
 18 19  1  0
 18 20  1  0
 18 21  1  0
 17 22  2  0
 12 23  1  0
  3 24  2  0
 24 25  1  0
 25 26  2  0
 26 27  1  0
 27 28  2  0
 28 29  1  0
 29 30  2  0
 30 31  1  0
 31 32  2  0
 26  2  1  0
 32 27  1  0
 23  8  1  0
 12 10  1  0
 22 13  1  0
  1 33  1  0
  1 34  1  0
  1 35  1  0
  5 36  1  0
  5 37  1  0
  6 38  1  0
  6 39  1  0
  7 40  1  0
  7 41  1  0
  9 42  1  0
  9 43  1  0
 10 44  1  6
 11 45  1  0
 11 46  1  0
 14 47  1  0
 15 48  1  0
 16 49  1  0
 22 50  1  0
 23 51  1  0
 23 52  1  0
 28 53  1  0
 30 54  1  0
 31 55  1  0
M  END
>  <UniqueID>  (2) 
2

>  <SMILES>  (2) 
Cn1c(SCCCN2C[C@H]3C[C@@]3(c3cccc(C(F)(F)F)c3)C2)nnc1-c1cnccn1

>  <Energy>  (2) 
368.4392494282516

>  <Genealogy>  (2) 
Cn1c(SCCCN2C[C@H]3C[C@@]3(c3cccc(C(F)(F)F)c3)C2)nnc1-c1cnccn1 (chirality)
Cn1c(SCCCN2C[C@H]3C[C@@]3(c3cccc(C(F)(F)F)c3)C2)nnc1-c1cnccn1 (3D coordinates assigned)
Cn1c(SCCCN2C[C@H]3C[C@@]3(c3cccc(C(F)(F)F)c3)C2)nnc1-c1cnccn1 (nonaromatic ring conformer: 368.4392494282516 kcal/mol)

>  <smiles>  (2) 
Cn1c(SCCCN2CC3CC3(c3cccc(C(F)(F)F)c3)C2)nnc1-c1cnccn1

>  <score_type>  (2) 
oracle

>  <origin>  (2) 
adg

>  <m_score__min__energy>  (2) 
-10.119999999999999

>  <m_primary>  (2) 
energy

$$$$
2:0
     RDKit          3D

 55 58  0  0  0  0  0  0  0  0999 V2000
   59.4970   29.7990   46.6050 C   0  0  0  0  0  0  0  0  0  0  0  0
   60.9530   30.1960   46.8190 C   0  0  0  0  0  0  0  0  0  0  0  0
   61.0910   30.9910   47.9950 O   0  0  0  0  0  0  0  0  0  0  0  0
   62.2420   31.7100   48.3660 C   0  0  0  0  0  0  0  0  0  0  0  0
   63.0020   31.3470   49.4450 N   0  0  0  0  0  0  0  0  0  0  0  0
   64.1170   32.0420   49.7990 C   0  0  0  0  0  0  0  0  0  0  0  0
   64.5130   33.1570   49.0640 C   0  0  0  0  0  0  0  0  0  0  0  0
   63.7580   33.5540   47.9630 C   0  0  0  0  0  0  0  0  0  0  0  0
   62.6090   32.8350   47.6040 C   0  0  0  0  0  0  0  0  0  0  0  0
   61.8020   33.2450   46.3980 C   0  0  0  0  0  0  0  0  0  0  0  0
   60.9570   34.4150   46.7230 N   0  0  0  0  0  0  0  0  0  0  0  0
   60.7700   34.5890   48.1870 C   0  0  0  0  0  0  0  0  0  0  0  0
   59.7130   33.6670   48.7050 C   0  0  0  0  0  0  0  0  0  0  0  0
   59.4370   33.2540   49.9870 C   0  0  0  0  0  0  0  0  0  0  0  0
   58.3600   32.4440   49.9240 N   0  0  0  0  0  0  0  0  0  0  0  0
   57.7800   31.7150   51.0430 C   0  0  0  0  0  0  0  0  0  0  0  0
   57.9480   32.3170   48.6690 N   0  0  0  0  0  0  0  0  0  0  0  0
   58.7530   33.0920   47.9170 C   0  0  0  0  0  0  0  0  0  0  0  0
   58.7440   33.2100   46.4200 C   0  0  1  0  0  0  0  0  0  0  0  0
   57.3150   33.4010   45.8930 C   0  0  0  0  0  0  0  0  0  0  0  0
   56.8750   32.2090   45.2620 O   0  0  0  0  0  0  0  0  0  0  0  0
   57.6860   31.8730   44.1540 C   0  0  0  0  0  0  0  0  0  0  0  0
   57.0160   30.7850   43.3050 C   0  0  0  0  0  0  0  0  0  0  0  0
   55.8520   30.0840   43.9890 C   0  0  0  0  0  0  0  0  0  0  0  0
   57.1710   29.3540   43.8000 C   0  0  0  0  0  0  0  0  0  0  0  0
   59.6620   34.3920   45.9940 C   0  0  0  0  0  0  0  0  0  0  0  0
   59.0063   29.6652   47.5803 H   0  0  0  0  0  0  0  0  0  0  0  0
   58.9807   30.5892   46.0401 H   0  0  0  0  0  0  0  0  0  0  0  0
   59.4533   28.8561   46.0401 H   0  0  0  0  0  0  0  0  0  0  0  0
   61.5635   29.2870   46.9239 H   0  0  0  0  0  0  0  0  0  0  0  0
   61.2902   30.7842   45.9528 H   0  0  0  0  0  0  0  0  0  0  0  0
   62.7430   30.5240   50.0310 H   0  0  0  0  0  0  0  0  0  0  0  0
   64.7083   31.7219   50.6696 H   0  0  0  0  0  0  0  0  0  0  0  0
   65.4141   33.7190   49.3506 H   0  0  0  0  0  0  0  0  0  0  0  0
   64.0632   34.4320   47.3748 H   0  0  0  0  0  0  0  0  0  0  0  0
   62.4844   33.5067   45.5759 H   0  0  0  0  0  0  0  0  0  0  0  0
   61.1554   32.4076   46.0969 H   0  0  0  0  0  0  0  0  0  0  0  0
   61.7190   34.3723   48.6992 H   0  0  0  0  0  0  0  0  0  0  0  0
   60.4563   35.6256   48.3797 H   0  0  0  0  0  0  0  0  0  0  0  0
   59.9914   33.5323   50.8954 H   0  0  0  0  0  0  0  0  0  0  0  0
   58.1302   32.1551   51.9883 H   0  0  0  0  0  0  0  0  0  0  0  0
   56.6830   31.7787   50.9930 H   0  0  0  0  0  0  0  0  0  0  0  0
   58.0887   30.6604   50.9930 H   0  0  0  0  0  0  0  0  0  0  0  0
   59.1313   32.2788   45.9809 H   0  0  0  0  0  0  0  0  0  0  0  0
   56.6447   33.6396   46.7319 H   0  0  0  0  0  0  0  0  0  0  0  0
   57.3024   34.2250   45.1644 H   0  0  0  0  0  0  0  0  0  0  0  0
   57.8425   32.7691   43.5355 H   0  0  0  0  0  0  0  0  0  0  0  0
   58.6499   31.4921   44.5225 H   0  0  0  0  0  0  0  0  0  0  0  0
   57.1806   31.2874   42.3404 H   0  0  0  0  0  0  0  0  0  0  0  0
   55.5362   30.3971   44.9951 H   0  0  0  0  0  0  0  0  0  0  0  0
   54.8045   29.8778   43.7240 H   0  0  0  0  0  0  0  0  0  0  0  0
   57.8100   29.1389   44.6692 H   0  0  0  0  0  0  0  0  0  0  0  0
   57.4737   28.4010   43.3415 H   0  0  0  0  0  0  0  0  0  0  0  0
   59.8678   34.3051   44.9169 H   0  0  0  0  0  0  0  0  0  0  0  0
   59.1314   35.3243   46.2374 H   0  0  0  0  0  0  0  0  0  0  0  0
  1  2  1  0
  2  3  1  0
  3  4  1  0
  4  5  2  0
  5  6  1  0
  6  7  2  0
  7  8  1  0
  8  9  2  0
  9 10  1  0
 10 11  1  0
 11 12  1  0
 12 13  1  0
 13 14  2  0
 14 15  1  0
 15 16  1  0
 15 17  1  0
 17 18  2  0
 18 19  1  0
 19 20  1  0
 20 21  1  0
 21 22  1  0
 22 23  1  0
 23 24  1  0
 24 25  1  0
 19 26  1  0
  9  4  1  0
 26 11  1  0
 18 13  1  0
 25 23  1  0
  1 27  1  0
  1 28  1  0
  1 29  1  0
  2 30  1  0
  2 31  1  0
  5 32  1  0
  6 33  1  0
  7 34  1  0
  8 35  1  0
 10 36  1  0
 10 37  1  0
 12 38  1  0
 12 39  1  0
 14 40  1  0
 16 41  1  0
 16 42  1  0
 16 43  1  0
 19 44  1  6
 20 45  1  0
 20 46  1  0
 22 47  1  0
 22 48  1  0
 23 49  1  0
 24 50  1  0
 24 51  1  0
 25 52  1  0
 25 53  1  0
 26 54  1  0
 26 55  1  0
M  CHG  1   5   1
M  END
>  <UniqueID>  (3) 
3

>  <SMILES>  (3) 
CCOc1[nH+]cccc1CN1Cc2cn(C)nc2[C@@H](COCC2CC2)C1

>  <Energy>  (3) 
355.56958531517887

>  <Genealogy>  (3) 
CCOc1[nH+]cccc1CN1Cc2cn(C)nc2C(COCC2CC2)C1 (protonated)
CCOc1[nH+]cccc1CN1Cc2cn(C)nc2[C@@H](COCC2CC2)C1 (chirality)
CCOc1[nH+]cccc1CN1Cc2cn(C)nc2[C@@H](COCC2CC2)C1 (3D coordinates assigned)
CCOc1[nH+]cccc1CN1Cc2cn(C)nc2[C@@H](COCC2CC2)C1 (nonaromatic ring conformer: 355.56958531517887 kcal/mol)

>  <smiles>  (3) 
CCOc1ncccc1CN1Cc2cn(C)nc2C(COCC2CC2)C1

>  <score_type>  (3) 
oracle

>  <origin>  (3) 
adg

>  <m_score__min__energy>  (3) 
-6.04

>  <m_primary>  (3) 
energy

$$$$
3:0
     RDKit          3D

 29 30  0  0  0  0  0  0  0  0999 V2000
   57.0420   30.8510   43.3980 C   0  0  0  0  0  0  0  0  0  0  0  0
   57.7710   32.1630   43.6430 C   0  0  0  0  0  0  0  0  0  0  0  0
   57.0240   33.0350   45.0590 S   0  0  0  0  0  0  0  0  0  0  0  0
   58.5940   33.6970   45.6260 C   0  0  0  0  0  0  0  0  0  0  0  0
   58.9930   34.9590   45.4040 N   0  0  0  0  0  0  0  0  0  0  0  0
   60.1450   35.1410   46.0270 N   0  0  0  0  0  0  0  0  0  0  0  0
   60.4470   33.9640   46.6150 C   0  0  0  0  0  0  0  0  0  0  0  0
   61.6410   33.7770   47.4600 C   0  0  0  0  0  0  0  0  0  0  0  0
   61.5820   33.9990   48.8460 C   0  0  0  0  0  0  0  0  0  0  0  0
   62.7150   33.7940   49.6400 C   0  0  0  0  0  0  0  0  0  0  0  0
   63.9090   33.3530   49.0590 C   0  0  0  0  0  0  0  0  0  0  0  0
   65.4540   33.0720   50.1470 Br  0  0  0  0  0  0  0  0  0  0  0  0
   63.9660   33.1060   47.6840 C   0  0  0  0  0  0  0  0  0  0  0  0
   62.8340   33.3090   46.8880 C   0  0  0  0  0  0  0  0  0  0  0  0
   59.4960   33.0280   46.3730 N   0  0  0  0  0  0  0  0  0  0  0  0
   59.3080   31.7310   47.0220 C   0  0  0  0  0  0  0  0  0  0  0  0
   56.7851   30.3886   44.3625 H   0  0  0  0  0  0  0  0  0  0  0  0
   56.1217   31.0439   42.8272 H   0  0  0  0  0  0  0  0  0  0  0  0
   57.6919   30.1715   42.8272 H   0  0  0  0  0  0  0  0  0  0  0  0
   58.8297   31.9568   43.8592 H   0  0  0  0  0  0  0  0  0  0  0  0
   57.6900   32.7945   42.7460 H   0  0  0  0  0  0  0  0  0  0  0  0
   58.4820   35.6960   44.8690 H   0  0  0  0  0  0  0  0  0  0  0  0
   60.6420   34.3350   49.3081 H   0  0  0  0  0  0  0  0  0  0  0  0
   62.6673   33.9798   50.7231 H   0  0  0  0  0  0  0  0  0  0  0  0
   64.9021   32.7516   47.2278 H   0  0  0  0  0  0  0  0  0  0  0  0
   62.8790   33.1009   45.8088 H   0  0  0  0  0  0  0  0  0  0  0  0
   59.3269   31.8613   48.1141 H   0  0  0  0  0  0  0  0  0  0  0  0
   58.3390   31.3069   46.7200 H   0  0  0  0  0  0  0  0  0  0  0  0
   60.1167   31.0492   46.7200 H   0  0  0  0  0  0  0  0  0  0  0  0
  1  2  1  0
  2  3  1  0
  3  4  1  0
  4  5  2  0
  5  6  1  0
  6  7  2  0
  7  8  1  0
  8  9  2  0
  9 10  1  0
 10 11  2  0
 11 12  1  0
 11 13  1  0
 13 14  2  0
  7 15  1  0
 15 16  1  0
 15  4  1  0
 14  8  1  0
  1 17  1  0
  1 18  1  0
  1 19  1  0
  2 20  1  0
  2 21  1  0
  5 22  1  0
  9 23  1  0
 10 24  1  0
 13 25  1  0
 14 26  1  0
 16 27  1  0
 16 28  1  0
 16 29  1  0
M  CHG  1   5   1
M  END
>  <UniqueID>  (4) 
4

>  <SMILES>  (4) 
CCSc1[nH+]nc(-c2ccc(Br)cc2)n1C

>  <Energy>  (4) 
62.73504542124751

>  <Genealogy>  (4) 
CCSc1[nH+]nc(-c2ccc(Br)cc2)n1C (protonated)
CCSc1[nH+]nc(-c2ccc(Br)cc2)n1C (3D coordinates assigned)
CCSc1[nH+]nc(-c2ccc(Br)cc2)n1C (optimized conformer: 62.73504542124751 kcal/mol)

>  <smiles>  (4) 
CCSc1nnc(-c2ccc(Br)cc2)n1C

>  <score_type>  (4) 
oracle

>  <origin>  (4) 
adg

>  <m_score__min__energy>  (4) 
-4.9800000000000004

>  <m_primary>  (4) 
energy

$$$$
4:0
     RDKit          3D

 70 72  0  0  0  0  0  0  0  0999 V2000
   63.3190   32.8390   47.3980 C   0  0  0  0  0  0  0  0  0  0  0  0
   63.1430   33.2290   48.8600 C   0  0  0  0  0  0  0  0  0  0  0  0
   61.8460   32.8500   49.2790 O   0  0  0  0  0  0  0  0  0  0  0  0
   61.2970   33.8280   50.1450 C   0  0  0  0  0  0  0  0  0  0  0  0
   59.7750   33.6540   50.2740 C   0  0  0  0  0  0  0  0  0  0  0  0
   59.4390   32.3020   50.5310 O   0  0  0  0  0  0  0  0  0  0  0  0
   58.0540   32.0650   50.3430 C   0  0  0  0  0  0  0  0  0  0  0  0
   57.4240   31.6720   51.6710 C   0  0  0  0  0  0  0  0  0  0  0  0
   57.5340   30.2730   51.8320 O   0  0  0  0  0  0  0  0  0  0  0  0
   58.8210   29.9440   52.3090 C   0  0  0  0  0  0  0  0  0  0  0  0
   59.4770   28.9600   51.3370 C   0  0  0  0  0  0  0  0  0  0  0  0
   60.4660   29.6550   50.4800 N   0  0  0  0  0  0  0  0  0  0  0  0
   61.7220   29.9340   51.2240 C   0  0  0  0  0  0  0  0  0  0  0  0
   62.4020   28.6840   51.7980 C   0  0  0  0  0  0  0  0  0  0  0  0
   60.6600   28.9360   49.1940 C   0  0  0  0  0  0  0  0  0  0  0  0
   61.0460   29.8580   48.0210 C   0  0  0  0  0  0  0  0  0  0  0  0
   60.1580   31.0220   47.9100 N   0  0  0  0  0  0  0  0  0  0  0  0
   59.4170   31.3390   46.7160 C   0  0  0  0  0  0  0  0  0  0  0  0
   59.3960   32.6610   46.2370 C   0  0  0  0  0  0  0  0  0  0  0  0
   60.0250   33.7060   46.9510 C   0  0  0  0  0  0  0  0  0  0  0  0
   59.9770   35.0170   46.4830 C   0  0  0  0  0  0  0  0  0  0  0  0
   59.2990   35.3130   45.3070 C   0  0  0  0  0  0  0  0  0  0  0  0
   58.6940   34.2950   44.5710 C   0  0  0  0  0  0  0  0  0  0  0  0
   58.7620   32.9440   44.9970 C   0  0  0  0  0  0  0  0  0  0  0  0
   58.2520   31.9130   44.2310 N   0  0  0  0  0  0  0  0  0  0  0  0
   57.9100   32.1520   42.8110 C   0  0  0  0  0  0  0  0  0  0  0  0
   58.0930   30.6570   44.7820 C   0  0  0  0  0  0  0  0  0  0  0  0
   57.3230   29.6520   44.1380 C   0  0  0  0  0  0  0  0  0  0  0  0
   57.1900   28.3800   44.6950 C   0  0  0  0  0  0  0  0  0  0  0  0
   57.7790   28.0890   45.9200 C   0  0  0  0  0  0  0  0  0  0  0  0
   58.5040   29.0680   46.5980 C   0  0  0  0  0  0  0  0  0  0  0  0
   58.6850   30.3490   46.0370 C   0  0  0  0  0  0  0  0  0  0  0  0
   63.7708   31.8379   47.3374 H   0  0  0  0  0  0  0  0  0  0  0  0
   62.3380   32.8293   46.9004 H   0  0  0  0  0  0  0  0  0  0  0  0
   63.9753   33.5682   46.9004 H   0  0  0  0  0  0  0  0  0  0  0  0
   63.8957   32.7125   49.4738 H   0  0  0  0  0  0  0  0  0  0  0  0
   63.2710   34.3154   48.9755 H   0  0  0  0  0  0  0  0  0  0  0  0
   61.7566   33.7274   51.1393 H   0  0  0  0  0  0  0  0  0  0  0  0
   61.5027   34.8240   49.7258 H   0  0  0  0  0  0  0  0  0  0  0  0
   59.4103   34.2791   51.1024 H   0  0  0  0  0  0  0  0  0  0  0  0
   59.3058   33.9580   49.3267 H   0  0  0  0  0  0  0  0  0  0  0  0
   57.5732   32.9793   49.9649 H   0  0  0  0  0  0  0  0  0  0  0  0
   57.9157   31.2515   49.6156 H   0  0  0  0  0  0  0  0  0  0  0  0
   57.9480   32.1809   52.4935 H   0  0  0  0  0  0  0  0  0  0  0  0
   56.3643   31.9669   51.6832 H   0  0  0  0  0  0  0  0  0  0  0  0
   59.4324   30.8558   52.3792 H   0  0  0  0  0  0  0  0  0  0  0  0
   58.7416   29.4846   53.3053 H   0  0  0  0  0  0  0  0  0  0  0  0
   59.9862   28.1710   51.9099 H   0  0  0  0  0  0  0  0  0  0  0  0
   58.6978   28.5219   50.6959 H   0  0  0  0  0  0  0  0  0  0  0  0
   62.4272   30.4267   50.5385 H   0  0  0  0  0  0  0  0  0  0  0  0
   61.4487   30.5676   52.0807 H   0  0  0  0  0  0  0  0  0  0  0  0
   62.3791   28.7261   52.8970 H   0  0  0  0  0  0  0  0  0  0  0  0
   61.8682   27.7857   51.4543 H   0  0  0  0  0  0  0  0  0  0  0  0
   63.4462   28.6441   51.4543 H   0  0  0  0  0  0  0  0  0  0  0  0
   61.4594   28.1925   49.3289 H   0  0  0  0  0  0  0  0  0  0  0  0
   59.6960   28.4735   48.9356 H   0  0  0  0  0  0  0  0  0  0  0  0
   62.0760   30.2125   48.1741 H   0  0  0  0  0  0  0  0  0  0  0  0
   60.9547   29.2760   47.0921 H   0  0  0  0  0  0  0  0  0  0  0  0
   60.2000   31.7340   48.6730 H   0  0  0  0  0  0  0  0  0  0  0  0
   60.5583   33.4815   47.8865 H   0  0  0  0  0  0  0  0  0  0  0  0
   60.4768   35.8194   47.0455 H   0  0  0  0  0  0  0  0  0  0  0  0
   59.2393   36.3536   44.9555 H   0  0  0  0  0  0  0  0  0  0  0  0
   58.1552   34.5438   43.6448 H   0  0  0  0  0  0  0  0  0  0  0  0
   57.0097   32.7812   42.7516 H   0  0  0  0  0  0  0  0  0  0  0  0
   58.7475   32.6624   42.3130 H   0  0  0  0  0  0  0  0  0  0  0  0
   57.7186   31.1900   42.3130 H   0  0  0  0  0  0  0  0  0  0  0  0
   56.8236   29.8804   43.1849 H   0  0  0  0  0  0  0  0  0  0  0  0
   56.6177   27.6054   44.1636 H   0  0  0  0  0  0  0  0  0  0  0  0
   57.6729   27.0844   46.3553 H   0  0  0  0  0  0  0  0  0  0  0  0
   58.9397   28.8386   47.5816 H   0  0  0  0  0  0  0  0  0  0  0  0
  1  2  1  0
  2  3  1  0
  3  4  1  0
  4  5  1  0
  5  6  1  0
  6  7  1  0
  7  8  1  0
  8  9  1  0
  9 10  1  0
 10 11  1  0
 11 12  1  0
 12 13  1  0
 13 14  1  0
 12 15  1  0
 15 16  1  0
 16 17  1  0
 17 18  1  0
 18 19  2  0
 19 20  1  0
 20 21  2  0
 21 22  1  0
 22 23  2  0
 23 24  1  0
 24 25  2  0
 25 26  1  0
 25 27  1  0
 27 28  2  0
 28 29  1  0
 29 30  2  0
 30 31  1  0
 31 32  2  0
 32 18  1  0
 24 19  1  0
 32 27  1  0
  1 33  1  0
  1 34  1  0
  1 35  1  0
  2 36  1  0
  2 37  1  0
  4 38  1  0
  4 39  1  0
  5 40  1  0
  5 41  1  0
  7 42  1  0
  7 43  1  0
  8 44  1  0
  8 45  1  0
 10 46  1  0
 10 47  1  0
 11 48  1  0
 11 49  1  0
 13 50  1  0
 13 51  1  0
 14 52  1  0
 14 53  1  0
 14 54  1  0
 15 55  1  0
 15 56  1  0
 16 57  1  0
 16 58  1  0
 17 59  1  0
 20 60  1  0
 21 61  1  0
 22 62  1  0
 23 63  1  0
 26 64  1  0
 26 65  1  0
 26 66  1  0
 28 67  1  0
 29 68  1  0
 30 69  1  0
 31 70  1  0
M  CHG  1  25   1
M  END
>  <UniqueID>  (5) 
5

>  <SMILES>  (5) 
CCOCCOCCOCCN(CC)CCNc1c2ccccc2[n+](C)c2ccccc12

>  <Energy>  (5) 
93.98881180156394

>  <Genealogy>  (5) 
CCOCCOCCOCCN(CC)CCNc1c2ccccc2[n+](C)c2ccccc12 (3D coordinates assigned)
CCOCCOCCOCCN(CC)CCNc1c2ccccc2[n+](C)c2ccccc12 (optimized conformer: 93.98881180156394 kcal/mol)

>  <smiles>  (5) 
CCOCCOCCOCCN(CC)CCNc1c2ccccc2[n+](C)c2ccccc12

>  <score_type>  (5) 
oracle

>  <origin>  (5) 
adg

>  <m_score__min__energy>  (5) 
-6.1799999999999997

>  <m_primary>  (5) 
energy

$$$$
5:0
     RDKit          3D

 37 39  0  0  0  0  0  0  0  0999 V2000
   56.6430   29.4210   42.6260 C   0  0  0  0  0  0  0  0  0  0  0  0
   55.7200   29.8090   43.7760 C   0  0  0  0  0  0  0  0  0  0  0  0
   56.4000   29.7080   45.0270 O   0  0  0  0  0  0  0  0  0  0  0  0
   57.4120   30.5710   45.4800 C   0  0  0  0  0  0  0  0  0  0  0  0
   58.3840   30.1800   46.4210 C   0  0  0  0  0  0  0  0  0  0  0  0
   59.3690   31.0800   46.8400 C   0  0  0  0  0  0  0  0  0  0  0  0
   59.3980   32.3870   46.3260 C   0  0  0  0  0  0  0  0  0  0  0  0
   60.3680   33.3340   46.7130 C   0  0  0  0  0  0  0  0  0  0  0  0
   61.3980   33.0200   47.6610 N   0  0  0  0  0  0  0  0  0  0  0  0
   62.5840   32.2770   47.2310 C   0  0  0  0  0  0  0  0  0  0  0  0
   63.7820   32.6810   48.0950 C   0  0  0  0  0  0  0  0  0  0  0  0
   63.4670   32.5790   49.4720 O   0  0  0  0  0  0  0  0  0  0  0  0
   62.4640   33.5210   49.8060 C   0  0  0  0  0  0  0  0  0  0  0  0
   61.1490   33.1910   49.0930 C   0  0  0  0  0  0  0  0  0  0  0  0
   60.3270   34.6150   46.1590 C   0  0  0  0  0  0  0  0  0  0  0  0
   59.3280   34.9270   45.2340 C   0  0  0  0  0  0  0  0  0  0  0  0
   59.2780   36.0770   44.7260 O   0  0  0  0  0  0  0  0  0  0  0  0
   58.4250   34.0160   44.8860 O   0  0  0  0  0  0  0  0  0  0  0  0
   58.4200   32.7830   45.3860 C   0  0  0  0  0  0  0  0  0  0  0  0
   57.4390   31.8760   44.9730 C   0  0  0  0  0  0  0  0  0  0  0  0
   57.5860   29.0246   43.0305 H   0  0  0  0  0  0  0  0  0  0  0  0
   56.1564   28.6513   42.0090 H   0  0  0  0  0  0  0  0  0  0  0  0
   56.8525   30.3072   42.0090 H   0  0  0  0  0  0  0  0  0  0  0  0
   55.3808   30.8455   43.6324 H   0  0  0  0  0  0  0  0  0  0  0  0
   54.8602   29.1230   43.7853 H   0  0  0  0  0  0  0  0  0  0  0  0
   58.3684   29.1588   46.8296 H   0  0  0  0  0  0  0  0  0  0  0  0
   60.1238   30.7633   47.5748 H   0  0  0  0  0  0  0  0  0  0  0  0
   62.4002   31.1980   47.3408 H   0  0  0  0  0  0  0  0  0  0  0  0
   62.7983   32.5076   46.1770 H   0  0  0  0  0  0  0  0  0  0  0  0
   64.6296   32.0173   47.8690 H   0  0  0  0  0  0  0  0  0  0  0  0
   64.0425   33.7257   47.8697 H   0  0  0  0  0  0  0  0  0  0  0  0
   62.2993   33.5022   50.8934 H   0  0  0  0  0  0  0  0  0  0  0  0
   62.7975   34.5194   49.4866 H   0  0  0  0  0  0  0  0  0  0  0  0
   60.7318   32.2607   49.5059 H   0  0  0  0  0  0  0  0  0  0  0  0
   60.4343   34.0133   49.2445 H   0  0  0  0  0  0  0  0  0  0  0  0
   61.0731   35.3700   46.4478 H   0  0  0  0  0  0  0  0  0  0  0  0
   56.6801   32.1912   44.2417 H   0  0  0  0  0  0  0  0  0  0  0  0
  1  2  1  0
  2  3  1  0
  3  4  1  0
  4  5  2  0
  5  6  1  0
  6  7  2  0
  7  8  1  0
  8  9  1  0
  9 10  1  0
 10 11  1  0
 11 12  1  0
 12 13  1  0
 13 14  1  0
  8 15  2  0
 15 16  1  0
 16 17  2  0
 16 18  1  0
 18 19  1  0
 19 20  2  0
 20  4  1  0
 19  7  1  0
 14  9  1  0
  1 21  1  0
  1 22  1  0
  1 23  1  0
  2 24  1  0
  2 25  1  0
  5 26  1  0
  6 27  1  0
 10 28  1  0
 10 29  1  0
 11 30  1  0
 11 31  1  0
 13 32  1  0
 13 33  1  0
 14 34  1  0
 14 35  1  0
 15 36  1  0
 20 37  1  0
M  END
>  <UniqueID>  (6) 
6

>  <SMILES>  (6) 
CCOc1ccc2c(N3CCOCC3)cc(=O)oc2c1

>  <Energy>  (6) 
47.994369560291794

>  <Genealogy>  (6) 
CCOc1ccc2c(N3CCOCC3)cc(=O)oc2c1 (3D coordinates assigned)
CCOc1ccc2c(N3CCOCC3)cc(=O)oc2c1 (nonaromatic ring conformer: 47.994369560291794 kcal/mol)

>  <smiles>  (6) 
CCOc1ccc2c(N3CCOCC3)cc(=O)oc2c1

>  <score_type>  (6) 
oracle

>  <origin>  (6) 
adg

>  <m_score__min__energy>  (6) 
-6.2000000000000002

>  <m_primary>  (6) 
energy

$$$$
6:0
     RDKit          3D

 41 43  0  0  0  0  0  0  0  0999 V2000
   57.0250   29.5140   43.5470 C   0  0  0  0  0  0  0  0  0  0  0  0
   56.7400   28.9810   44.9520 C   0  0  0  0  0  0  0  0  0  0  0  0
   57.9890   28.7740   45.7200 N   0  0  0  0  0  0  0  0  0  0  0  0
   57.9440   27.4970   46.4600 C   0  0  0  0  0  0  0  0  0  0  0  0
   59.1670   28.8030   44.8200 C   0  0  0  0  0  0  0  0  0  0  0  0
   60.4010   29.3220   45.5720 C   0  0  0  0  0  0  0  0  0  0  0  0
   60.0090   29.9880   46.8240 N   0  0  0  0  0  0  0  0  0  0  0  0
   60.2510   31.4130   46.7300 C   0  0  0  0  0  0  0  0  0  0  0  0
   59.2790   32.3310   46.2150 C   0  0  0  0  0  0  0  0  0  0  0  0
   58.0190   31.9040   45.7420 C   0  0  0  0  0  0  0  0  0  0  0  0
   57.0890   32.8260   45.2540 C   0  0  0  0  0  0  0  0  0  0  0  0
   57.3930   34.1860   45.2240 C   0  0  0  0  0  0  0  0  0  0  0  0
   58.6330   34.6390   45.6710 C   0  0  0  0  0  0  0  0  0  0  0  0
   59.5840   33.7330   46.1620 C   0  0  0  0  0  0  0  0  0  0  0  0
   60.8400   34.2080   46.5890 C   0  0  0  0  0  0  0  0  0  0  0  0
   61.7650   33.2830   47.0480 C   0  0  0  0  0  0  0  0  0  0  0  0
   63.0550   33.4600   47.4940 C   0  0  0  0  0  0  0  0  0  0  0  0
   63.5490   32.2790   47.8150 O   0  0  0  0  0  0  0  0  0  0  0  0
   62.6400   31.3460   47.5970 C   0  0  0  0  0  0  0  0  0  0  0  0
   61.4930   31.9470   47.1140 C   0  0  0  0  0  0  0  0  0  0  0  0
   57.5425   30.4819   43.6200 H   0  0  0  0  0  0  0  0  0  0  0  0
   57.6607   28.7982   43.0053 H   0  0  0  0  0  0  0  0  0  0  0  0
   56.0767   29.6452   43.0053 H   0  0  0  0  0  0  0  0  0  0  0  0
   56.1077   29.7049   45.4870 H   0  0  0  0  0  0  0  0  0  0  0  0
   56.2307   28.0108   44.8553 H   0  0  0  0  0  0  0  0  0  0  0  0
   57.9511   27.6993   47.5412 H   0  0  0  0  0  0  0  0  0  0  0  0
   57.0261   26.9518   46.1950 H   0  0  0  0  0  0  0  0  0  0  0  0
   58.8213   26.8886   46.1950 H   0  0  0  0  0  0  0  0  0  0  0  0
   59.3676   27.7859   44.4523 H   0  0  0  0  0  0  0  0  0  0  0  0
   58.9547   29.4747   43.9752 H   0  0  0  0  0  0  0  0  0  0  0  0
   61.0630   28.4753   45.8061 H   0  0  0  0  0  0  0  0  0  0  0  0
   60.9219   30.0507   44.9335 H   0  0  0  0  0  0  0  0  0  0  0  0
   60.5580   29.5840   47.6170 H   0  0  0  0  0  0  0  0  0  0  0  0
   59.0060   29.7990   47.0490 H   0  0  0  0  0  0  0  0  0  0  0  0
   57.7665   30.8335   45.7578 H   0  0  0  0  0  0  0  0  0  0  0  0
   56.1111   32.4763   44.8914 H   0  0  0  0  0  0  0  0  0  0  0  0
   56.6511   34.9048   44.8459 H   0  0  0  0  0  0  0  0  0  0  0  0
   58.8670   35.7133   45.6384 H   0  0  0  0  0  0  0  0  0  0  0  0
   61.0795   35.2812   46.5590 H   0  0  0  0  0  0  0  0  0  0  0  0
   63.5839   34.4215   47.5699 H   0  0  0  0  0  0  0  0  0  0  0  0
   62.7738   30.2681   47.7712 H   0  0  0  0  0  0  0  0  0  0  0  0
  1  2  1  0
  2  3  1  0
  3  4  1  0
  3  5  1  0
  5  6  1  0
  6  7  1  0
  7  8  1  0
  8  9  2  0
  9 10  1  0
 10 11  2  0
 11 12  1  0
 12 13  2  0
 13 14  1  0
 14 15  2  0
 15 16  1  0
 16 17  2  0
 17 18  1  0
 18 19  1  0
 19 20  2  0
 20  8  1  0
 14  9  1  0
 20 16  1  0
  1 21  1  0
  1 22  1  0
  1 23  1  0
  2 24  1  0
  2 25  1  0
  4 26  1  0
  4 27  1  0
  4 28  1  0
  5 29  1  0
  5 30  1  0
  6 31  1  0
  6 32  1  0
  7 33  1  0
  7 34  1  0
 10 35  1  0
 11 36  1  0
 12 37  1  0
 13 38  1  0
 15 39  1  0
 17 40  1  0
 19 41  1  0
M  CHG  1   7   1
M  END
>  <UniqueID>  (7) 
7

>  <SMILES>  (7) 
CCN(C)CC[NH2+]c1c2ccccc2cc2cocc12

>  <Energy>  (7) 
82.36508891856667

>  <Genealogy>  (7) 
CCN(C)CC[NH2+]c1c2ccccc2cc2cocc12 (protonated)
CCN(C)CC[NH2+]c1c2ccccc2cc2cocc12 (3D coordinates assigned)
CCN(C)CC[NH2+]c1c2ccccc2cc2cocc12 (optimized conformer: 82.36508891856667 kcal/mol)

>  <smiles>  (7) 
CCN(C)CCNc1c2ccccc2cc2cocc12

>  <score_type>  (7) 
oracle

>  <origin>  (7) 
adg

>  <m_score__min__energy>  (7) 
-4.7300000000000004

>  <m_primary>  (7) 
energy

$$$$
7:0
     RDKit          3D

 65 67  0  0  0  0  0  0  0  0999 V2000
   57.8950   27.1130   45.3810 C   0  0  0  0  0  0  0  0  0  0  0  0
   58.4600   27.4550   44.0040 C   0  0  0  0  0  0  0  0  0  0  0  0
   57.4810   28.2150   43.2090 N   0  0  0  0  0  0  0  0  0  0  0  0
   56.9580   29.3850   43.9390 C   0  0  0  0  0  0  0  0  0  0  0  0
   56.6700   30.5770   43.0060 C   0  0  0  0  0  0  0  0  0  0  0  0
   57.5420   31.8090   43.3310 C   0  0  0  0  0  0  0  0  0  0  0  0
   57.3700   32.3270   44.7720 C   0  0  0  0  0  0  0  0  0  0  0  0
   57.7990   33.7890   44.9900 C   0  0  0  0  0  0  0  0  0  0  0  0
   59.3050   33.9990   45.2530 C   0  0  0  0  0  0  0  0  0  0  0  0
   59.6390   34.8530   46.4890 C   0  0  0  0  0  0  0  0  0  0  0  0
   60.6920   34.2030   47.3980 C   0  0  0  0  0  0  0  0  0  0  0  0
   62.0690   34.2000   46.7280 C   0  0  0  0  0  0  0  0  0  0  0  0
   62.6520   32.8600   46.7460 N   0  0  0  0  0  0  0  0  0  0  0  0
   62.4390   31.9930   47.8680 C   0  0  0  0  0  0  0  0  0  0  0  0
   61.3690   31.0850   47.8660 C   0  0  0  0  0  0  0  0  0  0  0  0
   60.5220   30.9700   46.7430 C   0  0  0  0  0  0  0  0  0  0  0  0
   59.4880   30.0380   46.7240 C   0  0  0  0  0  0  0  0  0  0  0  0
   59.2930   29.1940   47.8120 C   0  0  0  0  0  0  0  0  0  0  0  0
   60.1140   29.2920   48.9340 C   0  0  0  0  0  0  0  0  0  0  0  0
   61.1510   30.2580   49.0010 C   0  0  0  0  0  0  0  0  0  0  0  0
   61.9520   30.3940   50.1220 N   0  0  0  0  0  0  0  0  0  0  0  0
   61.5600   29.7440   51.3930 C   0  0  0  0  0  0  0  0  0  0  0  0
   63.1040   31.1560   50.0610 C   0  0  0  0  0  0  0  0  0  0  0  0
   64.0830   31.1160   51.0860 C   0  0  0  0  0  0  0  0  0  0  0  0
   65.2140   31.9350   51.0360 C   0  0  0  0  0  0  0  0  0  0  0  0
   66.4020   31.8700   52.3250 Cl  0  0  0  0  0  0  0  0  0  0  0  0
   65.4040   32.7980   49.9610 C   0  0  0  0  0  0  0  0  0  0  0  0
   64.4830   32.8270   48.9180 C   0  0  0  0  0  0  0  0  0  0  0  0
   63.3420   31.9990   48.9420 C   0  0  0  0  0  0  0  0  0  0  0  0
   58.5593   27.5151   46.1601 H   0  0  0  0  0  0  0  0  0  0  0  0
   56.8943   27.5571   45.4874 H   0  0  0  0  0  0  0  0  0  0  0  0
   57.8245   26.0204   45.4874 H   0  0  0  0  0  0  0  0  0  0  0  0
   59.3704   28.0597   44.1282 H   0  0  0  0  0  0  0  0  0  0  0  0
   58.6906   26.5181   43.4758 H   0  0  0  0  0  0  0  0  0  0  0  0
   56.6720   27.5880   42.9870 H   0  0  0  0  0  0  0  0  0  0  0  0
   57.9140   28.5190   42.3050 H   0  0  0  0  0  0  0  0  0  0  0  0
   56.0241   29.0979   44.4443 H   0  0  0  0  0  0  0  0  0  0  0  0
   57.7253   29.7011   44.6610 H   0  0  0  0  0  0  0  0  0  0  0  0
   56.8683   30.2687   41.9689 H   0  0  0  0  0  0  0  0  0  0  0  0
   55.6183   30.8659   43.1491 H   0  0  0  0  0  0  0  0  0  0  0  0
   58.5974   31.5360   43.1838 H   0  0  0  0  0  0  0  0  0  0  0  0
   57.2197   32.6174   42.6582 H   0  0  0  0  0  0  0  0  0  0  0  0
   56.3074   32.2386   45.0425 H   0  0  0  0  0  0  0  0  0  0  0  0
   58.0317   31.7139   45.4015 H   0  0  0  0  0  0  0  0  0  0  0  0
   57.5275   34.3612   44.0906 H   0  0  0  0  0  0  0  0  0  0  0  0
   57.2801   34.1274   45.8990 H   0  0  0  0  0  0  0  0  0  0  0  0
   59.7687   33.0105   45.3864 H   0  0  0  0  0  0  0  0  0  0  0  0
   59.6935   34.5516   44.3848 H   0  0  0  0  0  0  0  0  0  0  0  0
   60.0214   35.8270   46.1497 H   0  0  0  0  0  0  0  0  0  0  0  0
   58.7152   34.9580   47.0769 H   0  0  0  0  0  0  0  0  0  0  0  0
   60.7517   34.7676   48.3402 H   0  0  0  0  0  0  0  0  0  0  0  0
   60.3939   33.1619   47.5907 H   0  0  0  0  0  0  0  0  0  0  0  0
   61.9633   34.5333   45.6851 H   0  0  0  0  0  0  0  0  0  0  0  0
   62.7322   34.8805   47.2821 H   0  0  0  0  0  0  0  0  0  0  0  0
   63.3090   32.5490   45.9930 H   0  0  0  0  0  0  0  0  0  0  0  0
   60.6806   31.6241   45.8730 H   0  0  0  0  0  0  0  0  0  0  0  0
   58.8254   29.9692   45.8486 H   0  0  0  0  0  0  0  0  0  0  0  0
   58.4871   28.4457   47.7869 H   0  0  0  0  0  0  0  0  0  0  0  0
   59.9553   28.6091   49.7816 H   0  0  0  0  0  0  0  0  0  0  0  0
   61.9227   30.3455   52.2396 H   0  0  0  0  0  0  0  0  0  0  0  0
   60.4639   29.6656   51.4419 H   0  0  0  0  0  0  0  0  0  0  0  0
   62.0021   28.7379   51.4419 H   0  0  0  0  0  0  0  0  0  0  0  0
   63.9499   30.4288   51.9346 H   0  0  0  0  0  0  0  0  0  0  0  0
   66.2834   33.4582   49.9356 H   0  0  0  0  0  0  0  0  0  0  0  0
   64.6470   33.5030   48.0659 H   0  0  0  0  0  0  0  0  0  0  0  0
  1  2  1  0
  2  3  1  0
  3  4  1  0
  4  5  1  0
  5  6  1  0
  6  7  1  0
  7  8  1  0
  8  9  1  0
  9 10  1  0
 10 11  1  0
 11 12  1  0
 12 13  1  0
 13 14  1  0
 14 15  2  0
 15 16  1  0
 16 17  2  0
 17 18  1  0
 18 19  2  0
 19 20  1  0
 20 21  2  0
 21 22  1  0
 21 23  1  0
 23 24  2  0
 24 25  1  0
 25 26  1  0
 25 27  2  0
 27 28  1  0
 28 29  2  0
 29 14  1  0
 20 15  1  0
 29 23  1  0
  1 30  1  0
  1 31  1  0
  1 32  1  0
  2 33  1  0
  2 34  1  0
  3 35  1  0
  3 36  1  0
  4 37  1  0
  4 38  1  0
  5 39  1  0
  5 40  1  0
  6 41  1  0
  6 42  1  0
  7 43  1  0
  7 44  1  0
  8 45  1  0
  8 46  1  0
  9 47  1  0
  9 48  1  0
 10 49  1  0
 10 50  1  0
 11 51  1  0
 11 52  1  0
 12 53  1  0
 12 54  1  0
 13 55  1  0
 16 56  1  0
 17 57  1  0
 18 58  1  0
 19 59  1  0
 22 60  1  0
 22 61  1  0
 22 62  1  0
 24 63  1  0
 27 64  1  0
 28 65  1  0
M  CHG  2   3   1  21   1
M  END
>  <UniqueID>  (8) 
8

>  <SMILES>  (8) 
CC[NH2+]CCCCCCCCCNc1c2ccccc2[n+](C)c2cc(Cl)ccc12

>  <Energy>  (8) 
79.83107824460035

>  <Genealogy>  (8) 
CC[NH2+]CCCCCCCCCNc1c2ccccc2[n+](C)c2cc(Cl)ccc12 (protonated)
CC[NH2+]CCCCCCCCCNc1c2ccccc2[n+](C)c2cc(Cl)ccc12 (3D coordinates assigned)
CC[NH2+]CCCCCCCCCNc1c2ccccc2[n+](C)c2cc(Cl)ccc12 (optimized conformer: 79.83107824460035 kcal/mol)

>  <smiles>  (8) 
CCNCCCCCCCCCNc1c2ccccc2[n+](C)c2cc(Cl)ccc12

>  <score_type>  (8) 
oracle

>  <origin>  (8) 
adg

>  <m_score__min__energy>  (8) 
-5.5199999999999996

>  <m_primary>  (8) 
energy

$$$$
8:0
     RDKit          3D

 50 52  0  0  0  0  0  0  0  0999 V2000
   57.3700   28.9740   43.8130 C   0  0  0  0  0  0  0  0  0  0  0  0
   56.6580   30.3110   43.6450 C   0  0  0  0  0  0  0  0  0  0  0  0
   56.6630   31.0450   44.8690 O   0  0  0  0  0  0  0  0  0  0  0  0
   57.5750   32.0590   45.2200 C   0  0  0  0  0  0  0  0  0  0  0  0
   57.4750   33.3620   44.7020 C   0  0  0  0  0  0  0  0  0  0  0  0
   58.3850   34.3460   45.0820 C   0  0  0  0  0  0  0  0  0  0  0  0
   59.4020   34.0540   45.9910 C   0  0  0  0  0  0  0  0  0  0  0  0
   59.5250   32.7580   46.5330 C   0  0  0  0  0  0  0  0  0  0  0  0
   58.6120   31.7590   46.1290 C   0  0  0  0  0  0  0  0  0  0  0  0
   58.7580   30.3800   46.7260 C   0  0  0  0  0  0  0  0  0  0  0  0
   60.2280   29.9250   46.7190 C   0  0  0  0  0  0  0  0  0  0  0  0
   61.2450   31.0340   47.0900 C   0  0  0  0  0  0  0  0  0  0  0  0
   60.5910   32.3570   47.5570 C   0  0  1  0  0  0  0  0  0  0  0  0
   61.6330   33.3860   47.7940 N   0  0  0  0  0  0  0  0  0  0  0  0
   61.3520   34.1830   49.0050 C   0  0  0  0  0  0  0  0  0  0  0  0
   59.8720   34.0990   49.4230 C   0  0  0  0  0  0  0  0  0  0  0  0
   59.6580   33.6980   50.8920 C   0  0  0  0  0  0  0  0  0  0  0  0
   58.8500   32.4320   51.0250 C   0  0  0  0  0  0  0  0  0  0  0  0
   57.6970   32.4000   51.8250 C   0  0  0  0  0  0  0  0  0  0  0  0
   56.9800   31.2080   51.9500 C   0  0  0  0  0  0  0  0  0  0  0  0
   57.3970   30.0880   51.3020 N   0  0  0  0  0  0  0  0  0  0  0  0
   58.5110   30.0900   50.5220 C   0  0  0  0  0  0  0  0  0  0  0  0
   59.2580   31.2600   50.3700 C   0  0  0  0  0  0  0  0  0  0  0  0
   57.4876   28.7532   44.8842 H   0  0  0  0  0  0  0  0  0  0  0  0
   56.7754   28.1797   43.3380 H   0  0  0  0  0  0  0  0  0  0  0  0
   58.3609   29.0240   43.3380 H   0  0  0  0  0  0  0  0  0  0  0  0
   57.1721   30.8985   42.8700 H   0  0  0  0  0  0  0  0  0  0  0  0
   55.6149   30.1207   43.3522 H   0  0  0  0  0  0  0  0  0  0  0  0
   56.6720   33.6065   43.9911 H   0  0  0  0  0  0  0  0  0  0  0  0
   58.3010   35.3595   44.6627 H   0  0  0  0  0  0  0  0  0  0  0  0
   60.1126   34.8398   46.2869 H   0  0  0  0  0  0  0  0  0  0  0  0
   58.3924   30.3972   47.7633 H   0  0  0  0  0  0  0  0  0  0  0  0
   58.1712   29.6737   46.1204 H   0  0  0  0  0  0  0  0  0  0  0  0
   60.3368   29.1030   47.4419 H   0  0  0  0  0  0  0  0  0  0  0  0
   60.4573   29.6225   45.6866 H   0  0  0  0  0  0  0  0  0  0  0  0
   61.8849   30.6589   47.9023 H   0  0  0  0  0  0  0  0  0  0  0  0
   61.8122   31.2645   46.1761 H   0  0  0  0  0  0  0  0  0  0  0  0
   60.0796   32.2368   48.5235 H   0  0  0  0  0  0  0  0  0  0  0  0
   61.7540   33.9920   46.9490 H   0  0  0  0  0  0  0  0  0  0  0  0
   62.5510   32.9080   47.9520 H   0  0  0  0  0  0  0  0  0  0  0  0
   61.9754   33.8071   49.8296 H   0  0  0  0  0  0  0  0  0  0  0  0
   61.5811   35.2349   48.7791 H   0  0  0  0  0  0  0  0  0  0  0  0
   59.4111   35.0849   49.2630 H   0  0  0  0  0  0  0  0  0  0  0  0
   59.4122   33.3112   48.8082 H   0  0  0  0  0  0  0  0  0  0  0  0
   60.6397   33.5429   51.3635 H   0  0  0  0  0  0  0  0  0  0  0  0
   59.1004   34.5078   51.3853 H   0  0  0  0  0  0  0  0  0  0  0  0
   57.3608   33.3067   52.3494 H   0  0  0  0  0  0  0  0  0  0  0  0
   56.0752   31.1753   52.5746 H   0  0  0  0  0  0  0  0  0  0  0  0
   58.8242   29.1683   50.0099 H   0  0  0  0  0  0  0  0  0  0  0  0
   60.1604   31.2629   49.7409 H   0  0  0  0  0  0  0  0  0  0  0  0
  1  2  1  0
  2  3  1  0
  3  4  1  0
  4  5  2  0
  5  6  1  0
  6  7  2  0
  7  8  1  0
  8  9  2  0
  9 10  1  0
 10 11  1  0
 11 12  1  0
 12 13  1  0
 13 14  1  0
 14 15  1  0
 15 16  1  0
 16 17  1  0
 17 18  1  0
 18 19  2  0
 19 20  1  0
 20 21  2  0
 21 22  1  0
 22 23  2  0
  9  4  1  0
 23 18  1  0
 13  8  1  0
  1 24  1  0
  1 25  1  0
  1 26  1  0
  2 27  1  0
  2 28  1  0
  5 29  1  0
  6 30  1  0
  7 31  1  0
 10 32  1  0
 10 33  1  0
 11 34  1  0
 11 35  1  0
 12 36  1  0
 12 37  1  0
 13 38  1  1
 14 39  1  0
 14 40  1  0
 15 41  1  0
 15 42  1  0
 16 43  1  0
 16 44  1  0
 17 45  1  0
 17 46  1  0
 19 47  1  0
 20 48  1  0
 22 49  1  0
 23 50  1  0
M  CHG  1  14   1
M  END
>  <UniqueID>  (9) 
9

>  <SMILES>  (9) 
CCOc1cccc2c1CCC[C@H]2[NH2+]CCCc1ccncc1

>  <Energy>  (9) 
57.80509169574481

>  <Genealogy>  (9) 
CCOc1cccc2c1CCCC2[NH2+]CCCc1ccncc1 (protonated)
CCOc1cccc2c1CCC[C@H]2[NH2+]CCCc1ccncc1 (chirality)
CCOc1cccc2c1CCC[C@H]2[NH2+]CCCc1ccncc1 (3D coordinates assigned)
CCOc1cccc2c1CCC[C@H]2[NH2+]CCCc1ccncc1 (nonaromatic ring conformer: 57.80509169574481 kcal/mol)

>  <smiles>  (9) 
CCOc1cccc2c1CCCC2NCCCc1ccncc1

>  <score_type>  (9) 
oracle

>  <origin>  (9) 
adg

>  <m_score__min__energy>  (9) 
-5.8300000000000001

>  <m_primary>  (9) 
energy

$$$$
9:0
     RDKit          3D

 55 57  0  0  0  0  0  0  0  0999 V2000
   56.2920   29.7180   42.6850 C   0  0  0  0  0  0  0  0  0  0  0  0
   55.6590   30.0680   44.0220 C   0  0  0  0  0  0  0  0  0  0  0  0
   56.6550   30.0870   45.0140 O   0  0  0  0  0  0  0  0  0  0  0  0
   56.9480   31.3970   45.2400 N   0  0  0  0  0  0  0  0  0  0  0  0
   58.2550   31.6770   44.6400 C   0  0  0  0  0  0  0  0  0  0  0  0
   58.3200   33.1030   44.0660 C   0  0  0  0  0  0  0  0  0  0  0  0
   57.8990   34.1960   45.0630 C   0  0  0  0  0  0  0  0  0  0  0  0
   59.0930   35.0180   45.5850 C   0  0  0  0  0  0  0  0  0  0  0  0
   59.2450   34.9090   47.0490 N   0  0  0  0  0  0  0  0  0  0  0  0
   59.6150   33.5650   47.4510 C   0  0  0  0  0  0  0  0  0  0  0  0
   58.6200   32.7110   47.9270 C   0  0  0  0  0  0  0  0  0  0  0  0
   58.9090   31.3890   48.2290 C   0  0  0  0  0  0  0  0  0  0  0  0
   60.1650   30.8730   48.0670 N   0  0  0  0  0  0  0  0  0  0  0  0
   60.2990   29.4110   48.2620 C   0  0  0  0  0  0  0  0  0  0  0  0
   59.6010   28.6620   47.1500 C   0  0  0  0  0  0  0  0  0  0  0  0
   58.5220   27.8130   47.4580 C   0  0  0  0  0  0  0  0  0  0  0  0
   57.8380   27.1370   46.4440 C   0  0  0  0  0  0  0  0  0  0  0  0
   58.2170   27.3050   45.1120 C   0  0  0  0  0  0  0  0  0  0  0  0
   59.2900   28.1400   44.7920 C   0  0  0  0  0  0  0  0  0  0  0  0
   59.9880   28.8120   45.8020 C   0  0  0  0  0  0  0  0  0  0  0  0
   61.0480   29.5810   45.4590 F   0  0  0  0  0  0  0  0  0  0  0  0
   61.2020   31.6980   47.6580 C   0  0  0  0  0  0  0  0  0  0  0  0
   62.5380   31.2340   47.5570 C   0  0  0  0  0  0  0  0  0  0  0  0
   63.5630   32.0730   47.1260 C   0  0  0  0  0  0  0  0  0  0  0  0
   63.2970   33.3940   46.7960 C   0  0  0  0  0  0  0  0  0  0  0  0
   62.0020   33.8920   46.9030 C   0  0  0  0  0  0  0  0  0  0  0  0
   60.9390   33.0670   47.3340 C   0  0  0  0  0  0  0  0  0  0  0  0
   57.2429   29.1922   42.8560 H   0  0  0  0  0  0  0  0  0  0  0  0
   55.6110   29.0683   42.1158 H   0  0  0  0  0  0  0  0  0  0  0  0
   56.4802   30.6403   42.1158 H   0  0  0  0  0  0  0  0  0  0  0  0
   55.1856   31.0588   43.9568 H   0  0  0  0  0  0  0  0  0  0  0  0
   54.8967   29.3173   44.2779 H   0  0  0  0  0  0  0  0  0  0  0  0
   57.0520   31.5090   46.2760 H   0  0  0  0  0  0  0  0  0  0  0  0
   59.0326   31.5662   45.4101 H   0  0  0  0  0  0  0  0  0  0  0  0
   58.4149   30.9663   43.8157 H   0  0  0  0  0  0  0  0  0  0  0  0
   59.3546   33.3023   43.7500 H   0  0  0  0  0  0  0  0  0  0  0  0
   57.6076   33.1430   43.2288 H   0  0  0  0  0  0  0  0  0  0  0  0
   57.1954   34.8770   44.5619 H   0  0  0  0  0  0  0  0  0  0  0  0
   57.4369   33.6965   45.9273 H   0  0  0  0  0  0  0  0  0  0  0  0
   60.0125   34.6520   45.1048 H   0  0  0  0  0  0  0  0  0  0  0  0
   58.9087   36.0748   45.3415 H   0  0  0  0  0  0  0  0  0  0  0  0
   58.3490   35.1970   47.5060 H   0  0  0  0  0  0  0  0  0  0  0  0
   59.9580   35.5950   47.3850 H   0  0  0  0  0  0  0  0  0  0  0  0
   57.5965   33.0900   48.0640 H   0  0  0  0  0  0  0  0  0  0  0  0
   58.1073   30.7385   48.6087 H   0  0  0  0  0  0  0  0  0  0  0  0
   61.3657   29.1426   48.2652 H   0  0  0  0  0  0  0  0  0  0  0  0
   59.8358   29.1363   49.2211 H   0  0  0  0  0  0  0  0  0  0  0  0
   58.2143   27.6803   48.5057 H   0  0  0  0  0  0  0  0  0  0  0  0
   56.9994   26.4714   46.6966 H   0  0  0  0  0  0  0  0  0  0  0  0
   57.6711   26.7802   44.3141 H   0  0  0  0  0  0  0  0  0  0  0  0
   59.5879   28.2701   43.7411 H   0  0  0  0  0  0  0  0  0  0  0  0
   62.7693   30.1922   47.8239 H   0  0  0  0  0  0  0  0  0  0  0  0
   64.5896   31.6858   47.0468 H   0  0  0  0  0  0  0  0  0  0  0  0
   64.1105   34.0483   46.4495 H   0  0  0  0  0  0  0  0  0  0  0  0
   61.8030   34.9434   46.6483 H   0  0  0  0  0  0  0  0  0  0  0  0
  1  2  1  0
  2  3  1  0
  3  4  1  0
  4  5  1  0
  5  6  1  0
  6  7  1  0
  7  8  1  0
  8  9  1  0
  9 10  1  0
 10 11  2  0
 11 12  1  0
 12 13  2  0
 13 14  1  0
 14 15  1  0
 15 16  2  0
 16 17  1  0
 17 18  2  0
 18 19  1  0
 19 20  2  0
 20 21  1  0
 13 22  1  0
 22 23  2  0
 23 24  1  0
 24 25  2  0
 25 26  1  0
 26 27  2  0
 27 10  1  0
 20 15  1  0
 27 22  1  0
  1 28  1  0
  1 29  1  0
  1 30  1  0
  2 31  1  0
  2 32  1  0
  4 33  1  0
  5 34  1  0
  5 35  1  0
  6 36  1  0
  6 37  1  0
  7 38  1  0
  7 39  1  0
  8 40  1  0
  8 41  1  0
  9 42  1  0
  9 43  1  0
 11 44  1  0
 12 45  1  0
 14 46  1  0
 14 47  1  0
 16 48  1  0
 17 49  1  0
 18 50  1  0
 19 51  1  0
 23 52  1  0
 24 53  1  0
 25 54  1  0
 26 55  1  0
M  CHG  2   9   1  13   1
M  END
>  <UniqueID>  (10) 
10

>  <SMILES>  (10) 
CCONCCCC[NH2+]c1cc[n+](Cc2ccccc2F)c2ccccc12

>  <Energy>  (10) 
58.36047640621488

>  <Genealogy>  (10) 
CCONCCCC[NH2+]c1cc[n+](Cc2ccccc2F)c2ccccc12 (protonated)
CCONCCCC[NH2+]c1cc[n+](Cc2ccccc2F)c2ccccc12 (3D coordinates assigned)
CCONCCCC[NH2+]c1cc[n+](Cc2ccccc2F)c2ccccc12 (optimized conformer: 58.36047640621488 kcal/mol)

>  <smiles>  (10) 
CCONCCCCNc1cc[n+](Cc2ccccc2F)c2ccccc12

>  <score_type>  (10) 
oracle

>  <origin>  (10) 
adg

>  <m_score__min__energy>  (10) 
-5.8099999999999996

>  <m_primary>  (10) 
energy

$$$$
10:0
     RDKit          3D

 55 58  0  0  0  0  0  0  0  0999 V2000
   57.2360   32.7210   40.3680 C   0  0  0  0  0  0  0  0  0  0  0  0
   58.0300   32.2640   41.5870 C   0  0  0  0  0  0  0  0  0  0  0  0
   57.4010   32.6980   42.7930 O   0  0  0  0  0  0  0  0  0  0  0  0
   57.8140   32.3650   44.0940 C   0  0  0  0  0  0  0  0  0  0  0  0
   57.8590   33.3970   45.0590 C   0  0  0  0  0  0  0  0  0  0  0  0
   58.2620   33.1410   46.3800 C   0  0  0  0  0  0  0  0  0  0  0  0
   58.6230   31.8350   46.7200 C   0  0  0  0  0  0  0  0  0  0  0  0
   58.5820   30.8250   45.7790 C   0  0  0  0  0  0  0  0  0  0  0  0
   58.1870   31.0490   44.4620 C   0  0  0  0  0  0  0  0  0  0  0  0
   58.9930   29.6810   46.4200 C   0  0  0  0  0  0  0  0  0  0  0  0
   59.1460   28.3740   45.9620 C   0  0  0  0  0  0  0  0  0  0  0  0
   59.5950   27.4080   46.8780 C   0  0  0  0  0  0  0  0  0  0  0  0
   59.8820   27.7530   48.2180 C   0  0  0  0  0  0  0  0  0  0  0  0
   60.3270   26.7410   49.0810 O   0  0  0  0  0  0  0  0  0  0  0  0
   60.9390   26.9750   50.3450 C   0  0  0  0  0  0  0  0  0  0  0  0
   59.7140   29.0930   48.6510 C   0  0  0  0  0  0  0  0  0  0  0  0
   59.2700   30.0390   47.7220 C   0  0  0  0  0  0  0  0  0  0  0  0
   59.0480   31.3650   47.9220 N   0  0  0  0  0  0  0  0  0  0  0  0
   59.2730   32.1200   49.1610 C   0  0  0  0  0  0  0  0  0  0  0  0
   60.6900   32.7330   49.2010 C   0  0  0  0  0  0  0  0  0  0  0  0
   61.7370   31.8540   48.6100 N   0  0  0  0  0  0  0  0  0  0  0  0
   63.0300   31.9310   49.3600 C   0  0  0  0  0  0  0  0  0  0  0  0
   64.1260   32.7690   48.6660 C   0  0  0  0  0  0  0  0  0  0  0  0
   63.5260   33.9430   47.9020 C   0  0  0  0  0  0  0  0  0  0  0  0
   62.5360   33.4600   46.8300 C   0  0  0  0  0  0  0  0  0  0  0  0
   61.9230   32.0810   47.1560 C   0  0  0  0  0  0  0  0  0  0  0  0
   56.3265   33.2445   40.6980 H   0  0  0  0  0  0  0  0  0  0  0  0
   57.8524   33.4025   39.7633 H   0  0  0  0  0  0  0  0  0  0  0  0
   56.9563   31.8457   39.7633 H   0  0  0  0  0  0  0  0  0  0  0  0
   58.0908   31.1657   41.5869 H   0  0  0  0  0  0  0  0  0  0  0  0
   59.0374   32.7030   41.5368 H   0  0  0  0  0  0  0  0  0  0  0  0
   57.5732   34.4192   44.7701 H   0  0  0  0  0  0  0  0  0  0  0  0
   58.2925   33.9477   47.1272 H   0  0  0  0  0  0  0  0  0  0  0  0
   58.1654   30.2284   43.7297 H   0  0  0  0  0  0  0  0  0  0  0  0
   58.9228   28.1075   44.9184 H   0  0  0  0  0  0  0  0  0  0  0  0
   59.7252   26.3671   46.5470 H   0  0  0  0  0  0  0  0  0  0  0  0
   60.2366   26.7064   51.1478 H   0  0  0  0  0  0  0  0  0  0  0  0
   61.8474   26.3608   50.4319 H   0  0  0  0  0  0  0  0  0  0  0  0
   61.2059   28.0386   50.4319 H   0  0  0  0  0  0  0  0  0  0  0  0
   59.9275   29.3807   49.6910 H   0  0  0  0  0  0  0  0  0  0  0  0
   58.5313   32.9297   49.2258 H   0  0  0  0  0  0  0  0  0  0  0  0
   59.1724   31.4278   50.0100 H   0  0  0  0  0  0  0  0  0  0  0  0
   60.6750   33.6802   48.6419 H   0  0  0  0  0  0  0  0  0  0  0  0
   60.9496   32.8764   50.2603 H   0  0  0  0  0  0  0  0  0  0  0  0
   61.4070   30.8650   48.7140 H   0  0  0  0  0  0  0  0  0  0  0  0
   62.8293   32.3770   50.3453 H   0  0  0  0  0  0  0  0  0  0  0  0
   63.4161   30.9029   49.4228 H   0  0  0  0  0  0  0  0  0  0  0  0
   64.8188   33.1544   49.4285 H   0  0  0  0  0  0  0  0  0  0  0  0
   64.6550   32.1231   47.9498 H   0  0  0  0  0  0  0  0  0  0  0  0
   62.9974   34.5990   48.6093 H   0  0  0  0  0  0  0  0  0  0  0  0
   64.3413   34.4877   47.4035 H   0  0  0  0  0  0  0  0  0  0  0  0
   61.7220   34.1952   46.7472 H   0  0  0  0  0  0  0  0  0  0  0  0
   63.0937   33.3588   45.8873 H   0  0  0  0  0  0  0  0  0  0  0  0
   60.9426   32.0086   46.6625 H   0  0  0  0  0  0  0  0  0  0  0  0
   62.6255   31.3165   46.7927 H   0  0  0  0  0  0  0  0  0  0  0  0
  1  2  1  0
  2  3  1  0
  3  4  1  0
  4  5  2  0
  5  6  1  0
  6  7  2  0
  7  8  1  0
  8  9  2  0
  8 10  1  0
 10 11  2  0
 11 12  1  0
 12 13  2  0
 13 14  1  0
 14 15  1  0
 13 16  1  0
 16 17  2  0
 17 18  1  0
 18 19  1  0
 19 20  1  0
 20 21  1  0
 21 22  1  0
 22 23  1  0
 23 24  1  0
 24 25  1  0
 25 26  1  0
  9  4  1  0
 17 10  1  0
 26 21  1  0
 18  7  1  0
  1 27  1  0
  1 28  1  0
  1 29  1  0
  2 30  1  0
  2 31  1  0
  5 32  1  0
  6 33  1  0
  9 34  1  0
 11 35  1  0
 12 36  1  0
 15 37  1  0
 15 38  1  0
 15 39  1  0
 16 40  1  0
 19 41  1  0
 19 42  1  0
 20 43  1  0
 20 44  1  0
 21 45  1  0
 22 46  1  0
 22 47  1  0
 23 48  1  0
 23 49  1  0
 24 50  1  0
 24 51  1  0
 25 52  1  0
 25 53  1  0
 26 54  1  0
 26 55  1  0
M  CHG  1  21   1
M  END
>  <UniqueID>  (11) 
11

>  <SMILES>  (11) 
CCOc1ccc2c(c1)c1ccc(OC)cc1n2CC[NH+]1CCCCC1

>  <Energy>  (11) 
104.99461298776772

>  <Genealogy>  (11) 
CCOc1ccc2c(c1)c1ccc(OC)cc1n2CC[NH+]1CCCCC1 (protonated)
CCOc1ccc2c(c1)c1ccc(OC)cc1n2CC[NH+]1CCCCC1 (3D coordinates assigned)
CCOc1ccc2c(c1)c1ccc(OC)cc1n2CC[NH+]1CCCCC1 (nonaromatic ring conformer: 104.99461298776772 kcal/mol)

>  <smiles>  (11) 
CCOc1ccc2c(c1)c1ccc(OC)cc1n2CCN1CCCCC1

>  <score_type>  (11) 
oracle

>  <origin>  (11) 
adg

>  <m_score__min__energy>  (11) 
-5.7300000000000004

>  <m_primary>  (11) 
energy

$$$$
11:0
     RDKit          3D

 44 46  0  0  0  0  0  0  0  0999 V2000
   58.0640   32.2490   42.1540 C   0  0  0  0  0  0  0  0  0  0  0  0
   57.0770   31.2270   42.7040 C   0  0  0  0  0  0  0  0  0  0  0  0
   57.4770   30.8080   44.0500 N   0  0  0  0  0  0  0  0  0  0  0  0
   57.6690   31.5850   45.1530 C   0  0  0  0  0  0  0  0  0  0  0  0
   57.3230   33.0450   45.2370 C   0  0  0  0  0  0  0  0  0  0  0  0
   57.4450   33.5290   46.6210 N   0  0  0  0  0  0  0  0  0  0  0  0
   58.5610   34.4720   46.8050 C   0  0  0  0  0  0  0  0  0  0  0  0
   59.8610   33.7520   47.0810 C   0  0  0  0  0  0  0  0  0  0  0  0
   61.0500   34.2140   46.4900 C   0  0  0  0  0  0  0  0  0  0  0  0
   62.2530   33.5370   46.6960 C   0  0  0  0  0  0  0  0  0  0  0  0
   62.2850   32.3990   47.5010 C   0  0  0  0  0  0  0  0  0  0  0  0
   61.1170   31.9400   48.1140 C   0  0  0  0  0  0  0  0  0  0  0  0
   59.8950   32.6130   47.9160 C   0  0  0  0  0  0  0  0  0  0  0  0
   58.7040   32.1740   48.5180 O   0  0  0  0  0  0  0  0  0  0  0  0
   58.5310   31.9800   49.9170 C   0  0  0  0  0  0  0  0  0  0  0  0
   58.1110   30.8730   46.2190 N   0  0  0  0  0  0  0  0  0  0  0  0
   58.1930   29.6120   45.7670 C   0  0  0  0  0  0  0  0  0  0  0  0
   58.5640   28.4700   46.4710 C   0  0  0  0  0  0  0  0  0  0  0  0
   58.5520   27.2450   45.7800 C   0  0  0  0  0  0  0  0  0  0  0  0
   58.1740   27.1950   44.4180 C   0  0  0  0  0  0  0  0  0  0  0  0
   57.7990   28.3690   43.7370 C   0  0  0  0  0  0  0  0  0  0  0  0
   57.8180   29.5670   44.4540 C   0  0  0  0  0  0  0  0  0  0  0  0
   58.5616   32.7643   42.9888 H   0  0  0  0  0  0  0  0  0  0  0  0
   58.8175   31.7364   41.5381 H   0  0  0  0  0  0  0  0  0  0  0  0
   57.5254   32.9842   41.5381 H   0  0  0  0  0  0  0  0  0  0  0  0
   56.0743   31.6773   42.7470 H   0  0  0  0  0  0  0  0  0  0  0  0
   57.0667   30.3475   42.0434 H   0  0  0  0  0  0  0  0  0  0  0  0
   58.0078   33.6161   44.5929 H   0  0  0  0  0  0  0  0  0  0  0  0
   56.2834   33.1820   44.9045 H   0  0  0  0  0  0  0  0  0  0  0  0
   56.5640   34.0470   46.8490 H   0  0  0  0  0  0  0  0  0  0  0  0
   58.6737   35.0737   45.8911 H   0  0  0  0  0  0  0  0  0  0  0  0
   58.3317   35.1102   47.6711 H   0  0  0  0  0  0  0  0  0  0  0  0
   61.0321   35.1159   45.8605 H   0  0  0  0  0  0  0  0  0  0  0  0
   63.1767   33.9015   46.2228 H   0  0  0  0  0  0  0  0  0  0  0  0
   63.2325   31.8614   47.6537 H   0  0  0  0  0  0  0  0  0  0  0  0
   61.1513   31.0472   48.7556 H   0  0  0  0  0  0  0  0  0  0  0  0
   59.1650   32.6910   50.4669 H   0  0  0  0  0  0  0  0  0  0  0  0
   57.4768   32.1473   50.1828 H   0  0  0  0  0  0  0  0  0  0  0  0
   58.8174   30.9517   50.1828 H   0  0  0  0  0  0  0  0  0  0  0  0
   58.3100   31.2200   47.1840 H   0  0  0  0  0  0  0  0  0  0  0  0
   58.8562   28.5236   47.5301 H   0  0  0  0  0  0  0  0  0  0  0  0
   58.8384   26.3201   46.3021 H   0  0  0  0  0  0  0  0  0  0  0  0
   58.1730   26.2318   43.8868 H   0  0  0  0  0  0  0  0  0  0  0  0
   57.5018   28.3433   42.6782 H   0  0  0  0  0  0  0  0  0  0  0  0
  1  2  1  0
  2  3  1  0
  3  4  1  0
  4  5  1  0
  5  6  1  0
  6  7  1  0
  7  8  1  0
  8  9  2  0
  9 10  1  0
 10 11  2  0
 11 12  1  0
 12 13  2  0
 13 14  1  0
 14 15  1  0
  4 16  2  0
 16 17  1  0
 17 18  2  0
 18 19  1  0
 19 20  2  0
 20 21  1  0
 21 22  2  0
 22  3  1  0
 13  8  1  0
 22 17  1  0
  1 23  1  0
  1 24  1  0
  1 25  1  0
  2 26  1  0
  2 27  1  0
  5 28  1  0
  5 29  1  0
  6 30  1  0
  7 31  1  0
  7 32  1  0
  9 33  1  0
 10 34  1  0
 11 35  1  0
 12 36  1  0
 15 37  1  0
 15 38  1  0
 15 39  1  0
 16 40  1  0
 18 41  1  0
 19 42  1  0
 20 43  1  0
 21 44  1  0
M  CHG  1  16   1
M  END
>  <UniqueID>  (12) 
12

>  <SMILES>  (12) 
CCn1c(CNCc2ccccc2OC)[nH+]c2ccccc21

>  <Energy>  (12) 
75.43541367203166

>  <Genealogy>  (12) 
CCn1c(CNCc2ccccc2OC)[nH+]c2ccccc21 (protonated)
CCn1c(CNCc2ccccc2OC)[nH+]c2ccccc21 (3D coordinates assigned)
CCn1c(CNCc2ccccc2OC)[nH+]c2ccccc21 (optimized conformer: 75.43541367203166 kcal/mol)

>  <smiles>  (12) 
CCn1c(CNCc2ccccc2OC)nc2ccccc21

>  <score_type>  (12) 
oracle

>  <origin>  (12) 
adg

>  <m_score__min__energy>  (12) 
-5.6200000000000001

>  <m_primary>  (12) 
energy

$$$$
12:0
     RDKit          3D

 47 49  0  0  0  0  0  0  0  0999 V2000
   56.9810   30.5040   43.1130 C   0  0  0  0  0  0  0  0  0  0  0  0
   56.0400   29.8500   44.1200 C   0  0  0  0  0  0  0  0  0  0  0  0
   56.6090   28.5870   44.6110 N   0  0  0  0  0  0  0  0  0  0  0  0
   57.7850   28.1860   43.8240 C   0  0  0  0  0  0  0  0  0  0  0  0
   58.9340   27.7290   44.7510 C   0  0  0  0  0  0  0  0  0  0  0  0
   60.2130   28.5870   44.5050 C   0  0  0  0  0  0  0  0  0  0  0  0
   60.6810   29.3680   45.7410 C   0  0  0  0  0  0  0  0  0  0  0  0
   59.5310   29.9650   46.4260 N   0  0  0  0  0  0  0  0  0  0  0  0
   59.4540   31.3880   46.5850 C   0  0  0  0  0  0  0  0  0  0  0  0
   58.5150   32.0920   45.8270 C   0  0  0  0  0  0  0  0  0  0  0  0
   58.4180   33.4810   45.9450 C   0  0  0  0  0  0  0  0  0  0  0  0
   57.3820   34.2280   45.1560 C   0  0  0  0  0  0  0  0  0  0  0  0
   59.2220   34.1460   46.8220 N   0  0  0  0  0  0  0  0  0  0  0  0
   60.1530   33.4950   47.5790 C   0  0  0  0  0  0  0  0  0  0  0  0
   60.9680   34.2200   48.4620 C   0  0  0  0  0  0  0  0  0  0  0  0
   61.9210   33.5650   49.2410 C   0  0  0  0  0  0  0  0  0  0  0  0
   62.0700   32.1830   49.1490 C   0  0  0  0  0  0  0  0  0  0  0  0
   61.2680   31.4380   48.2780 C   0  0  0  0  0  0  0  0  0  0  0  0
   61.4530   30.0960   48.2320 F   0  0  0  0  0  0  0  0  0  0  0  0
   60.2970   32.0860   47.4790 C   0  0  0  0  0  0  0  0  0  0  0  0
   58.3770   29.1400   46.8020 C   0  0  0  0  0  0  0  0  0  0  0  0
   58.5050   27.7180   46.2400 C   0  0  0  0  0  0  0  0  0  0  0  0
   57.7693   31.0519   43.6500 H   0  0  0  0  0  0  0  0  0  0  0  0
   57.4387   29.7283   42.4814 H   0  0  0  0  0  0  0  0  0  0  0  0
   56.4135   31.2034   42.4814 H   0  0  0  0  0  0  0  0  0  0  0  0
   55.8873   30.5325   44.9690 H   0  0  0  0  0  0  0  0  0  0  0  0
   55.0803   29.6394   43.6255 H   0  0  0  0  0  0  0  0  0  0  0  0
   55.8830   27.8410   44.4970 H   0  0  0  0  0  0  0  0  0  0  0  0
   57.5073   27.3562   43.1574 H   0  0  0  0  0  0  0  0  0  0  0  0
   58.1279   29.0501   43.2361 H   0  0  0  0  0  0  0  0  0  0  0  0
   59.1826   26.6876   44.4985 H   0  0  0  0  0  0  0  0  0  0  0  0
   61.0258   27.9159   44.1903 H   0  0  0  0  0  0  0  0  0  0  0  0
   59.9582   29.3291   43.7341 H   0  0  0  0  0  0  0  0  0  0  0  0
   61.1989   28.6836   46.4290 H   0  0  0  0  0  0  0  0  0  0  0  0
   61.3652   30.1684   45.4228 H   0  0  0  0  0  0  0  0  0  0  0  0
   57.8509   31.5520   45.1361 H   0  0  0  0  0  0  0  0  0  0  0  0
   56.6869   34.7292   45.8456 H   0  0  0  0  0  0  0  0  0  0  0  0
   57.8753   34.9796   44.5221 H   0  0  0  0  0  0  0  0  0  0  0  0
   56.8247   33.5225   44.5221 H   0  0  0  0  0  0  0  0  0  0  0  0
   59.1190   35.1830   46.9130 H   0  0  0  0  0  0  0  0  0  0  0  0
   60.8543   35.3113   48.5400 H   0  0  0  0  0  0  0  0  0  0  0  0
   62.5566   34.1408   49.9298 H   0  0  0  0  0  0  0  0  0  0  0  0
   62.8245   31.6734   49.7663 H   0  0  0  0  0  0  0  0  0  0  0  0
   58.3153   29.0881   47.8990 H   0  0  0  0  0  0  0  0  0  0  0  0
   57.4692   29.5995   46.3838 H   0  0  0  0  0  0  0  0  0  0  0  0
   59.2586   27.1698   46.8245 H   0  0  0  0  0  0  0  0  0  0  0  0
   57.5215   27.2305   46.3109 H   0  0  0  0  0  0  0  0  0  0  0  0
  1  2  1  0
  2  3  1  0
  3  4  1  0
  4  5  1  0
  5  6  1  0
  6  7  1  0
  7  8  1  0
  8  9  1  0
  9 10  2  0
 10 11  1  0
 11 12  1  0
 11 13  2  0
 13 14  1  0
 14 15  2  0
 15 16  1  0
 16 17  2  0
 17 18  1  0
 18 19  1  0
 18 20  2  0
  8 21  1  0
 21 22  1  0
 22  5  1  0
 20  9  1  0
 20 14  1  0
  1 23  1  0
  1 24  1  0
  1 25  1  0
  2 26  1  0
  2 27  1  0
  3 28  1  0
  4 29  1  0
  4 30  1  0
  5 31  1  0
  6 32  1  0
  6 33  1  0
  7 34  1  0
  7 35  1  0
 10 36  1  0
 12 37  1  0
 12 38  1  0
 12 39  1  0
 13 40  1  0
 15 41  1  0
 16 42  1  0
 17 43  1  0
 21 44  1  0
 21 45  1  0
 22 46  1  0
 22 47  1  0
M  CHG  1  13   1
M  END
>  <UniqueID>  (13) 
13

>  <SMILES>  (13) 
CCNCC1CCN(c2cc(C)[nH+]c3cccc(F)c23)CC1

>  <Energy>  (13) 
55.994330983619164

>  <Genealogy>  (13) 
CCNCC1CCN(c2cc(C)[nH+]c3cccc(F)c23)CC1 (protonated)
CCNCC1CCN(c2cc(C)[nH+]c3cccc(F)c23)CC1 (3D coordinates assigned)
CCNCC1CCN(c2cc(C)[nH+]c3cccc(F)c23)CC1 (nonaromatic ring conformer: 55.994330983619164 kcal/mol)

>  <smiles>  (13) 
CCNCC1CCN(c2cc(C)nc3cccc(F)c23)CC1

>  <score_type>  (13) 
oracle

>  <origin>  (13) 
adg

>  <m_score__min__energy>  (13) 
-6.2300000000000004

>  <m_primary>  (13) 
energy

$$$$
13:0
     RDKit          3D

 68 72  0  0  0  0  0  0  0  0999 V2000
   62.3300   29.9200   51.8420 C   0  0  0  0  0  0  0  0  0  0  0  0
   61.4830   30.1850   50.6740 N   0  0  0  0  0  0  0  0  0  0  0  0
   61.1340   31.3780   50.1070 C   0  0  0  0  0  0  0  0  0  0  0  0
   61.5740   32.7470   50.5720 C   0  0  0  0  0  0  0  0  0  0  0  0
   62.8160   33.2750   49.9320 N   0  0  0  0  0  0  0  0  0  0  0  0
   62.5940   34.2560   48.8550 C   0  0  0  0  0  0  0  0  0  0  0  0
   62.7010   33.5100   47.5360 C   0  0  0  0  0  0  0  0  0  0  0  0
   63.5830   32.3140   47.8350 C   0  0  0  0  0  0  0  0  0  0  0  0
   63.6770   32.2280   49.3560 C   0  0  0  0  0  0  0  0  0  0  0  0
   60.2950   31.2350   49.0430 N   0  0  0  0  0  0  0  0  0  0  0  0
   60.1550   29.9070   48.9350 C   0  0  0  0  0  0  0  0  0  0  0  0
   59.3940   29.2140   48.0030 C   0  0  0  0  0  0  0  0  0  0  0  0
   59.4090   27.8030   48.0510 C   0  0  0  0  0  0  0  0  0  0  0  0
   58.4200   26.8740   46.9250 S   0  0  0  0  0  0  0  0  0  0  0  0
   57.0540   27.5020   46.8710 O   0  0  0  0  0  0  0  0  0  0  0  0
   58.2710   25.4710   47.4500 O   0  0  0  0  0  0  0  0  0  0  0  0
   59.1760   26.8080   45.2850 C   0  0  0  0  0  0  0  0  0  0  0  0
   58.1420   27.0980   44.1760 C   0  0  0  0  0  0  0  0  0  0  0  0
   57.7100   28.5840   44.1350 C   0  0  0  0  0  0  0  0  0  0  0  0
   58.6530   29.4700   44.8600 N   0  0  0  0  0  0  0  0  0  0  0  0
   58.3460   30.8920   44.5980 C   0  0  0  0  0  0  0  0  0  0  0  0
   57.7510   31.5550   45.8520 C   0  0  0  0  0  0  0  0  0  0  0  0
   58.3800   32.9010   46.1150 C   0  0  0  0  0  0  0  0  0  0  0  0
   58.7240   33.2740   47.4270 C   0  0  0  0  0  0  0  0  0  0  0  0
   59.3310   34.5090   47.6760 C   0  0  0  0  0  0  0  0  0  0  0  0
   59.6070   35.3800   46.6180 C   0  0  0  0  0  0  0  0  0  0  0  0
   59.2800   35.0130   45.3090 C   0  0  0  0  0  0  0  0  0  0  0  0
   58.6760   33.7760   45.0530 C   0  0  0  0  0  0  0  0  0  0  0  0
   58.3700   33.4400   43.7740 F   0  0  0  0  0  0  0  0  0  0  0  0
   60.0470   29.1170   44.5290 C   0  0  0  0  0  0  0  0  0  0  0  0
   60.4010   27.7510   45.1520 C   0  0  0  0  0  0  0  0  0  0  0  0
   60.1900   27.1400   49.0310 C   0  0  0  0  0  0  0  0  0  0  0  0
   60.9330   27.8750   49.9750 C   0  0  0  0  0  0  0  0  0  0  0  0
   60.8820   29.2670   49.8980 C   0  0  0  0  0  0  0  0  0  0  0  0
   61.7536   30.1003   52.7614 H   0  0  0  0  0  0  0  0  0  0  0  0
   62.6676   28.8733   51.8202 H   0  0  0  0  0  0  0  0  0  0  0  0
   63.2039   30.5876   51.8202 H   0  0  0  0  0  0  0  0  0  0  0  0
   60.7580   33.4544   50.3630 H   0  0  0  0  0  0  0  0  0  0  0  0
   61.8067   32.6422   51.6420 H   0  0  0  0  0  0  0  0  0  0  0  0
   63.3530   33.7570   50.6960 H   0  0  0  0  0  0  0  0  0  0  0  0
   61.5943   34.7041   48.9541 H   0  0  0  0  0  0  0  0  0  0  0  0
   63.3370   35.0656   48.9061 H   0  0  0  0  0  0  0  0  0  0  0  0
   61.7078   33.1828   47.1947 H   0  0  0  0  0  0  0  0  0  0  0  0
   63.1157   34.1407   46.7359 H   0  0  0  0  0  0  0  0  0  0  0  0
   63.1332   31.3965   47.4277 H   0  0  0  0  0  0  0  0  0  0  0  0
   64.5768   32.4225   47.3762 H   0  0  0  0  0  0  0  0  0  0  0  0
   63.3364   31.2383   49.6944 H   0  0  0  0  0  0  0  0  0  0  0  0
   64.7181   32.3723   49.6803 H   0  0  0  0  0  0  0  0  0  0  0  0
   58.7970   29.7486   47.2494 H   0  0  0  0  0  0  0  0  0  0  0  0
   59.5451   25.7797   45.1572 H   0  0  0  0  0  0  0  0  0  0  0  0
   58.5846   26.8334   43.2044 H   0  0  0  0  0  0  0  0  0  0  0  0
   57.2460   26.4976   44.3922 H   0  0  0  0  0  0  0  0  0  0  0  0
   57.6586   28.9075   43.0849 H   0  0  0  0  0  0  0  0  0  0  0  0
   56.7310   28.6612   44.6305 H   0  0  0  0  0  0  0  0  0  0  0  0
   59.2712   31.4160   44.3160 H   0  0  0  0  0  0  0  0  0  0  0  0
   57.6116   30.9526   43.7813 H   0  0  0  0  0  0  0  0  0  0  0  0
   56.6687   31.6881   45.7070 H   0  0  0  0  0  0  0  0  0  0  0  0
   57.9524   30.9044   46.7158 H   0  0  0  0  0  0  0  0  0  0  0  0
   58.5142   32.5899   48.2624 H   0  0  0  0  0  0  0  0  0  0  0  0
   59.5916   34.7954   48.7056 H   0  0  0  0  0  0  0  0  0  0  0  0
   60.0809   36.3529   46.8150 H   0  0  0  0  0  0  0  0  0  0  0  0
   59.4981   35.6988   44.4771 H   0  0  0  0  0  0  0  0  0  0  0  0
   60.1600   29.0605   43.4363 H   0  0  0  0  0  0  0  0  0  0  0  0
   60.7223   29.8863   44.9317 H   0  0  0  0  0  0  0  0  0  0  0  0
   61.1532   27.2606   44.5166 H   0  0  0  0  0  0  0  0  0  0  0  0
   60.7807   27.9413   46.1667 H   0  0  0  0  0  0  0  0  0  0  0  0
   60.2159   26.0406   49.0543 H   0  0  0  0  0  0  0  0  0  0  0  0
   61.5326   27.3692   50.7461 H   0  0  0  0  0  0  0  0  0  0  0  0
  1  2  1  0
  2  3  1  0
  3  4  1  0
  4  5  1  0
  5  6  1  0
  6  7  1  0
  7  8  1  0
  8  9  1  0
  3 10  2  0
 10 11  1  0
 11 12  2  0
 12 13  1  0
 13 14  1  0
 14 15  2  0
 14 16  2  0
 14 17  1  0
 17 18  1  0
 18 19  1  0
 19 20  1  0
 20 21  1  0
 21 22  1  0
 22 23  1  0
 23 24  2  0
 24 25  1  0
 25 26  2  0
 26 27  1  0
 27 28  2  0
 28 29  1  0
 20 30  1  0
 30 31  1  0
 13 32  2  0
 32 33  1  0
 33 34  2  0
 34  2  1  0
  9  5  1  0
 34 11  1  0
 31 17  1  0
 28 23  1  0
  1 35  1  0
  1 36  1  0
  1 37  1  0
  4 38  1  0
  4 39  1  0
  5 40  1  0
  6 41  1  0
  6 42  1  0
  7 43  1  0
  7 44  1  0
  8 45  1  0
  8 46  1  0
  9 47  1  0
  9 48  1  0
 12 49  1  0
 17 50  1  0
 18 51  1  0
 18 52  1  0
 19 53  1  0
 19 54  1  0
 21 55  1  0
 21 56  1  0
 22 57  1  0
 22 58  1  0
 24 59  1  0
 25 60  1  0
 26 61  1  0
 27 62  1  0
 30 63  1  0
 30 64  1  0
 31 65  1  0
 31 66  1  0
 32 67  1  0
 33 68  1  0
M  CHG  1   5   1
M  END
>  <UniqueID>  (14) 
14

>  <SMILES>  (14) 
Cn1c(C[NH+]2CCCC2)nc2cc(S(=O)(=O)C3CCN(CCc4ccccc4F)CC3)ccc21

>  <Energy>  (14) 
120.48617067127933

>  <Genealogy>  (14) 
Cn1c(C[NH+]2CCCC2)nc2cc(S(=O)(=O)C3CCN(CCc4ccccc4F)CC3)ccc21 (protonated)
Cn1c(C[NH+]2CCCC2)nc2cc(S(=O)(=O)C3CCN(CCc4ccccc4F)CC3)ccc21 (3D coordinates assigned)
Cn1c(C[NH+]2CCCC2)nc2cc(S(=O)(=O)C3CCN(CCc4ccccc4F)CC3)ccc21 (nonaromatic ring conformer: 120.48617067127933 kcal/mol)

>  <smiles>  (14) 
Cn1c(CN2CCCC2)nc2cc(S(=O)(=O)C3CCN(CCc4ccccc4F)CC3)ccc21

>  <score_type>  (14) 
oracle

>  <origin>  (14) 
adg

>  <m_score__min__energy>  (14) 
-9.3200000000000003

>  <m_primary>  (14) 
energy

$$$$
14:0
     RDKit          3D

 48 51  0  0  0  0  0  0  0  0999 V2000
   55.5360   20.6000   46.1360 C   0  0  0  0  0  0  0  0  0  0  0  0
   54.8690   21.8000   45.7570 O   0  0  0  0  0  0  0  0  0  0  0  0
   55.5200   22.9760   45.3560 C   0  0  0  0  0  0  0  0  0  0  0  0
   55.5000   24.1490   46.1500 C   0  0  0  0  0  0  0  0  0  0  0  0
   56.1730   25.2710   45.6810 C   0  0  0  0  0  0  0  0  0  0  0  0
   56.2820   26.4680   46.2830 N   0  0  0  0  0  0  0  0  0  0  0  0
   57.0460   27.1830   45.4150 C   0  0  0  0  0  0  0  0  0  0  0  0
   57.4510   28.5770   45.6990 C   0  0  0  0  0  0  0  0  0  0  0  0
   58.4510   28.8350   46.6450 C   0  0  0  0  0  0  0  0  0  0  0  0
   58.8570   30.1470   46.8980 C   0  0  0  0  0  0  0  0  0  0  0  0
   58.2750   31.2070   46.1790 C   0  0  0  0  0  0  0  0  0  0  0  0
   58.6690   32.5800   46.4000 N   0  0  0  0  0  0  0  0  0  0  0  0
   58.2880   33.6040   45.4170 C   0  0  0  0  0  0  0  0  0  0  0  0
   59.2790   34.7700   45.4520 C   0  0  0  0  0  0  0  0  0  0  0  0
   59.4430   35.2490   46.7720 O   0  0  0  0  0  0  0  0  0  0  0  0
   60.0600   34.2520   47.5620 C   0  0  0  0  0  0  0  0  0  0  0  0
   59.1470   33.0300   47.7140 C   0  0  0  0  0  0  0  0  0  0  0  0
   57.3180   30.9230   45.2510 N   0  0  0  0  0  0  0  0  0  0  0  0
   56.9010   29.6550   44.9950 C   0  0  0  0  0  0  0  0  0  0  0  0
   57.3860   26.4810   44.2980 N   0  0  0  0  0  0  0  0  0  0  0  0
   58.1520   26.9260   43.1330 C   0  0  0  0  0  0  0  0  0  0  0  0
   56.8390   25.2680   44.4940 C   0  0  0  0  0  0  0  0  0  0  0  0
   56.8890   24.1380   43.6780 C   0  0  0  0  0  0  0  0  0  0  0  0
   56.2160   22.9700   44.1190 C   0  0  0  0  0  0  0  0  0  0  0  0
   56.2160   21.7870   43.3640 O   0  0  0  0  0  0  0  0  0  0  0  0
   57.3900   21.0840   42.9700 C   0  0  0  0  0  0  0  0  0  0  0  0
   55.5736   20.5323   47.2333 H   0  0  0  0  0  0  0  0  0  0  0  0
   54.9897   19.7341   45.7337 H   0  0  0  0  0  0  0  0  0  0  0  0
   56.5598   20.6068   45.7337 H   0  0  0  0  0  0  0  0  0  0  0  0
   54.9663   24.1712   47.1116 H   0  0  0  0  0  0  0  0  0  0  0  0
   58.9180   28.0017   47.1904 H   0  0  0  0  0  0  0  0  0  0  0  0
   59.6280   30.3506   47.6557 H   0  0  0  0  0  0  0  0  0  0  0  0
   58.2872   33.1587   44.4112 H   0  0  0  0  0  0  0  0  0  0  0  0
   57.2843   33.9804   45.6637 H   0  0  0  0  0  0  0  0  0  0  0  0
   60.2518   34.4283   45.0687 H   0  0  0  0  0  0  0  0  0  0  0  0
   58.8866   35.5856   44.8268 H   0  0  0  0  0  0  0  0  0  0  0  0
   60.9994   33.9418   47.0810 H   0  0  0  0  0  0  0  0  0  0  0  0
   60.2582   34.6684   48.5607 H   0  0  0  0  0  0  0  0  0  0  0  0
   59.7092   32.2151   48.1935 H   0  0  0  0  0  0  0  0  0  0  0  0
   58.2807   33.3072   48.3326 H   0  0  0  0  0  0  0  0  0  0  0  0
   56.1290   29.4752   44.2323 H   0  0  0  0  0  0  0  0  0  0  0  0
   59.0577   27.4522   43.4689 H   0  0  0  0  0  0  0  0  0  0  0  0
   58.4382   26.0535   42.5273 H   0  0  0  0  0  0  0  0  0  0  0  0
   57.5358   27.6068   42.5273 H   0  0  0  0  0  0  0  0  0  0  0  0
   57.4334   24.1522   42.7223 H   0  0  0  0  0  0  0  0  0  0  0  0
   57.9385   20.7556   43.8652 H   0  0  0  0  0  0  0  0  0  0  0  0
   57.1078   20.2061   42.3702 H   0  0  0  0  0  0  0  0  0  0  0  0
   58.0306   21.7472   42.3702 H   0  0  0  0  0  0  0  0  0  0  0  0
  1  2  1  0
  2  3  1  0
  3  4  2  0
  4  5  1  0
  5  6  1  0
  6  7  2  0
  7  8  1  0
  8  9  2  0
  9 10  1  0
 10 11  2  0
 11 12  1  0
 12 13  1  0
 13 14  1  0
 14 15  1  0
 15 16  1  0
 16 17  1  0
 11 18  1  0
 18 19  2  0
  7 20  1  0
 20 21  1  0
 20 22  1  0
 22 23  1  0
 23 24  2  0
 24 25  1  0
 25 26  1  0
 24  3  1  0
 22  5  2  0
 19  8  1  0
 17 12  1  0
  1 27  1  0
  1 28  1  0
  1 29  1  0
  4 30  1  0
  9 31  1  0
 10 32  1  0
 13 33  1  0
 13 34  1  0
 14 35  1  0
 14 36  1  0
 16 37  1  0
 16 38  1  0
 17 39  1  0
 17 40  1  0
 19 41  1  0
 21 42  1  0
 21 43  1  0
 21 44  1  0
 23 45  1  0
 26 46  1  0
 26 47  1  0
 26 48  1  0
M  END
>  <UniqueID>  (15) 
15

>  <SMILES>  (15) 
COc1cc2nc(-c3ccc(N4CCOCC4)nc3)n(C)c2cc1OC

>  <Energy>  (15) 
96.82362100998273

>  <Genealogy>  (15) 
COc1cc2nc(-c3ccc(N4CCOCC4)nc3)n(C)c2cc1OC (3D coordinates assigned)
COc1cc2nc(-c3ccc(N4CCOCC4)nc3)n(C)c2cc1OC (nonaromatic ring conformer: 96.82362100998273 kcal/mol)

>  <smiles>  (15) 
COc1cc2nc(-c3ccc(N4CCOCC4)nc3)n(C)c2cc1OC

>  <score_type>  (15) 
oracle

>  <origin>  (15) 
adg

>  <m_score__min__energy>  (15) 
-7.46

>  <m_primary>  (15) 
energy

$$$$
15:0
     RDKit          3D

 24 24  0  0  0  0  0  0  0  0999 V2000
   59.1820   30.0660   45.6030 C   0  0  0  0  0  0  0  0  0  0  0  0
   58.7180   31.4580   45.6260 N   0  0  0  0  0  0  0  0  0  0  0  0
   59.5510   32.4280   46.0350 N   0  0  0  0  0  0  0  0  0  0  0  0
   59.1660   33.7370   46.0730 C   0  0  0  0  0  0  0  0  0  0  0  0
   60.1370   34.8010   46.5070 C   0  0  0  0  0  0  0  0  0  0  0  0
   61.1740   34.2150   47.4740 C   0  0  0  0  0  0  0  0  0  0  0  0
   62.4750   33.8390   46.7620 C   0  0  0  0  0  0  0  0  0  0  0  0
   63.7670   33.0770   47.9950 Br  0  0  0  0  0  0  0  0  0  0  0  0
   57.8820   34.0830   45.6480 C   0  0  0  0  0  0  0  0  0  0  0  0
   57.0170   33.0860   45.2170 C   0  0  0  0  0  0  0  0  0  0  0  0
   57.4490   31.7620   45.2090 C   0  0  0  0  0  0  0  0  0  0  0  0
   56.6650   30.8570   44.8140 O   0  0  0  0  0  0  0  0  0  0  0  0
   59.3031   29.7028   46.6342 H   0  0  0  0  0  0  0  0  0  0  0  0
   58.4433   29.4419   45.0788 H   0  0  0  0  0  0  0  0  0  0  0  0
   60.1474   30.0099   45.0788 H   0  0  0  0  0  0  0  0  0  0  0  0
   60.5230   32.1870   46.3340 H   0  0  0  0  0  0  0  0  0  0  0  0
   60.6527   35.2038   45.6228 H   0  0  0  0  0  0  0  0  0  0  0  0
   59.5838   35.6021   47.0190 H   0  0  0  0  0  0  0  0  0  0  0  0
   61.3972   34.9617   48.2503 H   0  0  0  0  0  0  0  0  0  0  0  0
   60.7501   33.2994   47.9121 H   0  0  0  0  0  0  0  0  0  0  0  0
   62.2524   33.1016   45.9767 H   0  0  0  0  0  0  0  0  0  0  0  0
   62.9082   34.7530   46.3297 H   0  0  0  0  0  0  0  0  0  0  0  0
   57.5589   35.1345   45.6545 H   0  0  0  0  0  0  0  0  0  0  0  0
   55.9995   33.3397   44.8848 H   0  0  0  0  0  0  0  0  0  0  0  0
  1  2  1  0
  2  3  1  0
  3  4  2  0
  4  5  1  0
  5  6  1  0
  6  7  1  0
  7  8  1  0
  4  9  1  0
  9 10  2  0
 10 11  1  0
 11 12  2  0
 11  2  1  0
  1 13  1  0
  1 14  1  0
  1 15  1  0
  3 16  1  0
  5 17  1  0
  5 18  1  0
  6 19  1  0
  6 20  1  0
  7 21  1  0
  7 22  1  0
  9 23  1  0
 10 24  1  0
M  CHG  1   3   1
M  END
>  <UniqueID>  (16) 
16

>  <SMILES>  (16) 
Cn1[nH+]c(CCCBr)ccc1=O

>  <Energy>  (16) 
18.335911987439932

>  <Genealogy>  (16) 
Cn1[nH+]c(CCCBr)ccc1=O (protonated)
Cn1[nH+]c(CCCBr)ccc1=O (3D coordinates assigned)
Cn1[nH+]c(CCCBr)ccc1=O (optimized conformer: 18.335911987439932 kcal/mol)

>  <smiles>  (16) 
Cn1nc(CCCBr)ccc1=O

>  <score_type>  (16) 
oracle

>  <origin>  (16) 
adg

>  <m_score__min__energy>  (16) 
-3.71

>  <m_primary>  (16) 
energy

$$$$
16:0
     RDKit          3D

 70 74  0  0  0  0  0  0  0  0999 V2000
   62.8310   32.1590   48.6860 C   0  0  0  0  0  0  0  0  0  0  0  0
   61.9460   30.9130   48.6740 C   0  0  0  0  0  0  0  0  0  0  0  0
   61.8530   30.2690   50.0600 C   0  0  0  0  0  0  0  0  0  0  0  0
   60.6610   29.4110   50.1510 N   0  0  0  0  0  0  0  0  0  0  0  0
   60.7280   28.3160   49.1730 C   0  0  0  0  0  0  0  0  0  0  0  0
   59.8230   28.6200   47.9700 C   0  0  0  0  0  0  0  0  0  0  0  0
   58.9880   29.7940   48.2220 N   0  0  0  0  0  0  0  0  0  0  0  0
   58.6240   30.6840   47.1530 C   0  0  0  0  0  0  0  0  0  0  0  0
   58.1040   30.1530   45.9600 C   0  0  0  0  0  0  0  0  0  0  0  0
   57.7430   28.7900   45.8720 C   0  0  0  0  0  0  0  0  0  0  0  0
   57.2000   28.2710   44.6990 C   0  0  0  0  0  0  0  0  0  0  0  0
   56.9860   29.1020   43.6060 C   0  0  0  0  0  0  0  0  0  0  0  0
   57.3350   30.4510   43.6710 C   0  0  0  0  0  0  0  0  0  0  0  0
   57.9270   30.9980   44.8370 C   0  0  0  0  0  0  0  0  0  0  0  0
   58.3170   32.3210   44.9020 N   0  0  0  0  0  0  0  0  0  0  0  0
   58.4440   33.1140   43.6590 C   0  0  0  0  0  0  0  0  0  0  0  0
   58.6070   32.8970   46.1250 C   0  0  0  0  0  0  0  0  0  0  0  0
   58.7240   34.3010   46.2610 C   0  0  0  0  0  0  0  0  0  0  0  0
   59.0700   34.8790   47.4760 C   0  0  0  0  0  0  0  0  0  0  0  0
   59.2830   34.0880   48.5930 C   0  0  0  0  0  0  0  0  0  0  0  0
   59.1330   32.6930   48.5250 C   0  0  0  0  0  0  0  0  0  0  0  0
   59.3090   31.9060   49.6750 O   0  0  0  0  0  0  0  0  0  0  0  0
   58.6970   32.1470   50.9400 C   0  0  0  0  0  0  0  0  0  0  0  0
   57.8110   30.9990   51.3140 C   0  0  0  0  0  0  0  0  0  0  0  0
   57.9120   29.9010   50.7010 O   0  0  0  0  0  0  0  0  0  0  0  0
   56.8180   31.1680   52.3360 N   0  0  0  0  0  0  0  0  0  0  0  0
   55.9320   30.1100   52.7290 C   0  0  0  0  0  0  0  0  0  0  0  0
   56.4400   29.0780   53.5300 C   0  0  0  0  0  0  0  0  0  0  0  0
   55.6270   28.0130   53.9190 C   0  0  0  0  0  0  0  0  0  0  0  0
   54.2900   27.9680   53.5260 C   0  0  0  0  0  0  0  0  0  0  0  0
   53.7480   29.0030   52.7510 C   0  0  0  0  0  0  0  0  0  0  0  0
   52.3950   28.9690   52.3790 C   0  0  0  0  0  0  0  0  0  0  0  0
   51.8430   30.0160   51.6360 C   0  0  0  0  0  0  0  0  0  0  0  0
   52.6320   31.1050   51.2680 C   0  0  0  0  0  0  0  0  0  0  0  0
   53.9820   31.1520   51.6280 C   0  0  0  0  0  0  0  0  0  0  0  0
   54.5650   30.0960   52.3550 C   0  0  0  0  0  0  0  0  0  0  0  0
   58.7870   32.0840   47.2820 C   0  0  0  0  0  0  0  0  0  0  0  0
   63.0386   32.4513   49.7259 H   0  0  0  0  0  0  0  0  0  0  0  0
   63.7779   31.9412   48.1704 H   0  0  0  0  0  0  0  0  0  0  0  0
   62.3134   32.9813   48.1704 H   0  0  0  0  0  0  0  0  0  0  0  0
   60.9356   31.1970   48.3447 H   0  0  0  0  0  0  0  0  0  0  0  0
   62.3947   30.1812   47.9861 H   0  0  0  0  0  0  0  0  0  0  0  0
   62.7517   29.6600   50.2372 H   0  0  0  0  0  0  0  0  0  0  0  0
   61.7779   31.0635   50.8170 H   0  0  0  0  0  0  0  0  0  0  0  0
   59.8260   30.0000   49.9190 H   0  0  0  0  0  0  0  0  0  0  0  0
   61.7658   28.2017   48.8267 H   0  0  0  0  0  0  0  0  0  0  0  0
   60.3862   27.3867   49.6522 H   0  0  0  0  0  0  0  0  0  0  0  0
   60.4509   28.8088   47.0868 H   0  0  0  0  0  0  0  0  0  0  0  0
   59.1660   27.7543   47.7997 H   0  0  0  0  0  0  0  0  0  0  0  0
   58.5240   29.9020   49.1530 H   0  0  0  0  0  0  0  0  0  0  0  0
   57.8925   28.1309   46.7399 H   0  0  0  0  0  0  0  0  0  0  0  0
   56.9407   27.2038   44.6379 H   0  0  0  0  0  0  0  0  0  0  0  0
   56.5400   28.6947   42.6866 H   0  0  0  0  0  0  0  0  0  0  0  0
   57.1478   31.1008   42.8034 H   0  0  0  0  0  0  0  0  0  0  0  0
   58.6132   34.1706   43.9138 H   0  0  0  0  0  0  0  0  0  0  0  0
   59.2934   32.7384   43.0696 H   0  0  0  0  0  0  0  0  0  0  0  0
   57.5197   33.0224   43.0696 H   0  0  0  0  0  0  0  0  0  0  0  0
   58.5377   34.9457   45.3894 H   0  0  0  0  0  0  0  0  0  0  0  0
   59.1754   35.9713   47.5515 H   0  0  0  0  0  0  0  0  0  0  0  0
   59.5730   34.5578   49.5444 H   0  0  0  0  0  0  0  0  0  0  0  0
   59.4786   32.2667   51.7047 H   0  0  0  0  0  0  0  0  0  0  0  0
   58.0902   33.0623   50.8762 H   0  0  0  0  0  0  0  0  0  0  0  0
   56.8820   32.0070   52.9540 H   0  0  0  0  0  0  0  0  0  0  0  0
   57.4904   29.1081   53.8552 H   0  0  0  0  0  0  0  0  0  0  0  0
   56.0428   27.2049   54.5387 H   0  0  0  0  0  0  0  0  0  0  0  0
   53.6587   27.1182   53.8248 H   0  0  0  0  0  0  0  0  0  0  0  0
   51.7670   28.1152   52.6733 H   0  0  0  0  0  0  0  0  0  0  0  0
   50.7839   29.9809   51.3409 H   0  0  0  0  0  0  0  0  0  0  0  0
   52.1901   31.9312   50.6916 H   0  0  0  0  0  0  0  0  0  0  0  0
   54.5935   32.0203   51.3413 H   0  0  0  0  0  0  0  0  0  0  0  0
  1  2  1  0
  2  3  1  0
  3  4  1  0
  4  5  1  0
  5  6  1  0
  6  7  1  0
  7  8  1  0
  8  9  2  0
  9 10  1  0
 10 11  2  0
 11 12  1  0
 12 13  2  0
 13 14  1  0
 14 15  2  0
 15 16  1  0
 15 17  1  0
 17 18  2  0
 18 19  1  0
 19 20  2  0
 20 21  1  0
 21 22  1  0
 22 23  1  0
 23 24  1  0
 24 25  2  0
 24 26  1  0
 26 27  1  0
 27 28  2  0
 28 29  1  0
 29 30  2  0
 30 31  1  0
 31 32  2  0
 32 33  1  0
 33 34  2  0
 34 35  1  0
 35 36  2  0
 21 37  2  0
 37  8  1  0
 14  9  1  0
 37 17  1  0
 36 27  1  0
 36 31  1  0
  1 38  1  0
  1 39  1  0
  1 40  1  0
  2 41  1  0
  2 42  1  0
  3 43  1  0
  3 44  1  0
  4 45  1  0
  5 46  1  0
  5 47  1  0
  6 48  1  0
  6 49  1  0
  7 50  1  0
 10 51  1  0
 11 52  1  0
 12 53  1  0
 13 54  1  0
 16 55  1  0
 16 56  1  0
 16 57  1  0
 18 58  1  0
 19 59  1  0
 20 60  1  0
 23 61  1  0
 23 62  1  0
 26 63  1  0
 28 64  1  0
 29 65  1  0
 30 66  1  0
 32 67  1  0
 33 68  1  0
 34 69  1  0
 35 70  1  0
M  CHG  1  15   1
M  END
>  <UniqueID>  (17) 
17

>  <SMILES>  (17) 
CCCNCCNc1c2ccccc2[n+](C)c2cccc(OCC(=O)Nc3cccc4ccccc34)c12

>  <Energy>  (17) 
106.60479301659603

>  <Genealogy>  (17) 
CCCNCCNc1c2ccccc2[n+](C)c2cccc(OCC(=O)Nc3cccc4ccccc34)c12 (3D coordinates assigned)
CCCNCCNc1c2ccccc2[n+](C)c2cccc(OCC(=O)Nc3cccc4ccccc34)c12 (optimized conformer: 106.60479301659603 kcal/mol)

>  <smiles>  (17) 
CCCNCCNc1c2ccccc2[n+](C)c2cccc(OCC(=O)Nc3cccc4ccccc34)c12

>  <score_type>  (17) 
oracle

>  <origin>  (17) 
adg

>  <m_score__min__energy>  (17) 
-8.0099999999999998

>  <m_primary>  (17) 
energy

$$$$
17:0
     RDKit          3D

 78 81  0  0  0  0  0  0  0  0999 V2000
   62.0480   33.8800   46.3710 C   0  0  0  0  0  0  0  0  0  0  0  0
   63.4690   33.4620   46.7360 C   0  0  0  0  0  0  0  0  0  0  0  0
   63.4720   32.0900   47.2590 N   0  0  0  0  0  0  0  0  0  0  0  0
   63.8150   32.0440   48.6880 C   0  0  0  0  0  0  0  0  0  0  0  0
   62.5460   32.1970   49.5320 C   0  0  0  0  0  0  0  0  0  0  0  0
   61.9570   30.8290   49.8950 C   0  0  0  0  0  0  0  0  0  0  0  0
   60.8500   30.4110   48.9110 C   0  0  0  0  0  0  0  0  0  0  0  0
   61.0310   31.0350   47.5840 N   0  0  0  0  0  0  0  0  0  0  0  0
   59.8230   30.9470   46.7650 C   0  0  0  0  0  0  0  0  0  0  0  0
   59.5460   29.7550   46.0470 C   0  0  0  0  0  0  0  0  0  0  0  0
   60.1190   28.5180   46.4320 C   0  0  0  0  0  0  0  0  0  0  0  0
   59.9110   27.3660   45.6790 C   0  0  0  0  0  0  0  0  0  0  0  0
   59.1470   27.4180   44.5230 C   0  0  0  0  0  0  0  0  0  0  0  0
   58.5540   28.6150   44.1300 C   0  0  0  0  0  0  0  0  0  0  0  0
   58.7000   29.7980   44.9040 C   0  0  0  0  0  0  0  0  0  0  0  0
   58.0870   30.9800   44.5350 N   0  0  0  0  0  0  0  0  0  0  0  0
   57.0650   30.9790   43.4610 C   0  0  0  0  0  0  0  0  0  0  0  0
   58.3740   32.1510   45.2060 C   0  0  0  0  0  0  0  0  0  0  0  0
   57.9880   33.4110   44.6890 C   0  0  0  0  0  0  0  0  0  0  0  0
   58.1430   34.5710   45.4380 C   0  0  0  0  0  0  0  0  0  0  0  0
   58.6180   34.4990   46.7390 C   0  0  0  0  0  0  0  0  0  0  0  0
   59.0540   33.2760   47.2720 C   0  0  0  0  0  0  0  0  0  0  0  0
   59.2510   33.1660   48.6950 N   0  0  0  0  0  0  0  0  0  0  0  0
   59.8010   34.2410   49.5230 C   0  0  0  0  0  0  0  0  0  0  0  0
   60.0430   33.7820   50.9720 C   0  0  0  0  0  0  0  0  0  0  0  0
   58.7820   33.6520   51.8780 C   0  0  0  0  0  0  0  0  0  0  0  0
   58.5900   32.3590   52.6180 N   0  0  0  0  0  0  0  0  0  0  0  0
   59.1550   32.4680   53.9900 C   0  0  0  0  0  0  0  0  0  0  0  0
   57.1130   32.1110   52.7480 C   0  0  0  0  0  0  0  0  0  0  0  0
   56.5710   31.2100   51.6200 C   0  0  0  0  0  0  0  0  0  0  0  0
   57.1630   29.9180   51.5970 O   0  0  0  0  0  0  0  0  0  0  0  0
   58.4910   29.8960   52.1020 C   0  0  0  0  0  0  0  0  0  0  0  0
   59.2420   31.2250   51.8920 C   0  0  0  0  0  0  0  0  0  0  0  0
   59.0850   32.1190   46.4370 C   0  0  0  0  0  0  0  0  0  0  0  0
   61.4684   34.0505   47.2902 H   0  0  0  0  0  0  0  0  0  0  0  0
   62.0789   34.8071   45.7798 H   0  0  0  0  0  0  0  0  0  0  0  0
   61.5720   33.0838   45.7798 H   0  0  0  0  0  0  0  0  0  0  0  0
   64.1045   33.5111   45.8395 H   0  0  0  0  0  0  0  0  0  0  0  0
   63.8578   34.1427   47.5077 H   0  0  0  0  0  0  0  0  0  0  0  0
   64.1920   31.5380   46.7360 H   0  0  0  0  0  0  0  0  0  0  0  0
   64.2924   31.0801   48.9180 H   0  0  0  0  0  0  0  0  0  0  0  0
   64.5076   32.8660   48.9216 H   0  0  0  0  0  0  0  0  0  0  0  0
   62.7927   32.7389   50.4569 H   0  0  0  0  0  0  0  0  0  0  0  0
   61.8008   32.7539   48.9450 H   0  0  0  0  0  0  0  0  0  0  0  0
   62.7593   30.0768   49.8706 H   0  0  0  0  0  0  0  0  0  0  0  0
   61.5159   30.8995   50.9002 H   0  0  0  0  0  0  0  0  0  0  0  0
   60.8704   29.3172   48.7959 H   0  0  0  0  0  0  0  0  0  0  0  0
   59.8854   30.7478   49.3185 H   0  0  0  0  0  0  0  0  0  0  0  0
   61.8520   30.5550   47.1670 H   0  0  0  0  0  0  0  0  0  0  0  0
   61.3270   32.0310   47.6910 H   0  0  0  0  0  0  0  0  0  0  0  0
   60.7378   28.4671   47.3400 H   0  0  0  0  0  0  0  0  0  0  0  0
   60.3537   26.4121   46.0017 H   0  0  0  0  0  0  0  0  0  0  0  0
   59.0091   26.5117   43.9151 H   0  0  0  0  0  0  0  0  0  0  0  0
   57.9617   28.6455   43.2036 H   0  0  0  0  0  0  0  0  0  0  0  0
   56.0609   30.9780   43.9103 H   0  0  0  0  0  0  0  0  0  0  0  0
   57.1870   31.8773   42.8379 H   0  0  0  0  0  0  0  0  0  0  0  0
   57.1888   30.0810   42.8379 H   0  0  0  0  0  0  0  0  0  0  0  0
   57.5585   33.4727   43.6782 H   0  0  0  0  0  0  0  0  0  0  0  0
   57.8888   35.5470   44.9988 H   0  0  0  0  0  0  0  0  0  0  0  0
   58.6533   35.4076   47.3581 H   0  0  0  0  0  0  0  0  0  0  0  0
   59.0920   32.2370   49.1440 H   0  0  0  0  0  0  0  0  0  0  0  0
   60.7570   34.5701   49.0897 H   0  0  0  0  0  0  0  0  0  0  0  0
   59.0710   35.0636   49.5431 H   0  0  0  0  0  0  0  0  0  0  0  0
   60.5305   32.7967   50.9338 H   0  0  0  0  0  0  0  0  0  0  0  0
   60.6520   34.5745   51.4314 H   0  0  0  0  0  0  0  0  0  0  0  0
   58.8301   34.4562   52.6269 H   0  0  0  0  0  0  0  0  0  0  0  0
   57.9309   33.7063   51.1832 H   0  0  0  0  0  0  0  0  0  0  0  0
   58.3552   32.3137   54.7292 H   0  0  0  0  0  0  0  0  0  0  0  0
   59.9339   31.7036   54.1276 H   0  0  0  0  0  0  0  0  0  0  0  0
   59.5936   33.4673   54.1276 H   0  0  0  0  0  0  0  0  0  0  0  0
   56.9197   31.6230   53.7147 H   0  0  0  0  0  0  0  0  0  0  0  0
   56.6007   33.0820   52.6795 H   0  0  0  0  0  0  0  0  0  0  0  0
   55.4858   31.0941   51.7571 H   0  0  0  0  0  0  0  0  0  0  0  0
   56.8192   31.6984   50.6661 H   0  0  0  0  0  0  0  0  0  0  0  0
   58.4515   29.6833   53.1805 H   0  0  0  0  0  0  0  0  0  0  0  0
   59.0388   29.1197   51.5477 H   0  0  0  0  0  0  0  0  0  0  0  0
   60.2722   31.1127   52.2610 H   0  0  0  0  0  0  0  0  0  0  0  0
   59.2271   31.4570   50.8169 H   0  0  0  0  0  0  0  0  0  0  0  0
  1  2  1  0
  2  3  1  0
  3  4  1  0
  4  5  1  0
  5  6  1  0
  6  7  1  0
  7  8  1  0
  8  9  1  0
  9 10  2  0
 10 11  1  0
 11 12  2  0
 12 13  1  0
 13 14  2  0
 14 15  1  0
 15 16  2  0
 16 17  1  0
 16 18  1  0
 18 19  2  0
 19 20  1  0
 20 21  2  0
 21 22  1  0
 22 23  1  0
 23 24  1  0
 24 25  1  0
 25 26  1  0
 26 27  1  0
 27 28  1  0
 27 29  1  0
 29 30  1  0
 30 31  1  0
 31 32  1  0
 32 33  1  0
 22 34  2  0
 34  9  1  0
 15 10  1  0
 34 18  1  0
 33 27  1  0
  1 35  1  0
  1 36  1  0
  1 37  1  0
  2 38  1  0
  2 39  1  0
  3 40  1  0
  4 41  1  0
  4 42  1  0
  5 43  1  0
  5 44  1  0
  6 45  1  0
  6 46  1  0
  7 47  1  0
  7 48  1  0
  8 49  1  0
  8 50  1  0
 11 51  1  0
 12 52  1  0
 13 53  1  0
 14 54  1  0
 17 55  1  0
 17 56  1  0
 17 57  1  0
 19 58  1  0
 20 59  1  0
 21 60  1  0
 23 61  1  0
 24 62  1  0
 24 63  1  0
 25 64  1  0
 25 65  1  0
 26 66  1  0
 26 67  1  0
 28 68  1  0
 28 69  1  0
 28 70  1  0
 29 71  1  0
 29 72  1  0
 30 73  1  0
 30 74  1  0
 32 75  1  0
 32 76  1  0
 33 77  1  0
 33 78  1  0
M  CHG  3   8   1  16   1  27   1
M  END
>  <UniqueID>  (18) 
18

>  <SMILES>  (18) 
CCNCCCC[NH2+]c1c2ccccc2[n+](C)c2cccc(NCCC[N+]3(C)CCOCC3)c12

>  <Energy>  (18) 
137.72950591614594

>  <Genealogy>  (18) 
CCNCCCC[NH2+]c1c2ccccc2[n+](C)c2cccc(NCCC[N+]3(C)CCOCC3)c12 (protonated)
CCNCCCC[NH2+]c1c2ccccc2[n+](C)c2cccc(NCCC[N+]3(C)CCOCC3)c12 (3D coordinates assigned)
CCNCCCC[NH2+]c1c2ccccc2[n+](C)c2cccc(NCCC[N+]3(C)CCOCC3)c12 (nonaromatic ring conformer: 137.72950591614594 kcal/mol)

>  <smiles>  (18) 
CCNCCCCNc1c2ccccc2[n+](C)c2cccc(NCCC[N+]3(C)CCOCC3)c12

>  <score_type>  (18) 
oracle

>  <origin>  (18) 
adg

>  <m_score__min__energy>  (18) 
-4.2199999999999998

>  <m_primary>  (18) 
energy

$$$$
18:0
     RDKit          3D

 35 36  0  0  0  0  0  0  0  0999 V2000
   56.3440   23.0170   43.4510 C   0  0  0  0  0  0  0  0  0  0  0  0
   57.0180   24.3850   43.3670 C   0  0  0  0  0  0  0  0  0  0  0  0
   57.1700   25.0720   44.7350 C   0  0  0  0  0  0  0  0  0  0  0  0
   57.7990   26.4710   44.6560 C   0  0  0  0  0  0  0  0  0  0  0  0
   57.8820   27.0630   42.9290 S   0  0  0  0  0  0  0  0  0  0  0  0
   57.4270   28.7440   43.3630 C   0  0  0  0  0  0  0  0  0  0  0  0
   56.2960   29.3400   42.9540 N   0  0  0  0  0  0  0  0  0  0  0  0
   56.2750   30.5660   43.4490 N   0  0  0  0  0  0  0  0  0  0  0  0
   57.4070   30.7020   44.1740 C   0  0  0  0  0  0  0  0  0  0  0  0
   57.7470   31.9450   44.8990 C   0  0  0  0  0  0  0  0  0  0  0  0
   57.8140   33.1830   44.2330 C   0  0  0  0  0  0  0  0  0  0  0  0
   58.1570   34.3430   44.9330 C   0  0  0  0  0  0  0  0  0  0  0  0
   58.4480   34.2780   46.2980 C   0  0  0  0  0  0  0  0  0  0  0  0
   58.4050   33.0510   46.9630 C   0  0  0  0  0  0  0  0  0  0  0  0
   58.0630   31.8880   46.2660 C   0  0  0  0  0  0  0  0  0  0  0  0
   58.1610   29.5770   44.1260 N   0  0  0  0  0  0  0  0  0  0  0  0
   59.4630   29.3080   44.7360 C   0  0  0  0  0  0  0  0  0  0  0  0
   56.2074   22.7398   44.5067 H   0  0  0  0  0  0  0  0  0  0  0  0
   55.3639   23.0599   42.9534 H   0  0  0  0  0  0  0  0  0  0  0  0
   56.9753   22.2661   42.9534 H   0  0  0  0  0  0  0  0  0  0  0  0
   58.0183   24.2553   42.9281 H   0  0  0  0  0  0  0  0  0  0  0  0
   56.3749   25.0283   42.7484 H   0  0  0  0  0  0  0  0  0  0  0  0
   56.1728   25.1646   45.1900 H   0  0  0  0  0  0  0  0  0  0  0  0
   57.8483   24.4476   45.3351 H   0  0  0  0  0  0  0  0  0  0  0  0
   57.1904   27.1717   45.2464 H   0  0  0  0  0  0  0  0  0  0  0  0
   58.8229   26.4151   45.0542 H   0  0  0  0  0  0  0  0  0  0  0  0
   55.5520   28.9290   42.3470 H   0  0  0  0  0  0  0  0  0  0  0  0
   57.5953   33.2379   43.1563 H   0  0  0  0  0  0  0  0  0  0  0  0
   58.1979   35.3089   44.4083 H   0  0  0  0  0  0  0  0  0  0  0  0
   58.7109   35.1932   46.8486 H   0  0  0  0  0  0  0  0  0  0  0  0
   58.6404   32.9992   48.0363 H   0  0  0  0  0  0  0  0  0  0  0  0
   58.0414   30.9222   46.7920 H   0  0  0  0  0  0  0  0  0  0  0  0
   59.3658   29.3281   45.8315 H   0  0  0  0  0  0  0  0  0  0  0  0
   59.8194   28.3172   44.4176 H   0  0  0  0  0  0  0  0  0  0  0  0
   60.1829   30.0764   44.4176 H   0  0  0  0  0  0  0  0  0  0  0  0
  1  2  1  0
  2  3  1  0
  3  4  1  0
  4  5  1  0
  5  6  1  0
  6  7  2  0
  7  8  1  0
  8  9  2  0
  9 10  1  0
 10 11  2  0
 11 12  1  0
 12 13  2  0
 13 14  1  0
 14 15  2  0
  9 16  1  0
 16 17  1  0
 16  6  1  0
 15 10  1  0
  1 18  1  0
  1 19  1  0
  1 20  1  0
  2 21  1  0
  2 22  1  0
  3 23  1  0
  3 24  1  0
  4 25  1  0
  4 26  1  0
  7 27  1  0
 11 28  1  0
 12 29  1  0
 13 30  1  0
 14 31  1  0
 15 32  1  0
 17 33  1  0
 17 34  1  0
 17 35  1  0
M  CHG  1   7   1
M  END
>  <UniqueID>  (19) 
19

>  <SMILES>  (19) 
CCCCSc1[nH+]nc(-c2ccccc2)n1C

>  <Energy>  (19) 
66.24425592901349

>  <Genealogy>  (19) 
CCCCSc1[nH+]nc(-c2ccccc2)n1C (protonated)
CCCCSc1[nH+]nc(-c2ccccc2)n1C (3D coordinates assigned)
CCCCSc1[nH+]nc(-c2ccccc2)n1C (optimized conformer: 66.24425592901349 kcal/mol)

>  <smiles>  (19) 
CCCCSc1nnc(-c2ccccc2)n1C

>  <score_type>  (19) 
oracle

>  <origin>  (19) 
adg

>  <m_score__min__energy>  (19) 
-5.2400000000000002

>  <m_primary>  (19) 
energy

$$$$
19:0
     RDKit          3D

 69 70  0  0  0  0  0  0  0  0999 V2000
   56.3650   24.5120   44.8780 C   0  0  0  0  0  0  0  0  0  0  0  0
   55.2480   25.1810   45.6650 C   0  0  0  0  0  0  0  0  0  0  0  0
   55.6520   26.4920   46.0090 O   0  0  0  0  0  0  0  0  0  0  0  0
   56.9740   26.7520   45.5660 C   0  0  0  0  0  0  0  0  0  0  0  0
   57.6540   27.8420   46.4040 C   0  0  0  0  0  0  0  0  0  0  0  0
   58.3370   28.7680   45.5610 O   0  0  0  0  0  0  0  0  0  0  0  0
   58.4380   30.1570   45.7460 C   0  0  0  0  0  0  0  0  0  0  0  0
   59.5460   30.7750   46.3790 C   0  0  0  0  0  0  0  0  0  0  0  0
   59.5750   32.1760   46.4890 C   0  0  0  0  0  0  0  0  0  0  0  0
   58.5810   32.9360   45.9260 C   0  0  0  0  0  0  0  0  0  0  0  0
   57.4680   32.3560   45.3210 C   0  0  0  0  0  0  0  0  0  0  0  0
   57.3870   30.9510   45.2400 C   0  0  0  0  0  0  0  0  0  0  0  0
   56.2890   30.3050   44.6540 O   0  0  0  0  0  0  0  0  0  0  0  0
   56.2250   29.8950   43.2900 C   0  0  0  0  0  0  0  0  0  0  0  0
   57.0150   30.8710   42.4330 C   0  0  0  0  0  0  0  0  0  0  0  0
   58.8920   34.3790   45.9640 C   0  0  0  0  0  0  0  0  0  0  0  0
   60.3710   34.3940   46.3540 C   0  0  0  0  0  0  0  0  0  0  0  0
   60.6700   33.0380   47.0600 C   0  0  1  0  0  0  0  0  0  0  0  0
   60.5750   33.1650   48.5470 N   0  0  0  0  0  0  0  0  0  0  0  0
   59.2100   33.1030   49.1410 C   0  0  0  0  0  0  0  0  0  0  0  0
   58.8590   31.7740   49.8320 C   0  0  0  0  0  0  0  0  0  0  0  0
   61.4170   34.2160   49.1720 C   0  0  0  0  0  0  0  0  0  0  0  0
   62.9190   33.8380   49.2620 C   0  0  0  0  0  0  0  0  0  0  0  0
   63.1660   32.3890   49.0310 N   0  0  0  0  0  0  0  0  0  0  0  0
   63.7470   32.1760   47.6790 C   0  0  0  0  0  0  0  0  0  0  0  0
   63.7490   33.4470   46.8160 C   0  0  0  0  0  0  0  0  0  0  0  0
   64.0740   31.8430   50.0770 C   0  0  0  0  0  0  0  0  0  0  0  0
   65.4460   32.5340   50.1010 C   0  0  0  0  0  0  0  0  0  0  0  0
   57.0944   24.0751   45.5759 H   0  0  0  0  0  0  0  0  0  0  0  0
   55.9426   23.7181   44.2445 H   0  0  0  0  0  0  0  0  0  0  0  0
   56.8656   25.2591   44.2445 H   0  0  0  0  0  0  0  0  0  0  0  0
   54.3374   25.2247   45.0494 H   0  0  0  0  0  0  0  0  0  0  0  0
   55.0377   24.6041   46.5777 H   0  0  0  0  0  0  0  0  0  0  0  0
   57.5630   25.8260   45.6416 H   0  0  0  0  0  0  0  0  0  0  0  0
   56.9217   27.1049   44.5255 H   0  0  0  0  0  0  0  0  0  0  0  0
   56.8913   28.3784   46.9875 H   0  0  0  0  0  0  0  0  0  0  0  0
   58.3840   27.3691   47.0774 H   0  0  0  0  0  0  0  0  0  0  0  0
   60.3710   30.1668   46.7783 H   0  0  0  0  0  0  0  0  0  0  0  0
   56.6638   32.9855   44.9123 H   0  0  0  0  0  0  0  0  0  0  0  0
   56.6540   28.8871   43.1890 H   0  0  0  0  0  0  0  0  0  0  0  0
   55.1761   29.8803   42.9591 H   0  0  0  0  0  0  0  0  0  0  0  0
   57.5734   31.5608   43.0829 H   0  0  0  0  0  0  0  0  0  0  0  0
   57.7197   30.3141   41.7980 H   0  0  0  0  0  0  0  0  0  0  0  0
   56.3235   31.4443   41.7980 H   0  0  0  0  0  0  0  0  0  0  0  0
   58.7367   34.8443   44.9794 H   0  0  0  0  0  0  0  0  0  0  0  0
   58.2521   34.9454   46.6567 H   0  0  0  0  0  0  0  0  0  0  0  0
   60.9974   34.4984   45.4558 H   0  0  0  0  0  0  0  0  0  0  0  0
   60.5925   35.2406   47.0205 H   0  0  0  0  0  0  0  0  0  0  0  0
   61.6830   32.6431   46.8930 H   0  0  0  0  0  0  0  0  0  0  0  0
   59.1259   33.9074   49.8866 H   0  0  0  0  0  0  0  0  0  0  0  0
   58.5058   33.2077   48.3024 H   0  0  0  0  0  0  0  0  0  0  0  0
   58.8943   31.9076   50.9233 H   0  0  0  0  0  0  0  0  0  0  0  0
   57.8475   31.4614   49.5334 H   0  0  0  0  0  0  0  0  0  0  0  0
   59.5842   31.0027   49.5334 H   0  0  0  0  0  0  0  0  0  0  0  0
   61.3252   35.1355   48.5752 H   0  0  0  0  0  0  0  0  0  0  0  0
   61.0557   34.3477   50.2026 H   0  0  0  0  0  0  0  0  0  0  0  0
   63.4718   34.4134   48.5048 H   0  0  0  0  0  0  0  0  0  0  0  0
   63.2579   34.0723   50.2819 H   0  0  0  0  0  0  0  0  0  0  0  0
   62.2530   31.8860   49.0850 H   0  0  0  0  0  0  0  0  0  0  0  0
   64.7847   31.8299   47.7946 H   0  0  0  0  0  0  0  0  0  0  0  0
   63.1192   31.4326   47.1660 H   0  0  0  0  0  0  0  0  0  0  0  0
   63.7504   34.3329   47.4680 H   0  0  0  0  0  0  0  0  0  0  0  0
   64.6472   33.4576   46.1810 H   0  0  0  0  0  0  0  0  0  0  0  0
   62.8509   33.4605   46.1810 H   0  0  0  0  0  0  0  0  0  0  0  0
   63.5972   31.9761   51.0593 H   0  0  0  0  0  0  0  0  0  0  0  0
   64.2441   30.7816   49.8437 H   0  0  0  0  0  0  0  0  0  0  0  0
   65.7590   32.6916   51.1437 H   0  0  0  0  0  0  0  0  0  0  0  0
   66.1847   31.9004   49.5882 H   0  0  0  0  0  0  0  0  0  0  0  0
   65.3767   33.5047   49.5882 H   0  0  0  0  0  0  0  0  0  0  0  0
  1  2  1  0
  2  3  1  0
  3  4  1  0
  4  5  1  0
  5  6  1  0
  6  7  1  0
  7  8  2  0
  8  9  1  0
  9 10  2  0
 10 11  1  0
 11 12  2  0
 12 13  1  0
 13 14  1  0
 14 15  1  0
 10 16  1  0
 16 17  1  0
 17 18  1  0
 18 19  1  0
 19 20  1  0
 20 21  1  0
 19 22  1  0
 22 23  1  0
 23 24  1  0
 24 25  1  0
 25 26  1  0
 24 27  1  0
 27 28  1  0
 12  7  1  0
 18  9  1  0
  1 29  1  0
  1 30  1  0
  1 31  1  0
  2 32  1  0
  2 33  1  0
  4 34  1  0
  4 35  1  0
  5 36  1  0
  5 37  1  0
  8 38  1  0
 11 39  1  0
 14 40  1  0
 14 41  1  0
 15 42  1  0
 15 43  1  0
 15 44  1  0
 16 45  1  0
 16 46  1  0
 17 47  1  0
 17 48  1  0
 18 49  1  1
 20 50  1  0
 20 51  1  0
 21 52  1  0
 21 53  1  0
 21 54  1  0
 22 55  1  0
 22 56  1  0
 23 57  1  0
 23 58  1  0
 24 59  1  0
 25 60  1  0
 25 61  1  0
 26 62  1  0
 26 63  1  0
 26 64  1  0
 27 65  1  0
 27 66  1  0
 28 67  1  0
 28 68  1  0
 28 69  1  0
M  CHG  1  24   1
M  END
>  <UniqueID>  (20) 
20

>  <SMILES>  (20) 
CCOCCOc1cc2c(cc1OCC)CC[C@H]2N(CC)CC[NH+](CC)CC

>  <Energy>  (20) 
82.96895239314736

>  <Genealogy>  (20) 
CCOCCOc1cc2c(cc1OCC)CCC2N(CC)CC[NH+](CC)CC (protonated)
CCOCCOc1cc2c(cc1OCC)CC[C@H]2N(CC)CC[NH+](CC)CC (chirality)
CCOCCOc1cc2c(cc1OCC)CC[C@H]2N(CC)CC[NH+](CC)CC (3D coordinates assigned)
CCOCCOc1cc2c(cc1OCC)CC[C@H]2N(CC)CC[NH+](CC)CC (nonaromatic ring conformer: 82.96895239314736 kcal/mol)

>  <smiles>  (20) 
CCOCCOc1cc2c(cc1OCC)CCC2N(CC)CCN(CC)CC

>  <score_type>  (20) 
oracle

>  <origin>  (20) 
adg

>  <m_score__min__energy>  (20) 
-5.7599999999999998

>  <m_primary>  (20) 
energy

$$$$
