0:0
     RDKit          3D

 58 60  0  0  0  0  0  0  0  0999 V2000
   63.0820   33.8690   46.3890 C   0  0  0  0  0  0  0  0  0  0  0  0
   63.2870   33.8320   47.9060 C   0  0  0  0  0  0  0  0  0  0  0  0
   62.6450   32.6800   48.4590 N   0  0  0  0  0  0  0  0  0  0  0  0
   62.5750   31.6220   47.5170 C   0  0  0  0  0  0  0  0  0  0  0  0
   63.0520   32.4310   49.7780 C   0  0  0  0  0  0  0  0  0  0  0  0
   62.4710   33.2980   50.8410 C   0  0  0  0  0  0  0  0  0  0  0  0
   61.1720   33.6260   50.5470 O   0  0  0  0  0  0  0  0  0  0  0  0
   60.2740   33.4210   51.5800 C   0  0  0  0  0  0  0  0  0  0  0  0
   59.5070   32.1360   51.2870 C   0  0  0  0  0  0  0  0  0  0  0  0
   58.7700   32.2670   49.9460 C   0  0  0  0  0  0  0  0  0  0  0  0
   59.7270   32.0660   48.9080 N   0  0  0  0  0  0  0  0  0  0  0  0
   59.3090   31.9660   47.5760 C   0  0  0  0  0  0  0  0  0  0  0  0
   58.8970   30.7050   47.1250 C   0  0  0  0  0  0  0  0  0  0  0  0
   58.9190   29.6510   48.0190 C   0  0  0  0  0  0  0  0  0  0  0  0
   58.5250   28.3800   47.6540 C   0  0  0  0  0  0  0  0  0  0  0  0
   58.1060   28.1900   46.3710 C   0  0  0  0  0  0  0  0  0  0  0  0
   58.0820   29.2480   45.4680 C   0  0  0  0  0  0  0  0  0  0  0  0
   58.4720   30.5260   45.8110 C   0  0  0  0  0  0  0  0  0  0  0  0
   58.4430   31.5590   44.9290 N   0  0  0  0  0  0  0  0  0  0  0  0
   58.0000   31.2660   43.5930 C   0  0  0  0  0  0  0  0  0  0  0  0
   58.8370   32.7590   45.3680 C   0  0  0  0  0  0  0  0  0  0  0  0
   58.8110   33.8340   44.5060 C   0  0  0  0  0  0  0  0  0  0  0  0
   59.2040   35.0910   44.9440 C   0  0  0  0  0  0  0  0  0  0  0  0
   59.6270   35.3300   46.2110 C   0  0  0  0  0  0  0  0  0  0  0  0
   59.6590   34.2480   47.0990 C   0  0  0  0  0  0  0  0  0  0  0  0
   60.0860   34.5410   48.4120 N   0  0  0  0  0  0  0  0  0  0  0  0
   59.2700   32.9980   46.6650 C   0  0  0  0  0  0  0  0  0  0  0  0
   62.0218   34.0603   46.1668 H   0  0  0  0  0  0  0  0  0  0  0  0
   63.6980   34.6705   45.9552 H   0  0  0  0  0  0  0  0  0  0  0  0
   63.3789   32.9027   45.9552 H   0  0  0  0  0  0  0  0  0  0  0  0
   64.3637   33.7901   48.1270 H   0  0  0  0  0  0  0  0  0  0  0  0
   62.8493   34.7376   48.3514 H   0  0  0  0  0  0  0  0  0  0  0  0
   62.5114   30.6612   48.0488 H   0  0  0  0  0  0  0  0  0  0  0  0
   61.6835   31.7514   46.8858 H   0  0  0  0  0  0  0  0  0  0  0  0
   63.4758   31.6328   46.8858 H   0  0  0  0  0  0  0  0  0  0  0  0
   62.7860   31.3906   50.0164 H   0  0  0  0  0  0  0  0  0  0  0  0
   64.1301   32.6488   49.7898 H   0  0  0  0  0  0  0  0  0  0  0  0
   62.4988   32.7601   51.8001 H   0  0  0  0  0  0  0  0  0  0  0  0
   63.0625   34.2233   50.9033 H   0  0  0  0  0  0  0  0  0  0  0  0
   60.8158   33.3238   52.5323 H   0  0  0  0  0  0  0  0  0  0  0  0
   59.5806   34.2713   51.6590 H   0  0  0  0  0  0  0  0  0  0  0  0
   60.2119   31.2931   51.2359 H   0  0  0  0  0  0  0  0  0  0  0  0
   58.7753   31.9578   52.0888 H   0  0  0  0  0  0  0  0  0  0  0  0
   57.9772   31.5076   49.8777 H   0  0  0  0  0  0  0  0  0  0  0  0
   58.3042   33.2594   49.8559 H   0  0  0  0  0  0  0  0  0  0  0  0
   60.7690   31.9910   49.0960 H   0  0  0  0  0  0  0  0  0  0  0  0
   59.2598   29.8303   49.0494 H   0  0  0  0  0  0  0  0  0  0  0  0
   58.5483   27.5485   48.3738 H   0  0  0  0  0  0  0  0  0  0  0  0
   57.7835   27.1898   46.0462 H   0  0  0  0  0  0  0  0  0  0  0  0
   57.7386   29.0581   44.4404 H   0  0  0  0  0  0  0  0  0  0  0  0
   57.0832   30.6596   43.6354 H   0  0  0  0  0  0  0  0  0  0  0  0
   57.7935   32.2062   43.0607 H   0  0  0  0  0  0  0  0  0  0  0  0
   58.7844   30.7080   43.0607 H   0  0  0  0  0  0  0  0  0  0  0  0
   58.4775   33.6953   43.4670 H   0  0  0  0  0  0  0  0  0  0  0  0
   59.1711   35.9299   44.2332 H   0  0  0  0  0  0  0  0  0  0  0  0
   59.9337   36.3374   46.5289 H   0  0  0  0  0  0  0  0  0  0  0  0
   60.9110   34.0400   48.8270 H   0  0  0  0  0  0  0  0  0  0  0  0
   59.6320   35.2400   49.0450 H   0  0  0  0  0  0  0  0  0  0  0  0
  1  2  1  0
  2  3  1  0
  3  4  1  0
  3  5  1  0
  5  6  1  0
  6  7  1  0
  7  8  1  0
  8  9  1  0
  9 10  1  0
 10 11  1  0
 11 12  1  0
 12 13  2  0
 13 14  1  0
 14 15  2  0
 15 16  1  0
 16 17  2  0
 17 18  1  0
 18 19  2  0
 19 20  1  0
 19 21  1  0
 21 22  2  0
 22 23  1  0
 23 24  2  0
 24 25  1  0
 25 26  1  0
 25 27  2  0
 27 12  1  0
 18 13  1  0
 27 21  1  0
  1 28  1  0
  1 29  1  0
  1 30  1  0
  2 31  1  0
  2 32  1  0
  4 33  1  0
  4 34  1  0
  4 35  1  0
  5 36  1  0
  5 37  1  0
  6 38  1  0
  6 39  1  0
  8 40  1  0
  8 41  1  0
  9 42  1  0
  9 43  1  0
 10 44  1  0
 10 45  1  0
 11 46  1  0
 14 47  1  0
 15 48  1  0
 16 49  1  0
 17 50  1  0
 20 51  1  0
 20 52  1  0
 20 53  1  0
 22 54  1  0
 23 55  1  0
 24 56  1  0
 26 57  1  0
 26 58  1  0
M  CHG  1  19   1
M  END
>  <smiles>  (1) 
CCN(C)CCOCCCNc1c2ccccc2[n+](C)c2cccc(N)c12

>  <score_type>  (1) 
oracle

>  <origin>  (1) 
adg

>  <m_score__min__energy>  (1) 
-4.2300000000000004

>  <m_primary>  (1) 
energy

$$$$
1:0
     RDKit          3D

 20 20  0  0  0  0  0  0  0  0999 V2000
   55.8480   29.7200   43.4950 C   0  0  0  0  0  0  0  0  0  0  0  0
   56.2430   29.8810   44.8770 N   0  0  0  0  0  0  0  0  0  0  0  0
   57.6770   30.1600   44.8810 C   0  0  0  0  0  0  0  0  0  0  0  0
   57.9940   31.5670   45.1980 C   0  0  0  0  0  0  0  0  0  0  0  0
   58.4320   31.9220   46.4500 C   0  0  0  0  0  0  0  0  0  0  0  0
   58.7260   33.2390   46.7540 C   0  0  0  0  0  0  0  0  0  0  0  0
   59.2890   33.6830   48.3700 Cl  0  0  0  0  0  0  0  0  0  0  0  0
   58.5730   34.2060   45.7760 C   0  0  0  0  0  0  0  0  0  0  0  0
   58.1260   33.8350   44.5000 C   0  0  0  0  0  0  0  0  0  0  0  0
   57.8310   32.5250   44.1860 C   0  0  0  0  0  0  0  0  0  0  0  0
   57.3920   32.1610   42.9430 F   0  0  0  0  0  0  0  0  0  0  0  0
   54.8302   29.3051   43.4505 H   0  0  0  0  0  0  0  0  0  0  0  0
   55.8677   30.6979   42.9917 H   0  0  0  0  0  0  0  0  0  0  0  0
   56.5457   29.0345   42.9917 H   0  0  0  0  0  0  0  0  0  0  0  0
   55.7620   30.7590   45.2420 H   0  0  0  0  0  0  0  0  0  0  0  0
   58.1566   29.5155   45.6324 H   0  0  0  0  0  0  0  0  0  0  0  0
   58.0521   29.9605   43.8664 H   0  0  0  0  0  0  0  0  0  0  0  0
   58.5508   31.1479   47.2224 H   0  0  0  0  0  0  0  0  0  0  0  0
   58.8006   35.2590   45.9983 H   0  0  0  0  0  0  0  0  0  0  0  0
   58.0074   34.6099   43.7284 H   0  0  0  0  0  0  0  0  0  0  0  0
  1  2  1  0
  2  3  1  0
  3  4  1  0
  4  5  2  0
  5  6  1  0
  6  7  1  0
  6  8  2  0
  8  9  1  0
  9 10  2  0
 10 11  1  0
 10  4  1  0
  1 12  1  0
  1 13  1  0
  1 14  1  0
  2 15  1  0
  3 16  1  0
  3 17  1  0
  5 18  1  0
  8 19  1  0
  9 20  1  0
M  END
>  <smiles>  (2) 
CNCc1cc(Cl)ccc1F

>  <score_type>  (2) 
oracle

>  <origin>  (2) 
adg

>  <m_score__min__energy>  (2) 
-4.9500000000000002

>  <m_primary>  (2) 
energy

$$$$
2:0
     RDKit          3D

 43 44  0  0  0  0  0  0  0  0999 V2000
   57.4170   33.7570   45.5400 C   0  0  0  0  0  0  0  0  0  0  0  0
   57.8130   32.3630   45.1230 C   0  0  0  0  0  0  0  0  0  0  0  0
   56.7090   31.5390   44.9440 O   0  0  0  0  0  0  0  0  0  0  0  0
   56.6620   30.9530   43.6780 C   0  0  0  0  0  0  0  0  0  0  0  0
   55.9980   29.6130   43.8510 C   0  0  0  0  0  0  0  0  0  0  0  0
   56.0010   29.1160   45.1970 N   0  0  0  0  0  0  0  0  0  0  0  0
   57.3250   28.6870   45.6160 C   0  0  0  0  0  0  0  0  0  0  0  0
   57.2680   27.3650   46.3080 C   0  0  0  0  0  0  0  0  0  0  0  0
   58.9950   26.8830   46.7000 S   0  0  0  0  0  0  0  0  0  0  0  0
   59.7910   28.2450   47.5780 C   0  0  0  0  0  0  0  0  0  0  0  0
   59.9840   28.3870   48.8980 N   0  0  0  0  0  0  0  0  0  0  0  0
   60.6200   29.5570   49.0750 N   0  0  0  0  0  0  0  0  0  0  0  0
   60.8110   30.1250   47.8590 C   0  0  0  0  0  0  0  0  0  0  0  0
   61.4560   31.3950   47.5390 C   0  0  0  0  0  0  0  0  0  0  0  0
   62.7910   31.7190   47.5660 C   0  0  0  0  0  0  0  0  0  0  0  0
   63.1520   32.9510   47.2290 C   0  0  0  0  0  0  0  0  0  0  0  0
   62.1650   33.8330   46.8720 C   0  0  0  0  0  0  0  0  0  0  0  0
   60.6320   32.8880   47.0120 S   0  0  0  0  0  0  0  0  0  0  0  0
   60.2990   29.3190   46.9100 N   0  0  0  0  0  0  0  0  0  0  0  0
   60.2860   29.5350   45.4780 C   0  0  0  0  0  0  0  0  0  0  0  0
   61.1800   28.5770   44.7580 C   0  0  0  0  0  0  0  0  0  0  0  0
   57.3991   33.8201   46.6380 H   0  0  0  0  0  0  0  0  0  0  0  0
   58.1455   34.4793   45.1431 H   0  0  0  0  0  0  0  0  0  0  0  0
   56.4176   33.9885   45.1431 H   0  0  0  0  0  0  0  0  0  0  0  0
   58.3702   32.4205   44.1763 H   0  0  0  0  0  0  0  0  0  0  0  0
   58.4317   31.9321   45.9239 H   0  0  0  0  0  0  0  0  0  0  0  0
   56.0768   31.5810   42.9902 H   0  0  0  0  0  0  0  0  0  0  0  0
   57.6705   30.8449   43.2522 H   0  0  0  0  0  0  0  0  0  0  0  0
   54.9527   29.7024   43.5203 H   0  0  0  0  0  0  0  0  0  0  0  0
   56.5793   28.8965   43.2520 H   0  0  0  0  0  0  0  0  0  0  0  0
   55.5360   29.7190   45.8910 H   0  0  0  0  0  0  0  0  0  0  0  0
   57.9718   28.6013   44.7304 H   0  0  0  0  0  0  0  0  0  0  0  0
   57.7275   29.4318   46.3183 H   0  0  0  0  0  0  0  0  0  0  0  0
   56.6808   27.4494   47.2343 H   0  0  0  0  0  0  0  0  0  0  0  0
   56.7873   26.6099   45.6686 H   0  0  0  0  0  0  0  0  0  0  0  0
   63.5443   30.9735   47.8605 H   0  0  0  0  0  0  0  0  0  0  0  0
   64.2092   33.2546   47.2359 H   0  0  0  0  0  0  0  0  0  0  0  0
   62.2810   34.8837   46.5677 H   0  0  0  0  0  0  0  0  0  0  0  0
   59.2577   29.4067   45.1090 H   0  0  0  0  0  0  0  0  0  0  0  0
   60.6543   30.5534   45.2851 H   0  0  0  0  0  0  0  0  0  0  0  0
   61.7400   27.9769   45.4903 H   0  0  0  0  0  0  0  0  0  0  0  0
   60.5722   27.9119   44.1270 H   0  0  0  0  0  0  0  0  0  0  0  0
   61.8855   29.1374   44.1270 H   0  0  0  0  0  0  0  0  0  0  0  0
  1  2  1  0
  2  3  1  0
  3  4  1  0
  4  5  1  0
  5  6  1  0
  6  7  1  0
  7  8  1  0
  8  9  1  0
  9 10  1  0
 10 11  2  0
 11 12  1  0
 12 13  2  0
 13 14  1  0
 14 15  2  0
 15 16  1  0
 16 17  2  0
 17 18  1  0
 13 19  1  0
 19 20  1  0
 20 21  1  0
 19 10  1  0
 18 14  1  0
  1 22  1  0
  1 23  1  0
  1 24  1  0
  2 25  1  0
  2 26  1  0
  4 27  1  0
  4 28  1  0
  5 29  1  0
  5 30  1  0
  6 31  1  0
  7 32  1  0
  7 33  1  0
  8 34  1  0
  8 35  1  0
 15 36  1  0
 16 37  1  0
 17 38  1  0
 20 39  1  0
 20 40  1  0
 21 41  1  0
 21 42  1  0
 21 43  1  0
M  END
>  <smiles>  (3) 
CCOCCNCCSc1nnc(-c2cccs2)n1CC

>  <score_type>  (3) 
oracle

>  <origin>  (3) 
adg

>  <m_score__min__energy>  (3) 
-6.79

>  <m_primary>  (3) 
energy

$$$$
3:0
     RDKit          3D

 63 65  0  0  0  0  0  0  0  0999 V2000
   60.8400   34.1730   49.5190 C   0  0  0  0  0  0  0  0  0  0  0  0
   59.6130   33.4850   50.1510 C   0  0  0  0  0  0  0  0  0  0  0  0
   59.2280   32.4140   49.3290 O   0  0  0  0  0  0  0  0  0  0  0  0
   58.7740   31.3450   50.0570 C   0  0  0  0  0  0  0  0  0  0  0  0
   59.8020   30.3630   50.4920 C   0  0  0  0  0  0  0  0  0  0  0  0
   61.1120   30.7670   50.2600 N   0  0  0  0  0  0  0  0  0  0  0  0
   62.2660   30.1450   50.7070 C   0  0  0  0  0  0  0  0  0  0  0  0
   63.4870   30.9360   50.9670 C   0  0  0  0  0  0  0  0  0  0  0  0
   63.8420   32.0890   50.1280 C   0  0  0  0  0  0  0  0  0  0  0  0
   64.1510   31.9760   48.8190 O   0  0  0  0  0  0  0  0  0  0  0  0
   64.0770   33.1000   48.0970 C   0  0  0  0  0  0  0  0  0  0  0  0
   62.8250   33.1010   47.1650 C   0  0  0  0  0  0  0  0  0  0  0  0
   62.3780   31.6810   47.1480 C   0  0  0  0  0  0  0  0  0  0  0  0
   61.0170   31.4130   47.4370 N   0  0  0  0  0  0  0  0  0  0  0  0
   59.9940   31.1720   46.4790 C   0  0  0  0  0  0  0  0  0  0  0  0
   59.2620   32.2350   45.9800 C   0  0  0  0  0  0  0  0  0  0  0  0
   59.5710   33.4840   46.4580 C   0  0  0  0  0  0  0  0  0  0  0  0
   58.8810   34.5930   46.0070 C   0  0  0  0  0  0  0  0  0  0  0  0
   57.8950   34.3720   45.0750 C   0  0  0  0  0  0  0  0  0  0  0  0
   57.5780   33.1120   44.5880 C   0  0  0  0  0  0  0  0  0  0  0  0
   58.2730   32.0140   45.0440 C   0  0  0  0  0  0  0  0  0  0  0  0
   57.9560   30.8030   44.5650 N   0  0  0  0  0  0  0  0  0  0  0  0
   56.9540   30.5140   43.5990 C   0  0  0  0  0  0  0  0  0  0  0  0
   58.6730   29.7590   45.0560 C   0  0  0  0  0  0  0  0  0  0  0  0
   58.4130   28.4740   44.6100 C   0  0  0  0  0  0  0  0  0  0  0  0
   59.1180   27.3710   45.0710 C   0  0  0  0  0  0  0  0  0  0  0  0
   60.1180   27.5330   46.0050 C   0  0  0  0  0  0  0  0  0  0  0  0
   60.3770   28.8280   46.4510 C   0  0  0  0  0  0  0  0  0  0  0  0
   59.6740   29.9240   45.9930 C   0  0  0  0  0  0  0  0  0  0  0  0
   61.5024   34.5444   50.3147 H   0  0  0  0  0  0  0  0  0  0  0  0
   61.3856   33.4493   48.8957 H   0  0  0  0  0  0  0  0  0  0  0  0
   60.5071   35.0160   48.8957 H   0  0  0  0  0  0  0  0  0  0  0  0
   59.8731   33.1094   51.1517 H   0  0  0  0  0  0  0  0  0  0  0  0
   58.7855   34.2037   50.2445 H   0  0  0  0  0  0  0  0  0  0  0  0
   58.2822   31.7379   50.9591 H   0  0  0  0  0  0  0  0  0  0  0  0
   58.1053   30.7914   49.3814 H   0  0  0  0  0  0  0  0  0  0  0  0
   59.6801   30.1918   51.5717 H   0  0  0  0  0  0  0  0  0  0  0  0
   59.6419   29.4532   49.8948 H   0  0  0  0  0  0  0  0  0  0  0  0
   61.2330   31.6950   49.7860 H   0  0  0  0  0  0  0  0  0  0  0  0
   62.0085   29.6418   51.6507 H   0  0  0  0  0  0  0  0  0  0  0  0
   62.5551   29.5132   49.8542 H   0  0  0  0  0  0  0  0  0  0  0  0
   63.3994   31.3148   51.9960 H   0  0  0  0  0  0  0  0  0  0  0  0
   64.2893   30.2188   50.7392 H   0  0  0  0  0  0  0  0  0  0  0  0
   62.9851   32.7769   50.1793 H   0  0  0  0  0  0  0  0  0  0  0  0
   64.8096   32.3861   50.5586 H   0  0  0  0  0  0  0  0  0  0  0  0
   64.0146   33.9599   48.7801 H   0  0  0  0  0  0  0  0  0  0  0  0
   64.9761   33.1645   47.4665 H   0  0  0  0  0  0  0  0  0  0  0  0
   62.0374   33.7526   47.5712 H   0  0  0  0  0  0  0  0  0  0  0  0
   63.0507   33.4826   46.1583 H   0  0  0  0  0  0  0  0  0  0  0  0
   62.5842   31.2842   46.1430 H   0  0  0  0  0  0  0  0  0  0  0  0
   62.9342   31.2058   47.9695 H   0  0  0  0  0  0  0  0  0  0  0  0
   60.6780   31.3790   48.4520 H   0  0  0  0  0  0  0  0  0  0  0  0
   60.3713   33.6026   47.2033 H   0  0  0  0  0  0  0  0  0  0  0  0
   59.1097   35.6038   46.3759 H   0  0  0  0  0  0  0  0  0  0  0  0
   57.3296   35.2364   44.6967 H   0  0  0  0  0  0  0  0  0  0  0  0
   56.7775   32.9910   43.8433 H   0  0  0  0  0  0  0  0  0  0  0  0
   56.0184   30.2441   44.1107 H   0  0  0  0  0  0  0  0  0  0  0  0
   56.7852   31.4001   42.9694 H   0  0  0  0  0  0  0  0  0  0  0  0
   57.2830   29.6741   42.9694 H   0  0  0  0  0  0  0  0  0  0  0  0
   57.6193   28.3221   43.8637 H   0  0  0  0  0  0  0  0  0  0  0  0
   58.8784   26.3671   44.6906 H   0  0  0  0  0  0  0  0  0  0  0  0
   60.6900   26.6733   46.3842 H   0  0  0  0  0  0  0  0  0  0  0  0
   61.1715   28.9823   47.1960 H   0  0  0  0  0  0  0  0  0  0  0  0
  1  2  1  0
  2  3  1  0
  3  4  1  0
  4  5  1  0
  5  6  1  0
  6  7  1  0
  7  8  1  0
  8  9  1  0
  9 10  1  0
 10 11  1  0
 11 12  1  0
 12 13  1  0
 13 14  1  0
 14 15  1  0
 15 16  2  0
 16 17  1  0
 17 18  2  0
 18 19  1  0
 19 20  2  0
 20 21  1  0
 21 22  2  0
 22 23  1  0
 22 24  1  0
 24 25  2  0
 25 26  1  0
 26 27  2  0
 27 28  1  0
 28 29  2  0
 29 15  1  0
 21 16  1  0
 29 24  1  0
  1 30  1  0
  1 31  1  0
  1 32  1  0
  2 33  1  0
  2 34  1  0
  4 35  1  0
  4 36  1  0
  5 37  1  0
  5 38  1  0
  6 39  1  0
  7 40  1  0
  7 41  1  0
  8 42  1  0
  8 43  1  0
  9 44  1  0
  9 45  1  0
 11 46  1  0
 11 47  1  0
 12 48  1  0
 12 49  1  0
 13 50  1  0
 13 51  1  0
 14 52  1  0
 17 53  1  0
 18 54  1  0
 19 55  1  0
 20 56  1  0
 23 57  1  0
 23 58  1  0
 23 59  1  0
 25 60  1  0
 26 61  1  0
 27 62  1  0
 28 63  1  0
M  CHG  1  22   1
M  END
>  <smiles>  (4) 
CCOCCNCCCOCCCNc1c2ccccc2[n+](C)c2ccccc12

>  <score_type>  (4) 
oracle

>  <origin>  (4) 
adg

>  <m_score__min__energy>  (4) 
-6.2000000000000002

>  <m_primary>  (4) 
energy

$$$$
4:0
     RDKit          3D

 27 29  0  0  0  0  0  0  0  0999 V2000
   62.6460   31.6220   48.0410 C   0  0  0  0  0  0  0  0  0  0  0  0
   61.3440   31.8240   47.4000 N   0  0  0  0  0  0  0  0  0  0  0  0
   60.6640   30.8700   46.7300 C   0  0  0  0  0  0  0  0  0  0  0  0
   59.4880   31.4270   46.2690 C   0  0  0  0  0  0  0  0  0  0  0  0
   58.4570   30.8760   45.5380 C   0  0  0  0  0  0  0  0  0  0  0  0
   58.5180   29.5520   45.1540 C   0  0  0  0  0  0  0  0  0  0  0  0
   57.4570   29.0610   44.4230 C   0  0  0  0  0  0  0  0  0  0  0  0
   56.3950   29.8840   44.1090 C   0  0  0  0  0  0  0  0  0  0  0  0
   56.3520   31.1890   44.4960 N   0  0  0  0  0  0  0  0  0  0  0  0
   57.3940   31.6930   45.2190 C   0  0  0  0  0  0  0  0  0  0  0  0
   57.3950   33.0040   45.6330 C   0  0  0  0  0  0  0  0  0  0  0  0
   58.4200   33.5700   46.3660 C   0  0  0  0  0  0  0  0  0  0  0  0
   59.5000   32.7410   46.6910 C   0  0  0  0  0  0  0  0  0  0  0  0
   60.6380   32.9500   47.3710 N   0  0  0  0  0  0  0  0  0  0  0  0
   61.0360   34.2170   47.9870 C   0  0  0  0  0  0  0  0  0  0  0  0
   62.5235   31.6410   49.1340 H   0  0  0  0  0  0  0  0  0  0  0  0
   63.0583   30.6491   47.7351 H   0  0  0  0  0  0  0  0  0  0  0  0
   63.3337   32.4242   47.7351 H   0  0  0  0  0  0  0  0  0  0  0  0
   60.9898   29.8304   46.5779 H   0  0  0  0  0  0  0  0  0  0  0  0
   59.3755   28.9162   45.4194 H   0  0  0  0  0  0  0  0  0  0  0  0
   57.4572   28.0126   44.0900 H   0  0  0  0  0  0  0  0  0  0  0  0
   55.5565   29.4730   43.5276 H   0  0  0  0  0  0  0  0  0  0  0  0
   56.5345   33.6353   45.3666 H   0  0  0  0  0  0  0  0  0  0  0  0
   58.3889   34.6238   46.6799 H   0  0  0  0  0  0  0  0  0  0  0  0
   61.0049   34.1180   49.0821 H   0  0  0  0  0  0  0  0  0  0  0  0
   62.0579   34.4733   47.6709 H   0  0  0  0  0  0  0  0  0  0  0  0
   60.3442   35.0117   47.6709 H   0  0  0  0  0  0  0  0  0  0  0  0
  1  2  1  0
  2  3  1  0
  3  4  2  0
  4  5  1  0
  5  6  2  0
  6  7  1  0
  7  8  2  0
  8  9  1  0
  9 10  2  0
 10 11  1  0
 11 12  2  0
 12 13  1  0
 13 14  2  0
 14 15  1  0
 14  2  1  0
 13  4  1  0
 10  5  1  0
  1 16  1  0
  1 17  1  0
  1 18  1  0
  3 19  1  0
  6 20  1  0
  7 21  1  0
  8 22  1  0
 11 23  1  0
 12 24  1  0
 15 25  1  0
 15 26  1  0
 15 27  1  0
M  CHG  1  14   1
M  END
>  <smiles>  (5) 
Cn1cc2c3cccnc3ccc2[n+]1C

>  <score_type>  (5) 
oracle

>  <origin>  (5) 
adg

>  <m_score__min__energy>  (5) 
-4.6500000000000004

>  <m_primary>  (5) 
energy

$$$$
5:0
     RDKit          3D

 57 59  0  0  0  0  0  0  0  0999 V2000
   56.6370   29.7180   42.9240 C   0  0  0  0  0  0  0  0  0  0  0  0
   55.6880   30.0980   44.0690 C   0  0  0  0  0  0  0  0  0  0  0  0
   56.2660   29.6920   45.2120 O   0  0  0  0  0  0  0  0  0  0  0  0
   57.5970   29.7390   45.4050 C   0  0  0  0  0  0  0  0  0  0  0  0
   58.2560   28.5530   46.0400 C   0  0  0  0  0  0  0  0  0  0  0  0
   58.6380   28.7670   47.3410 O   0  0  0  0  0  0  0  0  0  0  0  0
   59.8320   29.4000   47.5420 C   0  0  0  0  0  0  0  0  0  0  0  0
   59.8730   30.0480   48.8940 C   0  0  0  0  0  0  0  0  0  0  0  0
   58.5340   30.2010   49.4560 N   0  0  0  0  0  0  0  0  0  0  0  0
   58.5280   30.7030   50.7900 C   0  0  0  0  0  0  0  0  0  0  0  0
   58.1250   32.1060   50.9930 C   0  0  0  0  0  0  0  0  0  0  0  0
   59.0790   33.1530   50.7740 N   0  0  0  0  0  0  0  0  0  0  0  0
   59.9200   33.2980   49.6570 C   0  0  0  0  0  0  0  0  0  0  0  0
   61.2840   33.4930   49.9280 C   0  0  0  0  0  0  0  0  0  0  0  0
   61.7060   33.5070   51.2610 C   0  0  0  0  0  0  0  0  0  0  0  0
   63.0330   33.6830   51.6060 C   0  0  0  0  0  0  0  0  0  0  0  0
   63.9410   33.8450   50.5860 C   0  0  0  0  0  0  0  0  0  0  0  0
   63.5310   33.8310   49.2630 C   0  0  0  0  0  0  0  0  0  0  0  0
   62.2000   33.6570   48.9010 C   0  0  0  0  0  0  0  0  0  0  0  0
   61.8240   33.6370   47.5900 N   0  0  0  0  0  0  0  0  0  0  0  0
   62.8050   33.8300   46.5630 C   0  0  0  0  0  0  0  0  0  0  0  0
   60.5050   33.4460   47.3130 C   0  0  0  0  0  0  0  0  0  0  0  0
   60.0530   33.3890   46.0140 C   0  0  0  0  0  0  0  0  0  0  0  0
   58.7110   33.1710   45.6990 C   0  0  0  0  0  0  0  0  0  0  0  0
   58.0890   33.0930   43.9040 Br  0  0  0  0  0  0  0  0  0  0  0  0
   57.8060   33.0070   46.7140 C   0  0  0  0  0  0  0  0  0  0  0  0
   58.2610   33.0650   47.9990 C   0  0  0  0  0  0  0  0  0  0  0  0
   59.5710   33.2790   48.3410 C   0  0  0  0  0  0  0  0  0  0  0  0
   57.5819   29.3396   43.3412 H   0  0  0  0  0  0  0  0  0  0  0  0
   56.1707   28.9372   42.3051 H   0  0  0  0  0  0  0  0  0  0  0  0
   56.8385   30.6048   42.3051 H   0  0  0  0  0  0  0  0  0  0  0  0
   55.5374   31.1875   44.0885 H   0  0  0  0  0  0  0  0  0  0  0  0
   54.7048   29.6227   43.9369 H   0  0  0  0  0  0  0  0  0  0  0  0
   58.0656   29.8860   44.4207 H   0  0  0  0  0  0  0  0  0  0  0  0
   57.7420   30.5549   46.1283 H   0  0  0  0  0  0  0  0  0  0  0  0
   57.5494   27.7102   46.0193 H   0  0  0  0  0  0  0  0  0  0  0  0
   59.1709   28.3465   45.4653 H   0  0  0  0  0  0  0  0  0  0  0  0
   60.6464   28.6640   47.4705 H   0  0  0  0  0  0  0  0  0  0  0  0
   59.9502   30.1794   46.7748 H   0  0  0  0  0  0  0  0  0  0  0  0
   60.4754   29.4244   49.5709 H   0  0  0  0  0  0  0  0  0  0  0  0
   60.3168   31.0484   48.7834 H   0  0  0  0  0  0  0  0  0  0  0  0
   58.0340   29.3100   49.3900 H   0  0  0  0  0  0  0  0  0  0  0  0
   57.8385   30.0755   51.3739 H   0  0  0  0  0  0  0  0  0  0  0  0
   59.5815   30.6685   51.1044 H   0  0  0  0  0  0  0  0  0  0  0  0
   57.2792   32.2971   50.3162 H   0  0  0  0  0  0  0  0  0  0  0  0
   57.9222   32.1629   52.0726 H   0  0  0  0  0  0  0  0  0  0  0  0
   59.1600   33.8940   51.5270 H   0  0  0  0  0  0  0  0  0  0  0  0
   60.9602   33.3741   52.0585 H   0  0  0  0  0  0  0  0  0  0  0  0
   63.3513   33.6931   52.6589 H   0  0  0  0  0  0  0  0  0  0  0  0
   65.0056   33.9874   50.8236 H   0  0  0  0  0  0  0  0  0  0  0  0
   64.2840   33.9620   48.4719 H   0  0  0  0  0  0  0  0  0  0  0  0
   63.7851   34.0228   47.0237 H   0  0  0  0  0  0  0  0  0  0  0  0
   62.8648   32.9264   45.9386 H   0  0  0  0  0  0  0  0  0  0  0  0
   62.5180   34.6889   45.9386 H   0  0  0  0  0  0  0  0  0  0  0  0
   60.7755   33.5200   45.1949 H   0  0  0  0  0  0  0  0  0  0  0  0
   56.7413   32.8333   46.4990 H   0  0  0  0  0  0  0  0  0  0  0  0
   57.5311   32.9317   48.8111 H   0  0  0  0  0  0  0  0  0  0  0  0
  1  2  1  0
  2  3  1  0
  3  4  1  0
  4  5  1  0
  5  6  1  0
  6  7  1  0
  7  8  1  0
  8  9  1  0
  9 10  1  0
 10 11  1  0
 11 12  1  0
 12 13  1  0
 13 14  2  0
 14 15  1  0
 15 16  2  0
 16 17  1  0
 17 18  2  0
 18 19  1  0
 19 20  2  0
 20 21  1  0
 20 22  1  0
 22 23  2  0
 23 24  1  0
 24 25  1  0
 24 26  2  0
 26 27  1  0
 27 28  2  0
 28 13  1  0
 19 14  1  0
 28 22  1  0
  1 29  1  0
  1 30  1  0
  1 31  1  0
  2 32  1  0
  2 33  1  0
  4 34  1  0
  4 35  1  0
  5 36  1  0
  5 37  1  0
  7 38  1  0
  7 39  1  0
  8 40  1  0
  8 41  1  0
  9 42  1  0
 10 43  1  0
 10 44  1  0
 11 45  1  0
 11 46  1  0
 12 47  1  0
 15 48  1  0
 16 49  1  0
 17 50  1  0
 18 51  1  0
 21 52  1  0
 21 53  1  0
 21 54  1  0
 23 55  1  0
 26 56  1  0
 27 57  1  0
M  CHG  1  20   1
M  END
>  <smiles>  (6) 
CCOCCOCCNCCNc1c2ccccc2[n+](C)c2cc(Br)ccc12

>  <score_type>  (6) 
oracle

>  <origin>  (6) 
adg

>  <m_score__min__energy>  (6) 
-6.2199999999999998

>  <m_primary>  (6) 
energy

$$$$
6:0
     RDKit          3D

 50 52  0  0  0  0  0  0  0  0999 V2000
   59.2500   35.2910   44.8720 C   0  0  0  0  0  0  0  0  0  0  0  0
   59.1640   34.4750   46.1310 C   0  0  0  0  0  0  0  0  0  0  0  0
   57.9850   33.8050   46.3730 C   0  0  0  0  0  0  0  0  0  0  0  0
   57.8840   33.0550   47.5240 C   0  0  0  0  0  0  0  0  0  0  0  0
   58.9720   33.0030   48.3930 C   0  0  0  0  0  0  0  0  0  0  0  0
   60.1520   33.6720   48.1620 C   0  0  0  0  0  0  0  0  0  0  0  0
   60.2490   34.4170   47.0130 C   0  0  0  0  0  0  0  0  0  0  0  0
   61.0670   33.4140   49.3410 C   0  0  0  0  0  0  0  0  0  0  0  0
   59.9700   33.2230   50.4260 C   0  0  0  0  0  0  0  0  0  0  0  0
   59.1290   32.2890   49.6400 N   0  0  0  0  0  0  0  0  0  0  0  0
   58.5630   31.0410   50.0190 C   0  0  0  0  0  0  0  0  0  0  0  0
   59.3330   29.8330   49.6760 C   0  0  0  0  0  0  0  0  0  0  0  0
   59.8410   29.0190   50.4710 O   0  0  0  0  0  0  0  0  0  0  0  0
   59.5260   29.5550   48.2810 N   0  0  0  0  0  0  0  0  0  0  0  0
   60.2880   28.3590   47.9650 C   0  0  0  0  0  0  0  0  0  0  0  0
   60.0800   28.0800   46.4810 C   0  0  0  0  0  0  0  0  0  0  0  0
   59.9560   29.3590   45.7380 C   0  0  0  0  0  0  0  0  0  0  0  0
   58.5980   29.8150   45.5170 N   0  0  0  0  0  0  0  0  0  0  0  0
   58.5240   31.1210   44.9200 C   0  0  0  0  0  0  0  0  0  0  0  0
   57.3670   31.1720   43.9760 C   0  0  0  0  0  0  0  0  0  0  0  0
   56.2060   30.6230   44.5150 O   0  0  0  0  0  0  0  0  0  0  0  0
   56.3690   29.2880   44.8430 C   0  0  0  0  0  0  0  0  0  0  0  0
   57.8180   28.8480   44.7720 C   0  0  0  0  0  0  0  0  0  0  0  0
   59.3620   36.3542   45.1311 H   0  0  0  0  0  0  0  0  0  0  0  0
   60.1186   34.9639   44.2817 H   0  0  0  0  0  0  0  0  0  0  0  0
   58.3323   35.1522   44.2817 H   0  0  0  0  0  0  0  0  0  0  0  0
   57.1454   33.8673   45.6650 H   0  0  0  0  0  0  0  0  0  0  0  0
   56.9590   32.5058   47.7535 H   0  0  0  0  0  0  0  0  0  0  0  0
   61.1751   34.9657   46.7867 H   0  0  0  0  0  0  0  0  0  0  0  0
   61.6794   32.5106   49.2037 H   0  0  0  0  0  0  0  0  0  0  0  0
   61.8207   34.1884   49.5466 H   0  0  0  0  0  0  0  0  0  0  0  0
   60.3604   32.7685   51.3485 H   0  0  0  0  0  0  0  0  0  0  0  0
   59.4833   34.1315   50.8104 H   0  0  0  0  0  0  0  0  0  0  0  0
   58.4309   31.0530   51.1110 H   0  0  0  0  0  0  0  0  0  0  0  0
   57.6289   30.9610   49.4436 H   0  0  0  0  0  0  0  0  0  0  0  0
   59.1280   30.2010   47.5740 H   0  0  0  0  0  0  0  0  0  0  0  0
   61.3554   28.5248   48.1726 H   0  0  0  0  0  0  0  0  0  0  0  0
   59.9547   27.5072   48.5760 H   0  0  0  0  0  0  0  0  0  0  0  0
   60.9398   27.5145   46.0924 H   0  0  0  0  0  0  0  0  0  0  0  0
   59.1585   27.4941   46.3488 H   0  0  0  0  0  0  0  0  0  0  0  0
   60.4876   30.1360   46.3069 H   0  0  0  0  0  0  0  0  0  0  0  0
   60.3825   29.1754   44.7408 H   0  0  0  0  0  0  0  0  0  0  0  0
   58.3884   31.8770   45.7074 H   0  0  0  0  0  0  0  0  0  0  0  0
   59.4547   31.3265   44.3709 H   0  0  0  0  0  0  0  0  0  0  0  0
   57.1712   32.2229   43.7165 H   0  0  0  0  0  0  0  0  0  0  0  0
   57.6351   30.5763   43.0910 H   0  0  0  0  0  0  0  0  0  0  0  0
   56.0012   29.1285   45.8673 H   0  0  0  0  0  0  0  0  0  0  0  0
   55.8014   28.6918   44.1134 H   0  0  0  0  0  0  0  0  0  0  0  0
   57.9305   27.8490   45.2186 H   0  0  0  0  0  0  0  0  0  0  0  0
   58.1583   28.7944   43.7273 H   0  0  0  0  0  0  0  0  0  0  0  0
  1  2  1  0
  2  3  2  0
  3  4  1  0
  4  5  2  0
  5  6  1  0
  6  7  2  0
  6  8  1  0
  8  9  1  0
  9 10  1  0
 10 11  1  0
 11 12  1  0
 12 13  2  0
 12 14  1  0
 14 15  1  0
 15 16  1  0
 16 17  1  0
 17 18  1  0
 18 19  1  0
 19 20  1  0
 20 21  1  0
 21 22  1  0
 22 23  1  0
  7  2  1  0
 23 18  1  0
 10  5  1  0
  1 24  1  0
  1 25  1  0
  1 26  1  0
  3 27  1  0
  4 28  1  0
  7 29  1  0
  8 30  1  0
  8 31  1  0
  9 32  1  0
  9 33  1  0
 11 34  1  0
 11 35  1  0
 14 36  1  0
 15 37  1  0
 15 38  1  0
 16 39  1  0
 16 40  1  0
 17 41  1  0
 17 42  1  0
 19 43  1  0
 19 44  1  0
 20 45  1  0
 20 46  1  0
 22 47  1  0
 22 48  1  0
 23 49  1  0
 23 50  1  0
M  END
>  <smiles>  (7) 
Cc1ccc2c(c1)CCN2CC(=O)NCCCN1CCOCC1

>  <score_type>  (7) 
oracle

>  <origin>  (7) 
adg

>  <m_score__min__energy>  (7) 
-7.2800000000000002

>  <m_primary>  (7) 
energy

$$$$
7:0
     RDKit          3D

 49 51  0  0  0  0  0  0  0  0999 V2000
   63.3580   33.5840   46.7170 C   0  0  0  0  0  0  0  0  0  0  0  0
   63.2510   32.2930   47.4800 C   0  0  0  0  0  0  0  0  0  0  0  0
   62.5640   32.3850   48.6700 O   0  0  0  0  0  0  0  0  0  0  0  0
   62.6220   33.6960   49.1360 C   0  0  0  0  0  0  0  0  0  0  0  0
   61.3640   34.0430   49.9090 C   0  0  0  0  0  0  0  0  0  0  0  0
   60.8500   32.9960   50.6410 O   0  0  0  0  0  0  0  0  0  0  0  0
   59.5020   32.9680   50.5810 C   0  0  0  0  0  0  0  0  0  0  0  0
   58.8450   32.1970   49.4680 C   0  0  0  0  0  0  0  0  0  0  0  0
   59.8200   31.6470   48.5050 N   0  0  0  0  0  0  0  0  0  0  0  0
   59.3030   31.4500   47.1970 C   0  0  0  0  0  0  0  0  0  0  0  0
   59.1670   32.6220   46.4320 C   0  0  0  0  0  0  0  0  0  0  0  0
   59.5660   33.8400   46.9360 C   0  0  0  0  0  0  0  0  0  0  0  0
   59.4520   35.0240   46.2080 C   0  0  0  0  0  0  0  0  0  0  0  0
   58.9200   34.9440   44.9480 C   0  0  0  0  0  0  0  0  0  0  0  0
   58.5280   33.7350   44.4580 C   0  0  0  0  0  0  0  0  0  0  0  0
   58.6360   32.5400   45.1740 C   0  0  0  0  0  0  0  0  0  0  0  0
   58.2250   31.3870   44.6010 N   0  0  0  0  0  0  0  0  0  0  0  0
   57.6910   31.4700   43.2790 C   0  0  0  0  0  0  0  0  0  0  0  0
   58.3620   30.2730   45.3320 C   0  0  0  0  0  0  0  0  0  0  0  0
   57.9860   29.0740   44.7750 C   0  0  0  0  0  0  0  0  0  0  0  0
   58.1310   27.8660   45.4700 C   0  0  0  0  0  0  0  0  0  0  0  0
   58.6660   27.9110   46.7360 C   0  0  0  0  0  0  0  0  0  0  0  0
   59.0430   29.1130   47.2930 C   0  0  0  0  0  0  0  0  0  0  0  0
   59.8930   29.0560   48.9880 Br  0  0  0  0  0  0  0  0  0  0  0  0
   58.8980   30.2970   46.6210 C   0  0  0  0  0  0  0  0  0  0  0  0
   63.4276   34.4234   47.4245 H   0  0  0  0  0  0  0  0  0  0  0  0
   64.2574   33.5624   46.0841 H   0  0  0  0  0  0  0  0  0  0  0  0
   62.4673   33.7108   46.0841 H   0  0  0  0  0  0  0  0  0  0  0  0
   62.7359   31.5594   46.8424 H   0  0  0  0  0  0  0  0  0  0  0  0
   64.2789   31.9963   47.7359 H   0  0  0  0  0  0  0  0  0  0  0  0
   63.4945   33.8067   49.7966 H   0  0  0  0  0  0  0  0  0  0  0  0
   62.7084   34.3753   48.2751 H   0  0  0  0  0  0  0  0  0  0  0  0
   61.5986   34.8660   50.6001 H   0  0  0  0  0  0  0  0  0  0  0  0
   60.6000   34.3180   49.1669 H   0  0  0  0  0  0  0  0  0  0  0  0
   59.1444   32.5378   51.5281 H   0  0  0  0  0  0  0  0  0  0  0  0
   59.2212   34.0132   50.3845 H   0  0  0  0  0  0  0  0  0  0  0  0
   58.2740   31.3647   49.9053 H   0  0  0  0  0  0  0  0  0  0  0  0
   58.1928   32.8933   48.9205 H   0  0  0  0  0  0  0  0  0  0  0  0
   60.8010   31.4280   48.7860 H   0  0  0  0  0  0  0  0  0  0  0  0
   59.9902   33.8804   47.9501 H   0  0  0  0  0  0  0  0  0  0  0  0
   59.7772   35.9865   46.6298 H   0  0  0  0  0  0  0  0  0  0  0  0
   58.8100   35.8510   44.3355 H   0  0  0  0  0  0  0  0  0  0  0  0
   58.1035   33.6974   43.4439 H   0  0  0  0  0  0  0  0  0  0  0  0
   56.6053   31.6387   43.3320 H   0  0  0  0  0  0  0  0  0  0  0  0
   58.1661   32.3051   42.7434 H   0  0  0  0  0  0  0  0  0  0  0  0
   57.8903   30.5301   42.7434 H   0  0  0  0  0  0  0  0  0  0  0  0
   57.5615   29.0625   43.7603 H   0  0  0  0  0  0  0  0  0  0  0  0
   57.8263   26.9111   45.0169 H   0  0  0  0  0  0  0  0  0  0  0  0
   58.7938   26.9802   47.3081 H   0  0  0  0  0  0  0  0  0  0  0  0
  1  2  1  0
  2  3  1  0
  3  4  1  0
  4  5  1  0
  5  6  1  0
  6  7  1  0
  7  8  1  0
  8  9  1  0
  9 10  1  0
 10 11  2  0
 11 12  1  0
 12 13  2  0
 13 14  1  0
 14 15  2  0
 15 16  1  0
 16 17  2  0
 17 18  1  0
 17 19  1  0
 19 20  2  0
 20 21  1  0
 21 22  2  0
 22 23  1  0
 23 24  1  0
 23 25  2  0
 25 10  1  0
 16 11  1  0
 25 19  1  0
  1 26  1  0
  1 27  1  0
  1 28  1  0
  2 29  1  0
  2 30  1  0
  4 31  1  0
  4 32  1  0
  5 33  1  0
  5 34  1  0
  7 35  1  0
  7 36  1  0
  8 37  1  0
  8 38  1  0
  9 39  1  0
 12 40  1  0
 13 41  1  0
 14 42  1  0
 15 43  1  0
 18 44  1  0
 18 45  1  0
 18 46  1  0
 20 47  1  0
 21 48  1  0
 22 49  1  0
M  CHG  1  17   1
M  END
>  <smiles>  (8) 
CCOCCOCCNc1c2ccccc2[n+](C)c2cccc(Br)c12

>  <score_type>  (8) 
oracle

>  <origin>  (8) 
adg

>  <m_score__min__energy>  (8) 
-4.9299999999999997

>  <m_primary>  (8) 
energy

$$$$
9:0
     RDKit          3D

 42 44  0  0  0  0  0  0  0  0999 V2000
   62.2370   31.2380   49.1750 C   0  0  0  0  0  0  0  0  0  0  0  0
   62.2820   32.2450   48.1430 N   0  0  0  0  0  0  0  0  0  0  0  0
   63.4650   32.5790   47.5410 C   0  0  0  0  0  0  0  0  0  0  0  0
   63.2090   33.6070   46.6590 C   0  0  0  0  0  0  0  0  0  0  0  0
   61.8670   33.8550   46.7630 C   0  0  0  0  0  0  0  0  0  0  0  0
   61.2960   32.9900   47.6990 C   0  0  0  0  0  0  0  0  0  0  0  0
   59.8290   33.0170   47.9440 C   0  0  0  0  0  0  0  0  0  0  0  0
   59.0240   32.1270   47.2740 N   0  0  0  0  0  0  0  0  0  0  0  0
   59.8390   31.3290   46.3170 C   0  0  0  0  0  0  0  0  0  0  0  0
   59.8880   29.9110   46.6450 C   0  0  0  0  0  0  0  0  0  0  0  0
   59.5050   29.3400   47.8390 C   0  0  0  0  0  0  0  0  0  0  0  0
   59.5820   27.9890   48.0620 C   0  0  0  0  0  0  0  0  0  0  0  0
   60.0570   27.1380   47.0720 C   0  0  0  0  0  0  0  0  0  0  0  0
   60.4290   27.6930   45.9120 N   0  0  0  0  0  0  0  0  0  0  0  0
   60.3610   29.0270   45.6720 C   0  0  0  0  0  0  0  0  0  0  0  0
   57.8750   32.4590   46.5640 C   0  0  0  0  0  0  0  0  0  0  0  0
   57.6570   31.9960   45.1990 C   0  0  0  0  0  0  0  0  0  0  0  0
   56.9960   30.8450   44.9520 N   0  0  0  0  0  0  0  0  0  0  0  0
   56.7310   30.4130   43.7080 C   0  0  0  0  0  0  0  0  0  0  0  0
   57.1380   31.1570   42.5970 C   0  0  0  0  0  0  0  0  0  0  0  0
   57.8190   32.3410   42.8420 C   0  0  0  0  0  0  0  0  0  0  0  0
   58.0780   32.7580   44.1300 C   0  0  0  0  0  0  0  0  0  0  0  0
   59.0050   34.1990   44.5020 Cl  0  0  0  0  0  0  0  0  0  0  0  0
   62.2587   31.7232   50.1620 H   0  0  0  0  0  0  0  0  0  0  0  0
   61.3118   30.6516   49.0750 H   0  0  0  0  0  0  0  0  0  0  0  0
   63.1062   30.5714   49.0750 H   0  0  0  0  0  0  0  0  0  0  0  0
   64.4432   32.1116   47.7273 H   0  0  0  0  0  0  0  0  0  0  0  0
   63.9319   34.1204   46.0080 H   0  0  0  0  0  0  0  0  0  0  0  0
   61.3199   34.6213   46.1942 H   0  0  0  0  0  0  0  0  0  0  0  0
   59.6787   32.8408   49.0193 H   0  0  0  0  0  0  0  0  0  0  0  0
   59.5156   33.9980   47.5575 H   0  0  0  0  0  0  0  0  0  0  0  0
   59.4057   31.4401   45.3121 H   0  0  0  0  0  0  0  0  0  0  0  0
   60.8692   31.7112   46.3687 H   0  0  0  0  0  0  0  0  0  0  0  0
   59.1245   29.9899   48.6408 H   0  0  0  0  0  0  0  0  0  0  0  0
   59.2655   27.5764   49.0313 H   0  0  0  0  0  0  0  0  0  0  0  0
   60.1247   26.0522   47.2347 H   0  0  0  0  0  0  0  0  0  0  0  0
   60.6834   29.4185   44.6959 H   0  0  0  0  0  0  0  0  0  0  0  0
   57.0267   32.0857   47.1564 H   0  0  0  0  0  0  0  0  0  0  0  0
   57.9897   33.5444   46.4275 H   0  0  0  0  0  0  0  0  0  0  0  0
   56.1896   29.4666   43.5626 H   0  0  0  0  0  0  0  0  0  0  0  0
   56.9274   30.8183   41.5718 H   0  0  0  0  0  0  0  0  0  0  0  0
   58.1574   32.9563   41.9953 H   0  0  0  0  0  0  0  0  0  0  0  0
  1  2  1  0
  2  3  1  0
  3  4  2  0
  4  5  1  0
  5  6  2  0
  6  7  1  0
  7  8  1  0
  8  9  1  0
  9 10  1  0
 10 11  2  0
 11 12  1  0
 12 13  2  0
 13 14  1  0
 14 15  2  0
  8 16  1  0
 16 17  1  0
 17 18  2  0
 18 19  1  0
 19 20  2  0
 20 21  1  0
 21 22  2  0
 22 23  1  0
  6  2  1  0
 15 10  1  0
 22 17  1  0
  1 24  1  0
  1 25  1  0
  1 26  1  0
  3 27  1  0
  4 28  1  0
  5 29  1  0
  7 30  1  0
  7 31  1  0
  9 32  1  0
  9 33  1  0
 11 34  1  0
 12 35  1  0
 13 36  1  0
 15 37  1  0
 16 38  1  0
 16 39  1  0
 19 40  1  0
 20 41  1  0
 21 42  1  0
M  END
>  <smiles>  (9) 
Cn1cccc1CN(Cc1cccnc1)Cc1ncccc1Cl

>  <score_type>  (9) 
oracle

>  <origin>  (9) 
adg

>  <m_score__min__energy>  (9) 
-7.1399999999999997

>  <m_primary>  (9) 
energy

$$$$
10:0
     RDKit          3D

 52 57  0  0  1  0  0  0  0  0999 V2000
   57.4020   31.8400   42.4980 C   0  0  0  0  0  0  0  0  0  0  0  0
   57.1800   31.6090   43.8960 N   0  0  0  0  0  0  0  0  0  0  0  0
   56.0880   30.7470   44.1150 C   0  0  0  0  0  0  0  0  0  0  0  0
   56.5220   29.3120   43.8650 C   0  0  0  0  0  0  0  0  0  0  0  0
   57.5200   29.0670   44.9590 C   0  0  0  0  0  0  0  0  0  0  0  0
   58.3710   30.1160   45.3070 C   0  0  0  0  0  0  0  0  0  0  0  0
   59.1420   29.5540   46.3370 C   0  0  0  0  0  0  0  0  0  0  0  0
   60.1640   29.9950   47.1390 C   0  0  0  0  0  0  0  0  0  0  0  0
   60.7530   29.1860   48.1040 C   0  0  0  0  0  0  0  0  0  0  0  0
   60.3260   27.8900   48.2940 C   0  0  0  0  0  0  0  0  0  0  0  0
   59.3000   27.4250   47.4970 C   0  0  0  0  0  0  0  0  0  0  0  0
   58.7260   28.2420   46.5440 C   0  0  0  0  0  0  0  0  0  0  0  0
   57.7460   27.9890   45.6920 N   0  0  0  0  0  0  0  0  0  0  0  0
   57.0200   26.7310   45.5670 C   0  0  0  0  0  0  0  0  0  0  0  0
   58.3740   31.4300   44.6760 C   0  0  2  0  0  0  0  0  0  0  0  0
   58.5360   32.6040   45.5580 C   0  0  0  0  0  0  0  0  0  0  0  0
   58.9580   33.8120   44.9870 C   0  0  0  0  0  0  0  0  0  0  0  0
   59.4450   34.9610   45.5750 C   0  0  0  0  0  0  0  0  0  0  0  0
   59.9160   35.1140   46.8480 N   0  0  0  0  0  0  0  0  0  0  0  0
   59.6330   34.3550   47.9220 C   0  0  0  0  0  0  0  0  0  0  0  0
   60.0140   34.5850   49.2280 C   0  0  0  0  0  0  0  0  0  0  0  0
   59.5160   33.5640   50.0180 C   0  0  0  0  0  0  0  0  0  0  0  0
   58.8110   32.6570   49.2570 C   0  0  0  0  0  0  0  0  0  0  0  0
   58.8640   33.1170   47.9590 C   0  0  0  0  0  0  0  0  0  0  0  0
   58.2620   32.4580   46.9070 C   0  0  0  0  0  0  0  0  0  0  0  0
   58.2100   31.5410   49.8020 O   0  0  0  0  0  0  0  0  0  0  0  0
   58.4130   31.2430   51.1530 C   0  0  0  0  0  0  0  0  0  0  0  0
   58.5010   32.5350   51.9260 C   0  0  0  0  0  0  0  0  0  0  0  0
   59.5890   33.2840   51.3930 O   0  0  0  0  0  0  0  0  0  0  0  0
   58.1592   32.6279   42.3723 H   0  0  0  0  0  0  0  0  0  0  0  0
   57.7561   30.9123   42.0248 H   0  0  0  0  0  0  0  0  0  0  0  0
   56.4609   32.1570   42.0248 H   0  0  0  0  0  0  0  0  0  0  0  0
   55.7411   30.8502   45.1538 H   0  0  0  0  0  0  0  0  0  0  0  0
   55.2689   31.0088   43.4291 H   0  0  0  0  0  0  0  0  0  0  0  0
   55.6697   28.6213   43.9451 H   0  0  0  0  0  0  0  0  0  0  0  0
   56.9343   29.1525   42.8577 H   0  0  0  0  0  0  0  0  0  0  0  0
   60.5302   31.0247   47.0141 H   0  0  0  0  0  0  0  0  0  0  0  0
   61.5697   29.5854   48.7232 H   0  0  0  0  0  0  0  0  0  0  0  0
   60.7883   27.2463   49.0569 H   0  0  0  0  0  0  0  0  0  0  0  0
   58.9364   26.3944   47.6222 H   0  0  0  0  0  0  0  0  0  0  0  0
   56.7930   26.3376   46.5688 H   0  0  0  0  0  0  0  0  0  0  0  0
   56.0817   26.9020   45.0189 H   0  0  0  0  0  0  0  0  0  0  0  0
   57.6375   26.0042   45.0189 H   0  0  0  0  0  0  0  0  0  0  0  0
   59.2860   31.4076   44.0614 H   0  0  0  0  0  0  0  0  0  0  0  0
   58.8898   33.8505   43.8898 H   0  0  0  0  0  0  0  0  0  0  0  0
   59.4552   35.8615   44.9433 H   0  0  0  0  0  0  0  0  0  0  0  0
   60.6131   35.4370   49.5818 H   0  0  0  0  0  0  0  0  0  0  0  0
   57.4757   31.7351   47.1698 H   0  0  0  0  0  0  0  0  0  0  0  0
   57.5718   30.6428   51.5300 H   0  0  0  0  0  0  0  0  0  0  0  0
   59.3440   30.6699   51.2743 H   0  0  0  0  0  0  0  0  0  0  0  0
   57.5653   33.1026   51.8152 H   0  0  0  0  0  0  0  0  0  0  0  0
   58.6583   32.3344   52.9960 H   0  0  0  0  0  0  0  0  0  0  0  0
  1  2  1  0
  2  3  1  0
  3  4  1  0
  4  5  1  0
  5  6  2  0
  6  7  1  0
  7  8  2  0
  8  9  1  0
  9 10  2  0
 10 11  1  0
 11 12  2  0
 12 13  1  0
 13 14  1  0
  6 15  1  0
 15 16  1  0
 16 17  2  0
 17 18  1  0
 18 19  2  0
 19 20  1  0
 20 21  2  0
 21 22  1  0
 22 23  2  0
 23 24  1  0
 24 25  2  0
 23 26  1  0
 26 27  1  0
 27 28  1  0
 28 29  1  0
 15  2  1  0
 25 16  1  0
 13  5  1  0
 24 20  1  0
 12  7  1  0
 29 22  1  0
  1 30  1  0
  1 31  1  0
  1 32  1  0
  3 33  1  0
  3 34  1  0
  4 35  1  0
  4 36  1  0
  8 37  1  0
  9 38  1  0
 10 39  1  0
 11 40  1  0
 14 41  1  0
 14 42  1  0
 14 43  1  0
 15 44  1  6
 17 45  1  0
 18 46  1  0
 21 47  1  0
 25 48  1  0
 27 49  1  0
 27 50  1  0
 28 51  1  0
 28 52  1  0
M  END
>  <smiles>  (10) 
CN1CCc2c(c3ccccc3n2C)C1c1ccnc2cc3c(c-2c1)OCCO3

>  <score_type>  (10) 
oracle

>  <origin>  (10) 
adg

>  <m_score__min__energy>  (10) 
-9.4000000000000004

>  <m_primary>  (10) 
energy

$$$$
11:0
     RDKit          3D

 53 55  0  0  0  0  0  0  0  0999 V2000
   56.5860   29.9750   42.8290 C   0  0  0  0  0  0  0  0  0  0  0  0
   56.1380   30.5010   44.1860 C   0  0  0  0  0  0  0  0  0  0  0  0
   55.9800   29.3760   45.0450 N   0  0  0  0  0  0  0  0  0  0  0  0
   57.0520   28.3900   44.9310 C   0  0  0  0  0  0  0  0  0  0  0  0
   58.1910   28.6620   45.8540 C   0  0  0  0  0  0  0  0  0  0  0  0
   58.1100   29.8650   46.6090 N   0  0  0  0  0  0  0  0  0  0  0  0
   59.1920   30.5330   47.2310 C   0  0  0  0  0  0  0  0  0  0  0  0
   59.5430   31.8110   46.7680 C   0  0  0  0  0  0  0  0  0  0  0  0
   60.6010   32.5120   47.3550 C   0  0  0  0  0  0  0  0  0  0  0  0
   61.3190   31.9930   48.3770 N   0  0  0  0  0  0  0  0  0  0  0  0
   62.4120   32.7500   48.9380 C   0  0  0  0  0  0  0  0  0  0  0  0
   60.9760   30.7560   48.8250 C   0  0  0  0  0  0  0  0  0  0  0  0
   61.6690   30.1870   49.8830 C   0  0  0  0  0  0  0  0  0  0  0  0
   61.3480   28.9320   50.3880 C   0  0  0  0  0  0  0  0  0  0  0  0
   60.3110   28.2150   49.8350 C   0  0  0  0  0  0  0  0  0  0  0  0
   59.6300   28.7940   48.7830 C   0  0  0  0  0  0  0  0  0  0  0  0
   59.9360   30.0330   48.2700 C   0  0  0  0  0  0  0  0  0  0  0  0
   60.8650   33.8620   46.7900 C   0  0  0  0  0  0  0  0  0  0  0  0
   59.5600   34.5340   46.4210 C   0  0  0  0  0  0  0  0  0  0  0  0
   58.7420   33.7810   45.5360 N   0  0  0  0  0  0  0  0  0  0  0  0
   59.0310   34.1410   44.1460 C   0  0  0  0  0  0  0  0  0  0  0  0
   57.3510   34.2120   45.7670 C   0  0  0  0  0  0  0  0  0  0  0  0
   58.7660   32.3700   45.6540 C   0  0  0  0  0  0  0  0  0  0  0  0
   57.2931   29.1448   42.9728 H   0  0  0  0  0  0  0  0  0  0  0  0
   55.7105   29.6178   42.2670 H   0  0  0  0  0  0  0  0  0  0  0  0
   57.0780   30.7825   42.2670 H   0  0  0  0  0  0  0  0  0  0  0  0
   56.8979   31.1831   44.5949 H   0  0  0  0  0  0  0  0  0  0  0  0
   55.1936   31.0577   44.0955 H   0  0  0  0  0  0  0  0  0  0  0  0
   55.9010   29.7130   46.0220 H   0  0  0  0  0  0  0  0  0  0  0  0
   56.6412   27.3964   45.1637 H   0  0  0  0  0  0  0  0  0  0  0  0
   57.4404   28.4419   43.9031 H   0  0  0  0  0  0  0  0  0  0  0  0
   58.2567   27.8237   46.5632 H   0  0  0  0  0  0  0  0  0  0  0  0
   59.0742   28.7767   45.2084 H   0  0  0  0  0  0  0  0  0  0  0  0
   57.1700   30.3170   46.7290 H   0  0  0  0  0  0  0  0  0  0  0  0
   62.3583   32.7128   50.0361 H   0  0  0  0  0  0  0  0  0  0  0  0
   63.3668   32.3188   48.6028 H   0  0  0  0  0  0  0  0  0  0  0  0
   62.3441   33.7955   48.6028 H   0  0  0  0  0  0  0  0  0  0  0  0
   62.4997   30.7468   50.3374 H   0  0  0  0  0  0  0  0  0  0  0  0
   61.9215   28.5128   51.2278 H   0  0  0  0  0  0  0  0  0  0  0  0
   60.0360   27.2205   50.2162 H   0  0  0  0  0  0  0  0  0  0  0  0
   58.7979   28.2344   48.3307 H   0  0  0  0  0  0  0  0  0  0  0  0
   61.3906   34.4735   47.5383 H   0  0  0  0  0  0  0  0  0  0  0  0
   61.4860   33.7603   45.8878 H   0  0  0  0  0  0  0  0  0  0  0  0
   58.9920   34.7136   47.3457 H   0  0  0  0  0  0  0  0  0  0  0  0
   59.8231   35.4621   45.8924 H   0  0  0  0  0  0  0  0  0  0  0  0
   59.7195   34.9986   44.1249 H   0  0  0  0  0  0  0  0  0  0  0  0
   59.4957   33.2851   43.6346 H   0  0  0  0  0  0  0  0  0  0  0  0
   58.0949   34.4096   43.6346 H   0  0  0  0  0  0  0  0  0  0  0  0
   57.1603   34.2711   46.8487 H   0  0  0  0  0  0  0  0  0  0  0  0
   57.1933   35.2011   45.3123 H   0  0  0  0  0  0  0  0  0  0  0  0
   56.6617   33.4853   45.3123 H   0  0  0  0  0  0  0  0  0  0  0  0
   57.7268   32.0281   45.7687 H   0  0  0  0  0  0  0  0  0  0  0  0
   59.2711   32.0140   44.7440 H   0  0  0  0  0  0  0  0  0  0  0  0
  1  2  1  0
  2  3  1  0
  3  4  1  0
  4  5  1  0
  5  6  1  0
  6  7  1  0
  7  8  2  0
  8  9  1  0
  9 10  2  0
 10 11  1  0
 10 12  1  0
 12 13  2  0
 13 14  1  0
 14 15  2  0
 15 16  1  0
 16 17  2  0
  9 18  1  0
 18 19  1  0
 19 20  1  0
 20 21  1  0
 20 22  1  0
 20 23  1  0
 17  7  1  0
 23  8  1  0
 17 12  1  0
  1 24  1  0
  1 25  1  0
  1 26  1  0
  2 27  1  0
  2 28  1  0
  3 29  1  0
  4 30  1  0
  4 31  1  0
  5 32  1  0
  5 33  1  0
  6 34  1  0
 11 35  1  0
 11 36  1  0
 11 37  1  0
 13 38  1  0
 14 39  1  0
 15 40  1  0
 16 41  1  0
 18 42  1  0
 18 43  1  0
 19 44  1  0
 19 45  1  0
 21 46  1  0
 21 47  1  0
 21 48  1  0
 22 49  1  0
 22 50  1  0
 22 51  1  0
 23 52  1  0
 23 53  1  0
M  CHG  2  10   1  20   1
M  END
>  <smiles>  (11) 
CCNCCNc1c2c([n+](C)c3ccccc13)CC[N+](C)(C)C2

>  <score_type>  (11) 
oracle

>  <origin>  (11) 
adg

>  <m_score__min__energy>  (11) 
-4.3099999999999996

>  <m_primary>  (11) 
energy

$$$$
12:0
     RDKit          3D

 28 29  0  0  1  0  0  0  0  0999 V2000
   60.0100   35.0730   45.9990 C   0  0  0  0  0  0  0  0  0  0  0  0
   59.9760   33.6440   46.4260 C   0  0  0  0  0  0  0  0  0  0  0  0
   59.1440   32.8850   45.5310 N   0  0  0  0  0  3  0  0  0  0  0  0
   58.5080   33.6930   44.5250 C   0  0  2  0  0  0  0  0  0  0  0  0
   57.2260   34.2350   45.0960 C   0  0  0  0  0  0  0  0  0  0  0  0
   57.0150   33.4610   46.3800 C   0  0  0  0  0  0  0  0  0  0  0  0
   57.9940   32.3150   46.1850 C   0  0  1  0  0  0  0  0  0  0  0  0
   57.3740   31.4280   45.3350 O   0  0  0  0  0  0  0  0  0  0  0  0
   57.8890   31.3620   44.0750 C   0  0  1  0  0  0  0  0  0  0  0  0
   56.8520   30.6530   43.2060 C   0  0  0  0  0  0  0  0  0  0  0  0
   58.1350   32.6990   43.4330 C   0  0  0  0  0  0  0  0  0  0  0  0
   60.0254   35.7210   46.8878 H   0  0  0  0  0  0  0  0  0  0  0  0
   60.9127   35.2545   45.3972 H   0  0  0  0  0  0  0  0  0  0  0  0
   59.1169   35.2972   45.3972 H   0  0  0  0  0  0  0  0  0  0  0  0
   60.9968   33.2344   46.4106 H   0  0  0  0  0  0  0  0  0  0  0  0
   59.5649   33.5801   47.4443 H   0  0  0  0  0  0  0  0  0  0  0  0
   59.1425   34.5204   44.1744 H   0  0  0  0  0  0  0  0  0  0  0  0
   57.3190   35.3113   45.3035 H   0  0  0  0  0  0  0  0  0  0  0  0
   56.3817   34.1218   44.4001 H   0  0  0  0  0  0  0  0  0  0  0  0
   57.2694   34.0650   47.2634 H   0  0  0  0  0  0  0  0  0  0  0  0
   55.9757   33.1473   46.5575 H   0  0  0  0  0  0  0  0  0  0  0  0
   58.2876   31.8146   47.1195 H   0  0  0  0  0  0  0  0  0  0  0  0
   58.8584   30.8480   44.1525 H   0  0  0  0  0  0  0  0  0  0  0  0
   56.1160   30.1498   43.8503 H   0  0  0  0  0  0  0  0  0  0  0  0
   56.3397   31.3907   42.5709 H   0  0  0  0  0  0  0  0  0  0  0  0
   57.3535   29.9079   42.5709 H   0  0  0  0  0  0  0  0  0  0  0  0
   58.9578   32.6174   42.7076 H   0  0  0  0  0  0  0  0  0  0  0  0
   57.2314   33.0377   42.9051 H   0  0  0  0  0  0  0  0  0  0  0  0
  1  2  1  0
  2  3  1  0
  3  4  1  0
  4  5  1  0
  5  6  1  0
  6  7  1  0
  7  8  1  0
  8  9  1  0
  9 10  1  0
  9 11  1  0
  7  3  1  0
 11  4  1  0
  1 12  1  0
  1 13  1  0
  1 14  1  0
  2 15  1  0
  2 16  1  0
  4 17  1  6
  5 18  1  0
  5 19  1  0
  6 20  1  0
  6 21  1  0
  7 22  1  1
  9 23  1  1
 10 24  1  0
 10 25  1  0
 10 26  1  0
 11 27  1  0
 11 28  1  0
M  CHG  1   3   1
M  RAD  1   3   2
M  END
>  <smiles>  (12) 
CC[N+]1C2CCC1OC(C)C2

>  <score_type>  (12) 
oracle

>  <origin>  (12) 
adg

>  <m_score__min__energy>  (12) 
-3.9300000000000002

>  <m_primary>  (12) 
energy

$$$$
13:0
     RDKit          3D

 52 54  0  0  0  0  0  0  0  0999 V2000
   60.7600   28.7050   45.2200 C   0  0  0  0  0  0  0  0  0  0  0  0
   60.4720   28.8470   46.7050 C   0  0  0  0  0  0  0  0  0  0  0  0
   59.1550   29.1580   46.9380 O   0  0  0  0  0  0  0  0  0  0  0  0
   58.5210   28.3870   47.8850 C   0  0  0  0  0  0  0  0  0  0  0  0
   57.9670   27.1740   47.1250 C   0  0  0  0  0  0  0  0  0  0  0  0
   57.2720   27.7190   46.0450 O   0  0  0  0  0  0  0  0  0  0  0  0
   57.7360   27.2570   44.8340 C   0  0  0  0  0  0  0  0  0  0  0  0
   57.6240   28.2410   43.7080 C   0  0  0  0  0  0  0  0  0  0  0  0
   57.3890   29.5830   44.2060 N   0  0  0  0  0  0  0  0  0  0  0  0
   58.3010   30.5300   44.5470 C   0  0  0  0  0  0  0  0  0  0  0  0
   57.6380   31.6760   44.9750 C   0  0  0  0  0  0  0  0  0  0  0  0
   58.3380   32.8700   45.4090 C   0  0  0  0  0  0  0  0  0  0  0  0
   58.3730   33.9750   44.5660 C   0  0  0  0  0  0  0  0  0  0  0  0
   59.0000   35.1550   44.8820 C   0  0  0  0  0  0  0  0  0  0  0  0
   59.6320   35.2600   46.0940 C   0  0  0  0  0  0  0  0  0  0  0  0
   59.5990   34.1690   46.9290 C   0  0  0  0  0  0  0  0  0  0  0  0
   58.9790   32.9780   46.6380 C   0  0  0  0  0  0  0  0  0  0  0  0
   59.0510   31.9240   47.5530 N   0  0  0  0  0  0  0  0  0  0  0  0
   59.8950   31.8130   48.7080 C   0  0  0  0  0  0  0  0  0  0  0  0
   61.2780   32.1780   48.3850 C   0  0  0  0  0  0  0  0  0  0  0  0
   62.0930   31.6340   47.4450 C   0  0  0  0  0  0  0  0  0  0  0  0
   63.3950   32.1040   47.2410 C   0  0  0  0  0  0  0  0  0  0  0  0
   63.9070   33.1490   47.9960 C   0  0  0  0  0  0  0  0  0  0  0  0
   63.0800   33.6700   48.9210 N   0  0  0  0  0  0  0  0  0  0  0  0
   61.8250   33.2360   49.1340 C   0  0  0  0  0  0  0  0  0  0  0  0
   56.3460   31.3640   44.8710 N   0  0  0  0  0  0  0  0  0  0  0  0
   56.2260   30.1350   44.4190 N   0  0  0  0  0  0  0  0  0  0  0  0
   61.7387   28.2225   45.0808 H   0  0  0  0  0  0  0  0  0  0  0  0
   59.9777   28.0893   44.7520 H   0  0  0  0  0  0  0  0  0  0  0  0
   60.7721   29.7004   44.7520 H   0  0  0  0  0  0  0  0  0  0  0  0
   60.7084   27.8971   47.2067 H   0  0  0  0  0  0  0  0  0  0  0  0
   61.0931   29.6651   47.0988 H   0  0  0  0  0  0  0  0  0  0  0  0
   59.2344   28.0634   48.6572 H   0  0  0  0  0  0  0  0  0  0  0  0
   57.7239   28.9453   48.3977 H   0  0  0  0  0  0  0  0  0  0  0  0
   58.7861   26.5294   46.7735 H   0  0  0  0  0  0  0  0  0  0  0  0
   57.3244   26.5446   47.7581 H   0  0  0  0  0  0  0  0  0  0  0  0
   58.7964   26.9893   44.9520 H   0  0  0  0  0  0  0  0  0  0  0  0
   57.1029   26.3991   44.5635 H   0  0  0  0  0  0  0  0  0  0  0  0
   58.5592   28.2317   43.1290 H   0  0  0  0  0  0  0  0  0  0  0  0
   56.7729   27.9504   43.0746 H   0  0  0  0  0  0  0  0  0  0  0  0
   59.3931   30.4098   44.4932 H   0  0  0  0  0  0  0  0  0  0  0  0
   57.8699   33.8997   43.5907 H   0  0  0  0  0  0  0  0  0  0  0  0
   58.9953   35.9992   44.1768 H   0  0  0  0  0  0  0  0  0  0  0  0
   60.1479   36.1859   46.3881 H   0  0  0  0  0  0  0  0  0  0  0  0
   60.1060   34.2556   47.9013 H   0  0  0  0  0  0  0  0  0  0  0  0
   58.4170   31.0960   47.3910 H   0  0  0  0  0  0  0  0  0  0  0  0
   59.5197   32.4851   49.4938 H   0  0  0  0  0  0  0  0  0  0  0  0
   59.8797   30.7690   49.0543 H   0  0  0  0  0  0  0  0  0  0  0  0
   61.7202   30.8029   46.8283 H   0  0  0  0  0  0  0  0  0  0  0  0
   64.0235   31.6367   46.4685 H   0  0  0  0  0  0  0  0  0  0  0  0
   64.9284   33.5293   47.8474 H   0  0  0  0  0  0  0  0  0  0  0  0
   61.2131   33.7185   49.9104 H   0  0  0  0  0  0  0  0  0  0  0  0
  1  2  1  0
  2  3  1  0
  3  4  1  0
  4  5  1  0
  5  6  1  0
  6  7  1  0
  7  8  1  0
  8  9  1  0
  9 10  1  0
 10 11  2  0
 11 12  1  0
 12 13  2  0
 13 14  1  0
 14 15  2  0
 15 16  1  0
 16 17  2  0
 17 18  1  0
 18 19  1  0
 19 20  1  0
 20 21  2  0
 21 22  1  0
 22 23  2  0
 23 24  1  0
 24 25  2  0
 11 26  1  0
 26 27  2  0
 27  9  1  0
 17 12  1  0
 25 20  1  0
  1 28  1  0
  1 29  1  0
  1 30  1  0
  2 31  1  0
  2 32  1  0
  4 33  1  0
  4 34  1  0
  5 35  1  0
  5 36  1  0
  7 37  1  0
  7 38  1  0
  8 39  1  0
  8 40  1  0
 10 41  1  0
 13 42  1  0
 14 43  1  0
 15 44  1  0
 16 45  1  0
 18 46  1  0
 19 47  1  0
 19 48  1  0
 21 49  1  0
 22 50  1  0
 23 51  1  0
 25 52  1  0
M  END
>  <smiles>  (13) 
CCOCCOCCn1cc(-c2ccccc2NCc2cccnc2)nn1

>  <score_type>  (13) 
oracle

>  <origin>  (13) 
adg

>  <m_score__min__energy>  (13) 
-8.0199999999999996

>  <m_primary>  (13) 
energy

$$$$
14:0
     RDKit          3D

 44 44  0  0  0  0  0  0  0  0999 V2000
   56.0730   24.4270   45.0380 C   0  0  0  0  0  0  0  0  0  0  0  0
   54.8190   25.0720   45.6180 C   0  0  0  0  0  0  0  0  0  0  0  0
   55.1370   26.3500   45.9970 O   0  0  0  0  0  0  0  0  0  0  0  0
   56.4800   26.5070   46.2730 C   0  0  0  0  0  0  0  0  0  0  0  0
   57.0570   27.7160   45.6040 C   0  0  0  0  0  0  0  0  0  0  0  0
   58.5750   27.7200   45.6520 C   0  0  0  0  0  0  0  0  0  0  0  0
   59.0770   29.0400   45.8800 N   0  0  0  0  0  0  0  0  0  0  0  0
   59.6420   29.1860   47.2110 C   0  0  0  0  0  0  0  0  0  0  0  0
   59.1260   30.3930   47.9200 C   0  0  0  0  0  0  0  0  0  0  0  0
   58.1780   31.1470   47.2640 O   0  0  0  0  0  0  0  0  0  0  0  0
   58.3250   32.2820   46.5540 C   0  0  0  0  0  0  0  0  0  0  0  0
   59.0150   33.4140   46.9030 C   0  0  0  0  0  0  0  0  0  0  0  0
   59.1080   34.5370   46.0910 C   0  0  0  0  0  0  0  0  0  0  0  0
   58.4890   34.5600   44.8650 C   0  0  0  0  0  0  0  0  0  0  0  0
   57.7850   33.4370   44.4840 C   0  0  0  0  0  0  0  0  0  0  0  0
   57.6970   32.3260   45.2920 C   0  0  0  0  0  0  0  0  0  0  0  0
   56.9900   31.2060   44.9000 O   0  0  0  0  0  0  0  0  0  0  0  0
   57.0830   30.6520   43.6190 C   0  0  0  0  0  0  0  0  0  0  0  0
   55.9270   29.7590   43.2360 C   0  0  0  0  0  0  0  0  0  0  0  0
   56.7254   24.0915   45.8577 H   0  0  0  0  0  0  0  0  0  0  0  0
   55.7883   23.5634   44.4190 H   0  0  0  0  0  0  0  0  0  0  0  0
   56.6100   25.1608   44.4190 H   0  0  0  0  0  0  0  0  0  0  0  0
   54.0249   25.0949   44.8572 H   0  0  0  0  0  0  0  0  0  0  0  0
   54.4576   24.4957   46.4824 H   0  0  0  0  0  0  0  0  0  0  0  0
   56.6087   26.6086   47.3607 H   0  0  0  0  0  0  0  0  0  0  0  0
   57.0096   25.6229   45.8883 H   0  0  0  0  0  0  0  0  0  0  0  0
   56.7345   27.7284   44.5524 H   0  0  0  0  0  0  0  0  0  0  0  0
   56.6968   28.6065   46.1400 H   0  0  0  0  0  0  0  0  0  0  0  0
   58.9109   27.0616   46.4667 H   0  0  0  0  0  0  0  0  0  0  0  0
   58.9573   27.3618   44.6848 H   0  0  0  0  0  0  0  0  0  0  0  0
   58.3820   29.7890   45.7390 H   0  0  0  0  0  0  0  0  0  0  0  0
   59.3880   28.2938   47.8022 H   0  0  0  0  0  0  0  0  0  0  0  0
   60.7305   29.3016   47.1019 H   0  0  0  0  0  0  0  0  0  0  0  0
   58.6834   30.0563   48.8690 H   0  0  0  0  0  0  0  0  0  0  0  0
   59.9969   31.0570   48.0237 H   0  0  0  0  0  0  0  0  0  0  0  0
   59.5224   33.4340   47.8788 H   0  0  0  0  0  0  0  0  0  0  0  0
   59.6803   35.4125   46.4315 H   0  0  0  0  0  0  0  0  0  0  0  0
   58.5525   35.4421   44.2109 H   0  0  0  0  0  0  0  0  0  0  0  0
   57.2796   33.4288   43.5070 H   0  0  0  0  0  0  0  0  0  0  0  0
   57.1362   31.4756   42.8918 H   0  0  0  0  0  0  0  0  0  0  0  0
   57.9815   30.0174   43.6177 H   0  0  0  0  0  0  0  0  0  0  0  0
   55.4382   29.3814   44.1462 H   0  0  0  0  0  0  0  0  0  0  0  0
   55.2013   30.3333   42.6414 H   0  0  0  0  0  0  0  0  0  0  0  0
   56.2995   28.9118   42.6414 H   0  0  0  0  0  0  0  0  0  0  0  0
  1  2  1  0
  2  3  1  0
  3  4  1  0
  4  5  1  0
  5  6  1  0
  6  7  1  0
  7  8  1  0
  8  9  1  0
  9 10  1  0
 10 11  1  0
 11 12  2  0
 12 13  1  0
 13 14  2  0
 14 15  1  0
 15 16  2  0
 16 17  1  0
 17 18  1  0
 18 19  1  0
 16 11  1  0
  1 20  1  0
  1 21  1  0
  1 22  1  0
  2 23  1  0
  2 24  1  0
  4 25  1  0
  4 26  1  0
  5 27  1  0
  5 28  1  0
  6 29  1  0
  6 30  1  0
  7 31  1  0
  8 32  1  0
  8 33  1  0
  9 34  1  0
  9 35  1  0
 12 36  1  0
 13 37  1  0
 14 38  1  0
 15 39  1  0
 18 40  1  0
 18 41  1  0
 19 42  1  0
 19 43  1  0
 19 44  1  0
M  END
>  <smiles>  (14) 
CCOCCCNCCOc1ccccc1OCC

>  <score_type>  (14) 
oracle

>  <origin>  (14) 
adg

>  <m_score__min__energy>  (14) 
-6.1299999999999999

>  <m_primary>  (14) 
energy

$$$$
15:0
     RDKit          3D

 53 56  0  0  0  0  0  0  0  0999 V2000
   62.9530   34.1370   48.3230 C   0  0  0  0  0  0  0  0  0  0  0  0
   63.2960   33.8670   46.8710 C   0  0  0  0  0  0  0  0  0  0  0  0
   63.7240   32.4990   46.7460 N   0  0  0  0  0  0  0  0  0  0  0  0
   63.3160   31.6920   47.8860 C   0  0  0  0  0  0  0  0  0  0  0  0
   61.9830   31.0210   47.6160 C   0  0  0  0  0  0  0  0  0  0  0  0
   61.2660   30.6460   48.8620 C   0  0  0  0  0  0  0  0  0  0  0  0
   60.1240   29.7010   48.7230 C   0  0  0  0  0  0  0  0  0  0  0  0
   58.9360   30.3740   48.2380 N   0  0  0  0  0  0  0  0  0  0  0  0
   58.7270   30.8000   46.9180 C   0  0  0  0  0  0  0  0  0  0  0  0
   58.8100   32.1730   46.6750 C   0  0  0  0  0  0  0  0  0  0  0  0
   59.0890   33.0860   47.6570 C   0  0  0  0  0  0  0  0  0  0  0  0
   59.1790   34.4510   47.4370 C   0  0  0  0  0  0  0  0  0  0  0  0
   58.9790   34.9430   46.1660 C   0  0  0  0  0  0  0  0  0  0  0  0
   58.6940   34.0580   45.1460 C   0  0  0  0  0  0  0  0  0  0  0  0
   58.6090   32.6800   45.3920 C   0  0  0  0  0  0  0  0  0  0  0  0
   58.3290   31.8540   44.3560 N   0  0  0  0  0  0  0  0  0  0  0  0
   58.1230   32.3740   43.0250 C   0  0  0  0  0  0  0  0  0  0  0  0
   58.2590   30.5380   44.6320 C   0  0  0  0  0  0  0  0  0  0  0  0
   58.0020   29.5400   43.7520 N   0  0  0  0  0  0  0  0  0  0  0  0
   58.0340   28.3900   44.4430 C   0  0  0  0  0  0  0  0  0  0  0  0
   57.8420   27.0830   44.0180 C   0  0  0  0  0  0  0  0  0  0  0  0
   57.9410   26.0890   44.9550 C   0  0  0  0  0  0  0  0  0  0  0  0
   58.2260   26.3820   46.2900 C   0  0  0  0  0  0  0  0  0  0  0  0
   58.4130   27.7010   46.6920 C   0  0  0  0  0  0  0  0  0  0  0  0
   58.3130   28.7000   45.7550 C   0  0  0  0  0  0  0  0  0  0  0  0
   58.4500   30.0300   45.8650 N   0  0  0  0  0  0  0  0  0  0  0  0
   63.6505   33.5880   48.9727 H   0  0  0  0  0  0  0  0  0  0  0  0
   63.0354   35.2152   48.5249 H   0  0  0  0  0  0  0  0  0  0  0  0
   61.9243   33.8037   48.5249 H   0  0  0  0  0  0  0  0  0  0  0  0
   62.4088   34.0363   46.2432 H   0  0  0  0  0  0  0  0  0  0  0  0
   64.0994   34.5431   46.5432 H   0  0  0  0  0  0  0  0  0  0  0  0
   64.7270   32.3830   46.5190 H   0  0  0  0  0  0  0  0  0  0  0  0
   64.0774   30.9206   48.0738 H   0  0  0  0  0  0  0  0  0  0  0  0
   63.2120   32.3462   48.7642 H   0  0  0  0  0  0  0  0  0  0  0  0
   61.3506   31.7136   47.0412 H   0  0  0  0  0  0  0  0  0  0  0  0
   62.1847   30.0949   47.0577 H   0  0  0  0  0  0  0  0  0  0  0  0
   61.9983   30.1848   49.5410 H   0  0  0  0  0  0  0  0  0  0  0  0
   60.8207   31.5822   49.2297 H   0  0  0  0  0  0  0  0  0  0  0  0
   60.4006   28.9075   48.0132 H   0  0  0  0  0  0  0  0  0  0  0  0
   59.9020   29.2786   49.7141 H   0  0  0  0  0  0  0  0  0  0  0  0
   58.1560   30.5640   48.9290 H   0  0  0  0  0  0  0  0  0  0  0  0
   59.2510   32.7141   48.6795 H   0  0  0  0  0  0  0  0  0  0  0  0
   59.4077   35.1343   48.2682 H   0  0  0  0  0  0  0  0  0  0  0  0
   59.0453   36.0229   45.9674 H   0  0  0  0  0  0  0  0  0  0  0  0
   58.5314   34.4385   44.1268 H   0  0  0  0  0  0  0  0  0  0  0  0
   57.7185   33.3950   43.0887 H   0  0  0  0  0  0  0  0  0  0  0  0
   59.0818   32.3924   42.4861 H   0  0  0  0  0  0  0  0  0  0  0  0
   57.4117   31.7308   42.4861 H   0  0  0  0  0  0  0  0  0  0  0  0
   57.8120   29.6110   42.7310 H   0  0  0  0  0  0  0  0  0  0  0  0
   57.6182   26.8534   42.9658 H   0  0  0  0  0  0  0  0  0  0  0  0
   57.7935   25.0423   44.6507 H   0  0  0  0  0  0  0  0  0  0  0  0
   58.3029   25.5681   47.0259 H   0  0  0  0  0  0  0  0  0  0  0  0
   58.6371   27.9394   47.7422 H   0  0  0  0  0  0  0  0  0  0  0  0
  1  2  1  0
  2  3  1  0
  3  4  1  0
  4  5  1  0
  5  6  1  0
  6  7  1  0
  7  8  1  0
  8  9  1  0
  9 10  2  0
 10 11  1  0
 11 12  2  0
 12 13  1  0
 13 14  2  0
 14 15  1  0
 15 16  2  0
 16 17  1  0
 16 18  1  0
 18 19  1  0
 19 20  1  0
 20 21  2  0
 21 22  1  0
 22 23  2  0
 23 24  1  0
 24 25  2  0
 25 26  1  0
 26  9  1  0
 15 10  1  0
 26 18  2  0
 25 20  1  0
  1 27  1  0
  1 28  1  0
  1 29  1  0
  2 30  1  0
  2 31  1  0
  3 32  1  0
  4 33  1  0
  4 34  1  0
  5 35  1  0
  5 36  1  0
  6 37  1  0
  6 38  1  0
  7 39  1  0
  7 40  1  0
  8 41  1  0
 11 42  1  0
 12 43  1  0
 13 44  1  0
 14 45  1  0
 17 46  1  0
 17 47  1  0
 17 48  1  0
 19 49  1  0
 21 50  1  0
 22 51  1  0
 23 52  1  0
 24 53  1  0
M  CHG  2  16   1  26   1
M  END
>  <smiles>  (15) 
CCNCCCCNc1c2ccccc2[n+](C)c2[nH]c3ccccc3[n+]12

>  <score_type>  (15) 
oracle

>  <origin>  (15) 
adg

>  <m_score__min__energy>  (15) 
-5.2599999999999998

>  <m_primary>  (15) 
energy

$$$$
16:0
     RDKit          3D

 63 65  0  0  0  0  0  0  0  0999 V2000
   61.0320   29.4420   49.7130 C   0  0  0  0  0  0  0  0  0  0  0  0
   60.4820   29.5350   48.3310 C   0  0  0  0  0  0  0  0  0  0  0  0
   59.0140   29.4880   48.1730 C   0  0  0  0  0  0  0  0  0  0  0  0
   58.4490   29.6830   46.8910 N   0  0  0  0  0  0  0  0  0  0  0  0
   58.1480   28.5440   46.0930 C   0  0  0  0  0  0  0  0  0  0  0  0
   58.1400   28.8850   44.6190 C   0  0  0  0  0  0  0  0  0  0  0  0
   56.7660   29.3190   44.2140 C   0  0  0  0  0  0  0  0  0  0  0  0
   56.6040   30.8150   44.1260 C   0  0  0  0  0  0  0  0  0  0  0  0
   57.3400   31.4590   45.2110 N   0  0  0  0  0  0  0  0  0  0  0  0
   57.9890   32.6760   44.7940 C   0  0  0  0  0  0  0  0  0  0  0  0
   57.3220   33.8230   45.5680 C   0  0  0  0  0  0  0  0  0  0  0  0
   58.1950   34.0170   46.7960 C   0  0  0  0  0  0  0  0  0  0  0  0
   58.7470   32.8070   47.3190 N   0  0  0  0  0  0  0  0  0  0  0  0
   59.7550   32.8880   48.3170 C   0  0  0  0  0  0  0  0  0  0  0  0
   61.0700   33.2000   48.0520 C   0  0  0  0  0  0  0  0  0  0  0  0
   61.4030   33.4600   46.7460 C   0  0  0  0  0  0  0  0  0  0  0  0
   62.6830   33.7780   46.4260 C   0  0  0  0  0  0  0  0  0  0  0  0
   63.6670   33.8480   47.3770 C   0  0  0  0  0  0  0  0  0  0  0  0
   63.3250   33.5830   48.7090 C   0  0  0  0  0  0  0  0  0  0  0  0
   62.0310   33.2590   49.0520 C   0  0  0  0  0  0  0  0  0  0  0  0
   61.7260   33.0150   50.3320 N   0  0  0  0  0  0  0  0  0  0  0  0
   62.6440   33.0550   51.4280 C   0  0  0  0  0  0  0  0  0  0  0  0
   60.4300   32.7020   50.6450 C   0  0  0  0  0  0  0  0  0  0  0  0
   60.0210   32.4370   51.9190 C   0  0  0  0  0  0  0  0  0  0  0  0
   58.7290   32.1180   52.2810 C   0  0  0  0  0  0  0  0  0  0  0  0
   57.7980   32.0710   51.2390 C   0  0  0  0  0  0  0  0  0  0  0  0
   58.1400   32.3260   49.9250 C   0  0  0  0  0  0  0  0  0  0  0  0
   59.4530   32.6380   49.6540 C   0  0  0  0  0  0  0  0  0  0  0  0
   60.2191   29.5795   50.4412 H   0  0  0  0  0  0  0  0  0  0  0  0
   61.4917   28.4534   49.8589 H   0  0  0  0  0  0  0  0  0  0  0  0
   61.7912   30.2245   49.8589 H   0  0  0  0  0  0  0  0  0  0  0  0
   60.8285   30.4871   47.9026 H   0  0  0  0  0  0  0  0  0  0  0  0
   60.8459   28.6288   47.8247 H   0  0  0  0  0  0  0  0  0  0  0  0
   58.6853   28.4977   48.5212 H   0  0  0  0  0  0  0  0  0  0  0  0
   58.6623   30.3575   48.7476 H   0  0  0  0  0  0  0  0  0  0  0  0
   58.9360   30.4440   46.3810 H   0  0  0  0  0  0  0  0  0  0  0  0
   58.9066   27.7688   46.2763 H   0  0  0  0  0  0  0  0  0  0  0  0
   57.1457   28.1847   46.3692 H   0  0  0  0  0  0  0  0  0  0  0  0
   58.8532   29.7003   44.4275 H   0  0  0  0  0  0  0  0  0  0  0  0
   58.4308   27.9985   44.0363 H   0  0  0  0  0  0  0  0  0  0  0  0
   56.5421   28.8869   43.2275 H   0  0  0  0  0  0  0  0  0  0  0  0
   56.0748   28.9663   44.9936 H   0  0  0  0  0  0  0  0  0  0  0  0
   56.9947   31.1681   43.1602 H   0  0  0  0  0  0  0  0  0  0  0  0
   55.5372   31.0696   44.2107 H   0  0  0  0  0  0  0  0  0  0  0  0
   58.0390   30.7880   45.5820 H   0  0  0  0  0  0  0  0  0  0  0  0
   59.0623   32.6331   45.0311 H   0  0  0  0  0  0  0  0  0  0  0  0
   57.8910   32.8233   43.7083 H   0  0  0  0  0  0  0  0  0  0  0  0
   57.2984   34.7393   44.9599 H   0  0  0  0  0  0  0  0  0  0  0  0
   56.2780   33.5967   45.8305 H   0  0  0  0  0  0  0  0  0  0  0  0
   59.0250   34.6869   46.5270 H   0  0  0  0  0  0  0  0  0  0  0  0
   57.5478   34.4347   47.5813 H   0  0  0  0  0  0  0  0  0  0  0  0
   58.4150   31.8730   46.9730 H   0  0  0  0  0  0  0  0  0  0  0  0
   60.6343   33.4107   45.9607 H   0  0  0  0  0  0  0  0  0  0  0  0
   62.9371   33.9849   45.3759 H   0  0  0  0  0  0  0  0  0  0  0  0
   64.7001   34.1060   47.1010 H   0  0  0  0  0  0  0  0  0  0  0  0
   64.0982   33.6342   49.4897 H   0  0  0  0  0  0  0  0  0  0  0  0
   62.0854   33.0307   52.3753 H   0  0  0  0  0  0  0  0  0  0  0  0
   63.3154   32.1853   51.3758 H   0  0  0  0  0  0  0  0  0  0  0  0
   63.2372   33.9798   51.3758 H   0  0  0  0  0  0  0  0  0  0  0  0
   60.7774   32.4810   52.7164 H   0  0  0  0  0  0  0  0  0  0  0  0
   58.4484   31.9133   53.3247 H   0  0  0  0  0  0  0  0  0  0  0  0
   56.7529   31.8214   51.4745 H   0  0  0  0  0  0  0  0  0  0  0  0
   57.3887   32.2812   49.1227 H   0  0  0  0  0  0  0  0  0  0  0  0
  1  2  1  0
  2  3  1  0
  3  4  1  0
  4  5  1  0
  5  6  1  0
  6  7  1  0
  7  8  1  0
  8  9  1  0
  9 10  1  0
 10 11  1  0
 11 12  1  0
 12 13  1  0
 13 14  1  0
 14 15  2  0
 15 16  1  0
 16 17  2  0
 17 18  1  0
 18 19  2  0
 19 20  1  0
 20 21  2  0
 21 22  1  0
 21 23  1  0
 23 24  2  0
 24 25  1  0
 25 26  2  0
 26 27  1  0
 27 28  2  0
 28 14  1  0
 20 15  1  0
 28 23  1  0
  1 29  1  0
  1 30  1  0
  1 31  1  0
  2 32  1  0
  2 33  1  0
  3 34  1  0
  3 35  1  0
  4 36  1  0
  5 37  1  0
  5 38  1  0
  6 39  1  0
  6 40  1  0
  7 41  1  0
  7 42  1  0
  8 43  1  0
  8 44  1  0
  9 45  1  0
 10 46  1  0
 10 47  1  0
 11 48  1  0
 11 49  1  0
 12 50  1  0
 12 51  1  0
 13 52  1  0
 16 53  1  0
 17 54  1  0
 18 55  1  0
 19 56  1  0
 22 57  1  0
 22 58  1  0
 22 59  1  0
 24 60  1  0
 25 61  1  0
 26 62  1  0
 27 63  1  0
M  CHG  1  21   1
M  END
>  <smiles>  (16) 
CCCNCCCCNCCCNc1c2ccccc2[n+](C)c2ccccc12

>  <score_type>  (16) 
oracle

>  <origin>  (16) 
adg

>  <m_score__min__energy>  (16) 
-5.71

>  <m_primary>  (16) 
energy

$$$$
17:0
     RDKit          3D

 74 78  0  0  0  0  0  0  0  0999 V2000
   56.2650   25.8790   46.3880 C   0  0  0  0  0  0  0  0  0  0  0  0
   57.5270   26.6580   46.7130 C   0  0  0  0  0  0  0  0  0  0  0  0
   58.2390   26.9430   45.5350 N   0  0  0  0  0  0  0  0  0  0  0  0
   57.8290   26.3720   44.3180 C   0  0  0  0  0  0  0  0  0  0  0  0
   58.1470   27.1480   43.0730 C   0  0  0  0  0  0  0  0  0  0  0  0
   59.2650   27.9020   45.5430 C   0  0  0  0  0  0  0  0  0  0  0  0
   59.3420   28.5200   46.9880 C   0  0  0  0  0  0  0  0  0  0  0  0
   58.5090   29.6620   47.0880 N   0  0  0  0  0  0  0  0  0  0  0  0
   58.4550   30.9410   46.5490 C   0  0  0  0  0  0  0  0  0  0  0  0
   58.1040   31.1960   45.2380 C   0  0  0  0  0  0  0  0  0  0  0  0
   57.5960   30.2420   44.3850 C   0  0  0  0  0  0  0  0  0  0  0  0
   57.2250   30.4430   43.0960 C   0  0  0  0  0  0  0  0  0  0  0  0
   57.3500   31.6890   42.5510 C   0  0  0  0  0  0  0  0  0  0  0  0
   57.8600   32.7060   43.3610 C   0  0  0  0  0  0  0  0  0  0  0  0
   58.2290   32.4760   44.6700 C   0  0  0  0  0  0  0  0  0  0  0  0
   58.6960   33.4960   45.3940 N   0  0  0  0  0  0  0  0  0  0  0  0
   58.8810   34.8410   44.9090 C   0  0  0  0  0  0  0  0  0  0  0  0
   59.0450   33.2860   46.7000 C   0  0  0  0  0  0  0  0  0  0  0  0
   59.5020   34.3690   47.4390 C   0  0  0  0  0  0  0  0  0  0  0  0
   59.8470   34.2680   48.7690 C   0  0  0  0  0  0  0  0  0  0  0  0
   59.7120   33.0320   49.3550 C   0  0  0  0  0  0  0  0  0  0  0  0
   59.2540   31.9500   48.6170 C   0  0  0  0  0  0  0  0  0  0  0  0
   58.8090   30.8470   49.4390 N   0  0  0  0  0  0  0  0  0  0  0  0
   59.7010   30.1240   50.3300 C   0  0  0  0  0  0  0  0  0  0  0  0
   60.8800   29.6630   49.5130 C   0  0  0  0  0  0  0  0  0  0  0  0
   61.9820   30.5720   49.7910 N   0  0  0  0  0  0  0  0  0  0  0  0
   62.6150   30.6540   50.9680 C   0  0  0  0  0  0  0  0  0  0  0  0
   63.5820   31.5940   50.8850 N   0  0  0  0  0  0  0  0  0  0  0  0
   64.5100   32.0070   51.9340 C   0  0  0  0  0  0  0  0  0  0  0  0
   63.5650   32.1230   49.6300 C   0  0  0  0  0  0  0  0  0  0  0  0
   64.3270   33.1080   49.0000 C   0  0  0  0  0  0  0  0  0  0  0  0
   64.0890   33.4600   47.6770 C   0  0  0  0  0  0  0  0  0  0  0  0
   63.0620   32.7900   47.0080 C   0  0  0  0  0  0  0  0  0  0  0  0
   62.3040   31.8130   47.6250 C   0  0  0  0  0  0  0  0  0  0  0  0
   62.5510   31.4690   48.9530 C   0  0  0  0  0  0  0  0  0  0  0  0
   58.9210   32.0250   47.2790 C   0  0  0  0  0  0  0  0  0  0  0  0
   55.7713   25.5743   47.3226 H   0  0  0  0  0  0  0  0  0  0  0  0
   55.5829   26.5134   45.8030 H   0  0  0  0  0  0  0  0  0  0  0  0
   56.5264   24.9849   45.8030 H   0  0  0  0  0  0  0  0  0  0  0  0
   57.2541   27.6008   47.2096 H   0  0  0  0  0  0  0  0  0  0  0  0
   58.1609   26.0528   47.3778 H   0  0  0  0  0  0  0  0  0  0  0  0
   58.3126   25.3878   44.2310 H   0  0  0  0  0  0  0  0  0  0  0  0
   56.7306   26.3388   44.3676 H   0  0  0  0  0  0  0  0  0  0  0  0
   58.5508   28.1335   43.3483 H   0  0  0  0  0  0  0  0  0  0  0  0
   58.8927   26.5990   42.4792 H   0  0  0  0  0  0  0  0  0  0  0  0
   57.2305   27.2802   42.4792 H   0  0  0  0  0  0  0  0  0  0  0  0
   60.2234   27.4254   45.2893 H   0  0  0  0  0  0  0  0  0  0  0  0
   59.0589   28.6882   44.8017 H   0  0  0  0  0  0  0  0  0  0  0  0
   59.0137   27.7680   47.7206 H   0  0  0  0  0  0  0  0  0  0  0  0
   60.3807   28.8204   47.1899 H   0  0  0  0  0  0  0  0  0  0  0  0
   57.8160   29.5460   47.9580 H   0  0  0  0  0  0  0  0  0  0  0  0
   57.4805   29.2240   44.7855 H   0  0  0  0  0  0  0  0  0  0  0  0
   56.8276   29.6112   42.4959 H   0  0  0  0  0  0  0  0  0  0  0  0
   57.0586   31.8851   41.5086 H   0  0  0  0  0  0  0  0  0  0  0  0
   57.9704   33.7178   42.9438 H   0  0  0  0  0  0  0  0  0  0  0  0
   58.9756   35.5287   45.7623 H   0  0  0  0  0  0  0  0  0  0  0  0
   59.7940   34.8879   44.2973 H   0  0  0  0  0  0  0  0  0  0  0  0
   58.0145   35.1326   44.2973 H   0  0  0  0  0  0  0  0  0  0  0  0
   59.5922   35.3466   46.9428 H   0  0  0  0  0  0  0  0  0  0  0  0
   60.2136   35.1365   49.3358 H   0  0  0  0  0  0  0  0  0  0  0  0
   59.9688   32.8998   50.4164 H   0  0  0  0  0  0  0  0  0  0  0  0
   57.8080   30.5660   49.5470 H   0  0  0  0  0  0  0  0  0  0  0  0
   60.0410   30.7862   51.1398 H   0  0  0  0  0  0  0  0  0  0  0  0
   59.1840   29.2655   50.7834 H   0  0  0  0  0  0  0  0  0  0  0  0
   61.1572   28.6373   49.7979 H   0  0  0  0  0  0  0  0  0  0  0  0
   60.6350   29.6650   48.4406 H   0  0  0  0  0  0  0  0  0  0  0  0
   62.3847   30.0525   51.8597 H   0  0  0  0  0  0  0  0  0  0  0  0
   64.0623   31.8078   52.9188 H   0  0  0  0  0  0  0  0  0  0  0  0
   65.4486   31.4416   51.8367 H   0  0  0  0  0  0  0  0  0  0  0  0
   64.7182   33.0827   51.8367 H   0  0  0  0  0  0  0  0  0  0  0  0
   65.1282   33.6134   49.5592 H   0  0  0  0  0  0  0  0  0  0  0  0
   64.6862   34.2361   47.1760 H   0  0  0  0  0  0  0  0  0  0  0  0
   62.8505   33.0475   45.9597 H   0  0  0  0  0  0  0  0  0  0  0  0
   61.5036   31.3055   47.0666 H   0  0  0  0  0  0  0  0  0  0  0  0
  1  2  1  0
  2  3  1  0
  3  4  1  0
  4  5  1  0
  3  6  1  0
  6  7  1  0
  7  8  1  0
  8  9  1  0
  9 10  2  0
 10 11  1  0
 11 12  2  0
 12 13  1  0
 13 14  2  0
 14 15  1  0
 15 16  2  0
 16 17  1  0
 16 18  1  0
 18 19  2  0
 19 20  1  0
 20 21  2  0
 21 22  1  0
 22 23  1  0
 23 24  1  0
 24 25  1  0
 25 26  1  0
 26 27  2  0
 27 28  1  0
 28 29  1  0
 28 30  1  0
 30 31  2  0
 31 32  1  0
 32 33  2  0
 33 34  1  0
 34 35  2  0
 22 36  2  0
 36  9  1  0
 15 10  1  0
 36 18  1  0
 35 26  1  0
 35 30  1  0
  1 37  1  0
  1 38  1  0
  1 39  1  0
  2 40  1  0
  2 41  1  0
  4 42  1  0
  4 43  1  0
  5 44  1  0
  5 45  1  0
  5 46  1  0
  6 47  1  0
  6 48  1  0
  7 49  1  0
  7 50  1  0
  8 51  1  0
 11 52  1  0
 12 53  1  0
 13 54  1  0
 14 55  1  0
 17 56  1  0
 17 57  1  0
 17 58  1  0
 19 59  1  0
 20 60  1  0
 21 61  1  0
 23 62  1  0
 24 63  1  0
 24 64  1  0
 25 65  1  0
 25 66  1  0
 27 67  1  0
 29 68  1  0
 29 69  1  0
 29 70  1  0
 31 71  1  0
 32 72  1  0
 33 73  1  0
 34 74  1  0
M  CHG  2  16   1  26   1
M  END
>  <smiles>  (17) 
CCN(CC)CCNc1c2ccccc2[n+](C)c2cccc(NCC[n+]3cn(C)c4ccccc43)c12

>  <score_type>  (17) 
oracle

>  <origin>  (17) 
adg

>  <m_score__min__energy>  (17) 
-6.1100000000000003

>  <m_primary>  (17) 
energy

$$$$
19:0
     RDKit          3D

 46 48  0  0  0  0  0  0  0  0999 V2000
   58.0640   33.0260   43.7320 C   0  0  0  0  0  0  0  0  0  0  0  0
   58.6400   34.1770   44.5240 C   0  0  0  0  0  0  0  0  0  0  0  0
   57.9890   34.3270   45.8090 N   0  0  0  0  0  0  0  0  0  0  0  0
   57.0290   33.2840   45.9760 C   0  0  0  0  0  0  0  0  0  0  0  0
   58.9350   34.4240   46.8920 C   0  0  0  0  0  0  0  0  0  0  0  0
   60.3540   34.5610   46.5050 C   0  0  0  0  0  0  0  0  0  0  0  0
   61.1610   33.3910   46.3860 N   0  0  0  0  0  0  0  0  0  0  0  0
   61.1630   32.2810   47.2540 C   0  0  0  0  0  0  0  0  0  0  0  0
   62.0480   32.3510   48.3400 C   0  0  0  0  0  0  0  0  0  0  0  0
   62.8440   33.4740   48.4800 C   0  0  0  0  0  0  0  0  0  0  0  0
   63.7470   33.6140   49.5200 C   0  0  0  0  0  0  0  0  0  0  0  0
   63.8340   32.5980   50.4200 C   0  0  0  0  0  0  0  0  0  0  0  0
   63.0470   31.4730   50.2930 C   0  0  0  0  0  0  0  0  0  0  0  0
   62.1300   31.3070   49.2580 C   0  0  0  0  0  0  0  0  0  0  0  0
   61.3750   30.1950   49.1460 N   0  0  0  0  0  0  0  0  0  0  0  0
   61.5230   29.1790   50.1500 C   0  0  0  0  0  0  0  0  0  0  0  0
   60.5310   30.1290   48.1070 C   0  0  0  0  0  0  0  0  0  0  0  0
   59.7440   29.0070   47.9370 C   0  0  0  0  0  0  0  0  0  0  0  0
   58.8570   28.8830   46.8630 C   0  0  0  0  0  0  0  0  0  0  0  0
   57.7840   27.3390   46.6360 Br  0  0  0  0  0  0  0  0  0  0  0  0
   58.7550   29.8940   45.9420 C   0  0  0  0  0  0  0  0  0  0  0  0
   57.5550   29.7390   44.4800 Br  0  0  0  0  0  0  0  0  0  0  0  0
   59.5480   31.0010   46.1310 C   0  0  0  0  0  0  0  0  0  0  0  0
   60.4140   31.1490   47.1630 C   0  0  0  0  0  0  0  0  0  0  0  0
   57.6810   32.2607   44.4231 H   0  0  0  0  0  0  0  0  0  0  0  0
   57.2427   33.3917   43.0982 H   0  0  0  0  0  0  0  0  0  0  0  0
   58.8490   32.5878   43.0982 H   0  0  0  0  0  0  0  0  0  0  0  0
   59.7124   33.9948   44.6876 H   0  0  0  0  0  0  0  0  0  0  0  0
   58.4782   35.1011   43.9497 H   0  0  0  0  0  0  0  0  0  0  0  0
   56.8646   33.1054   47.0489 H   0  0  0  0  0  0  0  0  0  0  0  0
   56.0805   33.5797   45.5039 H   0  0  0  0  0  0  0  0  0  0  0  0
   57.4021   32.3632   45.5039 H   0  0  0  0  0  0  0  0  0  0  0  0
   58.6651   35.3026   47.4963 H   0  0  0  0  0  0  0  0  0  0  0  0
   58.8667   33.4673   47.4306 H   0  0  0  0  0  0  0  0  0  0  0  0
   60.3728   35.0646   45.5273 H   0  0  0  0  0  0  0  0  0  0  0  0
   60.8035   35.1027   47.3503 H   0  0  0  0  0  0  0  0  0  0  0  0
   61.8270   33.3540   45.5570 H   0  0  0  0  0  0  0  0  0  0  0  0
   62.7564   34.2830   47.7399 H   0  0  0  0  0  0  0  0  0  0  0  0
   64.3716   34.5145   49.6150 H   0  0  0  0  0  0  0  0  0  0  0  0
   64.5408   32.6747   51.2594 H   0  0  0  0  0  0  0  0  0  0  0  0
   63.1477   30.6727   51.0409 H   0  0  0  0  0  0  0  0  0  0  0  0
   61.4563   29.6371   51.1478 H   0  0  0  0  0  0  0  0  0  0  0  0
   60.7243   28.4314   50.0356 H   0  0  0  0  0  0  0  0  0  0  0  0
   62.5018   28.6903   50.0356 H   0  0  0  0  0  0  0  0  0  0  0  0
   59.8169   28.1875   48.6672 H   0  0  0  0  0  0  0  0  0  0  0  0
   59.4750   31.8183   45.3984 H   0  0  0  0  0  0  0  0  0  0  0  0
  1  2  1  0
  2  3  1  0
  3  4  1  0
  3  5  1  0
  5  6  1  0
  6  7  1  0
  7  8  1  0
  8  9  2  0
  9 10  1  0
 10 11  2  0
 11 12  1  0
 12 13  2  0
 13 14  1  0
 14 15  2  0
 15 16  1  0
 15 17  1  0
 17 18  2  0
 18 19  1  0
 19 20  1  0
 19 21  2  0
 21 22  1  0
 21 23  1  0
 23 24  2  0
 24  8  1  0
 14  9  1  0
 24 17  1  0
  1 25  1  0
  1 26  1  0
  1 27  1  0
  2 28  1  0
  2 29  1  0
  4 30  1  0
  4 31  1  0
  4 32  1  0
  5 33  1  0
  5 34  1  0
  6 35  1  0
  6 36  1  0
  7 37  1  0
 10 38  1  0
 11 39  1  0
 12 40  1  0
 13 41  1  0
 16 42  1  0
 16 43  1  0
 16 44  1  0
 18 45  1  0
 23 46  1  0
M  CHG  1  15   1
M  END
>  <smiles>  (18) 
CCN(C)CCNc1c2ccccc2[n+](C)c2cc(Br)c(Br)cc12

>  <score_type>  (18) 
oracle

>  <origin>  (18) 
adg

>  <m_score__min__energy>  (18) 
-6.4699999999999998

>  <m_primary>  (18) 
energy

$$$$
20:0
     RDKit          3D

 60 62  0  0  0  0  0  0  0  0999 V2000
   59.2250   29.6530   49.7030 C   0  0  0  0  0  0  0  0  0  0  0  0
   58.7680   31.0880   49.9040 C   0  0  0  0  0  0  0  0  0  0  0  0
   59.8140   31.8700   50.4850 N   0  0  0  0  0  0  0  0  0  0  0  0
   59.4070   33.2340   50.7650 C   0  0  0  0  0  0  0  0  0  0  0  0
   59.9620   34.2050   49.7570 C   0  0  0  0  0  0  0  0  0  0  0  0
   60.9980   33.7050   49.0120 O   0  0  0  0  0  0  0  0  0  0  0  0
   62.2460   34.2130   49.3560 C   0  0  0  0  0  0  0  0  0  0  0  0
   63.1890   33.1020   49.7700 C   0  0  0  0  0  0  0  0  0  0  0  0
   63.8120   32.4730   48.7030 O   0  0  0  0  0  0  0  0  0  0  0  0
   63.1610   32.5840   47.5040 C   0  0  0  0  0  0  0  0  0  0  0  0
   62.3790   31.3290   47.1500 C   0  0  0  0  0  0  0  0  0  0  0  0
   60.9940   31.4340   47.5180 N   0  0  0  0  0  0  0  0  0  0  0  0
   60.0160   31.2630   46.5000 C   0  0  0  0  0  0  0  0  0  0  0  0
   59.3400   32.3230   45.9350 C   0  0  0  0  0  0  0  0  0  0  0  0
   59.6600   33.5820   46.4190 C   0  0  0  0  0  0  0  0  0  0  0  0
   59.0210   34.6940   45.9100 C   0  0  0  0  0  0  0  0  0  0  0  0
   58.0810   34.4960   44.9290 C   0  0  0  0  0  0  0  0  0  0  0  0
   57.7680   33.2340   44.4500 C   0  0  0  0  0  0  0  0  0  0  0  0
   58.3980   32.1140   44.9490 C   0  0  0  0  0  0  0  0  0  0  0  0
   58.0850   30.8790   44.4820 N   0  0  0  0  0  0  0  0  0  0  0  0
   57.1200   30.6630   43.4400 C   0  0  0  0  0  0  0  0  0  0  0  0
   55.8100   30.0900   43.9320 C   0  0  0  0  0  0  0  0  0  0  0  0
   58.7510   29.8310   45.0410 C   0  0  0  0  0  0  0  0  0  0  0  0
   58.5120   28.5230   44.6540 C   0  0  0  0  0  0  0  0  0  0  0  0
   59.1820   27.4520   45.2200 C   0  0  0  0  0  0  0  0  0  0  0  0
   60.1200   27.6570   46.2000 C   0  0  0  0  0  0  0  0  0  0  0  0
   60.3810   28.9460   46.6080 C   0  0  0  0  0  0  0  0  0  0  0  0
   59.7000   30.0060   46.0300 C   0  0  0  0  0  0  0  0  0  0  0  0
   59.3769   29.1760   50.6825 H   0  0  0  0  0  0  0  0  0  0  0  0
   58.4587   29.0995   49.1405 H   0  0  0  0  0  0  0  0  0  0  0  0
   60.1703   29.6446   49.1405 H   0  0  0  0  0  0  0  0  0  0  0  0
   58.4914   31.5195   48.9307 H   0  0  0  0  0  0  0  0  0  0  0  0
   57.9014   31.0937   50.5815 H   0  0  0  0  0  0  0  0  0  0  0  0
   60.7060   31.8060   49.9880 H   0  0  0  0  0  0  0  0  0  0  0  0
   58.3086   33.2886   50.7436 H   0  0  0  0  0  0  0  0  0  0  0  0
   59.7992   33.5098   51.7550 H   0  0  0  0  0  0  0  0  0  0  0  0
   59.1511   34.4934   49.0719 H   0  0  0  0  0  0  0  0  0  0  0  0
   60.3614   35.0586   50.3244 H   0  0  0  0  0  0  0  0  0  0  0  0
   62.6707   34.7411   48.4896 H   0  0  0  0  0  0  0  0  0  0  0  0
   62.1222   34.9020   50.2045 H   0  0  0  0  0  0  0  0  0  0  0  0
   63.9648   33.5299   50.4219 H   0  0  0  0  0  0  0  0  0  0  0  0
   62.5830   32.3405   50.2827 H   0  0  0  0  0  0  0  0  0  0  0  0
   62.4623   33.4318   47.5587 H   0  0  0  0  0  0  0  0  0  0  0  0
   63.9205   32.7370   46.7232 H   0  0  0  0  0  0  0  0  0  0  0  0
   62.4462   31.1635   46.0646 H   0  0  0  0  0  0  0  0  0  0  0  0
   62.8156   30.4885   47.7094 H   0  0  0  0  0  0  0  0  0  0  0  0
   60.6740   31.6320   48.5100 H   0  0  0  0  0  0  0  0  0  0  0  0
   60.4205   33.6941   47.2059 H   0  0  0  0  0  0  0  0  0  0  0  0
   59.2564   35.7038   46.2773 H   0  0  0  0  0  0  0  0  0  0  0  0
   57.5589   35.3685   44.5092 H   0  0  0  0  0  0  0  0  0  0  0  0
   57.0079   33.1246   43.6624 H   0  0  0  0  0  0  0  0  0  0  0  0
   56.9153   31.6270   42.9513 H   0  0  0  0  0  0  0  0  0  0  0  0
   57.5536   29.9250   42.7491 H   0  0  0  0  0  0  0  0  0  0  0  0
   55.8015   30.0863   45.0320 H   0  0  0  0  0  0  0  0  0  0  0  0
   54.9778   30.7063   43.5610 H   0  0  0  0  0  0  0  0  0  0  0  0
   55.6977   29.0606   43.5610 H   0  0  0  0  0  0  0  0  0  0  0  0
   57.7647   28.3286   43.8706 H   0  0  0  0  0  0  0  0  0  0  0  0
   58.9607   26.4290   44.8815 H   0  0  0  0  0  0  0  0  0  0  0  0
   60.6536   26.8076   46.6514 H   0  0  0  0  0  0  0  0  0  0  0  0
   61.1293   29.1344   47.3920 H   0  0  0  0  0  0  0  0  0  0  0  0
  1  2  1  0
  2  3  1  0
  3  4  1  0
  4  5  1  0
  5  6  1  0
  6  7  1  0
  7  8  1  0
  8  9  1  0
  9 10  1  0
 10 11  1  0
 11 12  1  0
 12 13  1  0
 13 14  2  0
 14 15  1  0
 15 16  2  0
 16 17  1  0
 17 18  2  0
 18 19  1  0
 19 20  2  0
 20 21  1  0
 21 22  1  0
 20 23  1  0
 23 24  2  0
 24 25  1  0
 25 26  2  0
 26 27  1  0
 27 28  2  0
 28 13  1  0
 19 14  1  0
 28 23  1  0
  1 29  1  0
  1 30  1  0
  1 31  1  0
  2 32  1  0
  2 33  1  0
  3 34  1  0
  4 35  1  0
  4 36  1  0
  5 37  1  0
  5 38  1  0
  7 39  1  0
  7 40  1  0
  8 41  1  0
  8 42  1  0
 10 43  1  0
 10 44  1  0
 11 45  1  0
 11 46  1  0
 12 47  1  0
 15 48  1  0
 16 49  1  0
 17 50  1  0
 18 51  1  0
 21 52  1  0
 21 53  1  0
 22 54  1  0
 22 55  1  0
 22 56  1  0
 24 57  1  0
 25 58  1  0
 26 59  1  0
 27 60  1  0
M  CHG  1  20   1
M  END
>  <smiles>  (19) 
CCNCCOCCOCCNc1c2ccccc2[n+](CC)c2ccccc12

>  <score_type>  (19) 
oracle

>  <origin>  (19) 
adg

>  <m_score__min__energy>  (19) 
-4.96

>  <m_primary>  (19) 
energy

$$$$
