0:0
     RDKit          3D

 38 39  0  0  0  0  0  0  0  0999 V2000
   57.0200   24.9680   44.9760 C   0  0  0  0  0  0  0  0  0  0  0  0
   55.7020   25.1470   45.7040 C   0  0  0  0  0  0  0  0  0  0  0  0
   55.4890   26.4870   45.9680 O   0  0  0  0  0  0  0  0  0  0  0  0
   56.7020   27.1560   45.8890 C   0  0  0  0  0  0  0  0  0  0  0  0
   56.5740   28.4880   45.2660 C   0  0  0  0  0  0  0  0  0  0  0  0
   55.5140   28.9600   44.8110 O   0  0  0  0  0  0  0  0  0  0  0  0
   57.7460   29.2890   45.1790 N   0  0  0  0  0  0  0  0  0  0  0  0
   57.7060   30.6190   44.5770 C   0  0  0  0  0  0  0  0  0  0  0  0
   57.9950   31.5930   45.7270 C   0  0  0  0  0  0  0  0  0  0  0  0
   59.2960   31.2450   46.2460 N   0  0  0  0  0  0  0  0  0  0  0  0
   60.0150   32.2370   46.9890 C   0  0  0  0  0  0  0  0  0  0  0  0
   59.3710   33.2800   47.6380 C   0  0  0  0  0  0  0  0  0  0  0  0
   60.0500   34.2450   48.3540 C   0  0  0  0  0  0  0  0  0  0  0  0
   61.4240   34.1940   48.4440 C   0  0  0  0  0  0  0  0  0  0  0  0
   62.1010   33.1730   47.8130 C   0  0  0  0  0  0  0  0  0  0  0  0
   63.8590   33.1280   47.9410 Cl  0  0  0  0  0  0  0  0  0  0  0  0
   61.3950   32.2190   47.1020 C   0  0  0  0  0  0  0  0  0  0  0  0
   59.9290   29.9640   46.0760 C   0  0  0  0  0  0  0  0  0  0  0  0
   59.0350   28.8480   45.6720 C   0  0  0  0  0  0  0  0  0  0  0  0
   57.8321   24.8577   45.7097 H   0  0  0  0  0  0  0  0  0  0  0  0
   56.9712   24.0682   44.3451 H   0  0  0  0  0  0  0  0  0  0  0  0
   57.2129   25.8482   44.3451 H   0  0  0  0  0  0  0  0  0  0  0  0
   54.8837   24.7643   45.0764 H   0  0  0  0  0  0  0  0  0  0  0  0
   55.7338   24.5914   46.6528 H   0  0  0  0  0  0  0  0  0  0  0  0
   57.1036   27.2793   46.9056 H   0  0  0  0  0  0  0  0  0  0  0  0
   57.3741   26.5555   45.2584 H   0  0  0  0  0  0  0  0  0  0  0  0
   58.4722   30.7103   43.7931 H   0  0  0  0  0  0  0  0  0  0  0  0
   56.7364   30.8241   44.0998 H   0  0  0  0  0  0  0  0  0  0  0  0
   57.9993   32.6283   45.3553 H   0  0  0  0  0  0  0  0  0  0  0  0
   57.2246   31.5228   46.5090 H   0  0  0  0  0  0  0  0  0  0  0  0
   58.2742   33.3406   47.5797 H   0  0  0  0  0  0  0  0  0  0  0  0
   59.4950   35.0537   48.8521 H   0  0  0  0  0  0  0  0  0  0  0  0
   61.9736   34.9587   49.0124 H   0  0  0  0  0  0  0  0  0  0  0  0
   61.9536   31.4119   46.6054 H   0  0  0  0  0  0  0  0  0  0  0  0
   60.7049   30.0711   45.3036 H   0  0  0  0  0  0  0  0  0  0  0  0
   60.3185   29.6900   47.0676 H   0  0  0  0  0  0  0  0  0  0  0  0
   59.5333   28.2729   44.8777 H   0  0  0  0  0  0  0  0  0  0  0  0
   58.8474   28.2423   46.5709 H   0  0  0  0  0  0  0  0  0  0  0  0
  1  2  1  0
  2  3  1  0
  3  4  1  0
  4  5  1  0
  5  6  2  0
  5  7  1  0
  7  8  1  0
  8  9  1  0
  9 10  1  0
 10 11  1  0
 11 12  2  0
 12 13  1  0
 13 14  2  0
 14 15  1  0
 15 16  1  0
 15 17  2  0
 10 18  1  0
 18 19  1  0
 19  7  1  0
 17 11  1  0
  1 20  1  0
  1 21  1  0
  1 22  1  0
  2 23  1  0
  2 24  1  0
  4 25  1  0
  4 26  1  0
  8 27  1  0
  8 28  1  0
  9 29  1  0
  9 30  1  0
 12 31  1  0
 13 32  1  0
 14 33  1  0
 17 34  1  0
 18 35  1  0
 18 36  1  0
 19 37  1  0
 19 38  1  0
M  END
>  <smiles>  (1) 
CCOCC(=O)N1CCN(c2cccc(Cl)c2)CC1

>  <score_type>  (1) 
oracle

>  <origin>  (1) 
adg

>  <m_score__min__energy>  (1) 
-6.7300000000000004

>  <m_primary>  (1) 
energy

$$$$
1:0
     RDKit          3D

 50 52  0  0  0  0  0  0  0  0999 V2000
   63.7690   33.0920   47.1670 C   0  0  0  0  0  0  0  0  0  0  0  0
   63.7550   32.1620   48.3330 C   0  0  0  0  0  0  0  0  0  0  0  0
   62.5380   32.2990   49.0960 N   0  0  0  0  0  0  0  0  0  0  0  0
   62.0600   30.9950   49.5610 C   0  0  0  0  0  0  0  0  0  0  0  0
   61.0570   30.5410   48.5510 C   0  0  0  0  0  0  0  0  0  0  0  0
   60.9540   31.2800   47.3200 N   0  0  0  0  0  0  0  0  0  0  0  0
   59.9090   31.1310   46.3710 C   0  0  0  0  0  0  0  0  0  0  0  0
   59.6050   29.8720   45.8740 C   0  0  0  0  0  0  0  0  0  0  0  0
   60.3280   28.7660   46.2650 C   0  0  0  0  0  0  0  0  0  0  0  0
   60.0670   27.4860   45.7900 C   0  0  0  0  0  0  0  0  0  0  0  0
   59.0460   27.3140   44.8880 C   0  0  0  0  0  0  0  0  0  0  0  0
   58.3180   28.4230   44.4920 C   0  0  0  0  0  0  0  0  0  0  0  0
   58.5770   29.6990   44.9670 C   0  0  0  0  0  0  0  0  0  0  0  0
   57.8210   30.7310   44.5180 N   0  0  0  0  0  0  0  0  0  0  0  0
   56.7810   30.4270   43.5910 C   0  0  0  0  0  0  0  0  0  0  0  0
   58.1070   31.9640   44.9880 C   0  0  0  0  0  0  0  0  0  0  0  0
   57.3790   33.0440   44.5190 C   0  0  0  0  0  0  0  0  0  0  0  0
   57.6510   34.3510   44.9360 C   0  0  0  0  0  0  0  0  0  0  0  0
   58.6710   34.5490   45.8330 C   0  0  0  0  0  0  0  0  0  0  0  0
   59.4110   33.4790   46.3150 C   0  0  0  0  0  0  0  0  0  0  0  0
   60.4130   33.7440   47.1930 O   0  0  0  0  0  0  0  0  0  0  0  0
   60.4170   34.5490   48.3200 C   0  0  0  0  0  0  0  0  0  0  0  0
   59.6930   34.0300   49.5140 C   0  0  0  0  0  0  0  0  0  0  0  0
   59.1370   32.1700   45.9020 C   0  0  0  0  0  0  0  0  0  0  0  0
   63.7846   34.1313   47.5271 H   0  0  0  0  0  0  0  0  0  0  0  0
   64.6644   32.9018   46.5570 H   0  0  0  0  0  0  0  0  0  0  0  0
   62.8683   32.9288   46.5570 H   0  0  0  0  0  0  0  0  0  0  0  0
   63.8347   31.1275   47.9677 H   0  0  0  0  0  0  0  0  0  0  0  0
   64.6049   32.4097   48.9860 H   0  0  0  0  0  0  0  0  0  0  0  0
   61.8020   32.8470   48.6000 H   0  0  0  0  0  0  0  0  0  0  0  0
   62.8943   30.2805   49.6193 H   0  0  0  0  0  0  0  0  0  0  0  0
   61.6181   31.0624   50.5661 H   0  0  0  0  0  0  0  0  0  0  0  0
   61.3046   29.5018   48.2887 H   0  0  0  0  0  0  0  0  0  0  0  0
   60.0848   30.6912   49.0432 H   0  0  0  0  0  0  0  0  0  0  0  0
   61.6960   32.0000   47.0700 H   0  0  0  0  0  0  0  0  0  0  0  0
   61.1483   28.9021   46.9851 H   0  0  0  0  0  0  0  0  0  0  0  0
   60.6661   26.6283   46.1297 H   0  0  0  0  0  0  0  0  0  0  0  0
   58.8115   26.3163   44.4886 H   0  0  0  0  0  0  0  0  0  0  0  0
   57.4996   28.2856   43.7700 H   0  0  0  0  0  0  0  0  0  0  0  0
   55.8665   30.1597   44.1407 H   0  0  0  0  0  0  0  0  0  0  0  0
   56.5851   31.3055   42.9586 H   0  0  0  0  0  0  0  0  0  0  0  0
   57.0891   29.5813   42.9586 H   0  0  0  0  0  0  0  0  0  0  0  0
   56.5653   32.8697   43.7996 H   0  0  0  0  0  0  0  0  0  0  0  0
   57.0626   35.1986   44.5549 H   0  0  0  0  0  0  0  0  0  0  0  0
   58.9045   35.5685   46.1738 H   0  0  0  0  0  0  0  0  0  0  0  0
   61.4655   34.7114   48.6102 H   0  0  0  0  0  0  0  0  0  0  0  0
   59.8758   35.4606   48.0267 H   0  0  0  0  0  0  0  0  0  0  0  0
   60.1904   34.3866   50.4280 H   0  0  0  0  0  0  0  0  0  0  0  0
   58.6537   34.3901   49.4978 H   0  0  0  0  0  0  0  0  0  0  0  0
   59.7003   32.9301   49.4978 H   0  0  0  0  0  0  0  0  0  0  0  0
  1  2  1  0
  2  3  1  0
  3  4  1  0
  4  5  1  0
  5  6  1  0
  6  7  1  0
  7  8  2  0
  8  9  1  0
  9 10  2  0
 10 11  1  0
 11 12  2  0
 12 13  1  0
 13 14  2  0
 14 15  1  0
 14 16  1  0
 16 17  2  0
 17 18  1  0
 18 19  2  0
 19 20  1  0
 20 21  1  0
 21 22  1  0
 22 23  1  0
 20 24  2  0
 24  7  1  0
 13  8  1  0
 24 16  1  0
  1 25  1  0
  1 26  1  0
  1 27  1  0
  2 28  1  0
  2 29  1  0
  3 30  1  0
  4 31  1  0
  4 32  1  0
  5 33  1  0
  5 34  1  0
  6 35  1  0
  9 36  1  0
 10 37  1  0
 11 38  1  0
 12 39  1  0
 15 40  1  0
 15 41  1  0
 15 42  1  0
 17 43  1  0
 18 44  1  0
 19 45  1  0
 22 46  1  0
 22 47  1  0
 23 48  1  0
 23 49  1  0
 23 50  1  0
M  CHG  1  14   1
M  END
>  <smiles>  (2) 
CCNCCNc1c2ccccc2[n+](C)c2cccc(OCC)c12

>  <score_type>  (2) 
oracle

>  <origin>  (2) 
adg

>  <m_score__min__energy>  (2) 
-5.3899999999999997

>  <m_primary>  (2) 
energy

$$$$
2:0
     RDKit          3D

 54 57  0  0  1  0  0  0  0  0999 V2000
   60.0180   36.0790   45.9690 C   0  0  0  0  0  0  0  0  0  0  0  0
   59.3230   34.8200   45.8570 N   0  0  0  0  0  0  0  0  0  0  0  0
   58.8530   34.3800   44.6810 C   0  0  0  0  0  0  0  0  0  0  0  0
   58.1980   33.1920   44.5840 C   0  0  0  0  0  0  0  0  0  0  0  0
   57.9940   32.4020   45.6860 C   0  0  0  0  0  0  0  0  0  0  0  0
   57.4080   31.3350   45.6030 N   0  0  0  0  0  0  0  0  0  0  0  0
   56.9670   30.4920   44.6080 C   0  0  0  0  0  0  0  0  0  0  0  0
   57.6840   29.3210   44.0660 C   0  0  0  0  0  0  0  0  0  0  0  0
   57.5560   28.0850   44.7420 N   0  0  0  0  0  0  0  0  0  0  0  0
   57.7500   28.1610   46.1410 C   0  0  0  0  0  0  0  0  0  0  0  0
   59.1670   28.2970   46.6230 C   0  0  0  0  0  0  0  0  0  0  0  0
   59.6000   29.6720   46.3000 N   0  0  0  0  0  0  0  0  0  0  0  0
   60.5320   30.2940   47.1710 C   0  0  0  0  0  0  0  0  0  0  0  0
   60.7490   29.7800   48.4260 C   0  0  0  0  0  0  0  0  0  0  0  0
   61.6700   30.4180   49.2620 C   0  0  0  0  0  0  0  0  0  0  0  0
   61.9020   29.9810   50.4240 O   0  0  0  0  0  0  0  0  0  0  0  0
   62.3290   31.5300   48.8110 C   0  0  0  0  0  0  0  0  0  0  0  0
   63.2460   32.1970   49.5950 C   0  0  0  0  0  0  0  0  0  0  0  0
   63.8910   33.3220   49.0990 C   0  0  0  0  0  0  0  0  0  0  0  0
   63.6260   33.7870   47.8230 C   0  0  0  0  0  0  0  0  0  0  0  0
   62.7100   33.1260   47.0340 C   0  0  0  0  0  0  0  0  0  0  0  0
   62.0840   32.0120   47.5490 C   0  0  0  0  0  0  0  0  0  0  0  0
   61.1930   31.3960   46.7400 N   0  0  0  0  0  0  0  0  0  0  0  0
   58.4920   32.8820   46.8980 C   0  0  0  0  0  0  0  0  0  0  0  0
   58.3290   32.1460   48.0540 C   0  0  0  0  0  0  0  0  0  0  0  0
   58.7970   32.5620   49.2860 C   0  0  0  0  0  0  0  0  0  0  0  0
   59.4660   33.7870   49.3470 C   0  0  0  0  0  0  0  0  0  0  0  0
   59.6390   34.5380   48.2000 C   0  0  0  0  0  0  0  0  0  0  0  0
   59.1570   34.0900   46.9880 C   0  0  0  0  0  0  0  0  0  0  0  0
   60.1557   36.3285   47.0314 H   0  0  0  0  0  0  0  0  0  0  0  0
   61.0004   36.0002   45.4805 H   0  0  0  0  0  0  0  0  0  0  0  0
   59.4278   36.8683   45.4805 H   0  0  0  0  0  0  0  0  0  0  0  0
   58.9998   34.9910   43.7781 H   0  0  0  0  0  0  0  0  0  0  0  0
   57.8253   32.8590   43.6041 H   0  0  0  0  0  0  0  0  0  0  0  0
   56.0082   30.0957   44.9736 H   0  0  0  0  0  0  0  0  0  0  0  0
   57.0492   31.1702   43.7459 H   0  0  0  0  0  0  0  0  0  0  0  0
   57.3269   29.1680   43.0369 H   0  0  0  0  0  0  0  0  0  0  0  0
   58.7476   29.5803   44.1729 H   0  0  0  0  0  0  0  0  0  0  0  0
   56.6550   27.6420   44.5010 H   0  0  0  0  0  0  0  0  0  0  0  0
   57.1888   29.0331   46.5077 H   0  0  0  0  0  0  0  0  0  0  0  0
   57.4050   27.1925   46.5321 H   0  0  0  0  0  0  0  0  0  0  0  0
   59.2146   28.1308   47.7093 H   0  0  0  0  0  0  0  0  0  0  0  0
   59.8200   27.5549   46.1404 H   0  0  0  0  0  0  0  0  0  0  0  0
   59.2360   30.1750   45.4600 H   0  0  0  0  0  0  0  0  0  0  0  0
   60.2089   28.8843   48.7665 H   0  0  0  0  0  0  0  0  0  0  0  0
   63.4662   31.8387   50.6114 H   0  0  0  0  0  0  0  0  0  0  0  0
   64.6221   33.8504   49.7285 H   0  0  0  0  0  0  0  0  0  0  0  0
   64.1436   34.6792   47.4407 H   0  0  0  0  0  0  0  0  0  0  0  0
   62.4839   33.4793   46.0171 H   0  0  0  0  0  0  0  0  0  0  0  0
   60.9900   31.7510   45.7650 H   0  0  0  0  0  0  0  0  0  0  0  0
   57.8016   31.1827   47.9918 H   0  0  0  0  0  0  0  0  0  0  0  0
   58.6479   31.9497   50.1876 H   0  0  0  0  0  0  0  0  0  0  0  0
   59.8551   34.1538   50.3083 H   0  0  0  0  0  0  0  0  0  0  0  0
   60.1660   35.5020   48.2542 H   0  0  0  0  0  0  0  0  0  0  0  0
  1  2  1  0
  2  3  1  0
  3  4  2  0
  4  5  1  0
  5  6  2  0
  6  7  1  0
  7  8  1  0
  8  9  1  0
  9 10  1  0
 10 11  1  0
 11 12  1  0
 12 13  1  0
 13 14  2  0
 14 15  1  0
 15 16  2  0
 15 17  1  0
 17 18  2  0
 18 19  1  0
 19 20  2  0
 20 21  1  0
 21 22  2  0
 22 23  1  0
  5 24  1  0
 24 25  2  0
 25 26  1  0
 26 27  2  0
 27 28  1  0
 28 29  2  0
 29  2  1  0
 23 13  1  0
 29 24  1  0
 22 17  1  0
  1 30  1  0
  1 31  1  0
  1 32  1  0
  3 33  1  0
  4 34  1  0
  7 35  1  0
  7 36  1  0
  8 37  1  0
  8 38  1  0
  9 39  1  0
 10 40  1  0
 10 41  1  0
 11 42  1  0
 11 43  1  0
 12 44  1  0
 14 45  1  0
 18 46  1  0
 19 47  1  0
 20 48  1  0
 21 49  1  0
 23 50  1  0
 25 51  1  0
 26 52  1  0
 27 53  1  0
 28 54  1  0
M  END
>  <smiles>  (3) 
Cn1ccc(=NCCNCCNc2cc(=O)c3ccccc3[nH]2)c2ccccc21

>  <score_type>  (3) 
oracle

>  <origin>  (3) 
adg

>  <m_score__min__energy>  (3) 
-8.8599999999999994

>  <m_primary>  (3) 
energy

$$$$
3:0
     RDKit          3D

 48 49  0  0  0  0  0  0  0  0999 V2000
   57.8520   32.7030   43.5840 C   0  0  0  0  0  0  0  0  0  0  0  0
   57.9980   31.2370   43.9030 C   0  0  0  0  0  0  0  0  0  0  0  0
   57.0230   30.7810   44.8800 N   0  0  0  0  0  0  0  0  0  0  0  0
   55.9150   30.2140   44.1750 C   0  0  0  0  0  0  0  0  0  0  0  0
   57.7130   29.8630   45.7580 C   0  0  0  0  0  0  0  0  0  0  0  0
   59.1100   29.5510   45.2950 C   0  0  0  0  0  0  0  0  0  0  0  0
   60.3930   30.2640   46.3240 S   0  0  0  0  0  0  0  0  0  0  0  0
   59.5890   30.8290   47.8370 C   0  0  0  0  0  0  0  0  0  0  0  0
   59.7990   30.0400   48.9580 C   0  0  0  0  0  0  0  0  0  0  0  0
   59.2320   30.3840   50.1520 C   0  0  0  0  0  0  0  0  0  0  0  0
   58.4580   31.5250   50.2030 C   0  0  0  0  0  0  0  0  0  0  0  0
   57.8570   31.8700   51.5200 C   0  0  0  0  0  0  0  0  0  0  0  0
   58.2470   32.3190   49.0750 C   0  0  0  0  0  0  0  0  0  0  0  0
   58.8200   31.9740   47.8640 C   0  0  0  0  0  0  0  0  0  0  0  0
   58.6350   32.7550   46.6780 N   0  0  0  0  0  0  0  0  0  0  0  0
   59.3760   33.9970   46.5920 C   0  0  0  0  0  0  0  0  0  0  0  0
   60.7180   33.9430   47.1740 C   0  0  0  0  0  0  0  0  0  0  0  0
   61.7840   33.5730   46.3680 C   0  0  0  0  0  0  0  0  0  0  0  0
   63.0510   33.5310   46.9470 C   0  0  0  0  0  0  0  0  0  0  0  0
   63.2590   33.8450   48.2770 C   0  0  0  0  0  0  0  0  0  0  0  0
   62.1840   34.2140   49.0690 C   0  0  0  0  0  0  0  0  0  0  0  0
   60.9150   34.2620   48.5170 C   0  0  0  0  0  0  0  0  0  0  0  0
   57.7947   33.2780   44.5200 H   0  0  0  0  0  0  0  0  0  0  0  0
   58.7211   33.0394   42.9996 H   0  0  0  0  0  0  0  0  0  0  0  0
   56.9336   32.8614   42.9996 H   0  0  0  0  0  0  0  0  0  0  0  0
   57.8658   30.6593   42.9763 H   0  0  0  0  0  0  0  0  0  0  0  0
   58.9989   31.0863   44.3337 H   0  0  0  0  0  0  0  0  0  0  0  0
   55.1760   29.8358   44.8967 H   0  0  0  0  0  0  0  0  0  0  0  0
   55.4493   30.9846   43.5431 H   0  0  0  0  0  0  0  0  0  0  0  0
   56.2676   29.3855   43.5431 H   0  0  0  0  0  0  0  0  0  0  0  0
   57.7672   30.3103   46.7615 H   0  0  0  0  0  0  0  0  0  0  0  0
   57.1471   28.9197   45.7612 H   0  0  0  0  0  0  0  0  0  0  0  0
   59.2373   28.4584   45.2902 H   0  0  0  0  0  0  0  0  0  0  0  0
   59.2208   29.9937   44.2941 H   0  0  0  0  0  0  0  0  0  0  0  0
   60.4225   29.1367   48.8855 H   0  0  0  0  0  0  0  0  0  0  0  0
   59.3883   29.7675   51.0495 H   0  0  0  0  0  0  0  0  0  0  0  0
   58.5049   31.4981   52.3274 H   0  0  0  0  0  0  0  0  0  0  0  0
   57.7581   32.9624   51.6030 H   0  0  0  0  0  0  0  0  0  0  0  0
   56.8638   31.4045   51.6030 H   0  0  0  0  0  0  0  0  0  0  0  0
   57.6232   33.2220   49.1490 H   0  0  0  0  0  0  0  0  0  0  0  0
   58.0010   32.4160   45.9510 H   0  0  0  0  0  0  0  0  0  0  0  0
   59.4724   34.2671   45.5300 H   0  0  0  0  0  0  0  0  0  0  0  0
   58.8113   34.7399   47.1744 H   0  0  0  0  0  0  0  0  0  0  0  0
   61.6347   33.3212   45.3077 H   0  0  0  0  0  0  0  0  0  0  0  0
   63.9114   33.2392   46.3269 H   0  0  0  0  0  0  0  0  0  0  0  0
   64.2719   33.8021   48.7039 H   0  0  0  0  0  0  0  0  0  0  0  0
   62.3373   34.4670   50.1285 H   0  0  0  0  0  0  0  0  0  0  0  0
   60.0576   34.5534   49.1414 H   0  0  0  0  0  0  0  0  0  0  0  0
  1  2  1  0
  2  3  1  0
  3  4  1  0
  3  5  1  0
  5  6  1  0
  6  7  1  0
  7  8  1  0
  8  9  2  0
  9 10  1  0
 10 11  2  0
 11 12  1  0
 11 13  1  0
 13 14  2  0
 14 15  1  0
 15 16  1  0
 16 17  1  0
 17 18  2  0
 18 19  1  0
 19 20  2  0
 20 21  1  0
 21 22  2  0
 14  8  1  0
 22 17  1  0
  1 23  1  0
  1 24  1  0
  1 25  1  0
  2 26  1  0
  2 27  1  0
  4 28  1  0
  4 29  1  0
  4 30  1  0
  5 31  1  0
  5 32  1  0
  6 33  1  0
  6 34  1  0
  9 35  1  0
 10 36  1  0
 12 37  1  0
 12 38  1  0
 12 39  1  0
 13 40  1  0
 15 41  1  0
 16 42  1  0
 16 43  1  0
 18 44  1  0
 19 45  1  0
 20 46  1  0
 21 47  1  0
 22 48  1  0
M  END
>  <smiles>  (4) 
CCN(C)CCSc1ccc(C)cc1NCc1ccccc1

>  <score_type>  (4) 
oracle

>  <origin>  (4) 
adg

>  <m_score__min__energy>  (4) 
-6.5599999999999996

>  <m_primary>  (4) 
energy

$$$$
4:0
     RDKit          3D

 68 71  0  0  0  0  0  0  0  0999 V2000
   63.7000   33.0870   47.1650 C   0  0  0  0  0  0  0  0  0  0  0  0
   63.2630   33.7440   48.4840 C   0  0  0  0  0  0  0  0  0  0  0  0
   62.7430   32.7730   49.3910 N   0  0  0  0  0  0  0  0  0  0  0  0
   61.4660   33.0750   49.9580 C   0  0  0  0  0  0  0  0  0  0  0  0
   60.3540   32.2430   49.3600 C   0  0  0  0  0  0  0  0  0  0  0  0
   60.8640   31.7070   48.0870 N   0  0  0  0  0  0  0  0  0  0  0  0
   59.9200   31.6290   47.0430 C   0  0  0  0  0  0  0  0  0  0  0  0
   59.6770   32.8560   46.3990 C   0  0  0  0  0  0  0  0  0  0  0  0
   60.2890   34.0230   46.8750 C   0  0  0  0  0  0  0  0  0  0  0  0
   60.0880   35.2520   46.2920 C   0  0  0  0  0  0  0  0  0  0  0  0
   59.2530   35.3070   45.2070 C   0  0  0  0  0  0  0  0  0  0  0  0
   58.6450   34.1500   44.7330 C   0  0  0  0  0  0  0  0  0  0  0  0
   58.8420   32.9170   45.3130 C   0  0  0  0  0  0  0  0  0  0  0  0
   58.2260   31.8300   44.8170 N   0  0  0  0  0  0  0  0  0  0  0  0
   57.3490   31.8380   43.6780 C   0  0  0  0  0  0  0  0  0  0  0  0
   58.4560   30.6520   45.4340 C   0  0  0  0  0  0  0  0  0  0  0  0
   57.8290   29.5170   44.9100 C   0  0  0  0  0  0  0  0  0  0  0  0
   58.0060   28.2620   45.4570 C   0  0  0  0  0  0  0  0  0  0  0  0
   57.3510   27.1650   44.8480 N   0  0  0  0  0  0  0  0  0  0  0  0
   58.1190   26.1480   44.1060 C   0  0  0  0  0  0  0  0  0  0  0  0
   57.7680   24.7770   44.6080 C   0  0  0  0  0  0  0  0  0  0  0  0
   56.3100   24.4730   44.4720 C   0  0  0  0  0  0  0  0  0  0  0  0
   55.5550   25.0750   45.5720 N   0  0  0  0  0  0  0  0  0  0  0  0
   54.2230   24.5020   45.6260 C   0  0  0  0  0  0  0  0  0  0  0  0
   56.2530   24.7900   46.8140 C   0  0  0  0  0  0  0  0  0  0  0  0
   58.8330   28.1830   46.5550 C   0  0  0  0  0  0  0  0  0  0  0  0
   58.9860   26.9300   47.1240 C   0  0  0  0  0  0  0  0  0  0  0  0
   59.7710   26.7650   48.2390 C   0  0  0  0  0  0  0  0  0  0  0  0
   60.4060   27.8260   48.8020 C   0  0  0  0  0  0  0  0  0  0  0  0
   60.2340   29.0850   48.2060 C   0  0  0  0  0  0  0  0  0  0  0  0
   59.4670   29.2900   47.0970 C   0  0  0  0  0  0  0  0  0  0  0  0
   59.2950   30.5350   46.5470 C   0  0  0  0  0  0  0  0  0  0  0  0
   64.2972   32.1892   47.3828 H   0  0  0  0  0  0  0  0  0  0  0  0
   62.8100   32.8034   46.5841 H   0  0  0  0  0  0  0  0  0  0  0  0
   64.3056   33.7982   46.5841 H   0  0  0  0  0  0  0  0  0  0  0  0
   64.1311   34.2381   48.9447 H   0  0  0  0  0  0  0  0  0  0  0  0
   62.4732   34.4778   48.2653 H   0  0  0  0  0  0  0  0  0  0  0  0
   62.8640   31.7960   49.0790 H   0  0  0  0  0  0  0  0  0  0  0  0
   61.5067   32.8833   51.0404 H   0  0  0  0  0  0  0  0  0  0  0  0
   61.2461   34.1308   49.7415 H   0  0  0  0  0  0  0  0  0  0  0  0
   60.0896   31.4192   50.0393 H   0  0  0  0  0  0  0  0  0  0  0  0
   59.4493   32.8480   49.2003 H   0  0  0  0  0  0  0  0  0  0  0  0
   61.8690   31.3620   48.0000 H   0  0  0  0  0  0  0  0  0  0  0  0
   60.9551   33.9535   47.7476 H   0  0  0  0  0  0  0  0  0  0  0  0
   60.5786   36.1561   46.6816 H   0  0  0  0  0  0  0  0  0  0  0  0
   59.0631   36.2695   44.7095 H   0  0  0  0  0  0  0  0  0  0  0  0
   57.9800   34.2226   43.8598 H   0  0  0  0  0  0  0  0  0  0  0  0
   56.3036   31.8475   44.0202 H   0  0  0  0  0  0  0  0  0  0  0  0
   57.5443   32.7344   43.0711 H   0  0  0  0  0  0  0  0  0  0  0  0
   57.5280   30.9382   43.0711 H   0  0  0  0  0  0  0  0  0  0  0  0
   57.1736   29.6279   44.0336 H   0  0  0  0  0  0  0  0  0  0  0  0
   56.3250   26.9950   44.8700 H   0  0  0  0  0  0  0  0  0  0  0  0
   57.8771   26.2175   43.0352 H   0  0  0  0  0  0  0  0  0  0  0  0
   59.1943   26.3248   44.2561 H   0  0  0  0  0  0  0  0  0  0  0  0
   58.3385   24.0337   44.0319 H   0  0  0  0  0  0  0  0  0  0  0  0
   58.0189   24.7387   45.6783 H   0  0  0  0  0  0  0  0  0  0  0  0
   55.9435   24.8781   43.5173 H   0  0  0  0  0  0  0  0  0  0  0  0
   56.1703   23.3823   44.5003 H   0  0  0  0  0  0  0  0  0  0  0  0
   53.9219   24.3725   46.6760 H   0  0  0  0  0  0  0  0  0  0  0  0
   53.5138   25.1746   45.1215 H   0  0  0  0  0  0  0  0  0  0  0  0
   54.2236   23.5245   45.1215 H   0  0  0  0  0  0  0  0  0  0  0  0
   55.6084   25.0532   47.6656 H   0  0  0  0  0  0  0  0  0  0  0  0
   56.5000   23.7190   46.8584 H   0  0  0  0  0  0  0  0  0  0  0  0
   57.1790   25.3820   46.8584 H   0  0  0  0  0  0  0  0  0  0  0  0
   58.4761   26.0620   46.6807 H   0  0  0  0  0  0  0  0  0  0  0  0
   59.8867   25.7641   48.6804 H   0  0  0  0  0  0  0  0  0  0  0  0
   61.0347   27.7023   49.6961 H   0  0  0  0  0  0  0  0  0  0  0  0
   60.7434   29.9499   48.6559 H   0  0  0  0  0  0  0  0  0  0  0  0
  1  2  1  0
  2  3  1  0
  3  4  1  0
  4  5  1  0
  5  6  1  0
  6  7  1  0
  7  8  2  0
  8  9  1  0
  9 10  2  0
 10 11  1  0
 11 12  2  0
 12 13  1  0
 13 14  2  0
 14 15  1  0
 14 16  1  0
 16 17  2  0
 17 18  1  0
 18 19  1  0
 19 20  1  0
 20 21  1  0
 21 22  1  0
 22 23  1  0
 23 24  1  0
 23 25  1  0
 18 26  2  0
 26 27  1  0
 27 28  2  0
 28 29  1  0
 29 30  2  0
 30 31  1  0
 31 32  2  0
 32  7  1  0
 13  8  1  0
 32 16  1  0
 31 26  1  0
  1 33  1  0
  1 34  1  0
  1 35  1  0
  2 36  1  0
  2 37  1  0
  3 38  1  0
  4 39  1  0
  4 40  1  0
  5 41  1  0
  5 42  1  0
  6 43  1  0
  9 44  1  0
 10 45  1  0
 11 46  1  0
 12 47  1  0
 15 48  1  0
 15 49  1  0
 15 50  1  0
 17 51  1  0
 19 52  1  0
 20 53  1  0
 20 54  1  0
 21 55  1  0
 21 56  1  0
 22 57  1  0
 22 58  1  0
 24 59  1  0
 24 60  1  0
 24 61  1  0
 25 62  1  0
 25 63  1  0
 25 64  1  0
 27 65  1  0
 28 66  1  0
 29 67  1  0
 30 68  1  0
M  CHG  1  14   1
M  END
>  <smiles>  (5) 
CCNCCNc1c2ccccc2[n+](C)c2cc(NCCCN(C)C)c3ccccc3c12

>  <score_type>  (5) 
oracle

>  <origin>  (5) 
adg

>  <m_score__min__energy>  (5) 
-7.4199999999999999

>  <m_primary>  (5) 
energy

$$$$
7:0
     RDKit          3D

 49 51  0  0  0  0  0  0  0  0999 V2000
   63.7160   33.4620   47.0200 C   0  0  0  0  0  0  0  0  0  0  0  0
   62.6180   32.4590   47.1430 C   0  0  0  0  0  0  0  0  0  0  0  0
   61.3080   32.9680   46.7460 N   0  0  0  0  0  0  0  0  0  0  0  0
   61.0060   34.1960   47.4070 C   0  0  0  0  0  0  0  0  0  0  0  0
   59.5580   34.5530   47.2750 C   0  0  0  0  0  0  0  0  0  0  0  0
   58.9020   33.4910   46.4950 N   0  0  0  0  0  0  0  0  0  0  0  0
   58.3750   32.4010   47.1360 C   0  0  0  0  0  0  0  0  0  0  0  0
   58.5460   32.3970   48.9120 S   0  0  0  0  0  0  0  0  0  0  0  0
   60.1530   31.6610   49.3180 C   0  0  0  0  0  0  0  0  0  0  0  0
   60.0310   30.1840   48.8920 C   0  0  0  0  0  0  0  0  0  0  0  0
   60.4360   30.1840   47.5340 O   0  0  0  0  0  0  0  0  0  0  0  0
   59.9090   29.2980   46.6210 C   0  0  0  0  0  0  0  0  0  0  0  0
   58.8970   28.4520   47.0890 C   0  0  0  0  0  0  0  0  0  0  0  0
   58.3020   27.5190   46.2330 C   0  0  0  0  0  0  0  0  0  0  0  0
   58.7140   27.4290   44.9160 C   0  0  0  0  0  0  0  0  0  0  0  0
   59.7230   28.2680   44.4370 C   0  0  0  0  0  0  0  0  0  0  0  0
   60.3060   29.1960   45.3050 C   0  0  0  0  0  0  0  0  0  0  0  0
   57.7720   31.4060   46.4550 N   0  0  0  0  0  0  0  0  0  0  0  0
   57.6830   31.4830   45.0960 C   0  0  0  0  0  0  0  0  0  0  0  0
   57.0770   30.4960   44.3500 C   0  0  0  0  0  0  0  0  0  0  0  0
   56.9980   30.6010   42.9630 C   0  0  0  0  0  0  0  0  0  0  0  0
   57.5290   31.7040   42.2980 C   0  0  0  0  0  0  0  0  0  0  0  0
   58.1210   32.6610   43.0560 C   0  0  0  0  0  0  0  0  0  0  0  0
   58.2050   32.5700   44.4240 C   0  0  0  0  0  0  0  0  0  0  0  0
   58.8240   33.5870   45.1490 C   0  0  0  0  0  0  0  0  0  0  0  0
   59.2800   34.5410   44.4990 O   0  0  0  0  0  0  0  0  0  0  0  0
   64.0489   33.7661   48.0233 H   0  0  0  0  0  0  0  0  0  0  0  0
   64.5600   33.0165   46.4730 H   0  0  0  0  0  0  0  0  0  0  0  0
   63.3485   34.3428   46.4730 H   0  0  0  0  0  0  0  0  0  0  0  0
   62.8629   31.5967   46.5055 H   0  0  0  0  0  0  0  0  0  0  0  0
   62.5480   32.1892   48.2071 H   0  0  0  0  0  0  0  0  0  0  0  0
   60.5640   32.2510   46.9610 H   0  0  0  0  0  0  0  0  0  0  0  0
   61.2531   34.0968   48.4743 H   0  0  0  0  0  0  0  0  0  0  0  0
   61.6006   34.9938   46.9379 H   0  0  0  0  0  0  0  0  0  0  0  0
   59.0978   34.6240   48.2716 H   0  0  0  0  0  0  0  0  0  0  0  0
   59.4462   35.5245   46.7713 H   0  0  0  0  0  0  0  0  0  0  0  0
   60.9592   32.1596   48.7600 H   0  0  0  0  0  0  0  0  0  0  0  0
   60.3990   31.7656   50.3850 H   0  0  0  0  0  0  0  0  0  0  0  0
   60.6924   29.5466   49.4972 H   0  0  0  0  0  0  0  0  0  0  0  0
   59.0149   29.7861   49.0306 H   0  0  0  0  0  0  0  0  0  0  0  0
   58.5675   28.5211   48.1362 H   0  0  0  0  0  0  0  0  0  0  0  0
   57.5069   26.8574   46.6073 H   0  0  0  0  0  0  0  0  0  0  0  0
   58.2460   26.6948   44.2438 H   0  0  0  0  0  0  0  0  0  0  0  0
   60.0545   28.1994   43.3904 H   0  0  0  0  0  0  0  0  0  0  0  0
   61.0990   29.8594   44.9294 H   0  0  0  0  0  0  0  0  0  0  0  0
   56.6512   29.6161   44.8545 H   0  0  0  0  0  0  0  0  0  0  0  0
   56.5098   29.8023   42.3853 H   0  0  0  0  0  0  0  0  0  0  0  0
   57.4707   31.7953   41.2033 H   0  0  0  0  0  0  0  0  0  0  0  0
   58.5496   33.5424   42.5565 H   0  0  0  0  0  0  0  0  0  0  0  0
  1  2  1  0
  2  3  1  0
  3  4  1  0
  4  5  1  0
  5  6  1  0
  6  7  1  0
  7  8  1  0
  8  9  1  0
  9 10  1  0
 10 11  1  0
 11 12  1  0
 12 13  2  0
 13 14  1  0
 14 15  2  0
 15 16  1  0
 16 17  2  0
  7 18  2  0
 18 19  1  0
 19 20  2  0
 20 21  1  0
 21 22  2  0
 22 23  1  0
 23 24  2  0
 24 25  1  0
 25 26  2  0
 25  6  1  0
 17 12  1  0
 24 19  1  0
  1 27  1  0
  1 28  1  0
  1 29  1  0
  2 30  1  0
  2 31  1  0
  3 32  1  0
  4 33  1  0
  4 34  1  0
  5 35  1  0
  5 36  1  0
  9 37  1  0
  9 38  1  0
 10 39  1  0
 10 40  1  0
 13 41  1  0
 14 42  1  0
 15 43  1  0
 16 44  1  0
 17 45  1  0
 20 46  1  0
 21 47  1  0
 22 48  1  0
 23 49  1  0
M  END
>  <smiles>  (6) 
CCNCCn1c(SCCOc2ccccc2)nc2ccccc2c1=O

>  <score_type>  (6) 
oracle

>  <origin>  (6) 
adg

>  <m_score__min__energy>  (6) 
-8.1799999999999997

>  <m_primary>  (6) 
energy

$$$$
8:0
     RDKit          3D

 54 55  0  0  0  0  0  0  0  0999 V2000
   57.5390   32.3050   41.3000 C   0  0  0  0  0  0  0  0  0  0  0  0
   58.1400   32.3580   42.6670 C   0  0  0  0  0  0  0  0  0  0  0  0
   57.6450   31.3790   43.5560 N   0  0  0  0  0  0  0  0  0  0  0  0
   56.7380   30.4160   43.0950 C   0  0  0  0  0  0  0  0  0  0  0  0
   55.8670   29.7910   44.1540 C   0  0  0  0  0  0  0  0  0  0  0  0
   57.6830   31.7010   44.9300 C   0  0  0  0  0  0  0  0  0  0  0  0
   57.0220   33.0150   45.2860 C   0  0  0  0  0  0  0  0  0  0  0  0
   57.8970   33.8050   45.9880 O   0  0  0  0  0  0  0  0  0  0  0  0
   58.8040   34.5010   45.2360 C   0  0  0  0  0  0  0  0  0  0  0  0
   60.0310   34.8190   46.0280 C   0  0  0  0  0  0  0  0  0  0  0  0
   61.0440   33.8580   45.7120 O   0  0  0  0  0  0  0  0  0  0  0  0
   61.8460   33.4080   46.7220 C   0  0  0  0  0  0  0  0  0  0  0  0
   63.1240   33.9020   46.8510 C   0  0  0  0  0  0  0  0  0  0  0  0
   63.9760   33.4870   47.8460 C   0  0  0  0  0  0  0  0  0  0  0  0
   63.5050   32.5430   48.7270 C   0  0  0  0  0  0  0  0  0  0  0  0
   64.6810   31.9660   50.1130 Br  0  0  0  0  0  0  0  0  0  0  0  0
   62.2210   32.0490   48.5950 C   0  0  0  0  0  0  0  0  0  0  0  0
   61.3420   32.4390   47.6180 C   0  0  0  0  0  0  0  0  0  0  0  0
   60.0390   31.9630   47.4320 N   0  0  0  0  0  0  0  0  0  0  0  0
   59.4490   30.7300   47.8340 C   0  0  0  0  0  0  0  0  0  0  0  0
   59.4600   29.7080   46.7930 C   0  0  0  0  0  0  0  0  0  0  0  0
   58.4040   28.7860   46.7770 C   0  0  0  0  0  0  0  0  0  0  0  0
   58.3140   27.8060   45.8030 C   0  0  0  0  0  0  0  0  0  0  0  0
   59.2520   27.7120   44.8280 N   0  0  0  0  0  0  0  0  0  0  0  0
   60.2610   28.5750   44.8220 C   0  0  0  0  0  0  0  0  0  0  0  0
   60.3760   29.5630   45.7830 C   0  0  0  0  0  0  0  0  0  0  0  0
   56.4464   32.2086   41.3833 H   0  0  0  0  0  0  0  0  0  0  0  0
   57.7852   33.2283   40.7552 H   0  0  0  0  0  0  0  0  0  0  0  0
   57.9430   31.4390   40.7552 H   0  0  0  0  0  0  0  0  0  0  0  0
   59.2270   32.2190   42.5714 H   0  0  0  0  0  0  0  0  0  0  0  0
   57.8708   33.3360   43.0926 H   0  0  0  0  0  0  0  0  0  0  0  0
   56.0810   30.8953   42.3543 H   0  0  0  0  0  0  0  0  0  0  0  0
   57.3470   29.5987   42.6814 H   0  0  0  0  0  0  0  0  0  0  0  0
   56.2472   30.0638   45.1495 H   0  0  0  0  0  0  0  0  0  0  0  0
   54.8354   30.1562   44.0428 H   0  0  0  0  0  0  0  0  0  0  0  0
   55.8826   28.6967   44.0428 H   0  0  0  0  0  0  0  0  0  0  0  0
   57.1740   30.8991   45.4848 H   0  0  0  0  0  0  0  0  0  0  0  0
   58.7450   31.8028   45.1978 H   0  0  0  0  0  0  0  0  0  0  0  0
   56.7224   33.5338   44.3635 H   0  0  0  0  0  0  0  0  0  0  0  0
   56.1359   32.8171   45.9071 H   0  0  0  0  0  0  0  0  0  0  0  0
   59.0874   33.8944   44.3632 H   0  0  0  0  0  0  0  0  0  0  0  0
   58.3403   35.4461   44.9170 H   0  0  0  0  0  0  0  0  0  0  0  0
   60.3856   35.8283   45.7717 H   0  0  0  0  0  0  0  0  0  0  0  0
   59.8025   34.7824   47.1034 H   0  0  0  0  0  0  0  0  0  0  0  0
   63.4761   34.6561   46.1318 H   0  0  0  0  0  0  0  0  0  0  0  0
   64.9942   33.8940   47.9339 H   0  0  0  0  0  0  0  0  0  0  0  0
   61.8827   31.2945   49.3204 H   0  0  0  0  0  0  0  0  0  0  0  0
   59.3770   32.6220   46.9100 H   0  0  0  0  0  0  0  0  0  0  0  0
   60.0037   30.3466   48.7031 H   0  0  0  0  0  0  0  0  0  0  0  0
   58.3948   30.9392   48.0682 H   0  0  0  0  0  0  0  0  0  0  0  0
   57.6293   28.8424   47.5559 H   0  0  0  0  0  0  0  0  0  0  0  0
   57.4734   27.0967   45.8202 H   0  0  0  0  0  0  0  0  0  0  0  0
   61.0243   28.5024   44.0333 H   0  0  0  0  0  0  0  0  0  0  0  0
   61.2299   30.2548   45.7355 H   0  0  0  0  0  0  0  0  0  0  0  0
  1  2  1  0
  2  3  1  0
  3  4  1  0
  4  5  1  0
  3  6  1  0
  6  7  1  0
  7  8  1  0
  8  9  1  0
  9 10  1  0
 10 11  1  0
 11 12  1  0
 12 13  2  0
 13 14  1  0
 14 15  2  0
 15 16  1  0
 15 17  1  0
 17 18  2  0
 18 19  1  0
 19 20  1  0
 20 21  1  0
 21 22  2  0
 22 23  1  0
 23 24  2  0
 24 25  1  0
 25 26  2  0
 18 12  1  0
 26 21  1  0
  1 27  1  0
  1 28  1  0
  1 29  1  0
  2 30  1  0
  2 31  1  0
  4 32  1  0
  4 33  1  0
  5 34  1  0
  5 35  1  0
  5 36  1  0
  6 37  1  0
  6 38  1  0
  7 39  1  0
  7 40  1  0
  9 41  1  0
  9 42  1  0
 10 43  1  0
 10 44  1  0
 13 45  1  0
 14 46  1  0
 17 47  1  0
 19 48  1  0
 20 49  1  0
 20 50  1  0
 22 51  1  0
 23 52  1  0
 25 53  1  0
 26 54  1  0
M  END
>  <smiles>  (7) 
CCN(CC)CCOCCOc1ccc(Br)cc1NCc1ccncc1

>  <score_type>  (7) 
oracle

>  <origin>  (7) 
adg

>  <m_score__min__energy>  (7) 
-6.96

>  <m_primary>  (7) 
energy

$$$$
9:0
     RDKit          3D

 45 46  0  0  0  0  0  0  0  0999 V2000
   62.6280   33.4720   46.7720 C   0  0  0  0  0  0  0  0  0  0  0  0
   62.4550   32.2280   47.5900 C   0  0  0  0  0  0  0  0  0  0  0  0
   61.0720   31.9980   47.9930 N   0  0  0  0  0  0  0  0  0  0  0  0
   60.3890   30.8700   47.4530 C   0  0  0  0  0  0  0  0  0  0  0  0
   59.1650   30.4820   47.9570 C   0  0  0  0  0  0  0  0  0  0  0  0
   58.5030   29.4140   47.4500 N   0  0  0  0  0  0  0  0  0  0  0  0
   59.0310   28.7130   46.4430 N   0  0  0  0  0  0  0  0  0  0  0  0
   58.3540   27.5730   45.8650 C   0  0  0  0  0  0  0  0  0  0  0  0
   57.4920   28.0490   44.6890 C   0  0  0  0  0  0  0  0  0  0  0  0
   56.4800   28.8730   45.2510 N   0  0  0  0  0  0  0  0  0  0  0  0
   55.8320   29.8010   44.3900 C   0  0  0  0  0  0  0  0  0  0  0  0
   56.6020   31.0460   44.0740 C   0  0  0  0  0  0  0  0  0  0  0  0
   57.4450   31.4030   45.1830 N   0  0  0  0  0  0  0  0  0  0  0  0
   58.0990   32.6350   45.3750 C   0  0  0  0  0  0  0  0  0  0  0  0
   58.8130   33.3030   44.4070 C   0  0  0  0  0  0  0  0  0  0  0  0
   59.4610   34.5070   44.6340 C   0  0  0  0  0  0  0  0  0  0  0  0
   59.4020   35.0840   45.8830 C   0  0  0  0  0  0  0  0  0  0  0  0
   60.0210   36.2700   46.1610 F   0  0  0  0  0  0  0  0  0  0  0  0
   58.7000   34.4490   46.8770 C   0  0  0  0  0  0  0  0  0  0  0  0
   58.0660   33.2580   46.6290 C   0  0  0  0  0  0  0  0  0  0  0  0
   57.3760   32.6610   47.6560 F   0  0  0  0  0  0  0  0  0  0  0  0
   60.2410   29.0650   45.9140 C   0  0  0  0  0  0  0  0  0  0  0  0
   60.7460   28.4060   44.9610 O   0  0  0  0  0  0  0  0  0  0  0  0
   60.9440   30.1480   46.4070 C   0  0  0  0  0  0  0  0  0  0  0  0
   62.7483   34.3369   47.4409 H   0  0  0  0  0  0  0  0  0  0  0  0
   63.5209   33.3723   46.1374 H   0  0  0  0  0  0  0  0  0  0  0  0
   61.7418   33.6197   46.1374 H   0  0  0  0  0  0  0  0  0  0  0  0
   62.7944   31.3673   46.9950 H   0  0  0  0  0  0  0  0  0  0  0  0
   63.0485   32.3527   48.5077 H   0  0  0  0  0  0  0  0  0  0  0  0
   60.5600   32.6240   48.6590 H   0  0  0  0  0  0  0  0  0  0  0  0
   58.7180   31.0503   48.7860 H   0  0  0  0  0  0  0  0  0  0  0  0
   59.0970   26.8451   45.5070 H   0  0  0  0  0  0  0  0  0  0  0  0
   57.7170   27.0946   46.6235 H   0  0  0  0  0  0  0  0  0  0  0  0
   58.1017   28.6248   43.9772 H   0  0  0  0  0  0  0  0  0  0  0  0
   57.0598   27.2007   44.1380 H   0  0  0  0  0  0  0  0  0  0  0  0
   56.7560   29.2800   46.1700 H   0  0  0  0  0  0  0  0  0  0  0  0
   55.6170   29.2875   43.4413 H   0  0  0  0  0  0  0  0  0  0  0  0
   54.9350   30.1347   44.9322 H   0  0  0  0  0  0  0  0  0  0  0  0
   57.2256   30.8718   43.1848 H   0  0  0  0  0  0  0  0  0  0  0  0
   55.8950   31.8664   43.8817 H   0  0  0  0  0  0  0  0  0  0  0  0
   57.5800   30.6600   45.9240 H   0  0  0  0  0  0  0  0  0  0  0  0
   58.8726   32.8591   43.4023 H   0  0  0  0  0  0  0  0  0  0  0  0
   60.0182   34.9980   43.8226 H   0  0  0  0  0  0  0  0  0  0  0  0
   58.6454   34.8983   47.8796 H   0  0  0  0  0  0  0  0  0  0  0  0
   61.9182   30.4299   45.9809 H   0  0  0  0  0  0  0  0  0  0  0  0
  1  2  1  0
  2  3  1  0
  3  4  1  0
  4  5  1  0
  5  6  2  0
  6  7  1  0
  7  8  1  0
  8  9  1  0
  9 10  1  0
 10 11  1  0
 11 12  1  0
 12 13  1  0
 13 14  1  0
 14 15  2  0
 15 16  1  0
 16 17  2  0
 17 18  1  0
 17 19  1  0
 19 20  2  0
 20 21  1  0
  7 22  1  0
 22 23  2  0
 22 24  1  0
 24  4  2  0
 20 14  1  0
  1 25  1  0
  1 26  1  0
  1 27  1  0
  2 28  1  0
  2 29  1  0
  3 30  1  0
  5 31  1  0
  8 32  1  0
  8 33  1  0
  9 34  1  0
  9 35  1  0
 10 36  1  0
 11 37  1  0
 11 38  1  0
 12 39  1  0
 12 40  1  0
 13 41  1  0
 15 42  1  0
 16 43  1  0
 19 44  1  0
 24 45  1  0
M  END
>  <smiles>  (8) 
CCNc1cnn(CCNCCNc2ccc(F)cc2F)c(=O)c1

>  <score_type>  (8) 
oracle

>  <origin>  (8) 
adg

>  <m_score__min__energy>  (8) 
-6.3499999999999996

>  <m_primary>  (8) 
energy

$$$$
10:0
     RDKit          3D

 51 53  0  0  0  0  0  0  0  0999 V2000
   58.5980   27.4540   44.0440 C   0  0  0  0  0  0  0  0  0  0  0  0
   58.4270   27.0220   45.4790 C   0  0  0  0  0  0  0  0  0  0  0  0
   59.6370   27.2050   46.2660 N   0  0  0  0  0  0  0  0  0  0  0  0
   60.3580   25.9380   46.3720 C   0  0  0  0  0  0  0  0  0  0  0  0
   59.1930   27.5100   47.6110 C   0  0  0  0  0  0  0  0  0  0  0  0
   59.6450   28.8740   48.0860 C   0  0  0  0  0  0  0  0  0  0  0  0
   60.3140   29.5210   46.9640 N   0  0  0  0  0  0  0  0  0  0  0  0
   60.1790   30.9010   46.7160 C   0  0  0  0  0  0  0  0  0  0  0  0
   61.2030   31.7220   47.2030 C   0  0  0  0  0  0  0  0  0  0  0  0
   62.2650   31.1520   47.8820 C   0  0  0  0  0  0  0  0  0  0  0  0
   63.2970   31.9250   48.3790 C   0  0  0  0  0  0  0  0  0  0  0  0
   63.2040   33.2850   48.1590 C   0  0  0  0  0  0  0  0  0  0  0  0
   62.1370   33.8600   47.4760 C   0  0  0  0  0  0  0  0  0  0  0  0
   61.1250   33.0860   46.9910 C   0  0  0  0  0  0  0  0  0  0  0  0
   60.1040   33.6620   46.3350 N   0  0  0  0  0  0  0  0  0  0  0  0
   59.9580   35.0580   46.0880 C   0  0  0  0  0  0  0  0  0  0  0  0
   59.1210   32.8460   45.8690 C   0  0  0  0  0  0  0  0  0  0  0  0
   58.0520   33.3860   45.1840 C   0  0  0  0  0  0  0  0  0  0  0  0
   57.0170   32.5900   44.6820 C   0  0  0  0  0  0  0  0  0  0  0  0
   57.0570   31.2270   44.8730 C   0  0  0  0  0  0  0  0  0  0  0  0
   55.9910   30.4500   44.3510 N   0  0  0  0  0  0  0  0  0  0  0  0
   56.2100   29.6870   43.1480 C   0  0  0  0  0  0  0  0  0  0  0  0
   58.1270   30.6730   45.5590 C   0  0  0  0  0  0  0  0  0  0  0  0
   59.1300   31.4850   46.0410 C   0  0  0  0  0  0  0  0  0  0  0  0
   59.0027   28.4764   44.0146 H   0  0  0  0  0  0  0  0  0  0  0  0
   59.2931   26.7698   43.5354 H   0  0  0  0  0  0  0  0  0  0  0  0
   57.6229   27.4309   43.5354 H   0  0  0  0  0  0  0  0  0  0  0  0
   57.6190   27.6155   45.9318 H   0  0  0  0  0  0  0  0  0  0  0  0
   58.1894   25.9480   45.4777 H   0  0  0  0  0  0  0  0  0  0  0  0
   60.5017   25.6855   47.4330 H   0  0  0  0  0  0  0  0  0  0  0  0
   59.7769   25.1433   45.8814 H   0  0  0  0  0  0  0  0  0  0  0  0
   61.3381   26.0317   45.8814 H   0  0  0  0  0  0  0  0  0  0  0  0
   58.0937   27.4771   47.6335 H   0  0  0  0  0  0  0  0  0  0  0  0
   59.6391   26.7622   48.2831 H   0  0  0  0  0  0  0  0  0  0  0  0
   58.7761   29.4703   48.4015 H   0  0  0  0  0  0  0  0  0  0  0  0
   60.3247   28.7826   48.9461 H   0  0  0  0  0  0  0  0  0  0  0  0
   60.9300   28.9830   46.2940 H   0  0  0  0  0  0  0  0  0  0  0  0
   62.2884   30.0621   48.0292 H   0  0  0  0  0  0  0  0  0  0  0  0
   64.1458   31.4814   48.9201 H   0  0  0  0  0  0  0  0  0  0  0  0
   64.0036   33.9384   48.5380 H   0  0  0  0  0  0  0  0  0  0  0  0
   62.1097   34.9494   47.3259 H   0  0  0  0  0  0  0  0  0  0  0  0
   59.9017   35.5959   47.0459 H   0  0  0  0  0  0  0  0  0  0  0  0
   60.8231   35.4212   45.5138 H   0  0  0  0  0  0  0  0  0  0  0  0
   59.0365   35.2344   45.5138 H   0  0  0  0  0  0  0  0  0  0  0  0
   58.0124   34.4742   45.0281 H   0  0  0  0  0  0  0  0  0  0  0  0
   56.1778   33.0493   44.1390 H   0  0  0  0  0  0  0  0  0  0  0  0
   55.0510   30.4210   44.8190 H   0  0  0  0  0  0  0  0  0  0  0  0
   56.5045   28.6609   43.4131 H   0  0  0  0  0  0  0  0  0  0  0  0
   55.2830   29.6611   42.5564 H   0  0  0  0  0  0  0  0  0  0  0  0
   57.0096   30.1567   42.5564 H   0  0  0  0  0  0  0  0  0  0  0  0
   58.1750   29.5857   45.7183 H   0  0  0  0  0  0  0  0  0  0  0  0
  1  2  1  0
  2  3  1  0
  3  4  1  0
  3  5  1  0
  5  6  1  0
  6  7  1  0
  7  8  1  0
  8  9  2  0
  9 10  1  0
 10 11  2  0
 11 12  1  0
 12 13  2  0
 13 14  1  0
 14 15  2  0
 15 16  1  0
 15 17  1  0
 17 18  2  0
 18 19  1  0
 19 20  2  0
 20 21  1  0
 21 22  1  0
 20 23  1  0
 23 24  2  0
 24  8  1  0
 14  9  1  0
 24 17  1  0
  1 25  1  0
  1 26  1  0
  1 27  1  0
  2 28  1  0
  2 29  1  0
  4 30  1  0
  4 31  1  0
  4 32  1  0
  5 33  1  0
  5 34  1  0
  6 35  1  0
  6 36  1  0
  7 37  1  0
 10 38  1  0
 11 39  1  0
 12 40  1  0
 13 41  1  0
 16 42  1  0
 16 43  1  0
 16 44  1  0
 18 45  1  0
 19 46  1  0
 21 47  1  0
 22 48  1  0
 22 49  1  0
 22 50  1  0
 23 51  1  0
M  CHG  1  15   1
M  END
>  <smiles>  (9) 
CCN(C)CCNc1c2ccccc2[n+](C)c2ccc(NC)cc12

>  <score_type>  (9) 
oracle

>  <origin>  (9) 
adg

>  <m_score__min__energy>  (9) 
-5.6500000000000004

>  <m_primary>  (9) 
energy

$$$$
11:0
     RDKit          3D

 67 69  0  0  0  0  0  0  0  0999 V2000
   63.0470   34.3760   50.3930 C   0  0  0  0  0  0  0  0  0  0  0  0
   63.5610   33.5000   49.2690 C   0  0  0  0  0  0  0  0  0  0  0  0
   62.6330   32.4930   48.8490 N   0  0  0  0  0  0  0  0  0  0  0  0
   62.6360   32.3020   47.4080 C   0  0  0  0  0  0  0  0  0  0  0  0
   63.1660   33.5270   46.6850 C   0  0  0  0  0  0  0  0  0  0  0  0
   62.9880   31.1970   49.4200 C   0  0  0  0  0  0  0  0  0  0  0  0
   62.6720   31.1460   50.8970 C   0  0  0  0  0  0  0  0  0  0  0  0
   61.3690   31.4790   51.1550 O   0  0  0  0  0  0  0  0  0  0  0  0
   60.8680   31.0350   52.3730 C   0  0  0  0  0  0  0  0  0  0  0  0
   59.5440   30.3280   52.2150 C   0  0  0  0  0  0  0  0  0  0  0  0
   58.4650   31.1340   52.0100 O   0  0  0  0  0  0  0  0  0  0  0  0
   58.6720   32.2430   51.1930 C   0  0  0  0  0  0  0  0  0  0  0  0
   58.4280   31.8820   49.7720 C   0  0  0  0  0  0  0  0  0  0  0  0
   59.5870   31.8060   48.8870 N   0  0  0  0  0  0  0  0  0  0  0  0
   59.2690   31.5180   47.5030 C   0  0  0  0  0  0  0  0  0  0  0  0
   58.9930   32.5660   46.6550 C   0  0  0  0  0  0  0  0  0  0  0  0
   59.2170   33.8880   46.9700 C   0  0  0  0  0  0  0  0  0  0  0  0
   60.0370   34.3660   48.6490 Br  0  0  0  0  0  0  0  0  0  0  0  0
   58.9730   34.9340   46.1050 C   0  0  0  0  0  0  0  0  0  0  0  0
   58.4800   34.6050   44.8610 C   0  0  0  0  0  0  0  0  0  0  0  0
   58.2430   33.2920   44.4930 C   0  0  0  0  0  0  0  0  0  0  0  0
   58.4980   32.2640   45.3770 C   0  0  0  0  0  0  0  0  0  0  0  0
   58.3020   30.9950   44.9920 N   0  0  0  0  0  0  0  0  0  0  0  0
   57.7900   30.5890   43.7060 C   0  0  0  0  0  0  0  0  0  0  0  0
   58.5950   29.9710   45.8550 C   0  0  0  0  0  0  0  0  0  0  0  0
   58.4270   28.6470   45.4370 C   0  0  0  0  0  0  0  0  0  0  0  0
   58.7360   27.5730   46.2400 C   0  0  0  0  0  0  0  0  0  0  0  0
   59.2250   27.8100   47.4930 C   0  0  0  0  0  0  0  0  0  0  0  0
   59.3920   29.1300   47.9100 C   0  0  0  0  0  0  0  0  0  0  0  0
   59.8930   29.3280   49.1630 O   0  0  0  0  0  0  0  0  0  0  0  0
   60.7560   28.4160   49.8160 C   0  0  0  0  0  0  0  0  0  0  0  0
   59.0860   30.2080   47.1230 C   0  0  0  0  0  0  0  0  0  0  0  0
   63.3120   33.9244   51.3604 H   0  0  0  0  0  0  0  0  0  0  0  0
   63.5025   35.3744   50.3174 H   0  0  0  0  0  0  0  0  0  0  0  0
   61.9532   34.4653   50.3174 H   0  0  0  0  0  0  0  0  0  0  0  0
   63.7896   34.1423   48.4058 H   0  0  0  0  0  0  0  0  0  0  0  0
   64.4494   32.9766   49.6520 H   0  0  0  0  0  0  0  0  0  0  0  0
   63.2729   31.4392   47.1632 H   0  0  0  0  0  0  0  0  0  0  0  0
   61.6000   32.1297   47.0808 H   0  0  0  0  0  0  0  0  0  0  0  0
   63.4902   34.2762   47.4223 H   0  0  0  0  0  0  0  0  0  0  0  0
   64.0203   33.2396   46.0544 H   0  0  0  0  0  0  0  0  0  0  0  0
   62.3716   33.9529   46.0544 H   0  0  0  0  0  0  0  0  0  0  0  0
   62.4192   30.4095   48.9039 H   0  0  0  0  0  0  0  0  0  0  0  0
   64.0693   31.0430   49.2894 H   0  0  0  0  0  0  0  0  0  0  0  0
   62.8573   30.1260   51.2647 H   0  0  0  0  0  0  0  0  0  0  0  0
   63.3167   31.8765   51.4076 H   0  0  0  0  0  0  0  0  0  0  0  0
   61.5913   30.3385   52.8220 H   0  0  0  0  0  0  0  0  0  0  0  0
   60.7099   31.9132   53.0162 H   0  0  0  0  0  0  0  0  0  0  0  0
   59.6251   29.6466   51.3553 H   0  0  0  0  0  0  0  0  0  0  0  0
   59.3601   29.8182   53.1722 H   0  0  0  0  0  0  0  0  0  0  0  0
   57.9813   33.0466   51.4882 H   0  0  0  0  0  0  0  0  0  0  0  0
   59.7118   32.5840   51.3048 H   0  0  0  0  0  0  0  0  0  0  0  0
   57.9403   30.8961   49.7616 H   0  0  0  0  0  0  0  0  0  0  0  0
   57.8241   32.7100   49.3723 H   0  0  0  0  0  0  0  0  0  0  0  0
   60.5670   31.9240   49.2160 H   0  0  0  0  0  0  0  0  0  0  0  0
   59.1624   35.9784   46.3936 H   0  0  0  0  0  0  0  0  0  0  0  0
   58.2689   35.4086   44.1401 H   0  0  0  0  0  0  0  0  0  0  0  0
   57.8494   33.0670   43.4908 H   0  0  0  0  0  0  0  0  0  0  0  0
   56.9354   29.9113   43.8489 H   0  0  0  0  0  0  0  0  0  0  0  0
   57.4640   31.4768   43.1442 H   0  0  0  0  0  0  0  0  0  0  0  0
   58.5801   30.0693   43.1442 H   0  0  0  0  0  0  0  0  0  0  0  0
   58.0328   28.4569   44.4278 H   0  0  0  0  0  0  0  0  0  0  0  0
   58.5920   26.5437   45.8797 H   0  0  0  0  0  0  0  0  0  0  0  0
   59.4824   26.9748   48.1610 H   0  0  0  0  0  0  0  0  0  0  0  0
   60.6507   28.5273   50.9053 H   0  0  0  0  0  0  0  0  0  0  0  0
   60.4917   27.3886   49.5251 H   0  0  0  0  0  0  0  0  0  0  0  0
   61.7964   28.6232   49.5251 H   0  0  0  0  0  0  0  0  0  0  0  0
  1  2  1  0
  2  3  1  0
  3  4  1  0
  4  5  1  0
  3  6  1  0
  6  7  1  0
  7  8  1  0
  8  9  1  0
  9 10  1  0
 10 11  1  0
 11 12  1  0
 12 13  1  0
 13 14  1  0
 14 15  1  0
 15 16  2  0
 16 17  1  0
 17 18  1  0
 17 19  2  0
 19 20  1  0
 20 21  2  0
 21 22  1  0
 22 23  2  0
 23 24  1  0
 23 25  1  0
 25 26  2  0
 26 27  1  0
 27 28  2  0
 28 29  1  0
 29 30  1  0
 30 31  1  0
 29 32  2  0
 32 15  1  0
 22 16  1  0
 32 25  1  0
  1 33  1  0
  1 34  1  0
  1 35  1  0
  2 36  1  0
  2 37  1  0
  4 38  1  0
  4 39  1  0
  5 40  1  0
  5 41  1  0
  5 42  1  0
  6 43  1  0
  6 44  1  0
  7 45  1  0
  7 46  1  0
  9 47  1  0
  9 48  1  0
 10 49  1  0
 10 50  1  0
 12 51  1  0
 12 52  1  0
 13 53  1  0
 13 54  1  0
 14 55  1  0
 19 56  1  0
 20 57  1  0
 21 58  1  0
 24 59  1  0
 24 60  1  0
 24 61  1  0
 26 62  1  0
 27 63  1  0
 28 64  1  0
 31 65  1  0
 31 66  1  0
 31 67  1  0
M  CHG  1  23   1
M  END
>  <smiles>  (10) 
CCN(CC)CCOCCOCCNc1c2c(Br)cccc2[n+](C)c2cccc(OC)c12

>  <score_type>  (10) 
oracle

>  <origin>  (10) 
adg

>  <m_score__min__energy>  (10) 
-6.0999999999999996

>  <m_primary>  (10) 
energy

$$$$
12:0
     RDKit          3D

 66 69  0  0  0  0  0  0  0  0999 V2000
   63.3380   33.8750   46.6870 C   0  0  0  0  0  0  0  0  0  0  0  0
   63.1160   33.9880   48.1800 C   0  0  0  0  0  0  0  0  0  0  0  0
   62.6690   32.7710   48.7930 N   0  0  0  0  0  0  0  0  0  0  0  0
   63.0380   31.5870   48.0700 C   0  0  0  0  0  0  0  0  0  0  0  0
   62.0430   31.0090   47.1470 C   0  0  0  0  0  0  0  0  0  0  0  0
   60.6420   31.0310   47.5050 N   0  0  0  0  0  0  0  0  0  0  0  0
   59.5840   31.0840   46.5480 C   0  0  0  0  0  0  0  0  0  0  0  0
   59.2980   29.8530   45.9420 C   0  0  0  0  0  0  0  0  0  0  0  0
   59.8220   28.6910   46.4520 C   0  0  0  0  0  0  0  0  0  0  0  0
   59.5770   27.4320   45.9570 C   0  0  0  0  0  0  0  0  0  0  0  0
   58.7430   27.3330   44.8720 C   0  0  0  0  0  0  0  0  0  0  0  0
   58.1980   28.5050   44.3410 C   0  0  0  0  0  0  0  0  0  0  0  0
   58.4610   29.7490   44.8570 C   0  0  0  0  0  0  0  0  0  0  0  0
   57.9170   30.8790   44.3850 N   0  0  0  0  0  0  0  0  0  0  0  0
   57.0560   30.8520   43.2470 C   0  0  0  0  0  0  0  0  0  0  0  0
   58.1770   32.0900   44.9620 C   0  0  0  0  0  0  0  0  0  0  0  0
   57.5750   33.1730   44.3470 C   0  0  0  0  0  0  0  0  0  0  0  0
   57.8350   34.4090   44.8690 C   0  0  0  0  0  0  0  0  0  0  0  0
   58.6710   34.5500   45.9830 C   0  0  0  0  0  0  0  0  0  0  0  0
   59.2770   33.4950   46.6150 C   0  0  0  0  0  0  0  0  0  0  0  0
   59.9140   33.6310   47.8490 N   0  0  0  0  0  0  0  0  0  0  0  0
   59.6480   34.3640   49.0260 C   0  0  0  0  0  0  0  0  0  0  0  0
   59.6920   33.7700   50.3520 C   0  0  0  0  0  0  0  0  0  0  0  0
   59.9480   32.3040   50.1350 N   0  0  0  0  0  0  0  0  0  0  0  0
   58.6980   31.7020   49.8900 C   0  0  0  0  0  0  0  0  0  0  0  0
   58.5450   30.2850   50.3630 C   0  0  0  0  0  0  0  0  0  0  0  0
   59.3680   29.9020   51.5400 C   0  0  0  0  0  0  0  0  0  0  0  0
   59.9350   31.0730   52.2790 C   0  0  0  0  0  0  0  0  0  0  0  0
   60.6900   31.9020   51.2740 C   0  0  0  0  0  0  0  0  0  0  0  0
   59.0120   32.2300   46.0610 C   0  0  0  0  0  0  0  0  0  0  0  0
   64.3034   33.3836   46.4960 H   0  0  0  0  0  0  0  0  0  0  0  0
   62.5285   33.2792   46.2400 H   0  0  0  0  0  0  0  0  0  0  0  0
   63.3434   34.8801   46.2400 H   0  0  0  0  0  0  0  0  0  0  0  0
   64.0652   34.2847   48.6502 H   0  0  0  0  0  0  0  0  0  0  0  0
   62.3206   34.7329   48.3299 H   0  0  0  0  0  0  0  0  0  0  0  0
   61.7000   32.8110   49.1330 H   0  0  0  0  0  0  0  0  0  0  0  0
   63.9332   31.8290   47.4784 H   0  0  0  0  0  0  0  0  0  0  0  0
   63.1764   30.8194   48.8457 H   0  0  0  0  0  0  0  0  0  0  0  0
   62.1382   31.5503   46.1941 H   0  0  0  0  0  0  0  0  0  0  0  0
   62.2906   29.9373   47.1386 H   0  0  0  0  0  0  0  0  0  0  0  0
   60.4290   30.9460   48.5490 H   0  0  0  0  0  0  0  0  0  0  0  0
   60.4887   28.7736   47.3231 H   0  0  0  0  0  0  0  0  0  0  0  0
   60.0314   26.5398   46.4125 H   0  0  0  0  0  0  0  0  0  0  0  0
   58.5087   26.3533   44.4302 H   0  0  0  0  0  0  0  0  0  0  0  0
   57.5289   28.4270   43.4714 H   0  0  0  0  0  0  0  0  0  0  0  0
   56.0083   30.8191   43.5806 H   0  0  0  0  0  0  0  0  0  0  0  0
   57.2199   31.7557   42.6417 H   0  0  0  0  0  0  0  0  0  0  0  0
   57.2762   29.9603   42.6417 H   0  0  0  0  0  0  0  0  0  0  0  0
   56.9158   33.0450   43.4758 H   0  0  0  0  0  0  0  0  0  0  0  0
   57.3835   35.3008   44.4098 H   0  0  0  0  0  0  0  0  0  0  0  0
   58.8516   35.5627   46.3726 H   0  0  0  0  0  0  0  0  0  0  0  0
   60.7550   32.9650   47.9980 H   0  0  0  0  0  0  0  0  0  0  0  0
   60.3734   35.1908   49.0394 H   0  0  0  0  0  0  0  0  0  0  0  0
   58.5750   34.5793   48.9152 H   0  0  0  0  0  0  0  0  0  0  0  0
   60.5033   34.2169   50.9454 H   0  0  0  0  0  0  0  0  0  0  0  0
   58.7558   33.9405   50.9037 H   0  0  0  0  0  0  0  0  0  0  0  0
   57.9287   32.3086   50.3902 H   0  0  0  0  0  0  0  0  0  0  0  0
   58.5983   31.6613   48.7953 H   0  0  0  0  0  0  0  0  0  0  0  0
   57.4882   30.1294   50.6255 H   0  0  0  0  0  0  0  0  0  0  0  0
   58.8986   29.6542   49.5341 H   0  0  0  0  0  0  0  0  0  0  0  0
   58.7375   29.3253   52.2328 H   0  0  0  0  0  0  0  0  0  0  0  0
   60.2185   29.3152   51.1627 H   0  0  0  0  0  0  0  0  0  0  0  0
   59.1240   31.6667   52.7259 H   0  0  0  0  0  0  0  0  0  0  0  0
   60.5973   30.7415   53.0923 H   0  0  0  0  0  0  0  0  0  0  0  0
   61.0478   32.8091   51.7830 H   0  0  0  0  0  0  0  0  0  0  0  0
   61.4979   31.2579   50.8967 H   0  0  0  0  0  0  0  0  0  0  0  0
  1  2  1  0
  2  3  1  0
  3  4  1  0
  4  5  1  0
  5  6  1  0
  6  7  1  0
  7  8  2  0
  8  9  1  0
  9 10  2  0
 10 11  1  0
 11 12  2  0
 12 13  1  0
 13 14  2  0
 14 15  1  0
 14 16  1  0
 16 17  2  0
 17 18  1  0
 18 19  2  0
 19 20  1  0
 20 21  1  0
 21 22  1  0
 22 23  1  0
 23 24  1  0
 24 25  1  0
 25 26  1  0
 26 27  1  0
 27 28  1  0
 28 29  1  0
 20 30  2  0
 30  7  1  0
 13  8  1  0
 30 16  1  0
 29 24  1  0
  1 31  1  0
  1 32  1  0
  1 33  1  0
  2 34  1  0
  2 35  1  0
  3 36  1  0
  4 37  1  0
  4 38  1  0
  5 39  1  0
  5 40  1  0
  6 41  1  0
  9 42  1  0
 10 43  1  0
 11 44  1  0
 12 45  1  0
 15 46  1  0
 15 47  1  0
 15 48  1  0
 17 49  1  0
 18 50  1  0
 19 51  1  0
 21 52  1  0
 22 53  1  0
 22 54  1  0
 23 55  1  0
 23 56  1  0
 25 57  1  0
 25 58  1  0
 26 59  1  0
 26 60  1  0
 27 61  1  0
 27 62  1  0
 28 63  1  0
 28 64  1  0
 29 65  1  0
 29 66  1  0
M  CHG  1  14   1
M  END
>  <smiles>  (11) 
CCNCCNc1c2ccccc2[n+](C)c2cccc(NCCN3CCCCC3)c12

>  <score_type>  (11) 
oracle

>  <origin>  (11) 
adg

>  <m_score__min__energy>  (11) 
-5.9699999999999998

>  <m_primary>  (11) 
energy

$$$$
13:0
     RDKit          3D

 62 65  0  0  0  0  0  0  0  0999 V2000
   60.5100   32.8380   51.7680 C   0  0  0  0  0  0  0  0  0  0  0  0
   59.7350   33.0180   50.5930 N   0  0  0  0  0  0  0  0  0  0  0  0
   59.1810   31.8230   50.0630 C   0  0  0  0  0  0  0  0  0  0  0  0
   60.1500   30.9340   49.3810 C   0  0  0  0  0  0  0  0  0  0  0  0
   59.6940   30.4660   48.0870 N   0  0  0  0  0  0  0  0  0  0  0  0
   59.0060   29.2230   48.0950 C   0  0  0  0  0  0  0  0  0  0  0  0
   58.5170   28.9550   46.6890 C   0  0  0  0  0  0  0  0  0  0  0  0
   59.5430   28.9520   45.7530 O   0  0  0  0  0  0  0  0  0  0  0  0
   60.7520   29.4220   46.2240 C   0  0  0  0  0  0  0  0  0  0  0  0
   60.6150   30.6900   47.0290 C   0  0  0  0  0  0  0  0  0  0  0  0
   60.0220   34.0850   49.7290 C   0  0  0  0  0  0  0  0  0  0  0  0
   61.0390   33.9230   48.6910 C   0  0  0  0  0  0  0  0  0  0  0  0
   62.3610   33.7550   49.1220 C   0  0  0  0  0  0  0  0  0  0  0  0
   63.4180   33.6340   48.2490 C   0  0  0  0  0  0  0  0  0  0  0  0
   64.6940   33.4760   48.7170 F   0  0  0  0  0  0  0  0  0  0  0  0
   63.2150   33.6750   46.8910 C   0  0  0  0  0  0  0  0  0  0  0  0
   61.9260   33.8390   46.4500 C   0  0  0  0  0  0  0  0  0  0  0  0
   60.8390   33.9620   47.3350 C   0  0  0  0  0  0  0  0  0  0  0  0
   59.5820   34.0980   46.6980 N   0  0  0  0  0  0  0  0  0  0  0  0
   59.2470   34.9330   45.5940 C   0  0  0  0  0  0  0  0  0  0  0  0
   58.5040   34.1730   44.5030 C   0  0  0  0  0  0  0  0  0  0  0  0
   58.0500   32.8740   44.8920 N   0  0  0  0  0  0  0  0  0  0  0  0
   57.7770   31.9520   43.8140 C   0  0  0  0  0  0  0  0  0  0  0  0
   57.9880   32.3360   42.6430 O   0  0  0  0  0  0  0  0  0  0  0  0
   57.2640   30.5860   44.0280 C   0  0  0  0  0  0  0  0  0  0  0  0
   55.8150   30.3670   44.1170 C   0  0  0  0  0  0  0  0  0  0  0  0
   56.5920   29.9140   42.8860 C   0  0  0  0  0  0  0  0  0  0  0  0
   57.8500   32.4000   46.2240 C   0  0  0  0  0  0  0  0  0  0  0  0
   58.4840   33.2840   47.2530 C   0  0  0  0  0  0  0  0  0  0  0  0
   59.8738   32.9858   52.6531 H   0  0  0  0  0  0  0  0  0  0  0  0
   60.9253   31.8195   51.7809 H   0  0  0  0  0  0  0  0  0  0  0  0
   61.3317   33.5692   51.7809 H   0  0  0  0  0  0  0  0  0  0  0  0
   58.7262   31.2605   50.8917 H   0  0  0  0  0  0  0  0  0  0  0  0
   58.4554   32.1333   49.2967 H   0  0  0  0  0  0  0  0  0  0  0  0
   61.0902   31.4872   49.2396 H   0  0  0  0  0  0  0  0  0  0  0  0
   60.2795   30.0470   50.0186 H   0  0  0  0  0  0  0  0  0  0  0  0
   59.6875   28.4204   48.4133 H   0  0  0  0  0  0  0  0  0  0  0  0
   58.1589   29.2577   48.7959 H   0  0  0  0  0  0  0  0  0  0  0  0
   58.0217   27.9730   46.6705 H   0  0  0  0  0  0  0  0  0  0  0  0
   57.8252   29.7665   46.4190 H   0  0  0  0  0  0  0  0  0  0  0  0
   61.2049   28.6486   46.8617 H   0  0  0  0  0  0  0  0  0  0  0  0
   61.3800   29.6516   45.3505 H   0  0  0  0  0  0  0  0  0  0  0  0
   61.5939   30.9710   47.4448 H   0  0  0  0  0  0  0  0  0  0  0  0
   60.2512   31.5034   46.3841 H   0  0  0  0  0  0  0  0  0  0  0  0
   59.0828   34.3431   49.2179 H   0  0  0  0  0  0  0  0  0  0  0  0
   60.4552   34.8452   50.3957 H   0  0  0  0  0  0  0  0  0  0  0  0
   62.5627   33.7183   50.2027 H   0  0  0  0  0  0  0  0  0  0  0  0
   64.0530   33.5801   46.1847 H   0  0  0  0  0  0  0  0  0  0  0  0
   61.7359   33.8756   45.3672 H   0  0  0  0  0  0  0  0  0  0  0  0
   58.6083   35.7540   45.9517 H   0  0  0  0  0  0  0  0  0  0  0  0
   60.1841   35.3141   45.1620 H   0  0  0  0  0  0  0  0  0  0  0  0
   57.6285   34.7682   44.2044 H   0  0  0  0  0  0  0  0  0  0  0  0
   59.2205   34.0222   43.6820 H   0  0  0  0  0  0  0  0  0  0  0  0
   58.1078   30.3349   44.6876 H   0  0  0  0  0  0  0  0  0  0  0  0
   55.4120   29.6226   44.8194 H   0  0  0  0  0  0  0  0  0  0  0  0
   54.9381   31.0068   44.2950 H   0  0  0  0  0  0  0  0  0  0  0  0
   56.7572   28.8429   42.6977 H   0  0  0  0  0  0  0  0  0  0  0  0
   56.5204   30.0870   41.8021 H   0  0  0  0  0  0  0  0  0  0  0  0
   56.7690   32.3497   46.4211 H   0  0  0  0  0  0  0  0  0  0  0  0
   58.3235   31.4100   46.2991 H   0  0  0  0  0  0  0  0  0  0  0  0
   57.7162   33.9580   47.6606 H   0  0  0  0  0  0  0  0  0  0  0  0
   58.9092   32.6366   48.0341 H   0  0  0  0  0  0  0  0  0  0  0  0
  1  2  1  0
  2  3  1  0
  3  4  1  0
  4  5  1  0
  5  6  1  0
  6  7  1  0
  7  8  1  0
  8  9  1  0
  9 10  1  0
  2 11  1  0
 11 12  1  0
 12 13  2  0
 13 14  1  0
 14 15  1  0
 14 16  2  0
 16 17  1  0
 17 18  2  0
 18 19  1  0
 19 20  1  0
 20 21  1  0
 21 22  1  0
 22 23  1  0
 23 24  2  0
 23 25  1  0
 25 26  1  0
 26 27  1  0
 22 28  1  0
 28 29  1  0
 10  5  1  0
 18 12  1  0
 29 19  1  0
 27 25  1  0
  1 30  1  0
  1 31  1  0
  1 32  1  0
  3 33  1  0
  3 34  1  0
  4 35  1  0
  4 36  1  0
  6 37  1  0
  6 38  1  0
  7 39  1  0
  7 40  1  0
  9 41  1  0
  9 42  1  0
 10 43  1  0
 10 44  1  0
 11 45  1  0
 11 46  1  0
 13 47  1  0
 16 48  1  0
 17 49  1  0
 20 50  1  0
 20 51  1  0
 21 52  1  0
 21 53  1  0
 25 54  1  0
 26 55  1  0
 26 56  1  0
 27 57  1  0
 27 58  1  0
 28 59  1  0
 28 60  1  0
 29 61  1  0
 29 62  1  0
M  END
>  <smiles>  (12) 
CN(CCN1CCOCC1)Cc1cc(F)ccc1N1CCN(C(=O)C2CC2)CC1

>  <score_type>  (12) 
oracle

>  <origin>  (12) 
adg

>  <m_score__min__energy>  (12) 
-8.4900000000000002

>  <m_primary>  (12) 
energy

$$$$
14:0
     RDKit          3D

 50 53  0  0  0  0  0  0  0  0999 V2000
   63.3530   33.8040   46.3770 C   0  0  0  0  0  0  0  0  0  0  0  0
   62.9750   33.1030   47.6630 C   0  0  0  0  0  0  0  0  0  0  0  0
   63.0590   31.6760   47.5470 N   0  0  0  0  0  0  0  0  0  0  0  0
   61.8270   31.0550   47.1220 C   0  0  0  0  0  0  0  0  0  0  0  0
   60.9370   30.6950   48.2910 C   0  0  0  0  0  0  0  0  0  0  0  0
   59.5370   30.9160   47.9880 N   0  0  0  0  0  0  0  0  0  0  0  0
   59.1700   31.2900   46.6720 C   0  0  0  0  0  0  0  0  0  0  0  0
   59.2400   32.6500   46.3670 C   0  0  0  0  0  0  0  0  0  0  0  0
   59.6460   33.5620   47.3080 C   0  0  0  0  0  0  0  0  0  0  0  0
   59.7270   34.9190   47.0350 C   0  0  0  0  0  0  0  0  0  0  0  0
   59.3770   35.3180   45.7650 C   0  0  0  0  0  0  0  0  0  0  0  0
   58.9690   34.4170   44.8090 C   0  0  0  0  0  0  0  0  0  0  0  0
   58.8960   33.0720   45.1020 C   0  0  0  0  0  0  0  0  0  0  0  0
   58.4970   32.1840   44.1730 N   0  0  0  0  0  0  0  0  0  0  0  0
   58.1520   32.7190   42.8660 C   0  0  0  0  0  0  0  0  0  0  0  0
   58.4240   30.8720   44.4550 C   0  0  0  0  0  0  0  0  0  0  0  0
   58.0660   29.8230   43.7140 N   0  0  0  0  0  0  0  0  0  0  0  0
   58.1580   28.6960   44.4450 C   0  0  0  0  0  0  0  0  0  0  0  0
   57.9090   27.3690   44.1630 C   0  0  0  0  0  0  0  0  0  0  0  0
   58.0930   26.3910   45.1260 C   0  0  0  0  0  0  0  0  0  0  0  0
   58.5310   26.7690   46.3790 C   0  0  0  0  0  0  0  0  0  0  0  0
   58.7180   25.6900   47.3870 C   0  0  0  0  0  0  0  0  0  0  0  0
   58.7950   28.0950   46.7110 C   0  0  0  0  0  0  0  0  0  0  0  0
   58.6010   29.0410   45.7280 C   0  0  0  0  0  0  0  0  0  0  0  0
   58.7610   30.4120   45.7100 C   0  0  0  0  0  0  0  0  0  0  0  0
   63.8631   34.7500   46.6113 H   0  0  0  0  0  0  0  0  0  0  0  0
   64.0259   33.1596   45.7922 H   0  0  0  0  0  0  0  0  0  0  0  0
   62.4449   34.0122   45.7922 H   0  0  0  0  0  0  0  0  0  0  0  0
   63.6563   33.4343   48.4605 H   0  0  0  0  0  0  0  0  0  0  0  0
   61.9314   33.3621   47.8947 H   0  0  0  0  0  0  0  0  0  0  0  0
   63.8910   31.3900   47.0080 H   0  0  0  0  0  0  0  0  0  0  0  0
   61.2859   31.7531   46.4664 H   0  0  0  0  0  0  0  0  0  0  0  0
   62.0821   30.1253   46.5922 H   0  0  0  0  0  0  0  0  0  0  0  0
   61.0849   29.6333   48.5377 H   0  0  0  0  0  0  0  0  0  0  0  0
   61.2095   31.3391   49.1400 H   0  0  0  0  0  0  0  0  0  0  0  0
   58.7790   30.8110   48.6920 H   0  0  0  0  0  0  0  0  0  0  0  0
   59.9163   33.2048   48.3126 H   0  0  0  0  0  0  0  0  0  0  0  0
   60.0551   35.6418   47.7966 H   0  0  0  0  0  0  0  0  0  0  0  0
   59.4249   36.3864   45.5076 H   0  0  0  0  0  0  0  0  0  0  0  0
   58.6991   34.7723   43.8036 H   0  0  0  0  0  0  0  0  0  0  0  0
   57.5597   33.6375   42.9905 H   0  0  0  0  0  0  0  0  0  0  0  0
   59.0724   32.9489   42.3093 H   0  0  0  0  0  0  0  0  0  0  0  0
   57.5628   31.9754   42.3093 H   0  0  0  0  0  0  0  0  0  0  0  0
   57.7470   29.8110   42.6990 H   0  0  0  0  0  0  0  0  0  0  0  0
   57.5596   27.0837   43.1597 H   0  0  0  0  0  0  0  0  0  0  0  0
   57.8940   25.3337   44.8968 H   0  0  0  0  0  0  0  0  0  0  0  0
   58.6441   26.1162   48.3984 H   0  0  0  0  0  0  0  0  0  0  0  0
   57.9391   24.9248   47.2538 H   0  0  0  0  0  0  0  0  0  0  0  0
   59.7090   25.2315   47.2538 H   0  0  0  0  0  0  0  0  0  0  0  0
   59.1438   28.3757   47.7158 H   0  0  0  0  0  0  0  0  0  0  0  0
  1  2  1  0
  2  3  1  0
  3  4  1  0
  4  5  1  0
  5  6  1  0
  6  7  1  0
  7  8  2  0
  8  9  1  0
  9 10  2  0
 10 11  1  0
 11 12  2  0
 12 13  1  0
 13 14  2  0
 14 15  1  0
 14 16  1  0
 16 17  1  0
 17 18  1  0
 18 19  2  0
 19 20  1  0
 20 21  2  0
 21 22  1  0
 21 23  1  0
 23 24  2  0
 24 25  1  0
 25  7  1  0
 13  8  1  0
 25 16  2  0
 24 18  1  0
  1 26  1  0
  1 27  1  0
  1 28  1  0
  2 29  1  0
  2 30  1  0
  3 31  1  0
  4 32  1  0
  4 33  1  0
  5 34  1  0
  5 35  1  0
  6 36  1  0
  9 37  1  0
 10 38  1  0
 11 39  1  0
 12 40  1  0
 15 41  1  0
 15 42  1  0
 15 43  1  0
 17 44  1  0
 19 45  1  0
 20 46  1  0
 22 47  1  0
 22 48  1  0
 22 49  1  0
 23 50  1  0
M  CHG  1  14   1
M  END
>  <smiles>  (13) 
CCNCCNc1c2ccccc2[n+](C)c2[nH]c3ccc(C)cc3c12

>  <score_type>  (13) 
oracle

>  <origin>  (13) 
adg

>  <m_score__min__energy>  (13) 
-6.29

>  <m_primary>  (13) 
energy

$$$$
16:0
     RDKit          3D

 23 23  0  0  1  0  0  0  0  0999 V2000
   55.8670   23.4320   43.9590 C   0  0  0  0  0  0  0  0  0  0  0  0
   55.9230   23.6600   45.4510 C   0  0  0  0  0  0  0  0  0  0  0  0
   56.7650   24.8070   45.7240 N   0  0  0  0  0  0  0  0  0  0  0  0
   56.2100   26.0870   45.9930 C   0  0  0  0  0  0  0  0  0  0  0  0
   54.9720   26.3190   46.0160 O   0  0  0  0  0  0  0  0  0  0  0  0
   57.0670   27.2070   46.2600 N   0  0  0  0  0  0  0  0  0  0  0  0
   57.1910   28.2050   45.4830 C   0  0  0  0  0  0  0  0  0  0  0  0
   58.4250   28.7810   45.3020 C   0  0  0  0  0  0  0  0  0  0  0  0
   58.5230   29.8650   44.4500 C   0  0  0  0  0  0  0  0  0  0  0  0
   57.3800   30.3190   43.8200 C   0  0  0  0  0  0  0  0  0  0  0  0
   57.4490   31.8200   42.6240 Br  0  0  0  0  0  0  0  0  0  0  0  0
   56.1390   29.7270   44.0120 C   0  0  0  0  0  0  0  0  0  0  0  0
   56.0770   28.6660   44.8540 N   0  0  0  0  0  0  0  0  0  0  0  0
   55.6090   22.3817   43.7580 H   0  0  0  0  0  0  0  0  0  0  0  0
   55.1034   24.0883   43.5162 H   0  0  0  0  0  0  0  0  0  0  0  0
   56.8478   23.6599   43.5162 H   0  0  0  0  0  0  0  0  0  0  0  0
   54.9088   23.8482   45.8332 H   0  0  0  0  0  0  0  0  0  0  0  0
   56.3374   22.7697   45.9467 H   0  0  0  0  0  0  0  0  0  0  0  0
   57.8110   24.7200   45.7290 H   0  0  0  0  0  0  0  0  0  0  0  0
   59.3121   28.3897   45.8216 H   0  0  0  0  0  0  0  0  0  0  0  0
   59.4917   30.3565   44.2769 H   0  0  0  0  0  0  0  0  0  0  0  0
   55.2409   30.1040   43.5009 H   0  0  0  0  0  0  0  0  0  0  0  0
   55.1470   28.2160   45.0040 H   0  0  0  0  0  0  0  0  0  0  0  0
  1  2  1  0
  2  3  1  0
  3  4  1  0
  4  5  2  0
  4  6  1  0
  6  7  2  0
  7  8  1  0
  8  9  2  0
  9 10  1  0
 10 11  1  0
 10 12  2  0
 12 13  1  0
 13  7  1  0
  1 14  1  0
  1 15  1  0
  1 16  1  0
  2 17  1  0
  2 18  1  0
  3 19  1  0
  8 20  1  0
  9 21  1  0
 12 22  1  0
 13 23  1  0
M  END
>  <smiles>  (14) 
CCNC(=O)N=c1ccc(Br)c[nH]1

>  <score_type>  (14) 
oracle

>  <origin>  (14) 
adg

>  <m_score__min__energy>  (14) 
-5.9900000000000002

>  <m_primary>  (14) 
energy

$$$$
17:0
     RDKit          3D

 78 81  0  0  1  0  0  0  0  0999 V2000
   56.5050   29.7130   53.4660 C   0  0  0  0  0  0  0  0  0  0  0  0
   57.4610   29.3380   52.3790 C   0  0  0  0  0  0  0  0  0  0  0  0
   57.5670   30.1700   51.2560 N   0  0  0  0  0  0  0  0  0  0  0  0
   57.5390   31.6010   51.4060 C   0  0  0  0  0  0  0  0  0  0  0  0
   58.4830   32.3530   50.5710 C   0  0  0  0  0  0  0  0  0  0  0  0
   59.2200   31.5930   49.5330 N   0  0  0  0  0  0  0  0  0  0  0  0
   60.2910   32.2400   48.8620 C   0  0  0  0  0  0  0  0  0  0  0  0
   59.8980   32.9310   47.6980 C   0  0  0  0  0  0  0  0  0  0  0  0
   58.5580   33.0140   47.3610 C   0  0  0  0  0  0  0  0  0  0  0  0
   58.0870   33.6790   46.2490 C   0  0  0  0  0  0  0  0  0  0  0  0
   59.0100   34.2890   45.4410 C   0  0  0  0  0  0  0  0  0  0  0  0
   60.3730   34.2240   45.7560 C   0  0  0  0  0  0  0  0  0  0  0  0
   60.8200   33.5490   46.8830 C   0  0  0  0  0  0  0  0  0  0  0  0
   62.1270   33.5030   47.1940 N   0  0  0  0  0  0  0  0  0  0  0  0
   63.1420   34.1710   46.3710 C   0  0  0  0  0  0  0  0  0  0  0  0
   62.5110   32.8400   48.3180 C   0  0  0  0  0  0  0  0  0  0  0  0
   63.8620   32.8620   48.5910 C   0  0  0  0  0  0  0  0  0  0  0  0
   64.2850   32.2370   49.7410 C   0  0  0  0  0  0  0  0  0  0  0  0
   63.3890   31.6300   50.5610 C   0  0  0  0  0  0  0  0  0  0  0  0
   62.0130   31.5880   50.3150 C   0  0  0  0  0  0  0  0  0  0  0  0
   61.1850   30.9800   51.2700 N   0  0  0  0  0  0  0  0  0  0  0  0
   61.0700   29.5000   51.2810 C   0  0  0  0  0  0  0  0  0  0  0  0
   61.1780   28.9800   49.8890 C   0  0  0  0  0  0  0  0  0  0  0  0
   60.0620   28.1250   49.4180 C   0  0  0  0  0  0  0  0  0  0  0  0
   58.9780   28.7850   48.7720 N   0  0  0  0  0  0  0  0  0  0  0  0
   59.3160   29.3690   47.5220 C   0  0  1  0  0  0  0  0  0  0  0  0
   60.3250   28.5960   46.7020 C   0  0  0  0  0  0  0  0  0  0  0  0
   60.1600   29.3230   45.3580 C   0  0  0  0  0  0  0  0  0  0  0  0
   58.7400   29.4170   45.2290 N   0  0  2  0  0  0  0  0  0  0  0  0
   58.2670   28.1960   44.5940 C   0  0  0  0  0  0  0  0  0  0  0  0
   58.4060   30.5710   44.4100 C   0  0  0  0  0  0  0  0  0  0  0  0
   57.0270   30.4460   43.8600 C   0  0  0  0  0  0  0  0  0  0  0  0
   58.1950   29.5620   46.5550 C   0  0  0  0  0  0  0  0  0  0  0  0
   61.5990   32.2100   49.1580 C   0  0  0  0  0  0  0  0  0  0  0  0
   56.9724   29.5297   54.4447 H   0  0  0  0  0  0  0  0  0  0  0  0
   56.2477   30.7787   53.3764 H   0  0  0  0  0  0  0  0  0  0  0  0
   55.5917   29.1065   53.3764 H   0  0  0  0  0  0  0  0  0  0  0  0
   58.4609   29.2799   52.8338 H   0  0  0  0  0  0  0  0  0  0  0  0
   57.0516   28.3995   51.9769 H   0  0  0  0  0  0  0  0  0  0  0  0
   58.3000   29.8200   50.6040 H   0  0  0  0  0  0  0  0  0  0  0  0
   56.5237   31.9455   51.1603 H   0  0  0  0  0  0  0  0  0  0  0  0
   57.8409   31.7966   52.4455 H   0  0  0  0  0  0  0  0  0  0  0  0
   57.9158   33.1457   50.0612 H   0  0  0  0  0  0  0  0  0  0  0  0
   59.2572   32.7090   51.2666 H   0  0  0  0  0  0  0  0  0  0  0  0
   58.9690   30.5730   49.3450 H   0  0  0  0  0  0  0  0  0  0  0  0
   57.8268   32.5209   48.0184 H   0  0  0  0  0  0  0  0  0  0  0  0
   57.0119   33.7183   46.0194 H   0  0  0  0  0  0  0  0  0  0  0  0
   58.6797   34.8311   44.5427 H   0  0  0  0  0  0  0  0  0  0  0  0
   61.1031   34.7174   45.0976 H   0  0  0  0  0  0  0  0  0  0  0  0
   63.8814   34.6576   47.0240 H   0  0  0  0  0  0  0  0  0  0  0  0
   63.6464   33.4278   45.7360 H   0  0  0  0  0  0  0  0  0  0  0  0
   62.6589   34.9283   45.7360 H   0  0  0  0  0  0  0  0  0  0  0  0
   64.5737   33.3597   47.9159 H   0  0  0  0  0  0  0  0  0  0  0  0
   65.3546   32.2289   49.9977 H   0  0  0  0  0  0  0  0  0  0  0  0
   63.7675   31.1430   51.4718 H   0  0  0  0  0  0  0  0  0  0  0  0
   60.6180   31.3950   52.0140 H   0  0  0  0  0  0  0  0  0  0  0  0
   61.8779   29.0746   51.8944 H   0  0  0  0  0  0  0  0  0  0  0  0
   60.0961   29.2124   51.7039 H   0  0  0  0  0  0  0  0  0  0  0  0
   61.2460   29.8448   49.2126 H   0  0  0  0  0  0  0  0  0  0  0  0
   62.0657   28.3305   49.8869 H   0  0  0  0  0  0  0  0  0  0  0  0
   60.4783   27.3951   48.7081 H   0  0  0  0  0  0  0  0  0  0  0  0
   59.6305   27.6857   50.3295 H   0  0  0  0  0  0  0  0  0  0  0  0
   58.3560   29.3530   49.3560 H   0  0  0  0  0  0  0  0  0  0  0  0
   59.7049   30.3274   47.8965 H   0  0  0  0  0  0  0  0  0  0  0  0
   61.3446   28.6974   47.1021 H   0  0  0  0  0  0  0  0  0  0  0  0
   60.1707   27.5073   46.6703 H   0  0  0  0  0  0  0  0  0  0  0  0
   60.6234   30.3202   45.3861 H   0  0  0  0  0  0  0  0  0  0  0  0
   60.6432   28.8043   44.5169 H   0  0  0  0  0  0  0  0  0  0  0  0
   57.9844   27.4664   45.3672 H   0  0  0  0  0  0  0  0  0  0  0  0
   57.3921   28.4238   43.9674 H   0  0  0  0  0  0  0  0  0  0  0  0
   59.0671   27.7749   43.9674 H   0  0  0  0  0  0  0  0  0  0  0  0
   58.4680   31.4806   45.0255 H   0  0  0  0  0  0  0  0  0  0  0  0
   59.1167   30.6274   43.5723 H   0  0  0  0  0  0  0  0  0  0  0  0
   56.3063   30.3807   44.6885 H   0  0  0  0  0  0  0  0  0  0  0  0
   56.7972   31.3270   43.2427 H   0  0  0  0  0  0  0  0  0  0  0  0
   56.9593   29.5380   43.2427 H   0  0  0  0  0  0  0  0  0  0  0  0
   57.7627   30.5662   46.6761 H   0  0  0  0  0  0  0  0  0  0  0  0
   57.3990   28.8234   46.7307 H   0  0  0  0  0  0  0  0  0  0  0  0
  1  2  1  0
  2  3  1  0
  3  4  1  0
  4  5  1  0
  5  6  1  0
  6  7  1  0
  7  8  2  0
  8  9  1  0
  9 10  2  0
 10 11  1  0
 11 12  2  0
 12 13  1  0
 13 14  2  0
 14 15  1  0
 14 16  1  0
 16 17  2  0
 17 18  1  0
 18 19  2  0
 19 20  1  0
 20 21  1  0
 21 22  1  0
 22 23  1  0
 23 24  1  0
 24 25  1  0
 25 26  1  0
 26 27  1  0
 27 28  1  0
 28 29  1  0
 29 30  1  6
 29 31  1  0
 31 32  1  0
 29 33  1  0
 20 34  2  0
 34  7  1  0
 13  8  1  0
 34 16  1  0
 33 26  1  0
  1 35  1  0
  1 36  1  0
  1 37  1  0
  2 38  1  0
  2 39  1  0
  3 40  1  0
  4 41  1  0
  4 42  1  0
  5 43  1  0
  5 44  1  0
  6 45  1  0
  9 46  1  0
 10 47  1  0
 11 48  1  0
 12 49  1  0
 15 50  1  0
 15 51  1  0
 15 52  1  0
 17 53  1  0
 18 54  1  0
 19 55  1  0
 21 56  1  0
 22 57  1  0
 22 58  1  0
 23 59  1  0
 23 60  1  0
 24 61  1  0
 24 62  1  0
 25 63  1  0
 26 64  1  1
 27 65  1  0
 27 66  1  0
 28 67  1  0
 28 68  1  0
 30 69  1  0
 30 70  1  0
 30 71  1  0
 31 72  1  0
 31 73  1  0
 32 74  1  0
 32 75  1  0
 32 76  1  0
 33 77  1  0
 33 78  1  0
M  CHG  2  14   1  29   1
M  END
>  <smiles>  (15) 
CCNCCNc1c2ccccc2[n+](C)c2cccc(NCCCNC3CC[N+](C)(CC)C3)c12

>  <score_type>  (15) 
oracle

>  <origin>  (15) 
adg

>  <m_score__min__energy>  (15) 
-5.4500000000000002

>  <m_primary>  (15) 
energy

$$$$
18:0
     RDKit          3D

 40 42  0  0  0  0  0  0  0  0999 V2000
   59.8710   29.4540   46.0240 C   0  0  0  0  0  0  0  0  0  0  0  0
   59.2940   29.6080   44.6430 C   0  0  0  0  0  0  0  0  0  0  0  0
   57.8760   29.8940   44.6670 N   0  0  0  0  0  0  0  0  0  0  0  0
   57.2870   31.0610   44.3420 C   0  0  0  0  0  0  0  0  0  0  0  0
   58.1440   32.5440   43.8090 S   0  0  0  0  0  0  0  0  0  0  0  0
   57.4860   33.9890   44.7240 C   0  0  0  0  0  0  0  0  0  0  0  0
   57.1360   33.5020   46.1120 C   0  0  0  0  0  0  0  0  0  0  0  0
   58.1220   33.7700   47.1060 N   0  0  0  0  0  0  0  0  0  0  0  0
   58.5070   32.6610   47.9190 C   0  0  0  0  0  0  0  0  0  0  0  0
   59.9300   32.2970   47.6450 C   0  0  0  0  0  0  0  0  0  0  0  0
   60.7560   33.3300   48.0020 O   0  0  0  0  0  0  0  0  0  0  0  0
   60.3910   34.5760   47.5640 C   0  0  0  0  0  0  0  0  0  0  0  0
   59.1950   34.5920   46.6440 C   0  0  0  0  0  0  0  0  0  0  0  0
   55.9380   30.9340   44.4880 N   0  0  0  0  0  0  0  0  0  0  0  0
   55.7230   29.6780   44.9030 N   0  0  0  0  0  0  0  0  0  0  0  0
   56.8850   29.0610   45.0090 C   0  0  0  0  0  0  0  0  0  0  0  0
   57.1880   27.6640   45.4330 C   0  0  0  0  0  0  0  0  0  0  0  0
   57.0880   26.8930   46.2670 N   0  0  0  0  0  0  0  0  0  0  0  0
   57.4810   25.6420   46.3760 C   0  0  0  0  0  0  0  0  0  0  0  0
   58.1230   25.2070   45.2790 C   0  0  0  0  0  0  0  0  0  0  0  0
   58.1430   26.6230   44.1140 S   0  0  0  0  0  0  0  0  0  0  0  0
   59.0919   29.6619   46.7722 H   0  0  0  0  0  0  0  0  0  0  0  0
   60.2399   28.4260   46.1547 H   0  0  0  0  0  0  0  0  0  0  0  0
   60.7031   30.1615   46.1547 H   0  0  0  0  0  0  0  0  0  0  0  0
   59.8124   30.4336   44.1335 H   0  0  0  0  0  0  0  0  0  0  0  0
   59.4352   28.6550   44.1121 H   0  0  0  0  0  0  0  0  0  0  0  0
   58.2477   34.7806   44.7809 H   0  0  0  0  0  0  0  0  0  0  0  0
   56.6043   34.4094   44.2182 H   0  0  0  0  0  0  0  0  0  0  0  0
   56.1990   33.9893   46.4194 H   0  0  0  0  0  0  0  0  0  0  0  0
   57.0541   32.4071   46.0445 H   0  0  0  0  0  0  0  0  0  0  0  0
   58.3978   32.9314   48.9796 H   0  0  0  0  0  0  0  0  0  0  0  0
   57.8625   31.8007   47.6854 H   0  0  0  0  0  0  0  0  0  0  0  0
   60.1951   31.4014   48.2261 H   0  0  0  0  0  0  0  0  0  0  0  0
   60.0499   32.0942   46.5705 H   0  0  0  0  0  0  0  0  0  0  0  0
   60.1560   35.1938   48.4433 H   0  0  0  0  0  0  0  0  0  0  0  0
   61.2393   34.9625   46.9800 H   0  0  0  0  0  0  0  0  0  0  0  0
   58.8320   35.6269   46.5596 H   0  0  0  0  0  0  0  0  0  0  0  0
   59.5220   34.1900   45.6737 H   0  0  0  0  0  0  0  0  0  0  0  0
   57.3036   25.0212   47.2666 H   0  0  0  0  0  0  0  0  0  0  0  0
   58.5493   24.2065   45.1135 H   0  0  0  0  0  0  0  0  0  0  0  0
  1  2  1  0
  2  3  1  0
  3  4  1  0
  4  5  1  0
  5  6  1  0
  6  7  1  0
  7  8  1  0
  8  9  1  0
  9 10  1  0
 10 11  1  0
 11 12  1  0
 12 13  1  0
  4 14  2  0
 14 15  1  0
 15 16  2  0
 16 17  1  0
 17 18  2  0
 18 19  1  0
 19 20  2  0
 20 21  1  0
 16  3  1  0
 21 17  1  0
 13  8  1  0
  1 22  1  0
  1 23  1  0
  1 24  1  0
  2 25  1  0
  2 26  1  0
  6 27  1  0
  6 28  1  0
  7 29  1  0
  7 30  1  0
  9 31  1  0
  9 32  1  0
 10 33  1  0
 10 34  1  0
 12 35  1  0
 12 36  1  0
 13 37  1  0
 13 38  1  0
 19 39  1  0
 20 40  1  0
M  END
>  <smiles>  (16) 
CCn1c(SCCN2CCOCC2)nnc1-c1nccs1

>  <score_type>  (16) 
oracle

>  <origin>  (16) 
adg

>  <m_score__min__energy>  (16) 
-7.3300000000000001

>  <m_primary>  (16) 
energy

$$$$
19:0
     RDKit          3D

 58 60  0  0  0  0  0  0  0  0999 V2000
   63.1580   33.8360   46.3670 C   0  0  0  0  0  0  0  0  0  0  0  0
   63.5860   33.3470   47.7160 C   0  0  0  0  0  0  0  0  0  0  0  0
   63.5630   31.9210   47.8460 N   0  0  0  0  0  0  0  0  0  0  0  0
   62.8620   31.4490   49.0050 C   0  0  0  0  0  0  0  0  0  0  0  0
   61.7080   30.5110   48.5880 C   0  0  0  0  0  0  0  0  0  0  0  0
   61.5140   30.6540   47.1900 N   0  0  0  0  0  0  0  0  0  0  0  0
   60.2940   30.7640   46.4910 C   0  0  0  0  0  0  0  0  0  0  0  0
   59.4580   31.8540   46.6200 C   0  0  0  0  0  0  0  0  0  0  0  0
   59.7380   32.9730   47.4410 N   0  0  0  0  0  0  0  0  0  0  0  0
   59.5300   33.0350   48.8320 C   0  0  0  0  0  0  0  0  0  0  0  0
   60.2860   33.8240   49.6660 C   0  0  0  0  0  0  0  0  0  0  0  0
   60.0470   33.8570   51.0450 C   0  0  0  0  0  0  0  0  0  0  0  0
   59.0420   33.0960   51.6130 C   0  0  0  0  0  0  0  0  0  0  0  0
   58.7250   33.0730   53.0450 C   0  0  0  0  0  0  0  0  0  0  0  0
   59.1870   34.3100   53.7910 C   0  0  0  0  0  0  0  0  0  0  0  0
   58.2760   32.2980   50.7730 C   0  0  0  0  0  0  0  0  0  0  0  0
   58.5310   32.2830   49.4160 C   0  0  0  0  0  0  0  0  0  0  0  0
   58.2720   31.9340   45.9340 N   0  0  0  0  0  0  0  0  0  0  0  0
   57.4060   33.0890   46.0800 C   0  0  0  0  0  0  0  0  0  0  0  0
   57.8790   30.9660   45.1160 C   0  0  0  0  0  0  0  0  0  0  0  0
   56.6810   31.0880   44.4420 C   0  0  0  0  0  0  0  0  0  0  0  0
   56.2510   30.0900   43.5790 C   0  0  0  0  0  0  0  0  0  0  0  0
   57.0700   28.9930   43.4340 C   0  0  0  0  0  0  0  0  0  0  0  0
   58.2840   28.8790   44.1230 C   0  0  0  0  0  0  0  0  0  0  0  0
   58.7090   29.8670   44.9780 C   0  0  0  0  0  0  0  0  0  0  0  0
   59.8750   29.7670   45.6420 N   0  0  0  0  0  0  0  0  0  0  0  0
   60.7380   28.6340   45.5220 C   0  0  0  0  0  0  0  0  0  0  0  0
   62.4378   34.6588   46.4868 H   0  0  0  0  0  0  0  0  0  0  0  0
   64.0367   34.1957   45.8116 H   0  0  0  0  0  0  0  0  0  0  0  0
   62.6850   33.0127   45.8116 H   0  0  0  0  0  0  0  0  0  0  0  0
   64.6124   33.6961   47.9022 H   0  0  0  0  0  0  0  0  0  0  0  0
   62.8671   33.7477   48.4458 H   0  0  0  0  0  0  0  0  0  0  0  0
   64.5180   31.5280   47.7720 H   0  0  0  0  0  0  0  0  0  0  0  0
   63.5606   30.8991   49.6528 H   0  0  0  0  0  0  0  0  0  0  0  0
   62.4449   32.3107   49.5467 H   0  0  0  0  0  0  0  0  0  0  0  0
   61.9692   29.4690   48.8245 H   0  0  0  0  0  0  0  0  0  0  0  0
   60.7875   30.7707   49.1313 H   0  0  0  0  0  0  0  0  0  0  0  0
   62.3920   30.6940   46.5880 H   0  0  0  0  0  0  0  0  0  0  0  0
   60.1250   33.8240   46.9310 H   0  0  0  0  0  0  0  0  0  0  0  0
   61.0928   34.4402   49.2425 H   0  0  0  0  0  0  0  0  0  0  0  0
   60.6686   34.4985   51.6869 H   0  0  0  0  0  0  0  0  0  0  0  0
   57.6343   32.9863   53.1580 H   0  0  0  0  0  0  0  0  0  0  0  0
   59.2610   32.2163   53.4795 H   0  0  0  0  0  0  0  0  0  0  0  0
   59.1202   34.1312   54.8743 H   0  0  0  0  0  0  0  0  0  0  0  0
   60.2293   34.5338   53.5199 H   0  0  0  0  0  0  0  0  0  0  0  0
   58.5466   35.1623   53.5199 H   0  0  0  0  0  0  0  0  0  0  0  0
   57.4672   31.6787   51.1882 H   0  0  0  0  0  0  0  0  0  0  0  0
   57.9102   31.6431   48.7717 H   0  0  0  0  0  0  0  0  0  0  0  0
   57.2498   33.2974   47.1487 H   0  0  0  0  0  0  0  0  0  0  0  0
   57.8744   33.9614   45.6010 H   0  0  0  0  0  0  0  0  0  0  0  0
   56.4373   32.8838   45.6010 H   0  0  0  0  0  0  0  0  0  0  0  0
   56.0612   31.9846   44.5902 H   0  0  0  0  0  0  0  0  0  0  0  0
   55.2984   30.1718   43.0351 H   0  0  0  0  0  0  0  0  0  0  0  0
   56.7619   28.1824   42.7573 H   0  0  0  0  0  0  0  0  0  0  0  0
   58.9071   27.9843   43.9773 H   0  0  0  0  0  0  0  0  0  0  0  0
   61.0121   28.2741   46.5246 H   0  0  0  0  0  0  0  0  0  0  0  0
   60.2185   27.8338   44.9745 H   0  0  0  0  0  0  0  0  0  0  0  0
   61.6475   28.9222   44.9745 H   0  0  0  0  0  0  0  0  0  0  0  0
  1  2  1  0
  2  3  1  0
  3  4  1  0
  4  5  1  0
  5  6  1  0
  6  7  1  0
  7  8  2  0
  8  9  1  0
  9 10  1  0
 10 11  2  0
 11 12  1  0
 12 13  2  0
 13 14  1  0
 14 15  1  0
 13 16  1  0
 16 17  2  0
  8 18  1  0
 18 19  1  0
 18 20  2  0
 20 21  1  0
 21 22  2  0
 22 23  1  0
 23 24  2  0
 24 25  1  0
 25 26  2  0
 26 27  1  0
 26  7  1  0
 17 10  1  0
 25 20  1  0
  1 28  1  0
  1 29  1  0
  1 30  1  0
  2 31  1  0
  2 32  1  0
  3 33  1  0
  4 34  1  0
  4 35  1  0
  5 36  1  0
  5 37  1  0
  6 38  1  0
  9 39  1  0
 11 40  1  0
 12 41  1  0
 14 42  1  0
 14 43  1  0
 15 44  1  0
 15 45  1  0
 15 46  1  0
 16 47  1  0
 17 48  1  0
 19 49  1  0
 19 50  1  0
 19 51  1  0
 21 52  1  0
 22 53  1  0
 23 54  1  0
 24 55  1  0
 27 56  1  0
 27 57  1  0
 27 58  1  0
M  CHG  2  18   1  26   1
M  END
>  <smiles>  (17) 
CCNCCNc1c(Nc2ccc(CC)cc2)[n+](C)c2ccccc2[n+]1C

>  <score_type>  (17) 
oracle

>  <origin>  (17) 
adg

>  <m_score__min__energy>  (17) 
-5.21

>  <m_primary>  (17) 
energy

$$$$
20:0
     RDKit          3D

 59 61  0  0  0  0  0  0  0  0999 V2000
   59.3050   33.4710   51.3090 C   0  0  0  0  0  0  0  0  0  0  0  0
   60.6130   32.7070   51.2740 C   0  0  0  0  0  0  0  0  0  0  0  0
   60.6800   31.9450   50.0420 N   0  0  0  0  0  0  0  0  0  0  0  0
   59.8840   30.7690   50.1820 C   0  0  0  0  0  0  0  0  0  0  0  0
   59.4610   30.1270   48.8790 C   0  0  0  0  0  0  0  0  0  0  0  0
   60.0740   30.7510   47.7090 N   0  0  0  0  0  0  0  0  0  0  0  0
   59.2630   30.8770   46.5680 C   0  0  0  0  0  0  0  0  0  0  0  0
   59.0470   29.6630   45.8780 C   0  0  0  0  0  0  0  0  0  0  0  0
   59.5930   28.4840   46.4000 C   0  0  0  0  0  0  0  0  0  0  0  0
   59.4320   27.2580   45.7920 C   0  0  0  0  0  0  0  0  0  0  0  0
   58.7080   27.2090   44.6370 C   0  0  0  0  0  0  0  0  0  0  0  0
   58.1590   28.3670   44.1050 C   0  0  0  0  0  0  0  0  0  0  0  0
   58.3250   29.5990   44.7220 C   0  0  0  0  0  0  0  0  0  0  0  0
   57.8060   30.7080   44.2210 N   0  0  0  0  0  0  0  0  0  0  0  0
   57.0240   30.7290   43.0040 C   0  0  0  0  0  0  0  0  0  0  0  0
   57.9880   31.8870   44.8480 C   0  0  0  0  0  0  0  0  0  0  0  0
   57.4350   33.0120   44.2700 C   0  0  0  0  0  0  0  0  0  0  0  0
   57.6080   34.2130   44.8670 C   0  0  0  0  0  0  0  0  0  0  0  0
   58.3380   34.3090   46.0580 C   0  0  0  0  0  0  0  0  0  0  0  0
   58.9060   33.2080   46.6680 C   0  0  0  0  0  0  0  0  0  0  0  0
   59.5590   33.3970   47.8920 N   0  0  0  0  0  0  0  0  0  0  0  0
   60.7940   34.2150   48.0170 C   0  0  0  0  0  0  0  0  0  0  0  0
   61.9800   33.5610   47.3870 C   0  0  0  0  0  0  0  0  0  0  0  0
   62.6750   32.5550   48.1000 N   0  0  0  0  0  0  0  0  0  0  0  0
   63.5850   33.0110   49.1060 C   0  0  0  0  0  0  0  0  0  0  0  0
   63.3250   31.6660   47.1370 C   0  0  0  0  0  0  0  0  0  0  0  0
   58.7180   31.9990   46.0370 C   0  0  0  0  0  0  0  0  0  0  0  0
   59.0092   33.6438   52.3543 H   0  0  0  0  0  0  0  0  0  0  0  0
   59.4311   34.4375   50.7991 H   0  0  0  0  0  0  0  0  0  0  0  0
   58.5251   32.8864   50.7991 H   0  0  0  0  0  0  0  0  0  0  0  0
   61.4546   33.4140   51.3170 H   0  0  0  0  0  0  0  0  0  0  0  0
   60.6699   32.0264   52.1363 H   0  0  0  0  0  0  0  0  0  0  0  0
   61.6830   31.7380   49.8500 H   0  0  0  0  0  0  0  0  0  0  0  0
   60.4639   30.0301   50.7545 H   0  0  0  0  0  0  0  0  0  0  0  0
   58.9580   31.0817   50.6866 H   0  0  0  0  0  0  0  0  0  0  0  0
   59.7493   29.0657   48.9015 H   0  0  0  0  0  0  0  0  0  0  0  0
   58.3724   30.2554   48.7875 H   0  0  0  0  0  0  0  0  0  0  0  0
   61.0740   31.1270   47.7400 H   0  0  0  0  0  0  0  0  0  0  0  0
   60.1736   28.5387   47.3327 H   0  0  0  0  0  0  0  0  0  0  0  0
   59.8733   26.3478   46.2243 H   0  0  0  0  0  0  0  0  0  0  0  0
   58.5587   26.2470   44.1249 H   0  0  0  0  0  0  0  0  0  0  0  0
   57.5787   28.3071   43.1725 H   0  0  0  0  0  0  0  0  0  0  0  0
   55.9537   30.7577   43.2563 H   0  0  0  0  0  0  0  0  0  0  0  0
   57.2860   31.6204   42.4152 H   0  0  0  0  0  0  0  0  0  0  0  0
   57.2377   29.8248   42.4152 H   0  0  0  0  0  0  0  0  0  0  0  0
   56.8606   32.9325   43.3352 H   0  0  0  0  0  0  0  0  0  0  0  0
   57.1739   35.1173   44.4156 H   0  0  0  0  0  0  0  0  0  0  0  0
   58.4636   35.2972   46.5246 H   0  0  0  0  0  0  0  0  0  0  0  0
   59.2900   33.0610   48.8220 H   0  0  0  0  0  0  0  0  0  0  0  0
   60.6252   35.1856   47.5277 H   0  0  0  0  0  0  0  0  0  0  0  0
   61.0086   34.3342   49.0893 H   0  0  0  0  0  0  0  0  0  0  0  0
   61.6347   33.1075   46.4462 H   0  0  0  0  0  0  0  0  0  0  0  0
   62.7139   34.3761   47.3034 H   0  0  0  0  0  0  0  0  0  0  0  0
   63.1664   32.8012   50.1014 H   0  0  0  0  0  0  0  0  0  0  0  0
   64.5464   32.4882   48.9949 H   0  0  0  0  0  0  0  0  0  0  0  0
   63.7417   34.0941   48.9949 H   0  0  0  0  0  0  0  0  0  0  0  0
   63.8908   30.8921   47.6764 H   0  0  0  0  0  0  0  0  0  0  0  0
   62.5614   31.1886   46.5053 H   0  0  0  0  0  0  0  0  0  0  0  0
   64.0115   32.2488   46.5053 H   0  0  0  0  0  0  0  0  0  0  0  0
  1  2  1  0
  2  3  1  0
  3  4  1  0
  4  5  1  0
  5  6  1  0
  6  7  1  0
  7  8  2  0
  8  9  1  0
  9 10  2  0
 10 11  1  0
 11 12  2  0
 12 13  1  0
 13 14  2  0
 14 15  1  0
 14 16  1  0
 16 17  2  0
 17 18  1  0
 18 19  2  0
 19 20  1  0
 20 21  1  0
 21 22  1  0
 22 23  1  0
 23 24  1  0
 24 25  1  0
 24 26  1  0
 20 27  2  0
 27  7  1  0
 13  8  1  0
 27 16  1  0
  1 28  1  0
  1 29  1  0
  1 30  1  0
  2 31  1  0
  2 32  1  0
  3 33  1  0
  4 34  1  0
  4 35  1  0
  5 36  1  0
  5 37  1  0
  6 38  1  0
  9 39  1  0
 10 40  1  0
 11 41  1  0
 12 42  1  0
 15 43  1  0
 15 44  1  0
 15 45  1  0
 17 46  1  0
 18 47  1  0
 19 48  1  0
 21 49  1  0
 22 50  1  0
 22 51  1  0
 23 52  1  0
 23 53  1  0
 25 54  1  0
 25 55  1  0
 25 56  1  0
 26 57  1  0
 26 58  1  0
 26 59  1  0
M  CHG  1  14   1
M  END
>  <smiles>  (18) 
CCNCCNc1c2ccccc2[n+](C)c2cccc(NCCN(C)C)c12

>  <score_type>  (18) 
oracle

>  <origin>  (18) 
adg

>  <m_score__min__energy>  (18) 
-4.6100000000000003

>  <m_primary>  (18) 
energy

$$$$
21:0
     RDKit          3D

 46 49  0  0  0  0  0  0  0  0999 V2000
   63.4780   33.1340   46.9610 C   0  0  0  0  0  0  0  0  0  0  0  0
   63.0040   32.7140   48.3360 C   0  0  0  0  0  0  0  0  0  0  0  0
   62.7610   31.3570   48.4180 O   0  0  0  0  0  0  0  0  0  0  0  0
   61.6800   31.0480   49.2250 C   0  0  0  0  0  0  0  0  0  0  0  0
   60.4640   30.5780   48.4460 C   0  0  0  0  0  0  0  0  0  0  0  0
   60.7390   30.5910   47.0240 N   0  0  0  0  0  0  0  0  0  0  0  0
   59.6110   30.5620   46.1520 C   0  0  0  0  0  0  0  0  0  0  0  0
   59.0630   31.7710   45.7380 C   0  0  0  0  0  0  0  0  0  0  0  0
   59.6410   32.9420   46.1940 C   0  0  0  0  0  0  0  0  0  0  0  0
   59.0810   34.1300   45.7720 C   0  0  0  0  0  0  0  0  0  0  0  0
   57.9960   34.2090   44.9330 C   0  0  0  0  0  0  0  0  0  0  0  0
   57.4190   33.0270   44.4770 C   0  0  0  0  0  0  0  0  0  0  0  0
   57.9720   31.8320   44.8960 C   0  0  0  0  0  0  0  0  0  0  0  0
   57.4450   30.6650   44.4790 N   0  0  0  0  0  0  0  0  0  0  0  0
   56.2840   30.7380   43.5820 C   0  0  0  0  0  0  0  0  0  0  0  0
   57.9380   29.4690   44.8500 C   0  0  0  0  0  0  0  0  0  0  0  0
   57.5840   28.1820   44.5660 N   0  0  0  0  0  0  0  0  0  0  0  0
   58.4210   27.3370   45.2060 C   0  0  0  0  0  0  0  0  0  0  0  0
   58.4910   25.9570   45.2490 C   0  0  0  0  0  0  0  0  0  0  0  0
   59.4690   25.3350   46.0000 C   0  0  0  0  0  0  0  0  0  0  0  0
   60.4010   26.0820   46.7260 C   0  0  0  0  0  0  0  0  0  0  0  0
   60.3390   27.4620   46.6890 C   0  0  0  0  0  0  0  0  0  0  0  0
   59.3570   28.0700   45.9360 C   0  0  0  0  0  0  0  0  0  0  0  0
   59.0390   29.3900   45.7010 C   0  0  0  0  0  0  0  0  0  0  0  0
   64.2978   33.8604   47.0618 H   0  0  0  0  0  0  0  0  0  0  0  0
   63.8359   32.2512   46.4110 H   0  0  0  0  0  0  0  0  0  0  0  0
   62.6447   33.5956   46.4110 H   0  0  0  0  0  0  0  0  0  0  0  0
   63.7769   32.9795   49.0723 H   0  0  0  0  0  0  0  0  0  0  0  0
   62.0575   33.2367   48.5383 H   0  0  0  0  0  0  0  0  0  0  0  0
   61.9798   30.2495   49.9196 H   0  0  0  0  0  0  0  0  0  0  0  0
   61.3930   31.9697   49.7523 H   0  0  0  0  0  0  0  0  0  0  0  0
   60.2084   29.5541   48.7563 H   0  0  0  0  0  0  0  0  0  0  0  0
   59.6236   31.2568   48.6530 H   0  0  0  0  0  0  0  0  0  0  0  0
   61.7100   30.6180   46.6240 H   0  0  0  0  0  0  0  0  0  0  0  0
   60.5118   32.9266   46.8659 H   0  0  0  0  0  0  0  0  0  0  0  0
   59.5295   35.0691   46.1282 H   0  0  0  0  0  0  0  0  0  0  0  0
   57.5918   35.1855   44.6280 H   0  0  0  0  0  0  0  0  0  0  0  0
   56.5493   33.0438   43.8036 H   0  0  0  0  0  0  0  0  0  0  0  0
   55.3622   30.7960   44.1794 H   0  0  0  0  0  0  0  0  0  0  0  0
   56.3666   31.6327   42.9475 H   0  0  0  0  0  0  0  0  0  0  0  0
   56.2539   29.8400   42.9475 H   0  0  0  0  0  0  0  0  0  0  0  0
   56.7850   27.9250   43.9470 H   0  0  0  0  0  0  0  0  0  0  0  0
   57.7660   25.3529   44.6837 H   0  0  0  0  0  0  0  0  0  0  0  0
   59.5151   24.2363   46.0272 H   0  0  0  0  0  0  0  0  0  0  0  0
   61.1760   25.5765   47.3208 H   0  0  0  0  0  0  0  0  0  0  0  0
   61.0637   28.0676   47.2530 H   0  0  0  0  0  0  0  0  0  0  0  0
  1  2  1  0
  2  3  1  0
  3  4  1  0
  4  5  1  0
  5  6  1  0
  6  7  1  0
  7  8  2  0
  8  9  1  0
  9 10  2  0
 10 11  1  0
 11 12  2  0
 12 13  1  0
 13 14  2  0
 14 15  1  0
 14 16  1  0
 16 17  1  0
 17 18  1  0
 18 19  2  0
 19 20  1  0
 20 21  2  0
 21 22  1  0
 22 23  2  0
 23 24  1  0
 24  7  1  0
 13  8  1  0
 24 16  2  0
 23 18  1  0
  1 25  1  0
  1 26  1  0
  1 27  1  0
  2 28  1  0
  2 29  1  0
  4 30  1  0
  4 31  1  0
  5 32  1  0
  5 33  1  0
  6 34  1  0
  9 35  1  0
 10 36  1  0
 11 37  1  0
 12 38  1  0
 15 39  1  0
 15 40  1  0
 15 41  1  0
 17 42  1  0
 19 43  1  0
 20 44  1  0
 21 45  1  0
 22 46  1  0
M  CHG  1  14   1
M  END
>  <smiles>  (19) 
CCOCCNc1c2ccccc2[n+](C)c2[nH]c3ccccc3c12

>  <score_type>  (19) 
oracle

>  <origin>  (19) 
adg

>  <m_score__min__energy>  (19) 
-6.0099999999999998

>  <m_primary>  (19) 
energy

$$$$
22:0
     RDKit          3D

 62 65  0  0  0  0  0  0  0  0999 V2000
   59.7020   34.3150   49.4080 C   0  0  0  0  0  0  0  0  0  0  0  0
   60.1750   33.6070   50.6760 C   0  0  0  0  0  0  0  0  0  0  0  0
   60.9380   32.4290   50.3810 N   0  0  0  0  0  0  0  0  0  0  0  0
   60.2770   31.2170   50.6620 C   0  0  0  0  0  0  0  0  0  0  0  0
   58.8590   31.1010   50.1770 C   0  0  0  0  0  0  0  0  0  0  0  0
   62.2650   32.5900   50.9670 C   0  0  0  0  0  0  0  0  0  0  0  0
   63.0200   33.7050   50.3040 C   0  0  0  0  0  0  0  0  0  0  0  0
   63.1010   33.7440   49.0180 O   0  0  0  0  0  0  0  0  0  0  0  0
   63.6910   33.1310   48.0440 C   0  0  0  0  0  0  0  0  0  0  0  0
   62.8720   32.1710   47.2150 C   0  0  0  0  0  0  0  0  0  0  0  0
   61.5230   32.1110   47.7040 N   0  0  0  0  0  0  0  0  0  0  0  0
   60.3810   31.7820   46.9350 C   0  0  0  0  0  0  0  0  0  0  0  0
   59.9730   30.4550   46.8890 C   0  0  0  0  0  0  0  0  0  0  0  0
   58.8480   30.0710   46.1470 C   0  0  0  0  0  0  0  0  0  0  0  0
   58.1280   30.9620   45.4490 N   0  0  0  0  0  0  0  0  0  0  0  0
   57.1090   30.6350   44.4940 C   0  0  0  0  0  0  0  0  0  0  0  0
   58.5180   32.2740   45.4930 C   0  0  0  0  0  0  0  0  0  0  0  0
   57.7990   33.2580   44.8320 C   0  0  0  0  0  0  0  0  0  0  0  0
   58.1520   34.6020   44.8760 C   0  0  0  0  0  0  0  0  0  0  0  0
   59.2530   34.9840   45.6020 C   0  0  0  0  0  0  0  0  0  0  0  0
   59.9510   33.9920   46.2520 C   0  0  0  0  0  0  0  0  0  0  0  0
   59.6220   32.6640   46.2230 C   0  0  0  0  0  0  0  0  0  0  0  0
   58.5450   28.6630   46.1400 C   0  0  0  0  0  0  0  0  0  0  0  0
   57.3740   28.2020   45.5970 C   0  0  0  0  0  0  0  0  0  0  0  0
   56.9960   26.8430   45.7020 C   0  0  0  0  0  0  0  0  0  0  0  0
   57.8420   26.0080   46.3700 C   0  0  0  0  0  0  0  0  0  0  0  0
   59.0210   26.4150   46.9360 C   0  0  0  0  0  0  0  0  0  0  0  0
   59.3400   27.7630   46.7970 C   0  0  0  0  0  0  0  0  0  0  0  0
   60.5440   28.1440   47.3760 O   0  0  0  0  0  0  0  0  0  0  0  0
   60.7730   29.4910   47.6820 C   0  0  0  0  0  0  0  0  0  0  0  0
   59.1102   35.2009   49.6818 H   0  0  0  0  0  0  0  0  0  0  0  0
   60.5744   34.6259   48.8145 H   0  0  0  0  0  0  0  0  0  0  0  0
   59.0808   33.6281   48.8145 H   0  0  0  0  0  0  0  0  0  0  0  0
   60.8017   34.2998   51.2568 H   0  0  0  0  0  0  0  0  0  0  0  0
   59.2854   33.3015   51.2464 H   0  0  0  0  0  0  0  0  0  0  0  0
   60.8565   30.4046   50.1992 H   0  0  0  0  0  0  0  0  0  0  0  0
   60.2157   31.1651   51.7591 H   0  0  0  0  0  0  0  0  0  0  0  0
   58.1796   31.0454   51.0403 H   0  0  0  0  0  0  0  0  0  0  0  0
   58.6066   31.9815   49.5679 H   0  0  0  0  0  0  0  0  0  0  0  0
   58.7531   30.1912   49.5679 H   0  0  0  0  0  0  0  0  0  0  0  0
   62.1590   32.8159   52.0383 H   0  0  0  0  0  0  0  0  0  0  0  0
   62.8257   31.6550   50.8211 H   0  0  0  0  0  0  0  0  0  0  0  0
   62.5460   34.6451   50.6226 H   0  0  0  0  0  0  0  0  0  0  0  0
   64.0594   33.5355   50.6216 H   0  0  0  0  0  0  0  0  0  0  0  0
   64.0834   33.9001   47.3625 H   0  0  0  0  0  0  0  0  0  0  0  0
   64.4465   32.4985   48.5330 H   0  0  0  0  0  0  0  0  0  0  0  0
   62.8634   32.5117   46.1691 H   0  0  0  0  0  0  0  0  0  0  0  0
   63.3207   31.1690   47.2829 H   0  0  0  0  0  0  0  0  0  0  0  0
   61.3500   32.3270   48.7200 H   0  0  0  0  0  0  0  0  0  0  0  0
   56.1910   30.3404   45.0237 H   0  0  0  0  0  0  0  0  0  0  0  0
   56.9028   31.5121   43.8630 H   0  0  0  0  0  0  0  0  0  0  0  0
   57.4517   29.8017   43.8630 H   0  0  0  0  0  0  0  0  0  0  0  0
   56.9137   32.9635   44.2493 H   0  0  0  0  0  0  0  0  0  0  0  0
   57.5556   35.3514   44.3349 H   0  0  0  0  0  0  0  0  0  0  0  0
   59.5637   36.0375   45.6615 H   0  0  0  0  0  0  0  0  0  0  0  0
   60.8353   34.2872   46.8358 H   0  0  0  0  0  0  0  0  0  0  0  0
   56.7134   28.9045   45.0678 H   0  0  0  0  0  0  0  0  0  0  0  0
   56.0573   26.4746   45.2625 H   0  0  0  0  0  0  0  0  0  0  0  0
   57.5619   24.9480   46.4594 H   0  0  0  0  0  0  0  0  0  0  0  0
   59.6797   25.7151   47.4711 H   0  0  0  0  0  0  0  0  0  0  0  0
   60.5378   29.6448   48.7455 H   0  0  0  0  0  0  0  0  0  0  0  0
   61.8269   29.6887   47.4367 H   0  0  0  0  0  0  0  0  0  0  0  0
  1  2  1  0
  2  3  1  0
  3  4  1  0
  4  5  1  0
  3  6  1  0
  6  7  1  0
  7  8  1  0
  8  9  1  0
  9 10  1  0
 10 11  1  0
 11 12  1  0
 12 13  2  0
 13 14  1  0
 14 15  2  0
 15 16  1  0
 15 17  1  0
 17 18  2  0
 18 19  1  0
 19 20  2  0
 20 21  1  0
 21 22  2  0
 14 23  1  0
 23 24  2  0
 24 25  1  0
 25 26  2  0
 26 27  1  0
 27 28  2  0
 28 29  1  0
 29 30  1  0
 22 12  1  0
 28 23  1  0
 30 13  1  0
 22 17  1  0
  1 31  1  0
  1 32  1  0
  1 33  1  0
  2 34  1  0
  2 35  1  0
  4 36  1  0
  4 37  1  0
  5 38  1  0
  5 39  1  0
  5 40  1  0
  6 41  1  0
  6 42  1  0
  7 43  1  0
  7 44  1  0
  9 45  1  0
  9 46  1  0
 10 47  1  0
 10 48  1  0
 11 49  1  0
 16 50  1  0
 16 51  1  0
 16 52  1  0
 18 53  1  0
 19 54  1  0
 20 55  1  0
 21 56  1  0
 24 57  1  0
 25 58  1  0
 26 59  1  0
 27 60  1  0
 30 61  1  0
 30 62  1  0
M  CHG  1  15   1
M  END
>  <smiles>  (20) 
CCN(CC)CCOCCNc1c2c([n+](C)c3ccccc13)-c1ccccc1OC2

>  <score_type>  (20) 
oracle

>  <origin>  (20) 
adg

>  <m_score__min__energy>  (20) 
-5.9400000000000004

>  <m_primary>  (20) 
energy

$$$$
23:0
     RDKit          3D

 52 55  0  0  0  0  0  0  0  0999 V2000
   63.1270   33.4640   47.1160 C   0  0  0  0  0  0  0  0  0  0  0  0
   62.9520   32.3860   48.1020 N   0  0  0  0  0  0  0  0  0  0  0  0
   64.1880   32.3520   48.9300 C   0  0  0  0  0  0  0  0  0  0  0  0
   61.8140   32.6880   48.9500 C   0  0  0  0  0  0  0  0  0  0  0  0
   60.6390   31.7360   48.6910 C   0  0  0  0  0  0  0  0  0  0  0  0
   60.8420   31.2410   47.3490 N   0  0  0  0  0  0  0  0  0  0  0  0
   59.8010   31.1180   46.3790 C   0  0  0  0  0  0  0  0  0  0  0  0
   59.2530   32.2690   45.7990 C   0  0  0  0  0  0  0  0  0  0  0  0
   58.2480   32.1600   44.8580 C   0  0  0  0  0  0  0  0  0  0  0  0
   57.7710   30.9340   44.4750 N   0  0  0  0  0  0  0  0  0  0  0  0
   56.7100   30.8420   43.4680 C   0  0  0  0  0  0  0  0  0  0  0  0
   58.3030   29.8310   45.0370 C   0  0  0  0  0  0  0  0  0  0  0  0
   57.8060   28.6280   44.6310 N   0  0  0  0  0  0  0  0  0  0  0  0
   58.2980   27.4710   45.1530 C   0  0  0  0  0  0  0  0  0  0  0  0
   57.8000   26.2510   44.7410 C   0  0  0  0  0  0  0  0  0  0  0  0
   58.2920   25.0730   45.2570 C   0  0  0  0  0  0  0  0  0  0  0  0
   59.2860   25.1570   46.1880 C   0  0  0  0  0  0  0  0  0  0  0  0
   59.8320   26.3370   46.6490 C   0  0  0  0  0  0  0  0  0  0  0  0
   59.3150   27.5210   46.1080 C   0  0  0  0  0  0  0  0  0  0  0  0
   59.8450   28.7260   46.5470 C   0  0  0  0  0  0  0  0  0  0  0  0
   59.3080   29.8710   45.9820 C   0  0  0  0  0  0  0  0  0  0  0  0
   57.6130   33.3240   44.1910 C   0  0  0  0  0  0  0  0  0  0  0  0
   57.8010   34.5280   45.0850 C   0  0  0  0  0  0  0  0  0  0  0  0
   59.2640   34.7210   45.4120 C   0  0  0  0  0  0  0  0  0  0  0  0
   59.8050   33.5800   46.2370 C   0  0  0  0  0  0  0  0  0  0  0  0
   63.2820   34.4186   47.6401 H   0  0  0  0  0  0  0  0  0  0  0  0
   64.0015   33.2457   46.4854 H   0  0  0  0  0  0  0  0  0  0  0  0
   62.2284   33.5336   46.4854 H   0  0  0  0  0  0  0  0  0  0  0  0
   63.9157   32.3595   49.9957 H   0  0  0  0  0  0  0  0  0  0  0  0
   64.7563   31.4379   48.7032 H   0  0  0  0  0  0  0  0  0  0  0  0
   64.8057   33.2335   48.7032 H   0  0  0  0  0  0  0  0  0  0  0  0
   62.1205   32.5965   50.0025 H   0  0  0  0  0  0  0  0  0  0  0  0
   61.4806   33.7111   48.7216 H   0  0  0  0  0  0  0  0  0  0  0  0
   60.6478   30.9067   49.4136 H   0  0  0  0  0  0  0  0  0  0  0  0
   59.6682   32.2415   48.8006 H   0  0  0  0  0  0  0  0  0  0  0  0
   61.7990   30.9310   46.9930 H   0  0  0  0  0  0  0  0  0  0  0  0
   55.7347   30.7574   43.9696 H   0  0  0  0  0  0  0  0  0  0  0  0
   56.7219   31.7445   42.8393 H   0  0  0  0  0  0  0  0  0  0  0  0
   56.8771   29.9550   42.8393 H   0  0  0  0  0  0  0  0  0  0  0  0
   56.9978   26.2196   43.9890 H   0  0  0  0  0  0  0  0  0  0  0  0
   57.8979   24.0993   44.9304 H   0  0  0  0  0  0  0  0  0  0  0  0
   59.6801   24.2165   46.6005 H   0  0  0  0  0  0  0  0  0  0  0  0
   60.6327   26.3475   47.4031 H   0  0  0  0  0  0  0  0  0  0  0  0
   60.6454   28.7694   47.3003 H   0  0  0  0  0  0  0  0  0  0  0  0
   58.0907   33.5033   43.2165 H   0  0  0  0  0  0  0  0  0  0  0  0
   56.5427   33.1337   44.0229 H   0  0  0  0  0  0  0  0  0  0  0  0
   57.4239   35.4238   44.5699 H   0  0  0  0  0  0  0  0  0  0  0  0
   57.2455   34.3667   46.0206 H   0  0  0  0  0  0  0  0  0  0  0  0
   59.8340   34.7842   44.4733 H   0  0  0  0  0  0  0  0  0  0  0  0
   59.3660   35.6467   45.9973 H   0  0  0  0  0  0  0  0  0  0  0  0
   60.9002   33.5563   46.1366 H   0  0  0  0  0  0  0  0  0  0  0  0
   59.5066   33.7437   47.2830 H   0  0  0  0  0  0  0  0  0  0  0  0
  1  2  1  0
  2  3  1  0
  2  4  1  0
  4  5  1  0
  5  6  1  0
  6  7  1  0
  7  8  2  0
  8  9  1  0
  9 10  2  0
 10 11  1  0
 10 12  1  0
 12 13  2  0
 13 14  1  0
 14 15  2  0
 15 16  1  0
 16 17  2  0
 17 18  1  0
 18 19  2  0
 19 20  1  0
 20 21  2  0
  9 22  1  0
 22 23  1  0
 23 24  1  0
 24 25  1  0
 21  7  1  0
 25  8  1  0
 21 12  1  0
 19 14  1  0
  1 26  1  0
  1 27  1  0
  1 28  1  0
  3 29  1  0
  3 30  1  0
  3 31  1  0
  4 32  1  0
  4 33  1  0
  5 34  1  0
  5 35  1  0
  6 36  1  0
 11 37  1  0
 11 38  1  0
 11 39  1  0
 15 40  1  0
 16 41  1  0
 17 42  1  0
 18 43  1  0
 20 44  1  0
 22 45  1  0
 22 46  1  0
 23 47  1  0
 23 48  1  0
 24 49  1  0
 24 50  1  0
 25 51  1  0
 25 52  1  0
M  CHG  1  10   1
M  END
>  <smiles>  (21) 
CN(C)CCNc1c2c([n+](C)c3nc4ccccc4cc13)CCCC2

>  <score_type>  (21) 
oracle

>  <origin>  (21) 
adg

>  <m_score__min__energy>  (21) 
-6.3700000000000001

>  <m_primary>  (21) 
energy

$$$$
24:0
     RDKit          3D

 73 75  0  0  0  0  0  0  0  0999 V2000
   65.1370   33.1340   49.8550 C   0  0  0  0  0  0  0  0  0  0  0  0
   63.6860   33.5850   49.7500 C   0  0  0  0  0  0  0  0  0  0  0  0
   62.8180   32.6490   49.1250 N   0  0  0  0  0  0  0  0  0  0  0  0
   63.3970   31.8460   48.0910 C   0  0  0  0  0  0  0  0  0  0  0  0
   62.4500   31.2670   47.1060 C   0  0  0  0  0  0  0  0  0  0  0  0
   61.0550   31.2200   47.4530 N   0  0  0  0  0  0  0  0  0  0  0  0
   59.9760   31.2280   46.5420 C   0  0  0  0  0  0  0  0  0  0  0  0
   59.6320   30.0240   45.9780 C   0  0  0  0  0  0  0  0  0  0  0  0
   60.3750   28.8940   46.2460 C   0  0  0  0  0  0  0  0  0  0  0  0
   60.0340   27.6960   45.6700 C   0  0  0  0  0  0  0  0  0  0  0  0
   58.9580   27.5490   44.8130 C   0  0  0  0  0  0  0  0  0  0  0  0
   58.2070   28.6810   44.5380 C   0  0  0  0  0  0  0  0  0  0  0  0
   58.5630   29.8540   45.1170 C   0  0  0  0  0  0  0  0  0  0  0  0
   57.8530   30.9550   44.8470 N   0  0  0  0  0  0  0  0  0  0  0  0
   56.7080   30.8640   43.9580 C   0  0  0  0  0  0  0  0  0  0  0  0
   58.1830   32.1440   45.3910 C   0  0  0  0  0  0  0  0  0  0  0  0
   57.3570   33.7070   45.1470 S   0  0  0  0  0  0  0  0  0  0  0  0
   58.4830   34.6030   46.2140 C   0  0  0  0  0  0  0  0  0  0  0  0
   59.4140   33.6380   46.6810 C   0  0  0  0  0  0  0  0  0  0  0  0
   60.5950   34.2400   47.4470 C   0  0  0  0  0  0  0  0  0  0  0  0
   60.3360   34.1510   48.9570 C   0  0  0  0  0  0  0  0  0  0  0  0
   60.0210   32.8300   49.3810 N   0  0  0  0  0  0  0  0  0  0  0  0
   58.7830   32.6200   49.9920 C   0  0  0  0  0  0  0  0  0  0  0  0
   58.3150   31.3000   50.4830 C   0  0  0  0  0  0  0  0  0  0  0  0
   58.8310   30.1590   49.7100 C   0  0  0  0  0  0  0  0  0  0  0  0
   60.1350   29.5370   50.1290 C   0  0  0  0  0  0  0  0  0  0  0  0
   61.2700   30.3270   50.2670 N   0  0  0  0  0  0  0  0  0  0  0  0
   62.4250   29.8290   50.9050 C   0  0  0  0  0  0  0  0  0  0  0  0
   63.1490   30.9250   51.6920 C   0  0  0  0  0  0  0  0  0  0  0  0
   62.1780   31.7510   52.5040 C   0  0  0  0  0  0  0  0  0  0  0  0
   61.2450   32.5050   51.6980 N   0  0  0  0  0  0  0  0  0  0  0  0
   59.2210   32.3910   46.2420 C   0  0  0  0  0  0  0  0  0  0  0  0
   65.4180   33.0466   50.9149 H   0  0  0  0  0  0  0  0  0  0  0  0
   65.2539   32.1571   49.3630 H   0  0  0  0  0  0  0  0  0  0  0  0
   65.7870   33.8725   49.3630 H   0  0  0  0  0  0  0  0  0  0  0  0
   63.3113   33.7741   50.7668 H   0  0  0  0  0  0  0  0  0  0  0  0
   63.6845   34.4831   49.1148 H   0  0  0  0  0  0  0  0  0  0  0  0
   62.0850   32.2480   49.6980 H   0  0  0  0  0  0  0  0  0  0  0  0
   64.1133   32.4731   47.5399 H   0  0  0  0  0  0  0  0  0  0  0  0
   63.8514   30.9859   48.6046 H   0  0  0  0  0  0  0  0  0  0  0  0
   62.5370   31.8586   46.1827 H   0  0  0  0  0  0  0  0  0  0  0  0
   62.7480   30.2110   47.0285 H   0  0  0  0  0  0  0  0  0  0  0  0
   60.7990   31.1820   48.4740 H   0  0  0  0  0  0  0  0  0  0  0  0
   61.2411   28.9527   46.9215 H   0  0  0  0  0  0  0  0  0  0  0  0
   60.6450   26.8109   45.9006 H   0  0  0  0  0  0  0  0  0  0  0  0
   58.7088   26.5742   44.3683 H   0  0  0  0  0  0  0  0  0  0  0  0
   57.3396   28.6287   43.8635 H   0  0  0  0  0  0  0  0  0  0  0  0
   55.7862   30.7907   44.5537 H   0  0  0  0  0  0  0  0  0  0  0  0
   56.6642   31.7615   43.3235 H   0  0  0  0  0  0  0  0  0  0  0  0
   56.8065   29.9709   43.3235 H   0  0  0  0  0  0  0  0  0  0  0  0
   58.4583   35.6757   46.4565 H   0  0  0  0  0  0  0  0  0  0  0  0
   61.5115   33.6840   47.2005 H   0  0  0  0  0  0  0  0  0  0  0  0
   60.7130   35.2955   47.1607 H   0  0  0  0  0  0  0  0  0  0  0  0
   61.2382   34.4863   49.4896 H   0  0  0  0  0  0  0  0  0  0  0  0
   59.4697   34.7895   49.1847 H   0  0  0  0  0  0  0  0  0  0  0  0
   60.7830   32.5250   50.0390 H   0  0  0  0  0  0  0  0  0  0  0  0
   58.7645   33.2874   50.8662 H   0  0  0  0  0  0  0  0  0  0  0  0
   58.1005   32.7829   49.1449 H   0  0  0  0  0  0  0  0  0  0  0  0
   58.6382   31.1848   51.5281 H   0  0  0  0  0  0  0  0  0  0  0  0
   57.2203   31.2893   50.3758 H   0  0  0  0  0  0  0  0  0  0  0  0
   58.0671   29.3685   49.7493 H   0  0  0  0  0  0  0  0  0  0  0  0
   59.0419   30.5812   48.7164 H   0  0  0  0  0  0  0  0  0  0  0  0
   59.9600   29.0597   51.1045 H   0  0  0  0  0  0  0  0  0  0  0  0
   60.3854   28.8811   49.2822 H   0  0  0  0  0  0  0  0  0  0  0  0
   61.2800   31.2910   49.9050 H   0  0  0  0  0  0  0  0  0  0  0  0
   62.1325   29.0258   51.5974 H   0  0  0  0  0  0  0  0  0  0  0  0
   63.1097   29.4501   50.1319 H   0  0  0  0  0  0  0  0  0  0  0  0
   63.8767   30.4570   52.3713 H   0  0  0  0  0  0  0  0  0  0  0  0
   63.6557   31.5891   50.9763 H   0  0  0  0  0  0  0  0  0  0  0  0
   61.6064   31.0743   53.1562 H   0  0  0  0  0  0  0  0  0  0  0  0
   62.7727   32.4791   53.0751 H   0  0  0  0  0  0  0  0  0  0  0  0
   61.7150   32.9960   50.8860 H   0  0  0  0  0  0  0  0  0  0  0  0
   60.4050   31.9530   51.3980 H   0  0  0  0  0  0  0  0  0  0  0  0
  1  2  1  0
  2  3  1  0
  3  4  1  0
  4  5  1  0
  5  6  1  0
  6  7  1  0
  7  8  2  0
  8  9  1  0
  9 10  2  0
 10 11  1  0
 11 12  2  0
 12 13  1  0
 13 14  2  0
 14 15  1  0
 14 16  1  0
 16 17  1  0
 17 18  1  0
 18 19  2  0
 19 20  1  0
 20 21  1  0
 21 22  1  0
 22 23  1  0
 23 24  1  0
 24 25  1  0
 25 26  1  0
 26 27  1  0
 27 28  1  0
 28 29  1  0
 29 30  1  0
 30 31  1  0
 19 32  1  0
 32  7  1  0
 13  8  1  0
 32 16  2  0
  1 33  1  0
  1 34  1  0
  1 35  1  0
  2 36  1  0
  2 37  1  0
  3 38  1  0
  4 39  1  0
  4 40  1  0
  5 41  1  0
  5 42  1  0
  6 43  1  0
  9 44  1  0
 10 45  1  0
 11 46  1  0
 12 47  1  0
 15 48  1  0
 15 49  1  0
 15 50  1  0
 18 51  1  0
 20 52  1  0
 20 53  1  0
 21 54  1  0
 21 55  1  0
 22 56  1  0
 23 57  1  0
 23 58  1  0
 24 59  1  0
 24 60  1  0
 25 61  1  0
 25 62  1  0
 26 63  1  0
 26 64  1  0
 27 65  1  0
 28 66  1  0
 28 67  1  0
 29 68  1  0
 29 69  1  0
 30 70  1  0
 30 71  1  0
 31 72  1  0
 31 73  1  0
M  CHG  1  14   1
M  END
>  <smiles>  (22) 
CCNCCNc1c2ccccc2[n+](C)c2scc(CCNCCCCNCCCN)c12

>  <score_type>  (22) 
oracle

>  <origin>  (22) 
adg

>  <m_score__min__energy>  (22) 
-4.4800000000000004

>  <m_primary>  (22) 
energy

$$$$
25:0
     RDKit          3D

 50 53  0  0  0  0  0  0  0  0999 V2000
   63.3980   32.8110   47.1220 C   0  0  0  0  0  0  0  0  0  0  0  0
   63.5240   32.9610   48.6270 C   0  0  0  0  0  0  0  0  0  0  0  0
   62.9300   31.8100   49.2810 N   0  0  0  0  0  0  0  0  0  0  0  0
   61.6300   32.0710   49.8280 C   0  0  0  0  0  0  0  0  0  0  0  0
   60.5400   31.2630   49.1670 C   0  0  0  0  0  0  0  0  0  0  0  0
   60.9170   30.7270   47.9030 N   0  0  0  0  0  0  0  0  0  0  0  0
   60.0230   30.3340   46.8680 C   0  0  0  0  0  0  0  0  0  0  0  0
   59.7300   28.9770   46.6270 C   0  0  0  0  0  0  0  0  0  0  0  0
   58.8650   28.7080   45.6080 C   0  0  0  0  0  0  0  0  0  0  0  0
   58.2920   29.6810   44.8350 N   0  0  0  0  0  0  0  0  0  0  0  0
   57.3990   29.2930   43.7780 C   0  0  0  0  0  0  0  0  0  0  0  0
   58.5950   30.9650   45.0910 C   0  0  0  0  0  0  0  0  0  0  0  0
   58.0600   32.0070   44.3640 C   0  0  0  0  0  0  0  0  0  0  0  0
   58.3740   33.3330   44.6350 C   0  0  0  0  0  0  0  0  0  0  0  0
   59.2300   33.6680   45.6390 C   0  0  0  0  0  0  0  0  0  0  0  0
   59.6290   35.3320   45.9840 Cl  0  0  0  0  0  0  0  0  0  0  0  0
   59.7790   32.6460   46.3840 C   0  0  0  0  0  0  0  0  0  0  0  0
   59.4670   31.3370   46.1140 C   0  0  0  0  0  0  0  0  0  0  0  0
   58.5100   27.2970   45.4040 C   0  0  0  0  0  0  0  0  0  0  0  0
   57.7110   26.8900   44.4210 N   0  0  0  0  0  0  0  0  0  0  0  0
   57.3990   25.6140   44.1850 C   0  0  0  0  0  0  0  0  0  0  0  0
   57.9160   24.6260   44.9880 C   0  0  0  0  0  0  0  0  0  0  0  0
   58.7450   25.0200   46.0130 C   0  0  0  0  0  0  0  0  0  0  0  0
   59.0580   26.3690   46.2410 C   0  0  0  0  0  0  0  0  0  0  0  0
   59.9180   26.6330   47.4050 C   0  0  0  0  0  0  0  0  0  0  0  0
   60.4310   28.0210   47.4820 C   0  0  0  0  0  0  0  0  0  0  0  0
   62.7061   31.9873   46.8923 H   0  0  0  0  0  0  0  0  0  0  0  0
   63.0106   33.7462   46.6915 H   0  0  0  0  0  0  0  0  0  0  0  0
   64.3860   32.5908   46.6915 H   0  0  0  0  0  0  0  0  0  0  0  0
   64.5872   33.0295   48.9006 H   0  0  0  0  0  0  0  0  0  0  0  0
   63.0021   33.8743   48.9486 H   0  0  0  0  0  0  0  0  0  0  0  0
   62.9560   30.9830   48.6490 H   0  0  0  0  0  0  0  0  0  0  0  0
   61.6455   31.8276   50.9006 H   0  0  0  0  0  0  0  0  0  0  0  0
   61.4056   33.1333   49.6517 H   0  0  0  0  0  0  0  0  0  0  0  0
   60.2723   30.4293   49.8328 H   0  0  0  0  0  0  0  0  0  0  0  0
   59.6945   31.9441   48.9903 H   0  0  0  0  0  0  0  0  0  0  0  0
   61.9360   30.6050   47.7000 H   0  0  0  0  0  0  0  0  0  0  0  0
   56.4715   28.8900   44.2110 H   0  0  0  0  0  0  0  0  0  0  0  0
   57.1630   30.1697   43.1570 H   0  0  0  0  0  0  0  0  0  0  0  0
   57.8789   28.5222   43.1570 H   0  0  0  0  0  0  0  0  0  0  0  0
   57.3627   31.7815   43.5437 H   0  0  0  0  0  0  0  0  0  0  0  0
   57.9213   34.1289   44.0254 H   0  0  0  0  0  0  0  0  0  0  0  0
   60.4742   32.8821   47.2031 H   0  0  0  0  0  0  0  0  0  0  0  0
   56.7306   25.3542   43.3509 H   0  0  0  0  0  0  0  0  0  0  0  0
   57.6773   23.5656   44.8186 H   0  0  0  0  0  0  0  0  0  0  0  0
   59.1759   24.2539   46.6743 H   0  0  0  0  0  0  0  0  0  0  0  0
   59.3363   26.4297   48.3162 H   0  0  0  0  0  0  0  0  0  0  0  0
   60.7958   25.9780   47.3030 H   0  0  0  0  0  0  0  0  0  0  0  0
   60.3416   28.3626   48.5238 H   0  0  0  0  0  0  0  0  0  0  0  0
   61.4714   27.9891   47.1263 H   0  0  0  0  0  0  0  0  0  0  0  0
  1  2  1  0
  2  3  1  0
  3  4  1  0
  4  5  1  0
  5  6  1  0
  6  7  1  0
  7  8  2  0
  8  9  1  0
  9 10  2  0
 10 11  1  0
 10 12  1  0
 12 13  2  0
 13 14  1  0
 14 15  2  0
 15 16  1  0
 15 17  1  0
 17 18  2  0
  9 19  1  0
 19 20  2  0
 20 21  1  0
 21 22  2  0
 22 23  1  0
 23 24  2  0
 24 25  1  0
 25 26  1  0
 18  7  1  0
 24 19  1  0
 26  8  1  0
 18 12  1  0
  1 27  1  0
  1 28  1  0
  1 29  1  0
  2 30  1  0
  2 31  1  0
  3 32  1  0
  4 33  1  0
  4 34  1  0
  5 35  1  0
  5 36  1  0
  6 37  1  0
 11 38  1  0
 11 39  1  0
 11 40  1  0
 13 41  1  0
 14 42  1  0
 17 43  1  0
 21 44  1  0
 22 45  1  0
 23 46  1  0
 25 47  1  0
 25 48  1  0
 26 49  1  0
 26 50  1  0
M  CHG  1  10   1
M  END
>  <smiles>  (23) 
CCNCCNc1c2c([n+](C)c3ccc(Cl)cc13)-c1ncccc1CC2

>  <score_type>  (23) 
oracle

>  <origin>  (23) 
adg

>  <m_score__min__energy>  (23) 
-6.5199999999999996

>  <m_primary>  (23) 
energy

$$$$
26:0
     RDKit          3D

 36 38  0  0  1  0  0  0  0  0999 V2000
   59.6430   34.9110   46.0320 C   0  0  0  0  0  0  0  0  0  0  0  0
   58.4890   33.9570   46.1080 C   0  0  0  0  0  0  0  0  0  0  0  0
   57.9430   33.5920   44.8180 N   0  0  0  0  0  0  0  0  0  0  0  0
   57.7450   32.3540   44.5530 C   0  0  0  0  0  0  0  0  0  0  0  0
   57.3930   31.8600   43.3270 C   0  0  0  0  0  0  0  0  0  0  0  0
   57.1820   30.5280   43.0530 C   0  0  0  0  0  0  0  0  0  0  0  0
   57.3420   29.6680   44.0930 N   0  0  0  0  0  0  0  0  0  0  0  0
   57.2100   28.3470   44.1330 N   0  0  0  0  0  0  0  0  0  0  0  0
   57.4650   27.9050   45.3780 C   0  0  0  0  0  0  0  0  0  0  0  0
   57.4120   26.5040   45.7820 C   0  0  0  0  0  0  0  0  0  0  0  0
   58.5320   25.7270   45.6070 C   0  0  0  0  0  0  0  0  0  0  0  0
   58.5020   24.4020   45.9800 C   0  0  0  0  0  0  0  0  0  0  0  0
   57.3760   23.8190   46.5310 C   0  0  0  0  0  0  0  0  0  0  0  0
   57.4310   22.4850   46.8790 O   0  0  0  0  0  0  0  0  0  0  0  0
   57.3800   21.4920   45.8730 C   0  0  0  0  0  0  0  0  0  0  0  0
   56.2650   24.6170   46.6970 C   0  0  0  0  0  0  0  0  0  0  0  0
   56.2670   25.9640   46.3270 C   0  0  0  0  0  0  0  0  0  0  0  0
   57.7710   29.0110   46.1430 C   0  0  0  0  0  0  0  0  0  0  0  0
   57.6890   30.1320   45.3080 C   0  0  0  0  0  0  0  0  0  0  0  0
   57.8910   31.4480   45.5560 N   0  0  0  0  0  0  0  0  0  0  0  0
   59.9658   35.1778   47.0492 H   0  0  0  0  0  0  0  0  0  0  0  0
   60.4772   34.4353   45.4955 H   0  0  0  0  0  0  0  0  0  0  0  0
   59.3327   35.8198   45.4955 H   0  0  0  0  0  0  0  0  0  0  0  0
   58.8301   33.0404   46.6115 H   0  0  0  0  0  0  0  0  0  0  0  0
   57.6874   34.4693   46.6603 H   0  0  0  0  0  0  0  0  0  0  0  0
   57.2700   32.5776   42.5024 H   0  0  0  0  0  0  0  0  0  0  0  0
   56.8997   30.1791   42.0487 H   0  0  0  0  0  0  0  0  0  0  0  0
   56.9470   27.7710   43.3140 H   0  0  0  0  0  0  0  0  0  0  0  0
   59.4450   26.1602   45.1725 H   0  0  0  0  0  0  0  0  0  0  0  0
   59.4028   23.7876   45.8350 H   0  0  0  0  0  0  0  0  0  0  0  0
   57.3289   20.4980   46.3413 H   0  0  0  0  0  0  0  0  0  0  0  0
   56.4887   21.6490   45.2477 H   0  0  0  0  0  0  0  0  0  0  0  0
   58.2827   21.5568   45.2477 H   0  0  0  0  0  0  0  0  0  0  0  0
   55.3531   24.1822   47.1321 H   0  0  0  0  0  0  0  0  0  0  0  0
   55.3692   26.5837   46.4683 H   0  0  0  0  0  0  0  0  0  0  0  0
   58.0314   29.0122   47.2117 H   0  0  0  0  0  0  0  0  0  0  0  0
  1  2  1  0
  2  3  1  0
  3  4  2  0
  4  5  1  0
  5  6  2  0
  6  7  1  0
  7  8  1  0
  8  9  1  0
  9 10  1  0
 10 11  2  0
 11 12  1  0
 12 13  2  0
 13 14  1  0
 14 15  1  0
 13 16  1  0
 16 17  2  0
  9 18  2  0
 18 19  1  0
 19 20  2  0
 20  4  1  0
 19  7  1  0
 17 10  1  0
  1 21  1  0
  1 22  1  0
  1 23  1  0
  2 24  1  0
  2 25  1  0
  5 26  1  0
  6 27  1  0
  8 28  1  0
 11 29  1  0
 12 30  1  0
 15 31  1  0
 15 32  1  0
 15 33  1  0
 16 34  1  0
 17 35  1  0
 18 36  1  0
M  END
>  <smiles>  (24) 
CCN=c1ccn2[nH]c(-c3ccc(OC)cc3)cc2n1

>  <score_type>  (24) 
oracle

>  <origin>  (24) 
adg

>  <m_score__min__energy>  (24) 
-6.2599999999999998

>  <m_primary>  (24) 
energy

$$$$
