0:0
     RDKit          3D

 51 51  0  0  0  0  0  0  0  0999 V2000
   63.7620   33.0550   47.0570 C   0  0  0  0  0  0  0  0  0  0  0  0
   62.2960   33.4900   47.0280 C   0  0  0  0  0  0  0  0  0  0  0  0
   61.8020   33.9570   48.4040 C   0  0  0  0  0  0  0  0  0  0  0  0
   60.3520   34.4930   48.3720 C   0  0  0  0  0  0  0  0  0  0  0  0
   59.9150   34.9430   46.9700 C   0  0  0  0  0  0  0  0  0  0  0  0
   59.0570   33.9330   46.3310 N   0  0  0  0  0  0  0  0  0  0  0  0
   58.9790   32.6710   46.8500 C   0  0  0  0  0  0  0  0  0  0  0  0
   58.1450   31.7120   46.2700 C   0  0  0  0  0  0  0  0  0  0  0  0
   57.3810   32.0470   45.1370 C   0  0  0  0  0  0  0  0  0  0  0  0
   56.5820   31.2000   44.5480 N   0  0  0  0  0  0  0  0  0  0  0  0
   56.7580   30.5730   43.2360 C   0  0  0  0  0  0  0  0  0  0  0  0
   57.0140   29.0650   43.3720 C   0  0  0  0  0  0  0  0  0  0  0  0
   56.9850   28.6110   44.8400 C   0  0  0  0  0  0  0  0  0  0  0  0
   58.3310   28.6760   45.4610 N   0  0  0  0  0  0  0  0  0  0  0  0
   59.3890   28.2680   44.5100 C   0  0  0  0  0  0  0  0  0  0  0  0
   60.7190   28.9080   44.8920 C   0  0  0  0  0  0  0  0  0  0  0  0
   58.4350   27.9560   46.7560 C   0  0  0  0  0  0  0  0  0  0  0  0
   59.0030   28.8020   47.9030 C   0  0  0  0  0  0  0  0  0  0  0  0
   57.4870   33.3400   44.6160 C   0  0  0  0  0  0  0  0  0  0  0  0
   58.3280   34.2710   45.2260 C   0  0  0  0  0  0  0  0  0  0  0  0
   64.0946   32.9563   48.1009 H   0  0  0  0  0  0  0  0  0  0  0  0
   63.8674   32.0869   46.5455 H   0  0  0  0  0  0  0  0  0  0  0  0
   64.3784   33.8090   46.5455 H   0  0  0  0  0  0  0  0  0  0  0  0
   62.1865   34.3183   46.3125 H   0  0  0  0  0  0  0  0  0  0  0  0
   61.6918   32.6205   46.7298 H   0  0  0  0  0  0  0  0  0  0  0  0
   61.8467   33.1066   49.1003 H   0  0  0  0  0  0  0  0  0  0  0  0
   62.4527   34.7835   48.7256 H   0  0  0  0  0  0  0  0  0  0  0  0
   59.6749   33.6956   48.7122 H   0  0  0  0  0  0  0  0  0  0  0  0
   60.3094   35.3729   49.0307 H   0  0  0  0  0  0  0  0  0  0  0  0
   59.3567   35.8871   47.0538 H   0  0  0  0  0  0  0  0  0  0  0  0
   60.8143   35.0782   46.3512 H   0  0  0  0  0  0  0  0  0  0  0  0
   59.5791   32.4077   47.7335 H   0  0  0  0  0  0  0  0  0  0  0  0
   58.0859   30.7000   46.6970 H   0  0  0  0  0  0  0  0  0  0  0  0
   55.8482   30.7302   42.6381 H   0  0  0  0  0  0  0  0  0  0  0  0
   57.6287   31.0315   42.7444 H   0  0  0  0  0  0  0  0  0  0  0  0
   56.2370   28.5204   42.8155 H   0  0  0  0  0  0  0  0  0  0  0  0
   58.0141   28.8503   42.9675 H   0  0  0  0  0  0  0  0  0  0  0  0
   56.3012   29.2643   45.4018 H   0  0  0  0  0  0  0  0  0  0  0  0
   56.6440   27.5656   44.8691 H   0  0  0  0  0  0  0  0  0  0  0  0
   59.4937   27.1732   44.5314 H   0  0  0  0  0  0  0  0  0  0  0  0
   59.1092   28.6000   43.4993 H   0  0  0  0  0  0  0  0  0  0  0  0
   60.8047   28.9492   45.9879 H   0  0  0  0  0  0  0  0  0  0  0  0
   61.5454   28.3089   44.4819 H   0  0  0  0  0  0  0  0  0  0  0  0
   60.7665   29.9276   44.4819 H   0  0  0  0  0  0  0  0  0  0  0  0
   57.4290   27.6164   47.0434 H   0  0  0  0  0  0  0  0  0  0  0  0
   59.1375   27.1242   46.5993 H   0  0  0  0  0  0  0  0  0  0  0  0
   58.7066   28.3605   48.8659 H   0  0  0  0  0  0  0  0  0  0  0  0
   60.1005   28.8254   47.8327 H   0  0  0  0  0  0  0  0  0  0  0  0
   58.6092   29.8267   47.8327 H   0  0  0  0  0  0  0  0  0  0  0  0
   56.9073   33.6232   43.7251 H   0  0  0  0  0  0  0  0  0  0  0  0
   58.4050   35.2877   44.8131 H   0  0  0  0  0  0  0  0  0  0  0  0
  1  2  1  0
  2  3  1  0
  3  4  1  0
  4  5  1  0
  5  6  1  0
  6  7  1  0
  7  8  2  0
  8  9  1  0
  9 10  2  3
 10 11  1  0
 11 12  1  0
 12 13  1  0
 13 14  1  0
 14 15  1  0
 15 16  1  0
 14 17  1  0
 17 18  1  0
  9 19  1  0
 19 20  2  0
 20  6  1  0
  1 21  1  0
  1 22  1  0
  1 23  1  0
  2 24  1  0
  2 25  1  0
  3 26  1  0
  3 27  1  0
  4 28  1  0
  4 29  1  0
  5 30  1  0
  5 31  1  0
  7 32  1  0
  8 33  1  0
 11 34  1  0
 11 35  1  0
 12 36  1  0
 12 37  1  0
 13 38  1  0
 13 39  1  0
 15 40  1  0
 15 41  1  0
 16 42  1  0
 16 43  1  0
 16 44  1  0
 17 45  1  0
 17 46  1  0
 18 47  1  0
 18 48  1  0
 18 49  1  0
 19 50  1  0
 20 51  1  0
M  END
>  <UniqueID>  (1) 
1

>  <SMILES>  (1) 
CCCCCn1ccc(=NCCCN(CC)CC)cc1

>  <Energy>  (1) 
41.861725967196925

>  <Genealogy>  (1) 
CCCCCn1ccc(=NCCCN(CC)CC)cc1 (3D coordinates assigned)
CCCCCn1ccc(=NCCCN(CC)CC)cc1 (optimized conformer: 41.861725967196925 kcal/mol)

>  <smiles>  (1) 
CCCCCn1ccc(=NCCCN(CC)CC)cc1

>  <score_type>  (1) 
oracle

>  <origin>  (1) 
adg

>  <m_score__min__energy>  (1) 
-5.9500000000000002

>  <m_primary>  (1) 
energy

$$$$
1:0
     RDKit          3D

 45 47  0  0  0  0  0  0  0  0999 V2000
   59.5510   34.6070   47.4970 C   0  0  0  0  0  0  0  0  0  0  0  0
   60.5750   34.3600   46.3960 C   0  0  0  0  0  0  0  0  0  0  0  0
   61.5540   33.3600   46.8250 N   0  0  0  0  0  0  0  0  0  0  0  0
   62.8440   33.5970   47.1330 C   0  0  0  0  0  0  0  0  0  0  0  0
   63.4150   32.4140   47.5570 C   0  0  0  0  0  0  0  0  0  0  0  0
   62.4790   31.4470   47.5210 N   0  0  0  0  0  0  0  0  0  0  0  0
   61.3540   32.0470   47.0830 C   0  0  0  0  0  0  0  0  0  0  0  0
   60.0560   31.3200   46.8770 C   0  0  0  0  0  0  0  0  0  0  0  0
   60.2770   29.8590   46.9280 N   0  0  0  0  0  0  0  0  0  0  0  0
   60.5400   29.2930   45.5900 C   0  0  0  0  0  0  0  0  0  0  0  0
   59.2930   29.3690   44.7000 C   0  0  0  0  0  0  0  0  0  0  0  0
   58.0910   28.9510   45.4350 N   0  0  0  0  0  0  0  0  0  0  0  0
   56.7980   28.9530   44.7880 C   0  0  0  0  0  0  0  0  0  0  0  0
   55.8740   28.2170   45.2290 O   0  0  0  0  0  0  0  0  0  0  0  0
   56.5160   29.8020   43.5790 C   0  0  0  0  0  0  0  0  0  0  0  0
   57.1290   31.1590   43.7240 C   0  0  0  0  0  0  0  0  0  0  0  0
   57.8840   31.8200   42.7620 C   0  0  0  0  0  0  0  0  0  0  0  0
   58.3360   33.0760   43.1840 C   0  0  0  0  0  0  0  0  0  0  0  0
   57.9470   33.4040   44.4770 C   0  0  0  0  0  0  0  0  0  0  0  0
   57.0380   32.1310   45.0950 S   0  0  0  0  0  0  0  0  0  0  0  0
   58.2520   28.3210   46.7530 C   0  0  0  0  0  0  0  0  0  0  0  0
   59.1940   29.1440   47.6560 C   0  0  0  0  0  0  0  0  0  0  0  0
   60.0331   34.4907   48.4789 H   0  0  0  0  0  0  0  0  0  0  0  0
   59.1509   35.6274   47.4035 H   0  0  0  0  0  0  0  0  0  0  0  0
   58.7297   33.8812   47.4035 H   0  0  0  0  0  0  0  0  0  0  0  0
   60.0582   33.9981   45.4949 H   0  0  0  0  0  0  0  0  0  0  0  0
   61.0992   35.3022   46.1782 H   0  0  0  0  0  0  0  0  0  0  0  0
   63.3553   34.5681   47.0591 H   0  0  0  0  0  0  0  0  0  0  0  0
   64.4608   32.2831   47.8719 H   0  0  0  0  0  0  0  0  0  0  0  0
   62.6040   30.4440   47.7830 H   0  0  0  0  0  0  0  0  0  0  0  0
   59.3481   31.6085   47.6680 H   0  0  0  0  0  0  0  0  0  0  0  0
   59.6465   31.5875   45.8917 H   0  0  0  0  0  0  0  0  0  0  0  0
   61.3548   29.8590   45.1149 H   0  0  0  0  0  0  0  0  0  0  0  0
   60.8194   28.2357   45.7081 H   0  0  0  0  0  0  0  0  0  0  0  0
   59.1607   30.4051   44.3549 H   0  0  0  0  0  0  0  0  0  0  0  0
   59.4326   28.6911   43.8451 H   0  0  0  0  0  0  0  0  0  0  0  0
   56.9352   29.3109   42.6885 H   0  0  0  0  0  0  0  0  0  0  0  0
   55.4268   29.9177   43.4775 H   0  0  0  0  0  0  0  0  0  0  0  0
   58.1040   31.3989   41.7699 H   0  0  0  0  0  0  0  0  0  0  0  0
   58.9423   33.7409   42.5513 H   0  0  0  0  0  0  0  0  0  0  0  0
   58.1917   34.3369   45.0060 H   0  0  0  0  0  0  0  0  0  0  0  0
   57.2670   28.2456   47.2369 H   0  0  0  0  0  0  0  0  0  0  0  0
   58.6923   27.3232   46.6096 H   0  0  0  0  0  0  0  0  0  0  0  0
   58.5901   29.8903   48.1930 H   0  0  0  0  0  0  0  0  0  0  0  0
   59.6888   28.4273   48.3279 H   0  0  0  0  0  0  0  0  0  0  0  0
  1  2  1  0
  2  3  1  0
  3  4  1  0
  4  5  2  0
  5  6  1  0
  6  7  2  0
  7  8  1  0
  8  9  1  0
  9 10  1  0
 10 11  1  0
 11 12  1  0
 12 13  1  0
 13 14  2  0
 13 15  1  0
 15 16  1  0
 16 17  2  0
 17 18  1  0
 18 19  2  0
 19 20  1  0
 12 21  1  0
 21 22  1  0
  7  3  1  0
 22  9  1  0
 20 16  1  0
  1 23  1  0
  1 24  1  0
  1 25  1  0
  2 26  1  0
  2 27  1  0
  4 28  1  0
  5 29  1  0
  6 30  1  0
  8 31  1  0
  8 32  1  0
 10 33  1  0
 10 34  1  0
 11 35  1  0
 11 36  1  0
 15 37  1  0
 15 38  1  0
 17 39  1  0
 18 40  1  0
 19 41  1  0
 21 42  1  0
 21 43  1  0
 22 44  1  0
 22 45  1  0
M  CHG  1   6   1
M  END
>  <UniqueID>  (2) 
2

>  <SMILES>  (2) 
CCn1cc[nH+]c1CN1CCN(C(=O)Cc2cccs2)CC1

>  <Energy>  (2) 
103.29308113576943

>  <Genealogy>  (2) 
CCn1cc[nH+]c1CN1CCN(C(=O)Cc2cccs2)CC1 (protonated)
CCn1cc[nH+]c1CN1CCN(C(=O)Cc2cccs2)CC1 (3D coordinates assigned)
CCn1cc[nH+]c1CN1CCN(C(=O)Cc2cccs2)CC1 (nonaromatic ring conformer: 103.29308113576943 kcal/mol)

>  <smiles>  (2) 
CCn1ccnc1CN1CCN(C(=O)Cc2cccs2)CC1

>  <score_type>  (2) 
oracle

>  <origin>  (2) 
adg

>  <m_score__min__energy>  (2) 
-5.6399999999999997

>  <m_primary>  (2) 
energy

$$$$
2:0
     RDKit          3D

 38 39  0  0  0  0  0  0  0  0999 V2000
   59.9940   22.1460   45.0520 N   0  0  0  0  0  0  0  0  0  0  0  0
   59.0300   23.2470   45.0830 C   0  0  0  0  0  0  0  0  0  0  0  0
   59.4980   24.3940   45.9920 C   0  0  0  0  0  0  0  0  0  0  0  0
   58.6770   25.6420   45.7920 C   0  0  0  0  0  0  0  0  0  0  0  0
   58.1080   26.3030   46.8910 C   0  0  0  0  0  0  0  0  0  0  0  0
   57.3680   27.4740   46.7050 C   0  0  0  0  0  0  0  0  0  0  0  0
   57.1880   28.0040   45.4130 C   0  0  0  0  0  0  0  0  0  0  0  0
   56.4490   29.1730   45.1680 O   0  0  0  0  0  0  0  0  0  0  0  0
   56.7030   30.1050   44.1160 C   0  0  0  0  0  0  0  0  0  0  0  0
   57.4440   31.3090   44.6360 C   0  0  0  0  0  0  0  0  0  0  0  0
   57.7300   32.3920   43.7900 C   0  0  0  0  0  0  0  0  0  0  0  0
   58.4110   33.5090   44.2800 C   0  0  0  0  0  0  0  0  0  0  0  0
   58.7950   33.5760   45.6300 C   0  0  0  0  0  0  0  0  0  0  0  0
   59.5770   34.7580   46.1450 C   0  0  0  0  0  0  0  0  0  0  0  0
   59.5790   35.7540   45.1870 F   0  0  0  0  0  0  0  0  0  0  0  0
   60.8830   34.3970   46.4250 F   0  0  0  0  0  0  0  0  0  0  0  0
   59.0060   35.2510   47.3060 F   0  0  0  0  0  0  0  0  0  0  0  0
   58.5200   32.4840   46.4710 C   0  0  0  0  0  0  0  0  0  0  0  0
   57.8380   31.3660   45.9810 C   0  0  0  0  0  0  0  0  0  0  0  0
   57.7680   27.3480   44.3210 C   0  0  0  0  0  0  0  0  0  0  0  0
   58.5090   26.1780   44.5050 C   0  0  0  0  0  0  0  0  0  0  0  0
   60.4450   22.0330   45.9890 H   0  0  0  0  0  0  0  0  0  0  0  0
   59.5200   21.2560   44.7750 H   0  0  0  0  0  0  0  0  0  0  0  0
   60.7370   22.3650   44.3500 H   0  0  0  0  0  0  0  0  0  0  0  0
   58.8991   23.6337   44.0616 H   0  0  0  0  0  0  0  0  0  0  0  0
   58.0825   22.8588   45.4850 H   0  0  0  0  0  0  0  0  0  0  0  0
   59.4097   24.0748   47.0410 H   0  0  0  0  0  0  0  0  0  0  0  0
   60.5415   24.6282   45.7346 H   0  0  0  0  0  0  0  0  0  0  0  0
   58.2450   25.8975   47.9043 H   0  0  0  0  0  0  0  0  0  0  0  0
   56.9239   27.9842   47.5725 H   0  0  0  0  0  0  0  0  0  0  0  0
   57.3094   29.6159   43.3394 H   0  0  0  0  0  0  0  0  0  0  0  0
   55.7409   30.4362   43.6982 H   0  0  0  0  0  0  0  0  0  0  0  0
   57.4164   32.3610   42.7361 H   0  0  0  0  0  0  0  0  0  0  0  0
   58.6486   34.3431   43.6033 H   0  0  0  0  0  0  0  0  0  0  0  0
   58.8436   32.5090   47.5220 H   0  0  0  0  0  0  0  0  0  0  0  0
   57.6092   30.5265   46.6540 H   0  0  0  0  0  0  0  0  0  0  0  0
   57.6391   27.7576   43.3083 H   0  0  0  0  0  0  0  0  0  0  0  0
   58.9626   25.6747   43.6384 H   0  0  0  0  0  0  0  0  0  0  0  0
  1  2  1  0
  2  3  1  0
  3  4  1  0
  4  5  2  0
  5  6  1  0
  6  7  2  0
  7  8  1  0
  8  9  1  0
  9 10  1  0
 10 11  2  0
 11 12  1  0
 12 13  2  0
 13 14  1  0
 14 15  1  0
 14 16  1  0
 14 17  1  0
 13 18  1  0
 18 19  2  0
  7 20  1  0
 20 21  2  0
 21  4  1  0
 19 10  1  0
  1 22  1  0
  1 23  1  0
  1 24  1  0
  2 25  1  0
  2 26  1  0
  3 27  1  0
  3 28  1  0
  5 29  1  0
  6 30  1  0
  9 31  1  0
  9 32  1  0
 11 33  1  0
 12 34  1  0
 18 35  1  0
 19 36  1  0
 20 37  1  0
 21 38  1  0
M  CHG  1   1   1
M  END
>  <UniqueID>  (3) 
3

>  <SMILES>  (3) 
[NH3+]CCc1ccc(OCc2ccc(C(F)(F)F)cc2)cc1

>  <Energy>  (3) 
34.81802005251635

>  <Genealogy>  (3) 
[NH3+]CCc1ccc(OCc2ccc(C(F)(F)F)cc2)cc1 (protonated)
[NH3+]CCc1ccc(OCc2ccc(C(F)(F)F)cc2)cc1 (3D coordinates assigned)
[NH3+]CCc1ccc(OCc2ccc(C(F)(F)F)cc2)cc1 (optimized conformer: 34.81802005251635 kcal/mol)

>  <smiles>  (3) 
NCCc1ccc(OCc2ccc(C(F)(F)F)cc2)cc1

>  <score_type>  (3) 
oracle

>  <origin>  (3) 
adg

>  <m_score__min__energy>  (3) 
-5.2300000000000004

>  <m_primary>  (3) 
energy

$$$$
3:0
     RDKit          3D

 48 50  0  0  1  0  0  0  0  0999 V2000
   55.1820   26.1810   45.7580 N   0  0  0  0  0  0  0  0  0  0  0  0
   54.8320   24.8150   45.9960 C   0  0  0  0  0  0  0  0  0  0  0  0
   54.9530   23.9430   44.7470 C   0  0  0  0  0  0  0  0  0  0  0  0
   56.0580   22.9470   44.9720 C   0  0  0  0  0  0  0  0  0  0  0  0
   57.2610   23.3710   44.1390 C   0  0  0  0  0  0  0  0  0  0  0  0
   57.5760   24.7960   44.4840 C   0  0  0  0  0  0  0  0  0  0  0  0
   57.4000   25.6280   43.5750 O   0  0  0  0  0  0  0  0  0  0  0  0
   58.0340   25.0470   45.7820 N   0  0  0  0  0  0  0  0  0  0  0  0
   58.3600   26.3710   46.2070 C   0  0  0  0  0  0  0  0  0  0  0  0
   59.3920   26.6620   47.0610 C   0  0  0  0  0  0  0  0  0  0  0  0
   59.5560   27.9570   47.4550 C   0  0  0  0  0  0  0  0  0  0  0  0
   60.5680   28.2400   48.2950 N   0  0  0  0  0  0  0  0  0  0  0  0
   60.7440   29.5090   48.6960 C   0  0  0  0  0  0  0  0  0  0  0  0
   59.9180   30.4620   48.2570 N   0  0  0  0  0  0  0  0  0  0  0  0
   58.9040   30.1940   47.4180 C   0  0  0  0  0  0  0  0  0  0  0  0
   58.1580   31.1200   47.0660 N   0  0  0  0  0  0  0  0  0  0  0  0
   58.3410   32.2370   46.3140 C   0  0  0  0  0  0  0  0  0  0  0  0
   58.9320   33.3860   46.9040 C   0  0  0  0  0  0  0  0  0  0  0  0
   58.9980   34.5490   46.1610 C   0  0  0  0  0  0  0  0  0  0  0  0
   58.5010   34.5810   44.8840 C   0  0  0  0  0  0  0  0  0  0  0  0
   57.9370   33.4970   44.3130 N   0  0  0  0  0  0  0  0  0  0  0  0
   57.8460   32.3380   44.9890 C   0  0  0  0  0  0  0  0  0  0  0  0
   57.2300   31.1870   44.3390 C   0  0  0  0  0  0  0  0  0  0  0  0
   57.9550   30.3820   43.4180 N   0  0  0  0  0  0  0  0  0  0  0  0
   56.0370   30.8540   44.5620 O   0  0  0  0  0  0  0  0  0  0  0  0
   58.6810   28.9200   46.9790 C   0  0  0  0  0  0  0  0  0  0  0  0
   57.6670   28.6270   46.1330 C   0  0  0  0  0  0  0  0  0  0  0  0
   57.5370   27.3170   45.7630 N   0  0  0  0  0  0  0  0  0  0  0  0
   55.7910   26.3410   44.9390 H   0  0  0  0  0  0  0  0  0  0  0  0
   55.5950   26.6340   46.6190 H   0  0  0  0  0  0  0  0  0  0  0  0
   55.4998   24.4117   46.7715 H   0  0  0  0  0  0  0  0  0  0  0  0
   53.7784   24.7947   46.3115 H   0  0  0  0  0  0  0  0  0  0  0  0
   54.0053   23.4135   44.5697 H   0  0  0  0  0  0  0  0  0  0  0  0
   55.1777   24.5668   43.8693 H   0  0  0  0  0  0  0  0  0  0  0  0
   56.3311   22.9288   46.0374 H   0  0  0  0  0  0  0  0  0  0  0  0
   55.7274   21.9407   44.6754 H   0  0  0  0  0  0  0  0  0  0  0  0
   58.1234   22.7296   44.3731 H   0  0  0  0  0  0  0  0  0  0  0  0
   57.0394   23.2747   43.0659 H   0  0  0  0  0  0  0  0  0  0  0  0
   58.1300   24.2390   46.4340 H   0  0  0  0  0  0  0  0  0  0  0  0
   60.0693   25.8724   47.4186 H   0  0  0  0  0  0  0  0  0  0  0  0
   61.2350   27.5330   48.6630 H   0  0  0  0  0  0  0  0  0  0  0  0
   61.5648   29.7626   49.3830 H   0  0  0  0  0  0  0  0  0  0  0  0
   59.3283   33.3507   47.9295 H   0  0  0  0  0  0  0  0  0  0  0  0
   59.4509   35.4523   46.5957 H   0  0  0  0  0  0  0  0  0  0  0  0
   58.5639   35.5166   44.3090 H   0  0  0  0  0  0  0  0  0  0  0  0
   58.6670   29.7300   43.8250 H   0  0  0  0  0  0  0  0  0  0  0  0
   57.7640   30.4610   42.3870 H   0  0  0  0  0  0  0  0  0  0  0  0
   56.9817   29.4032   45.7615 H   0  0  0  0  0  0  0  0  0  0  0  0
  1  2  1  0
  2  3  1  0
  3  4  1  0
  4  5  1  0
  5  6  1  0
  6  7  2  0
  6  8  1  0
  8  9  1  0
  9 10  2  0
 10 11  1  0
 11 12  1  0
 12 13  1  0
 13 14  2  0
 14 15  1  0
 15 16  2  0
 16 17  1  0
 17 18  2  0
 18 19  1  0
 19 20  2  0
 20 21  1  0
 21 22  2  0
 22 23  1  0
 23 24  1  0
 23 25  2  0
 15 26  1  0
 26 27  1  0
 27 28  2  0
 28  9  1  0
 26 11  2  0
 22 17  1  0
  1 29  1  0
  1 30  1  0
  2 31  1  0
  2 32  1  0
  3 33  1  0
  3 34  1  0
  4 35  1  0
  4 36  1  0
  5 37  1  0
  5 38  1  0
  8 39  1  0
 10 40  1  0
 12 41  1  0
 13 42  1  0
 18 43  1  0
 19 44  1  0
 20 45  1  0
 24 46  1  0
 24 47  1  0
 27 48  1  0
M  END
>  <smiles>  (4) 
NCCCCC(=O)Nc1cc2[nH]cnc(=Nc3cccnc3C(N)=O)c2cn1

>  <score_type>  (4) 
oracle

>  <origin>  (4) 
adg

>  <m_score__min__energy>  (4) 
-8.5299999999999994

>  <m_primary>  (4) 
energy

$$$$
4:0
     RDKit          3D

 36 38  0  0  0  0  0  0  0  0999 V2000
   63.0160   31.8520   49.3030 C   0  0  0  0  0  0  0  0  0  0  0  0
   63.3740   33.2690   49.1190 N   0  0  0  0  0  0  0  0  0  0  0  0
   63.7660   33.5860   47.7420 C   0  0  0  0  0  0  0  0  0  0  0  0
   62.6120   33.4540   46.7390 C   0  0  0  0  0  0  0  0  0  0  0  0
   61.2800   33.8330   47.2630 N   0  0  0  0  0  0  0  0  0  0  0  0
   60.1260   33.7950   46.3620 C   0  0  0  0  0  0  0  0  0  0  0  0
   59.5010   32.5700   46.0260 C   0  0  0  0  0  0  0  0  0  0  0  0
   58.3960   32.5450   45.1590 C   0  0  0  0  0  0  0  0  0  0  0  0
   57.7360   31.2600   44.8060 C   0  0  0  0  0  0  0  0  0  0  0  0
   57.0140   31.0570   43.6150 C   0  0  0  0  0  0  0  0  0  0  0  0
   56.4800   29.7810   43.4930 C   0  0  0  0  0  0  0  0  0  0  0  0
   56.9020   28.9060   44.8610 S   0  0  0  0  0  0  0  0  0  0  0  0
   57.7660   30.1280   45.6220 C   0  0  0  0  0  0  0  0  0  0  0  0
   57.9240   33.7520   44.6340 C   0  0  0  0  0  0  0  0  0  0  0  0
   58.5470   34.9470   44.9830 C   0  0  0  0  0  0  0  0  0  0  0  0
   59.6140   34.9490   45.8250 N   0  0  0  0  0  0  0  0  0  0  0  0
   61.0470   34.0970   48.6990 C   0  0  0  0  0  0  0  0  0  0  0  0
   62.3180   34.1880   49.5560 C   0  0  0  0  0  0  0  0  0  0  0  0
   62.9586   31.6249   50.3778 H   0  0  0  0  0  0  0  0  0  0  0  0
   62.0402   31.6565   48.8343 H   0  0  0  0  0  0  0  0  0  0  0  0
   63.7818   31.2165   48.8343 H   0  0  0  0  0  0  0  0  0  0  0  0
   64.1371   34.6211   47.7137 H   0  0  0  0  0  0  0  0  0  0  0  0
   64.5395   32.8614   47.4474 H   0  0  0  0  0  0  0  0  0  0  0  0
   62.8349   34.0984   45.8758 H   0  0  0  0  0  0  0  0  0  0  0  0
   62.5486   32.3862   46.4826 H   0  0  0  0  0  0  0  0  0  0  0  0
   59.8842   31.6291   46.4477 H   0  0  0  0  0  0  0  0  0  0  0  0
   56.8846   31.8376   42.8509 H   0  0  0  0  0  0  0  0  0  0  0  0
   55.8840   29.4086   42.6467 H   0  0  0  0  0  0  0  0  0  0  0  0
   58.2695   30.0499   46.5969 H   0  0  0  0  0  0  0  0  0  0  0  0
   57.0640   33.7572   43.9481 H   0  0  0  0  0  0  0  0  0  0  0  0
   58.1728   35.8971   44.5741 H   0  0  0  0  0  0  0  0  0  0  0  0
   60.0200   35.8830   46.0460 H   0  0  0  0  0  0  0  0  0  0  0  0
   60.5066   35.0510   48.7874 H   0  0  0  0  0  0  0  0  0  0  0  0
   60.4787   33.2365   49.0818 H   0  0  0  0  0  0  0  0  0  0  0  0
   62.7043   35.2165   49.5011 H   0  0  0  0  0  0  0  0  0  0  0  0
   62.0420   33.9057   50.5827 H   0  0  0  0  0  0  0  0  0  0  0  0
  1  2  1  0
  2  3  1  0
  3  4  1  0
  4  5  1  0
  5  6  1  0
  6  7  2  0
  7  8  1  0
  8  9  1  0
  9 10  1  0
 10 11  2  0
 11 12  1  0
 12 13  1  0
  8 14  2  0
 14 15  1  0
 15 16  2  0
  5 17  1  0
 17 18  1  0
 18  2  1  0
 16  6  1  0
 13  9  2  0
  1 19  1  0
  1 20  1  0
  1 21  1  0
  3 22  1  0
  3 23  1  0
  4 24  1  0
  4 25  1  0
  7 26  1  0
 10 27  1  0
 11 28  1  0
 13 29  1  0
 14 30  1  0
 15 31  1  0
 16 32  1  0
 17 33  1  0
 17 34  1  0
 18 35  1  0
 18 36  1  0
M  CHG  1  16   1
M  END
>  <UniqueID>  (5) 
4

>  <SMILES>  (5) 
CN1CCN(c2cc(-c3ccsc3)cc[nH+]2)CC1

>  <Energy>  (5) 
77.08145115175785

>  <Genealogy>  (5) 
CN1CCN(c2cc(-c3ccsc3)cc[nH+]2)CC1 (protonated)
CN1CCN(c2cc(-c3ccsc3)cc[nH+]2)CC1 (3D coordinates assigned)
CN1CCN(c2cc(-c3ccsc3)cc[nH+]2)CC1 (nonaromatic ring conformer: 77.08145115175785 kcal/mol)

>  <smiles>  (5) 
CN1CCN(c2cc(-c3ccsc3)ccn2)CC1

>  <score_type>  (5) 
oracle

>  <origin>  (5) 
adg

>  <m_score__min__energy>  (5) 
-5.1699999999999999

>  <m_primary>  (5) 
energy

$$$$
5:0
     RDKit          3D

 45 47  0  0  0  0  0  0  0  0999 V2000
   57.7590   25.1180   47.6340 C   0  0  0  0  0  0  0  0  0  0  0  0
   56.3680   24.8780   47.0380 C   0  0  0  0  0  0  0  0  0  0  0  0
   56.3230   23.5370   46.2960 C   0  0  0  0  0  0  0  0  0  0  0  0
   56.0000   26.0170   46.1130 C   0  0  0  0  0  0  0  0  0  0  0  0
   54.7880   26.3380   45.9820 O   0  0  0  0  0  0  0  0  0  0  0  0
   56.9740   26.6630   45.2820 N   0  0  0  0  0  0  0  0  0  0  0  0
   57.4030   28.0280   45.3730 C   0  0  0  0  0  0  0  0  0  0  0  0
   58.1080   28.5000   46.4890 C   0  0  0  0  0  0  0  0  0  0  0  0
   58.4840   29.8420   46.5720 C   0  0  0  0  0  0  0  0  0  0  0  0
   58.1400   30.7480   45.5480 C   0  0  0  0  0  0  0  0  0  0  0  0
   57.4310   30.2680   44.4230 C   0  0  0  0  0  0  0  0  0  0  0  0
   57.0420   28.9220   44.3610 C   0  0  0  0  0  0  0  0  0  0  0  0
   57.0290   31.2070   43.3150 C   0  0  0  0  0  0  0  0  0  0  0  0
   57.9970   32.3860   43.2120 C   0  0  0  0  0  0  0  0  0  0  0  0
   58.1220   33.0850   44.5650 C   0  0  0  0  0  0  0  0  0  0  0  0
   58.5390   32.1410   45.6100 N   0  0  0  0  0  0  0  0  0  0  0  0
   59.1350   32.6900   46.7950 C   0  0  0  0  0  0  0  0  0  0  0  0
   58.3880   33.1570   47.6980 O   0  0  0  0  0  0  0  0  0  0  0  0
   60.6080   32.7130   46.9620 C   0  0  0  0  0  0  0  0  0  0  0  0
   61.2790   31.6110   47.5240 C   0  0  0  0  0  0  0  0  0  0  0  0
   62.6700   31.6310   47.6770 C   0  0  0  0  0  0  0  0  0  0  0  0
   63.4040   32.7460   47.2660 C   0  0  0  0  0  0  0  0  0  0  0  0
   62.7490   33.8420   46.7000 C   0  0  0  0  0  0  0  0  0  0  0  0
   61.3590   33.8280   46.5460 C   0  0  0  0  0  0  0  0  0  0  0  0
   57.6943   25.1068   48.7320 H   0  0  0  0  0  0  0  0  0  0  0  0
   58.4433   24.3247   47.2989 H   0  0  0  0  0  0  0  0  0  0  0  0
   58.1379   26.0948   47.2989 H   0  0  0  0  0  0  0  0  0  0  0  0
   55.6330   24.8375   47.8554 H   0  0  0  0  0  0  0  0  0  0  0  0
   56.2954   22.7147   47.0261 H   0  0  0  0  0  0  0  0  0  0  0  0
   55.4230   23.4972   45.6648 H   0  0  0  0  0  0  0  0  0  0  0  0
   57.2183   23.4370   45.6648 H   0  0  0  0  0  0  0  0  0  0  0  0
   58.3666   27.8086   47.3045 H   0  0  0  0  0  0  0  0  0  0  0  0
   59.0537   30.1956   47.4440 H   0  0  0  0  0  0  0  0  0  0  0  0
   56.4467   28.5662   43.5072 H   0  0  0  0  0  0  0  0  0  0  0  0
   57.0291   30.6582   42.3617 H   0  0  0  0  0  0  0  0  0  0  0  0
   56.0252   31.5984   43.5367 H   0  0  0  0  0  0  0  0  0  0  0  0
   58.9857   32.0183   42.9001 H   0  0  0  0  0  0  0  0  0  0  0  0
   57.6125   33.1028   42.4715 H   0  0  0  0  0  0  0  0  0  0  0  0
   58.8696   33.8881   44.4870 H   0  0  0  0  0  0  0  0  0  0  0  0
   57.1394   33.4974   44.8379 H   0  0  0  0  0  0  0  0  0  0  0  0
   60.7065   30.7283   47.8451 H   0  0  0  0  0  0  0  0  0  0  0  0
   63.1860   30.7673   48.1216 H   0  0  0  0  0  0  0  0  0  0  0  0
   64.4971   32.7609   47.3880 H   0  0  0  0  0  0  0  0  0  0  0  0
   63.3280   34.7188   46.3744 H   0  0  0  0  0  0  0  0  0  0  0  0
   60.8498   34.6936   46.0971 H   0  0  0  0  0  0  0  0  0  0  0  0
  1  2  1  0
  2  3  1  0
  2  4  1  0
  4  5  2  0
  4  6  1  0
  6  7  1  0
  7  8  2  0
  8  9  1  0
  9 10  2  0
 10 11  1  0
 11 12  2  0
 11 13  1  0
 13 14  1  0
 14 15  1  0
 15 16  1  0
 16 17  1  0
 17 18  2  0
 17 19  1  0
 19 20  2  0
 20 21  1  0
 21 22  2  0
 22 23  1  0
 23 24  2  0
 12  7  1  0
 24 19  1  0
 16 10  1  0
  1 25  1  0
  1 26  1  0
  1 27  1  0
  2 28  1  0
  3 29  1  0
  3 30  1  0
  3 31  1  0
  8 32  1  0
  9 33  1  0
 12 34  1  0
 13 35  1  0
 13 36  1  0
 14 37  1  0
 14 38  1  0
 15 39  1  0
 15 40  1  0
 20 41  1  0
 21 42  1  0
 22 43  1  0
 23 44  1  0
 24 45  1  0
M  CHG  1   6  -1
M  END
>  <UniqueID>  (6) 
5

>  <SMILES>  (6) 
CC(C)C(=O)[N-]c1ccc2c(c1)CCCN2C(=O)c1ccccc1

>  <Energy>  (6) 
54.85971498404359

>  <Genealogy>  (6) 
CC(C)C(=O)[N-]c1ccc2c(c1)CCCN2C(=O)c1ccccc1 (protonated)
CC(C)C(=O)[N-]c1ccc2c(c1)CCCN2C(=O)c1ccccc1 (3D coordinates assigned)
CC(C)C(=O)[N-]c1ccc2c(c1)CCCN2C(=O)c1ccccc1 (nonaromatic ring conformer: 54.85971498404359 kcal/mol)

>  <smiles>  (6) 
CC(C)C(=O)Nc1ccc2c(c1)CCCN2C(=O)c1ccccc1

>  <score_type>  (6) 
oracle

>  <origin>  (6) 
adg

>  <m_score__min__energy>  (6) 
-10.23

>  <m_primary>  (6) 
energy

$$$$
6:0
     RDKit          3D

 46 49  0  0  0  0  0  0  0  0999 V2000
   58.3290   29.6440   49.8100 N   0  0  0  0  0  0  0  0  0  0  0  0
   57.8200   30.2960   50.9710 C   0  0  0  0  0  0  0  0  0  0  0  0
   56.9300   29.7190   51.6520 O   0  0  0  0  0  0  0  0  0  0  0  0
   58.2930   31.6480   51.3640 C   0  0  0  0  0  0  0  0  0  0  0  0
   57.7990   32.2130   52.5550 C   0  0  0  0  0  0  0  0  0  0  0  0
   58.1950   33.4880   52.9610 C   0  0  0  0  0  0  0  0  0  0  0  0
   59.1000   34.2160   52.1920 C   0  0  0  0  0  0  0  0  0  0  0  0
   59.6120   33.6710   51.0150 C   0  0  0  0  0  0  0  0  0  0  0  0
   59.2160   32.3950   50.5830 C   0  0  0  0  0  0  0  0  0  0  0  0
   59.8260   31.8450   49.4020 N   0  0  0  0  0  0  0  0  0  0  0  0
   59.2930   32.1500   48.0960 C   0  0  0  0  0  0  0  0  0  0  0  0
   59.1570   33.4860   47.6820 C   0  0  0  0  0  0  0  0  0  0  0  0
   58.6510   33.7740   46.4150 C   0  0  0  0  0  0  0  0  0  0  0  0
   58.2840   32.7310   45.5590 C   0  0  0  0  0  0  0  0  0  0  0  0
   57.7740   32.9920   44.2780 C   0  0  0  0  0  0  0  0  0  0  0  0
   57.4220   31.9320   43.4360 C   0  0  0  0  0  0  0  0  0  0  0  0
   57.5760   30.6120   43.8680 C   0  0  0  0  0  0  0  0  0  0  0  0
   58.0830   30.3420   45.1420 C   0  0  0  0  0  0  0  0  0  0  0  0
   58.4390   31.3970   45.9980 C   0  0  0  0  0  0  0  0  0  0  0  0
   58.9360   31.1430   47.2430 N   0  0  0  0  0  0  0  0  0  0  0  0
   61.1630   30.7410   49.5800 S   0  0  0  0  0  0  0  0  0  0  0  0
   61.0910   30.0440   50.9090 O   0  0  0  0  0  0  0  0  0  0  0  0
   61.1020   29.6920   48.5040 O   0  0  0  0  0  0  0  0  0  0  0  0
   62.6790   31.6300   49.4810 C   0  0  0  0  0  0  0  0  0  0  0  0
   63.6600   31.4340   50.4630 C   0  0  0  0  0  0  0  0  0  0  0  0
   64.8580   32.1530   50.4120 C   0  0  0  0  0  0  0  0  0  0  0  0
   65.0810   33.0700   49.3800 C   0  0  0  0  0  0  0  0  0  0  0  0
   64.1070   33.2670   48.3990 C   0  0  0  0  0  0  0  0  0  0  0  0
   62.9070   32.5490   48.4460 C   0  0  0  0  0  0  0  0  0  0  0  0
   59.3430   29.4170   49.7190 H   0  0  0  0  0  0  0  0  0  0  0  0
   57.0914   31.6418   53.1739 H   0  0  0  0  0  0  0  0  0  0  0  0
   57.7920   33.9187   53.8895 H   0  0  0  0  0  0  0  0  0  0  0  0
   59.4109   35.2211   52.5133 H   0  0  0  0  0  0  0  0  0  0  0  0
   60.3343   34.2472   50.4182 H   0  0  0  0  0  0  0  0  0  0  0  0
   59.4495   34.3039   48.3569 H   0  0  0  0  0  0  0  0  0  0  0  0
   58.5408   34.8190   46.0897 H   0  0  0  0  0  0  0  0  0  0  0  0
   57.6510   34.0302   43.9360 H   0  0  0  0  0  0  0  0  0  0  0  0
   57.0232   32.1379   42.4317 H   0  0  0  0  0  0  0  0  0  0  0  0
   57.2970   29.7819   43.2024 H   0  0  0  0  0  0  0  0  0  0  0  0
   58.2035   29.3006   45.4752 H   0  0  0  0  0  0  0  0  0  0  0  0
   59.0720   30.1520   47.5390 H   0  0  0  0  0  0  0  0  0  0  0  0
   63.4869   30.7129   51.2755 H   0  0  0  0  0  0  0  0  0  0  0  0
   65.6257   31.9973   51.1842 H   0  0  0  0  0  0  0  0  0  0  0  0
   66.0234   33.6360   49.3410 H   0  0  0  0  0  0  0  0  0  0  0  0
   64.2835   33.9883   47.5874 H   0  0  0  0  0  0  0  0  0  0  0  0
   62.1421   32.7052   47.6711 H   0  0  0  0  0  0  0  0  0  0  0  0
  1  2  1  0
  2  3  2  0
  2  4  1  0
  4  5  2  0
  5  6  1  0
  6  7  2  0
  7  8  1  0
  8  9  2  0
  9 10  1  0
 10 11  1  0
 11 12  2  0
 12 13  1  0
 13 14  2  0
 14 15  1  0
 15 16  2  0
 16 17  1  0
 17 18  2  0
 18 19  1  0
 19 20  2  0
 10 21  1  0
 21 22  2  0
 21 23  2  0
 21 24  1  0
 24 25  2  0
 25 26  1  0
 26 27  2  0
 27 28  1  0
 28 29  2  0
  9  4  1  0
 20 11  1  0
 29 24  1  0
 19 14  1  0
  1 30  1  0
  5 31  1  0
  6 32  1  0
  7 33  1  0
  8 34  1  0
 12 35  1  0
 13 36  1  0
 15 37  1  0
 16 38  1  0
 17 39  1  0
 18 40  1  0
 20 41  1  0
 25 42  1  0
 26 43  1  0
 27 44  1  0
 28 45  1  0
 29 46  1  0
M  CHG  2   1  -1  20   1
M  END
>  <UniqueID>  (7) 
6

>  <SMILES>  (7) 
[NH-]C(=O)c1ccccc1N(c1ccc2ccccc2[nH+]1)S(=O)(=O)c1ccccc1

>  <Energy>  (7) 
66.80886657429278

>  <Genealogy>  (7) 
[NH-]C(=O)c1ccccc1N(c1ccc2ccccc2[nH+]1)S(=O)(=O)c1ccccc1 (protonated)
[NH-]C(=O)c1ccccc1N(c1ccc2ccccc2[nH+]1)S(=O)(=O)c1ccccc1 (3D coordinates assigned)
[NH-]C(=O)c1ccccc1N(c1ccc2ccccc2[nH+]1)S(=O)(=O)c1ccccc1 (optimized conformer: 66.80886657429278 kcal/mol)

>  <smiles>  (7) 
NC(=O)c1ccccc1N(c1ccc2ccccc2n1)S(=O)(=O)c1ccccc1

>  <score_type>  (7) 
oracle

>  <origin>  (7) 
adg

>  <m_score__min__energy>  (7) 
-9.2899999999999991

>  <m_primary>  (7) 
energy

$$$$
7:0
     RDKit          3D

 34 36  0  0  0  0  0  0  0  0999 V2000
   59.2750   33.3690   51.1270 C   0  0  0  0  0  0  0  0  0  0  0  0
   59.9230   33.5700   49.7980 C   0  0  0  0  0  0  0  0  0  0  0  0
   59.1520   33.8360   48.6950 N   0  0  0  0  0  0  0  0  0  0  0  0
   59.6990   33.9960   47.4520 C   0  0  0  0  0  0  0  0  0  0  0  0
   58.8530   34.2530   46.3150 N   0  0  0  0  0  0  0  0  0  0  0  0
   59.2800   35.1490   45.2380 C   0  0  0  0  0  0  0  0  0  0  0  0
   57.5360   33.6130   46.2350 C   0  0  0  0  0  0  0  0  0  0  0  0
   57.5250   32.6030   45.1310 C   0  0  0  0  0  0  0  0  0  0  0  0
   58.0560   32.7840   43.8700 C   0  0  0  0  0  0  0  0  0  0  0  0
   57.8560   31.5900   43.2110 C   0  0  0  0  0  0  0  0  0  0  0  0
   57.2230   30.7560   44.1120 C   0  0  0  0  0  0  0  0  0  0  0  0
   57.0420   31.3880   45.2490 O   0  0  0  0  0  0  0  0  0  0  0  0
   61.0820   33.8460   47.3410 C   0  0  0  0  0  0  0  0  0  0  0  0
   61.9810   33.8400   46.2900 C   0  0  0  0  0  0  0  0  0  0  0  0
   63.2170   33.5750   46.7850 N   0  0  0  0  0  0  0  0  0  0  0  0
   63.1100   33.4070   48.0990 N   0  0  0  0  0  0  0  0  0  0  0  0
   64.2240   33.1020   48.9870 C   0  0  0  0  0  0  0  0  0  0  0  0
   61.8240   33.5680   48.4420 C   0  0  0  0  0  0  0  0  0  0  0  0
   61.2770   33.4190   49.6730 N   0  0  0  0  0  0  0  0  0  0  0  0
   59.9980   33.5933   51.9251 H   0  0  0  0  0  0  0  0  0  0  0  0
   58.4086   34.0406   51.2178 H   0  0  0  0  0  0  0  0  0  0  0  0
   58.9407   32.3250   51.2178 H   0  0  0  0  0  0  0  0  0  0  0  0
   59.7150   36.0618   45.6712 H   0  0  0  0  0  0  0  0  0  0  0  0
   60.0336   34.6427   44.6170 H   0  0  0  0  0  0  0  0  0  0  0  0
   58.4121   35.4155   44.6170 H   0  0  0  0  0  0  0  0  0  0  0  0
   57.3156   33.1122   47.1893 H   0  0  0  0  0  0  0  0  0  0  0  0
   56.7735   34.3793   46.0315 H   0  0  0  0  0  0  0  0  0  0  0  0
   58.5375   33.6904   43.4742 H   0  0  0  0  0  0  0  0  0  0  0  0
   58.1426   31.3498   42.1765 H   0  0  0  0  0  0  0  0  0  0  0  0
   56.9168   29.7193   43.9081 H   0  0  0  0  0  0  0  0  0  0  0  0
   61.7361   34.0194   45.2327 H   0  0  0  0  0  0  0  0  0  0  0  0
   63.8947   33.1922   50.0327 H   0  0  0  0  0  0  0  0  0  0  0  0
   64.5720   32.0755   48.7994 H   0  0  0  0  0  0  0  0  0  0  0  0
   65.0464   33.8080   48.7994 H   0  0  0  0  0  0  0  0  0  0  0  0
  1  2  1  0
  2  3  2  0
  3  4  1  0
  4  5  1  0
  5  6  1  0
  5  7  1  0
  7  8  1  0
  8  9  2  0
  9 10  1  0
 10 11  2  0
 11 12  1  0
  4 13  2  0
 13 14  1  0
 14 15  2  0
 15 16  1  0
 16 17  1  0
 16 18  1  0
 18 19  2  0
 19  2  1  0
 12  8  1  0
 18 13  1  0
  1 20  1  0
  1 21  1  0
  1 22  1  0
  6 23  1  0
  6 24  1  0
  6 25  1  0
  7 26  1  0
  7 27  1  0
  9 28  1  0
 10 29  1  0
 11 30  1  0
 14 31  1  0
 17 32  1  0
 17 33  1  0
 17 34  1  0
M  END
>  <UniqueID>  (8) 
7

>  <SMILES>  (8) 
Cc1nc(N(C)Cc2ccco2)c2cnn(C)c2n1

>  <Energy>  (8) 
101.96927602118043

>  <Genealogy>  (8) 
Cc1nc(N(C)Cc2ccco2)c2cnn(C)c2n1 (3D coordinates assigned)
Cc1nc(N(C)Cc2ccco2)c2cnn(C)c2n1 (optimized conformer: 101.96927602118043 kcal/mol)

>  <smiles>  (8) 
Cc1nc(N(C)Cc2ccco2)c2cnn(C)c2n1

>  <score_type>  (8) 
oracle

>  <origin>  (8) 
adg

>  <m_score__min__energy>  (8) 
-6.2999999999999998

>  <m_primary>  (8) 
energy

$$$$
8:0
     RDKit          3D

 18 19  0  0  0  0  0  0  0  0999 V2000
   59.4420   32.7030   48.1830 F   0  0  0  0  0  0  0  0  0  0  0  0
   58.9850   32.8130   46.8920 C   0  0  0  0  0  0  0  0  0  0  0  0
   59.3220   33.9070   46.1270 C   0  0  0  0  0  0  0  0  0  0  0  0
   58.8720   34.0250   44.8440 N   0  0  0  0  0  0  0  0  0  0  0  0
   58.0870   33.0700   44.2960 C   0  0  0  0  0  0  0  0  0  0  0  0
   57.7390   31.9670   45.0460 C   0  0  0  0  0  0  0  0  0  0  0  0
   56.8920   30.9390   44.4570 C   0  0  0  0  0  0  0  0  0  0  0  0
   56.7580   30.6420   43.1170 C   0  0  0  0  0  0  0  0  0  0  0  0
   55.8480   29.5930   43.0000 C   0  0  0  0  0  0  0  0  0  0  0  0
   55.4590   29.2890   44.2690 N   0  0  0  0  0  0  0  0  0  0  0  0
   56.0790   30.0880   45.1290 N   0  0  0  0  0  0  0  0  0  0  0  0
   58.1750   31.8180   46.3410 C   0  0  0  0  0  0  0  0  0  0  0  0
   59.9606   34.6941   46.5544 H   0  0  0  0  0  0  0  0  0  0  0  0
   57.7293   33.1724   43.2608 H   0  0  0  0  0  0  0  0  0  0  0  0
   57.2774   31.1441   42.2875 H   0  0  0  0  0  0  0  0  0  0  0  0
   55.5122   29.1089   42.0711 H   0  0  0  0  0  0  0  0  0  0  0  0
   54.7690   28.5310   44.5030 H   0  0  0  0  0  0  0  0  0  0  0  0
   57.8918   30.9337   46.9308 H   0  0  0  0  0  0  0  0  0  0  0  0
  1  2  1  0
  2  3  2  0
  3  4  1  0
  4  5  2  0
  5  6  1  0
  6  7  1  0
  7  8  1  0
  8  9  2  0
  9 10  1  0
 10 11  1  0
  6 12  2  0
 12  2  1  0
 11  7  2  0
  3 13  1  0
  5 14  1  0
  8 15  1  0
  9 16  1  0
 10 17  1  0
 12 18  1  0
M  END
>  <smiles>  (9) 
Fc1cncc(-c2cc[nH]n2)c1

>  <score_type>  (9) 
oracle

>  <origin>  (9) 
adg

>  <m_score__min__energy>  (9) 
-5.5800000000000001

>  <m_primary>  (9) 
energy

$$$$
9:0
     RDKit          3D

 44 47  0  0  0  0  0  0  0  0999 V2000
   58.6360   24.0780   45.6380 C   0  0  0  0  0  0  0  0  0  0  0  0
   59.5110   25.1790   45.8560 O   0  0  0  0  0  0  0  0  0  0  0  0
   59.1130   26.5240   45.8300 C   0  0  0  0  0  0  0  0  0  0  0  0
   58.8780   27.1260   44.5880 C   0  0  0  0  0  0  0  0  0  0  0  0
   58.4820   28.4630   44.5090 C   0  0  0  0  0  0  0  0  0  0  0  0
   58.3350   29.2270   45.6770 C   0  0  0  0  0  0  0  0  0  0  0  0
   57.8850   30.6290   45.6060 C   0  0  0  0  0  0  0  0  0  0  0  0
   56.6680   30.9770   45.1330 N   0  0  0  0  0  0  0  0  0  0  0  0
   56.6410   32.3000   45.0390 N   0  0  0  0  0  0  0  0  0  0  0  0
   57.8480   32.7340   45.4440 C   0  0  0  0  0  0  0  0  0  0  0  0
   58.6400   31.7270   45.8350 N   0  0  0  0  0  0  0  0  0  0  0  0
   59.9480   31.9430   46.3960 C   0  0  0  0  0  0  0  0  0  0  0  0
   60.5870   30.9980   47.2120 C   0  0  0  0  0  0  0  0  0  0  0  0
   61.8400   31.2770   47.7600 C   0  0  0  0  0  0  0  0  0  0  0  0
   62.4670   32.5120   47.5340 C   0  0  0  0  0  0  0  0  0  0  0  0
   63.7690   32.7480   48.1070 N   0  0  0  0  0  0  0  0  0  0  0  0
   64.0310   33.0390   49.5190 C   0  0  0  0  0  0  0  0  0  0  0  0
   62.9670   33.9740   50.0960 C   0  0  0  0  0  0  0  0  0  0  0  0
   62.6430   34.9670   49.1900 F   0  0  0  0  0  0  0  0  0  0  0  0
   63.4530   34.5640   51.2490 F   0  0  0  0  0  0  0  0  0  0  0  0
   61.8270   33.2540   50.4060 F   0  0  0  0  0  0  0  0  0  0  0  0
   61.8030   33.4800   46.7550 C   0  0  0  0  0  0  0  0  0  0  0  0
   60.5350   33.2130   46.2170 C   0  0  0  0  0  0  0  0  0  0  0  0
   59.8140   34.2600   45.3860 C   0  0  0  0  0  0  0  0  0  0  0  0
   58.2790   34.1660   45.5250 C   0  0  0  0  0  0  0  0  0  0  0  0
   58.5440   28.6220   46.9240 C   0  0  0  0  0  0  0  0  0  0  0  0
   58.9390   27.2840   47.0030 C   0  0  0  0  0  0  0  0  0  0  0  0
   58.3117   23.6700   46.6067 H   0  0  0  0  0  0  0  0  0  0  0  0
   57.7568   24.4153   45.0694 H   0  0  0  0  0  0  0  0  0  0  0  0
   59.1631   23.2977   45.0694 H   0  0  0  0  0  0  0  0  0  0  0  0
   59.0065   26.5404   43.6657 H   0  0  0  0  0  0  0  0  0  0  0  0
   58.2846   28.9189   43.5276 H   0  0  0  0  0  0  0  0  0  0  0  0
   60.0993   30.0343   47.4207 H   0  0  0  0  0  0  0  0  0  0  0  0
   62.3430   30.5183   48.3776 H   0  0  0  0  0  0  0  0  0  0  0  0
   64.6000   32.7120   47.4740 H   0  0  0  0  0  0  0  0  0  0  0  0
   64.0270   32.0968   50.0866 H   0  0  0  0  0  0  0  0  0  0  0  0
   65.0102   33.5340   49.5975 H   0  0  0  0  0  0  0  0  0  0  0  0
   62.2821   34.4522   46.5672 H   0  0  0  0  0  0  0  0  0  0  0  0
   60.1383   35.2579   45.7161 H   0  0  0  0  0  0  0  0  0  0  0  0
   60.0669   34.0832   44.3302 H   0  0  0  0  0  0  0  0  0  0  0  0
   57.9741   34.5846   46.4955 H   0  0  0  0  0  0  0  0  0  0  0  0
   57.8056   34.7339   44.7106 H   0  0  0  0  0  0  0  0  0  0  0  0
   58.3962   29.2039   47.8457 H   0  0  0  0  0  0  0  0  0  0  0  0
   59.1149   26.8222   47.9857 H   0  0  0  0  0  0  0  0  0  0  0  0
  1  2  1  0
  2  3  1  0
  3  4  2  0
  4  5  1  0
  5  6  2  0
  6  7  1  0
  7  8  2  0
  8  9  1  0
  9 10  2  0
 10 11  1  0
 11 12  1  0
 12 13  2  0
 13 14  1  0
 14 15  2  0
 15 16  1  0
 16 17  1  0
 17 18  1  0
 18 19  1  0
 18 20  1  0
 18 21  1  0
 15 22  1  0
 22 23  2  0
 23 24  1  0
 24 25  1  0
  6 26  1  0
 26 27  2  0
 27  3  1  0
 11  7  1  0
 23 12  1  0
 25 10  1  0
  1 28  1  0
  1 29  1  0
  1 30  1  0
  4 31  1  0
  5 32  1  0
 13 33  1  0
 14 34  1  0
 16 35  1  0
 17 36  1  0
 17 37  1  0
 22 38  1  0
 24 39  1  0
 24 40  1  0
 25 41  1  0
 25 42  1  0
 26 43  1  0
 27 44  1  0
M  END
>  <UniqueID>  (10) 
8

>  <SMILES>  (10) 
COc1ccc(-c2nnc3n2-c2ccc(NCC(F)(F)F)cc2CC3)cc1

>  <Energy>  (10) 
92.65417097051925

>  <Genealogy>  (10) 
COc1ccc(-c2nnc3n2-c2ccc(NCC(F)(F)F)cc2CC3)cc1 (3D coordinates assigned)
COc1ccc(-c2nnc3n2-c2ccc(NCC(F)(F)F)cc2CC3)cc1 (nonaromatic ring conformer: 92.65417097051925 kcal/mol)

>  <smiles>  (10) 
COc1ccc(-c2nnc3n2-c2ccc(NCC(F)(F)F)cc2CC3)cc1

>  <score_type>  (10) 
oracle

>  <origin>  (10) 
adg

>  <m_score__min__energy>  (10) 
-7.6900000000000004

>  <m_primary>  (10) 
energy

$$$$
10:0
     RDKit          3D

 29 30  0  0  0  0  0  0  0  0999 V2000
   57.5080   28.3410   44.4610 C   0  0  0  0  0  0  0  0  0  0  0  0
   56.6450   29.5590   44.5660 C   0  0  0  0  0  0  0  0  0  0  0  0
   55.4290   29.4300   44.8680 O   0  0  0  0  0  0  0  0  0  0  0  0
   57.1950   30.9040   44.3250 C   0  0  0  0  0  0  0  0  0  0  0  0
   57.6440   31.4100   43.1070 C   0  0  0  0  0  0  0  0  0  0  0  0
   58.1200   32.7230   43.1930 C   0  0  0  0  0  0  0  0  0  0  0  0
   58.0330   33.2600   44.4730 C   0  0  0  0  0  0  0  0  0  0  0  0
   58.5180   34.6250   44.8940 C   0  0  0  0  0  0  0  0  0  0  0  0
   59.4830   34.6220   46.0150 N   0  0  0  0  0  0  0  0  0  0  0  0
   60.4430   33.5180   46.0080 C   0  0  0  0  0  0  0  0  0  0  0  0
   60.9780   33.4120   47.4300 C   0  0  0  0  0  0  0  0  0  0  0  0
   59.9800   34.1660   48.3010 C   0  0  0  0  0  0  0  0  0  0  0  0
   58.8890   34.6410   47.3520 C   0  0  0  0  0  0  0  0  0  0  0  0
   57.3950   32.0900   45.5020 S   0  0  0  0  0  0  0  0  0  0  0  0
   57.7615   27.9832   45.4698 H   0  0  0  0  0  0  0  0  0  0  0  0
   56.9656   27.5530   43.9180 H   0  0  0  0  0  0  0  0  0  0  0  0
   58.4313   28.5915   43.9180 H   0  0  0  0  0  0  0  0  0  0  0  0
   57.6261   30.8340   42.1700 H   0  0  0  0  0  0  0  0  0  0  0  0
   58.5236   33.2764   42.3323 H   0  0  0  0  0  0  0  0  0  0  0  0
   59.0020   35.0986   44.0271 H   0  0  0  0  0  0  0  0  0  0  0  0
   57.6324   35.1722   45.2493 H   0  0  0  0  0  0  0  0  0  0  0  0
   59.9450   32.5813   45.7170 H   0  0  0  0  0  0  0  0  0  0  0  0
   61.2540   33.6963   45.2866 H   0  0  0  0  0  0  0  0  0  0  0  0
   61.0386   32.3583   47.7398 H   0  0  0  0  0  0  0  0  0  0  0  0
   61.9913   33.8314   47.5159 H   0  0  0  0  0  0  0  0  0  0  0  0
   59.5588   33.4995   49.0680 H   0  0  0  0  0  0  0  0  0  0  0  0
   60.4537   35.0056   48.8309 H   0  0  0  0  0  0  0  0  0  0  0  0
   58.0230   33.9641   47.3954 H   0  0  0  0  0  0  0  0  0  0  0  0
   58.5305   35.6458   47.6200 H   0  0  0  0  0  0  0  0  0  0  0  0
  1  2  1  0
  2  3  2  0
  2  4  1  0
  4  5  2  0
  5  6  1  0
  6  7  2  0
  7  8  1  0
  8  9  1  0
  9 10  1  0
 10 11  1  0
 11 12  1  0
 12 13  1  0
  7 14  1  0
 14  4  1  0
 13  9  1  0
  1 15  1  0
  1 16  1  0
  1 17  1  0
  5 18  1  0
  6 19  1  0
  8 20  1  0
  8 21  1  0
 10 22  1  0
 10 23  1  0
 11 24  1  0
 11 25  1  0
 12 26  1  0
 12 27  1  0
 13 28  1  0
 13 29  1  0
M  END
>  <UniqueID>  (11) 
9

>  <SMILES>  (11) 
CC(=O)c1ccc(CN2CCCC2)s1

>  <Energy>  (11) 
57.70761126405114

>  <Genealogy>  (11) 
CC(=O)c1ccc(CN2CCCC2)s1 (3D coordinates assigned)
CC(=O)c1ccc(CN2CCCC2)s1 (nonaromatic ring conformer: 57.70761126405114 kcal/mol)

>  <smiles>  (11) 
CC(=O)c1ccc(CN2CCCC2)s1

>  <score_type>  (11) 
oracle

>  <origin>  (11) 
adg

>  <m_score__min__energy>  (11) 
-6.46

>  <m_primary>  (11) 
energy

$$$$
11:0
     RDKit          3D

 38 41  0  0  0  0  0  0  0  0999 V2000
   57.7650   32.3490   40.8760 C   0  0  0  0  0  0  0  0  0  0  0  0
   57.0170   32.2670   42.0840 O   0  0  0  0  0  0  0  0  0  0  0  0
   57.2490   31.3290   43.1050 C   0  0  0  0  0  0  0  0  0  0  0  0
   56.8400   29.9870   42.9810 C   0  0  0  0  0  0  0  0  0  0  0  0
   57.0830   29.0740   44.0100 C   0  0  0  0  0  0  0  0  0  0  0  0
   57.7340   29.4800   45.1730 C   0  0  0  0  0  0  0  0  0  0  0  0
   58.1500   30.8100   45.3230 C   0  0  0  0  0  0  0  0  0  0  0  0
   58.7860   31.2090   46.4630 N   0  0  0  0  0  0  0  0  0  0  0  0
   59.1960   32.4990   46.6420 C   0  0  0  0  0  0  0  0  0  0  0  0
   59.8910   32.8940   47.8910 C   0  0  0  0  0  0  0  0  0  0  0  0
   59.1150   33.1160   49.0390 C   0  0  0  0  0  0  0  0  0  0  0  0
   59.7070   33.5370   50.2290 C   0  0  0  0  0  0  0  0  0  0  0  0
   61.0840   33.7430   50.2980 C   0  0  0  0  0  0  0  0  0  0  0  0
   61.6290   34.1580   51.4700 F   0  0  0  0  0  0  0  0  0  0  0  0
   61.8900   33.5140   49.1690 C   0  0  0  0  0  0  0  0  0  0  0  0
   63.2820   33.7040   49.2400 C   0  0  0  0  0  0  0  0  0  0  0  0
   64.0850   33.4530   48.1270 C   0  0  0  0  0  0  0  0  0  0  0  0
   63.5140   33.0030   46.9370 C   0  0  0  0  0  0  0  0  0  0  0  0
   62.1330   32.8100   46.8470 C   0  0  0  0  0  0  0  0  0  0  0  0
   61.2970   33.0760   47.9530 C   0  0  0  0  0  0  0  0  0  0  0  0
   58.9840   33.4430   45.6310 C   0  0  0  0  0  0  0  0  0  0  0  0
   58.3380   33.0650   44.4560 C   0  0  0  0  0  0  0  0  0  0  0  0
   57.9070   31.7410   44.2830 C   0  0  0  0  0  0  0  0  0  0  0  0
   58.8327   32.4661   41.1131 H   0  0  0  0  0  0  0  0  0  0  0  0
   57.6181   31.4294   40.2906 H   0  0  0  0  0  0  0  0  0  0  0  0
   57.4223   33.2150   40.2906 H   0  0  0  0  0  0  0  0  0  0  0  0
   56.3254   29.6553   42.0671 H   0  0  0  0  0  0  0  0  0  0  0  0
   56.7585   28.0286   43.9014 H   0  0  0  0  0  0  0  0  0  0  0  0
   57.9223   28.7534   45.9771 H   0  0  0  0  0  0  0  0  0  0  0  0
   58.9740   30.5090   47.2180 H   0  0  0  0  0  0  0  0  0  0  0  0
   58.0274   32.9561   48.9995 H   0  0  0  0  0  0  0  0  0  0  0  0
   59.0836   33.7077   51.1191 H   0  0  0  0  0  0  0  0  0  0  0  0
   63.7397   34.0522   50.1777 H   0  0  0  0  0  0  0  0  0  0  0  0
   65.1719   33.6106   48.1884 H   0  0  0  0  0  0  0  0  0  0  0  0
   64.1534   32.7991   46.0655 H   0  0  0  0  0  0  0  0  0  0  0  0
   61.6934   32.4476   45.9060 H   0  0  0  0  0  0  0  0  0  0  0  0
   59.3263   34.4800   45.7636 H   0  0  0  0  0  0  0  0  0  0  0  0
   58.1654   33.8064   43.6619 H   0  0  0  0  0  0  0  0  0  0  0  0
  1  2  1  0
  2  3  1  0
  3  4  2  0
  4  5  1  0
  5  6  2  0
  6  7  1  0
  7  8  2  0
  8  9  1  0
  9 10  1  0
 10 11  2  0
 11 12  1  0
 12 13  2  0
 13 14  1  0
 13 15  1  0
 15 16  2  0
 16 17  1  0
 17 18  2  0
 18 19  1  0
 19 20  2  0
  9 21  2  0
 21 22  1  0
 22 23  2  0
 23  3  1  0
 23  7  1  0
 20 10  1  0
 20 15  1  0
  1 24  1  0
  1 25  1  0
  1 26  1  0
  4 27  1  0
  5 28  1  0
  6 29  1  0
  8 30  1  0
 11 31  1  0
 12 32  1  0
 16 33  1  0
 17 34  1  0
 18 35  1  0
 19 36  1  0
 21 37  1  0
 22 38  1  0
M  CHG  1   8   1
M  END
>  <UniqueID>  (12) 
10

>  <SMILES>  (12) 
COc1cccc2[nH+]c(-c3ccc(F)c4ccccc34)ccc12

>  <Energy>  (12) 
58.225139012932075

>  <Genealogy>  (12) 
COc1cccc2[nH+]c(-c3ccc(F)c4ccccc34)ccc12 (protonated)
COc1cccc2[nH+]c(-c3ccc(F)c4ccccc34)ccc12 (3D coordinates assigned)
COc1cccc2[nH+]c(-c3ccc(F)c4ccccc34)ccc12 (optimized conformer: 58.225139012932075 kcal/mol)

>  <smiles>  (12) 
COc1cccc2nc(-c3ccc(F)c4ccccc34)ccc12

>  <score_type>  (12) 
oracle

>  <origin>  (12) 
adg

>  <m_score__min__energy>  (12) 
-5.9900000000000002

>  <m_primary>  (12) 
energy

$$$$
12:0
     RDKit          3D

 32 34  0  0  0  0  0  0  0  0999 V2000
   58.2090   27.0880   44.4890 C   0  0  0  0  0  0  0  0  0  0  0  0
   57.7740   27.8940   43.4340 C   0  0  0  0  0  0  0  0  0  0  0  0
   57.3460   29.2020   43.6810 C   0  0  0  0  0  0  0  0  0  0  0  0
   57.3370   29.7090   44.9870 C   0  0  0  0  0  0  0  0  0  0  0  0
   56.9160   31.0310   45.1930 O   0  0  0  0  0  0  0  0  0  0  0  0
   57.7620   32.1390   45.3550 C   0  0  0  0  0  0  0  0  0  0  0  0
   57.4060   33.4180   44.8990 C   0  0  0  0  0  0  0  0  0  0  0  0
   58.2910   34.4800   45.0820 C   0  0  0  0  0  0  0  0  0  0  0  0
   59.4950   34.2710   45.6760 N   0  0  0  0  0  0  0  0  0  0  0  0
   59.8890   33.0400   46.1060 C   0  0  0  0  0  0  0  0  0  0  0  0
   61.2200   32.8910   46.7460 C   0  0  0  0  0  0  0  0  0  0  0  0
   61.5520   31.7360   47.4810 C   0  0  0  0  0  0  0  0  0  0  0  0
   62.8170   31.6260   48.0590 C   0  0  0  0  0  0  0  0  0  0  0  0
   63.7450   32.6530   47.9020 C   0  0  0  0  0  0  0  0  0  0  0  0
   63.3950   33.7800   47.1590 C   0  0  0  0  0  0  0  0  0  0  0  0
   62.1570   33.8760   46.5990 N   0  0  0  0  0  0  0  0  0  0  0  0
   59.0140   31.9480   45.9470 C   0  0  0  0  0  0  0  0  0  0  0  0
   57.7970   28.9000   46.0430 C   0  0  0  0  0  0  0  0  0  0  0  0
   58.2240   27.5920   45.7920 C   0  0  0  0  0  0  0  0  0  0  0  0
   58.5395   26.0571   44.2939 H   0  0  0  0  0  0  0  0  0  0  0  0
   57.7682   27.4990   42.4074 H   0  0  0  0  0  0  0  0  0  0  0  0
   57.0146   29.8362   42.8456 H   0  0  0  0  0  0  0  0  0  0  0  0
   56.4382   33.5809   44.4021 H   0  0  0  0  0  0  0  0  0  0  0  0
   58.0137   35.4896   44.7446 H   0  0  0  0  0  0  0  0  0  0  0  0
   60.8179   30.9253   47.5986 H   0  0  0  0  0  0  0  0  0  0  0  0
   63.0814   30.7290   48.6382 H   0  0  0  0  0  0  0  0  0  0  0  0
   64.7426   32.5758   48.3590 H   0  0  0  0  0  0  0  0  0  0  0  0
   64.1217   34.5948   47.0246 H   0  0  0  0  0  0  0  0  0  0  0  0
   61.9320   34.7400   46.0560 H   0  0  0  0  0  0  0  0  0  0  0  0
   59.3152   30.9465   46.2880 H   0  0  0  0  0  0  0  0  0  0  0  0
   57.8207   29.2975   47.0684 H   0  0  0  0  0  0  0  0  0  0  0  0
   58.5721   26.9592   46.6217 H   0  0  0  0  0  0  0  0  0  0  0  0
  1  2  2  0
  2  3  1  0
  3  4  2  0
  4  5  1  0
  5  6  1  0
  6  7  2  0
  7  8  1  0
  8  9  2  0
  9 10  1  0
 10 11  1  0
 11 12  2  0
 12 13  1  0
 13 14  2  0
 14 15  1  0
 15 16  2  0
 10 17  2  0
  4 18  1  0
 18 19  2  0
 19  1  1  0
 17  6  1  0
 16 11  1  0
  1 20  1  0
  2 21  1  0
  3 22  1  0
  7 23  1  0
  8 24  1  0
 12 25  1  0
 13 26  1  0
 14 27  1  0
 15 28  1  0
 16 29  1  0
 17 30  1  0
 18 31  1  0
 19 32  1  0
M  CHG  1  16   1
M  END
>  <UniqueID>  (13) 
11

>  <SMILES>  (13) 
c1ccc(Oc2ccnc(-c3cccc[nH+]3)c2)cc1

>  <Energy>  (13) 
46.05119697567667

>  <Genealogy>  (13) 
c1ccc(Oc2ccnc(-c3cccc[nH+]3)c2)cc1 (protonated)
c1ccc(Oc2ccnc(-c3cccc[nH+]3)c2)cc1 (3D coordinates assigned)
c1ccc(Oc2ccnc(-c3cccc[nH+]3)c2)cc1 (optimized conformer: 46.05119697567667 kcal/mol)

>  <smiles>  (13) 
c1ccc(Oc2ccnc(-c3ccccn3)c2)cc1

>  <score_type>  (13) 
oracle

>  <origin>  (13) 
adg

>  <m_score__min__energy>  (13) 
-5.2800000000000002

>  <m_primary>  (13) 
energy

$$$$
13:0
     RDKit          3D

 35 36  0  0  0  0  0  0  0  0999 V2000
   60.1310   30.5490   47.7770 C   0  0  0  0  0  0  0  0  0  0  0  0
   60.2420   29.2470   47.0950 N   0  0  0  0  0  0  0  0  0  0  0  0
   59.1460   28.3300   47.5090 C   0  0  0  0  0  0  0  0  0  0  0  0
   58.0010   28.2960   46.4860 C   0  0  0  0  0  0  0  0  0  0  0  0
   58.4680   27.8130   45.1600 N   0  0  0  0  0  0  0  0  0  0  0  0
   57.5560   28.2510   44.0800 C   0  0  0  0  0  0  0  0  0  0  0  0
   56.7910   29.4900   44.4750 C   0  0  0  0  0  0  0  0  0  0  0  0
   55.6090   29.3650   44.8960 O   0  0  0  0  0  0  0  0  0  0  0  0
   57.3710   30.8490   44.3330 C   0  0  0  0  0  0  0  0  0  0  0  0
   57.5900   31.4230   43.0650 C   0  0  0  0  0  0  0  0  0  0  0  0
   58.1330   32.7060   42.9520 C   0  0  0  0  0  0  0  0  0  0  0  0
   58.4600   33.4330   44.0990 C   0  0  0  0  0  0  0  0  0  0  0  0
   58.2390   32.8800   45.3630 C   0  0  0  0  0  0  0  0  0  0  0  0
   58.6820   33.8770   46.9310 Br  0  0  0  0  0  0  0  0  0  0  0  0
   57.6940   31.5960   45.4800 C   0  0  0  0  0  0  0  0  0  0  0  0
   59.8770   28.1850   44.8660 C   0  0  0  0  0  0  0  0  0  0  0  0
   60.3150   29.4460   45.6240 C   0  0  0  0  0  0  0  0  0  0  0  0
   60.1441   30.3948   48.8661 H   0  0  0  0  0  0  0  0  0  0  0  0
   60.9779   31.1882   47.4870 H   0  0  0  0  0  0  0  0  0  0  0  0
   59.1881   31.0356   47.4870 H   0  0  0  0  0  0  0  0  0  0  0  0
   61.1470   28.8170   47.4030 H   0  0  0  0  0  0  0  0  0  0  0  0
   59.5552   27.3146   47.6166 H   0  0  0  0  0  0  0  0  0  0  0  0
   58.7376   28.6998   48.4611 H   0  0  0  0  0  0  0  0  0  0  0  0
   57.2129   27.6227   46.8542 H   0  0  0  0  0  0  0  0  0  0  0  0
   57.6170   29.3196   46.3643 H   0  0  0  0  0  0  0  0  0  0  0  0
   58.1472   28.4676   43.1780 H   0  0  0  0  0  0  0  0  0  0  0  0
   56.8334   27.4441   43.8882 H   0  0  0  0  0  0  0  0  0  0  0  0
   57.3318   30.8574   42.1576 H   0  0  0  0  0  0  0  0  0  0  0  0
   58.3032   33.1442   41.9575 H   0  0  0  0  0  0  0  0  0  0  0  0
   58.8914   34.4407   44.0072 H   0  0  0  0  0  0  0  0  0  0  0  0
   57.5168   31.1676   46.4775 H   0  0  0  0  0  0  0  0  0  0  0  0
   60.5318   27.3508   45.1583 H   0  0  0  0  0  0  0  0  0  0  0  0
   59.9526   28.3955   43.7890 H   0  0  0  0  0  0  0  0  0  0  0  0
   61.3515   29.6885   45.3466 H   0  0  0  0  0  0  0  0  0  0  0  0
   59.6358   30.2672   45.3515 H   0  0  0  0  0  0  0  0  0  0  0  0
  1  2  1  0
  2  3  1  0
  3  4  1  0
  4  5  1  0
  5  6  1  0
  6  7  1  0
  7  8  2  0
  7  9  1  0
  9 10  2  0
 10 11  1  0
 11 12  2  0
 12 13  1  0
 13 14  1  0
 13 15  2  0
  5 16  1  0
 16 17  1  0
 17  2  1  0
 15  9  1  0
  1 18  1  0
  1 19  1  0
  1 20  1  0
  2 21  1  0
  3 22  1  0
  3 23  1  0
  4 24  1  0
  4 25  1  0
  6 26  1  0
  6 27  1  0
 10 28  1  0
 11 29  1  0
 12 30  1  0
 15 31  1  0
 16 32  1  0
 16 33  1  0
 17 34  1  0
 17 35  1  0
M  CHG  1   2   1
M  END
>  <UniqueID>  (14) 
12

>  <SMILES>  (14) 
C[NH+]1CCN(CC(=O)c2cccc(Br)c2)CC1

>  <Energy>  (14) 
49.18956942602162

>  <Genealogy>  (14) 
C[NH+]1CCN(CC(=O)c2cccc(Br)c2)CC1 (protonated)
C[NH+]1CCN(CC(=O)c2cccc(Br)c2)CC1 (3D coordinates assigned)
C[NH+]1CCN(CC(=O)c2cccc(Br)c2)CC1 (nonaromatic ring conformer: 49.18956942602162 kcal/mol)

>  <smiles>  (14) 
CN1CCN(CC(=O)c2cccc(Br)c2)CC1

>  <score_type>  (14) 
oracle

>  <origin>  (14) 
adg

>  <m_score__min__energy>  (14) 
-5.8600000000000003

>  <m_primary>  (14) 
energy

$$$$
14:0
     RDKit          3D

 78 84  0  0  0  0  0  0  0  0999 V2000
   63.1300   31.6750   47.9940 C   0  0  0  0  0  0  0  0  0  0  0  0
   61.8140   32.0160   48.7560 C   0  0  1  0  0  0  0  0  0  0  0  0
   60.7610   32.4580   47.7650 C   0  0  0  0  0  0  0  0  0  0  0  0
   60.9620   33.1920   46.6420 N   0  0  0  0  0  0  0  0  0  0  0  0
   59.7320   33.4900   46.1820 C   0  0  0  0  0  0  0  0  0  0  0  0
   59.4120   34.2470   45.0560 C   0  0  0  0  0  0  0  0  0  0  0  0
   58.0500   34.4700   44.7800 C   0  0  0  0  0  0  0  0  0  0  0  0
   57.0510   33.9460   45.6300 C   0  0  0  0  0  0  0  0  0  0  0  0
   57.4020   33.1920   46.7640 C   0  0  0  0  0  0  0  0  0  0  0  0
   58.7580   32.9790   47.0040 C   0  0  0  0  0  0  0  0  0  0  0  0
   59.4160   32.3160   48.0150 C   0  0  0  0  0  0  0  0  0  0  0  0
   58.8870   31.7030   49.2550 C   0  0  0  0  0  0  0  0  0  0  0  0
   59.7880   30.5160   49.6910 C   0  0  1  0  0  0  0  0  0  0  0  0
   59.3520   29.1840   48.9900 C   0  0  0  0  0  0  0  0  0  0  0  0
   60.3440   28.6790   48.0250 N   0  0  0  0  0  0  0  0  0  0  0  0
   59.7630   28.1950   46.7600 C   0  0  0  0  0  0  0  0  0  0  0  0
   59.9130   29.1920   45.5980 C   0  0  0  0  0  0  0  0  0  0  0  0
   58.5820   29.6460   45.0620 C   0  0  0  0  0  0  0  0  0  0  0  0
   57.4140   28.9350   45.3880 C   0  0  0  0  0  0  0  0  0  0  0  0
   56.1820   29.3240   44.8540 C   0  0  0  0  0  0  0  0  0  0  0  0
   56.1080   30.4210   43.9910 C   0  0  0  0  0  0  0  0  0  0  0  0
   57.2610   31.1500   43.6860 C   0  0  0  0  0  0  0  0  0  0  0  0
   58.4950   30.7680   44.2220 C   0  0  0  0  0  0  0  0  0  0  0  0
   61.3670   30.7660   49.5930 C   0  0  2  0  0  0  0  0  0  0  0  0
   62.0800   30.9200   50.8970 N   0  0  2  0  0  0  0  0  0  0  0  0
   61.7000   30.0500   52.0450 C   0  0  0  0  0  0  0  0  0  0  0  0
   62.0990   28.6040   51.8570 C   0  0  0  0  0  0  0  0  0  0  0  0
   61.1990   27.6900   51.2810 C   0  0  0  0  0  0  0  0  0  0  0  0
   61.5230   26.3330   51.2040 C   0  0  0  0  0  0  0  0  0  0  0  0
   62.7370   25.8720   51.7190 C   0  0  0  0  0  0  0  0  0  0  0  0
   63.0310   24.5500   51.6770 F   0  0  0  0  0  0  0  0  0  0  0  0
   63.6420   26.7740   52.2850 C   0  0  0  0  0  0  0  0  0  0  0  0
   63.3260   28.1330   52.3560 C   0  0  0  0  0  0  0  0  0  0  0  0
   62.1530   32.3820   51.1980 C   0  0  1  0  0  0  0  0  0  0  0  0
   61.0650   32.8670   52.1960 C   0  0  0  0  0  0  0  0  0  0  0  0
   63.5580   32.8120   51.7300 C   0  0  0  0  0  0  0  0  0  0  0  0
   64.0690   33.7720   50.7180 C   0  0  0  0  0  0  0  0  0  0  0  0
   63.2320   33.9460   49.7130 C   0  0  0  0  0  0  0  0  0  0  0  0
   61.9980   33.1140   49.8430 C   0  0  1  0  0  0  0  0  0  0  0  0
   63.9305   31.4676   48.7194 H   0  0  0  0  0  0  0  0  0  0  0  0
   62.9689   30.7889   47.3624 H   0  0  0  0  0  0  0  0  0  0  0  0
   63.4195   32.5278   47.3624 H   0  0  0  0  0  0  0  0  0  0  0  0
   61.8690   33.5070   46.2340 H   0  0  0  0  0  0  0  0  0  0  0  0
   60.1981   34.6566   44.4046 H   0  0  0  0  0  0  0  0  0  0  0  0
   57.7613   35.0569   43.8955 H   0  0  0  0  0  0  0  0  0  0  0  0
   55.9903   34.1291   45.4032 H   0  0  0  0  0  0  0  0  0  0  0  0
   56.6335   32.7849   47.4375 H   0  0  0  0  0  0  0  0  0  0  0  0
   58.8682   32.4582   50.0546 H   0  0  0  0  0  0  0  0  0  0  0  0
   57.8690   31.3314   49.0665 H   0  0  0  0  0  0  0  0  0  0  0  0
   59.6135   30.4193   50.7728 H   0  0  0  0  0  0  0  0  0  0  0  0
   59.1965   28.4176   49.7636 H   0  0  0  0  0  0  0  0  0  0  0  0
   58.4318   29.3993   48.4272 H   0  0  0  0  0  0  0  0  0  0  0  0
   61.0560   29.4240   47.8410 H   0  0  0  0  0  0  0  0  0  0  0  0
   60.2657   27.2570   46.4817 H   0  0  0  0  0  0  0  0  0  0  0  0
   58.6854   28.0545   46.9303 H   0  0  0  0  0  0  0  0  0  0  0  0
   60.4694   30.0711   45.9553 H   0  0  0  0  0  0  0  0  0  0  0  0
   60.4487   28.6826   44.7834 H   0  0  0  0  0  0  0  0  0  0  0  0
   57.4696   28.0700   46.0653 H   0  0  0  0  0  0  0  0  0  0  0  0
   55.2700   28.7663   45.1132 H   0  0  0  0  0  0  0  0  0  0  0  0
   55.1421   30.7108   43.5517 H   0  0  0  0  0  0  0  0  0  0  0  0
   57.1977   32.0256   43.0233 H   0  0  0  0  0  0  0  0  0  0  0  0
   59.3994   31.3477   43.9851 H   0  0  0  0  0  0  0  0  0  0  0  0
   61.6488   29.8299   49.0887 H   0  0  0  0  0  0  0  0  0  0  0  0
   63.0580   30.6160   50.6770 H   0  0  0  0  0  0  0  0  0  0  0  0
   62.1920   30.4330   52.9512 H   0  0  0  0  0  0  0  0  0  0  0  0
   60.6033   30.0776   52.1257 H   0  0  0  0  0  0  0  0  0  0  0  0
   60.2346   28.0452   50.8889 H   0  0  0  0  0  0  0  0  0  0  0  0
   60.8210   25.6265   50.7371 H   0  0  0  0  0  0  0  0  0  0  0  0
   64.6050   26.4132   52.6754 H   0  0  0  0  0  0  0  0  0  0  0  0
   64.0411   28.8382   52.8047 H   0  0  0  0  0  0  0  0  0  0  0  0
   61.4166   32.7103   53.2264 H   0  0  0  0  0  0  0  0  0  0  0  0
   60.8698   33.9374   52.0340 H   0  0  0  0  0  0  0  0  0  0  0  0
   60.1384   32.2967   52.0340 H   0  0  0  0  0  0  0  0  0  0  0  0
   63.4684   33.2966   52.7134 H   0  0  0  0  0  0  0  0  0  0  0  0
   64.2317   31.9530   51.8651 H   0  0  0  0  0  0  0  0  0  0  0  0
   65.0401   34.2825   50.7979 H   0  0  0  0  0  0  0  0  0  0  0  0
   63.4219   34.6288   48.8717 H   0  0  0  0  0  0  0  0  0  0  0  0
   61.1296   33.7822   49.7465 H   0  0  0  0  0  0  0  0  0  0  0  0
  2  1  1  6
  2  3  1  0
  3  4  1  0
  4  5  1  0
  5  6  2  0
  6  7  1  0
  7  8  2  0
  8  9  1  0
  9 10  2  0
 10 11  1  0
 11 12  1  0
 12 13  1  0
 13 14  1  0
 14 15  1  0
 15 16  1  0
 16 17  1  0
 17 18  1  0
 18 19  2  0
 19 20  1  0
 20 21  2  0
 21 22  1  0
 22 23  2  0
 13 24  1  0
 24 25  1  0
 25 26  1  0
 26 27  1  0
 27 28  2  0
 28 29  1  0
 29 30  2  0
 30 31  1  0
 30 32  1  0
 32 33  2  0
 25 34  1  0
 34 35  1  1
 34 36  1  0
 36 37  1  0
 37 38  2  0
 38 39  1  0
 24  2  1  0
 33 27  1  0
 39 34  1  0
 39  2  1  0
 11  3  2  0
 23 18  1  0
 10  5  1  0
  1 40  1  0
  1 41  1  0
  1 42  1  0
  4 43  1  0
  6 44  1  0
  7 45  1  0
  8 46  1  0
  9 47  1  0
 12 48  1  0
 12 49  1  0
 13 50  1  1
 14 51  1  0
 14 52  1  0
 15 53  1  0
 16 54  1  0
 16 55  1  0
 17 56  1  0
 17 57  1  0
 19 58  1  0
 20 59  1  0
 21 60  1  0
 22 61  1  0
 23 62  1  0
 24 63  1  6
 25 64  1  6
 26 65  1  0
 26 66  1  0
 28 67  1  0
 29 68  1  0
 32 69  1  0
 33 70  1  0
 35 71  1  0
 35 72  1  0
 35 73  1  0
 36 74  1  0
 36 75  1  0
 37 76  1  0
 38 77  1  0
 39 78  1  1
M  CHG  1  25   1
M  END
>  <UniqueID>  (15) 
13

>  <SMILES>  (15) 
CC12CC=CC1[C@]1(C)c3[nH]c4ccccc4c3C[C@@H](CNCCc3ccccc3)C1[NH+]2Cc1ccc(F)cc1

>  <Energy>  (15) 
157.20412140864897

>  <Genealogy>  (15) 
CC12c3[nH]c4ccccc4c3CC(CNCCc3ccccc3)C1[NH+](Cc1ccc(F)cc1)C1(C)CC=CC21 (protonated)
CC12CC=CC1[C@]1(C)c3[nH]c4ccccc4c3C[C@@H](CNCCc3ccccc3)C1[NH+]2Cc1ccc(F)cc1 (chirality)
CC12CC=CC1[C@]1(C)c3[nH]c4ccccc4c3C[C@@H](CNCCc3ccccc3)C1[NH+]2Cc1ccc(F)cc1 (3D coordinates assigned)
CC12CC=CC1[C@]1(C)c3[nH]c4ccccc4c3C[C@@H](CNCCc3ccccc3)C1[NH+]2Cc1ccc(F)cc1 (nonaromatic ring conformer: 157.20412140864897 kcal/mol)

>  <smiles>  (15) 
CC12c3[nH]c4ccccc4c3CC(CNCCc3ccccc3)C1N(Cc1ccc(F)cc1)C1(C)CC=CC21

>  <score_type>  (15) 
oracle

>  <origin>  (15) 
adg

>  <m_score__min__energy>  (15) 
-8.6400000000000006

>  <m_primary>  (15) 
energy

$$$$
15:0
     RDKit          3D

 40 42  0  0  0  0  0  0  0  0999 V2000
   65.2140   32.3100   50.1680 C   0  0  0  0  0  0  0  0  0  0  0  0
   64.8420   32.8720   48.9450 O   0  0  0  0  0  0  0  0  0  0  0  0
   63.6230   32.8330   48.3310 C   0  0  0  0  0  0  0  0  0  0  0  0
   63.3800   33.8160   47.3670 C   0  0  0  0  0  0  0  0  0  0  0  0
   62.1710   33.8230   46.7210 C   0  0  0  0  0  0  0  0  0  0  0  0
   61.1700   32.8820   46.9910 C   0  0  0  0  0  0  0  0  0  0  0  0
   59.9770   33.0320   46.2370 N   0  0  0  0  0  0  0  0  0  0  0  0
   59.1520   34.1800   46.3710 C   0  0  0  0  0  0  0  0  0  0  0  0
   59.5130   35.0570   47.1800 O   0  0  0  0  0  0  0  0  0  0  0  0
   57.9030   34.3800   45.6010 C   0  0  0  0  0  0  0  0  0  0  0  0
   57.7970   33.3270   44.1660 S   0  0  0  0  0  0  0  0  0  0  0  0
   57.3700   31.6510   44.5330 C   0  0  0  0  0  0  0  0  0  0  0  0
   58.2860   30.7480   44.9960 N   0  0  0  0  0  0  0  0  0  0  0  0
   57.6940   29.5650   45.2100 C   0  0  0  0  0  0  0  0  0  0  0  0
   58.4030   28.4010   45.7190 C   0  0  0  0  0  0  0  0  0  0  0  0
   59.7650   28.3430   45.8980 C   0  0  0  0  0  0  0  0  0  0  0  0
   60.3990   27.2360   46.3860 C   0  0  0  0  0  0  0  0  0  0  0  0
   59.6890   26.0890   46.7320 C   0  0  0  0  0  0  0  0  0  0  0  0
   58.3270   26.1290   46.5590 C   0  0  0  0  0  0  0  0  0  0  0  0
   57.6900   27.2570   46.0630 C   0  0  0  0  0  0  0  0  0  0  0  0
   56.3980   29.7150   44.8790 N   0  0  0  0  0  0  0  0  0  0  0  0
   56.2160   30.9840   44.4730 N   0  0  0  0  0  0  0  0  0  0  0  0
   61.4020   31.9270   47.9280 C   0  0  0  0  0  0  0  0  0  0  0  0
   62.6270   31.9200   48.5820 C   0  0  0  0  0  0  0  0  0  0  0  0
   64.8103   32.9198   50.9897 H   0  0  0  0  0  0  0  0  0  0  0  0
   64.8134   31.2880   50.2389 H   0  0  0  0  0  0  0  0  0  0  0  0
   66.3113   32.2795   50.2389 H   0  0  0  0  0  0  0  0  0  0  0  0
   64.1452   34.5702   47.1312 H   0  0  0  0  0  0  0  0  0  0  0  0
   61.9802   34.5965   45.9625 H   0  0  0  0  0  0  0  0  0  0  0  0
   59.6720   32.3150   45.5540 H   0  0  0  0  0  0  0  0  0  0  0  0
   57.0473   34.1652   46.2580 H   0  0  0  0  0  0  0  0  0  0  0  0
   57.8961   35.4216   45.2476 H   0  0  0  0  0  0  0  0  0  0  0  0
   60.3690   29.2246   45.6374 H   0  0  0  0  0  0  0  0  0  0  0  0
   61.4921   27.2507   46.5081 H   0  0  0  0  0  0  0  0  0  0  0  0
   60.1944   25.1944   47.1248 H   0  0  0  0  0  0  0  0  0  0  0  0
   57.7267   25.2450   46.8201 H   0  0  0  0  0  0  0  0  0  0  0  0
   56.5971   27.2467   45.9389 H   0  0  0  0  0  0  0  0  0  0  0  0
   55.2890   31.3300   44.1690 H   0  0  0  0  0  0  0  0  0  0  0  0
   60.6353   31.1744   48.1642 H   0  0  0  0  0  0  0  0  0  0  0  0
   62.8095   31.1439   49.3398 H   0  0  0  0  0  0  0  0  0  0  0  0
  1  2  1  0
  2  3  1  0
  3  4  2  0
  4  5  1  0
  5  6  2  0
  6  7  1  0
  7  8  1  0
  8  9  2  0
  8 10  1  0
 10 11  1  0
 11 12  1  0
 12 13  2  0
 13 14  1  0
 14 15  1  0
 15 16  2  0
 16 17  1  0
 17 18  2  0
 18 19  1  0
 19 20  2  0
 14 21  2  0
 21 22  1  0
  6 23  1  0
 23 24  2  0
 24  3  1  0
 22 12  1  0
 20 15  1  0
  1 25  1  0
  1 26  1  0
  1 27  1  0
  4 28  1  0
  5 29  1  0
  7 30  1  0
 10 31  1  0
 10 32  1  0
 16 33  1  0
 17 34  1  0
 18 35  1  0
 19 36  1  0
 20 37  1  0
 22 38  1  0
 23 39  1  0
 24 40  1  0
M  END
>  <smiles>  (16) 
COc1ccc(NC(=O)CSc2nc(-c3ccccc3)n[nH]2)cc1

>  <score_type>  (16) 
oracle

>  <origin>  (16) 
adg

>  <m_score__min__energy>  (16) 
-7.2699999999999996

>  <m_primary>  (16) 
energy

$$$$
16:0
     RDKit          3D

 42 43  0  0  0  0  0  0  0  0999 V2000
   59.9390   28.3010   45.9590 C   0  0  0  0  0  0  0  0  0  0  0  0
   59.4770   28.3350   44.5060 C   0  0  0  0  0  0  0  0  0  0  0  0
   58.0760   28.0820   44.4190 O   0  0  0  0  0  0  0  0  0  0  0  0
   57.0970   29.0290   44.7510 C   0  0  0  0  0  0  0  0  0  0  0  0
   55.9210   28.6580   45.0140 O   0  0  0  0  0  0  0  0  0  0  0  0
   57.4470   30.4660   44.7830 C   0  0  0  0  0  0  0  0  0  0  0  0
   57.4300   31.2280   43.6030 C   0  0  0  0  0  0  0  0  0  0  0  0
   57.7600   32.5860   43.6280 C   0  0  0  0  0  0  0  0  0  0  0  0
   58.1110   33.2130   44.8390 C   0  0  0  0  0  0  0  0  0  0  0  0
   58.4600   34.6100   44.9040 N   0  0  0  0  0  0  0  0  0  0  0  0
   59.6430   35.1420   45.5820 C   0  0  0  0  0  0  0  0  0  0  0  0
   59.5380   34.9260   47.0950 C   0  0  0  0  0  0  0  0  0  0  0  0
   60.7880   34.2770   47.6240 C   0  0  0  0  0  0  0  0  0  0  0  0
   61.7740   33.8100   46.7400 C   0  0  0  0  0  0  0  0  0  0  0  0
   62.9500   33.2370   47.2340 C   0  0  0  0  0  0  0  0  0  0  0  0
   63.1540   33.1200   48.6170 C   0  0  0  0  0  0  0  0  0  0  0  0
   64.4330   32.5430   49.1470 C   0  0  0  0  0  0  0  0  0  0  0  0
   62.1830   33.6170   49.5010 C   0  0  0  0  0  0  0  0  0  0  0  0
   61.0070   34.1900   49.0080 C   0  0  0  0  0  0  0  0  0  0  0  0
   58.1330   32.4490   46.0150 C   0  0  0  0  0  0  0  0  0  0  0  0
   57.8030   31.0920   45.9900 C   0  0  0  0  0  0  0  0  0  0  0  0
   59.0647   28.3653   46.6234 H   0  0  0  0  0  0  0  0  0  0  0  0
   60.4769   27.3608   46.1508 H   0  0  0  0  0  0  0  0  0  0  0  0
   60.6087   29.1523   46.1508 H   0  0  0  0  0  0  0  0  0  0  0  0
   59.6924   29.3265   44.0812 H   0  0  0  0  0  0  0  0  0  0  0  0
   60.0137   27.5560   43.9447 H   0  0  0  0  0  0  0  0  0  0  0  0
   57.1545   30.7516   42.6506 H   0  0  0  0  0  0  0  0  0  0  0  0
   57.7454   33.1689   42.6953 H   0  0  0  0  0  0  0  0  0  0  0  0
   57.8220   35.3040   44.4510 H   0  0  0  0  0  0  0  0  0  0  0  0
   60.5387   34.6271   45.2043 H   0  0  0  0  0  0  0  0  0  0  0  0
   59.7124   36.2213   45.3811 H   0  0  0  0  0  0  0  0  0  0  0  0
   59.3977   35.8981   47.5903 H   0  0  0  0  0  0  0  0  0  0  0  0
   58.6814   34.2675   47.3011 H   0  0  0  0  0  0  0  0  0  0  0  0
   61.6206   33.8953   45.6541 H   0  0  0  0  0  0  0  0  0  0  0  0
   63.7188   32.8763   46.5348 H   0  0  0  0  0  0  0  0  0  0  0  0
   64.4116   32.5526   50.2467 H   0  0  0  0  0  0  0  0  0  0  0  0
   64.5434   31.5079   48.7915 H   0  0  0  0  0  0  0  0  0  0  0  0
   65.2820   33.1453   48.7915 H   0  0  0  0  0  0  0  0  0  0  0  0
   62.3484   33.5552   50.5867 H   0  0  0  0  0  0  0  0  0  0  0  0
   60.2500   34.5743   49.7075 H   0  0  0  0  0  0  0  0  0  0  0  0
   58.4131   32.9235   46.9671 H   0  0  0  0  0  0  0  0  0  0  0  0
   57.8219   30.5086   46.9224 H   0  0  0  0  0  0  0  0  0  0  0  0
  1  2  1  0
  2  3  1  0
  3  4  1  0
  4  5  2  0
  4  6  1  0
  6  7  2  0
  7  8  1  0
  8  9  2  0
  9 10  1  0
 10 11  1  0
 11 12  1  0
 12 13  1  0
 13 14  2  0
 14 15  1  0
 15 16  2  0
 16 17  1  0
 16 18  1  0
 18 19  2  0
  9 20  1  0
 20 21  2  0
 21  6  1  0
 19 13  1  0
  1 22  1  0
  1 23  1  0
  1 24  1  0
  2 25  1  0
  2 26  1  0
  7 27  1  0
  8 28  1  0
 10 29  1  0
 11 30  1  0
 11 31  1  0
 12 32  1  0
 12 33  1  0
 14 34  1  0
 15 35  1  0
 17 36  1  0
 17 37  1  0
 17 38  1  0
 18 39  1  0
 19 40  1  0
 20 41  1  0
 21 42  1  0
M  END
>  <UniqueID>  (17) 
14

>  <SMILES>  (17) 
CCOC(=O)c1ccc(NCCc2ccc(C)cc2)cc1

>  <Energy>  (17) 
34.562829988575636

>  <Genealogy>  (17) 
CCOC(=O)c1ccc(NCCc2ccc(C)cc2)cc1 (3D coordinates assigned)
CCOC(=O)c1ccc(NCCc2ccc(C)cc2)cc1 (optimized conformer: 34.562829988575636 kcal/mol)

>  <smiles>  (17) 
CCOC(=O)c1ccc(NCCc2ccc(C)cc2)cc1

>  <score_type>  (17) 
oracle

>  <origin>  (17) 
adg

>  <m_score__min__energy>  (17) 
-6.9100000000000001

>  <m_primary>  (17) 
energy

$$$$
17:0
     RDKit          3D

 37 39  0  0  0  0  0  0  0  0999 V2000
   57.8880   31.7430   55.5100 C   0  0  0  0  0  0  0  0  0  0  0  0
   58.1200   30.4460   54.7410 C   0  0  0  0  0  0  0  0  0  0  0  0
   57.9290   30.6680   53.3080 N   0  0  0  0  0  0  0  0  0  0  0  0
   58.6000   31.5650   52.5640 C   0  0  0  0  0  0  0  0  0  0  0  0
   58.1490   31.4720   51.2680 C   0  0  0  0  0  0  0  0  0  0  0  0
   57.1980   30.5200   51.1900 N   0  0  0  0  0  0  0  0  0  0  0  0
   57.0960   30.0370   52.4470 C   0  0  0  0  0  0  0  0  0  0  0  0
   56.0830   28.9830   52.8160 C   0  0  0  0  0  0  0  0  0  0  0  0
   54.9550   29.5250   53.5980 N   0  0  0  0  0  0  0  0  0  0  0  0
   55.0400   29.4950   55.0660 C   0  0  0  0  0  0  0  0  0  0  0  0
   53.6690   29.2070   55.6710 C   0  0  0  0  0  0  0  0  0  0  0  0
   52.6430   30.2610   55.2390 C   0  0  0  0  0  0  0  0  0  0  0  0
   51.3800   29.8000   55.5720 F   0  0  0  0  0  0  0  0  0  0  0  0
   52.8800   31.4330   55.9360 F   0  0  0  0  0  0  0  0  0  0  0  0
   52.7050   30.5600   53.7560 C   0  0  0  0  0  0  0  0  0  0  0  0
   51.6390   31.2590   53.1620 C   0  0  0  0  0  0  0  0  0  0  0  0
   51.7020   31.6470   51.8240 C   0  0  0  0  0  0  0  0  0  0  0  0
   50.6360   32.3270   51.2460 O   0  0  0  0  0  0  0  0  0  0  0  0
   52.8400   31.3670   51.0710 C   0  0  0  0  0  0  0  0  0  0  0  0
   53.9150   30.6900   51.6490 C   0  0  0  0  0  0  0  0  0  0  0  0
   53.8590   30.2590   52.9900 C   0  0  0  0  0  0  0  0  0  0  0  0
   57.9243   31.5401   56.5905 H   0  0  0  0  0  0  0  0  0  0  0  0
   58.6703   32.4702   55.2470 H   0  0  0  0  0  0  0  0  0  0  0  0
   56.9021   32.1539   55.2470 H   0  0  0  0  0  0  0  0  0  0  0  0
   59.1471   30.0956   54.9208 H   0  0  0  0  0  0  0  0  0  0  0  0
   57.3997   29.6899   55.0865 H   0  0  0  0  0  0  0  0  0  0  0  0
   59.3757   32.2542   52.9290 H   0  0  0  0  0  0  0  0  0  0  0  0
   58.5088   32.0806   50.4253 H   0  0  0  0  0  0  0  0  0  0  0  0
   55.6878   28.5362   51.8918 H   0  0  0  0  0  0  0  0  0  0  0  0
   56.5935   28.2372   53.4430 H   0  0  0  0  0  0  0  0  0  0  0  0
   55.7444   28.7077   55.3725 H   0  0  0  0  0  0  0  0  0  0  0  0
   55.3900   30.4745   55.4239 H   0  0  0  0  0  0  0  0  0  0  0  0
   53.3292   28.2161   55.3355 H   0  0  0  0  0  0  0  0  0  0  0  0
   53.7579   29.2344   56.7671 H   0  0  0  0  0  0  0  0  0  0  0  0
   50.7472   31.5020   53.7584 H   0  0  0  0  0  0  0  0  0  0  0  0
   52.8915   31.6804   50.0178 H   0  0  0  0  0  0  0  0  0  0  0  0
   54.8165   30.4904   51.0511 H   0  0  0  0  0  0  0  0  0  0  0  0
  1  2  1  0
  2  3  1  0
  3  4  1  0
  4  5  2  0
  5  6  1  0
  6  7  2  0
  7  8  1  0
  8  9  1  0
  9 10  1  0
 10 11  1  0
 11 12  1  0
 12 13  1  0
 12 14  1  0
 12 15  1  0
 15 16  2  0
 16 17  1  0
 17 18  1  0
 17 19  2  0
 19 20  1  0
 20 21  2  0
  7  3  1  0
 21  9  1  0
 21 15  1  0
  1 22  1  0
  1 23  1  0
  1 24  1  0
  2 25  1  0
  2 26  1  0
  4 27  1  0
  5 28  1  0
  8 29  1  0
  8 30  1  0
 10 31  1  0
 10 32  1  0
 11 33  1  0
 11 34  1  0
 16 35  1  0
 19 36  1  0
 20 37  1  0
M  CHG  1  18  -1
M  END
>  <UniqueID>  (18) 
15

>  <SMILES>  (18) 
CCn1ccnc1CN1CCC(F)(F)c2cc([O-])ccc21

>  <Energy>  (18) 
65.17084502416948

>  <Genealogy>  (18) 
CCn1ccnc1CN1CCC(F)(F)c2cc([O-])ccc21 (protonated)
CCn1ccnc1CN1CCC(F)(F)c2cc([O-])ccc21 (3D coordinates assigned)
CCn1ccnc1CN1CCC(F)(F)c2cc([O-])ccc21 (nonaromatic ring conformer: 65.17084502416948 kcal/mol)

>  <smiles>  (18) 
CCn1ccnc1CN1CCC(F)(F)c2cc(O)ccc21

>  <score_type>  (18) 
oracle

>  <origin>  (18) 
adg

>  <m_score__min__energy>  (18) 
-9.1199999999999992

>  <m_primary>  (18) 
energy

$$$$
18:0
     RDKit          3D

 37 38  0  0  0  0  0  0  0  0999 V2000
   55.1420   28.9690   44.8670 O   0  0  0  0  0  0  0  0  0  0  0  0
   56.4690   29.2330   45.1830 C   0  0  0  0  0  0  0  0  0  0  0  0
   57.0650   30.4250   44.7590 C   0  0  0  0  0  0  0  0  0  0  0  0
   58.4010   30.6920   45.0770 C   0  0  0  0  0  0  0  0  0  0  0  0
   59.1530   29.7620   45.8130 C   0  0  0  0  0  0  0  0  0  0  0  0
   60.5770   30.0670   46.1900 C   0  0  0  0  0  0  0  0  0  0  0  0
   60.7730   29.9200   47.7070 C   0  0  0  0  0  0  0  0  0  0  0  0
   61.7420   30.8930   48.2370 N   0  0  0  0  0  0  0  0  0  0  0  0
   61.9880   32.0170   47.3160 C   0  0  0  0  0  0  0  0  0  0  0  0
   61.3730   33.3060   47.8700 C   0  0  0  0  0  0  0  0  0  0  0  0
   60.0760   33.6410   47.1790 C   0  0  0  0  0  0  0  0  0  0  0  0
   58.8610   33.1230   47.6580 C   0  0  0  0  0  0  0  0  0  0  0  0
   57.6660   33.3930   46.9850 C   0  0  0  0  0  0  0  0  0  0  0  0
   57.6730   34.1770   45.8260 C   0  0  0  0  0  0  0  0  0  0  0  0
   56.4750   34.4360   45.1650 O   0  0  0  0  0  0  0  0  0  0  0  0
   58.8820   34.6900   45.3410 C   0  0  0  0  0  0  0  0  0  0  0  0
   60.0790   34.4210   46.0120 C   0  0  0  0  0  0  0  0  0  0  0  0
   58.5420   28.5720   46.2490 C   0  0  0  0  0  0  0  0  0  0  0  0
   57.2070   28.3080   45.9290 C   0  0  0  0  0  0  0  0  0  0  0  0
   56.4829   31.1532   44.1751 H   0  0  0  0  0  0  0  0  0  0  0  0
   58.8643   31.6343   44.7492 H   0  0  0  0  0  0  0  0  0  0  0  0
   61.2476   29.3681   45.6685 H   0  0  0  0  0  0  0  0  0  0  0  0
   60.8092   31.1021   45.8990 H   0  0  0  0  0  0  0  0  0  0  0  0
   59.8052   30.0752   48.2064 H   0  0  0  0  0  0  0  0  0  0  0  0
   61.1653   28.9109   47.9016 H   0  0  0  0  0  0  0  0  0  0  0  0
   62.6450   30.4080   48.4520 H   0  0  0  0  0  0  0  0  0  0  0  0
   63.0725   32.1557   47.1950 H   0  0  0  0  0  0  0  0  0  0  0  0
   61.5252   31.7898   46.3443 H   0  0  0  0  0  0  0  0  0  0  0  0
   61.1820   33.1773   48.9456 H   0  0  0  0  0  0  0  0  0  0  0  0
   62.0806   34.1295   47.6935 H   0  0  0  0  0  0  0  0  0  0  0  0
   58.8501   32.5025   48.5662 H   0  0  0  0  0  0  0  0  0  0  0  0
   56.7175   32.9881   47.3675 H   0  0  0  0  0  0  0  0  0  0  0  0
   55.8380   35.1570   45.4840 H   0  0  0  0  0  0  0  0  0  0  0  0
   58.8903   35.3062   44.4298 H   0  0  0  0  0  0  0  0  0  0  0  0
   61.0268   34.8223   45.6237 H   0  0  0  0  0  0  0  0  0  0  0  0
   59.1168   27.8468   46.8438 H   0  0  0  0  0  0  0  0  0  0  0  0
   56.7364   27.3719   46.2642 H   0  0  0  0  0  0  0  0  0  0  0  0
  1  2  1  0
  2  3  2  0
  3  4  1  0
  4  5  2  0
  5  6  1  0
  6  7  1  0
  7  8  1  0
  8  9  1  0
  9 10  1  0
 10 11  1  0
 11 12  2  0
 12 13  1  0
 13 14  2  0
 14 15  1  0
 14 16  1  0
 16 17  2  0
  5 18  1  0
 18 19  2  0
 19  2  1  0
 17 11  1  0
  3 20  1  0
  4 21  1  0
  6 22  1  0
  6 23  1  0
  7 24  1  0
  7 25  1  0
  8 26  1  0
  9 27  1  0
  9 28  1  0
 10 29  1  0
 10 30  1  0
 12 31  1  0
 13 32  1  0
 15 33  1  0
 16 34  1  0
 17 35  1  0
 18 36  1  0
 19 37  1  0
M  CHG  1   1  -1
M  END
>  <UniqueID>  (19) 
16

>  <SMILES>  (19) 
[O-]c1ccc(CCNCCc2ccc(O)cc2)cc1

>  <Energy>  (19) 
33.01993723643592

>  <Genealogy>  (19) 
[O-]c1ccc(CCNCCc2ccc(O)cc2)cc1 (protonated)
[O-]c1ccc(CCNCCc2ccc(O)cc2)cc1 (3D coordinates assigned)
[O-]c1ccc(CCNCCc2ccc(O)cc2)cc1 (optimized conformer: 33.01993723643592 kcal/mol)

>  <smiles>  (19) 
Oc1ccc(CCNCCc2ccc(O)cc2)cc1

>  <score_type>  (19) 
oracle

>  <origin>  (19) 
adg

>  <m_score__min__energy>  (19) 
-10.15

>  <m_primary>  (19) 
energy

$$$$
19:0
     RDKit          3D

 61 64  0  0  0  0  0  0  0  0999 V2000
   61.6764   30.0115   48.3108 H   0  0  0  0  0  0  0  0  0  0  0  0
   61.1050   30.0950   49.2470 C   0  0  0  0  0  0  0  0  0  0  0  0
   59.7930   29.8430   49.2340 C   0  0  0  0  0  0  0  0  0  0  0  0
   59.2416   29.9176   48.2851 H   0  0  0  0  0  0  0  0  0  0  0  0
   59.0500   29.4590   50.4880 C   0  0  0  0  0  0  0  0  0  0  0  0
   59.6557   28.7380   51.0566 H   0  0  0  0  0  0  0  0  0  0  0  0
   58.0863   29.0151   50.1979 H   0  0  0  0  0  0  0  0  0  0  0  0
   58.7820   30.6420   51.3400 N   0  0  0  0  0  0  0  0  0  0  0  0
   59.3380   31.4400   50.9530 H   0  0  0  0  0  0  0  0  0  0  0  0
   59.1910   30.3950   52.7500 C   0  0  0  0  0  0  0  0  0  0  0  0
   60.2592   30.6373   52.8512 H   0  0  0  0  0  0  0  0  0  0  0  0
   58.9833   29.3372   52.9689 H   0  0  0  0  0  0  0  0  0  0  0  0
   58.3980   31.2380   53.7730 C   0  0  0  0  0  0  0  0  0  0  0  0
   59.0476   31.4474   54.6357 H   0  0  0  0  0  0  0  0  0  0  0  0
   57.5097   30.6583   54.0645 H   0  0  0  0  0  0  0  0  0  0  0  0
   57.9300   32.5200   53.2120 N   0  0  0  0  0  0  0  0  0  0  0  0
   59.0160   33.5090   53.0160 C   0  0  0  0  0  0  0  0  0  0  0  0
   59.9842   32.9893   53.0653 H   0  0  0  0  0  0  0  0  0  0  0  0
   58.9346   34.2682   53.8078 H   0  0  0  0  0  0  0  0  0  0  0  0
   58.9010   34.2210   51.6560 C   0  0  0  0  0  0  0  0  0  0  0  0
   59.4739   35.1591   51.6978 H   0  0  0  0  0  0  0  0  0  0  0  0
   57.8347   34.4109   51.4636 H   0  0  0  0  0  0  0  0  0  0  0  0
   59.4000   33.4290   50.5930 O   0  0  0  0  0  0  0  0  0  0  0  0
   59.9980   34.2120   49.5670 C   0  0  0  0  0  0  0  0  0  0  0  0
   59.8852   35.2764   49.8205 H   0  0  0  0  0  0  0  0  0  0  0  0
   61.4670   33.8660   49.4540 C   0  0  0  0  0  0  0  0  0  0  0  0
   62.3570   34.2060   50.4890 C   0  0  0  0  0  0  0  0  0  0  0  0
   61.9832   34.7245   51.3842 H   0  0  0  0  0  0  0  0  0  0  0  0
   63.7140   33.8880   50.3850 C   0  0  0  0  0  0  0  0  0  0  0  0
   64.4033   34.1534   51.2001 H   0  0  0  0  0  0  0  0  0  0  0  0
   64.1980   33.2340   49.2490 C   0  0  0  0  0  0  0  0  0  0  0  0
   65.5130   32.9210   49.1550 F   0  0  0  0  0  0  0  0  0  0  0  0
   63.3230   32.8990   48.2110 C   0  0  0  0  0  0  0  0  0  0  0  0
   63.7041   32.3868   47.3152 H   0  0  0  0  0  0  0  0  0  0  0  0
   61.9650   33.2140   48.3100 C   0  0  0  0  0  0  0  0  0  0  0  0
   61.2814   32.9510   47.4894 H   0  0  0  0  0  0  0  0  0  0  0  0
   59.3190   33.9380   48.2420 C   0  0  0  0  0  0  0  0  0  0  0  0
   59.4530   34.8600   47.1880 C   0  0  0  0  0  0  0  0  0  0  0  0
   60.0273   35.7855   47.3416 H   0  0  0  0  0  0  0  0  0  0  0  0
   58.8610   34.6080   45.9460 C   0  0  0  0  0  0  0  0  0  0  0  0
   58.9626   35.3396   45.1308 H   0  0  0  0  0  0  0  0  0  0  0  0
   58.1410   33.4290   45.7390 C   0  0  0  0  0  0  0  0  0  0  0  0
   57.5680   33.1860   44.5350 F   0  0  0  0  0  0  0  0  0  0  0  0
   58.0160   32.4960   46.7730 C   0  0  0  0  0  0  0  0  0  0  0  0
   57.4497   31.5673   46.6093 H   0  0  0  0  0  0  0  0  0  0  0  0
   58.6100   32.7420   48.0150 C   0  0  0  0  0  0  0  0  0  0  0  0
   58.5231   31.9970   48.8196 H   0  0  0  0  0  0  0  0  0  0  0  0
   57.0830   32.3310   52.0070 C   0  0  0  0  0  0  0  0  0  0  0  0
   57.2718   33.1650   51.3151 H   0  0  0  0  0  0  0  0  0  0  0  0
   56.0381   32.2993   52.3493 H   0  0  0  0  0  0  0  0  0  0  0  0
   57.3550   31.0070   51.2610 C   0  0  0  0  0  0  0  0  0  0  0  0
   57.0711   31.1239   50.2047 H   0  0  0  0  0  0  0  0  0  0  0  0
   56.7616   30.2097   51.7324 H   0  0  0  0  0  0  0  0  0  0  0  0
   61.8040   30.4810   50.4810 C   0  0  0  0  0  0  0  0  0  0  0  0
   61.4200   31.4420   51.2910 O   0  0  0  0  0  0  0  0  0  0  0  0
   62.2670   31.5070   52.2930 C   0  0  0  0  0  0  0  0  0  0  0  0
   62.2036   32.2173   53.1306 H   0  0  0  0  0  0  0  0  0  0  0  0
   63.2490   30.5490   52.1360 C   0  0  0  0  0  0  0  0  0  0  0  0
   64.0975   30.3549   52.8085 H   0  0  0  0  0  0  0  0  0  0  0  0
   62.9500   29.8850   50.9650 C   0  0  0  0  0  0  0  0  0  0  0  0
   63.5089   29.0533   50.5113 H   0  0  0  0  0  0  0  0  0  0  0  0
  1  2  1  0
  2  3  2  0
  3  4  1  0
  3  5  1  0
  5  6  1  0
  5  7  1  0
  5  8  1  0
  8  9  1  0
  8 10  1  0
 10 11  1  0
 10 12  1  0
 10 13  1  0
 13 14  1  0
 13 15  1  0
 13 16  1  0
 16 17  1  0
 17 18  1  0
 17 19  1  0
 17 20  1  0
 20 21  1  0
 20 22  1  0
 20 23  1  0
 23 24  1  0
 24 25  1  0
 24 26  1  0
 26 27  2  0
 27 28  1  0
 27 29  1  0
 29 30  1  0
 29 31  2  0
 31 32  1  0
 31 33  1  0
 33 34  1  0
 33 35  2  0
 35 36  1  0
 24 37  1  0
 37 38  2  0
 38 39  1  0
 38 40  1  0
 40 41  1  0
 40 42  2  0
 42 43  1  0
 42 44  1  0
 44 45  1  0
 44 46  2  0
 46 47  1  0
 16 48  1  0
 48 49  1  0
 48 50  1  0
 48 51  1  0
 51 52  1  0
 51 53  1  0
  2 54  1  0
 54 55  1  0
 55 56  1  0
 56 57  1  0
 56 58  2  0
 58 59  1  0
 58 60  1  0
 60 61  1  0
 51  8  1  0
 60 54  2  0
 35 26  1  0
 46 37  1  0
M  CHG  1   8   1
M  END
>  <UniqueID>  (20) 
17

>  <SMILES>  (20) 
Fc1ccc(C(OCCN2CC[NH+](C/C=C/c3ccco3)CC2)c2ccc(F)cc2)cc1

>  <Energy>  (20) 
103.11529619500871

>  <Genealogy>  (20) 
Fc1ccc(C(OCCN2CC[NH+](CC=Cc3ccco3)CC2)c2ccc(F)cc2)cc1 (protonated)
Fc1ccc(C(OCCN2CC[NH+](C/C=C/c3ccco3)CC2)c2ccc(F)cc2)cc1 (cis-trans isomerization)
Fc1ccc(C(OCCN2CC[NH+](C/C=C/c3ccco3)CC2)c2ccc(F)cc2)cc1 (3D coordinates assigned)
Fc1ccc(C(OCCN2CC[NH+](C/C=C/c3ccco3)CC2)c2ccc(F)cc2)cc1 (nonaromatic ring conformer: 103.11529619500871 kcal/mol)

>  <smiles>  (20) 
Fc1ccc(C(OCCN2CCN(CC=Cc3ccco3)CC2)c2ccc(F)cc2)cc1

>  <score_type>  (20) 
oracle

>  <origin>  (20) 
adg

>  <m_score__min__energy>  (20) 
-7.0599999999999996

>  <m_primary>  (20) 
energy

$$$$
20:0
     RDKit          3D

 30 31  0  0  0  0  0  0  0  0999 V2000
   58.1950   32.5310   46.9150 C   0  0  0  0  0  0  0  0  0  0  0  0
   57.7500   31.4700   46.0750 O   0  0  0  0  0  0  0  0  0  0  0  0
   57.6390   31.5540   44.6770 C   0  0  0  0  0  0  0  0  0  0  0  0
   58.1690   32.6420   43.9530 C   0  0  0  0  0  0  0  0  0  0  0  0
   58.0470   32.6930   42.5640 C   0  0  0  0  0  0  0  0  0  0  0  0
   57.3930   31.6690   41.8790 C   0  0  0  0  0  0  0  0  0  0  0  0
   56.8620   30.5860   42.5830 C   0  0  0  0  0  0  0  0  0  0  0  0
   56.9900   30.5140   43.9800 C   0  0  0  0  0  0  0  0  0  0  0  0
   56.4020   29.3720   44.7090 C   0  0  0  0  0  0  0  0  0  0  0  0
   55.1530   29.3350   44.8740 O   0  0  0  0  0  0  0  0  0  0  0  0
   57.2220   28.3140   45.2380 N   0  0  0  0  0  0  0  0  0  0  0  0
   58.6470   28.4400   45.4960 C   0  0  0  0  0  0  0  0  0  0  0  0
   59.0760   27.1110   46.1030 C   0  0  0  0  0  0  0  0  0  0  0  0
   57.7930   26.4170   46.5480 C   0  0  0  0  0  0  0  0  0  0  0  0
   56.6630   27.0840   45.7750 C   0  0  0  0  0  0  0  0  0  0  0  0
   58.0730   32.2401   47.9688 H   0  0  0  0  0  0  0  0  0  0  0  0
   59.2560   32.7387   46.7124 H   0  0  0  0  0  0  0  0  0  0  0  0
   57.5996   33.4334   46.7124 H   0  0  0  0  0  0  0  0  0  0  0  0
   58.6819   33.4557   44.4868 H   0  0  0  0  0  0  0  0  0  0  0  0
   58.4679   33.5434   42.0075 H   0  0  0  0  0  0  0  0  0  0  0  0
   57.2955   31.7144   40.7843 H   0  0  0  0  0  0  0  0  0  0  0  0
   56.3402   29.7842   42.0400 H   0  0  0  0  0  0  0  0  0  0  0  0
   59.1913   28.6267   44.5585 H   0  0  0  0  0  0  0  0  0  0  0  0
   58.8644   29.2823   46.1692 H   0  0  0  0  0  0  0  0  0  0  0  0
   59.6004   26.5002   45.3534 H   0  0  0  0  0  0  0  0  0  0  0  0
   59.7671   27.2581   46.9460 H   0  0  0  0  0  0  0  0  0  0  0  0
   57.8370   25.3439   46.3101 H   0  0  0  0  0  0  0  0  0  0  0  0
   57.6440   26.5052   47.6343 H   0  0  0  0  0  0  0  0  0  0  0  0
   56.3197   26.4311   44.9590 H   0  0  0  0  0  0  0  0  0  0  0  0
   55.7937   27.2820   46.4193 H   0  0  0  0  0  0  0  0  0  0  0  0
  1  2  1  0
  2  3  1  0
  3  4  2  0
  4  5  1  0
  5  6  2  0
  6  7  1  0
  7  8  2  0
  8  9  1  0
  9 10  2  0
  9 11  1  0
 11 12  1  0
 12 13  1  0
 13 14  1  0
 14 15  1  0
  8  3  1  0
 15 11  1  0
  1 16  1  0
  1 17  1  0
  1 18  1  0
  4 19  1  0
  5 20  1  0
  6 21  1  0
  7 22  1  0
 12 23  1  0
 12 24  1  0
 13 25  1  0
 13 26  1  0
 14 27  1  0
 14 28  1  0
 15 29  1  0
 15 30  1  0
M  END
>  <UniqueID>  (21) 
18

>  <SMILES>  (21) 
COc1ccccc1C(=O)N1CCCC1

>  <Energy>  (21) 
33.78860148448941

>  <Genealogy>  (21) 
COc1ccccc1C(=O)N1CCCC1 (3D coordinates assigned)
COc1ccccc1C(=O)N1CCCC1 (nonaromatic ring conformer: 33.78860148448941 kcal/mol)

>  <smiles>  (21) 
COc1ccccc1C(=O)N1CCCC1

>  <score_type>  (21) 
oracle

>  <origin>  (21) 
adg

>  <m_score__min__energy>  (21) 
-5.9900000000000002

>  <m_primary>  (21) 
energy

$$$$
21:0
     RDKit          3D

 35 37  0  0  0  0  0  0  0  0999 V2000
   56.9990   27.2980   45.7050 C   0  0  0  0  0  0  0  0  0  0  0  0
   56.1760   28.3610   45.2350 O   0  0  0  0  0  0  0  0  0  0  0  0
   56.6570   29.5230   44.6140 C   0  0  0  0  0  0  0  0  0  0  0  0
   56.4020   29.6980   43.2490 C   0  0  0  0  0  0  0  0  0  0  0  0
   56.8710   30.8300   42.5820 C   0  0  0  0  0  0  0  0  0  0  0  0
   57.5940   31.8030   43.2740 C   0  0  0  0  0  0  0  0  0  0  0  0
   57.8480   31.6590   44.6470 C   0  0  0  0  0  0  0  0  0  0  0  0
   58.6030   32.6690   45.3440 N   0  0  0  0  0  0  0  0  0  0  0  0
   59.7280   32.4140   45.9980 N   0  0  0  0  0  0  0  0  0  0  0  0
   60.1720   33.5820   46.5110 C   0  0  0  0  0  0  0  0  0  0  0  0
   61.3740   33.7030   47.2820 N   0  0  0  0  0  0  0  0  0  0  0  0
   61.3840   34.1210   48.6710 C   0  0  0  0  0  0  0  0  0  0  0  0
   62.8250   33.9540   49.1370 C   0  0  0  0  0  0  0  0  0  0  0  0
   63.6650   33.8300   47.8680 C   0  0  0  0  0  0  0  0  0  0  0  0
   62.7000   33.4230   46.7630 C   0  0  0  0  0  0  0  0  0  0  0  0
   59.3190   34.6190   46.1720 C   0  0  0  0  0  0  0  0  0  0  0  0
   58.3460   33.9920   45.4290 C   0  0  0  0  0  0  0  0  0  0  0  0
   57.3790   34.5750   44.8690 O   0  0  0  0  0  0  0  0  0  0  0  0
   57.3870   30.5060   45.3100 C   0  0  0  0  0  0  0  0  0  0  0  0
   57.0014   27.2950   46.8050 H   0  0  0  0  0  0  0  0  0  0  0  0
   56.6055   26.3392   45.3365 H   0  0  0  0  0  0  0  0  0  0  0  0
   58.0258   27.4388   45.3365 H   0  0  0  0  0  0  0  0  0  0  0  0
   55.8281   28.9380   42.6985 H   0  0  0  0  0  0  0  0  0  0  0  0
   56.6705   30.9561   41.5078 H   0  0  0  0  0  0  0  0  0  0  0  0
   57.9674   32.6890   42.7396 H   0  0  0  0  0  0  0  0  0  0  0  0
   61.0713   35.1720   48.7583 H   0  0  0  0  0  0  0  0  0  0  0  0
   60.6870   33.5271   49.2805 H   0  0  0  0  0  0  0  0  0  0  0  0
   63.1419   34.8305   49.7212 H   0  0  0  0  0  0  0  0  0  0  0  0
   62.9399   33.0722   49.7844 H   0  0  0  0  0  0  0  0  0  0  0  0
   64.1374   34.7937   47.6269 H   0  0  0  0  0  0  0  0  0  0  0  0
   64.4718   33.0923   47.9898 H   0  0  0  0  0  0  0  0  0  0  0  0
   62.8883   34.0110   45.8526 H   0  0  0  0  0  0  0  0  0  0  0  0
   62.8157   32.3636   46.4906 H   0  0  0  0  0  0  0  0  0  0  0  0
   59.3999   35.6845   46.4333 H   0  0  0  0  0  0  0  0  0  0  0  0
   57.5988   30.3716   46.3810 H   0  0  0  0  0  0  0  0  0  0  0  0
  1  2  1  0
  2  3  1  0
  3  4  2  0
  4  5  1  0
  5  6  2  0
  6  7  1  0
  7  8  1  0
  8  9  1  0
  9 10  1  0
 10 11  1  0
 11 12  1  0
 12 13  1  0
 13 14  1  0
 14 15  1  0
 10 16  2  0
 16 17  1  0
 17 18  2  0
  7 19  2  0
 19  3  1  0
 17  8  1  0
 15 11  1  0
  1 20  1  0
  1 21  1  0
  1 22  1  0
  4 23  1  0
  5 24  1  0
  6 25  1  0
 12 26  1  0
 12 27  1  0
 13 28  1  0
 13 29  1  0
 14 30  1  0
 14 31  1  0
 15 32  1  0
 15 33  1  0
 16 34  1  0
 19 35  1  0
M  CHG  1   9  -1
M  END
>  <UniqueID>  (22) 
19

>  <SMILES>  (22) 
COc1cccc(-n2[n-]c(N3CCCC3)cc2=O)c1

>  <Energy>  (22) 
70.46789738654489

>  <Genealogy>  (22) 
COc1cccc(-n2[n-]c(N3CCCC3)cc2=O)c1 (protonated)
COc1cccc(-n2[n-]c(N3CCCC3)cc2=O)c1 (3D coordinates assigned)
COc1cccc(-n2[n-]c(N3CCCC3)cc2=O)c1 (nonaromatic ring conformer: 70.46789738654489 kcal/mol)

>  <smiles>  (22) 
COc1cccc(-n2[nH]c(N3CCCC3)cc2=O)c1

>  <score_type>  (22) 
oracle

>  <origin>  (22) 
adg

>  <m_score__min__energy>  (22) 
-7.9100000000000001

>  <m_primary>  (22) 
energy

$$$$
22:0
     RDKit          3D

 42 43  0  0  0  0  0  0  0  0999 V2000
   54.3349   29.7558   44.0820 H   0  0  0  0  0  0  0  0  0  0  0  0
   55.3750   29.7090   44.4370 C   0  0  0  0  0  0  0  0  0  0  0  0
   55.7960   28.6350   45.1500 N   0  0  0  0  0  0  0  0  0  0  0  0
   57.0710   28.5340   45.6060 C   0  0  0  0  0  0  0  0  0  0  0  0
   57.4570   27.4040   46.3360 C   0  0  0  0  0  0  0  0  0  0  0  0
   56.7278   26.6054   46.5374 H   0  0  0  0  0  0  0  0  0  0  0  0
   58.7650   27.2880   46.8090 C   0  0  0  0  0  0  0  0  0  0  0  0
   59.0636   26.3984   47.3830 H   0  0  0  0  0  0  0  0  0  0  0  0
   59.6950   28.2970   46.5560 C   0  0  0  0  0  0  0  0  0  0  0  0
   60.7247   28.1995   46.9305 H   0  0  0  0  0  0  0  0  0  0  0  0
   59.3230   29.4320   45.8280 C   0  0  0  0  0  0  0  0  0  0  0  0
   60.0617   30.2233   45.6327 H   0  0  0  0  0  0  0  0  0  0  0  0
   58.0050   29.5670   45.3430 C   0  0  0  0  0  0  0  0  0  0  0  0
   57.5890   30.6980   44.6000 C   0  0  0  0  0  0  0  0  0  0  0  0
   58.4480   31.6540   44.3580 N   0  0  0  0  0  0  0  0  0  0  0  0
   58.1960   33.0500   43.9910 C   0  0  0  0  0  0  0  0  0  0  0  0
   57.4830   33.0769   43.1538 H   0  0  0  0  0  0  0  0  0  0  0  0
   59.1527   33.5106   43.7038 H   0  0  0  0  0  0  0  0  0  0  0  0
   57.6130   33.8420   45.1690 C   0  0  0  0  0  0  0  0  0  0  0  0
   56.7106   33.3254   45.5279 H   0  0  0  0  0  0  0  0  0  0  0  0
   57.3853   34.8556   44.8072 H   0  0  0  0  0  0  0  0  0  0  0  0
   58.6060   33.9790   46.3470 C   0  0  0  0  0  0  0  0  0  0  0  0
   58.1143   34.5503   47.1482 H   0  0  0  0  0  0  0  0  0  0  0  0
   59.4994   34.4838   45.9506 H   0  0  0  0  0  0  0  0  0  0  0  0
   59.0630   32.6820   46.9120 N   0  0  0  0  0  0  0  0  0  0  0  0
   58.6720   31.9580   46.2610 H   0  0  0  0  0  0  0  0  0  0  0  0
   58.5180   32.4550   48.2850 C   0  0  0  0  0  0  0  0  0  0  0  0
   57.4192   32.4685   48.2362 H   0  0  0  0  0  0  0  0  0  0  0  0
   58.9008   33.2550   48.9358 H   0  0  0  0  0  0  0  0  0  0  0  0
   58.9690   31.1140   48.8750 C   0  0  0  0  0  0  0  0  0  0  0  0
   58.9496   31.1716   49.9733 H   0  0  0  0  0  0  0  0  0  0  0  0
   58.2892   30.3178   48.5375 H   0  0  0  0  0  0  0  0  0  0  0  0
   59.9918   30.8904   48.5375 H   0  0  0  0  0  0  0  0  0  0  0  0
   60.5430   32.5620   46.8570 C   0  0  0  0  0  0  0  0  0  0  0  0
   60.9127   32.3007   47.8595 H   0  0  0  0  0  0  0  0  0  0  0  0
   60.7868   31.7837   46.1188 H   0  0  0  0  0  0  0  0  0  0  0  0
   61.2230   33.8580   46.4060 C   0  0  0  0  0  0  0  0  0  0  0  0
   61.5277   34.4387   47.2891 H   0  0  0  0  0  0  0  0  0  0  0  0
   62.1102   33.6158   45.8025 H   0  0  0  0  0  0  0  0  0  0  0  0
   60.5195   34.4504   45.8025 H   0  0  0  0  0  0  0  0  0  0  0  0
   56.2530   30.7550   44.1510 C   0  0  0  0  0  0  0  0  0  0  0  0
   55.9032   31.6245   43.5751 H   0  0  0  0  0  0  0  0  0  0  0  0
  1  2  1  0
  2  3  1  0
  3  4  1  0
  4  5  2  0
  5  6  1  0
  5  7  1  0
  7  8  1  0
  7  9  2  0
  9 10  1  0
  9 11  1  0
 11 12  1  0
 11 13  2  0
 13 14  1  0
 14 15  2  0
 15 16  1  0
 16 17  1  0
 16 18  1  0
 16 19  1  0
 19 20  1  0
 19 21  1  0
 19 22  1  0
 22 23  1  0
 22 24  1  0
 22 25  1  0
 25 26  1  0
 25 27  1  0
 27 28  1  0
 27 29  1  0
 27 30  1  0
 30 31  1  0
 30 32  1  0
 30 33  1  0
 25 34  1  0
 34 35  1  0
 34 36  1  0
 34 37  1  0
 37 38  1  0
 37 39  1  0
 37 40  1  0
 14 41  1  0
 41 42  1  0
 41  2  2  0
 13  4  1  0
M  CHG  2   3  -1  25   1
M  END
>  <UniqueID>  (23) 
20

>  <SMILES>  (23) 
CC[NH+](CC)CCC/N=c1\cc[n-]c2ccccc12

>  <Energy>  (23) 
51.89868749708438

>  <Genealogy>  (23) 
CC[NH+](CC)CCCN=c1cc[n-]c2ccccc12 (protonated)
CC[NH+](CC)CCC/N=c1\cc[n-]c2ccccc12 (cis-trans isomerization)
CC[NH+](CC)CCC/N=c1\cc[n-]c2ccccc12 (3D coordinates assigned)
CC[NH+](CC)CCC/N=c1\cc[n-]c2ccccc12 (optimized conformer: 51.89868749708438 kcal/mol)

>  <smiles>  (23) 
CCN(CC)CCCN=c1cc[nH]c2ccccc12

>  <score_type>  (23) 
oracle

>  <origin>  (23) 
adg

>  <m_score__min__energy>  (23) 
-6.2300000000000004

>  <m_primary>  (23) 
energy

$$$$
23:0
     RDKit          3D

 32 34  0  0  0  0  0  0  0  0999 V2000
   58.4510   29.2430   46.1810 C   0  0  0  0  0  0  0  0  0  0  0  0
   58.1320   30.2550   45.1660 N   0  0  0  0  0  0  0  0  0  0  0  0
   57.5090   29.8700   43.9190 C   0  0  0  0  0  0  0  0  0  0  0  0
   57.3430   28.6530   43.6370 O   0  0  0  0  0  0  0  0  0  0  0  0
   57.0000   30.9130   42.9590 C   0  0  0  0  0  0  0  0  0  0  0  0
   57.8930   32.1520   42.9780 C   0  0  0  0  0  0  0  0  0  0  0  0
   58.0910   32.5910   44.3530 N   0  0  0  0  0  0  0  0  0  0  0  0
   57.6550   34.2160   44.8760 S   0  0  0  0  0  0  0  0  0  0  0  0
   59.2070   34.4060   45.7470 C   0  0  0  0  0  0  0  0  0  0  0  0
   59.7240   33.3980   46.4730 C   0  0  0  0  0  0  0  0  0  0  0  0
   60.9390   33.6300   47.2980 C   0  0  0  0  0  0  0  0  0  0  0  0
   60.8340   34.0050   48.6520 C   0  0  0  0  0  0  0  0  0  0  0  0
   61.9850   34.2130   49.4190 C   0  0  0  0  0  0  0  0  0  0  0  0
   63.2480   34.0460   48.8490 C   0  0  0  0  0  0  0  0  0  0  0  0
   63.3640   33.6700   47.5080 C   0  0  0  0  0  0  0  0  0  0  0  0
   62.2170   33.4610   46.7360 C   0  0  0  0  0  0  0  0  0  0  0  0
   59.1850   32.0570   46.3790 N   0  0  0  0  0  0  0  0  0  0  0  0
   58.4790   31.6490   45.3540 C   0  0  0  0  0  0  0  0  0  0  0  0
   58.3151   29.6740   47.1839 H   0  0  0  0  0  0  0  0  0  0  0  0
   57.7818   28.3784   46.0597 H   0  0  0  0  0  0  0  0  0  0  0  0
   59.4950   28.9185   46.0597 H   0  0  0  0  0  0  0  0  0  0  0  0
   56.9889   30.4924   41.9426 H   0  0  0  0  0  0  0  0  0  0  0  0
   55.9847   31.2064   43.2640 H   0  0  0  0  0  0  0  0  0  0  0  0
   58.8666   31.9084   42.5277 H   0  0  0  0  0  0  0  0  0  0  0  0
   57.4125   32.9574   42.4031 H   0  0  0  0  0  0  0  0  0  0  0  0
   59.7470   35.3625   45.6878 H   0  0  0  0  0  0  0  0  0  0  0  0
   59.8416   34.1349   49.1083 H   0  0  0  0  0  0  0  0  0  0  0  0
   61.8945   34.5091   50.4745 H   0  0  0  0  0  0  0  0  0  0  0  0
   64.1514   34.2102   49.4548 H   0  0  0  0  0  0  0  0  0  0  0  0
   64.3595   33.5382   47.0590 H   0  0  0  0  0  0  0  0  0  0  0  0
   62.3150   33.1623   45.6819 H   0  0  0  0  0  0  0  0  0  0  0  0
   59.4830   31.3800   47.1140 H   0  0  0  0  0  0  0  0  0  0  0  0
  1  2  1  0
  2  3  1  0
  3  4  2  0
  3  5  1  0
  5  6  1  0
  6  7  1  0
  7  8  1  0
  8  9  1  0
  9 10  2  0
 10 11  1  0
 11 12  2  0
 12 13  1  0
 13 14  2  0
 14 15  1  0
 15 16  2  0
 10 17  1  0
 17 18  2  0
 18  2  1  0
 18  7  1  0
 16 11  1  0
  1 19  1  0
  1 20  1  0
  1 21  1  0
  5 22  1  0
  5 23  1  0
  6 24  1  0
  6 25  1  0
  9 26  1  0
 12 27  1  0
 13 28  1  0
 14 29  1  0
 15 30  1  0
 16 31  1  0
 17 32  1  0
M  CHG  1  17   1
M  END
>  <UniqueID>  (24) 
21

>  <SMILES>  (24) 
CN1C(=O)CCN2SC=C(c3ccccc3)[NH+]=C21

>  <Energy>  (24) 
48.9209348435581

>  <Genealogy>  (24) 
CN1C(=O)CCN2SC=C(c3ccccc3)[NH+]=C21 (protonated)
CN1C(=O)CCN2SC=C(c3ccccc3)[NH+]=C21 (3D coordinates assigned)
CN1C(=O)CCN2SC=C(c3ccccc3)[NH+]=C21 (nonaromatic ring conformer: 48.9209348435581 kcal/mol)

>  <smiles>  (24) 
CN1C(=O)CCN2SC=C(c3ccccc3)N=C21

>  <score_type>  (24) 
oracle

>  <origin>  (24) 
adg

>  <m_score__min__energy>  (24) 
-5.7000000000000002

>  <m_primary>  (24) 
energy

$$$$
24:0
     RDKit          3D

 40 42  0  0  0  0  0  0  0  0999 V2000
   57.7650   32.3510   41.8030 C   0  0  0  0  0  0  0  0  0  0  0  0
   57.7930   32.2330   43.2660 N   0  0  0  0  0  0  0  0  0  0  0  0
   58.1140   33.4220   44.0660 C   0  0  0  0  0  0  0  0  0  0  0  0
   57.5100   30.9640   43.9110 C   0  0  0  0  0  0  0  0  0  0  0  0
   58.5470   30.0530   44.2040 C   0  0  0  0  0  0  0  0  0  0  0  0
   58.2720   28.8320   44.8270 C   0  0  0  0  0  0  0  0  0  0  0  0
   56.9610   28.4980   45.1850 C   0  0  0  0  0  0  0  0  0  0  0  0
   56.6830   27.2060   45.8330 C   0  0  0  0  0  0  0  0  0  0  0  0
   55.4410   26.7120   45.9900 N   0  0  0  0  0  0  0  0  0  0  0  0
   55.5330   25.5120   46.5430 N   0  0  0  0  0  0  0  0  0  0  0  0
   56.8350   25.2220   46.7320 C   0  0  0  0  0  0  0  0  0  0  0  0
   57.6040   26.2790   46.2910 C   0  0  0  0  0  0  0  0  0  0  0  0
   59.1030   26.3070   46.1810 C   0  0  0  0  0  0  0  0  0  0  0  0
   59.7080   26.9560   47.3440 N   0  0  0  0  0  0  0  0  0  0  0  0
   59.7620   28.3800   47.5480 C   0  0  0  0  0  0  0  0  0  0  0  0
   60.6780   29.1990   46.8650 C   0  0  0  0  0  0  0  0  0  0  0  0
   60.6940   30.5760   47.0970 C   0  0  0  0  0  0  0  0  0  0  0  0
   59.7880   31.1270   48.0060 C   0  0  0  0  0  0  0  0  0  0  0  0
   58.9020   30.3270   48.6520 N   0  0  0  0  0  0  0  0  0  0  0  0
   58.8670   28.9830   48.4440 C   0  0  0  0  0  0  0  0  0  0  0  0
   55.9200   29.3820   44.8760 C   0  0  0  0  0  0  0  0  0  0  0  0
   56.1890   30.6030   44.2530 C   0  0  0  0  0  0  0  0  0  0  0  0
   57.5194   33.3861   41.5233 H   0  0  0  0  0  0  0  0  0  0  0  0
   58.7512   32.0850   41.3947 H   0  0  0  0  0  0  0  0  0  0  0  0
   57.0034   31.6703   41.3947 H   0  0  0  0  0  0  0  0  0  0  0  0
   58.0469   33.1734   45.1354 H   0  0  0  0  0  0  0  0  0  0  0  0
   59.1349   33.7575   43.8309 H   0  0  0  0  0  0  0  0  0  0  0  0
   57.4007   34.2257   43.8309 H   0  0  0  0  0  0  0  0  0  0  0  0
   59.5841   30.3065   43.9391 H   0  0  0  0  0  0  0  0  0  0  0  0
   59.0916   28.1291   45.0372 H   0  0  0  0  0  0  0  0  0  0  0  0
   57.2233   24.2901   47.1687 H   0  0  0  0  0  0  0  0  0  0  0  0
   59.4768   25.2748   46.1116 H   0  0  0  0  0  0  0  0  0  0  0  0
   59.3751   26.8800   45.2823 H   0  0  0  0  0  0  0  0  0  0  0  0
   60.1570   26.3360   48.0560 H   0  0  0  0  0  0  0  0  0  0  0  0
   61.3830   28.7547   46.1470 H   0  0  0  0  0  0  0  0  0  0  0  0
   61.4128   31.2201   46.5692 H   0  0  0  0  0  0  0  0  0  0  0  0
   59.7925   32.2100   48.1985 H   0  0  0  0  0  0  0  0  0  0  0  0
   58.1324   28.3655   48.9817 H   0  0  0  0  0  0  0  0  0  0  0  0
   54.8830   29.1131   45.1256 H   0  0  0  0  0  0  0  0  0  0  0  0
   55.3615   31.2913   44.0262 H   0  0  0  0  0  0  0  0  0  0  0  0
  1  2  1  0
  2  3  1  0
  2  4  1  0
  4  5  2  0
  5  6  1  0
  6  7  2  0
  7  8  1  0
  8  9  1  0
  9 10  1  0
 10 11  2  0
 11 12  1  0
 12 13  1  0
 13 14  1  0
 14 15  1  0
 15 16  2  0
 16 17  1  0
 17 18  2  0
 18 19  1  0
 19 20  2  0
  7 21  1  0
 21 22  2  0
 22  4  1  0
 12  8  2  0
 20 15  1  0
  1 23  1  0
  1 24  1  0
  1 25  1  0
  3 26  1  0
  3 27  1  0
  3 28  1  0
  5 29  1  0
  6 30  1  0
 11 31  1  0
 13 32  1  0
 13 33  1  0
 14 34  1  0
 16 35  1  0
 17 36  1  0
 18 37  1  0
 20 38  1  0
 21 39  1  0
 22 40  1  0
M  CHG  1   9  -1
M  END
>  <UniqueID>  (25) 
22

>  <SMILES>  (25) 
CN(C)c1ccc(-c2[n-]ncc2CNc2cccnc2)cc1

>  <Energy>  (25) 
78.82521738940795

>  <Genealogy>  (25) 
CN(C)c1ccc(-c2[n-]ncc2CNc2cccnc2)cc1 (protonated)
CN(C)c1ccc(-c2[n-]ncc2CNc2cccnc2)cc1 (3D coordinates assigned)
CN(C)c1ccc(-c2[n-]ncc2CNc2cccnc2)cc1 (optimized conformer: 78.82521738940795 kcal/mol)

>  <smiles>  (25) 
CN(C)c1ccc(-c2[nH]ncc2CNc2cccnc2)cc1

>  <score_type>  (25) 
oracle

>  <origin>  (25) 
adg

>  <m_score__min__energy>  (25) 
-9.0999999999999996

>  <m_primary>  (25) 
energy

$$$$
25:0
     RDKit          3D

 35 37  0  0  0  0  0  0  0  0999 V2000
   58.4740   34.5340   44.8760 C   0  0  0  0  0  0  0  0  0  0  0  0
   57.3440   33.8450   45.6400 C   0  0  0  0  0  0  0  0  0  0  0  0
   57.4120   32.3530   45.4800 C   0  0  0  0  0  0  0  0  0  0  0  0
   56.4170   31.6830   44.8590 N   0  0  0  0  0  0  0  0  0  0  0  0
   56.7270   30.3970   44.8730 N   0  0  0  0  0  0  0  0  0  0  0  0
   57.9070   30.3010   45.5090 C   0  0  0  0  0  0  0  0  0  0  0  0
   58.5790   29.1330   45.7290 N   0  0  0  0  0  0  0  0  0  0  0  0
   58.0070   27.8500   45.2850 C   0  0  0  0  0  0  0  0  0  0  0  0
   58.1710   27.6870   43.7770 C   0  0  0  0  0  0  0  0  0  0  0  0
   59.7650   29.1790   46.4170 C   0  0  0  0  0  0  0  0  0  0  0  0
   60.3940   28.1090   46.6580 O   0  0  0  0  0  0  0  0  0  0  0  0
   60.2900   30.4140   46.8630 C   0  0  0  0  0  0  0  0  0  0  0  0
   61.5090   30.4710   47.5650 C   0  0  0  0  0  0  0  0  0  0  0  0
   62.0130   31.6920   48.0070 C   0  0  0  0  0  0  0  0  0  0  0  0
   61.3180   32.8770   47.7510 C   0  0  0  0  0  0  0  0  0  0  0  0
   61.8440   34.1840   48.2710 C   0  0  0  0  0  0  0  0  0  0  0  0
   60.0930   32.8320   47.0690 C   0  0  0  0  0  0  0  0  0  0  0  0
   59.5650   31.6090   46.6030 C   0  0  0  0  0  0  0  0  0  0  0  0
   58.3780   31.4950   45.9190 N   0  0  0  0  0  0  0  0  0  0  0  0
   59.1878   34.9692   45.5909 H   0  0  0  0  0  0  0  0  0  0  0  0
   58.9914   33.7975   44.2436 H   0  0  0  0  0  0  0  0  0  0  0  0
   58.0562   35.3312   44.2436 H   0  0  0  0  0  0  0  0  0  0  0  0
   57.4277   34.0957   46.7078 H   0  0  0  0  0  0  0  0  0  0  0  0
   56.3839   34.1958   45.2337 H   0  0  0  0  0  0  0  0  0  0  0  0
   58.5252   27.0258   45.7970 H   0  0  0  0  0  0  0  0  0  0  0  0
   56.9349   27.8336   45.5308 H   0  0  0  0  0  0  0  0  0  0  0  0
   58.9375   26.9252   43.5718 H   0  0  0  0  0  0  0  0  0  0  0  0
   57.2137   27.3721   43.3360 H   0  0  0  0  0  0  0  0  0  0  0  0
   58.4800   28.6462   43.3360 H   0  0  0  0  0  0  0  0  0  0  0  0
   62.0674   29.5448   47.7659 H   0  0  0  0  0  0  0  0  0  0  0  0
   62.9631   31.7236   48.5605 H   0  0  0  0  0  0  0  0  0  0  0  0
   61.8384   34.1700   49.3709 H   0  0  0  0  0  0  0  0  0  0  0  0
   62.8727   34.3344   47.9115 H   0  0  0  0  0  0  0  0  0  0  0  0
   61.2063   35.0050   47.9115 H   0  0  0  0  0  0  0  0  0  0  0  0
   59.5355   33.7641   46.8948 H   0  0  0  0  0  0  0  0  0  0  0  0
  1  2  1  0
  2  3  1  0
  3  4  2  0
  4  5  1  0
  5  6  2  0
  6  7  1  0
  7  8  1  0
  8  9  1  0
  7 10  1  0
 10 11  2  0
 10 12  1  0
 12 13  2  0
 13 14  1  0
 14 15  2  0
 15 16  1  0
 15 17  1  0
 17 18  2  0
 18 19  1  0
 19  3  1  0
 19  6  1  0
 18 12  1  0
  1 20  1  0
  1 21  1  0
  1 22  1  0
  2 23  1  0
  2 24  1  0
  8 25  1  0
  8 26  1  0
  9 27  1  0
  9 28  1  0
  9 29  1  0
 13 30  1  0
 14 31  1  0
 16 32  1  0
 16 33  1  0
 16 34  1  0
 17 35  1  0
M  END
>  <UniqueID>  (26) 
23

>  <SMILES>  (26) 
CCc1nnc2n(CC)c(=O)c3ccc(C)cc3n12

>  <Energy>  (26) 
85.17563635247308

>  <Genealogy>  (26) 
CCc1nnc2n(CC)c(=O)c3ccc(C)cc3n12 (3D coordinates assigned)
CCc1nnc2n(CC)c(=O)c3ccc(C)cc3n12 (optimized conformer: 85.17563635247308 kcal/mol)

>  <smiles>  (26) 
CCc1nnc2n(CC)c(=O)c3ccc(C)cc3n12

>  <score_type>  (26) 
oracle

>  <origin>  (26) 
adg

>  <m_score__min__energy>  (26) 
-6.8099999999999996

>  <m_primary>  (26) 
energy

$$$$
26:0
     RDKit          3D

 43 45  0  0  0  0  0  0  0  0999 V2000
   55.2800   26.3810   45.9790 O   0  0  0  0  0  0  0  0  0  0  0  0
   56.3590   25.5370   45.6810 C   0  0  0  0  0  0  0  0  0  0  0  0
   57.5390   26.3290   45.0920 C   0  0  0  0  0  0  0  0  0  0  0  0
   57.2790   27.7890   45.0100 N   0  0  0  0  0  0  0  0  0  0  0  0
   58.0670   28.3710   43.9000 C   0  0  0  0  0  0  0  0  0  0  0  0
   57.7310   29.8660   43.6970 C   0  0  0  0  0  0  0  0  0  0  0  0
   57.1070   30.4510   44.9010 N   0  0  0  0  0  0  0  0  0  0  0  0
   56.9760   31.9210   44.8220 C   0  0  0  0  0  0  0  0  0  0  0  0
   57.9740   32.6580   45.6730 C   0  0  0  0  0  0  0  0  0  0  0  0
   57.6810   33.7810   46.3610 N   0  0  0  0  0  0  0  0  0  0  0  0
   58.8390   34.0800   46.9810 C   0  0  0  0  0  0  0  0  0  0  0  0
   59.7850   33.1290   46.6470 C   0  0  0  0  0  0  0  0  0  0  0  0
   61.1930   33.0470   47.0940 C   0  0  0  0  0  0  0  0  0  0  0  0
   61.5820   32.1940   48.1440 C   0  0  0  0  0  0  0  0  0  0  0  0
   62.9200   32.1330   48.5470 C   0  0  0  0  0  0  0  0  0  0  0  0
   63.8810   32.9220   47.9100 C   0  0  0  0  0  0  0  0  0  0  0  0
   63.5060   33.7730   46.8670 C   0  0  0  0  0  0  0  0  0  0  0  0
   62.1690   33.8360   46.4610 C   0  0  0  0  0  0  0  0  0  0  0  0
   59.2170   32.2690   45.8380 O   0  0  0  0  0  0  0  0  0  0  0  0
   57.7820   29.9940   46.1270 C   0  0  0  0  0  0  0  0  0  0  0  0
   57.5930   28.4730   46.2930 C   0  0  0  0  0  0  0  0  0  0  0  0
   55.1380   26.3270   46.9600 H   0  0  0  0  0  0  0  0  0  0  0  0
   56.6880   25.0360   46.6034 H   0  0  0  0  0  0  0  0  0  0  0  0
   56.0282   24.7990   44.9354 H   0  0  0  0  0  0  0  0  0  0  0  0
   58.4218   26.1660   45.7276 H   0  0  0  0  0  0  0  0  0  0  0  0
   57.6971   25.9663   44.0656 H   0  0  0  0  0  0  0  0  0  0  0  0
   56.2650   27.9310   44.7880 H   0  0  0  0  0  0  0  0  0  0  0  0
   59.1380   28.2725   44.1306 H   0  0  0  0  0  0  0  0  0  0  0  0
   57.8169   27.8300   42.9754 H   0  0  0  0  0  0  0  0  0  0  0  0
   58.6587   30.4133   43.4739 H   0  0  0  0  0  0  0  0  0  0  0  0
   57.0166   29.9483   42.8646 H   0  0  0  0  0  0  0  0  0  0  0  0
   57.1172   32.2276   43.7751 H   0  0  0  0  0  0  0  0  0  0  0  0
   55.9755   32.1779   45.2001 H   0  0  0  0  0  0  0  0  0  0  0  0
   59.0048   34.9410   47.6452 H   0  0  0  0  0  0  0  0  0  0  0  0
   60.8294   31.5718   48.6505 H   0  0  0  0  0  0  0  0  0  0  0  0
   63.2162   31.4624   49.3671 H   0  0  0  0  0  0  0  0  0  0  0  0
   64.9325   32.8734   48.2294 H   0  0  0  0  0  0  0  0  0  0  0  0
   64.2627   34.3937   46.3650 H   0  0  0  0  0  0  0  0  0  0  0  0
   61.8791   34.5082   45.6400 H   0  0  0  0  0  0  0  0  0  0  0  0
   58.8558   30.2231   46.0594 H   0  0  0  0  0  0  0  0  0  0  0  0
   57.3460   30.5104   46.9949 H   0  0  0  0  0  0  0  0  0  0  0  0
   58.5207   28.0458   46.7014 H   0  0  0  0  0  0  0  0  0  0  0  0
   56.7400   28.3166   46.9697 H   0  0  0  0  0  0  0  0  0  0  0  0
  1  2  1  0
  2  3  1  0
  3  4  1  0
  4  5  1  0
  5  6  1  0
  6  7  1  0
  7  8  1  0
  8  9  1  0
  9 10  2  0
 10 11  1  0
 11 12  2  0
 12 13  1  0
 13 14  2  0
 14 15  1  0
 15 16  2  0
 16 17  1  0
 17 18  2  0
 12 19  1  0
  7 20  1  0
 20 21  1  0
 21  4  1  0
 19  9  1  0
 18 13  1  0
  1 22  1  0
  2 23  1  0
  2 24  1  0
  3 25  1  0
  3 26  1  0
  4 27  1  0
  5 28  1  0
  5 29  1  0
  6 30  1  0
  6 31  1  0
  8 32  1  0
  8 33  1  0
 11 34  1  0
 14 35  1  0
 15 36  1  0
 16 37  1  0
 17 38  1  0
 18 39  1  0
 20 40  1  0
 20 41  1  0
 21 42  1  0
 21 43  1  0
M  CHG  1   4   1
M  END
>  <UniqueID>  (27) 
24

>  <SMILES>  (27) 
OCC[NH+]1CCN(Cc2ncc(-c3ccccc3)o2)CC1

>  <Energy>  (27) 
84.29585951889675

>  <Genealogy>  (27) 
OCC[NH+]1CCN(Cc2ncc(-c3ccccc3)o2)CC1 (protonated)
OCC[NH+]1CCN(Cc2ncc(-c3ccccc3)o2)CC1 (3D coordinates assigned)
OCC[NH+]1CCN(Cc2ncc(-c3ccccc3)o2)CC1 (nonaromatic ring conformer: 84.29585951889675 kcal/mol)

>  <smiles>  (27) 
OCCN1CCN(Cc2ncc(-c3ccccc3)o2)CC1

>  <score_type>  (27) 
oracle

>  <origin>  (27) 
adg

>  <m_score__min__energy>  (27) 
-6

>  <m_primary>  (27) 
energy

$$$$
27:0
     RDKit          3D

 39 41  0  0  0  0  0  0  0  0999 V2000
   55.0160   23.2940   47.2040 C   0  0  0  0  0  0  0  0  0  0  0  0
   54.7680   24.1790   46.1170 O   0  0  0  0  0  0  0  0  0  0  0  0
   55.7770   24.9380   45.5140 C   0  0  0  0  0  0  0  0  0  0  0  0
   56.0760   26.1840   45.9800 N   0  0  0  0  0  0  0  0  0  0  0  0
   57.0490   26.9580   45.4230 C   0  0  0  0  0  0  0  0  0  0  0  0
   57.3290   28.3240   46.0050 C   0  0  0  0  0  0  0  0  0  0  0  0
   56.5940   29.4500   45.2220 C   0  0  0  0  0  0  0  0  0  0  0  0
   57.5490   30.4600   44.5750 C   0  0  0  0  0  0  0  0  0  0  0  0
   58.5140   30.9560   45.5700 N   0  0  0  0  0  0  0  0  0  0  0  0
   58.8960   32.3460   45.6040 C   0  0  0  0  0  0  0  0  0  0  0  0
   59.9450   32.7500   46.3720 N   0  0  0  0  0  0  0  0  0  0  0  0
   60.3260   34.0530   46.4170 C   0  0  0  0  0  0  0  0  0  0  0  0
   59.6370   35.0040   45.6660 C   0  0  0  0  0  0  0  0  0  0  0  0
   58.5650   34.5810   44.8820 C   0  0  0  0  0  0  0  0  0  0  0  0
   58.2170   33.2690   44.8650 N   0  0  0  0  0  0  0  0  0  0  0  0
   59.1620   30.0100   46.4940 C   0  0  0  0  0  0  0  0  0  0  0  0
   58.8500   28.5550   46.1250 C   0  0  0  0  0  0  0  0  0  0  0  0
   57.7810   26.4610   44.3320 C   0  0  0  0  0  0  0  0  0  0  0  0
   57.4960   25.1900   43.8350 C   0  0  0  0  0  0  0  0  0  0  0  0
   56.4890   24.4180   44.4230 C   0  0  0  0  0  0  0  0  0  0  0  0
   56.1960   23.1050   43.9080 C   0  0  0  0  0  0  0  0  0  0  0  0
   55.9610   22.0500   43.4930 N   0  0  0  0  0  0  0  0  0  0  0  0
   54.8662   23.8286   48.1536 H   0  0  0  0  0  0  0  0  0  0  0  0
   54.3219   22.4424   47.1492 H   0  0  0  0  0  0  0  0  0  0  0  0
   56.0516   22.9271   47.1492 H   0  0  0  0  0  0  0  0  0  0  0  0
   56.9167   28.3626   47.0241 H   0  0  0  0  0  0  0  0  0  0  0  0
   55.9873   28.9862   44.4303 H   0  0  0  0  0  0  0  0  0  0  0  0
   55.9772   30.0020   45.9464 H   0  0  0  0  0  0  0  0  0  0  0  0
   58.0930   29.9710   43.7534 H   0  0  0  0  0  0  0  0  0  0  0  0
   56.9657   31.3079   44.1867 H   0  0  0  0  0  0  0  0  0  0  0  0
   61.1765   34.3571   47.0448 H   0  0  0  0  0  0  0  0  0  0  0  0
   59.9323   36.0633   45.6915 H   0  0  0  0  0  0  0  0  0  0  0  0
   58.0024   35.3085   44.2785 H   0  0  0  0  0  0  0  0  0  0  0  0
   60.2507   30.1623   46.4549 H   0  0  0  0  0  0  0  0  0  0  0  0
   58.7743   30.1983   47.5060 H   0  0  0  0  0  0  0  0  0  0  0  0
   59.3259   28.3191   45.1618 H   0  0  0  0  0  0  0  0  0  0  0  0
   59.2399   27.9025   46.9201 H   0  0  0  0  0  0  0  0  0  0  0  0
   58.5735   27.0703   43.8730 H   0  0  0  0  0  0  0  0  0  0  0  0
   58.0635   24.7942   42.9799 H   0  0  0  0  0  0  0  0  0  0  0  0
  1  2  1  0
  2  3  1  0
  3  4  2  0
  4  5  1  0
  5  6  1  0
  6  7  1  0
  7  8  1  0
  8  9  1  0
  9 10  1  0
 10 11  2  0
 11 12  1  0
 12 13  2  0
 13 14  1  0
 14 15  2  0
  9 16  1  0
 16 17  1  0
  5 18  2  0
 18 19  1  0
 19 20  2  0
 20 21  1  0
 21 22  3  0
 20  3  1  0
 17  6  1  0
 15 10  1  0
  1 23  1  0
  1 24  1  0
  1 25  1  0
  6 26  1  0
  7 27  1  0
  7 28  1  0
  8 29  1  0
  8 30  1  0
 12 31  1  0
 13 32  1  0
 14 33  1  0
 16 34  1  0
 16 35  1  0
 17 36  1  0
 17 37  1  0
 18 38  1  0
 19 39  1  0
M  END
>  <UniqueID>  (28) 
25

>  <SMILES>  (28) 
COc1nc(C2CCN(c3ncccn3)CC2)ccc1C#N

>  <Energy>  (28) 
42.24991712666983

>  <Genealogy>  (28) 
COc1nc(C2CCN(c3ncccn3)CC2)ccc1C#N (3D coordinates assigned)
COc1nc(C2CCN(c3ncccn3)CC2)ccc1C#N (nonaromatic ring conformer: 42.24991712666983 kcal/mol)

>  <smiles>  (28) 
COc1nc(C2CCN(c3ncccn3)CC2)ccc1C#N

>  <score_type>  (28) 
oracle

>  <origin>  (28) 
adg

>  <m_score__min__energy>  (28) 
-6.8200000000000003

>  <m_primary>  (28) 
energy

$$$$
28:0
     RDKit          3D

 46 48  0  0  0  0  0  0  0  0999 V2000
   55.2660   29.4040   44.9610 N   0  0  0  0  0  0  0  0  0  0  0  0
   56.8250   29.2660   44.2280 S   0  0  0  0  0  0  0  0  0  0  0  0
   56.7140   29.5340   42.7530 O   0  0  0  0  0  0  0  0  0  0  0  0
   57.3460   27.8690   44.4260 O   0  0  0  0  0  0  0  0  0  0  0  0
   57.9260   30.4260   44.9640 C   0  0  0  0  0  0  0  0  0  0  0  0
   59.0380   29.9840   45.6860 C   0  0  0  0  0  0  0  0  0  0  0  0
   59.8990   30.9050   46.2810 C   0  0  0  0  0  0  0  0  0  0  0  0
   59.6680   32.2840   46.1590 C   0  0  0  0  0  0  0  0  0  0  0  0
   60.5400   33.2000   46.8450 N   0  0  0  0  0  0  0  0  0  0  0  0
   61.9880   33.1480   46.6130 C   0  0  0  0  0  0  0  0  0  0  0  0
   62.7040   32.7410   47.8700 C   0  0  0  0  0  0  0  0  0  0  0  0
   63.8620   33.4220   48.2810 C   0  0  0  0  0  0  0  0  0  0  0  0
   64.5550   33.0070   49.4230 C   0  0  0  0  0  0  0  0  0  0  0  0
   64.1000   31.9080   50.1570 C   0  0  0  0  0  0  0  0  0  0  0  0
   62.9530   31.2210   49.7510 C   0  0  0  0  0  0  0  0  0  0  0  0
   62.5170   30.1500   50.4600 F   0  0  0  0  0  0  0  0  0  0  0  0
   62.2580   31.6330   48.6100 C   0  0  0  0  0  0  0  0  0  0  0  0
   59.9260   34.0660   48.2230 S   0  0  0  0  0  0  0  0  0  0  0  0
   61.0160   34.9110   48.8250 O   0  0  0  0  0  0  0  0  0  0  0  0
   58.8120   34.9740   47.7840 O   0  0  0  0  0  0  0  0  0  0  0  0
   59.3360   32.9380   49.4410 C   0  0  0  0  0  0  0  0  0  0  0  0
   59.2860   33.3150   50.7910 C   0  0  0  0  0  0  0  0  0  0  0  0
   58.8440   32.4080   51.7580 C   0  0  0  0  0  0  0  0  0  0  0  0
   58.4450   31.1220   51.3830 C   0  0  0  0  0  0  0  0  0  0  0  0
   58.4850   30.7440   50.0380 C   0  0  0  0  0  0  0  0  0  0  0  0
   58.9280   31.6480   49.0680 C   0  0  0  0  0  0  0  0  0  0  0  0
   58.5450   32.7400   45.4300 C   0  0  0  0  0  0  0  0  0  0  0  0
   58.2780   34.1440   45.2630 N   0  0  0  0  0  0  0  0  0  0  0  0
   57.1020   34.5610   45.2230 O   0  0  0  0  0  0  0  0  0  0  0  0
   59.2990   35.0220   44.9900 O   0  0  0  0  0  0  0  0  0  0  0  0
   57.6770   31.7980   44.8480 C   0  0  0  0  0  0  0  0  0  0  0  0
   55.1630   28.5940   45.6120 H   0  0  0  0  0  0  0  0  0  0  0  0
   59.2345   28.9062   45.7851 H   0  0  0  0  0  0  0  0  0  0  0  0
   60.7684   30.5472   46.8520 H   0  0  0  0  0  0  0  0  0  0  0  0
   62.2023   32.4161   45.8203 H   0  0  0  0  0  0  0  0  0  0  0  0
   62.3375   34.1459   46.3096 H   0  0  0  0  0  0  0  0  0  0  0  0
   64.2250   34.2845   47.7028 H   0  0  0  0  0  0  0  0  0  0  0  0
   65.4587   33.5460   49.7436 H   0  0  0  0  0  0  0  0  0  0  0  0
   64.6455   31.5835   51.0554 H   0  0  0  0  0  0  0  0  0  0  0  0
   61.3580   31.0873   48.2902 H   0  0  0  0  0  0  0  0  0  0  0  0
   59.5956   34.3275   51.0895 H   0  0  0  0  0  0  0  0  0  0  0  0
   58.8101   32.7067   52.8161 H   0  0  0  0  0  0  0  0  0  0  0  0
   58.0999   30.4082   52.1455 H   0  0  0  0  0  0  0  0  0  0  0  0
   58.1673   29.7333   49.7421 H   0  0  0  0  0  0  0  0  0  0  0  0
   58.9569   31.3476   48.0102 H   0  0  0  0  0  0  0  0  0  0  0  0
   56.7915   32.1444   44.2949 H   0  0  0  0  0  0  0  0  0  0  0  0
  1  2  1  0
  2  3  2  0
  2  4  2  0
  2  5  1  0
  5  6  2  0
  6  7  1  0
  7  8  2  0
  8  9  1  0
  9 10  1  0
 10 11  1  0
 11 12  2  0
 12 13  1  0
 13 14  2  0
 14 15  1  0
 15 16  1  0
 15 17  2  0
  9 18  1  0
 18 19  2  0
 18 20  2  0
 18 21  1  0
 21 22  2  0
 22 23  1  0
 23 24  2  0
 24 25  1  0
 25 26  2  0
  8 27  1  0
 27 28  1  0
 28 29  2  0
 28 30  1  0
 27 31  2  0
 31  5  1  0
 17 11  1  0
 26 21  1  0
  1 32  1  0
  6 33  1  0
  7 34  1  0
 10 35  1  0
 10 36  1  0
 12 37  1  0
 13 38  1  0
 14 39  1  0
 17 40  1  0
 22 41  1  0
 23 42  1  0
 24 43  1  0
 25 44  1  0
 26 45  1  0
 31 46  1  0
M  CHG  3   1  -1  28   1  30  -1
M  END
>  <UniqueID>  (29) 
26

>  <SMILES>  (29) 
[NH-]S(=O)(=O)c1ccc(N(Cc2cccc(F)c2)S(=O)(=O)c2ccccc2)c([N+](=O)[O-])c1

>  <Energy>  (29) 
55.48022112837393

>  <Genealogy>  (29) 
[NH-]S(=O)(=O)c1ccc(N(Cc2cccc(F)c2)S(=O)(=O)c2ccccc2)c([N+](=O)[O-])c1 (protonated)
[NH-]S(=O)(=O)c1ccc(N(Cc2cccc(F)c2)S(=O)(=O)c2ccccc2)c([N+](=O)[O-])c1 (3D coordinates assigned)
[NH-]S(=O)(=O)c1ccc(N(Cc2cccc(F)c2)S(=O)(=O)c2ccccc2)c([N+](=O)[O-])c1 (optimized conformer: 55.48022112837393 kcal/mol)

>  <smiles>  (29) 
NS(=O)(=O)c1ccc(N(Cc2cccc(F)c2)S(=O)(=O)c2ccccc2)c([N+](=O)[O-])c1

>  <score_type>  (29) 
oracle

>  <origin>  (29) 
adg

>  <m_score__min__energy>  (29) 
-11.76

>  <m_primary>  (29) 
energy

$$$$
29:0
     RDKit          3D

 44 47  0  0  0  0  0  0  0  0999 V2000
   59.1680   27.0230   46.8260 O   0  0  0  0  0  0  0  0  0  0  0  0
   58.1680   27.7430   46.5590 C   0  0  0  0  0  0  0  0  0  0  0  0
   56.8970   27.1090   46.3670 N   0  0  0  0  0  0  0  0  0  0  0  0
   56.6500   25.9300   45.5870 C   0  0  0  0  0  0  0  0  0  0  0  0
   57.5350   25.6060   44.5500 C   0  0  0  0  0  0  0  0  0  0  0  0
   57.3110   24.4740   43.7580 C   0  0  0  0  0  0  0  0  0  0  0  0
   56.1940   23.6680   43.9890 C   0  0  0  0  0  0  0  0  0  0  0  0
   55.2940   23.9970   45.0070 C   0  0  0  0  0  0  0  0  0  0  0  0
   55.5140   25.1260   45.8000 C   0  0  0  0  0  0  0  0  0  0  0  0
   58.3290   29.2150   46.5040 C   0  0  0  0  0  0  0  0  0  0  0  0
   58.6530   29.9530   47.6640 C   0  0  0  0  0  0  0  0  0  0  0  0
   58.8060   31.3500   47.6170 C   0  0  0  0  0  0  0  0  0  0  0  0
   59.0860   32.1870   49.1350 Cl  0  0  0  0  0  0  0  0  0  0  0  0
   58.6660   31.9970   46.3710 C   0  0  0  0  0  0  0  0  0  0  0  0
   58.3390   31.2770   45.2500 C   0  0  0  0  0  0  0  0  0  0  0  0
   58.1740   29.8930   45.2810 C   0  0  0  0  0  0  0  0  0  0  0  0
   58.1810   32.1650   44.0700 C   0  0  0  0  0  0  0  0  0  0  0  0
   58.5120   33.5630   44.6300 C   0  0  0  0  0  0  0  0  0  0  0  0
   58.7890   33.3840   46.0550 N   0  0  0  0  0  0  0  0  0  0  0  0
   59.6760   34.5860   46.9460 S   0  0  0  0  0  0  0  0  0  0  0  0
   58.8920   34.9750   48.1690 O   0  0  0  0  0  0  0  0  0  0  0  0
   59.8590   35.8080   46.0900 O   0  0  0  0  0  0  0  0  0  0  0  0
   61.2690   33.9770   47.3850 C   0  0  0  0  0  0  0  0  0  0  0  0
   62.1270   33.4760   46.3950 C   0  0  0  0  0  0  0  0  0  0  0  0
   63.3880   32.9830   46.7440 C   0  0  0  0  0  0  0  0  0  0  0  0
   63.8000   32.9970   48.0810 C   0  0  0  0  0  0  0  0  0  0  0  0
   62.9520   33.5050   49.0690 C   0  0  0  0  0  0  0  0  0  0  0  0
   61.6900   33.9960   48.7220 C   0  0  0  0  0  0  0  0  0  0  0  0
   58.4099   26.2444   44.3575 H   0  0  0  0  0  0  0  0  0  0  0  0
   58.0155   24.2188   42.9527 H   0  0  0  0  0  0  0  0  0  0  0  0
   56.0225   22.7748   43.3703 H   0  0  0  0  0  0  0  0  0  0  0  0
   54.4108   23.3656   45.1840 H   0  0  0  0  0  0  0  0  0  0  0  0
   54.7978   25.3875   46.5929 H   0  0  0  0  0  0  0  0  0  0  0  0
   58.7879   29.4261   48.6201 H   0  0  0  0  0  0  0  0  0  0  0  0
   57.9264   29.3395   44.3632 H   0  0  0  0  0  0  0  0  0  0  0  0
   58.8819   31.8852   43.2698 H   0  0  0  0  0  0  0  0  0  0  0  0
   57.1788   32.1082   43.6201 H   0  0  0  0  0  0  0  0  0  0  0  0
   59.3943   33.9775   44.1204 H   0  0  0  0  0  0  0  0  0  0  0  0
   57.6784   34.2629   44.4714 H   0  0  0  0  0  0  0  0  0  0  0  0
   61.8074   33.4709   45.3425 H   0  0  0  0  0  0  0  0  0  0  0  0
   64.0565   32.5839   45.9670 H   0  0  0  0  0  0  0  0  0  0  0  0
   64.7918   32.6080   48.3547 H   0  0  0  0  0  0  0  0  0  0  0  0
   63.2776   33.5185   50.1196 H   0  0  0  0  0  0  0  0  0  0  0  0
   61.0252   34.3985   49.5005 H   0  0  0  0  0  0  0  0  0  0  0  0
  1  2  2  0
  2  3  1  0
  3  4  1  0
  4  5  2  0
  5  6  1  0
  6  7  2  0
  7  8  1  0
  8  9  2  0
  2 10  1  0
 10 11  2  0
 11 12  1  0
 12 13  1  0
 12 14  2  0
 14 15  1  0
 15 16  2  0
 15 17  1  0
 17 18  1  0
 18 19  1  0
 19 20  1  0
 20 21  2  0
 20 22  2  0
 20 23  1  0
 23 24  2  0
 24 25  1  0
 25 26  2  0
 26 27  1  0
 27 28  2  0
  9  4  1  0
 16 10  1  0
 28 23  1  0
 19 14  1  0
  5 29  1  0
  6 30  1  0
  7 31  1  0
  8 32  1  0
  9 33  1  0
 11 34  1  0
 16 35  1  0
 17 36  1  0
 17 37  1  0
 18 38  1  0
 18 39  1  0
 24 40  1  0
 25 41  1  0
 26 42  1  0
 27 43  1  0
 28 44  1  0
M  CHG  1   3  -1
M  END
>  <UniqueID>  (30) 
27

>  <SMILES>  (30) 
O=C([N-]c1ccccc1)c1cc(Cl)c2c(c1)CCN2S(=O)(=O)c1ccccc1

>  <Energy>  (30) 
74.29723086666363

>  <Genealogy>  (30) 
O=C([N-]c1ccccc1)c1cc(Cl)c2c(c1)CCN2S(=O)(=O)c1ccccc1 (protonated)
O=C([N-]c1ccccc1)c1cc(Cl)c2c(c1)CCN2S(=O)(=O)c1ccccc1 (3D coordinates assigned)
O=C([N-]c1ccccc1)c1cc(Cl)c2c(c1)CCN2S(=O)(=O)c1ccccc1 (nonaromatic ring conformer: 74.29723086666363 kcal/mol)

>  <smiles>  (30) 
O=C(Nc1ccccc1)c1cc(Cl)c2c(c1)CCN2S(=O)(=O)c1ccccc1

>  <score_type>  (30) 
oracle

>  <origin>  (30) 
adg

>  <m_score__min__energy>  (30) 
-10.640000000000001

>  <m_primary>  (30) 
energy

$$$$
30:0
     RDKit          3D

 61 64  0  0  0  0  0  0  0  0999 V2000
   63.0440   31.5030   47.1570 C   0  0  0  0  0  0  0  0  0  0  0  0
   63.4570   32.9040   47.3450 N   0  0  0  0  0  0  0  0  0  0  0  0
   63.5530   33.2200   48.7890 C   0  0  0  0  0  0  0  0  0  0  0  0
   62.5050   34.2350   49.2700 C   0  0  0  0  0  0  0  0  0  0  0  0
   61.0710   33.7400   49.0250 C   0  0  0  0  0  0  0  0  0  0  0  0
   60.5160   34.2330   47.7460 N   0  0  0  0  0  0  0  0  0  0  0  0
   59.0400   34.1050   47.7430 C   0  0  0  0  0  0  0  0  0  0  0  0
   58.5780   33.3700   46.5050 C   0  0  0  0  0  0  0  0  0  0  0  0
   58.2030   34.1050   45.3670 C   0  0  0  0  0  0  0  0  0  0  0  0
   57.8240   33.4510   44.1920 C   0  0  0  0  0  0  0  0  0  0  0  0
   57.8170   32.0570   44.1380 C   0  0  0  0  0  0  0  0  0  0  0  0
   58.1850   31.3120   45.2600 C   0  0  0  0  0  0  0  0  0  0  0  0
   58.5640   31.9540   46.4480 C   0  0  0  0  0  0  0  0  0  0  0  0
   58.9500   31.1260   47.6080 C   0  0  0  0  0  0  0  0  0  0  0  0
   58.6310   31.5110   48.7650 O   0  0  0  0  0  0  0  0  0  0  0  0
   59.6730   29.8920   47.4370 N   0  0  0  0  0  0  0  0  0  0  0  0
   60.4570   29.5890   46.2490 C   0  0  0  0  0  0  0  0  0  0  0  0
   59.8170   28.4390   45.4630 C   0  0  0  0  0  0  0  0  0  0  0  0
   59.0380   27.4650   46.2720 N   0  0  0  0  0  0  0  0  0  0  0  0
   58.4100   26.3340   45.5860 C   0  0  0  0  0  0  0  0  0  0  0  0
   58.1140   26.3820   44.2010 C   0  0  0  0  0  0  0  0  0  0  0  0
   57.5140   25.3000   43.5520 C   0  0  0  0  0  0  0  0  0  0  0  0
   57.1900   24.1460   44.2620 C   0  0  0  0  0  0  0  0  0  0  0  0
   57.4620   24.0720   45.6260 C   0  0  0  0  0  0  0  0  0  0  0  0
   58.0630   25.1500   46.2850 C   0  0  0  0  0  0  0  0  0  0  0  0
   58.7400   27.6720   47.7110 C   0  0  0  0  0  0  0  0  0  0  0  0
   59.5400   28.7890   48.3730 C   0  0  0  0  0  0  0  0  0  0  0  0
   61.1130   33.5390   46.5840 C   0  0  0  0  0  0  0  0  0  0  0  0
   62.6260   33.8220   46.5270 C   0  0  0  0  0  0  0  0  0  0  0  0
   62.9037   31.0272   48.1388 H   0  0  0  0  0  0  0  0  0  0  0  0
   62.0984   31.4716   46.5959 H   0  0  0  0  0  0  0  0  0  0  0  0
   63.8214   30.9637   46.5959 H   0  0  0  0  0  0  0  0  0  0  0  0
   63.4205   32.2880   49.3580 H   0  0  0  0  0  0  0  0  0  0  0  0
   64.5407   33.6754   48.9535 H   0  0  0  0  0  0  0  0  0  0  0  0
   62.6431   34.4045   50.3481 H   0  0  0  0  0  0  0  0  0  0  0  0
   62.6458   35.1654   48.7003 H   0  0  0  0  0  0  0  0  0  0  0  0
   61.0749   32.6401   49.0080 H   0  0  0  0  0  0  0  0  0  0  0  0
   60.4386   34.1280   49.8371 H   0  0  0  0  0  0  0  0  0  0  0  0
   58.7227   33.5464   48.6359 H   0  0  0  0  0  0  0  0  0  0  0  0
   58.5943   35.1106   47.7485 H   0  0  0  0  0  0  0  0  0  0  0  0
   58.2080   35.2044   45.4019 H   0  0  0  0  0  0  0  0  0  0  0  0
   57.5306   34.0362   43.3080 H   0  0  0  0  0  0  0  0  0  0  0  0
   57.5213   31.5444   43.2107 H   0  0  0  0  0  0  0  0  0  0  0  0
   58.1776   30.2131   45.2119 H   0  0  0  0  0  0  0  0  0  0  0  0
   60.5048   30.4824   45.6091 H   0  0  0  0  0  0  0  0  0  0  0  0
   61.4694   29.2893   46.5575 H   0  0  0  0  0  0  0  0  0  0  0  0
   59.1396   28.8761   44.7146 H   0  0  0  0  0  0  0  0  0  0  0  0
   60.6518   27.8700   45.0278 H   0  0  0  0  0  0  0  0  0  0  0  0
   58.3610   27.2871   43.6268 H   0  0  0  0  0  0  0  0  0  0  0  0
   57.2964   25.3596   42.4754 H   0  0  0  0  0  0  0  0  0  0  0  0
   56.7204   23.2952   43.7466 H   0  0  0  0  0  0  0  0  0  0  0  0
   57.2032   23.1622   46.1875 H   0  0  0  0  0  0  0  0  0  0  0  0
   58.2697   25.0779   47.3630 H   0  0  0  0  0  0  0  0  0  0  0  0
   57.6709   27.9120   47.8085 H   0  0  0  0  0  0  0  0  0  0  0  0
   59.0230   26.7410   48.2240 H   0  0  0  0  0  0  0  0  0  0  0  0
   59.0156   29.1330   49.2767 H   0  0  0  0  0  0  0  0  0  0  0  0
   60.5363   28.4171   48.6543 H   0  0  0  0  0  0  0  0  0  0  0  0
   60.9476   32.4559   46.6813 H   0  0  0  0  0  0  0  0  0  0  0  0
   60.6404   33.9051   45.6606 H   0  0  0  0  0  0  0  0  0  0  0  0
   62.9516   33.7383   45.4796 H   0  0  0  0  0  0  0  0  0  0  0  0
   62.7709   34.8294   46.9444 H   0  0  0  0  0  0  0  0  0  0  0  0
  1  2  1  0
  2  3  1  0
  3  4  1  0
  4  5  1  0
  5  6  1  0
  6  7  1  0
  7  8  1  0
  8  9  2  0
  9 10  1  0
 10 11  2  0
 11 12  1  0
 12 13  2  0
 13 14  1  0
 14 15  2  0
 14 16  1  0
 16 17  1  0
 17 18  1  0
 18 19  1  0
 19 20  1  0
 20 21  2  0
 21 22  1  0
 22 23  2  0
 23 24  1  0
 24 25  2  0
 19 26  1  0
 26 27  1  0
  6 28  1  0
 28 29  1  0
 29  2  1  0
 13  8  1  0
 27 16  1  0
 25 20  1  0
  1 30  1  0
  1 31  1  0
  1 32  1  0
  3 33  1  0
  3 34  1  0
  4 35  1  0
  4 36  1  0
  5 37  1  0
  5 38  1  0
  7 39  1  0
  7 40  1  0
  9 41  1  0
 10 42  1  0
 11 43  1  0
 12 44  1  0
 17 45  1  0
 17 46  1  0
 18 47  1  0
 18 48  1  0
 21 49  1  0
 22 50  1  0
 23 51  1  0
 24 52  1  0
 25 53  1  0
 26 54  1  0
 26 55  1  0
 27 56  1  0
 27 57  1  0
 28 58  1  0
 28 59  1  0
 29 60  1  0
 29 61  1  0
M  END
>  <UniqueID>  (31) 
28

>  <SMILES>  (31) 
CN1CCCN(Cc2ccccc2C(=O)N2CCN(c3ccccc3)CC2)CC1

>  <Energy>  (31) 
89.51644344201993

>  <Genealogy>  (31) 
CN1CCCN(Cc2ccccc2C(=O)N2CCN(c3ccccc3)CC2)CC1 (3D coordinates assigned)
CN1CCCN(Cc2ccccc2C(=O)N2CCN(c3ccccc3)CC2)CC1 (nonaromatic ring conformer: 89.51644344201993 kcal/mol)

>  <smiles>  (31) 
CN1CCCN(Cc2ccccc2C(=O)N2CCN(c3ccccc3)CC2)CC1

>  <score_type>  (31) 
oracle

>  <origin>  (31) 
adg

>  <m_score__min__energy>  (31) 
-6.5999999999999996

>  <m_primary>  (31) 
energy

$$$$
31:0
     RDKit          3D

 36 37  0  0  0  0  0  0  0  0999 V2000
   58.1390   27.0280   42.6680 C   0  0  0  0  0  0  0  0  0  0  0  0
   57.7940   26.6850   44.1140 C   0  0  0  0  0  0  0  0  0  0  0  0
   57.9450   27.8640   44.9800 N   0  0  0  0  0  0  0  0  0  0  0  0
   57.2350   29.0790   44.6660 C   0  0  0  0  0  0  0  0  0  0  0  0
   56.1290   29.3220   45.2210 O   0  0  0  0  0  0  0  0  0  0  0  0
   57.7710   30.0080   43.7110 N   0  0  0  0  0  0  0  0  0  0  0  0
   57.2950   31.3830   43.6070 C   0  0  0  0  0  0  0  0  0  0  0  0
   57.8430   32.2020   44.7440 C   0  0  0  0  0  0  0  0  0  0  0  0
   58.8320   31.6660   45.5830 C   0  0  0  0  0  0  0  0  0  0  0  0
   59.3030   32.4200   46.6600 C   0  0  0  0  0  0  0  0  0  0  0  0
   58.8010   33.6610   46.8950 N   0  0  0  0  0  0  0  0  0  0  0  0
   57.8370   34.2020   46.1020 C   0  0  0  0  0  0  0  0  0  0  0  0
   57.3370   33.4810   45.0150 C   0  0  0  0  0  0  0  0  0  0  0  0
   58.7400   27.7790   46.1810 C   0  0  0  0  0  0  0  0  0  0  0  0
   58.5580   28.7100   47.2200 C   0  0  0  0  0  0  0  0  0  0  0  0
   59.3300   28.6340   48.3820 C   0  0  0  0  0  0  0  0  0  0  0  0
   60.2840   27.6240   48.5230 C   0  0  0  0  0  0  0  0  0  0  0  0
   60.4680   26.6880   47.5020 C   0  0  0  0  0  0  0  0  0  0  0  0
   59.6990   26.7620   46.3360 C   0  0  0  0  0  0  0  0  0  0  0  0
   58.9190   27.8035   42.6512 H   0  0  0  0  0  0  0  0  0  0  0  0
   58.5066   26.1270   42.1551 H   0  0  0  0  0  0  0  0  0  0  0  0
   57.2401   27.4009   42.1551 H   0  0  0  0  0  0  0  0  0  0  0  0
   56.7531   26.3326   44.1627 H   0  0  0  0  0  0  0  0  0  0  0  0
   58.4805   25.8999   44.4639 H   0  0  0  0  0  0  0  0  0  0  0  0
   58.5560   29.7070   43.0900 H   0  0  0  0  0  0  0  0  0  0  0  0
   57.6306   31.8139   42.6522 H   0  0  0  0  0  0  0  0  0  0  0  0
   56.1960   31.3902   43.6523 H   0  0  0  0  0  0  0  0  0  0  0  0
   59.2333   30.6594   45.3937 H   0  0  0  0  0  0  0  0  0  0  0  0
   60.0816   32.0088   47.3193 H   0  0  0  0  0  0  0  0  0  0  0  0
   57.4505   35.2091   46.3172 H   0  0  0  0  0  0  0  0  0  0  0  0
   56.5524   33.9134   44.3767 H   0  0  0  0  0  0  0  0  0  0  0  0
   57.8028   29.5031   47.1168 H   0  0  0  0  0  0  0  0  0  0  0  0
   59.1862   29.3703   49.1864 H   0  0  0  0  0  0  0  0  0  0  0  0
   60.8910   27.5652   49.4385 H   0  0  0  0  0  0  0  0  0  0  0  0
   61.2186   25.8919   47.6154 H   0  0  0  0  0  0  0  0  0  0  0  0
   59.8450   26.0210   45.5362 H   0  0  0  0  0  0  0  0  0  0  0  0
  1  2  1  0
  2  3  1  0
  3  4  1  0
  4  5  2  0
  4  6  1  0
  6  7  1  0
  7  8  1  0
  8  9  2  0
  9 10  1  0
 10 11  2  0
 11 12  1  0
 12 13  2  0
  3 14  1  0
 14 15  2  0
 15 16  1  0
 16 17  2  0
 17 18  1  0
 18 19  2  0
 13  8  1  0
 19 14  1  0
  1 20  1  0
  1 21  1  0
  1 22  1  0
  2 23  1  0
  2 24  1  0
  6 25  1  0
  7 26  1  0
  7 27  1  0
  9 28  1  0
 10 29  1  0
 12 30  1  0
 13 31  1  0
 15 32  1  0
 16 33  1  0
 17 34  1  0
 18 35  1  0
 19 36  1  0
M  END
>  <UniqueID>  (32) 
29

>  <SMILES>  (32) 
CCN(C(=O)NCc1ccncc1)c1ccccc1

>  <Energy>  (32) 
36.768713047431184

>  <Genealogy>  (32) 
CCN(C(=O)NCc1ccncc1)c1ccccc1 (3D coordinates assigned)
CCN(C(=O)NCc1ccncc1)c1ccccc1 (optimized conformer: 36.768713047431184 kcal/mol)

>  <smiles>  (32) 
CCN(C(=O)NCc1ccncc1)c1ccccc1

>  <score_type>  (32) 
oracle

>  <origin>  (32) 
adg

>  <m_score__min__energy>  (32) 
-6.8099999999999996

>  <m_primary>  (32) 
energy

$$$$
32:0
     RDKit          3D

 45 47  0  0  0  0  0  0  0  0999 V2000
   65.0090   32.3390   50.0550 C   0  0  0  0  0  0  0  0  0  0  0  0
   64.8080   33.3060   49.0290 O   0  0  0  0  0  0  0  0  0  0  0  0
   63.5790   33.5410   48.3930 C   0  0  0  0  0  0  0  0  0  0  0  0
   63.4280   33.4730   46.9950 C   0  0  0  0  0  0  0  0  0  0  0  0
   62.1800   33.7090   46.4090 C   0  0  0  0  0  0  0  0  0  0  0  0
   61.0700   34.0090   47.2100 C   0  0  0  0  0  0  0  0  0  0  0  0
   59.4900   34.2710   46.4780 S   0  0  0  0  0  0  0  0  0  0  0  0
   59.6430   35.1970   45.3030 O   0  0  0  0  0  0  0  0  0  0  0  0
   58.6100   34.9630   47.4810 O   0  0  0  0  0  0  0  0  0  0  0  0
   58.7320   32.7790   45.9450 N   0  0  0  0  0  0  0  0  0  0  0  0
   59.4820   31.5530   46.2770 C   0  0  0  0  0  0  0  0  0  0  0  0
   59.2480   31.1500   47.7000 C   0  0  0  0  0  0  0  0  0  0  0  0
   59.6410   29.9520   48.2810 C   0  0  0  0  0  0  0  0  0  0  0  0
   59.3210   29.8700   49.6420 C   0  0  0  0  0  0  0  0  0  0  0  0
   58.6880   31.0040   50.1340 C   0  0  0  0  0  0  0  0  0  0  0  0
   58.5280   32.1100   48.8770 S   0  0  0  0  0  0  0  0  0  0  0  0
   58.0830   32.8700   44.6100 C   0  0  0  0  0  0  0  0  0  0  0  0
   57.0360   31.7950   44.2040 C   0  0  1  0  0  0  0  0  0  0  0  0
   57.2150   31.1720   42.8330 C   0  0  0  0  0  0  0  0  0  0  0  0
   56.4890   29.8720   42.9840 C   0  0  0  0  0  0  0  0  0  0  0  0
   56.6110   29.5800   44.4700 C   0  0  0  0  0  0  0  0  0  0  0  0
   56.9180   30.7710   45.1630 O   0  0  0  0  0  0  0  0  0  0  0  0
   61.2220   34.0860   48.6000 C   0  0  0  0  0  0  0  0  0  0  0  0
   62.4680   33.8510   49.1860 C   0  0  0  0  0  0  0  0  0  0  0  0
   64.9087   32.8216   51.0384 H   0  0  0  0  0  0  0  0  0  0  0  0
   64.2574   31.5415   49.9595 H   0  0  0  0  0  0  0  0  0  0  0  0
   66.0161   31.9071   49.9595 H   0  0  0  0  0  0  0  0  0  0  0  0
   64.2945   33.2334   46.3612 H   0  0  0  0  0  0  0  0  0  0  0  0
   62.0695   33.6589   45.3157 H   0  0  0  0  0  0  0  0  0  0  0  0
   59.1530   30.7393   45.6139 H   0  0  0  0  0  0  0  0  0  0  0  0
   60.5554   31.7509   46.1406 H   0  0  0  0  0  0  0  0  0  0  0  0
   60.1515   29.1492   47.7288 H   0  0  0  0  0  0  0  0  0  0  0  0
   59.5494   28.9908   50.2624 H   0  0  0  0  0  0  0  0  0  0  0  0
   58.3489   31.1535   51.1697 H   0  0  0  0  0  0  0  0  0  0  0  0
   57.5772   33.8457   44.5638 H   0  0  0  0  0  0  0  0  0  0  0  0
   58.9111   32.7104   43.9037 H   0  0  0  0  0  0  0  0  0  0  0  0
   56.1067   32.3814   44.1537 H   0  0  0  0  0  0  0  0  0  0  0  0
   56.7602   31.7949   42.0486 H   0  0  0  0  0  0  0  0  0  0  0  0
   58.2668   31.0598   42.5310 H   0  0  0  0  0  0  0  0  0  0  0  0
   55.4347   29.9716   42.6864 H   0  0  0  0  0  0  0  0  0  0  0  0
   56.8992   29.0715   42.3509 H   0  0  0  0  0  0  0  0  0  0  0  0
   55.6588   29.1746   44.8428 H   0  0  0  0  0  0  0  0  0  0  0  0
   57.4131   28.8452   44.6333 H   0  0  0  0  0  0  0  0  0  0  0  0
   60.3567   34.3325   49.2329 H   0  0  0  0  0  0  0  0  0  0  0  0
   62.5770   33.9100   50.2790 H   0  0  0  0  0  0  0  0  0  0  0  0
  1  2  1  0
  2  3  1  0
  3  4  2  0
  4  5  1  0
  5  6  2  0
  6  7  1  0
  7  8  2  0
  7  9  2  0
  7 10  1  0
 10 11  1  0
 11 12  1  0
 12 13  2  0
 13 14  1  0
 14 15  2  0
 15 16  1  0
 10 17  1  0
 17 18  1  0
 18 19  1  0
 19 20  1  0
 20 21  1  0
 21 22  1  0
  6 23  1  0
 23 24  2  0
 24  3  1  0
 16 12  1  0
 22 18  1  0
  1 25  1  0
  1 26  1  0
  1 27  1  0
  4 28  1  0
  5 29  1  0
 11 30  1  0
 11 31  1  0
 13 32  1  0
 14 33  1  0
 15 34  1  0
 17 35  1  0
 17 36  1  0
 18 37  1  6
 19 38  1  0
 19 39  1  0
 20 40  1  0
 20 41  1  0
 21 42  1  0
 21 43  1  0
 23 44  1  0
 24 45  1  0
M  END
>  <UniqueID>  (33) 
30

>  <SMILES>  (33) 
COc1ccc(S(=O)(=O)N(Cc2cccs2)C[C@H]2CCCO2)cc1

>  <Energy>  (33) 
81.85502646901533

>  <Genealogy>  (33) 
COc1ccc(S(=O)(=O)N(Cc2cccs2)C[C@H]2CCCO2)cc1 (chirality)
COc1ccc(S(=O)(=O)N(Cc2cccs2)C[C@H]2CCCO2)cc1 (3D coordinates assigned)
COc1ccc(S(=O)(=O)N(Cc2cccs2)C[C@H]2CCCO2)cc1 (nonaromatic ring conformer: 81.85502646901533 kcal/mol)

>  <smiles>  (33) 
COc1ccc(S(=O)(=O)N(Cc2cccs2)CC2CCCO2)cc1

>  <score_type>  (33) 
oracle

>  <origin>  (33) 
adg

>  <m_score__min__energy>  (33) 
-7.7699999999999996

>  <m_primary>  (33) 
energy

$$$$
33:0
     RDKit          3D

 22 23  0  0  0  0  0  0  0  0999 V2000
   56.5480   27.4070   45.5120 O   0  0  0  0  0  0  0  0  0  0  0  0
   56.6200   28.6610   45.4340 C   0  0  0  0  0  0  0  0  0  0  0  0
   57.8470   29.3760   45.8870 C   0  0  0  0  0  0  0  0  0  0  0  0
   57.8970   30.8180   45.4260 C   0  0  0  0  0  0  0  0  0  0  0  0
   58.4920   31.7420   46.3100 C   0  0  0  0  0  0  0  0  0  0  0  0
   58.6560   33.0790   45.9550 C   0  0  0  0  0  0  0  0  0  0  0  0
   58.2400   33.5230   44.7060 C   0  0  0  0  0  0  0  0  0  0  0  0
   57.6600   32.6320   43.8070 C   0  0  0  0  0  0  0  0  0  0  0  0
   57.4900   31.2700   44.1270 C   0  0  0  0  0  0  0  0  0  0  0  0
   56.7610   30.4450   43.0720 C   0  0  0  0  0  0  0  0  0  0  0  0
   55.4690   29.7430   43.4880 C   0  0  0  0  0  0  0  0  0  0  0  0
   55.5240   29.3960   44.8980 N   0  0  0  0  0  0  0  0  0  0  0  0
   57.8770   29.3584   46.9865 H   0  0  0  0  0  0  0  0  0  0  0  0
   58.7110   28.8592   45.4439 H   0  0  0  0  0  0  0  0  0  0  0  0
   58.8330   31.4004   47.2985 H   0  0  0  0  0  0  0  0  0  0  0  0
   59.1151   33.7836   46.6640 H   0  0  0  0  0  0  0  0  0  0  0  0
   58.3690   34.5792   44.4272 H   0  0  0  0  0  0  0  0  0  0  0  0
   57.3270   32.9993   42.8251 H   0  0  0  0  0  0  0  0  0  0  0  0
   56.5147   31.1201   42.2392 H   0  0  0  0  0  0  0  0  0  0  0  0
   57.4559   29.6277   42.8287 H   0  0  0  0  0  0  0  0  0  0  0  0
   54.6161   30.4148   43.3111 H   0  0  0  0  0  0  0  0  0  0  0  0
   55.3497   28.8246   42.8944 H   0  0  0  0  0  0  0  0  0  0  0  0
  1  2  2  0
  2  3  1  0
  3  4  1  0
  4  5  2  0
  5  6  1  0
  6  7  2  0
  7  8  1  0
  8  9  2  0
  9 10  1  0
 10 11  1  0
 11 12  1  0
 12  2  1  0
  9  4  1  0
  3 13  1  0
  3 14  1  0
  5 15  1  0
  6 16  1  0
  7 17  1  0
  8 18  1  0
 10 19  1  0
 10 20  1  0
 11 21  1  0
 11 22  1  0
M  CHG  1  12  -1
M  END
>  <UniqueID>  (34) 
31

>  <SMILES>  (34) 
O=C1Cc2ccccc2CC[N-]1

>  <Energy>  (34) 
28.999547482576798

>  <Genealogy>  (34) 
O=C1Cc2ccccc2CC[N-]1 (protonated)
O=C1Cc2ccccc2CC[N-]1 (3D coordinates assigned)
O=C1Cc2ccccc2CC[N-]1 (nonaromatic ring conformer: 28.999547482576798 kcal/mol)

>  <smiles>  (34) 
O=C1Cc2ccccc2CCN1

>  <score_type>  (34) 
oracle

>  <origin>  (34) 
adg

>  <m_score__min__energy>  (34) 
-5.8200000000000003

>  <m_primary>  (34) 
energy

$$$$
34:0
     RDKit          3D

 49 49  0  0  0  0  0  0  0  0999 V2000
   60.5240   29.8200   47.8680 C   0  0  0  0  0  0  0  0  0  0  0  0
   61.2200   30.7360   46.8670 C   0  0  0  0  0  0  0  0  0  0  0  0
   62.5340   31.2840   47.4400 C   0  0  0  0  0  0  0  0  0  0  0  0
   62.8640   32.6980   46.9330 C   0  0  0  0  0  0  0  0  0  0  0  0
   63.8010   33.4880   47.8720 C   0  0  0  0  0  0  0  0  0  0  0  0
   63.7110   33.0440   49.3500 C   0  0  0  0  0  0  0  0  0  0  0  0
   62.3120   33.2340   49.9670 C   0  0  0  0  0  0  0  0  0  0  0  0
   61.4760   34.3610   49.3310 C   0  0  0  0  0  0  0  0  0  0  0  0
   60.0810   33.9300   48.8300 C   0  0  0  0  0  0  0  0  0  0  0  0
   59.6130   34.6430   47.5500 C   0  0  0  0  0  0  0  0  0  0  0  0
   58.9150   33.7080   46.5950 C   0  0  0  0  0  0  0  0  0  0  0  0
   58.6950   34.0950   45.2640 C   0  0  0  0  0  0  0  0  0  0  0  0
   58.0260   33.2410   44.3820 C   0  0  0  0  0  0  0  0  0  0  0  0
   57.5860   31.9790   44.8160 C   0  0  0  0  0  0  0  0  0  0  0  0
   56.8460   31.1060   43.9490 N   0  0  0  0  0  0  0  0  0  0  0  0
   56.4960   29.8740   44.1940 C   0  0  0  0  0  0  0  0  0  0  0  0
   55.3580   29.5580   45.0060 N   0  0  0  0  0  0  0  0  0  0  0  0
   57.2270   28.8140   43.5780 N   0  0  0  0  0  0  0  0  0  0  0  0
   57.7710   31.6100   46.1540 C   0  0  0  0  0  0  0  0  0  0  0  0
   58.4400   32.4630   47.0360 C   0  0  0  0  0  0  0  0  0  0  0  0
   60.7685   30.1418   48.8911 H   0  0  0  0  0  0  0  0  0  0  0  0
   59.4356   29.8721   47.7175 H   0  0  0  0  0  0  0  0  0  0  0  0
   60.8658   28.7854   47.7175 H   0  0  0  0  0  0  0  0  0  0  0  0
   61.4371   30.1676   45.9506 H   0  0  0  0  0  0  0  0  0  0  0  0
   60.5542   31.5837   46.6477 H   0  0  0  0  0  0  0  0  0  0  0  0
   62.4532   31.3142   48.5366 H   0  0  0  0  0  0  0  0  0  0  0  0
   63.3429   30.6168   47.1075 H   0  0  0  0  0  0  0  0  0  0  0  0
   63.3498   32.6105   45.9500 H   0  0  0  0  0  0  0  0  0  0  0  0
   61.9152   33.2524   46.8827 H   0  0  0  0  0  0  0  0  0  0  0  0
   64.8367   33.3478   47.5289 H   0  0  0  0  0  0  0  0  0  0  0  0
   63.4867   34.5413   47.8311 H   0  0  0  0  0  0  0  0  0  0  0  0
   63.9755   31.9779   49.4096 H   0  0  0  0  0  0  0  0  0  0  0  0
   64.4042   33.6795   49.9205 H   0  0  0  0  0  0  0  0  0  0  0  0
   61.7571   32.2908   49.8552 H   0  0  0  0  0  0  0  0  0  0  0  0
   62.4716   33.5201   51.0171 H   0  0  0  0  0  0  0  0  0  0  0  0
   61.3399   35.1520   50.0832 H   0  0  0  0  0  0  0  0  0  0  0  0
   62.0332   34.6962   48.4437 H   0  0  0  0  0  0  0  0  0  0  0  0
   60.1069   32.8485   48.6306 H   0  0  0  0  0  0  0  0  0  0  0  0
   59.3667   34.2056   49.6198 H   0  0  0  0  0  0  0  0  0  0  0  0
   58.9172   35.4483   47.8282 H   0  0  0  0  0  0  0  0  0  0  0  0
   60.5042   35.0390   47.0412 H   0  0  0  0  0  0  0  0  0  0  0  0
   59.0506   35.0750   44.9130 H   0  0  0  0  0  0  0  0  0  0  0  0
   57.8434   33.5581   43.3446 H   0  0  0  0  0  0  0  0  0  0  0  0
   55.1520   28.5630   45.2470 H   0  0  0  0  0  0  0  0  0  0  0  0
   54.6510   30.2770   45.2730 H   0  0  0  0  0  0  0  0  0  0  0  0
   58.0460   29.0200   42.9630 H   0  0  0  0  0  0  0  0  0  0  0  0
   56.9530   27.8190   43.7350 H   0  0  0  0  0  0  0  0  0  0  0  0
   57.3877   30.6434   46.5129 H   0  0  0  0  0  0  0  0  0  0  0  0
   58.5951   32.1571   48.0812 H   0  0  0  0  0  0  0  0  0  0  0  0
  1  2  1  0
  2  3  1  0
  3  4  1  0
  4  5  1  0
  5  6  1  0
  6  7  1  0
  7  8  1  0
  8  9  1  0
  9 10  1  0
 10 11  1  0
 11 12  2  0
 12 13  1  0
 13 14  2  0
 14 15  1  0
 15 16  2  3
 16 17  1  0
 16 18  1  0
 14 19  1  0
 19 20  2  0
 20 11  1  0
  1 21  1  0
  1 22  1  0
  1 23  1  0
  2 24  1  0
  2 25  1  0
  3 26  1  0
  3 27  1  0
  4 28  1  0
  4 29  1  0
  5 30  1  0
  5 31  1  0
  6 32  1  0
  6 33  1  0
  7 34  1  0
  7 35  1  0
  8 36  1  0
  8 37  1  0
  9 38  1  0
  9 39  1  0
 10 40  1  0
 10 41  1  0
 12 42  1  0
 13 43  1  0
 17 44  1  0
 17 45  1  0
 18 46  1  0
 18 47  1  0
 19 48  1  0
 20 49  1  0
M  END
>  <UniqueID>  (35) 
32

>  <SMILES>  (35) 
CCCCCCCCCCc1ccc(N=C(N)N)cc1

>  <Energy>  (35) 
39.722334171907704

>  <Genealogy>  (35) 
CCCCCCCCCCc1ccc(N=C(N)N)cc1 (3D coordinates assigned)
CCCCCCCCCCc1ccc(N=C(N)N)cc1 (optimized conformer: 39.722334171907704 kcal/mol)

>  <smiles>  (35) 
CCCCCCCCCCc1ccc(N=C(N)N)cc1

>  <score_type>  (35) 
oracle

>  <origin>  (35) 
adg

>  <m_score__min__energy>  (35) 
-7.5800000000000001

>  <m_primary>  (35) 
energy

$$$$
35:0
     RDKit          3D

 45 47  0  0  0  0  0  0  0  0999 V2000
   55.7020   29.5550   44.7980 N   0  0  0  0  0  0  0  0  0  0  0  0
   56.6800   30.3860   44.1000 C   0  0  0  0  0  0  0  0  0  0  0  0
   57.3970   31.3380   45.0730 C   0  0  0  0  0  0  0  0  0  0  0  0
   58.0860   32.5090   44.3560 C   0  0  0  0  0  0  0  0  0  0  0  0
   58.9950   33.3210   45.2900 C   0  0  0  0  0  0  0  0  0  0  0  0
   58.2020   33.8790   46.4790 C   0  0  0  0  0  0  0  0  0  0  0  0
   59.1080   34.3580   47.6260 C   0  0  0  0  0  0  0  0  0  0  0  0
   59.7710   33.2620   48.3550 N   0  0  0  0  0  0  0  0  0  0  0  0
   59.0060   32.1440   48.8530 C   0  0  0  0  0  0  0  0  0  0  0  0
   57.9680   32.3530   49.5360 O   0  0  0  0  0  0  0  0  0  0  0  0
   59.4150   30.7450   48.6000 C   0  0  0  0  0  0  0  0  0  0  0  0
   58.8920   29.6360   49.2410 C   0  0  0  0  0  0  0  0  0  0  0  0
   59.5220   28.5340   48.6960 C   0  0  0  0  0  0  0  0  0  0  0  0
   60.3990   29.0090   47.7420 C   0  0  0  0  0  0  0  0  0  0  0  0
   60.3300   30.3540   47.6860 N   0  0  0  0  0  0  0  0  0  0  0  0
   61.0750   31.2110   46.7680 C   0  0  0  0  0  0  0  0  0  0  0  0
   61.8710   32.2150   47.5510 C   0  0  0  0  0  0  0  0  0  0  0  0
   63.2750   32.1700   47.5360 C   0  0  0  0  0  0  0  0  0  0  0  0
   64.0160   33.1000   48.2690 C   0  0  0  0  0  0  0  0  0  0  0  0
   63.3640   34.0750   49.0250 C   0  0  0  0  0  0  0  0  0  0  0  0
   61.9690   34.1220   49.0530 C   0  0  0  0  0  0  0  0  0  0  0  0
   61.2100   33.1920   48.3250 C   0  0  0  0  0  0  0  0  0  0  0  0
   54.7480   29.9600   44.6510 H   0  0  0  0  0  0  0  0  0  0  0  0
   55.7100   28.5970   44.3780 H   0  0  0  0  0  0  0  0  0  0  0  0
   57.4257   29.7355   43.6196 H   0  0  0  0  0  0  0  0  0  0  0  0
   56.1505   30.9901   43.3485 H   0  0  0  0  0  0  0  0  0  0  0  0
   56.6567   31.7436   45.7783 H   0  0  0  0  0  0  0  0  0  0  0  0
   58.1768   30.7596   45.5901 H   0  0  0  0  0  0  0  0  0  0  0  0
   58.6951   32.1084   43.5323 H   0  0  0  0  0  0  0  0  0  0  0  0
   57.2990   33.1836   43.9878 H   0  0  0  0  0  0  0  0  0  0  0  0
   59.7977   32.6699   45.6665 H   0  0  0  0  0  0  0  0  0  0  0  0
   59.4171   34.1639   44.7232 H   0  0  0  0  0  0  0  0  0  0  0  0
   57.5969   34.7289   46.1304 H   0  0  0  0  0  0  0  0  0  0  0  0
   57.5740   33.0650   46.8702 H   0  0  0  0  0  0  0  0  0  0  0  0
   59.8839   35.0141   47.2047 H   0  0  0  0  0  0  0  0  0  0  0  0
   58.4632   34.8803   48.3481 H   0  0  0  0  0  0  0  0  0  0  0  0
   58.1252   29.6325   50.0297 H   0  0  0  0  0  0  0  0  0  0  0  0
   59.3567   27.4814   48.9695 H   0  0  0  0  0  0  0  0  0  0  0  0
   61.0562   28.3834   47.1202 H   0  0  0  0  0  0  0  0  0  0  0  0
   61.7565   30.5947   46.1632 H   0  0  0  0  0  0  0  0  0  0  0  0
   60.3710   31.7379   46.1071 H   0  0  0  0  0  0  0  0  0  0  0  0
   63.7925   31.3999   46.9451 H   0  0  0  0  0  0  0  0  0  0  0  0
   65.1152   33.0637   48.2502 H   0  0  0  0  0  0  0  0  0  0  0  0
   63.9499   34.8075   49.5996 H   0  0  0  0  0  0  0  0  0  0  0  0
   61.4607   34.8935   49.6500 H   0  0  0  0  0  0  0  0  0  0  0  0
  1  2  1  0
  2  3  1  0
  3  4  1  0
  4  5  1  0
  5  6  1  0
  6  7  1  0
  7  8  1  0
  8  9  1  0
  9 10  2  0
  9 11  1  0
 11 12  2  0
 12 13  1  0
 13 14  2  0
 14 15  1  0
 15 16  1  0
 16 17  1  0
 17 18  2  0
 18 19  1  0
 19 20  2  0
 20 21  1  0
 21 22  2  0
 22  8  1  0
 15 11  1  0
 22 17  1  0
  1 23  1  0
  1 24  1  0
  2 25  1  0
  2 26  1  0
  3 27  1  0
  3 28  1  0
  4 29  1  0
  4 30  1  0
  5 31  1  0
  5 32  1  0
  6 33  1  0
  6 34  1  0
  7 35  1  0
  7 36  1  0
 12 37  1  0
 13 38  1  0
 14 39  1  0
 16 40  1  0
 16 41  1  0
 18 42  1  0
 19 43  1  0
 20 44  1  0
 21 45  1  0
M  END
>  <UniqueID>  (36) 
33

>  <SMILES>  (36) 
NCCCCCCN1C(=O)c2cccn2Cc2ccccc21

>  <Energy>  (36) 
76.13461322456358

>  <Genealogy>  (36) 
NCCCCCCN1C(=O)c2cccn2Cc2ccccc21 (3D coordinates assigned)
NCCCCCCN1C(=O)c2cccn2Cc2ccccc21 (nonaromatic ring conformer: 76.13461322456358 kcal/mol)

>  <smiles>  (36) 
NCCCCCCN1C(=O)c2cccn2Cc2ccccc21

>  <score_type>  (36) 
oracle

>  <origin>  (36) 
adg

>  <m_score__min__energy>  (36) 
-7.4299999999999997

>  <m_primary>  (36) 
energy

$$$$
36:0
     RDKit          3D

 46 49  0  0  0  0  0  0  0  0999 V2000
   56.6400   30.1230   43.5580 C   0  0  0  0  0  0  0  0  0  0  0  0
   56.5260   30.8280   44.7900 O   0  0  0  0  0  0  0  0  0  0  0  0
   57.3990   31.8440   45.2040 C   0  0  0  0  0  0  0  0  0  0  0  0
   58.7000   31.4890   45.5840 C   0  0  0  0  0  0  0  0  0  0  0  0
   59.6070   32.4640   46.0060 C   0  0  0  0  0  0  0  0  0  0  0  0
   59.2280   33.8150   46.0440 C   0  0  0  0  0  0  0  0  0  0  0  0
   60.1890   34.8590   46.5410 C   0  0  0  0  0  0  0  0  0  0  0  0
   61.1230   34.2680   47.4970 N   0  0  0  0  0  0  0  0  0  0  0  0
   62.4460   33.8330   47.1960 C   0  0  0  0  0  0  0  0  0  0  0  0
   62.9160   33.7330   46.0330 O   0  0  0  0  0  0  0  0  0  0  0  0
   63.1510   33.5440   48.4180 C   0  0  0  0  0  0  0  0  0  0  0  0
   64.4500   33.0830   48.6240 C   0  0  0  0  0  0  0  0  0  0  0  0
   64.8800   32.8900   49.9460 C   0  0  0  0  0  0  0  0  0  0  0  0
   64.0130   33.1630   51.0240 C   0  0  0  0  0  0  0  0  0  0  0  0
   62.7090   33.6310   50.7860 C   0  0  0  0  0  0  0  0  0  0  0  0
   62.2930   33.8130   49.4650 C   0  0  0  0  0  0  0  0  0  0  0  0
   60.9650   34.3140   48.9580 C   0  0  2  0  0  0  0  0  0  0  0  0
   59.8820   33.4190   49.3730 N   0  0  0  0  0  0  0  0  0  0  0  0
   59.9080   31.9830   49.2580 C   0  0  0  0  0  0  0  0  0  0  0  0
   60.9110   31.3040   48.5360 C   0  0  0  0  0  0  0  0  0  0  0  0
   60.8950   29.9080   48.4480 C   0  0  0  0  0  0  0  0  0  0  0  0
   59.8840   29.1760   49.0710 C   0  0  0  0  0  0  0  0  0  0  0  0
   58.8800   29.8380   49.7820 C   0  0  0  0  0  0  0  0  0  0  0  0
   58.8910   31.2330   49.8730 C   0  0  0  0  0  0  0  0  0  0  0  0
   57.9240   34.1730   45.6760 C   0  0  0  0  0  0  0  0  0  0  0  0
   57.0150   33.1970   45.2540 C   0  0  0  0  0  0  0  0  0  0  0  0
   56.8126   29.0557   43.7609 H   0  0  0  0  0  0  0  0  0  0  0  0
   55.7111   30.2410   42.9807 H   0  0  0  0  0  0  0  0  0  0  0  0
   57.4844   30.5277   42.9807 H   0  0  0  0  0  0  0  0  0  0  0  0
   59.0097   30.4341   45.5498 H   0  0  0  0  0  0  0  0  0  0  0  0
   60.6230   32.1717   46.3099 H   0  0  0  0  0  0  0  0  0  0  0  0
   60.7514   35.2703   45.6898 H   0  0  0  0  0  0  0  0  0  0  0  0
   59.6237   35.6606   47.0388 H   0  0  0  0  0  0  0  0  0  0  0  0
   65.1187   32.8765   47.7753 H   0  0  0  0  0  0  0  0  0  0  0  0
   65.8986   32.5239   50.1422 H   0  0  0  0  0  0  0  0  0  0  0  0
   64.3589   33.0089   52.0568 H   0  0  0  0  0  0  0  0  0  0  0  0
   62.0298   33.8495   51.6232 H   0  0  0  0  0  0  0  0  0  0  0  0
   60.7095   35.3129   49.3414 H   0  0  0  0  0  0  0  0  0  0  0  0
   59.0170   33.8660   49.7570 H   0  0  0  0  0  0  0  0  0  0  0  0
   61.7097   31.8747   48.0397 H   0  0  0  0  0  0  0  0  0  0  0  0
   61.6827   29.3854   47.8854 H   0  0  0  0  0  0  0  0  0  0  0  0
   59.8773   28.0782   49.0025 H   0  0  0  0  0  0  0  0  0  0  0  0
   58.0806   29.2614   50.2704 H   0  0  0  0  0  0  0  0  0  0  0  0
   58.0958   31.7486   50.4314 H   0  0  0  0  0  0  0  0  0  0  0  0
   57.6135   35.2274   45.7192 H   0  0  0  0  0  0  0  0  0  0  0  0
   55.9958   33.4883   44.9600 H   0  0  0  0  0  0  0  0  0  0  0  0
  1  2  1  0
  2  3  1  0
  3  4  2  0
  4  5  1  0
  5  6  2  0
  6  7  1  0
  7  8  1  0
  8  9  1  0
  9 10  2  0
  9 11  1  0
 11 12  2  0
 12 13  1  0
 13 14  2  0
 14 15  1  0
 15 16  2  0
 16 17  1  0
 17 18  1  0
 18 19  1  0
 19 20  2  0
 20 21  1  0
 21 22  2  0
 22 23  1  0
 23 24  2  0
  6 25  1  0
 25 26  2  0
 26  3  1  0
 17  8  1  0
 24 19  1  0
 16 11  1  0
  1 27  1  0
  1 28  1  0
  1 29  1  0
  4 30  1  0
  5 31  1  0
  7 32  1  0
  7 33  1  0
 12 34  1  0
 13 35  1  0
 14 36  1  0
 15 37  1  0
 17 38  1  1
 18 39  1  0
 20 40  1  0
 21 41  1  0
 22 42  1  0
 23 43  1  0
 24 44  1  0
 25 45  1  0
 26 46  1  0
M  END
>  <UniqueID>  (37) 
34

>  <SMILES>  (37) 
COc1ccc(CN2C(=O)c3ccccc3[C@@H]2Nc2ccccc2)cc1

>  <Energy>  (37) 
69.29069933283856

>  <Genealogy>  (37) 
COc1ccc(CN2C(=O)c3ccccc3[C@@H]2Nc2ccccc2)cc1 (chirality)
COc1ccc(CN2C(=O)c3ccccc3[C@@H]2Nc2ccccc2)cc1 (3D coordinates assigned)
COc1ccc(CN2C(=O)c3ccccc3[C@@H]2Nc2ccccc2)cc1 (nonaromatic ring conformer: 69.29069933283856 kcal/mol)

>  <smiles>  (37) 
COc1ccc(CN2C(=O)c3ccccc3C2Nc2ccccc2)cc1

>  <score_type>  (37) 
oracle

>  <origin>  (37) 
adg

>  <m_score__min__energy>  (37) 
-8.1300000000000008

>  <m_primary>  (37) 
energy

$$$$
37:0
     RDKit          3D

 49 52  0  0  0  0  0  0  0  0999 V2000
   58.4700   32.7990   43.0020 C   0  0  0  0  0  0  0  0  0  0  0  0
   57.7880   31.6120   43.6270 C   0  0  0  0  0  0  0  0  0  0  0  0
   56.9270   30.8240   42.8480 C   0  0  0  0  0  0  0  0  0  0  0  0
   56.3010   29.7000   43.3930 C   0  0  0  0  0  0  0  0  0  0  0  0
   56.5260   29.3460   44.7240 C   0  0  0  0  0  0  0  0  0  0  0  0
   55.9020   28.1670   45.2500 N   0  0  0  0  0  0  0  0  0  0  0  0
   56.5790   27.1060   45.9400 C   0  0  0  0  0  0  0  0  0  0  0  0
   55.9610   26.0280   46.1480 O   0  0  0  0  0  0  0  0  0  0  0  0
   57.9900   27.2330   46.3780 C   0  0  0  0  0  0  0  0  0  0  0  0
   58.2940   27.8210   47.6190 C   0  0  0  0  0  0  0  0  0  0  0  0
   59.6250   27.9640   48.0260 C   0  0  0  0  0  0  0  0  0  0  0  0
   60.6620   27.5120   47.2060 C   0  0  0  0  0  0  0  0  0  0  0  0
   60.3690   26.9050   45.9810 C   0  0  0  0  0  0  0  0  0  0  0  0
   59.0410   26.7630   45.5690 C   0  0  0  0  0  0  0  0  0  0  0  0
   57.3370   30.1620   45.5270 C   0  0  0  0  0  0  0  0  0  0  0  0
   57.9930   31.2820   44.9870 C   0  0  0  0  0  0  0  0  0  0  0  0
   58.8490   32.0910   45.8170 N   0  0  0  0  0  0  0  0  0  0  0  0
   58.5540   32.3960   47.2170 C   0  0  0  0  0  0  0  0  0  0  0  0
   59.6930   31.9370   48.0860 C   0  0  0  0  0  0  0  0  0  0  0  0
   59.4600   31.0570   49.1580 C   0  0  0  0  0  0  0  0  0  0  0  0
   60.5210   30.6410   49.9720 C   0  0  0  0  0  0  0  0  0  0  0  0
   61.8150   31.1150   49.7390 C   0  0  0  0  0  0  0  0  0  0  0  0
   62.0500   32.0100   48.6940 C   0  0  0  0  0  0  0  0  0  0  0  0
   60.9970   32.4080   47.8560 C   0  0  0  0  0  0  0  0  0  0  0  0
   61.2730   33.2810   46.7960 O   0  0  0  0  0  0  0  0  0  0  0  0
   62.6170   33.5370   46.3790 C   0  0  0  0  0  0  0  0  0  0  0  0
   63.5390   33.6390   47.6000 C   0  0  0  0  0  0  0  0  0  0  0  0
   63.3310   32.5230   48.4690 O   0  0  0  0  0  0  0  0  0  0  0  0
   58.8507   33.4617   43.7931 H   0  0  0  0  0  0  0  0  0  0  0  0
   59.3076   32.4540   42.3780 H   0  0  0  0  0  0  0  0  0  0  0  0
   57.7501   33.3489   42.3780 H   0  0  0  0  0  0  0  0  0  0  0  0
   56.7430   31.0939   41.7976 H   0  0  0  0  0  0  0  0  0  0  0  0
   55.6282   29.0918   42.7705 H   0  0  0  0  0  0  0  0  0  0  0  0
   57.4813   28.1702   48.2729 H   0  0  0  0  0  0  0  0  0  0  0  0
   59.8555   28.4334   48.9938 H   0  0  0  0  0  0  0  0  0  0  0  0
   61.7080   27.6336   47.5239 H   0  0  0  0  0  0  0  0  0  0  0  0
   61.1849   26.5387   45.3406 H   0  0  0  0  0  0  0  0  0  0  0  0
   58.8160   26.2808   44.6063 H   0  0  0  0  0  0  0  0  0  0  0  0
   57.4612   29.9222   46.5933 H   0  0  0  0  0  0  0  0  0  0  0  0
   59.7300   32.4830   45.4110 H   0  0  0  0  0  0  0  0  0  0  0  0
   58.4188   33.4813   47.3343 H   0  0  0  0  0  0  0  0  0  0  0  0
   57.6331   31.8748   47.5175 H   0  0  0  0  0  0  0  0  0  0  0  0
   58.4409   30.6942   49.3578 H   0  0  0  0  0  0  0  0  0  0  0  0
   60.3352   29.9385   50.7979 H   0  0  0  0  0  0  0  0  0  0  0  0
   62.6467   30.7833   50.3780 H   0  0  0  0  0  0  0  0  0  0  0  0
   62.9596   32.7158   45.7323 H   0  0  0  0  0  0  0  0  0  0  0  0
   62.6467   34.4874   45.8259 H   0  0  0  0  0  0  0  0  0  0  0  0
   64.5866   33.6484   47.2647 H   0  0  0  0  0  0  0  0  0  0  0  0
   63.3116   34.5667   48.1456 H   0  0  0  0  0  0  0  0  0  0  0  0
  1  2  1  0
  2  3  2  0
  3  4  1  0
  4  5  2  0
  5  6  1  0
  6  7  1  0
  7  8  2  0
  7  9  1  0
  9 10  2  0
 10 11  1  0
 11 12  2  0
 12 13  1  0
 13 14  2  0
  5 15  1  0
 15 16  2  0
 16 17  1  0
 17 18  1  0
 18 19  1  0
 19 20  2  0
 20 21  1  0
 21 22  2  0
 22 23  1  0
 23 24  2  0
 24 25  1  0
 25 26  1  0
 26 27  1  0
 27 28  1  0
 16  2  1  0
 24 19  1  0
 14  9  1  0
 28 23  1  0
  1 29  1  0
  1 30  1  0
  1 31  1  0
  3 32  1  0
  4 33  1  0
 10 34  1  0
 11 35  1  0
 12 36  1  0
 13 37  1  0
 14 38  1  0
 15 39  1  0
 17 40  1  0
 18 41  1  0
 18 42  1  0
 20 43  1  0
 21 44  1  0
 22 45  1  0
 26 46  1  0
 26 47  1  0
 27 48  1  0
 27 49  1  0
M  CHG  1   6  -1
M  END
>  <UniqueID>  (38) 
35

>  <SMILES>  (38) 
Cc1ccc([N-]C(=O)c2ccccc2)cc1NCc1cccc2c1OCCO2

>  <Energy>  (38) 
59.58120598021063

>  <Genealogy>  (38) 
Cc1ccc([N-]C(=O)c2ccccc2)cc1NCc1cccc2c1OCCO2 (protonated)
Cc1ccc([N-]C(=O)c2ccccc2)cc1NCc1cccc2c1OCCO2 (3D coordinates assigned)
Cc1ccc([N-]C(=O)c2ccccc2)cc1NCc1cccc2c1OCCO2 (nonaromatic ring conformer: 59.58120598021063 kcal/mol)

>  <smiles>  (38) 
Cc1ccc(NC(=O)c2ccccc2)cc1NCc1cccc2c1OCCO2

>  <score_type>  (38) 
oracle

>  <origin>  (38) 
adg

>  <m_score__min__energy>  (38) 
-10.75

>  <m_primary>  (38) 
energy

$$$$
38:0
     RDKit          3D

 28 29  0  0  0  0  0  0  0  0999 V2000
   59.9000   35.8260   45.9990 C   0  0  0  0  0  0  0  0  0  0  0  0
   59.2530   35.0880   44.9660 O   0  0  0  0  0  0  0  0  0  0  0  0
   58.8020   33.7670   45.1000 C   0  0  0  0  0  0  0  0  0  0  0  0
   58.4810   32.9630   43.9900 C   0  0  0  0  0  0  0  0  0  0  0  0
   58.0330   31.6520   44.1760 C   0  0  0  0  0  0  0  0  0  0  0  0
   57.8910   31.1270   45.4700 C   0  0  0  0  0  0  0  0  0  0  0  0
   57.4280   29.7350   45.6730 C   0  0  0  0  0  0  0  0  0  0  0  0
   58.1530   28.8930   46.5290 C   0  0  0  0  0  0  0  0  0  0  0  0
   57.7510   27.5720   46.7240 C   0  0  0  0  0  0  0  0  0  0  0  0
   56.6180   27.0980   46.0630 C   0  0  0  0  0  0  0  0  0  0  0  0
   56.2450   25.9070   46.2220 O   0  0  0  0  0  0  0  0  0  0  0  0
   55.9120   27.9250   45.2480 N   0  0  0  0  0  0  0  0  0  0  0  0
   56.2710   29.2230   45.0400 C   0  0  0  0  0  0  0  0  0  0  0  0
   55.4120   30.0630   44.1390 C   0  0  0  0  0  0  0  0  0  0  0  0
   58.2250   31.9250   46.5750 C   0  0  0  0  0  0  0  0  0  0  0  0
   58.6720   33.2360   46.3880 C   0  0  0  0  0  0  0  0  0  0  0  0
   59.5708   35.4506   46.9792 H   0  0  0  0  0  0  0  0  0  0  0  0
   60.9897   35.7065   45.9077 H   0  0  0  0  0  0  0  0  0  0  0  0
   59.6390   36.8907   45.9077 H   0  0  0  0  0  0  0  0  0  0  0  0
   58.5831   33.3679   42.9724 H   0  0  0  0  0  0  0  0  0  0  0  0
   57.7903   31.0281   43.3032 H   0  0  0  0  0  0  0  0  0  0  0  0
   59.0431   29.2766   47.0491 H   0  0  0  0  0  0  0  0  0  0  0  0
   58.3217   26.9105   47.3924 H   0  0  0  0  0  0  0  0  0  0  0  0
   54.7574   30.7031   44.7487 H   0  0  0  0  0  0  0  0  0  0  0  0
   56.0526   30.6927   43.5042 H   0  0  0  0  0  0  0  0  0  0  0  0
   54.7968   29.4084   43.5042 H   0  0  0  0  0  0  0  0  0  0  0  0
   58.1346   31.5170   47.5925 H   0  0  0  0  0  0  0  0  0  0  0  0
   58.9238   33.8558   47.2611 H   0  0  0  0  0  0  0  0  0  0  0  0
  1  2  1  0
  2  3  1  0
  3  4  2  0
  4  5  1  0
  5  6  2  0
  6  7  1  0
  7  8  1  0
  8  9  2  0
  9 10  1  0
 10 11  2  0
 10 12  1  0
 12 13  1  0
 13 14  1  0
  6 15  1  0
 15 16  2  0
 16  3  1  0
 13  7  2  0
  1 17  1  0
  1 18  1  0
  1 19  1  0
  4 20  1  0
  5 21  1  0
  8 22  1  0
  9 23  1  0
 14 24  1  0
 14 25  1  0
 14 26  1  0
 15 27  1  0
 16 28  1  0
M  CHG  1  12  -1
M  END
>  <UniqueID>  (39) 
36

>  <SMILES>  (39) 
COc1ccc(-c2ccc(=O)[n-]c2C)cc1

>  <Energy>  (39) 
35.316564720674656

>  <Genealogy>  (39) 
COc1ccc(-c2ccc(=O)[n-]c2C)cc1 (protonated)
COc1ccc(-c2ccc(=O)[n-]c2C)cc1 (3D coordinates assigned)
COc1ccc(-c2ccc(=O)[n-]c2C)cc1 (optimized conformer: 35.316564720674656 kcal/mol)

>  <smiles>  (39) 
COc1ccc(-c2ccc(=O)[nH]c2C)cc1

>  <score_type>  (39) 
oracle

>  <origin>  (39) 
adg

>  <m_score__min__energy>  (39) 
-7.6699999999999999

>  <m_primary>  (39) 
energy

$$$$
39:0
     RDKit          3D

 39 42  0  0  0  0  0  0  0  0999 V2000
   56.8550   30.5930   43.8860 C   0  0  0  0  0  0  0  0  0  0  0  0
   57.0160   31.2590   45.1350 O   0  0  0  0  0  0  0  0  0  0  0  0
   58.2550   31.5300   45.7340 C   0  0  0  0  0  0  0  0  0  0  0  0
   58.5870   32.8010   46.2420 C   0  0  0  0  0  0  0  0  0  0  0  0
   59.8370   33.0210   46.8280 C   0  0  0  0  0  0  0  0  0  0  0  0
   60.7740   31.9820   46.9060 C   0  0  0  0  0  0  0  0  0  0  0  0
   62.0480   32.2000   47.5340 N   0  0  0  0  0  0  0  0  0  0  0  0
   63.0530   32.9770   47.0710 C   0  0  0  0  0  0  0  0  0  0  0  0
   62.9890   33.6570   46.0120 O   0  0  0  0  0  0  0  0  0  0  0  0
   64.1440   32.9370   47.8670 N   0  0  0  0  0  0  0  0  0  0  0  0
   63.7620   32.0910   48.8520 C   0  0  0  0  0  0  0  0  0  0  0  0
   64.5060   31.7190   49.9530 N   0  0  0  0  0  0  0  0  0  0  0  0
   65.8970   32.1580   50.1230 C   0  0  0  0  0  0  0  0  0  0  0  0
   63.8500   30.9280   50.8750 C   0  0  0  0  0  0  0  0  0  0  0  0
   62.5600   30.4990   50.6900 C   0  0  0  0  0  0  0  0  0  0  0  0
   62.1380   29.7680   51.7360 N   0  0  0  0  0  0  0  0  0  0  0  0
   63.2150   29.7700   52.5610 C   0  0  0  0  0  0  0  0  0  0  0  0
   64.2710   30.4740   52.0800 N   0  0  0  0  0  0  0  0  0  0  0  0
   65.5350   30.6620   52.7880 C   0  0  0  0  0  0  0  0  0  0  0  0
   61.8400   30.8640   49.5600 C   0  0  0  0  0  0  0  0  0  0  0  0
   60.6400   30.5150   49.4040 O   0  0  0  0  0  0  0  0  0  0  0  0
   62.4950   31.6510   48.6570 N   0  0  0  0  0  0  0  0  0  0  0  0
   60.4390   30.7140   46.4150 C   0  0  0  0  0  0  0  0  0  0  0  0
   59.1900   30.4930   45.8290 C   0  0  0  0  0  0  0  0  0  0  0  0
   56.5999   29.5378   44.0633 H   0  0  0  0  0  0  0  0  0  0  0  0
   56.0474   31.0745   43.3151 H   0  0  0  0  0  0  0  0  0  0  0  0
   57.7934   30.6524   43.3151 H   0  0  0  0  0  0  0  0  0  0  0  0
   57.8598   33.6238   46.1774 H   0  0  0  0  0  0  0  0  0  0  0  0
   60.0862   34.0143   47.2297 H   0  0  0  0  0  0  0  0  0  0  0  0
   65.0340   33.4670   47.7380 H   0  0  0  0  0  0  0  0  0  0  0  0
   66.1298   32.2315   51.1956 H   0  0  0  0  0  0  0  0  0  0  0  0
   66.5719   31.4292   49.6504 H   0  0  0  0  0  0  0  0  0  0  0  0
   66.0313   33.1422   49.6504 H   0  0  0  0  0  0  0  0  0  0  0  0
   63.2309   29.2494   53.5299 H   0  0  0  0  0  0  0  0  0  0  0  0
   65.3551   30.6352   53.8729 H   0  0  0  0  0  0  0  0  0  0  0  0
   66.2329   29.8578   52.5121 H   0  0  0  0  0  0  0  0  0  0  0  0
   65.9687   31.6345   52.5121 H   0  0  0  0  0  0  0  0  0  0  0  0
   61.1621   29.8886   46.4910 H   0  0  0  0  0  0  0  0  0  0  0  0
   58.9395   29.4954   45.4390 H   0  0  0  0  0  0  0  0  0  0  0  0
  1  2  1  0
  2  3  1  0
  3  4  2  0
  4  5  1  0
  5  6  2  0
  6  7  1  0
  7  8  1  0
  8  9  2  0
  8 10  1  0
 10 11  2  0
 11 12  1  0
 12 13  1  0
 12 14  1  0
 14 15  2  0
 15 16  1  0
 16 17  2  0
 17 18  1  0
 18 19  1  0
 15 20  1  0
 20 21  2  0
 20 22  1  0
  6 23  1  0
 23 24  2  0
 24  3  1  0
 22  7  1  0
 22 11  1  0
 18 14  1  0
  1 25  1  0
  1 26  1  0
  1 27  1  0
  4 28  1  0
  5 29  1  0
 10 30  1  0
 13 31  1  0
 13 32  1  0
 13 33  1  0
 17 34  1  0
 19 35  1  0
 19 36  1  0
 19 37  1  0
 23 38  1  0
 24 39  1  0
M  CHG  1  10   1
M  END
>  <UniqueID>  (40) 
37

>  <SMILES>  (40) 
COc1ccc(-n2c(=O)[nH+]c3n(C)c4c(ncn4C)c(=O)n32)cc1

>  <Energy>  (40) 
141.0176007449635

>  <Genealogy>  (40) 
COc1ccc(-n2c(=O)[nH+]c3n(C)c4c(ncn4C)c(=O)n32)cc1 (protonated)
COc1ccc(-n2c(=O)[nH+]c3n(C)c4c(ncn4C)c(=O)n32)cc1 (3D coordinates assigned)
COc1ccc(-n2c(=O)[nH+]c3n(C)c4c(ncn4C)c(=O)n32)cc1 (optimized conformer: 141.0176007449635 kcal/mol)

>  <smiles>  (40) 
COc1ccc(-n2c(=O)nc3n(C)c4c(ncn4C)c(=O)n32)cc1

>  <score_type>  (40) 
oracle

>  <origin>  (40) 
adg

>  <m_score__min__energy>  (40) 
-5.0499999999999998

>  <m_primary>  (40) 
energy

$$$$
40:0
     RDKit          3D

 43 45  0  0  0  0  0  0  0  0999 V2000
   54.8000   23.7690   45.5740 C   0  0  0  0  0  0  0  0  0  0  0  0
   55.5180   24.1540   46.7430 O   0  0  0  0  0  0  0  0  0  0  0  0
   56.4720   25.1820   46.7840 C   0  0  0  0  0  0  0  0  0  0  0  0
   57.7980   24.9610   47.2000 C   0  0  0  0  0  0  0  0  0  0  0  0
   58.7160   26.0140   47.2250 C   0  0  0  0  0  0  0  0  0  0  0  0
   58.3310   27.3020   46.8220 C   0  0  0  0  0  0  0  0  0  0  0  0
   59.3100   28.4130   46.8650 C   0  0  0  0  0  0  0  0  0  0  0  0
   59.6890   29.0940   48.0120 C   0  0  0  0  0  0  0  0  0  0  0  0
   60.6060   30.0310   47.5700 C   0  0  0  0  0  0  0  0  0  0  0  0
   61.3080   31.0190   48.4000 C   0  0  0  0  0  0  0  0  0  0  0  0
   61.5980   30.7430   49.5970 O   0  0  0  0  0  0  0  0  0  0  0  0
   61.6490   32.2580   47.8530 O   0  0  0  0  0  0  0  0  0  0  0  0
   60.9480   33.4570   48.1680 C   0  0  0  0  0  0  0  0  0  0  0  0
   59.8060   33.6250   47.2100 C   0  0  0  0  0  0  0  0  0  0  0  0
   59.9660   34.3970   46.0460 C   0  0  0  0  0  0  0  0  0  0  0  0
   58.8890   34.5860   45.1740 C   0  0  0  0  0  0  0  0  0  0  0  0
   57.6450   34.0170   45.4630 C   0  0  0  0  0  0  0  0  0  0  0  0
   57.4740   33.2630   46.6270 C   0  0  0  0  0  0  0  0  0  0  0  0
   58.5480   33.0710   47.5020 C   0  0  0  0  0  0  0  0  0  0  0  0
   60.7700   29.9030   46.2400 N   0  0  0  0  0  0  0  0  0  0  0  0
   59.9970   28.9180   45.8130 N   0  0  0  0  0  0  0  0  0  0  0  0
   59.9530   28.4770   44.4200 C   0  0  0  0  0  0  0  0  0  0  0  0
   57.0040   27.5270   46.4240 C   0  0  0  0  0  0  0  0  0  0  0  0
   56.0840   26.4730   46.4010 C   0  0  0  0  0  0  0  0  0  0  0  0
   54.7740   26.7140   46.0000 O   0  0  0  0  0  0  0  0  0  0  0  0
   53.8654   23.2679   45.8662 H   0  0  0  0  0  0  0  0  0  0  0  0
   54.5657   24.6625   44.9767 H   0  0  0  0  0  0  0  0  0  0  0  0
   55.4146   23.0794   44.9767 H   0  0  0  0  0  0  0  0  0  0  0  0
   58.1137   23.9531   47.5074 H   0  0  0  0  0  0  0  0  0  0  0  0
   59.7470   25.8323   47.5627 H   0  0  0  0  0  0  0  0  0  0  0  0
   59.3393   28.9269   49.0415 H   0  0  0  0  0  0  0  0  0  0  0  0
   60.5607   33.3979   49.1959 H   0  0  0  0  0  0  0  0  0  0  0  0
   61.6294   34.3166   48.0862 H   0  0  0  0  0  0  0  0  0  0  0  0
   60.9410   34.8537   45.8205 H   0  0  0  0  0  0  0  0  0  0  0  0
   59.0208   35.1831   44.2596 H   0  0  0  0  0  0  0  0  0  0  0  0
   56.8003   34.1630   44.7736 H   0  0  0  0  0  0  0  0  0  0  0  0
   56.4934   32.8199   46.8554 H   0  0  0  0  0  0  0  0  0  0  0  0
   58.4075   32.4844   48.4219 H   0  0  0  0  0  0  0  0  0  0  0  0
   61.4060   30.4690   45.6340 H   0  0  0  0  0  0  0  0  0  0  0  0
   59.8438   27.3830   44.3850 H   0  0  0  0  0  0  0  0  0  0  0  0
   59.0973   28.9473   43.9134 H   0  0  0  0  0  0  0  0  0  0  0  0
   60.8847   28.7689   43.9134 H   0  0  0  0  0  0  0  0  0  0  0  0
   56.6855   28.5376   46.1285 H   0  0  0  0  0  0  0  0  0  0  0  0
  1  2  1  0
  2  3  1  0
  3  4  2  0
  4  5  1  0
  5  6  2  0
  6  7  1  0
  7  8  2  0
  8  9  1  0
  9 10  1  0
 10 11  2  0
 10 12  1  0
 12 13  1  0
 13 14  1  0
 14 15  2  0
 15 16  1  0
 16 17  2  0
 17 18  1  0
 18 19  2  0
  9 20  2  0
 20 21  1  0
 21 22  1  0
  6 23  1  0
 23 24  2  0
 24 25  1  0
 24  3  1  0
 21  7  1  0
 19 14  1  0
  1 26  1  0
  1 27  1  0
  1 28  1  0
  4 29  1  0
  5 30  1  0
  8 31  1  0
 13 32  1  0
 13 33  1  0
 15 34  1  0
 16 35  1  0
 17 36  1  0
 18 37  1  0
 19 38  1  0
 20 39  1  0
 22 40  1  0
 22 41  1  0
 22 42  1  0
 23 43  1  0
M  CHG  2  20   1  25  -1
M  END
>  <UniqueID>  (41) 
38

>  <SMILES>  (41) 
COc1ccc(-c2cc(C(=O)OCc3ccccc3)[nH+]n2C)cc1[O-]

>  <Energy>  (41) 
76.52819117576054

>  <Genealogy>  (41) 
COc1ccc(-c2cc(C(=O)OCc3ccccc3)[nH+]n2C)cc1[O-] (protonated)
COc1ccc(-c2cc(C(=O)OCc3ccccc3)[nH+]n2C)cc1[O-] (3D coordinates assigned)
COc1ccc(-c2cc(C(=O)OCc3ccccc3)[nH+]n2C)cc1[O-] (optimized conformer: 76.52819117576054 kcal/mol)

>  <smiles>  (41) 
COc1ccc(-c2cc(C(=O)OCc3ccccc3)nn2C)cc1O

>  <score_type>  (41) 
oracle

>  <origin>  (41) 
adg

>  <m_score__min__energy>  (41) 
-9.7699999999999996

>  <m_primary>  (41) 
energy

$$$$
41:0
     RDKit          3D

 39 41  0  0  0  0  0  0  0  0999 V2000
   57.4674   26.9024   43.9618 H   0  0  0  0  0  0  0  0  0  0  0  0
   57.8710   27.9120   43.7950 C   0  0  0  0  0  0  0  0  0  0  0  0
   59.0850   28.1950   44.1600 N   0  0  0  0  0  0  0  0  0  0  0  0
   59.5220   28.5400   45.4870 C   0  0  0  0  0  0  0  0  0  0  0  0
   60.2270   29.7320   45.7630 C   0  0  0  0  0  0  0  0  0  0  0  0
   60.4503   30.4370   44.9487 H   0  0  0  0  0  0  0  0  0  0  0  0
   60.6420   30.0200   47.0650 C   0  0  0  0  0  0  0  0  0  0  0  0
   61.1842   30.9540   47.2738 H   0  0  0  0  0  0  0  0  0  0  0  0
   60.3710   29.1270   48.1010 C   0  0  0  0  0  0  0  0  0  0  0  0
   60.6954   29.3603   49.1259 H   0  0  0  0  0  0  0  0  0  0  0  0
   59.6890   27.9380   47.8400 C   0  0  0  0  0  0  0  0  0  0  0  0
   59.4819   27.2348   48.6602 H   0  0  0  0  0  0  0  0  0  0  0  0
   59.2640   27.6330   46.5310 C   0  0  0  0  0  0  0  0  0  0  0  0
   58.5800   26.4440   46.2310 O   0  0  0  0  0  0  0  0  0  0  0  0
   57.2950   26.1000   46.7410 C   0  0  0  0  0  0  0  0  0  0  0  0
   57.3229   26.1075   47.8406 H   0  0  0  0  0  0  0  0  0  0  0  0
   56.5527   26.8311   46.3881 H   0  0  0  0  0  0  0  0  0  0  0  0
   57.0172   25.0959   46.3881 H   0  0  0  0  0  0  0  0  0  0  0  0
   57.0210   28.9610   43.1470 C   0  0  0  0  0  0  0  0  0  0  0  0
   57.6119   29.4690   42.3706 H   0  0  0  0  0  0  0  0  0  0  0  0
   56.1395   28.4673   42.7120 H   0  0  0  0  0  0  0  0  0  0  0  0
   56.5410   29.9860   44.1450 C   0  0  0  0  0  0  0  0  0  0  0  0
   55.5040   29.7480   44.8240 O   0  0  0  0  0  0  0  0  0  0  0  0
   57.2720   31.2590   44.3720 C   0  0  0  0  0  0  0  0  0  0  0  0
   57.6020   31.6350   45.6820 C   0  0  0  0  0  0  0  0  0  0  0  0
   57.3261   30.9873   46.5272 H   0  0  0  0  0  0  0  0  0  0  0  0
   58.2820   32.8340   45.9120 C   0  0  0  0  0  0  0  0  0  0  0  0
   58.6160   33.2510   47.2100 C   0  0  0  0  0  0  0  0  0  0  0  0
   58.3450   32.6289   48.0757 H   0  0  0  0  0  0  0  0  0  0  0  0
   59.2940   34.4590   47.4000 C   0  0  0  0  0  0  0  0  0  0  0  0
   59.5579   34.7857   48.4167 H   0  0  0  0  0  0  0  0  0  0  0  0
   59.6380   35.2540   46.3000 C   0  0  0  0  0  0  0  0  0  0  0  0
   60.1696   36.2045   46.4546 H   0  0  0  0  0  0  0  0  0  0  0  0
   59.3070   34.8420   45.0050 C   0  0  0  0  0  0  0  0  0  0  0  0
   59.5793   35.4684   44.1428 H   0  0  0  0  0  0  0  0  0  0  0  0
   58.6300   33.6340   44.8050 C   0  0  0  0  0  0  0  0  0  0  0  0
   58.3200   33.2430   43.5740 O   0  0  0  0  0  0  0  0  0  0  0  0
   57.6750   32.1080   43.3160 C   0  0  0  0  0  0  0  0  0  0  0  0
   57.4530   31.7970   42.1170 O   0  0  0  0  0  0  0  0  0  0  0  0
  1  2  1  0
  2  3  2  0
  3  4  1  0
  4  5  2  0
  5  6  1  0
  5  7  1  0
  7  8  1  0
  7  9  2  0
  9 10  1  0
  9 11  1  0
 11 12  1  0
 11 13  2  0
 13 14  1  0
 14 15  1  0
 15 16  1  0
 15 17  1  0
 15 18  1  0
  2 19  1  0
 19 20  1  0
 19 21  1  0
 19 22  1  0
 22 23  2  0
 22 24  1  0
 24 25  2  0
 25 26  1  0
 25 27  1  0
 27 28  2  0
 28 29  1  0
 28 30  1  0
 30 31  1  0
 30 32  2  0
 32 33  1  0
 32 34  1  0
 34 35  1  0
 34 36  2  0
 36 37  1  0
 37 38  1  0
 38 39  2  0
 13  4  1  0
 38 24  1  0
 36 27  1  0
M  END
>  <UniqueID>  (42) 
39

>  <SMILES>  (42) 
COc1ccccc1/N=C/CC(=O)c1cc2ccccc2oc1=O

>  <Energy>  (42) 
51.364169666178945

>  <Genealogy>  (42) 
COc1ccccc1/N=C/CC(=O)c1cc2ccccc2oc1=O (cis-trans isomerization)
COc1ccccc1/N=C/CC(=O)c1cc2ccccc2oc1=O (3D coordinates assigned)
COc1ccccc1/N=C/CC(=O)c1cc2ccccc2oc1=O (optimized conformer: 51.364169666178945 kcal/mol)

>  <smiles>  (42) 
COc1ccccc1N=CCC(=O)c1cc2ccccc2oc1=O

>  <score_type>  (42) 
oracle

>  <origin>  (42) 
adg

>  <m_score__min__energy>  (42) 
-8.1099999999999994

>  <m_primary>  (42) 
energy

$$$$
42:0
     RDKit          3D

 42 45  0  0  0  0  0  0  0  0999 V2000
   58.8455   25.0547   48.0600 H   0  0  0  0  0  0  0  0  0  0  0  0
   58.3330   25.7540   47.3830 C   0  0  0  0  0  0  0  0  0  0  0  0
   59.0340   26.8270   46.8270 C   0  0  0  0  0  0  0  0  0  0  0  0
   60.0939   26.9779   47.0799 H   0  0  0  0  0  0  0  0  0  0  0  0
   58.3950   27.7110   45.9500 C   0  0  0  0  0  0  0  0  0  0  0  0
   59.1490   28.8030   45.3950 N   0  0  0  0  0  0  0  0  0  0  0  0
   58.8720   30.0670   45.5330 C   0  0  0  0  0  0  0  0  0  0  0  0
   59.7270   30.9100   46.1730 N   0  0  0  0  0  0  0  0  0  0  0  0
   59.4420   32.2270   46.3490 C   0  0  0  0  0  0  0  0  0  0  0  0
   60.3510   33.0860   47.0010 C   0  0  0  0  0  0  0  0  0  0  0  0
   61.6280   32.5730   47.5500 C   0  0  0  0  0  0  0  0  0  0  0  0
   61.7490   31.6380   48.5680 C   0  0  0  0  0  0  0  0  0  0  0  0
   60.9389   31.1333   49.1149 H   0  0  0  0  0  0  0  0  0  0  0  0
   63.1100   31.4800   48.7440 C   0  0  0  0  0  0  0  0  0  0  0  0
   63.5860   30.8125   49.4774 H   0  0  0  0  0  0  0  0  0  0  0  0
   63.7590   32.2740   47.8740 N   0  0  0  0  0  0  0  0  0  0  0  0
   64.7950   32.3580   47.7720 H   0  0  0  0  0  0  0  0  0  0  0  0
   62.8680   32.9270   47.1430 N   0  0  0  0  0  0  0  0  0  0  0  0
   63.2250   33.8570   46.0740 C   0  0  0  0  0  0  0  0  0  0  0  0
   63.5865   34.7987   46.5128 H   0  0  0  0  0  0  0  0  0  0  0  0
   64.0171   33.4143   45.4522 H   0  0  0  0  0  0  0  0  0  0  0  0
   62.3401   34.0581   45.4522 H   0  0  0  0  0  0  0  0  0  0  0  0
   60.0150   34.4420   47.1510 C   0  0  0  0  0  0  0  0  0  0  0  0
   60.7109   35.1219   47.6642 H   0  0  0  0  0  0  0  0  0  0  0  0
   58.8040   34.9360   46.6540 C   0  0  0  0  0  0  0  0  0  0  0  0
   58.5558   36.0006   46.7761 H   0  0  0  0  0  0  0  0  0  0  0  0
   57.9080   34.0830   46.0030 C   0  0  0  0  0  0  0  0  0  0  0  0
   56.9579   34.4756   45.6116 H   0  0  0  0  0  0  0  0  0  0  0  0
   58.2230   32.7300   45.8510 C   0  0  0  0  0  0  0  0  0  0  0  0
   57.3610   31.8880   45.2220 N   0  0  0  0  0  0  0  0  0  0  0  0
   57.6550   30.5700   45.0570 C   0  0  0  0  0  0  0  0  0  0  0  0
   56.9405   29.9030   44.5524 H   0  0  0  0  0  0  0  0  0  0  0  0
   57.0240   27.5430   45.6800 C   0  0  0  0  0  0  0  0  0  0  0  0
   56.5036   28.2622   45.0305 H   0  0  0  0  0  0  0  0  0  0  0  0
   56.3130   26.4610   46.2350 C   0  0  0  0  0  0  0  0  0  0  0  0
   54.9510   26.2460   45.9790 O   0  0  0  0  0  0  0  0  0  0  0  0
   54.3880   24.9880   45.6220 C   0  0  0  0  0  0  0  0  0  0  0  0
   54.1368   24.4267   46.5340 H   0  0  0  0  0  0  0  0  0  0  0  0
   53.4763   25.1496   45.0281 H   0  0  0  0  0  0  0  0  0  0  0  0
   55.1159   24.4158   45.0281 H   0  0  0  0  0  0  0  0  0  0  0  0
   56.9810   25.5680   47.0800 C   0  0  0  0  0  0  0  0  0  0  0  0
   56.4381   24.7130   47.5092 H   0  0  0  0  0  0  0  0  0  0  0  0
  1  2  1  0
  2  3  2  0
  3  4  1  0
  3  5  1  0
  5  6  1  0
  6  7  2  0
  7  8  1  0
  8  9  1  0
  9 10  2  0
 10 11  1  0
 11 12  2  0
 12 13  1  0
 12 14  1  0
 14 15  1  0
 14 16  2  0
 16 17  1  0
 16 18  1  0
 18 19  1  0
 19 20  1  0
 19 21  1  0
 19 22  1  0
 10 23  1  0
 23 24  1  0
 23 25  2  0
 25 26  1  0
 25 27  1  0
 27 28  1  0
 27 29  2  0
 29 30  1  0
 30 31  2  0
 31 32  1  0
  5 33  2  0
 33 34  1  0
 33 35  1  0
 35 36  1  0
 36 37  1  0
 37 38  1  0
 37 39  1  0
 37 40  1  0
 35 41  2  0
 41 42  1  0
 41  2  1  0
 31  7  1  0
 29  9  1  0
 18 11  1  0
M  CHG  2   8  -1  16   1
M  END
>  <UniqueID>  (43) 
40

>  <SMILES>  (43) 
COc1cccc(/N=c2/cnc3cccc(-c4cc[nH+]n4C)c3[n-]2)c1

>  <Energy>  (43) 
88.77274415038401

>  <Genealogy>  (43) 
COc1cccc(N=c2cnc3cccc(-c4cc[nH+]n4C)c3[n-]2)c1 (protonated)
COc1cccc(/N=c2/cnc3cccc(-c4cc[nH+]n4C)c3[n-]2)c1 (cis-trans isomerization)
COc1cccc(/N=c2/cnc3cccc(-c4cc[nH+]n4C)c3[n-]2)c1 (3D coordinates assigned)
COc1cccc(/N=c2/cnc3cccc(-c4cc[nH+]n4C)c3[n-]2)c1 (optimized conformer: 88.77274415038401 kcal/mol)

>  <smiles>  (43) 
COc1cccc(N=c2cnc3cccc(-c4ccnn4C)c3[nH]2)c1

>  <score_type>  (43) 
oracle

>  <origin>  (43) 
adg

>  <m_score__min__energy>  (43) 
-8.6600000000000001

>  <m_primary>  (43) 
energy

$$$$
43:0
     RDKit          3D

 28 29  0  0  0  0  0  0  0  0999 V2000
   57.6840   31.9660   42.4390 C   0  0  0  0  0  0  0  0  0  0  0  0
   58.0130   32.3230   43.8630 C   0  0  0  0  0  0  0  0  0  0  0  0
   58.4520   33.6210   44.1760 C   0  0  0  0  0  0  0  0  0  0  0  0
   58.7610   33.9630   45.4950 C   0  0  0  0  0  0  0  0  0  0  0  0
   58.6270   33.0190   46.5140 C   0  0  0  0  0  0  0  0  0  0  0  0
   58.9890   33.4600   48.1720 Cl  0  0  0  0  0  0  0  0  0  0  0  0
   58.1950   31.7230   46.2130 C   0  0  0  0  0  0  0  0  0  0  0  0
   57.9080   31.3570   44.8860 C   0  0  0  0  0  0  0  0  0  0  0  0
   57.4440   30.0360   44.5640 N   0  0  0  0  0  0  0  0  0  0  0  0
   56.1150   29.5380   44.7500 C   0  0  0  0  0  0  0  0  0  0  0  0
   55.1400   30.2840   44.4700 O   0  0  0  0  0  0  0  0  0  0  0  0
   55.8990   28.2080   45.2430 N   0  0  0  0  0  0  0  0  0  0  0  0
   56.8960   27.2960   45.7280 C   0  0  0  0  0  0  0  0  0  0  0  0
   56.9780   25.9650   45.2850 C   0  0  0  0  0  0  0  0  0  0  0  0
   57.9860   25.1300   45.7750 C   0  0  0  0  0  0  0  0  0  0  0  0
   58.9100   25.6360   46.6910 C   0  0  0  0  0  0  0  0  0  0  0  0
   58.8300   26.9330   47.0920 N   0  0  0  0  0  0  0  0  0  0  0  0
   57.8590   27.7650   46.6290 C   0  0  0  0  0  0  0  0  0  0  0  0
   56.9386   31.1572   42.4266 H   0  0  0  0  0  0  0  0  0  0  0  0
   57.2760   32.8486   41.9246 H   0  0  0  0  0  0  0  0  0  0  0  0
   58.5969   31.6313   41.9246 H   0  0  0  0  0  0  0  0  0  0  0  0
   58.5528   34.3716   43.3783 H   0  0  0  0  0  0  0  0  0  0  0  0
   59.1108   34.9789   45.7308 H   0  0  0  0  0  0  0  0  0  0  0  0
   58.0790   30.9848   47.0203 H   0  0  0  0  0  0  0  0  0  0  0  0
   56.2507   25.5812   44.5544 H   0  0  0  0  0  0  0  0  0  0  0  0
   58.0507   24.0836   45.4419 H   0  0  0  0  0  0  0  0  0  0  0  0
   59.7030   24.9855   47.0885 H   0  0  0  0  0  0  0  0  0  0  0  0
   57.8303   28.8122   46.9644 H   0  0  0  0  0  0  0  0  0  0  0  0
  1  2  1  0
  2  3  2  0
  3  4  1  0
  4  5  2  0
  5  6  1  0
  5  7  1  0
  7  8  2  0
  8  9  1  0
  9 10  1  0
 10 11  2  0
 10 12  1  0
 12 13  1  0
 13 14  2  0
 14 15  1  0
 15 16  2  0
 16 17  1  0
 17 18  2  0
  8  2  1  0
 18 13  1  0
  1 19  1  0
  1 20  1  0
  1 21  1  0
  3 22  1  0
  4 23  1  0
  7 24  1  0
 14 25  1  0
 15 26  1  0
 16 27  1  0
 18 28  1  0
M  CHG  2   9  -1  12  -1
M  END
>  <UniqueID>  (44) 
41

>  <SMILES>  (44) 
Cc1ccc(Cl)cc1[N-]C(=O)[N-]c1cccnc1

>  <Energy>  (44) 
36.30099689897629

>  <Genealogy>  (44) 
Cc1ccc(Cl)cc1[N-]C(=O)[N-]c1cccnc1 (protonated)
Cc1ccc(Cl)cc1[N-]C(=O)[N-]c1cccnc1 (3D coordinates assigned)
Cc1ccc(Cl)cc1[N-]C(=O)[N-]c1cccnc1 (optimized conformer: 36.30099689897629 kcal/mol)

>  <smiles>  (44) 
Cc1ccc(Cl)cc1NC(=O)Nc1cccnc1

>  <score_type>  (44) 
oracle

>  <origin>  (44) 
adg

>  <m_score__min__energy>  (44) 
-10.19

>  <m_primary>  (44) 
energy

$$$$
44:0
     RDKit          3D

 53 56  0  0  0  0  0  0  0  0999 V2000
   58.5240   33.9290   51.9850 C   0  0  0  0  0  0  0  0  0  0  0  0
   58.5220   32.4630   51.6420 C   0  0  0  0  0  0  0  0  0  0  0  0
   58.5210   31.5140   52.6790 C   0  0  0  0  0  0  0  0  0  0  0  0
   58.5320   30.1460   52.3910 C   0  0  0  0  0  0  0  0  0  0  0  0
   58.5240   28.9730   53.6950 Cl  0  0  0  0  0  0  0  0  0  0  0  0
   58.5590   29.7140   51.0640 C   0  0  0  0  0  0  0  0  0  0  0  0
   58.5740   30.6450   50.0230 C   0  0  0  0  0  0  0  0  0  0  0  0
   58.5430   32.0250   50.2960 C   0  0  0  0  0  0  0  0  0  0  0  0
   58.5880   32.9770   49.2160 N   0  0  0  0  0  0  0  0  0  0  0  0
   59.6810   33.8850   49.0010 C   0  0  0  0  0  0  0  0  0  0  0  0
   60.7340   33.7970   49.6880 O   0  0  0  0  0  0  0  0  0  0  0  0
   59.6100   34.8910   47.8910 C   0  0  0  0  0  0  0  0  0  0  0  0
   60.0450   34.2860   46.5470 C   0  0  0  0  0  0  0  0  0  0  0  0
   59.4640   32.8970   46.3140 C   0  0  0  0  0  0  0  0  0  0  0  0
   60.1870   31.7210   46.6990 C   0  0  0  0  0  0  0  0  0  0  0  0
   61.5040   31.7810   47.4180 C   0  0  0  0  0  0  0  0  0  0  0  0
   59.6790   30.4850   46.4300 N   0  0  0  0  0  0  0  0  0  0  0  0
   58.4960   30.3700   45.7900 C   0  0  0  0  0  0  0  0  0  0  0  0
   57.8190   29.2210   45.4370 C   0  0  0  0  0  0  0  0  0  0  0  0
   58.2080   27.8020   45.6300 C   0  0  0  0  0  0  0  0  0  0  0  0
   59.2320   27.4470   46.5270 C   0  0  0  0  0  0  0  0  0  0  0  0
   59.5900   26.1070   46.6980 C   0  0  0  0  0  0  0  0  0  0  0  0
   58.9340   25.1080   45.9760 C   0  0  0  0  0  0  0  0  0  0  0  0
   57.9220   25.4470   45.0750 C   0  0  0  0  0  0  0  0  0  0  0  0
   57.0280   24.0810   44.0850 Br  0  0  0  0  0  0  0  0  0  0  0  0
   57.5610   26.7880   44.9000 C   0  0  0  0  0  0  0  0  0  0  0  0
   56.6510   29.7090   44.8520 C   0  0  0  0  0  0  0  0  0  0  0  0
   56.6550   31.0620   44.8640 N   0  0  0  0  0  0  0  0  0  0  0  0
   57.7840   31.4430   45.4410 N   0  0  0  0  0  0  0  0  0  0  0  0
   58.1950   32.7180   45.6820 C   0  0  0  0  0  0  0  0  0  0  0  0
   57.3320   33.8710   45.2270 C   0  0  0  0  0  0  0  0  0  0  0  0
   58.5242   34.0498   53.0784 H   0  0  0  0  0  0  0  0  0  0  0  0
   59.4228   34.4029   51.5636 H   0  0  0  0  0  0  0  0  0  0  0  0
   57.6265   34.4054   51.5636 H   0  0  0  0  0  0  0  0  0  0  0  0
   58.5115   31.8507   53.7262 H   0  0  0  0  0  0  0  0  0  0  0  0
   58.5685   28.6376   50.8375 H   0  0  0  0  0  0  0  0  0  0  0  0
   58.6104   30.2963   48.9804 H   0  0  0  0  0  0  0  0  0  0  0  0
   57.8270   32.9590   48.5020 H   0  0  0  0  0  0  0  0  0  0  0  0
   58.5743   35.2506   47.8015 H   0  0  0  0  0  0  0  0  0  0  0  0
   60.2947   35.7173   48.1328 H   0  0  0  0  0  0  0  0  0  0  0  0
   59.7081   34.9492   45.7367 H   0  0  0  0  0  0  0  0  0  0  0  0
   61.1407   34.1901   46.5640 H   0  0  0  0  0  0  0  0  0  0  0  0
   61.3295   31.7731   48.5040 H   0  0  0  0  0  0  0  0  0  0  0  0
   62.1145   30.9097   47.1383 H   0  0  0  0  0  0  0  0  0  0  0  0
   62.0327   32.7042   47.1383 H   0  0  0  0  0  0  0  0  0  0  0  0
   59.7542   28.2292   47.0974 H   0  0  0  0  0  0  0  0  0  0  0  0
   60.3905   25.8386   47.4031 H   0  0  0  0  0  0  0  0  0  0  0  0
   59.2143   24.0537   46.1168 H   0  0  0  0  0  0  0  0  0  0  0  0
   56.7659   27.0510   44.1868 H   0  0  0  0  0  0  0  0  0  0  0  0
   55.8440   29.0849   44.4407 H   0  0  0  0  0  0  0  0  0  0  0  0
   56.9353   34.4010   46.1055 H   0  0  0  0  0  0  0  0  0  0  0  0
   57.9351   34.5640   44.6221 H   0  0  0  0  0  0  0  0  0  0  0  0
   56.4971   33.4877   44.6221 H   0  0  0  0  0  0  0  0  0  0  0  0
  1  2  1  0
  2  3  2  0
  3  4  1  0
  4  5  1  0
  4  6  2  0
  6  7  1  0
  7  8  2  0
  8  9  1  0
  9 10  1  0
 10 11  2  0
 10 12  1  0
 12 13  1  0
 13 14  1  0
 14 15  1  0
 15 16  1  0
 15 17  2  0
 17 18  1  0
 18 19  2  0
 19 20  1  0
 20 21  2  0
 21 22  1  0
 22 23  2  0
 23 24  1  0
 24 25  1  0
 24 26  2  0
 19 27  1  0
 27 28  2  0
 28 29  1  0
 29 30  1  0
 30 31  1  0
  8  2  1  0
 30 14  2  0
 29 18  1  0
 26 20  1  0
  1 32  1  0
  1 33  1  0
  1 34  1  0
  3 35  1  0
  6 36  1  0
  7 37  1  0
  9 38  1  0
 12 39  1  0
 12 40  1  0
 13 41  1  0
 13 42  1  0
 16 43  1  0
 16 44  1  0
 16 45  1  0
 21 46  1  0
 22 47  1  0
 23 48  1  0
 26 49  1  0
 27 50  1  0
 31 51  1  0
 31 52  1  0
 31 53  1  0
M  END
>  <UniqueID>  (45) 
42

>  <SMILES>  (45) 
Cc1cc(Cl)ccc1NC(=O)CCc1c(C)nc2c(-c3cccc(Br)c3)cnn2c1C

>  <Energy>  (45) 
99.93364554281543

>  <Genealogy>  (45) 
Cc1cc(Cl)ccc1NC(=O)CCc1c(C)nc2c(-c3cccc(Br)c3)cnn2c1C (3D coordinates assigned)
Cc1cc(Cl)ccc1NC(=O)CCc1c(C)nc2c(-c3cccc(Br)c3)cnn2c1C (optimized conformer: 99.93364554281543 kcal/mol)

>  <smiles>  (45) 
Cc1cc(Cl)ccc1NC(=O)CCc1c(C)nc2c(-c3cccc(Br)c3)cnn2c1C

>  <score_type>  (45) 
oracle

>  <origin>  (45) 
adg

>  <m_score__min__energy>  (45) 
-9.3800000000000008

>  <m_primary>  (45) 
energy

$$$$
45:0
     RDKit          3D

 30 30  0  0  0  0  0  0  0  0999 V2000
   58.5316   34.2773   43.3474 H   0  0  0  0  0  0  0  0  0  0  0  0
   58.1420   33.3350   43.7600 C   0  0  0  0  0  0  0  0  0  0  0  0
   57.8700   32.2560   42.9110 C   0  0  0  0  0  0  0  0  0  0  0  0
   58.0900   32.3740   41.4370 C   0  0  0  0  0  0  0  0  0  0  0  0
   59.0451   32.8863   41.2487 H   0  0  0  0  0  0  0  0  0  0  0  0
   58.1179   31.3698   40.9889 H   0  0  0  0  0  0  0  0  0  0  0  0
   57.2689   32.9528   40.9889 H   0  0  0  0  0  0  0  0  0  0  0  0
   57.3710   31.1030   43.4280 N   0  0  0  0  0  0  0  0  0  0  0  0
   57.1290   30.9460   44.7580 C   0  0  0  0  0  0  0  0  0  0  0  0
   56.6720   29.8240   45.2380 N   0  0  0  0  0  0  0  0  0  0  0  0
   57.0520   28.4820   44.8840 C   0  0  0  0  0  0  0  0  0  0  0  0
   56.6400   27.2760   45.9150 S   0  0  0  0  0  0  0  0  0  0  0  0
   57.5960   28.1520   43.5890 N   0  0  0  0  0  0  0  0  0  0  0  0
   57.6870   29.0120   43.0010 H   0  0  0  0  0  0  0  0  0  0  0  0
   56.9300   27.5140   43.0940 H   0  0  0  0  0  0  0  0  0  0  0  0
   58.8920   27.4730   43.7350 C   0  0  0  0  0  0  0  0  0  0  0  0
   59.3541   27.3620   42.7430 H   0  0  0  0  0  0  0  0  0  0  0  0
   58.7224   26.4872   44.1926 H   0  0  0  0  0  0  0  0  0  0  0  0
   59.8290   28.2740   44.6360 C   0  0  0  0  0  0  0  0  0  0  0  0
   59.5888   28.0687   45.6896 H   0  0  0  0  0  0  0  0  0  0  0  0
   60.8702   27.9825   44.4337 H   0  0  0  0  0  0  0  0  0  0  0  0
   59.7030   29.3479   44.4337 H   0  0  0  0  0  0  0  0  0  0  0  0
   57.4090   32.0000   45.6360 C   0  0  0  0  0  0  0  0  0  0  0  0
   57.2323   31.8813   46.7152 H   0  0  0  0  0  0  0  0  0  0  0  0
   57.9170   33.2110   45.1330 C   0  0  0  0  0  0  0  0  0  0  0  0
   58.2090   34.3060   45.9600 O   0  0  0  0  0  0  0  0  0  0  0  0
   59.5020   34.8870   46.0990 C   0  0  0  0  0  0  0  0  0  0  0  0
   59.7425   34.9951   47.1669 H   0  0  0  0  0  0  0  0  0  0  0  0
   60.2491   34.2381   45.6187 H   0  0  0  0  0  0  0  0  0  0  0  0
   59.5129   35.8765   45.6187 H   0  0  0  0  0  0  0  0  0  0  0  0
  1  2  1  0
  2  3  2  0
  3  4  1  0
  4  5  1  0
  4  6  1  0
  4  7  1  0
  3  8  1  0
  8  9  1  0
  9 10  2  0
 10 11  1  0
 11 12  2  0
 11 13  1  0
 13 14  1  0
 13 15  1  0
 13 16  1  0
 16 17  1  0
 16 18  1  0
 16 19  1  0
 19 20  1  0
 19 21  1  0
 19 22  1  0
  9 23  1  0
 23 24  1  0
 23 25  2  0
 25 26  1  0
 26 27  1  0
 27 28  1  0
 27 29  1  0
 27 30  1  0
 25  2  1  0
M  CHG  2   8  -1  13   1
M  END
>  <UniqueID>  (46) 
43

>  <SMILES>  (46) 
CC[NH2+]C(=S)/N=c1/cc(OC)cc(C)[n-]1

>  <Energy>  (46) 
28.042137457892807

>  <Genealogy>  (46) 
CC[NH2+]C(=S)N=c1cc(OC)cc(C)[n-]1 (protonated)
CC[NH2+]C(=S)/N=c1/cc(OC)cc(C)[n-]1 (cis-trans isomerization)
CC[NH2+]C(=S)/N=c1/cc(OC)cc(C)[n-]1 (3D coordinates assigned)
CC[NH2+]C(=S)/N=c1/cc(OC)cc(C)[n-]1 (optimized conformer: 28.042137457892807 kcal/mol)

>  <smiles>  (46) 
CCNC(=S)N=c1cc(OC)cc(C)[nH]1

>  <score_type>  (46) 
oracle

>  <origin>  (46) 
adg

>  <m_score__min__energy>  (46) 
-5.5999999999999996

>  <m_primary>  (46) 
energy

$$$$
46:0
     RDKit          3D

 39 41  0  0  0  0  0  0  0  0999 V2000
   56.6530   30.9220   42.8020 O   0  0  0  0  0  0  0  0  0  0  0  0
   56.7260   30.8110   44.0550 C   0  0  0  0  0  0  0  0  0  0  0  0
   56.8690   31.9760   44.8810 N   0  0  0  0  0  0  0  0  0  0  0  0
   58.1290   32.6810   45.1320 C   0  0  1  0  0  0  0  0  0  0  0  0
   57.9850   34.1650   44.7500 C   0  0  0  0  0  0  0  0  0  0  0  0
   59.1850   34.9710   45.2430 C   0  0  0  0  0  0  0  0  0  0  0  0
   59.2500   34.9330   46.7710 C   0  0  0  0  0  0  0  0  0  0  0  0
   59.1890   33.5240   47.3090 C   0  0  0  0  0  0  0  0  0  0  0  0
   59.6520   33.2760   48.6110 C   0  0  0  0  0  0  0  0  0  0  0  0
   59.5880   31.9910   49.1540 C   0  0  0  0  0  0  0  0  0  0  0  0
   59.0610   30.9410   48.4040 C   0  0  0  0  0  0  0  0  0  0  0  0
   58.5820   31.1740   47.1120 C   0  0  0  0  0  0  0  0  0  0  0  0
   58.6090   32.4680   46.5600 C   0  0  0  0  0  0  0  0  0  0  0  0
   56.6500   29.4820   44.6820 C   0  0  0  0  0  0  0  0  0  0  0  0
   55.5200   28.9600   44.8790 O   0  0  0  0  0  0  0  0  0  0  0  0
   57.8470   28.8050   45.1000 N   0  0  0  0  0  0  0  0  0  0  0  0
   57.8930   27.4180   45.4810 C   0  0  0  0  0  0  0  0  0  0  0  0
   57.7540   26.4280   44.4950 C   0  0  0  0  0  0  0  0  0  0  0  0
   57.7740   25.0740   44.8430 C   0  0  0  0  0  0  0  0  0  0  0  0
   57.9170   24.6970   46.1810 C   0  0  0  0  0  0  0  0  0  0  0  0
   57.9330   23.3840   46.5180 F   0  0  0  0  0  0  0  0  0  0  0  0
   58.0330   25.6740   47.1730 C   0  0  0  0  0  0  0  0  0  0  0  0
   58.0150   27.0290   46.8290 C   0  0  0  0  0  0  0  0  0  0  0  0
   58.9164   32.2574   44.4912 H   0  0  0  0  0  0  0  0  0  0  0  0
   57.9181   34.2507   43.6554 H   0  0  0  0  0  0  0  0  0  0  0  0
   57.0748   34.5637   45.2217 H   0  0  0  0  0  0  0  0  0  0  0  0
   60.1082   34.5399   44.8285 H   0  0  0  0  0  0  0  0  0  0  0  0
   59.0788   36.0148   44.9124 H   0  0  0  0  0  0  0  0  0  0  0  0
   60.1928   35.3963   47.0972 H   0  0  0  0  0  0  0  0  0  0  0  0
   58.3793   35.4812   47.1600 H   0  0  0  0  0  0  0  0  0  0  0  0
   60.0685   34.1005   49.2082 H   0  0  0  0  0  0  0  0  0  0  0  0
   59.9540   31.8072   50.1749 H   0  0  0  0  0  0  0  0  0  0  0  0
   59.0221   29.9275   48.8297 H   0  0  0  0  0  0  0  0  0  0  0  0
   58.1800   30.3379   46.5210 H   0  0  0  0  0  0  0  0  0  0  0  0
   58.7170   29.3700   45.2190 H   0  0  0  0  0  0  0  0  0  0  0  0
   57.6285   26.7196   43.4418 H   0  0  0  0  0  0  0  0  0  0  0  0
   57.6771   24.3047   44.0628 H   0  0  0  0  0  0  0  0  0  0  0  0
   58.1387   25.3765   48.2267 H   0  0  0  0  0  0  0  0  0  0  0  0
   58.0965   27.7946   47.6147 H   0  0  0  0  0  0  0  0  0  0  0  0
  1  2  2  0
  2  3  1  0
  3  4  1  0
  4  5  1  0
  5  6  1  0
  6  7  1  0
  7  8  1  0
  8  9  2  0
  9 10  1  0
 10 11  2  0
 11 12  1  0
 12 13  2  0
  2 14  1  0
 14 15  2  0
 14 16  1  0
 16 17  1  0
 17 18  2  0
 18 19  1  0
 19 20  2  0
 20 21  1  0
 20 22  1  0
 22 23  2  0
 13  4  1  0
 23 17  1  0
 13  8  1  0
  4 24  1  6
  5 25  1  0
  5 26  1  0
  6 27  1  0
  6 28  1  0
  7 29  1  0
  7 30  1  0
  9 31  1  0
 10 32  1  0
 11 33  1  0
 12 34  1  0
 16 35  1  0
 18 36  1  0
 19 37  1  0
 22 38  1  0
 23 39  1  0
M  CHG  1   3  -1
M  END
>  <UniqueID>  (47) 
44

>  <SMILES>  (47) 
O=C([N-][C@H]1CCCc2ccccc21)C(=O)Nc1ccc(F)cc1

>  <Energy>  (47) 
42.674081451065774

>  <Genealogy>  (47) 
O=C([N-]C1CCCc2ccccc21)C(=O)Nc1ccc(F)cc1 (protonated)
O=C([N-][C@H]1CCCc2ccccc21)C(=O)Nc1ccc(F)cc1 (chirality)
O=C([N-][C@H]1CCCc2ccccc21)C(=O)Nc1ccc(F)cc1 (3D coordinates assigned)
O=C([N-][C@H]1CCCc2ccccc21)C(=O)Nc1ccc(F)cc1 (nonaromatic ring conformer: 42.674081451065774 kcal/mol)

>  <smiles>  (47) 
O=C(Nc1ccc(F)cc1)C(=O)NC1CCCc2ccccc21

>  <score_type>  (47) 
oracle

>  <origin>  (47) 
adg

>  <m_score__min__energy>  (47) 
-9.1999999999999993

>  <m_primary>  (47) 
energy

$$$$
47:0
     RDKit          3D

 22 23  0  0  0  0  0  0  0  0999 V2000
   63.9320   33.2710   48.1970 C   0  0  0  0  0  0  0  0  0  0  0  0
   62.8050   34.0140   47.7450 O   0  0  0  0  0  0  0  0  0  0  0  0
   61.6510   33.4440   47.1880 C   0  0  0  0  0  0  0  0  0  0  0  0
   61.4760   32.0610   47.2890 C   0  0  0  0  0  0  0  0  0  0  0  0
   60.3430   31.4450   46.7500 C   0  0  0  0  0  0  0  0  0  0  0  0
   59.3570   32.2080   46.0960 C   0  0  0  0  0  0  0  0  0  0  0  0
   58.1880   31.5740   45.5390 N   0  0  0  0  0  0  0  0  0  0  0  0
   57.8490   30.2700   45.5730 C   0  0  0  0  0  0  0  0  0  0  0  0
   56.6790   30.0560   44.9410 N   0  0  0  0  0  0  0  0  0  0  0  0
   56.2550   31.2290   44.4980 N   0  0  0  0  0  0  0  0  0  0  0  0
   57.1720   32.1450   44.8600 C   0  0  0  0  0  0  0  0  0  0  0  0
   59.5360   33.5990   45.9960 C   0  0  0  0  0  0  0  0  0  0  0  0
   60.6700   34.2130   46.5350 C   0  0  0  0  0  0  0  0  0  0  0  0
   63.9474   33.2609   49.2968 H   0  0  0  0  0  0  0  0  0  0  0  0
   63.8654   32.2391   47.8217 H   0  0  0  0  0  0  0  0  0  0  0  0
   64.8541   33.7388   47.8217 H   0  0  0  0  0  0  0  0  0  0  0  0
   62.2374   31.4514   47.7976 H   0  0  0  0  0  0  0  0  0  0  0  0
   60.2207   30.3553   46.8375 H   0  0  0  0  0  0  0  0  0  0  0  0
   58.4492   29.4836   46.0539 H   0  0  0  0  0  0  0  0  0  0  0  0
   57.1021   33.2188   44.6320 H   0  0  0  0  0  0  0  0  0  0  0  0
   58.7755   34.2104   45.4882 H   0  0  0  0  0  0  0  0  0  0  0  0
   60.7962   35.3023   46.4484 H   0  0  0  0  0  0  0  0  0  0  0  0
  1  2  1  0
  2  3  1  0
  3  4  2  0
  4  5  1  0
  5  6  2  0
  6  7  1  0
  7  8  1  0
  8  9  2  0
  9 10  1  0
 10 11  2  0
  6 12  1  0
 12 13  2  0
 13  3  1  0
 11  7  1  0
  1 14  1  0
  1 15  1  0
  1 16  1  0
  4 17  1  0
  5 18  1  0
  8 19  1  0
 11 20  1  0
 12 21  1  0
 13 22  1  0
M  END
>  <UniqueID>  (48) 
45

>  <SMILES>  (48) 
COc1ccc(-n2cnnc2)cc1

>  <Energy>  (48) 
59.28199713652118

>  <Genealogy>  (48) 
COc1ccc(-n2cnnc2)cc1 (3D coordinates assigned)
COc1ccc(-n2cnnc2)cc1 (optimized conformer: 59.28199713652118 kcal/mol)

>  <smiles>  (48) 
COc1ccc(-n2cnnc2)cc1

>  <score_type>  (48) 
oracle

>  <origin>  (48) 
adg

>  <m_score__min__energy>  (48) 
-4.6699999999999999

>  <m_primary>  (48) 
energy

$$$$
48:0
     RDKit          3D

 32 33  0  0  0  0  0  0  0  0999 V2000
   58.5760   28.0540   44.1920 C   0  0  0  0  0  0  0  0  0  0  0  0
   57.8250   29.3430   44.2240 C   0  0  0  0  0  0  0  0  0  0  0  0
   56.4690   29.5130   44.4280 C   0  0  0  0  0  0  0  0  0  0  0  0
   56.1960   30.8320   44.4980 N   0  0  0  0  0  0  0  0  0  0  0  0
   57.3370   31.4860   44.3420 N   0  0  0  0  0  0  0  0  0  0  0  0
   57.4600   32.9360   44.4300 C   0  0  0  0  0  0  0  0  0  0  0  0
   57.9840   33.3190   45.7790 C   0  0  0  0  0  0  0  0  0  0  0  0
   57.8010   32.5470   46.7580 O   0  0  0  0  0  0  0  0  0  0  0  0
   58.7310   34.5320   45.9420 N   0  0  0  0  0  0  0  0  0  0  0  0
   59.2700   34.9580   47.2300 C   0  0  0  0  0  0  0  0  0  0  0  0
   60.5510   34.2170   47.5360 C   0  0  0  0  0  0  0  0  0  0  0  0
   61.5110   34.0900   46.5160 C   0  0  0  0  0  0  0  0  0  0  0  0
   62.7160   33.4260   46.7520 C   0  0  0  0  0  0  0  0  0  0  0  0
   62.9790   32.8800   48.0080 C   0  0  0  0  0  0  0  0  0  0  0  0
   64.1500   32.2360   48.2370 F   0  0  0  0  0  0  0  0  0  0  0  0
   62.0350   32.9960   49.0320 C   0  0  0  0  0  0  0  0  0  0  0  0
   60.8230   33.6600   48.8080 C   0  0  0  0  0  0  0  0  0  0  0  0
   59.6810   33.7600   50.1450 Cl  0  0  0  0  0  0  0  0  0  0  0  0
   58.3540   30.6150   44.1930 C   0  0  0  0  0  0  0  0  0  0  0  0
   58.7717   27.7180   45.2210 H   0  0  0  0  0  0  0  0  0  0  0  0
   57.9789   27.2947   43.6657 H   0  0  0  0  0  0  0  0  0  0  0  0
   59.5310   28.1990   43.6657 H   0  0  0  0  0  0  0  0  0  0  0  0
   55.7307   28.7027   44.5188 H   0  0  0  0  0  0  0  0  0  0  0  0
   58.1540   33.2915   43.6541 H   0  0  0  0  0  0  0  0  0  0  0  0
   56.4712   33.3943   44.2807 H   0  0  0  0  0  0  0  0  0  0  0  0
   58.9090   35.1330   45.1040 H   0  0  0  0  0  0  0  0  0  0  0  0
   59.4750   36.0382   47.1977 H   0  0  0  0  0  0  0  0  0  0  0  0
   58.5331   34.7365   48.0161 H   0  0  0  0  0  0  0  0  0  0  0  0
   61.3104   34.5180   45.5228 H   0  0  0  0  0  0  0  0  0  0  0  0
   63.4591   33.3333   45.9462 H   0  0  0  0  0  0  0  0  0  0  0  0
   62.2457   32.5626   50.0208 H   0  0  0  0  0  0  0  0  0  0  0  0
   59.4161   30.8730   44.0689 H   0  0  0  0  0  0  0  0  0  0  0  0
  1  2  1  0
  2  3  1  0
  3  4  2  0
  4  5  1  0
  5  6  1  0
  6  7  1  0
  7  8  2  0
  7  9  1  0
  9 10  1  0
 10 11  1  0
 11 12  2  0
 12 13  1  0
 13 14  2  0
 14 15  1  0
 14 16  1  0
 16 17  2  0
 17 18  1  0
  5 19  1  0
 19  2  2  0
 17 11  1  0
  1 20  1  0
  1 21  1  0
  1 22  1  0
  3 23  1  0
  6 24  1  0
  6 25  1  0
  9 26  1  0
 10 27  1  0
 10 28  1  0
 12 29  1  0
 13 30  1  0
 16 31  1  0
 19 32  1  0
M  END
>  <UniqueID>  (49) 
46

>  <SMILES>  (49) 
Cc1cnn(CC(=O)NCc2ccc(F)cc2Cl)c1

>  <Energy>  (49) 
57.5517634842409

>  <Genealogy>  (49) 
Cc1cnn(CC(=O)NCc2ccc(F)cc2Cl)c1 (3D coordinates assigned)
Cc1cnn(CC(=O)NCc2ccc(F)cc2Cl)c1 (optimized conformer: 57.5517634842409 kcal/mol)

>  <smiles>  (49) 
Cc1cnn(CC(=O)NCc2ccc(F)cc2Cl)c1

>  <score_type>  (49) 
oracle

>  <origin>  (49) 
adg

>  <m_score__min__energy>  (49) 
-6.9299999999999997

>  <m_primary>  (49) 
energy

$$$$
49:0
     RDKit          3D

 38 39  0  0  0  0  0  0  0  0999 V2000
   58.1450   27.1780   43.3610 C   0  0  0  0  0  0  0  0  0  0  0  0
   57.6710   27.7530   44.5740 O   0  0  0  0  0  0  0  0  0  0  0  0
   58.1980   28.9030   45.1840 C   0  0  0  0  0  0  0  0  0  0  0  0
   59.4570   28.8550   45.8280 C   0  0  0  0  0  0  0  0  0  0  0  0
   59.9650   30.0010   46.4260 C   0  0  0  0  0  0  0  0  0  0  0  0
   61.1900   30.0990   47.0970 C   0  0  0  0  0  0  0  0  0  0  0  0
   61.4310   31.3820   47.5930 C   0  0  0  0  0  0  0  0  0  0  0  0
   62.6290   31.7890   48.3560 C   0  0  0  0  0  0  0  0  0  0  0  0
   62.6740   31.5410   49.5930 O   0  0  0  0  0  0  0  0  0  0  0  0
   63.7090   32.5200   47.7250 N   0  0  0  0  0  0  0  0  0  0  0  0
   63.1590   33.4580   46.7350 C   0  0  0  0  0  0  0  0  0  0  0  0
   64.5160   33.2370   48.7260 C   0  0  0  0  0  0  0  0  0  0  0  0
   60.1170   32.3750   47.1990 S   0  0  0  0  0  0  0  0  0  0  0  0
   59.2500   31.1810   46.3950 C   0  0  0  0  0  0  0  0  0  0  0  0
   58.0060   31.2920   45.7780 C   0  0  0  0  0  0  0  0  0  0  0  0
   57.3770   32.5500   45.8160 O   0  0  0  0  0  0  0  0  0  0  0  0
   57.6330   33.6540   44.9560 C   0  0  0  0  0  0  0  0  0  0  0  0
   57.4590   30.1310   45.1550 C   0  0  0  0  0  0  0  0  0  0  0  0
   56.2020   30.2430   44.5310 O   0  0  0  0  0  0  0  0  0  0  0  0
   55.8560   29.8360   43.2120 C   0  0  0  0  0  0  0  0  0  0  0  0
   58.8292   26.3481   43.5914 H   0  0  0  0  0  0  0  0  0  0  0  0
   57.2930   26.7995   42.7771 H   0  0  0  0  0  0  0  0  0  0  0  0
   58.6791   27.9421   42.7771 H   0  0  0  0  0  0  0  0  0  0  0  0
   60.0297   27.9162   45.8549 H   0  0  0  0  0  0  0  0  0  0  0  0
   61.8869   29.2568   47.2201 H   0  0  0  0  0  0  0  0  0  0  0  0
   64.3500   31.8580   47.2310 H   0  0  0  0  0  0  0  0  0  0  0  0
   62.6687   34.2942   47.2550 H   0  0  0  0  0  0  0  0  0  0  0  0
   63.9732   33.8450   46.1047 H   0  0  0  0  0  0  0  0  0  0  0  0
   62.4237   32.9364   46.1047 H   0  0  0  0  0  0  0  0  0  0  0  0
   64.1898   32.9472   49.7358 H   0  0  0  0  0  0  0  0  0  0  0  0
   65.5771   32.9783   48.5951 H   0  0  0  0  0  0  0  0  0  0  0  0
   64.3840   34.3212   48.5951 H   0  0  0  0  0  0  0  0  0  0  0  0
   57.8406   34.5493   45.5605 H   0  0  0  0  0  0  0  0  0  0  0  0
   58.5031   33.4303   44.3213 H   0  0  0  0  0  0  0  0  0  0  0  0
   56.7532   33.8361   44.3213 H   0  0  0  0  0  0  0  0  0  0  0  0
   55.1442   28.9988   43.2615 H   0  0  0  0  0  0  0  0  0  0  0  0
   55.3939   30.6790   42.6775 H   0  0  0  0  0  0  0  0  0  0  0  0
   56.7624   29.5156   42.6775 H   0  0  0  0  0  0  0  0  0  0  0  0
  1  2  1  0
  2  3  1  0
  3  4  2  0
  4  5  1  0
  5  6  1  0
  6  7  2  0
  7  8  1  0
  8  9  2  0
  8 10  1  0
 10 11  1  0
 10 12  1  0
  7 13  1  0
 13 14  1  0
 14 15  1  0
 15 16  1  0
 16 17  1  0
 15 18  2  0
 18 19  1  0
 19 20  1  0
 18  3  1  0
 14  5  2  0
  1 21  1  0
  1 22  1  0
  1 23  1  0
  4 24  1  0
  6 25  1  0
 10 26  1  0
 11 27  1  0
 11 28  1  0
 11 29  1  0
 12 30  1  0
 12 31  1  0
 12 32  1  0
 17 33  1  0
 17 34  1  0
 17 35  1  0
 20 36  1  0
 20 37  1  0
 20 38  1  0
M  CHG  1  10   1
M  END
>  <UniqueID>  (50) 
47

>  <SMILES>  (50) 
COc1cc2cc(C(=O)[NH+](C)C)sc2c(OC)c1OC

>  <Energy>  (50) 
73.52910017348655

>  <Genealogy>  (50) 
COc1cc2cc(C(=O)[NH+](C)C)sc2c(OC)c1OC (protonated)
COc1cc2cc(C(=O)[NH+](C)C)sc2c(OC)c1OC (3D coordinates assigned)
COc1cc2cc(C(=O)[NH+](C)C)sc2c(OC)c1OC (optimized conformer: 73.52910017348655 kcal/mol)

>  <smiles>  (50) 
COc1cc2cc(C(=O)N(C)C)sc2c(OC)c1OC

>  <score_type>  (50) 
oracle

>  <origin>  (50) 
adg

>  <m_score__min__energy>  (50) 
-4.5700000000000003

>  <m_primary>  (50) 
energy

$$$$
