0:0
     RDKit          3D

 37 40  0  0  0  0  0  0  0  0999 V2000
   55.2460   29.7090   43.8610 C   0  0  0  0  0  0  0  0  0  0  0  0
   56.4320   30.6120   43.7920 C   0  0  0  0  0  0  0  0  0  0  0  0
   57.0380   31.0660   42.6350 C   0  0  0  0  0  0  0  0  0  0  0  0
   58.0180   31.9270   43.0790 C   0  0  0  0  0  0  0  0  0  0  0  0
   57.9800   31.9600   44.4240 N   0  0  0  0  0  0  0  0  0  0  0  0
   58.7680   32.8150   45.2610 C   0  0  0  0  0  0  0  0  0  0  0  0
   58.5520   34.1670   45.2530 N   0  0  0  0  0  0  0  0  0  0  0  0
   59.2500   35.0120   46.0760 C   0  0  0  0  0  0  0  0  0  0  0  0
   60.1920   34.5230   46.9330 N   0  0  0  0  0  0  0  0  0  0  0  0
   60.4080   33.1880   46.9550 C   0  0  0  0  0  0  0  0  0  0  0  0
   61.3470   32.4440   47.6420 C   0  0  0  0  0  0  0  0  0  0  0  0
   62.3360   32.9120   48.6440 C   0  0  0  0  0  0  0  0  0  0  0  0
   63.6820   32.5010   48.5720 C   0  0  0  0  0  0  0  0  0  0  0  0
   64.6120   32.9510   49.5130 C   0  0  0  0  0  0  0  0  0  0  0  0
   64.2150   33.8160   50.5330 C   0  0  0  0  0  0  0  0  0  0  0  0
   62.8870   34.2390   50.6120 C   0  0  0  0  0  0  0  0  0  0  0  0
   61.9490   33.7950   49.6740 C   0  0  0  0  0  0  0  0  0  0  0  0
   60.6620   34.2120   49.7880 F   0  0  0  0  0  0  0  0  0  0  0  0
   61.2460   31.1620   47.2120 N   0  0  0  0  0  0  0  0  0  0  0  0
   60.2840   31.0920   46.2960 N   0  0  0  0  0  0  0  0  0  0  0  0
   59.9630   29.8590   45.5850 C   0  0  0  0  0  0  0  0  0  0  0  0
   59.7480   32.3240   46.1380 C   0  0  0  0  0  0  0  0  0  0  0  0
   57.0000   31.1880   44.8680 N   0  0  0  0  0  0  0  0  0  0  0  0
   54.9927   29.5162   44.9139 H   0  0  0  0  0  0  0  0  0  0  0  0
   54.3914   30.1872   43.3600 H   0  0  0  0  0  0  0  0  0  0  0  0
   55.4796   28.7580   43.3600 H   0  0  0  0  0  0  0  0  0  0  0  0
   56.7933   30.8002   41.5960 H   0  0  0  0  0  0  0  0  0  0  0  0
   58.7140   32.4921   42.4416 H   0  0  0  0  0  0  0  0  0  0  0  0
   57.8260   34.5710   44.6190 H   0  0  0  0  0  0  0  0  0  0  0  0
   59.0490   36.0930   46.0452 H   0  0  0  0  0  0  0  0  0  0  0  0
   64.0030   31.8210   47.7692 H   0  0  0  0  0  0  0  0  0  0  0  0
   65.6598   32.6223   49.4493 H   0  0  0  0  0  0  0  0  0  0  0  0
   64.9484   34.1647   51.2750 H   0  0  0  0  0  0  0  0  0  0  0  0
   62.5770   34.9240   51.4149 H   0  0  0  0  0  0  0  0  0  0  0  0
   59.7550   29.0601   46.3119 H   0  0  0  0  0  0  0  0  0  0  0  0
   59.0768   30.0200   44.9535 H   0  0  0  0  0  0  0  0  0  0  0  0
   60.8152   29.5674   44.9535 H   0  0  0  0  0  0  0  0  0  0  0  0
  1  2  1  0
  2  3  1  0
  3  4  2  0
  4  5  1  0
  5  6  1  0
  6  7  2  0
  7  8  1  0
  8  9  2  0
  9 10  1  0
 10 11  1  0
 11 12  1  0
 12 13  2  0
 13 14  1  0
 14 15  2  0
 15 16  1  0
 16 17  2  0
 17 18  1  0
 11 19  2  0
 19 20  1  0
 20 21  1  0
 20 22  1  0
  5 23  1  0
 23  2  2  0
 22  6  1  0
 22 10  2  0
 17 12  1  0
  1 24  1  0
  1 25  1  0
  1 26  1  0
  3 27  1  0
  4 28  1  0
  7 29  1  0
  8 30  1  0
 13 31  1  0
 14 32  1  0
 15 33  1  0
 16 34  1  0
 21 35  1  0
 21 36  1  0
 21 37  1  0
M  CHG  1   7   1
M  END
>  <UniqueID>  (1) 
1

>  <SMILES>  (1) 
Cc1ccn(-c2[nH+]cnc3c(-c4ccccc4F)nn(C)c23)n1

>  <Energy>  (1) 
122.1434790011755

>  <Genealogy>  (1) 
Cc1ccn(-c2[nH+]cnc3c(-c4ccccc4F)nn(C)c23)n1 (protonated)
Cc1ccn(-c2[nH+]cnc3c(-c4ccccc4F)nn(C)c23)n1 (3D coordinates assigned)
Cc1ccn(-c2[nH+]cnc3c(-c4ccccc4F)nn(C)c23)n1 (optimized conformer: 122.1434790011755 kcal/mol)

>  <smiles>  (1) 
Cc1ccn(-c2ncnc3c(-c4ccccc4F)nn(C)c23)n1

>  <score_type>  (1) 
oracle

>  <origin>  (1) 
adg

>  <m_score__min__energy>  (1) 
-5.9299999999999997

>  <m_primary>  (1) 
energy

$$$$
1:0
     RDKit          3D

 49 50  0  0  0  0  0  0  0  0999 V2000
   57.4730   34.2590   44.8920 C   0  0  0  0  0  0  0  0  0  0  0  0
   57.8120   32.9950   45.6770 C   0  0  0  0  0  0  0  0  0  0  0  0
   56.9230   31.9270   45.3370 O   0  0  0  0  0  0  0  0  0  0  0  0
   56.9870   31.2100   44.1310 C   0  0  0  0  0  0  0  0  0  0  0  0
   57.4050   31.7620   43.0730 O   0  0  0  0  0  0  0  0  0  0  0  0
   56.5710   29.7950   44.1140 C   0  0  0  0  0  0  0  0  0  0  0  0
   55.5130   29.4560   44.7160 O   0  0  0  0  0  0  0  0  0  0  0  0
   57.4030   28.7370   43.4430 C   0  0  0  0  0  0  0  0  0  0  0  0
   58.6360   28.4600   44.2620 C   0  0  0  0  0  0  0  0  0  0  0  0
   59.5560   27.7720   43.7400 O   0  0  0  0  0  0  0  0  0  0  0  0
   58.7740   28.9540   45.6570 C   0  0  0  0  0  0  0  0  0  0  0  0
   59.2920   30.1940   46.0070 C   0  0  0  0  0  0  0  0  0  0  0  0
   59.2480   30.2640   47.3860 C   0  0  0  0  0  0  0  0  0  0  0  0
   59.7710   31.3730   48.2160 C   0  0  0  0  0  0  0  0  0  0  0  0
   58.9050   31.9790   49.1450 C   0  0  0  0  0  0  0  0  0  0  0  0
   59.3370   33.0460   49.9340 C   0  0  0  0  0  0  0  0  0  0  0  0
   60.6410   33.5220   49.8100 C   0  0  0  0  0  0  0  0  0  0  0  0
   61.5200   32.9250   48.9040 C   0  0  0  0  0  0  0  0  0  0  0  0
   61.1070   31.8380   48.1110 C   0  0  0  0  0  0  0  0  0  0  0  0
   62.1040   31.2060   47.1730 C   0  0  0  0  0  0  0  0  0  0  0  0
   58.7230   29.0660   47.8330 C   0  0  0  0  0  0  0  0  0  0  0  0
   58.4440   28.2660   46.7830 N   0  0  0  0  0  0  0  0  0  0  0  0
   57.8190   26.9430   46.9070 C   0  0  0  0  0  0  0  0  0  0  0  0
   56.7350   26.7460   45.8480 C   0  0  0  0  0  0  0  0  0  0  0  0
   55.6540   26.0200   46.3940 O   0  0  0  0  0  0  0  0  0  0  0  0
   55.5520   24.7760   45.7360 C   0  0  0  0  0  0  0  0  0  0  0  0
   57.2534   35.0780   45.5927 H   0  0  0  0  0  0  0  0  0  0  0  0
   58.3281   34.5377   44.2587 H   0  0  0  0  0  0  0  0  0  0  0  0
   56.5932   34.0724   44.2587 H   0  0  0  0  0  0  0  0  0  0  0  0
   58.8436   32.6925   45.4439 H   0  0  0  0  0  0  0  0  0  0  0  0
   57.7071   33.2103   46.7506 H   0  0  0  0  0  0  0  0  0  0  0  0
   56.8125   27.8137   43.3487 H   0  0  0  0  0  0  0  0  0  0  0  0
   57.7023   29.0899   42.4451 H   0  0  0  0  0  0  0  0  0  0  0  0
   59.6644   30.9687   45.3206 H   0  0  0  0  0  0  0  0  0  0  0  0
   57.8751   31.6072   49.2506 H   0  0  0  0  0  0  0  0  0  0  0  0
   58.6480   33.5115   50.6541 H   0  0  0  0  0  0  0  0  0  0  0  0
   60.9780   34.3686   50.4263 H   0  0  0  0  0  0  0  0  0  0  0  0
   62.5466   33.3085   48.8090 H   0  0  0  0  0  0  0  0  0  0  0  0
   62.8914   30.7069   47.7569 H   0  0  0  0  0  0  0  0  0  0  0  0
   61.5931   30.4664   46.5389 H   0  0  0  0  0  0  0  0  0  0  0  0
   62.5549   31.9836   46.5389 H   0  0  0  0  0  0  0  0  0  0  0  0
   58.5572   28.8037   48.8883 H   0  0  0  0  0  0  0  0  0  0  0  0
   58.5896   26.1682   46.7809 H   0  0  0  0  0  0  0  0  0  0  0  0
   57.3544   26.8675   47.9012 H   0  0  0  0  0  0  0  0  0  0  0  0
   56.3780   27.7282   45.5048 H   0  0  0  0  0  0  0  0  0  0  0  0
   57.1555   26.1853   45.0002 H   0  0  0  0  0  0  0  0  0  0  0  0
   55.4860   23.9707   46.4824 H   0  0  0  0  0  0  0  0  0  0  0  0
   54.6501   24.7671   45.1063 H   0  0  0  0  0  0  0  0  0  0  0  0
   56.4404   24.6203   45.1063 H   0  0  0  0  0  0  0  0  0  0  0  0
  1  2  1  0
  2  3  1  0
  3  4  1  0
  4  5  2  0
  4  6  1  0
  6  7  2  0
  6  8  1  0
  8  9  1  0
  9 10  2  0
  9 11  1  0
 11 12  2  0
 12 13  1  0
 13 14  1  0
 14 15  2  0
 15 16  1  0
 16 17  2  0
 17 18  1  0
 18 19  2  0
 19 20  1  0
 13 21  2  0
 21 22  1  0
 22 23  1  0
 23 24  1  0
 24 25  1  0
 25 26  1  0
 22 11  1  0
 19 14  1  0
  1 27  1  0
  1 28  1  0
  1 29  1  0
  2 30  1  0
  2 31  1  0
  8 32  1  0
  8 33  1  0
 12 34  1  0
 15 35  1  0
 16 36  1  0
 17 37  1  0
 18 38  1  0
 20 39  1  0
 20 40  1  0
 20 41  1  0
 21 42  1  0
 23 43  1  0
 23 44  1  0
 24 45  1  0
 24 46  1  0
 26 47  1  0
 26 48  1  0
 26 49  1  0
M  END
>  <UniqueID>  (2) 
2

>  <SMILES>  (2) 
CCOC(=O)C(=O)CC(=O)c1cc(-c2ccccc2C)cn1CCOC

>  <Energy>  (2) 
72.8789106991526

>  <Genealogy>  (2) 
CCOC(=O)C(=O)CC(=O)c1cc(-c2ccccc2C)cn1CCOC (3D coordinates assigned)
CCOC(=O)C(=O)CC(=O)c1cc(-c2ccccc2C)cn1CCOC (optimized conformer: 72.8789106991526 kcal/mol)

>  <smiles>  (2) 
CCOC(=O)C(=O)CC(=O)c1cc(-c2ccccc2C)cn1CCOC

>  <score_type>  (2) 
oracle

>  <origin>  (2) 
adg

>  <m_score__min__energy>  (2) 
-7.4100000000000001

>  <m_primary>  (2) 
energy

$$$$
2:0
     RDKit          3D

 34 35  0  0  0  0  0  0  0  0999 V2000
   57.1910   27.3420   45.3310 C   0  0  0  0  0  0  0  0  0  0  0  0
   57.8780   28.0660   44.1660 C   0  0  0  0  0  0  0  0  0  0  0  0
   58.1320   27.0830   43.0160 C   0  0  0  0  0  0  0  0  0  0  0  0
   57.0360   29.2790   43.7230 C   0  0  0  0  0  0  0  0  0  0  0  0
   56.7140   30.1230   44.8320 O   0  0  0  0  0  0  0  0  0  0  0  0
   57.3980   31.2800   45.2630 C   0  0  0  0  0  0  0  0  0  0  0  0
   57.1570   32.5290   44.6650 C   0  0  0  0  0  0  0  0  0  0  0  0
   57.8350   33.6600   45.0960 C   0  0  0  0  0  0  0  0  0  0  0  0
   57.6020   34.7670   44.5380 O   0  0  0  0  0  0  0  0  0  0  0  0
   58.7650   33.5590   46.1390 C   0  0  0  0  0  0  0  0  0  0  0  0
   59.4660   34.6950   46.5920 C   0  0  0  0  0  0  0  0  0  0  0  0
   60.3880   34.5880   47.6290 C   0  0  0  0  0  0  0  0  0  0  0  0
   60.6240   33.3550   48.2290 C   0  0  0  0  0  0  0  0  0  0  0  0
   59.9410   32.2180   47.7940 C   0  0  0  0  0  0  0  0  0  0  0  0
   58.9960   32.2930   46.7390 C   0  0  0  0  0  0  0  0  0  0  0  0
   58.3080   31.1790   46.2930 N   0  0  0  0  0  0  0  0  0  0  0  0
   58.5500   29.8610   46.9140 C   0  0  0  0  0  0  0  0  0  0  0  0
   57.5689   27.7403   46.2842 H   0  0  0  0  0  0  0  0  0  0  0  0
   56.1042   27.5015   45.2721 H   0  0  0  0  0  0  0  0  0  0  0  0
   57.4073   26.2651   45.2721 H   0  0  0  0  0  0  0  0  0  0  0  0
   58.8552   28.4504   44.4935 H   0  0  0  0  0  0  0  0  0  0  0  0
   58.3872   26.0953   43.4275 H   0  0  0  0  0  0  0  0  0  0  0  0
   57.2259   26.9997   42.3979 H   0  0  0  0  0  0  0  0  0  0  0  0
   58.9650   27.4491   42.3979 H   0  0  0  0  0  0  0  0  0  0  0  0
   57.6071   29.8607   42.9844 H   0  0  0  0  0  0  0  0  0  0  0  0
   56.0972   28.9080   43.2859 H   0  0  0  0  0  0  0  0  0  0  0  0
   56.4246   32.6104   43.8483 H   0  0  0  0  0  0  0  0  0  0  0  0
   59.2830   35.6728   46.1226 H   0  0  0  0  0  0  0  0  0  0  0  0
   60.9311   35.4798   47.9749 H   0  0  0  0  0  0  0  0  0  0  0  0
   61.3520   33.2759   49.0498 H   0  0  0  0  0  0  0  0  0  0  0  0
   60.1386   31.2495   48.2766 H   0  0  0  0  0  0  0  0  0  0  0  0
   58.5313   29.9627   48.0091 H   0  0  0  0  0  0  0  0  0  0  0  0
   57.7661   29.1571   46.5977 H   0  0  0  0  0  0  0  0  0  0  0  0
   59.5328   29.4815   46.5977 H   0  0  0  0  0  0  0  0  0  0  0  0
  1  2  1  0
  2  3  1  0
  2  4  1  0
  4  5  1  0
  5  6  1  0
  6  7  2  0
  7  8  1  0
  8  9  2  0
  8 10  1  0
 10 11  2  0
 11 12  1  0
 12 13  2  0
 13 14  1  0
 14 15  2  0
 15 16  1  0
 16 17  1  0
 16  6  1  0
 15 10  1  0
  1 18  1  0
  1 19  1  0
  1 20  1  0
  2 21  1  0
  3 22  1  0
  3 23  1  0
  3 24  1  0
  4 25  1  0
  4 26  1  0
  7 27  1  0
 11 28  1  0
 12 29  1  0
 13 30  1  0
 14 31  1  0
 17 32  1  0
 17 33  1  0
 17 34  1  0
M  END
>  <UniqueID>  (3) 
3

>  <SMILES>  (3) 
CC(C)COc1cc(=O)c2ccccc2n1C

>  <Energy>  (3) 
42.15315287888693

>  <Genealogy>  (3) 
CC(C)COc1cc(=O)c2ccccc2n1C (3D coordinates assigned)
CC(C)COc1cc(=O)c2ccccc2n1C (optimized conformer: 42.15315287888693 kcal/mol)

>  <smiles>  (3) 
CC(C)COc1cc(=O)c2ccccc2n1C

>  <score_type>  (3) 
oracle

>  <origin>  (3) 
adg

>  <m_score__min__energy>  (3) 
-6.0499999999999998

>  <m_primary>  (3) 
energy

$$$$
3:0
     RDKit          3D

 32 34  0  0  0  0  0  0  0  0999 V2000
   55.2130   29.8510   44.4070 O   0  0  0  0  0  0  0  0  0  0  0  0
   56.5810   30.4600   44.2800 S   0  0  0  0  0  0  0  0  0  0  0  0
   56.8370   30.7920   42.8360 O   0  0  0  0  0  0  0  0  0  0  0  0
   56.6400   31.9180   45.2160 N   0  0  0  0  0  0  0  0  0  0  0  0
   57.8120   32.7200   45.4410 C   0  0  0  0  0  0  0  0  0  0  0  0
   58.0690   33.8700   44.6700 C   0  0  0  0  0  0  0  0  0  0  0  0
   59.2140   34.6350   44.8940 C   0  0  0  0  0  0  0  0  0  0  0  0
   60.1200   34.2730   45.8900 C   0  0  0  0  0  0  0  0  0  0  0  0
   59.8880   33.1350   46.6750 C   0  0  0  0  0  0  0  0  0  0  0  0
   60.7760   32.7800   47.6500 N   0  0  0  0  0  0  0  0  0  0  0  0
   60.5790   31.6810   48.4260 C   0  0  0  0  0  0  0  0  0  0  0  0
   59.4510   30.8820   48.2420 C   0  0  0  0  0  0  0  0  0  0  0  0
   58.5240   31.2160   47.2550 C   0  0  0  0  0  0  0  0  0  0  0  0
   58.7270   32.3520   46.4530 C   0  0  0  0  0  0  0  0  0  0  0  0
   57.7740   29.3110   44.8740 C   0  0  0  0  0  0  0  0  0  0  0  0
   59.1250   29.4640   44.5340 C   0  0  0  0  0  0  0  0  0  0  0  0
   60.0740   28.5470   44.9960 C   0  0  0  0  0  0  0  0  0  0  0  0
   59.6790   27.4750   45.8040 C   0  0  0  0  0  0  0  0  0  0  0  0
   60.8700   26.3250   46.3830 Cl  0  0  0  0  0  0  0  0  0  0  0  0
   58.3320   27.3230   46.1500 C   0  0  0  0  0  0  0  0  0  0  0  0
   57.3810   28.2390   45.6880 C   0  0  0  0  0  0  0  0  0  0  0  0
   57.3601   34.1680   43.8835 H   0  0  0  0  0  0  0  0  0  0  0  0
   59.4030   35.5288   44.2813 H   0  0  0  0  0  0  0  0  0  0  0  0
   61.0198   34.8824   46.0604 H   0  0  0  0  0  0  0  0  0  0  0  0
   61.6320   33.3560   47.8160 H   0  0  0  0  0  0  0  0  0  0  0  0
   61.3131   31.4209   49.2028 H   0  0  0  0  0  0  0  0  0  0  0  0
   59.2933   29.9938   48.8715 H   0  0  0  0  0  0  0  0  0  0  0  0
   57.6327   30.5893   47.1041 H   0  0  0  0  0  0  0  0  0  0  0  0
   59.4395   30.3076   43.9021 H   0  0  0  0  0  0  0  0  0  0  0  0
   61.1329   28.6685   44.7238 H   0  0  0  0  0  0  0  0  0  0  0  0
   58.0202   26.4817   46.7864 H   0  0  0  0  0  0  0  0  0  0  0  0
   56.3230   28.1181   45.9638 H   0  0  0  0  0  0  0  0  0  0  0  0
  1  2  2  0
  2  3  2  0
  2  4  1  0
  4  5  1  0
  5  6  2  0
  6  7  1  0
  7  8  2  0
  8  9  1  0
  9 10  2  0
 10 11  1  0
 11 12  2  0
 12 13  1  0
 13 14  2  0
  2 15  1  0
 15 16  2  0
 16 17  1  0
 17 18  2  0
 18 19  1  0
 18 20  1  0
 20 21  2  0
 14  5  1  0
 21 15  1  0
 14  9  1  0
  6 22  1  0
  7 23  1  0
  8 24  1  0
 10 25  1  0
 11 26  1  0
 12 27  1  0
 13 28  1  0
 16 29  1  0
 17 30  1  0
 20 31  1  0
 21 32  1  0
M  CHG  2   4  -1  10   1
M  END
>  <UniqueID>  (4) 
4

>  <SMILES>  (4) 
O=S(=O)([N-]c1cccc2[nH+]cccc12)c1ccc(Cl)cc1

>  <Energy>  (4) 
42.059276836741184

>  <Genealogy>  (4) 
O=S(=O)([N-]c1cccc2[nH+]cccc12)c1ccc(Cl)cc1 (protonated)
O=S(=O)([N-]c1cccc2[nH+]cccc12)c1ccc(Cl)cc1 (3D coordinates assigned)
O=S(=O)([N-]c1cccc2[nH+]cccc12)c1ccc(Cl)cc1 (optimized conformer: 42.059276836741184 kcal/mol)

>  <smiles>  (4) 
O=S(=O)(Nc1cccc2ncccc12)c1ccc(Cl)cc1

>  <score_type>  (4) 
oracle

>  <origin>  (4) 
adg

>  <m_score__min__energy>  (4) 
-7.6100000000000003

>  <m_primary>  (4) 
energy

$$$$
4:0
     RDKit          3D

 42 45  0  0  0  0  0  0  0  0999 V2000
   64.1254   32.6821   47.7077 H   0  0  0  0  0  0  0  0  0  0  0  0
   63.0600   32.6580   47.4350 C   0  0  0  0  0  0  0  0  0  0  0  0
   62.4170   33.8300   47.0360 C   0  0  0  0  0  0  0  0  0  0  0  0
   62.9789   34.7749   46.9978 H   0  0  0  0  0  0  0  0  0  0  0  0
   61.0630   33.8130   46.6840 C   0  0  0  0  0  0  0  0  0  0  0  0
   60.4640   35.0190   46.2870 O   0  0  0  0  0  0  0  0  0  0  0  0
   59.2720   35.1090   45.5130 C   0  0  0  0  0  0  0  0  0  0  0  0
   58.4030   35.1746   46.1843 H   0  0  0  0  0  0  0  0  0  0  0  0
   59.3137   36.0066   44.8784 H   0  0  0  0  0  0  0  0  0  0  0  0
   59.1785   34.2154   44.8784 H   0  0  0  0  0  0  0  0  0  0  0  0
   60.3520   32.5990   46.7400 C   0  0  0  0  0  0  0  0  0  0  0  0
   59.2868   32.5783   46.4664 H   0  0  0  0  0  0  0  0  0  0  0  0
   60.9920   31.4110   47.1430 C   0  0  0  0  0  0  0  0  0  0  0  0
   60.2400   30.1320   47.2030 C   0  0  0  0  0  0  0  0  0  0  0  0
   60.5980   29.1370   48.1310 C   0  0  0  0  0  0  0  0  0  0  0  0
   61.4401   29.3103   48.8172 H   0  0  0  0  0  0  0  0  0  0  0  0
   59.8950   27.9310   48.1900 C   0  0  0  0  0  0  0  0  0  0  0  0
   60.1861   27.1623   48.9210 H   0  0  0  0  0  0  0  0  0  0  0  0
   58.8200   27.6970   47.3210 C   0  0  0  0  0  0  0  0  0  0  0  0
   58.1070   26.4930   47.3700 C   0  0  0  0  0  0  0  0  0  0  0  0
   58.3825   25.7172   48.0996 H   0  0  0  0  0  0  0  0  0  0  0  0
   57.0340   26.2790   46.4800 C   0  0  0  0  0  0  0  0  0  0  0  0
   56.3310   25.1780   46.4820 N   0  0  0  0  0  0  0  0  0  0  0  0
   55.1340   24.8860   45.7450 C   0  0  0  0  0  0  0  0  0  0  0  0
   54.2660   25.7920   45.6210 O   0  0  0  0  0  0  0  0  0  0  0  0
   54.9710   23.5650   45.0290 C   0  0  0  0  0  0  0  0  0  0  0  0
   54.0163   23.3114   45.5129 H   0  0  0  0  0  0  0  0  0  0  0  0
   55.5220   23.5390   43.6110 C   0  0  0  0  0  0  0  0  0  0  0  0
   54.9910   22.9821   42.8250 H   0  0  0  0  0  0  0  0  0  0  0  0
   55.8101   24.3040   42.8749 H   0  0  0  0  0  0  0  0  0  0  0  0
   56.2440   22.7880   44.7190 C   0  0  0  0  0  0  0  0  0  0  0  0
   56.2347   21.6882   44.7346 H   0  0  0  0  0  0  0  0  0  0  0  0
   57.2697   22.7849   45.1163 H   0  0  0  0  0  0  0  0  0  0  0  0
   56.6860   27.2710   45.6090 N   0  0  0  0  0  0  0  0  0  0  0  0
   55.8800   27.1270   44.9590 H   0  0  0  0  0  0  0  0  0  0  0  0
   57.3640   28.4480   45.5410 C   0  0  0  0  0  0  0  0  0  0  0  0
   57.0571   29.2152   44.8149 H   0  0  0  0  0  0  0  0  0  0  0  0
   58.4500   28.6880   46.3900 C   0  0  0  0  0  0  0  0  0  0  0  0
   59.1590   29.8980   46.3340 C   0  0  0  0  0  0  0  0  0  0  0  0
   58.8672   30.6687   45.6054 H   0  0  0  0  0  0  0  0  0  0  0  0
   62.3540   31.4540   47.4890 C   0  0  0  0  0  0  0  0  0  0  0  0
   62.8670   30.5334   47.8043 H   0  0  0  0  0  0  0  0  0  0  0  0
  1  2  1  0
  2  3  2  0
  3  4  1  0
  3  5  1  0
  5  6  1  0
  6  7  1  0
  7  8  1  0
  7  9  1  0
  7 10  1  0
  5 11  2  0
 11 12  1  0
 11 13  1  0
 13 14  1  0
 14 15  1  0
 15 16  1  0
 15 17  2  0
 17 18  1  0
 17 19  1  0
 19 20  2  0
 20 21  1  0
 20 22  1  0
 22 23  2  0
 23 24  1  0
 24 25  2  0
 24 26  1  0
 26 27  1  0
 26 28  1  0
 28 29  1  0
 28 30  1  0
 28 31  1  0
 31 32  1  0
 31 33  1  0
 22 34  1  0
 34 35  1  0
 34 36  1  0
 36 37  1  0
 36 38  2  0
 38 39  1  0
 39 40  1  0
 13 41  2  0
 41 42  1  0
 41  2  1  0
 39 14  2  0
 38 19  1  0
 31 26  1  0
M  END
>  <UniqueID>  (5) 
5

>  <SMILES>  (5) 
COc1cccc(-c2ccc3c/c(=N\C(=O)C4CC4)[nH]cc3c2)c1

>  <Energy>  (5) 
326.88461724229126

>  <Genealogy>  (5) 
COc1cccc(-c2ccc3c/c(=N\C(=O)C4CC4)[nH]cc3c2)c1 (cis-trans isomerization)
COc1cccc(-c2ccc3c/c(=N\C(=O)C4CC4)[nH]cc3c2)c1 (3D coordinates assigned)
COc1cccc(-c2ccc3c/c(=N\C(=O)C4CC4)[nH]cc3c2)c1 (nonaromatic ring conformer: 326.88461724229126 kcal/mol)

>  <smiles>  (5) 
COc1cccc(-c2ccc3cc(=NC(=O)C4CC4)[nH]cc3c2)c1

>  <score_type>  (5) 
oracle

>  <origin>  (5) 
adg

>  <m_score__min__energy>  (5) 
-7.7999999999999998

>  <m_primary>  (5) 
energy

$$$$
5:0
     RDKit          3D

 33 34  0  0  0  0  0  0  0  0999 V2000
   59.1390   35.5170   44.8640 O   0  0  0  0  0  0  0  0  0  0  0  0
   59.2700   34.4940   45.5920 C   0  0  0  0  0  0  0  0  0  0  0  0
   59.7750   34.6210   46.8920 O   0  0  0  0  0  0  0  0  0  0  0  0
   60.9560   34.0100   47.3300 C   0  0  0  0  0  0  0  0  0  0  0  0
   62.0180   33.8810   46.4270 C   0  0  0  0  0  0  0  0  0  0  0  0
   63.2120   33.2710   46.8210 C   0  0  0  0  0  0  0  0  0  0  0  0
   63.3580   32.7990   48.1280 C   0  0  0  0  0  0  0  0  0  0  0  0
   64.5180   32.2110   48.5110 F   0  0  0  0  0  0  0  0  0  0  0  0
   62.3130   32.9460   49.0450 C   0  0  0  0  0  0  0  0  0  0  0  0
   61.1130   33.5550   48.6570 C   0  0  0  0  0  0  0  0  0  0  0  0
   59.8680   33.8120   49.8720 Cl  0  0  0  0  0  0  0  0  0  0  0  0
   58.8740   33.2020   45.0940 N   0  0  0  0  0  0  0  0  0  0  0  0
   59.0130   32.0030   45.9320 C   0  0  0  0  0  0  0  0  0  0  0  0
   57.7820   31.0900   45.8080 C   0  0  0  0  0  0  0  0  0  0  0  0
   57.1740   31.0340   44.3780 C   0  0  0  0  0  0  0  0  0  0  0  0
   56.7370   29.6050   44.0020 C   0  0  0  0  0  0  0  0  0  0  0  0
   57.6930   28.6960   44.4200 F   0  0  0  0  0  0  0  0  0  0  0  0
   56.5760   29.4910   42.6320 F   0  0  0  0  0  0  0  0  0  0  0  0
   55.5400   29.2950   44.6220 F   0  0  0  0  0  0  0  0  0  0  0  0
   58.1290   31.6220   43.3220 C   0  0  0  0  0  0  0  0  0  0  0  0
   58.4820   33.0700   43.6820 C   0  0  0  0  0  0  0  0  0  0  0  0
   61.9119   34.2623   45.4007 H   0  0  0  0  0  0  0  0  0  0  0  0
   64.0373   33.1624   46.1019 H   0  0  0  0  0  0  0  0  0  0  0  0
   62.4338   32.5817   50.0759 H   0  0  0  0  0  0  0  0  0  0  0  0
   59.9064   31.4453   45.6144 H   0  0  0  0  0  0  0  0  0  0  0  0
   59.1057   32.3209   46.9810 H   0  0  0  0  0  0  0  0  0  0  0  0
   58.0773   30.0708   46.0979 H   0  0  0  0  0  0  0  0  0  0  0  0
   57.0073   31.5113   46.4655 H   0  0  0  0  0  0  0  0  0  0  0  0
   56.2732   31.6652   44.3902 H   0  0  0  0  0  0  0  0  0  0  0  0
   59.0493   31.0204   43.2880 H   0  0  0  0  0  0  0  0  0  0  0  0
   57.6352   31.6045   42.3392 H   0  0  0  0  0  0  0  0  0  0  0  0
   59.3178   33.4009   43.0480 H   0  0  0  0  0  0  0  0  0  0  0  0
   57.5895   33.6910   43.5155 H   0  0  0  0  0  0  0  0  0  0  0  0
  1  2  2  0
  2  3  1  0
  3  4  1  0
  4  5  2  0
  5  6  1  0
  6  7  2  0
  7  8  1  0
  7  9  1  0
  9 10  2  0
 10 11  1  0
  2 12  1  0
 12 13  1  0
 13 14  1  0
 14 15  1  0
 15 16  1  0
 16 17  1  0
 16 18  1  0
 16 19  1  0
 15 20  1  0
 20 21  1  0
 10  4  1  0
 21 12  1  0
  5 22  1  0
  6 23  1  0
  9 24  1  0
 13 25  1  0
 13 26  1  0
 14 27  1  0
 14 28  1  0
 15 29  1  0
 20 30  1  0
 20 31  1  0
 21 32  1  0
 21 33  1  0
M  END
>  <UniqueID>  (6) 
6

>  <SMILES>  (6) 
O=C(Oc1ccc(F)cc1Cl)N1CCC(C(F)(F)F)CC1

>  <Energy>  (6) 
40.20712640899764

>  <Genealogy>  (6) 
O=C(Oc1ccc(F)cc1Cl)N1CCC(C(F)(F)F)CC1 (3D coordinates assigned)
O=C(Oc1ccc(F)cc1Cl)N1CCC(C(F)(F)F)CC1 (nonaromatic ring conformer: 40.20712640899764 kcal/mol)

>  <smiles>  (6) 
O=C(Oc1ccc(F)cc1Cl)N1CCC(C(F)(F)F)CC1

>  <score_type>  (6) 
oracle

>  <origin>  (6) 
adg

>  <m_score__min__energy>  (6) 
-6.79

>  <m_primary>  (6) 
energy

$$$$
6:0
     RDKit          3D

 33 35  0  0  0  0  0  0  0  0999 V2000
   57.1540   34.2230   45.0250 C   0  0  0  0  0  0  0  0  0  0  0  0
   57.2420   33.4670   46.3460 C   0  0  0  0  0  0  0  0  0  0  0  0
   58.3210   32.4760   46.2960 N   0  0  0  0  0  0  0  0  0  0  0  0
   59.4950   32.7820   46.8580 N   0  0  0  0  0  0  0  0  0  0  0  0
   60.5660   31.9340   46.8420 C   0  0  0  0  0  0  0  0  0  0  0  0
   61.8400   32.3310   47.4910 C   0  0  0  0  0  0  0  0  0  0  0  0
   62.5780   33.4330   47.0210 C   0  0  0  0  0  0  0  0  0  0  0  0
   63.7740   33.7940   47.6420 C   0  0  0  0  0  0  0  0  0  0  0  0
   64.2300   33.0530   48.7320 C   0  0  0  0  0  0  0  0  0  0  0  0
   63.5130   31.9900   49.1790 N   0  0  0  0  0  0  0  0  0  0  0  0
   62.3440   31.6160   48.5930 C   0  0  0  0  0  0  0  0  0  0  0  0
   60.4610   30.7260   46.2260 N   0  0  0  0  0  0  0  0  0  0  0  0
   59.3030   30.3610   45.6260 C   0  0  0  0  0  0  0  0  0  0  0  0
   59.1450   29.1400   44.9740 C   0  0  0  0  0  0  0  0  0  0  0  0
   60.1050   28.3210   44.9550 O   0  0  0  0  0  0  0  0  0  0  0  0
   57.9510   28.8380   44.3640 N   0  0  0  0  0  0  0  0  0  0  0  0
   57.7800   27.5350   43.6990 C   0  0  0  0  0  0  0  0  0  0  0  0
   56.8900   29.7150   44.4310 C   0  0  0  0  0  0  0  0  0  0  0  0
   55.7790   29.4190   43.9100 O   0  0  0  0  0  0  0  0  0  0  0  0
   57.0120   30.9140   45.0610 N   0  0  0  0  0  0  0  0  0  0  0  0
   58.1720   31.2800   45.6570 C   0  0  0  0  0  0  0  0  0  0  0  0
   57.0289   35.2974   45.2250 H   0  0  0  0  0  0  0  0  0  0  0  0
   58.0769   34.0624   44.4484 H   0  0  0  0  0  0  0  0  0  0  0  0
   56.2927   33.8547   44.4484 H   0  0  0  0  0  0  0  0  0  0  0  0
   57.4421   34.1802   47.1592 H   0  0  0  0  0  0  0  0  0  0  0  0
   56.2886   32.9482   46.5247 H   0  0  0  0  0  0  0  0  0  0  0  0
   62.2106   34.0119   46.1608 H   0  0  0  0  0  0  0  0  0  0  0  0
   64.3520   34.6551   47.2753 H   0  0  0  0  0  0  0  0  0  0  0  0
   65.1710   33.3298   49.2299 H   0  0  0  0  0  0  0  0  0  0  0  0
   61.7895   30.7497   48.9828 H   0  0  0  0  0  0  0  0  0  0  0  0
   57.6765   26.7463   44.4588 H   0  0  0  0  0  0  0  0  0  0  0  0
   56.8774   27.5596   43.0708 H   0  0  0  0  0  0  0  0  0  0  0  0
   58.6584   27.3259   43.0708 H   0  0  0  0  0  0  0  0  0  0  0  0
  1  2  1  0
  2  3  1  0
  3  4  1  0
  4  5  2  0
  5  6  1  0
  6  7  2  0
  7  8  1  0
  8  9  2  0
  9 10  1  0
 10 11  2  0
  5 12  1  0
 12 13  2  0
 13 14  1  0
 14 15  2  0
 14 16  1  0
 16 17  1  0
 16 18  1  0
 18 19  2  0
 18 20  1  0
 20 21  2  0
 21  3  1  0
 11  6  1  0
 21 13  1  0
  1 22  1  0
  1 23  1  0
  1 24  1  0
  2 25  1  0
  2 26  1  0
  7 27  1  0
  8 28  1  0
  9 29  1  0
 11 30  1  0
 17 31  1  0
 17 32  1  0
 17 33  1  0
M  END
>  <UniqueID>  (7) 
7

>  <SMILES>  (7) 
CCn1nc(-c2cccnc2)nc2c(=O)n(C)c(=O)nc1-2

>  <Energy>  (7) 
42.723232555254185

>  <Genealogy>  (7) 
CCn1nc(-c2cccnc2)nc2c(=O)n(C)c(=O)nc1-2 (3D coordinates assigned)
CCn1nc(-c2cccnc2)nc2c(=O)n(C)c(=O)nc1-2 (optimized conformer: 42.723232555254185 kcal/mol)

>  <smiles>  (7) 
CCn1nc(-c2cccnc2)nc2c(=O)n(C)c(=O)nc1-2

>  <score_type>  (7) 
oracle

>  <origin>  (7) 
adg

>  <m_score__min__energy>  (7) 
-6.9000000000000004

>  <m_primary>  (7) 
energy

$$$$
7:0
     RDKit          3D

 43 45  0  0  0  0  0  0  0  0999 V2000
   55.8020   23.1730   45.6670 C   0  0  0  0  0  0  0  0  0  0  0  0
   55.8840   24.6610   45.7820 C   0  0  0  0  0  0  0  0  0  0  0  0
   54.8080   25.4620   45.9010 N   0  0  0  0  0  0  0  0  0  0  0  0
   55.2270   26.7150   46.0020 N   0  0  0  0  0  0  0  0  0  0  0  0
   56.5730   26.7180   45.9570 C   0  0  0  0  0  0  0  0  0  0  0  0
   57.3670   27.9160   45.9940 N   0  0  0  0  0  0  0  0  0  0  0  0
   58.4690   28.1200   46.7540 C   0  0  0  0  0  0  0  0  0  0  0  0
   59.0150   29.3670   46.4760 C   0  0  0  0  0  0  0  0  0  0  0  0
   60.1910   29.9460   47.0620 N   0  0  0  0  0  0  0  0  0  0  0  0
   60.2620   31.3530   47.4500 C   0  0  0  0  0  0  0  0  0  0  0  0
   61.6360   31.9080   47.1680 C   0  0  0  0  0  0  0  0  0  0  0  0
   62.6080   31.1060   47.1430 O   0  0  0  0  0  0  0  0  0  0  0  0
   61.8610   33.3090   46.8900 N   0  0  0  0  0  0  0  0  0  0  0  0
   60.7420   34.2420   46.7200 C   0  0  0  0  0  0  0  0  0  0  0  0
   63.2390   33.7920   46.7590 C   0  0  0  0  0  0  0  0  0  0  0  0
   58.2160   29.9360   45.5070 C   0  0  0  0  0  0  0  0  0  0  0  0
   58.2910   31.1700   44.8620 C   0  0  0  0  0  0  0  0  0  0  0  0
   57.3030   31.4730   43.9090 C   0  0  0  0  0  0  0  0  0  0  0  0
   56.2720   30.5510   43.6300 C   0  0  0  0  0  0  0  0  0  0  0  0
   56.2200   29.3130   44.2960 C   0  0  0  0  0  0  0  0  0  0  0  0
   57.2210   29.0270   45.2320 C   0  0  0  0  0  0  0  0  0  0  0  0
   57.0380   25.4200   45.8290 C   0  0  0  0  0  0  0  0  0  0  0  0
   58.4520   24.9350   45.7390 C   0  0  0  0  0  0  0  0  0  0  0  0
   55.7775   22.7283   46.6728 H   0  0  0  0  0  0  0  0  0  0  0  0
   54.8873   22.8972   45.1218 H   0  0  0  0  0  0  0  0  0  0  0  0
   56.6809   22.7984   45.1218 H   0  0  0  0  0  0  0  0  0  0  0  0
   58.8728   27.4035   47.4844 H   0  0  0  0  0  0  0  0  0  0  0  0
   61.0420   29.3540   47.1880 H   0  0  0  0  0  0  0  0  0  0  0  0
   59.5160   31.9246   46.8784 H   0  0  0  0  0  0  0  0  0  0  0  0
   60.0579   31.4365   48.5277 H   0  0  0  0  0  0  0  0  0  0  0  0
   60.3700   34.5522   47.7076 H   0  0  0  0  0  0  0  0  0  0  0  0
   61.0836   35.1266   46.1625 H   0  0  0  0  0  0  0  0  0  0  0  0
   59.9333   33.7469   46.1625 H   0  0  0  0  0  0  0  0  0  0  0  0
   63.6711   33.9435   47.7592 H   0  0  0  0  0  0  0  0  0  0  0  0
   63.8370   33.0499   46.2098 H   0  0  0  0  0  0  0  0  0  0  0  0
   63.2428   34.7451   46.2098 H   0  0  0  0  0  0  0  0  0  0  0  0
   59.0967   31.8829   45.0913 H   0  0  0  0  0  0  0  0  0  0  0  0
   57.3339   32.4354   43.3772 H   0  0  0  0  0  0  0  0  0  0  0  0
   55.5024   30.8024   42.8854 H   0  0  0  0  0  0  0  0  0  0  0  0
   55.4167   28.5911   44.0875 H   0  0  0  0  0  0  0  0  0  0  0  0
   58.8572   24.7960   46.7522 H   0  0  0  0  0  0  0  0  0  0  0  0
   58.4773   23.9768   45.1994 H   0  0  0  0  0  0  0  0  0  0  0  0
   59.0601   25.6759   45.1994 H   0  0  0  0  0  0  0  0  0  0  0  0
  1  2  1  0
  2  3  2  0
  3  4  1  0
  4  5  1  0
  5  6  1  0
  6  7  1  0
  7  8  2  0
  8  9  1  0
  9 10  1  0
 10 11  1  0
 11 12  2  0
 11 13  1  0
 13 14  1  0
 13 15  1  0
  8 16  1  0
 16 17  2  0
 17 18  1  0
 18 19  2  0
 19 20  1  0
 20 21  2  0
  5 22  2  0
 22 23  1  0
 22  2  1  0
 21  6  1  0
 21 16  1  0
  1 24  1  0
  1 25  1  0
  1 26  1  0
  7 27  1  0
  9 28  1  0
 10 29  1  0
 10 30  1  0
 14 31  1  0
 14 32  1  0
 14 33  1  0
 15 34  1  0
 15 35  1  0
 15 36  1  0
 17 37  1  0
 18 38  1  0
 19 39  1  0
 20 40  1  0
 23 41  1  0
 23 42  1  0
 23 43  1  0
M  CHG  1   4  -1
M  END
>  <UniqueID>  (8) 
8

>  <SMILES>  (8) 
Cc1n[n-]c(-n2cc(NCC(=O)N(C)C)c3ccccc32)c1C

>  <Energy>  (8) 
107.19321167015764

>  <Genealogy>  (8) 
Cc1n[n-]c(-n2cc(NCC(=O)N(C)C)c3ccccc32)c1C (protonated)
Cc1n[n-]c(-n2cc(NCC(=O)N(C)C)c3ccccc32)c1C (3D coordinates assigned)
Cc1n[n-]c(-n2cc(NCC(=O)N(C)C)c3ccccc32)c1C (optimized conformer: 107.19321167015764 kcal/mol)

>  <smiles>  (8) 
Cc1n[nH]c(-n2cc(NCC(=O)N(C)C)c3ccccc32)c1C

>  <score_type>  (8) 
oracle

>  <origin>  (8) 
adg

>  <m_score__min__energy>  (8) 
-9.7300000000000004

>  <m_primary>  (8) 
energy

$$$$
8:0
     RDKit          3D

 48 50  0  0  0  0  0  0  0  0999 V2000
   57.0480   21.0940   43.0360 C   0  0  0  0  0  0  0  0  0  0  0  0
   55.8960   21.8800   43.3160 O   0  0  0  0  0  0  0  0  0  0  0  0
   55.9050   23.0540   44.0810 C   0  0  0  0  0  0  0  0  0  0  0  0
   57.0730   23.8330   44.0900 C   0  0  0  0  0  0  0  0  0  0  0  0
   57.1300   25.0140   44.8300 C   0  0  0  0  0  0  0  0  0  0  0  0
   56.0100   25.4540   45.5580 C   0  0  0  0  0  0  0  0  0  0  0  0
   56.1190   26.6740   46.3090 N   0  0  0  0  0  0  0  0  0  0  0  0
   57.0820   27.7250   46.1140 C   0  0  0  0  0  0  0  0  0  0  0  0
   57.7550   28.1760   47.0870 O   0  0  0  0  0  0  0  0  0  0  0  0
   57.2850   28.2720   44.7240 C   0  0  1  0  0  0  0  0  0  0  0  0
   56.2000   29.3100   44.3440 C   0  0  0  0  0  0  0  0  0  0  0  0
   56.6540   30.1200   43.1220 C   0  0  0  0  0  0  0  0  0  0  0  0
   57.9230   30.8720   43.3640 N   0  0  1  0  0  0  0  0  0  0  0  0
   57.7270   32.3470   43.4310 C   0  0  0  0  0  0  0  0  0  0  0  0
   58.1370   32.9800   44.7500 C   0  0  0  0  0  0  0  0  0  0  0  0
   57.4040   32.7370   45.9290 C   0  0  0  0  0  0  0  0  0  0  0  0
   57.7980   33.3270   47.1370 C   0  0  0  0  0  0  0  0  0  0  0  0
   58.9090   34.1710   47.1800 C   0  0  0  0  0  0  0  0  0  0  0  0
   59.6290   34.4370   46.0120 C   0  0  0  0  0  0  0  0  0  0  0  0
   59.2440   33.8470   44.8030 C   0  0  0  0  0  0  0  0  0  0  0  0
   58.7350   30.3640   44.5030 C   0  0  0  0  0  0  0  0  0  0  0  0
   58.7250   28.8300   44.5530 C   0  0  0  0  0  0  0  0  0  0  0  0
   54.8400   24.6670   45.5710 C   0  0  0  0  0  0  0  0  0  0  0  0
   54.7860   23.4780   44.8350 C   0  0  0  0  0  0  0  0  0  0  0  0
   57.5136   20.7763   43.9806 H   0  0  0  0  0  0  0  0  0  0  0  0
   56.7544   20.2070   42.4554 H   0  0  0  0  0  0  0  0  0  0  0  0
   57.7668   21.6908   42.4554 H   0  0  0  0  0  0  0  0  0  0  0  0
   57.9495   23.5097   43.5093 H   0  0  0  0  0  0  0  0  0  0  0  0
   58.0574   25.6053   44.8443 H   0  0  0  0  0  0  0  0  0  0  0  0
   57.1704   27.4386   44.0153 H   0  0  0  0  0  0  0  0  0  0  0  0
   56.0347   29.9912   45.1917 H   0  0  0  0  0  0  0  0  0  0  0  0
   55.2654   28.7832   44.1012 H   0  0  0  0  0  0  0  0  0  0  0  0
   55.8630   30.8394   42.8637 H   0  0  0  0  0  0  0  0  0  0  0  0
   56.8416   29.4085   42.3043 H   0  0  0  0  0  0  0  0  0  0  0  0
   58.5140   30.7190   42.5100 H   0  0  0  0  0  0  0  0  0  0  0  0
   58.3217   32.8090   42.6292 H   0  0  0  0  0  0  0  0  0  0  0  0
   56.6466   32.5233   43.3230 H   0  0  0  0  0  0  0  0  0  0  0  0
   56.5204   32.0825   45.9006 H   0  0  0  0  0  0  0  0  0  0  0  0
   57.2290   33.1241   48.0563 H   0  0  0  0  0  0  0  0  0  0  0  0
   59.2176   34.6264   48.1325 H   0  0  0  0  0  0  0  0  0  0  0  0
   60.4984   35.1102   46.0431 H   0  0  0  0  0  0  0  0  0  0  0  0
   59.8118   34.0629   43.8859 H   0  0  0  0  0  0  0  0  0  0  0  0
   58.3191   30.7561   45.4428 H   0  0  0  0  0  0  0  0  0  0  0  0
   59.7734   30.7007   44.3672 H   0  0  0  0  0  0  0  0  0  0  0  0
   59.3400   28.4966   45.4019 H   0  0  0  0  0  0  0  0  0  0  0  0
   59.1293   28.4524   43.6022 H   0  0  0  0  0  0  0  0  0  0  0  0
   53.9686   24.9881   46.1605 H   0  0  0  0  0  0  0  0  0  0  0  0
   53.8691   22.8704   44.8429 H   0  0  0  0  0  0  0  0  0  0  0  0
  1  2  1  0
  2  3  1  0
  3  4  2  0
  4  5  1  0
  5  6  2  0
  6  7  1  0
  7  8  1  0
  8  9  2  0
  8 10  1  0
 10 11  1  0
 11 12  1  0
 12 13  1  0
 13 14  1  0
 14 15  1  0
 15 16  2  0
 16 17  1  0
 17 18  2  0
 18 19  1  0
 19 20  2  0
 13 21  1  0
 21 22  1  0
  6 23  1  0
 23 24  2  0
 24  3  1  0
 22 10  1  0
 20 15  1  0
  1 25  1  0
  1 26  1  0
  1 27  1  0
  4 28  1  0
  5 29  1  0
 10 30  1  6
 11 31  1  0
 11 32  1  0
 12 33  1  0
 12 34  1  0
 13 35  1  6
 14 36  1  0
 14 37  1  0
 16 38  1  0
 17 39  1  0
 18 40  1  0
 19 41  1  0
 20 42  1  0
 21 43  1  0
 21 44  1  0
 22 45  1  0
 22 46  1  0
 23 47  1  0
 24 48  1  0
M  CHG  2   7  -1  13   1
M  END
>  <UniqueID>  (9) 
9

>  <SMILES>  (9) 
COc1ccc([N-]C(=O)C2CC[NH+](Cc3ccccc3)CC2)cc1

>  <Energy>  (9) 
64.39058654037787

>  <Genealogy>  (9) 
COc1ccc([N-]C(=O)C2CC[NH+](Cc3ccccc3)CC2)cc1 (protonated)
COc1ccc([N-]C(=O)C2CC[NH+](Cc3ccccc3)CC2)cc1 (3D coordinates assigned)
COc1ccc([N-]C(=O)C2CC[NH+](Cc3ccccc3)CC2)cc1 (nonaromatic ring conformer: 64.39058654037787 kcal/mol)

>  <smiles>  (9) 
COc1ccc(NC(=O)C2CCN(Cc3ccccc3)CC2)cc1

>  <score_type>  (9) 
oracle

>  <origin>  (9) 
adg

>  <m_score__min__energy>  (9) 
-9.0299999999999994

>  <m_primary>  (9) 
energy

$$$$
9:0
     RDKit          3D

 60 63  0  0  0  0  0  0  0  0999 V2000
   61.2890   33.8480   46.3830 C   0  0  0  0  0  0  0  0  0  0  0  0
   59.8640   34.3610   46.1370 C   0  0  0  0  0  0  0  0  0  0  0  0
   59.2740   34.9950   47.4060 C   0  0  0  0  0  0  0  0  0  0  0  0
   58.9670   33.2530   45.6130 C   0  0  0  0  0  0  0  0  0  0  0  0
   58.5530   33.2270   44.2680 C   0  0  0  0  0  0  0  0  0  0  0  0
   57.7790   32.1700   43.7840 C   0  0  0  0  0  0  0  0  0  0  0  0
   57.4040   31.1230   44.6350 C   0  0  0  0  0  0  0  0  0  0  0  0
   56.4950   29.7420   44.0160 S   0  0  0  0  0  0  0  0  0  0  0  0
   55.3020   29.5030   44.9000 O   0  0  0  0  0  0  0  0  0  0  0  0
   56.0060   30.0560   42.6280 O   0  0  0  0  0  0  0  0  0  0  0  0
   57.4540   28.2950   43.9630 N   0  0  0  0  0  0  0  0  0  0  0  0
   58.1030   27.7490   45.1110 C   0  0  0  0  0  0  0  0  0  0  0  0
   57.9080   26.4020   45.4270 C   0  0  0  0  0  0  0  0  0  0  0  0
   58.5250   25.8520   46.5500 C   0  0  0  0  0  0  0  0  0  0  0  0
   59.3280   26.6470   47.3710 C   0  0  0  0  0  0  0  0  0  0  0  0
   59.5140   28.0150   47.0880 C   0  0  0  0  0  0  0  0  0  0  0  0
   60.3320   28.8530   48.0090 C   0  0  0  0  0  0  0  0  0  0  0  0
   60.5090   28.5300   49.3660 C   0  0  0  0  0  0  0  0  0  0  0  0
   61.2970   29.3510   50.1680 C   0  0  0  0  0  0  0  0  0  0  0  0
   61.8860   30.4960   49.6170 C   0  0  0  0  0  0  0  0  0  0  0  0
   62.6550   31.4100   50.4230 N   0  0  0  0  0  0  0  0  0  0  0  0
   63.9640   31.8610   49.9410 C   0  0  0  0  0  0  0  0  0  0  0  0
   64.4350   33.1020   50.7210 C   0  0  0  0  0  0  0  0  0  0  0  0
   63.3120   34.0100   51.0380 N   0  0  0  0  0  0  0  0  0  0  0  0
   62.7390   34.6200   49.8210 C   0  0  0  0  0  0  0  0  0  0  0  0
   62.2670   33.3690   51.8800 C   0  0  0  0  0  0  0  0  0  0  0  0
   62.2230   31.8340   51.7590 C   0  0  0  0  0  0  0  0  0  0  0  0
   61.6650   30.7760   48.3050 N   0  0  0  0  0  0  0  0  0  0  0  0
   60.9240   29.9820   47.5320 N   0  0  0  0  0  0  0  0  0  0  0  0
   58.8780   28.5590   45.9540 C   0  0  0  0  0  0  0  0  0  0  0  0
   57.7800   31.1620   45.9830 C   0  0  0  0  0  0  0  0  0  0  0  0
   58.5540   32.2190   46.4700 C   0  0  0  0  0  0  0  0  0  0  0  0
   61.4731   33.7817   47.4655 H   0  0  0  0  0  0  0  0  0  0  0  0
   61.4035   32.8522   45.9299 H   0  0  0  0  0  0  0  0  0  0  0  0
   62.0120   34.5423   45.9299 H   0  0  0  0  0  0  0  0  0  0  0  0
   59.9192   35.1438   45.3661 H   0  0  0  0  0  0  0  0  0  0  0  0
   59.7168   34.5192   48.2935 H   0  0  0  0  0  0  0  0  0  0  0  0
   59.4989   36.0717   47.4166 H   0  0  0  0  0  0  0  0  0  0  0  0
   58.1839   34.8480   47.4166 H   0  0  0  0  0  0  0  0  0  0  0  0
   58.8414   34.0459   43.5925 H   0  0  0  0  0  0  0  0  0  0  0  0
   57.4628   32.1599   42.7305 H   0  0  0  0  0  0  0  0  0  0  0  0
   57.2673   25.7750   44.7895 H   0  0  0  0  0  0  0  0  0  0  0  0
   58.3789   24.7885   46.7901 H   0  0  0  0  0  0  0  0  0  0  0  0
   59.8203   26.2007   48.2476 H   0  0  0  0  0  0  0  0  0  0  0  0
   60.0288   27.6360   49.7904 H   0  0  0  0  0  0  0  0  0  0  0  0
   61.4560   29.1020   51.2276 H   0  0  0  0  0  0  0  0  0  0  0  0
   64.6964   31.0513   50.0750 H   0  0  0  0  0  0  0  0  0  0  0  0
   63.8764   32.1253   48.8768 H   0  0  0  0  0  0  0  0  0  0  0  0
   64.9046   32.7751   51.6604 H   0  0  0  0  0  0  0  0  0  0  0  0
   65.1509   33.6504   50.0911 H   0  0  0  0  0  0  0  0  0  0  0  0
   62.0117   35.3943   50.1065 H   0  0  0  0  0  0  0  0  0  0  0  0
   63.5439   35.0749   49.2250 H   0  0  0  0  0  0  0  0  0  0  0  0
   62.2347   33.8451   49.2250 H   0  0  0  0  0  0  0  0  0  0  0  0
   62.4620   33.6281   52.9311 H   0  0  0  0  0  0  0  0  0  0  0  0
   61.2960   33.7453   51.5255 H   0  0  0  0  0  0  0  0  0  0  0  0
   62.8918   31.3924   52.5125 H   0  0  0  0  0  0  0  0  0  0  0  0
   61.1896   31.4944   51.9225 H   0  0  0  0  0  0  0  0  0  0  0  0
   58.9905   29.6296   45.7278 H   0  0  0  0  0  0  0  0  0  0  0  0
   57.4646   30.3565   46.6625 H   0  0  0  0  0  0  0  0  0  0  0  0
   58.8418   32.2415   47.5314 H   0  0  0  0  0  0  0  0  0  0  0  0
  1  2  1  0
  2  3  1  0
  2  4  1  0
  4  5  2  0
  5  6  1  0
  6  7  2  0
  7  8  1  0
  8  9  2  0
  8 10  2  0
  8 11  1  0
 11 12  1  0
 12 13  2  0
 13 14  1  0
 14 15  2  0
 15 16  1  0
 16 17  1  0
 17 18  2  0
 18 19  1  0
 19 20  2  0
 20 21  1  0
 21 22  1  0
 22 23  1  0
 23 24  1  0
 24 25  1  0
 24 26  1  0
 26 27  1  0
 20 28  1  0
 28 29  2  0
 16 30  2  0
  7 31  1  0
 31 32  2  0
 32  4  1  0
 30 12  1  0
 29 17  1  0
 27 21  1  0
  1 33  1  0
  1 34  1  0
  1 35  1  0
  2 36  1  0
  3 37  1  0
  3 38  1  0
  3 39  1  0
  5 40  1  0
  6 41  1  0
 13 42  1  0
 14 43  1  0
 15 44  1  0
 18 45  1  0
 19 46  1  0
 22 47  1  0
 22 48  1  0
 23 49  1  0
 23 50  1  0
 25 51  1  0
 25 52  1  0
 25 53  1  0
 26 54  1  0
 26 55  1  0
 27 56  1  0
 27 57  1  0
 30 58  1  0
 31 59  1  0
 32 60  1  0
M  CHG  1  11  -1
M  END
>  <UniqueID>  (10) 
10

>  <SMILES>  (10) 
CC(C)c1ccc(S(=O)(=O)[N-]c2cccc(-c3ccc(N4CCN(C)CC4)nn3)c2)cc1

>  <Energy>  (10) 
81.19132472407715

>  <Genealogy>  (10) 
CC(C)c1ccc(S(=O)(=O)[N-]c2cccc(-c3ccc(N4CCN(C)CC4)nn3)c2)cc1 (protonated)
CC(C)c1ccc(S(=O)(=O)[N-]c2cccc(-c3ccc(N4CCN(C)CC4)nn3)c2)cc1 (3D coordinates assigned)
CC(C)c1ccc(S(=O)(=O)[N-]c2cccc(-c3ccc(N4CCN(C)CC4)nn3)c2)cc1 (nonaromatic ring conformer: 81.19132472407715 kcal/mol)

>  <smiles>  (10) 
CC(C)c1ccc(S(=O)(=O)Nc2cccc(-c3ccc(N4CCN(C)CC4)nn3)c2)cc1

>  <score_type>  (10) 
oracle

>  <origin>  (10) 
adg

>  <m_score__min__energy>  (10) 
-10.640000000000001

>  <m_primary>  (10) 
energy

$$$$
10:0
     RDKit          3D

 44 47  0  0  0  0  0  0  0  0999 V2000
   58.0070   32.3710   42.6020 C   0  0  0  0  0  0  0  0  0  0  0  0
   58.2060   32.1050   44.0340 N   0  0  0  0  0  0  0  0  0  0  0  0
   58.3010   33.1200   44.9630 C   0  0  0  0  0  0  0  0  0  0  0  0
   58.2230   34.3230   44.5820 O   0  0  0  0  0  0  0  0  0  0  0  0
   58.4680   32.8380   46.3120 N   0  0  0  0  0  0  0  0  0  0  0  0
   58.5410   33.9340   47.2990 C   0  0  0  0  0  0  0  0  0  0  0  0
   59.9930   34.3340   47.6010 C   0  0  0  0  0  0  0  0  0  0  0  0
   60.9340   33.2860   47.1430 N   0  0  0  0  0  0  0  0  0  0  0  0
   62.0700   33.8330   46.3570 C   0  0  0  0  0  0  0  0  0  0  0  0
   63.3970   33.7780   47.1340 C   0  0  0  0  0  0  0  0  0  0  0  0
   63.7560   32.4640   47.5350 O   0  0  0  0  0  0  0  0  0  0  0  0
   62.6430   31.6490   47.8860 C   0  0  0  0  0  0  0  0  0  0  0  0
   61.3800   32.4380   48.2690 C   0  0  0  0  0  0  0  0  0  0  0  0
   58.5270   31.5320   46.7460 C   0  0  0  0  0  0  0  0  0  0  0  0
   58.6680   31.2580   47.9690 O   0  0  0  0  0  0  0  0  0  0  0  0
   58.4170   30.5200   45.8030 C   0  0  0  0  0  0  0  0  0  0  0  0
   58.2570   30.8230   44.4860 C   0  0  0  0  0  0  0  0  0  0  0  0
   58.1450   29.6910   43.7530 N   0  0  0  0  0  0  0  0  0  0  0  0
   58.2490   28.7090   44.6800 C   0  0  0  0  0  0  0  0  0  0  0  0
   58.1910   27.3390   44.4310 C   0  0  0  0  0  0  0  0  0  0  0  0
   58.3110   26.4710   45.5280 C   0  0  0  0  0  0  0  0  0  0  0  0
   58.4820   26.9840   46.8280 C   0  0  0  0  0  0  0  0  0  0  0  0
   58.5320   28.3710   47.0260 C   0  0  0  0  0  0  0  0  0  0  0  0
   58.4140   29.1790   45.9380 N   0  0  0  0  0  0  0  0  0  0  0  0
   57.3522   33.2463   42.4792 H   0  0  0  0  0  0  0  0  0  0  0  0
   58.9791   32.5709   42.1276 H   0  0  0  0  0  0  0  0  0  0  0  0
   57.5408   31.4949   42.1276 H   0  0  0  0  0  0  0  0  0  0  0  0
   58.0064   34.8086   46.9000 H   0  0  0  0  0  0  0  0  0  0  0  0
   58.0815   33.5827   48.2346 H   0  0  0  0  0  0  0  0  0  0  0  0
   60.2227   35.2764   47.0822 H   0  0  0  0  0  0  0  0  0  0  0  0
   60.1055   34.4578   48.6882 H   0  0  0  0  0  0  0  0  0  0  0  0
   62.1763   33.2456   45.4330 H   0  0  0  0  0  0  0  0  0  0  0  0
   61.8511   34.8886   46.1386 H   0  0  0  0  0  0  0  0  0  0  0  0
   64.1953   34.1779   46.4914 H   0  0  0  0  0  0  0  0  0  0  0  0
   63.2653   34.3746   48.0487 H   0  0  0  0  0  0  0  0  0  0  0  0
   62.4011   31.0067   47.0264 H   0  0  0  0  0  0  0  0  0  0  0  0
   62.9396   31.0754   48.7765 H   0  0  0  0  0  0  0  0  0  0  0  0
   60.5778   31.7318   48.5294 H   0  0  0  0  0  0  0  0  0  0  0  0
   61.6127   33.0838   49.1285 H   0  0  0  0  0  0  0  0  0  0  0  0
   58.0050   29.5870   42.7240 H   0  0  0  0  0  0  0  0  0  0  0  0
   58.0559   26.9512   43.4105 H   0  0  0  0  0  0  0  0  0  0  0  0
   58.2712   25.3830   45.3708 H   0  0  0  0  0  0  0  0  0  0  0  0
   58.5759   26.2998   47.6842 H   0  0  0  0  0  0  0  0  0  0  0  0
   58.6630   28.7940   48.0329 H   0  0  0  0  0  0  0  0  0  0  0  0
  1  2  1  0
  2  3  1  0
  3  4  2  0
  3  5  1  0
  5  6  1  0
  6  7  1  0
  7  8  1  0
  8  9  1  0
  9 10  1  0
 10 11  1  0
 11 12  1  0
 12 13  1  0
  5 14  1  0
 14 15  2  0
 14 16  1  0
 16 17  2  0
 17 18  1  0
 18 19  2  0
 19 20  1  0
 20 21  2  0
 21 22  1  0
 22 23  2  0
 23 24  1  0
 17  2  1  0
 24 19  1  0
 13  8  1  0
 24 16  1  0
  1 25  1  0
  1 26  1  0
  1 27  1  0
  6 28  1  0
  6 29  1  0
  7 30  1  0
  7 31  1  0
  9 32  1  0
  9 33  1  0
 10 34  1  0
 10 35  1  0
 12 36  1  0
 12 37  1  0
 13 38  1  0
 13 39  1  0
 18 40  1  0
 20 41  1  0
 21 42  1  0
 22 43  1  0
 23 44  1  0
M  CHG  1  18   1
M  END
>  <UniqueID>  (11) 
11

>  <SMILES>  (11) 
Cn1c(=O)n(CCN2CCOCC2)c(=O)c2c1[nH+]c1ccccn12

>  <Energy>  (11) 
114.08739128064903

>  <Genealogy>  (11) 
Cn1c(=O)n(CCN2CCOCC2)c(=O)c2c1[nH+]c1ccccn12 (protonated)
Cn1c(=O)n(CCN2CCOCC2)c(=O)c2c1[nH+]c1ccccn12 (3D coordinates assigned)
Cn1c(=O)n(CCN2CCOCC2)c(=O)c2c1[nH+]c1ccccn12 (nonaromatic ring conformer: 114.08739128064903 kcal/mol)

>  <smiles>  (11) 
Cn1c(=O)n(CCN2CCOCC2)c(=O)c2c1nc1ccccn12

>  <score_type>  (11) 
oracle

>  <origin>  (11) 
adg

>  <m_score__min__energy>  (11) 
-5.7800000000000002

>  <m_primary>  (11) 
energy

$$$$
11:0
     RDKit          3D

 36 38  0  0  0  0  0  0  0  0999 V2000
   55.1910   30.0870   45.6230 H   0  0  0  0  0  0  0  0  0  0  0  0
   55.7960   29.3450   45.2090 N   0  0  0  0  0  0  0  0  0  0  0  0
   57.0910   29.4010   45.2250 C   0  0  0  0  0  0  0  0  0  0  0  0
   57.8690   30.5500   45.2930 C   0  0  0  0  0  0  0  0  0  0  0  0
   57.4570   31.9640   45.3890 C   0  0  0  0  0  0  0  0  0  0  0  0
   56.3150   32.2860   44.9640 O   0  0  0  0  0  0  0  0  0  0  0  0
   58.3520   33.0170   45.9260 C   0  0  0  0  0  0  0  0  0  0  0  0
   58.7800   34.0840   45.1140 C   0  0  0  0  0  0  0  0  0  0  0  0
   58.4572   34.1359   44.0637 H   0  0  0  0  0  0  0  0  0  0  0  0
   59.6130   35.0780   45.6350 C   0  0  0  0  0  0  0  0  0  0  0  0
   59.9495   35.9047   44.9920 H   0  0  0  0  0  0  0  0  0  0  0  0
   60.0190   35.0240   46.9700 C   0  0  0  0  0  0  0  0  0  0  0  0
   60.6775   35.8058   47.3764 H   0  0  0  0  0  0  0  0  0  0  0  0
   59.5890   33.9770   47.7900 C   0  0  0  0  0  0  0  0  0  0  0  0
   60.0940   33.9140   49.4700 Cl  0  0  0  0  0  0  0  0  0  0  0  0
   58.7540   32.9800   47.2730 C   0  0  0  0  0  0  0  0  0  0  0  0
   58.4102   32.1627   47.9240 H   0  0  0  0  0  0  0  0  0  0  0  0
   59.1720   30.0870   45.2310 C   0  0  0  0  0  0  0  0  0  0  0  0
   60.0750   30.7151   45.2385 H   0  0  0  0  0  0  0  0  0  0  0  0
   59.1540   28.7410   45.1600 N   0  0  0  0  0  0  0  0  0  0  0  0
   59.9950   28.1250   45.0960 H   0  0  0  0  0  0  0  0  0  0  0  0
   57.8970   28.3200   45.1500 N   0  0  0  0  0  0  0  0  0  0  0  0
   57.5140   26.9340   45.0660 C   0  0  0  0  0  0  0  0  0  0  0  0
   56.8650   26.2970   46.1380 C   0  0  0  0  0  0  0  0  0  0  0  0
   56.6509   26.8590   47.0590 H   0  0  0  0  0  0  0  0  0  0  0  0
   56.4900   24.9540   46.0410 C   0  0  0  0  0  0  0  0  0  0  0  0
   55.9972   24.4606   46.8917 H   0  0  0  0  0  0  0  0  0  0  0  0
   56.7390   24.2320   44.8640 C   0  0  0  0  0  0  0  0  0  0  0  0
   56.3720   22.7800   44.7760 C   0  0  0  0  0  0  0  0  0  0  0  0
   56.2674   22.3662   45.7898 H   0  0  0  0  0  0  0  0  0  0  0  0
   55.4190   22.6747   44.2368 H   0  0  0  0  0  0  0  0  0  0  0  0
   57.1605   22.2345   44.2368 H   0  0  0  0  0  0  0  0  0  0  0  0
   57.3940   24.8630   43.7960 C   0  0  0  0  0  0  0  0  0  0  0  0
   57.6142   24.2982   42.8781 H   0  0  0  0  0  0  0  0  0  0  0  0
   57.7680   26.2060   43.8930 C   0  0  0  0  0  0  0  0  0  0  0  0
   58.2654   26.6966   43.0433 H   0  0  0  0  0  0  0  0  0  0  0  0
  1  2  1  0
  2  3  2  0
  3  4  1  0
  4  5  1  0
  5  6  2  0
  5  7  1  0
  7  8  2  0
  8  9  1  0
  8 10  1  0
 10 11  1  0
 10 12  2  0
 12 13  1  0
 12 14  1  0
 14 15  1  0
 14 16  2  0
 16 17  1  0
  4 18  2  0
 18 19  1  0
 18 20  1  0
 20 21  1  0
 20 22  1  0
 22 23  1  0
 23 24  2  0
 24 25  1  0
 24 26  1  0
 26 27  1  0
 26 28  2  0
 28 29  1  0
 29 30  1  0
 29 31  1  0
 29 32  1  0
 28 33  1  0
 33 34  1  0
 33 35  2  0
 35 36  1  0
 22  3  1  0
 35 23  1  0
 16  7  1  0
M  END
>  <UniqueID>  (12) 
12

>  <SMILES>  (12) 
[H]/N=c1\c(C(=O)c2cccc(Cl)c2)c[nH]n1-c1ccc(C)cc1

>  <Energy>  (12) 
82.25983202868805

>  <Genealogy>  (12) 
[H]/N=c1\c(C(=O)c2cccc(Cl)c2)c[nH]n1-c1ccc(C)cc1 (cis-trans isomerization)
[H]/N=c1\c(C(=O)c2cccc(Cl)c2)c[nH]n1-c1ccc(C)cc1 (3D coordinates assigned)
[H]/N=c1\c(C(=O)c2cccc(Cl)c2)c[nH]n1-c1ccc(C)cc1 (optimized conformer: 82.25983202868805 kcal/mol)

>  <smiles>  (12) 
Cc1ccc(-n2[nH]cc(C(=O)c3cccc(Cl)c3)c2=N)cc1

>  <score_type>  (12) 
oracle

>  <origin>  (12) 
adg

>  <m_score__min__energy>  (12) 
-8.1699999999999999

>  <m_primary>  (12) 
energy

$$$$
12:0
     RDKit          3D

 51 53  0  0  0  0  0  0  0  0999 V2000
   64.5250   34.4670   51.9470 C   0  0  0  0  0  0  0  0  0  0  0  0
   64.1020   34.2190   50.6110 O   0  0  0  0  0  0  0  0  0  0  0  0
   64.2390   32.9680   50.0050 C   0  0  0  0  0  0  0  0  0  0  0  0
   65.2370   32.7120   49.2760 O   0  0  0  0  0  0  0  0  0  0  0  0
   63.1760   31.9320   50.1900 C   0  0  0  0  0  0  0  0  0  0  0  0
   62.5910   31.4690   48.8530 C   0  0  0  0  0  0  0  0  0  0  0  0
   62.6740   32.5280   47.8420 N   0  0  0  0  0  0  0  0  0  0  0  0
   63.7460   32.7730   47.1120 N   0  0  0  0  0  0  0  0  0  0  0  0
   63.4880   33.7320   46.2390 N   0  0  0  0  0  0  0  0  0  0  0  0
   62.2320   34.1300   46.3840 N   0  0  0  0  0  0  0  0  0  0  0  0
   61.7260   33.3750   47.3810 C   0  0  0  0  0  0  0  0  0  0  0  0
   60.3240   33.5280   47.9030 C   0  0  0  0  0  0  0  0  0  0  0  0
   59.3840   32.7360   47.0850 N   0  0  0  0  0  0  0  0  0  0  0  0
   58.2750   33.5250   46.4930 C   0  0  0  0  0  0  0  0  0  0  0  0
   58.3580   33.7670   44.9650 C   0  0  0  0  0  0  0  0  0  0  0  0
   57.7790   32.6430   44.1480 C   0  0  0  0  0  0  0  0  0  0  0  0
   57.9490   32.6130   42.7520 C   0  0  0  0  0  0  0  0  0  0  0  0
   57.3830   31.5820   41.9970 C   0  0  0  0  0  0  0  0  0  0  0  0
   56.6470   30.5740   42.6250 C   0  0  0  0  0  0  0  0  0  0  0  0
   56.4770   30.5940   44.0120 C   0  0  0  0  0  0  0  0  0  0  0  0
   57.0420   31.6220   44.7720 C   0  0  0  0  0  0  0  0  0  0  0  0
   58.9410   31.4790   47.7320 C   0  0  0  0  0  0  0  0  0  0  0  0
   59.2380   30.3190   46.8390 C   0  0  0  0  0  0  0  0  0  0  0  0
   60.3790   30.1560   46.0640 C   0  0  0  0  0  0  0  0  0  0  0  0
   60.3770   28.9650   45.3280 C   0  0  0  0  0  0  0  0  0  0  0  0
   59.2350   28.1960   45.5140 C   0  0  0  0  0  0  0  0  0  0  0  0
   58.2260   28.9990   46.5950 S   0  0  0  0  0  0  0  0  0  0  0  0
   63.7941   34.0385   52.6485 H   0  0  0  0  0  0  0  0  0  0  0  0
   65.5082   34.0023   52.1126 H   0  0  0  0  0  0  0  0  0  0  0  0
   64.5997   35.5519   52.1126 H   0  0  0  0  0  0  0  0  0  0  0  0
   63.6113   31.0643   50.7072 H   0  0  0  0  0  0  0  0  0  0  0  0
   62.3632   32.3793   50.7810 H   0  0  0  0  0  0  0  0  0  0  0  0
   63.1528   30.5915   48.5003 H   0  0  0  0  0  0  0  0  0  0  0  0
   61.5315   31.2158   49.0057 H   0  0  0  0  0  0  0  0  0  0  0  0
   64.6610   32.2750   47.1950 H   0  0  0  0  0  0  0  0  0  0  0  0
   60.2841   33.1764   48.9445 H   0  0  0  0  0  0  0  0  0  0  0  0
   60.0368   34.5886   47.8524 H   0  0  0  0  0  0  0  0  0  0  0  0
   57.3348   32.9926   46.6994 H   0  0  0  0  0  0  0  0  0  0  0  0
   58.3375   34.5208   46.9562 H   0  0  0  0  0  0  0  0  0  0  0  0
   57.8077   34.6894   44.7279 H   0  0  0  0  0  0  0  0  0  0  0  0
   59.4245   33.8400   44.7059 H   0  0  0  0  0  0  0  0  0  0  0  0
   58.5291   33.4033   42.2531 H   0  0  0  0  0  0  0  0  0  0  0  0
   57.5173   31.5641   40.9054 H   0  0  0  0  0  0  0  0  0  0  0  0
   56.2014   29.7648   42.0278 H   0  0  0  0  0  0  0  0  0  0  0  0
   55.8980   29.7999   44.5061 H   0  0  0  0  0  0  0  0  0  0  0  0
   56.9091   31.6319   45.8639 H   0  0  0  0  0  0  0  0  0  0  0  0
   59.4740   31.3516   48.6858 H   0  0  0  0  0  0  0  0  0  0  0  0
   57.8577   31.5275   47.9167 H   0  0  0  0  0  0  0  0  0  0  0  0
   61.1999   30.8875   46.0318 H   0  0  0  0  0  0  0  0  0  0  0  0
   61.2021   28.6662   44.6648 H   0  0  0  0  0  0  0  0  0  0  0  0
   59.0261   27.2275   45.0362 H   0  0  0  0  0  0  0  0  0  0  0  0
  1  2  1  0
  2  3  1  0
  3  4  2  0
  3  5  1  0
  5  6  1  0
  6  7  1  0
  7  8  1  0
  8  9  2  0
  9 10  1  0
 10 11  2  0
 11 12  1  0
 12 13  1  0
 13 14  1  0
 14 15  1  0
 15 16  1  0
 16 17  2  0
 17 18  1  0
 18 19  2  0
 19 20  1  0
 20 21  2  0
 13 22  1  0
 22 23  1  0
 23 24  2  0
 24 25  1  0
 25 26  2  0
 26 27  1  0
 11  7  1  0
 21 16  1  0
 27 23  1  0
  1 28  1  0
  1 29  1  0
  1 30  1  0
  5 31  1  0
  5 32  1  0
  6 33  1  0
  6 34  1  0
  8 35  1  0
 12 36  1  0
 12 37  1  0
 14 38  1  0
 14 39  1  0
 15 40  1  0
 15 41  1  0
 17 42  1  0
 18 43  1  0
 19 44  1  0
 20 45  1  0
 21 46  1  0
 22 47  1  0
 22 48  1  0
 24 49  1  0
 25 50  1  0
 26 51  1  0
M  CHG  1   8   1
M  END
>  <UniqueID>  (13) 
13

>  <SMILES>  (13) 
COC(=O)CCn1[nH+]nnc1CN(CCc1ccccc1)Cc1cccs1

>  <Energy>  (13) 
114.43699446393886

>  <Genealogy>  (13) 
COC(=O)CCn1[nH+]nnc1CN(CCc1ccccc1)Cc1cccs1 (protonated)
COC(=O)CCn1[nH+]nnc1CN(CCc1ccccc1)Cc1cccs1 (3D coordinates assigned)
COC(=O)CCn1[nH+]nnc1CN(CCc1ccccc1)Cc1cccs1 (optimized conformer: 114.43699446393886 kcal/mol)

>  <smiles>  (13) 
COC(=O)CCn1nnnc1CN(CCc1ccccc1)Cc1cccs1

>  <score_type>  (13) 
oracle

>  <origin>  (13) 
adg

>  <m_score__min__energy>  (13) 
-7.8200000000000003

>  <m_primary>  (13) 
energy

$$$$
13:0
     RDKit          3D

 56 58  0  0  0  0  0  0  0  0999 V2000
   66.5670   33.0360   50.1540 C   0  0  0  0  0  0  0  0  0  0  0  0
   65.2740   32.3580   50.3050 N   0  0  0  0  0  0  0  0  0  0  0  0
   65.2170   31.0980   51.0580 C   0  0  0  0  0  0  0  0  0  0  0  0
   64.0740   32.9260   49.7190 C   0  0  0  0  0  0  0  0  0  0  0  0
   63.7890   32.7520   48.3490 C   0  0  0  0  0  0  0  0  0  0  0  0
   62.6310   33.3030   47.8030 C   0  0  0  0  0  0  0  0  0  0  0  0
   61.7470   34.0220   48.6130 C   0  0  0  0  0  0  0  0  0  0  0  0
   60.4770   34.6020   48.0510 C   0  0  0  0  0  0  0  0  0  0  0  0
   60.4150   34.4780   46.5810 N   0  0  0  0  0  0  0  0  0  0  0  0
   59.4970   33.4540   46.0250 C   0  0  0  0  0  0  0  0  0  0  0  0
   58.3630   34.0890   45.1860 C   0  0  0  0  0  0  0  0  0  0  0  0
   57.0440   33.3020   45.2880 C   0  0  0  0  0  0  0  0  0  0  0  0
   57.2650   31.8400   45.2550 N   0  0  0  0  0  0  0  0  0  0  0  0
   57.6960   31.3690   43.9190 C   0  0  0  0  0  0  0  0  0  0  0  0
   57.1580   29.9610   43.6370 C   0  0  0  0  0  0  0  0  0  0  0  0
   57.8170   28.9370   44.5240 C   0  0  0  0  0  0  0  0  0  0  0  0
   59.2170   28.8170   44.5460 C   0  0  0  0  0  0  0  0  0  0  0  0
   59.8280   27.8420   45.3420 C   0  0  0  0  0  0  0  0  0  0  0  0
   59.0460   26.9760   46.1120 C   0  0  0  0  0  0  0  0  0  0  0  0
   57.6520   27.0800   46.0860 C   0  0  0  0  0  0  0  0  0  0  0  0
   57.0380   28.0540   45.2920 C   0  0  0  0  0  0  0  0  0  0  0  0
   58.1350   31.3420   46.3570 C   0  0  0  0  0  0  0  0  0  0  0  0
   58.9560   32.4430   47.0570 C   0  0  0  0  0  0  0  0  0  0  0  0
   62.0630   34.1930   49.9670 C   0  0  0  0  0  0  0  0  0  0  0  0
   63.1970   33.6480   50.4860 N   0  0  0  0  0  0  0  0  0  0  0  0
   66.9845   33.2549   51.1479 H   0  0  0  0  0  0  0  0  0  0  0  0
   67.2599   32.3852   49.6005 H   0  0  0  0  0  0  0  0  0  0  0  0
   66.4257   33.9760   49.6005 H   0  0  0  0  0  0  0  0  0  0  0  0
   65.2268   31.3146   52.1364 H   0  0  0  0  0  0  0  0  0  0  0  0
   64.2935   30.5585   50.8007 H   0  0  0  0  0  0  0  0  0  0  0  0
   66.0880   30.4774   50.8007 H   0  0  0  0  0  0  0  0  0  0  0  0
   64.4804   32.1816   47.7114 H   0  0  0  0  0  0  0  0  0  0  0  0
   62.4123   33.1719   46.7330 H   0  0  0  0  0  0  0  0  0  0  0  0
   59.6195   34.0699   48.4887 H   0  0  0  0  0  0  0  0  0  0  0  0
   60.4519   35.6725   48.3029 H   0  0  0  0  0  0  0  0  0  0  0  0
   61.3830   34.2460   46.2560 H   0  0  0  0  0  0  0  0  0  0  0  0
   60.1236   32.8536   45.3491 H   0  0  0  0  0  0  0  0  0  0  0  0
   58.1907   35.1146   45.5444 H   0  0  0  0  0  0  0  0  0  0  0  0
   58.6792   34.0770   44.1325 H   0  0  0  0  0  0  0  0  0  0  0  0
   56.5465   33.5644   46.2333 H   0  0  0  0  0  0  0  0  0  0  0  0
   56.4214   33.5703   44.4218 H   0  0  0  0  0  0  0  0  0  0  0  0
   57.3152   32.0605   43.1529 H   0  0  0  0  0  0  0  0  0  0  0  0
   58.7953   31.3373   43.8946 H   0  0  0  0  0  0  0  0  0  0  0  0
   56.0733   29.9484   43.8193 H   0  0  0  0  0  0  0  0  0  0  0  0
   57.3788   29.7076   42.5896 H   0  0  0  0  0  0  0  0  0  0  0  0
   59.8346   29.4920   43.9353 H   0  0  0  0  0  0  0  0  0  0  0  0
   60.9245   27.7568   45.3620 H   0  0  0  0  0  0  0  0  0  0  0  0
   59.5281   26.2117   46.7392 H   0  0  0  0  0  0  0  0  0  0  0  0
   57.0381   26.3957   46.6901 H   0  0  0  0  0  0  0  0  0  0  0  0
   55.9408   28.1295   45.2683 H   0  0  0  0  0  0  0  0  0  0  0  0
   57.4959   30.8566   47.1093 H   0  0  0  0  0  0  0  0  0  0  0  0
   58.8574   30.6483   45.9021 H   0  0  0  0  0  0  0  0  0  0  0  0
   58.3136   32.9703   47.7776 H   0  0  0  0  0  0  0  0  0  0  0  0
   59.8060   31.9763   47.5764 H   0  0  0  0  0  0  0  0  0  0  0  0
   61.3894   34.7722   50.6157 H   0  0  0  0  0  0  0  0  0  0  0  0
   63.3690   33.7890   51.5050 H   0  0  0  0  0  0  0  0  0  0  0  0
  1  2  1  0
  2  3  1  0
  2  4  1  0
  4  5  2  0
  5  6  1  0
  6  7  2  0
  7  8  1  0
  8  9  1  0
  9 10  1  0
 10 11  1  0
 11 12  1  0
 12 13  1  0
 13 14  1  0
 14 15  1  0
 15 16  1  0
 16 17  2  0
 17 18  1  0
 18 19  2  0
 19 20  1  0
 20 21  2  0
 13 22  1  0
 22 23  1  0
  7 24  1  0
 24 25  2  0
 25  4  1  0
 23 10  1  0
 21 16  1  0
  1 26  1  0
  1 27  1  0
  1 28  1  0
  3 29  1  0
  3 30  1  0
  3 31  1  0
  5 32  1  0
  6 33  1  0
  8 34  1  0
  8 35  1  0
  9 36  1  0
 10 37  1  0
 11 38  1  0
 11 39  1  0
 12 40  1  0
 12 41  1  0
 14 42  1  0
 14 43  1  0
 15 44  1  0
 15 45  1  0
 17 46  1  0
 18 47  1  0
 19 48  1  0
 20 49  1  0
 21 50  1  0
 22 51  1  0
 22 52  1  0
 23 53  1  0
 23 54  1  0
 24 55  1  0
 25 56  1  0
M  CHG  1  25   1
M  END
>  <UniqueID>  (14) 
14

>  <SMILES>  (14) 
CN(C)c1ccc(CNC2CCN(CCc3ccccc3)CC2)c[nH+]1

>  <Energy>  (14) 
69.80556618567837

>  <Genealogy>  (14) 
CN(C)c1ccc(CNC2CCN(CCc3ccccc3)CC2)c[nH+]1 (protonated)
CN(C)c1ccc(CNC2CCN(CCc3ccccc3)CC2)c[nH+]1 (3D coordinates assigned)
CN(C)c1ccc(CNC2CCN(CCc3ccccc3)CC2)c[nH+]1 (nonaromatic ring conformer: 69.80556618567837 kcal/mol)

>  <smiles>  (14) 
CN(C)c1ccc(CNC2CCN(CCc3ccccc3)CC2)cn1

>  <score_type>  (14) 
oracle

>  <origin>  (14) 
adg

>  <m_score__min__energy>  (14) 
-6.8700000000000001

>  <m_primary>  (14) 
energy

$$$$
14:0
     RDKit          3D

 40 44  0  0  0  0  0  0  0  0999 V2000
   66.4880   32.3160   51.1300 C   0  0  0  0  0  0  0  0  0  0  0  0
   65.2640   32.9090   50.6120 N   0  0  0  0  0  0  0  0  0  0  0  0
   64.7710   32.7380   49.3720 C   0  0  0  0  0  0  0  0  0  0  0  0
   63.5710   33.4150   49.2960 C   0  0  0  0  0  0  0  0  0  0  0  0
   62.6860   33.5820   48.1300 C   0  0  0  0  0  0  0  0  0  0  0  0
   63.1590   33.8680   46.8980 N   0  0  0  0  0  0  0  0  0  0  0  0
   62.0730   33.8370   46.0990 C   0  0  0  0  0  0  0  0  0  0  0  0
   60.9410   33.5560   46.7740 N   0  0  0  0  0  0  0  0  0  0  0  0
   59.6250   33.4720   46.2060 C   0  0  0  0  0  0  0  0  0  0  0  0
   58.9190   34.6390   45.8460 C   0  0  0  0  0  0  0  0  0  0  0  0
   57.6280   34.5500   45.2750 C   0  0  0  0  0  0  0  0  0  0  0  0
   57.0230   33.2970   45.0690 C   0  0  0  0  0  0  0  0  0  0  0  0
   57.7360   32.1640   45.4500 C   0  0  0  0  0  0  0  0  0  0  0  0
   57.3390   30.8820   45.3820 N   0  0  0  0  0  0  0  0  0  0  0  0
   58.3190   30.1390   45.8900 N   0  0  0  0  0  0  0  0  0  0  0  0
   59.3350   30.9460   46.2810 C   0  0  0  0  0  0  0  0  0  0  0  0
   58.9840   32.2460   46.0000 C   0  0  0  0  0  0  0  0  0  0  0  0
   61.3110   33.3950   48.0620 C   0  0  0  0  0  0  0  0  0  0  0  0
   60.3840   33.0800   49.1670 C   0  0  0  0  0  0  0  0  0  0  0  0
   59.8430   31.7940   49.3090 C   0  0  0  0  0  0  0  0  0  0  0  0
   59.0030   31.5190   50.3890 C   0  0  0  0  0  0  0  0  0  0  0  0
   58.7210   32.5190   51.3220 C   0  0  0  0  0  0  0  0  0  0  0  0
   59.2890   33.7840   51.1590 C   0  0  0  0  0  0  0  0  0  0  0  0
   60.1030   34.0330   50.0980 N   0  0  0  0  0  0  0  0  0  0  0  0
   63.4040   33.9930   50.5410 C   0  0  0  0  0  0  0  0  0  0  0  0
   64.4420   33.6580   51.3310 N   0  0  0  0  0  0  0  0  0  0  0  0
   66.4642   32.3275   52.2297 H   0  0  0  0  0  0  0  0  0  0  0  0
   66.5709   31.2779   50.7759 H   0  0  0  0  0  0  0  0  0  0  0  0
   67.3541   32.8944   50.7759 H   0  0  0  0  0  0  0  0  0  0  0  0
   65.2412   32.1608   48.5622 H   0  0  0  0  0  0  0  0  0  0  0  0
   62.1074   34.0209   45.0150 H   0  0  0  0  0  0  0  0  0  0  0  0
   59.3760   35.6259   46.0106 H   0  0  0  0  0  0  0  0  0  0  0  0
   57.0930   35.4678   44.9898 H   0  0  0  0  0  0  0  0  0  0  0  0
   56.0211   33.2154   44.6223 H   0  0  0  0  0  0  0  0  0  0  0  0
   60.2777   30.6181   46.7433 H   0  0  0  0  0  0  0  0  0  0  0  0
   60.0787   31.0089   48.5755 H   0  0  0  0  0  0  0  0  0  0  0  0
   58.5641   30.5170   50.5050 H   0  0  0  0  0  0  0  0  0  0  0  0
   58.0588   32.3124   52.1757 H   0  0  0  0  0  0  0  0  0  0  0  0
   59.0782   34.5795   51.8888 H   0  0  0  0  0  0  0  0  0  0  0  0
   62.5561   34.6271   50.8394 H   0  0  0  0  0  0  0  0  0  0  0  0
  1  2  1  0
  2  3  1  0
  3  4  2  0
  4  5  1  0
  5  6  1  0
  6  7  2  0
  7  8  1  0
  8  9  1  0
  9 10  2  0
 10 11  1  0
 11 12  2  0
 12 13  1  0
 13 14  1  0
 14 15  1  0
 15 16  2  0
 16 17  1  0
  8 18  1  0
 18 19  1  0
 19 20  2  0
 20 21  1  0
 21 22  2  0
 22 23  1  0
 23 24  2  0
  4 25  1  0
 25 26  2  0
 26  2  1  0
 18  5  2  0
 24 19  1  0
 17  9  1  0
 17 13  2  0
  1 27  1  0
  1 28  1  0
  1 29  1  0
  3 30  1  0
  7 31  1  0
 10 32  1  0
 11 33  1  0
 12 34  1  0
 16 35  1  0
 20 36  1  0
 21 37  1  0
 22 38  1  0
 23 39  1  0
 25 40  1  0
M  CHG  1  14  -1
M  END
>  <UniqueID>  (15) 
15

>  <SMILES>  (15) 
Cn1cc(-c2ncn(-c3cccc4[n-]ncc34)c2-c2ccccn2)cn1

>  <Energy>  (15) 
155.01307300473806

>  <Genealogy>  (15) 
Cn1cc(-c2ncn(-c3cccc4[n-]ncc34)c2-c2ccccn2)cn1 (protonated)
Cn1cc(-c2ncn(-c3cccc4[n-]ncc34)c2-c2ccccn2)cn1 (3D coordinates assigned)
Cn1cc(-c2ncn(-c3cccc4[n-]ncc34)c2-c2ccccn2)cn1 (optimized conformer: 155.01307300473806 kcal/mol)

>  <smiles>  (15) 
Cn1cc(-c2ncn(-c3cccc4[nH]ncc34)c2-c2ccccn2)cn1

>  <score_type>  (15) 
oracle

>  <origin>  (15) 
adg

>  <m_score__min__energy>  (15) 
-9.3599999999999994

>  <m_primary>  (15) 
energy

$$$$
15:0
     RDKit          3D

 33 34  0  0  0  0  0  0  0  0999 V2000
   61.5660   33.5290   48.5040 C   0  0  0  0  0  0  0  0  0  0  0  0
   61.4610   33.4470   47.0380 N   0  0  0  0  0  0  0  0  0  0  0  0
   62.7210   33.8680   46.4040 C   0  0  0  0  0  0  0  0  0  0  0  0
   60.3620   34.2690   46.5710 C   0  0  0  0  0  0  0  0  0  0  0  0
   59.9690   35.2100   47.2480 O   0  0  0  0  0  0  0  0  0  0  0  0
   59.6590   33.9670   45.2710 C   0  0  0  0  0  0  0  0  0  0  0  0
   58.6900   32.8770   45.4550 N   0  0  0  0  0  0  0  0  0  0  0  0
   58.3170   32.4610   46.8160 C   0  0  0  0  0  0  0  0  0  0  0  0
   58.2970   30.9350   46.9010 C   0  0  0  0  0  0  0  0  0  0  0  0
   57.4710   30.3970   45.8690 O   0  0  0  0  0  0  0  0  0  0  0  0
   57.4480   30.9490   44.5830 C   0  0  0  0  0  0  0  0  0  0  0  0
   56.7990   30.2690   43.5480 C   0  0  0  0  0  0  0  0  0  0  0  0
   56.7770   30.8110   42.2600 C   0  0  0  0  0  0  0  0  0  0  0  0
   57.4010   32.0360   42.0060 C   0  0  0  0  0  0  0  0  0  0  0  0
   57.3670   32.7160   40.3890 Cl  0  0  0  0  0  0  0  0  0  0  0  0
   58.0450   32.7250   43.0400 C   0  0  0  0  0  0  0  0  0  0  0  0
   58.0690   32.1900   44.3420 C   0  0  0  0  0  0  0  0  0  0  0  0
   60.7781   32.9137   48.9630 H   0  0  0  0  0  0  0  0  0  0  0  0
   62.5520   33.1594   48.8222 H   0  0  0  0  0  0  0  0  0  0  0  0
   61.4464   34.5751   48.8222 H   0  0  0  0  0  0  0  0  0  0  0  0
   61.2930   32.4450   46.7870 H   0  0  0  0  0  0  0  0  0  0  0  0
   63.4585   34.1144   47.1820 H   0  0  0  0  0  0  0  0  0  0  0  0
   63.1077   33.0502   45.7781 H   0  0  0  0  0  0  0  0  0  0  0  0
   62.5384   34.7539   45.7781 H   0  0  0  0  0  0  0  0  0  0  0  0
   59.1302   34.8681   44.9268 H   0  0  0  0  0  0  0  0  0  0  0  0
   60.4056   33.6591   44.5241 H   0  0  0  0  0  0  0  0  0  0  0  0
   59.0504   32.8576   47.5335 H   0  0  0  0  0  0  0  0  0  0  0  0
   57.3172   32.8523   47.0554 H   0  0  0  0  0  0  0  0  0  0  0  0
   59.3211   30.5507   46.7847 H   0  0  0  0  0  0  0  0  0  0  0  0
   57.8931   30.6342   47.8789 H   0  0  0  0  0  0  0  0  0  0  0  0
   56.3053   29.3065   43.7477 H   0  0  0  0  0  0  0  0  0  0  0  0
   56.2686   30.2736   41.4459 H   0  0  0  0  0  0  0  0  0  0  0  0
   58.5344   33.6885   42.8346 H   0  0  0  0  0  0  0  0  0  0  0  0
  1  2  1  0
  2  3  1  0
  2  4  1  0
  4  5  2  0
  4  6  1  0
  6  7  1  0
  7  8  1  0
  8  9  1  0
  9 10  1  0
 10 11  1  0
 11 12  2  0
 12 13  1  0
 13 14  2  0
 14 15  1  0
 14 16  1  0
 16 17  2  0
 17  7  1  0
 17 11  1  0
  1 18  1  0
  1 19  1  0
  1 20  1  0
  2 21  1  0
  3 22  1  0
  3 23  1  0
  3 24  1  0
  6 25  1  0
  6 26  1  0
  8 27  1  0
  8 28  1  0
  9 29  1  0
  9 30  1  0
 12 31  1  0
 13 32  1  0
 16 33  1  0
M  CHG  1   2   1
M  END
>  <UniqueID>  (16) 
16

>  <SMILES>  (16) 
C[NH+](C)C(=O)CN1CCOc2ccc(Cl)cc21

>  <Energy>  (16) 
31.719639532704946

>  <Genealogy>  (16) 
C[NH+](C)C(=O)CN1CCOc2ccc(Cl)cc21 (protonated)
C[NH+](C)C(=O)CN1CCOc2ccc(Cl)cc21 (3D coordinates assigned)
C[NH+](C)C(=O)CN1CCOc2ccc(Cl)cc21 (nonaromatic ring conformer: 31.719639532704946 kcal/mol)

>  <smiles>  (16) 
CN(C)C(=O)CN1CCOc2ccc(Cl)cc21

>  <score_type>  (16) 
oracle

>  <origin>  (16) 
adg

>  <m_score__min__energy>  (16) 
-4.9000000000000004

>  <m_primary>  (16) 
energy

$$$$
16:0
     RDKit          3D

 42 45  0  0  0  0  0  0  0  0999 V2000
   65.4500   32.6240   49.7940 C   0  0  0  0  0  0  0  0  0  0  0  0
   64.1840   32.4930   49.0580 N   0  0  0  0  0  0  0  0  0  0  0  0
   64.1260   33.4670   47.9570 C   0  0  0  0  0  0  0  0  0  0  0  0
   62.9610   33.0970   47.0390 C   0  0  0  0  0  0  0  0  0  0  0  0
   61.7800   32.7180   47.8210 N   0  0  0  0  0  0  0  0  0  0  0  0
   60.6260   32.2050   47.1320 C   0  0  0  0  0  0  0  0  0  0  0  0
   60.3230   30.8770   47.2190 N   0  0  0  0  0  0  0  0  0  0  0  0
   59.2360   30.3500   46.5770 C   0  0  0  0  0  0  0  0  0  0  0  0
   58.9100   28.9050   46.6750 C   0  0  0  0  0  0  0  0  0  0  0  0
   59.7230   28.0220   47.4110 C   0  0  0  0  0  0  0  0  0  0  0  0
   59.4040   26.6620   47.4860 C   0  0  0  0  0  0  0  0  0  0  0  0
   58.2780   26.1680   46.8250 C   0  0  0  0  0  0  0  0  0  0  0  0
   57.4700   27.0310   46.0820 C   0  0  0  0  0  0  0  0  0  0  0  0
   57.7840   28.3910   46.0030 C   0  0  0  0  0  0  0  0  0  0  0  0
   58.4280   31.1660   45.8460 N   0  0  0  0  0  0  0  0  0  0  0  0
   58.6900   32.4900   45.7290 C   0  0  0  0  0  0  0  0  0  0  0  0
   57.8710   33.3230   44.9660 C   0  0  0  0  0  0  0  0  0  0  0  0
   58.1740   34.6430   44.8530 N   0  0  0  0  0  0  0  0  0  0  0  0
   59.2660   35.1680   45.4720 C   0  0  0  0  0  0  0  0  0  0  0  0
   60.0740   34.3730   46.2210 N   0  0  0  0  0  0  0  0  0  0  0  0
   59.8050   33.0470   46.3670 C   0  0  0  0  0  0  0  0  0  0  0  0
   61.7160   33.0130   49.2570 C   0  0  0  0  0  0  0  0  0  0  0  0
   63.0330   32.6450   49.9780 C   0  0  0  0  0  0  0  0  0  0  0  0
   65.2493   32.6032   50.8753 H   0  0  0  0  0  0  0  0  0  0  0  0
   66.1164   31.7900   49.5287 H   0  0  0  0  0  0  0  0  0  0  0  0
   65.9315   33.5768   49.5287 H   0  0  0  0  0  0  0  0  0  0  0  0
   63.9709   34.4772   48.3637 H   0  0  0  0  0  0  0  0  0  0  0  0
   65.0694   33.4514   47.3916 H   0  0  0  0  0  0  0  0  0  0  0  0
   62.7120   33.9618   46.4064 H   0  0  0  0  0  0  0  0  0  0  0  0
   63.2611   32.2406   46.4173 H   0  0  0  0  0  0  0  0  0  0  0  0
   60.9160   30.2710   47.8290 H   0  0  0  0  0  0  0  0  0  0  0  0
   60.6144   28.4038   47.9302 H   0  0  0  0  0  0  0  0  0  0  0  0
   60.0420   25.9801   48.0673 H   0  0  0  0  0  0  0  0  0  0  0  0
   58.0273   25.0989   46.8895 H   0  0  0  0  0  0  0  0  0  0  0  0
   56.5852   26.6402   45.5581 H   0  0  0  0  0  0  0  0  0  0  0  0
   57.1468   29.0648   45.4115 H   0  0  0  0  0  0  0  0  0  0  0  0
   56.9850   32.9136   44.4587 H   0  0  0  0  0  0  0  0  0  0  0  0
   59.4952   36.2386   45.3658 H   0  0  0  0  0  0  0  0  0  0  0  0
   61.5248   34.0879   49.3915 H   0  0  0  0  0  0  0  0  0  0  0  0
   60.9068   32.4097   49.6942 H   0  0  0  0  0  0  0  0  0  0  0  0
   63.2678   33.4390   50.7022 H   0  0  0  0  0  0  0  0  0  0  0  0
   62.8757   31.6715   50.4653 H   0  0  0  0  0  0  0  0  0  0  0  0
  1  2  1  0
  2  3  1  0
  3  4  1  0
  4  5  1  0
  5  6  1  0
  6  7  2  0
  7  8  1  0
  8  9  1  0
  9 10  2  0
 10 11  1  0
 11 12  2  0
 12 13  1  0
 13 14  2  0
  8 15  2  0
 15 16  1  0
 16 17  2  0
 17 18  1  0
 18 19  2  0
 19 20  1  0
 20 21  2  0
  5 22  1  0
 22 23  1  0
 23  2  1  0
 21  6  1  0
 14  9  1  0
 21 16  1  0
  1 24  1  0
  1 25  1  0
  1 26  1  0
  3 27  1  0
  3 28  1  0
  4 29  1  0
  4 30  1  0
  7 31  1  0
 10 32  1  0
 11 33  1  0
 12 34  1  0
 13 35  1  0
 14 36  1  0
 17 37  1  0
 19 38  1  0
 22 39  1  0
 22 40  1  0
 23 41  1  0
 23 42  1  0
M  CHG  1   7   1
M  END
>  <UniqueID>  (17) 
17

>  <SMILES>  (17) 
CN1CCN(c2[nH+]c(-c3ccccc3)nc3cncnc23)CC1

>  <Energy>  (17) 
62.65815264419121

>  <Genealogy>  (17) 
CN1CCN(c2[nH+]c(-c3ccccc3)nc3cncnc23)CC1 (protonated)
CN1CCN(c2[nH+]c(-c3ccccc3)nc3cncnc23)CC1 (3D coordinates assigned)
CN1CCN(c2[nH+]c(-c3ccccc3)nc3cncnc23)CC1 (nonaromatic ring conformer: 62.65815264419121 kcal/mol)

>  <smiles>  (17) 
CN1CCN(c2nc(-c3ccccc3)nc3cncnc23)CC1

>  <score_type>  (17) 
oracle

>  <origin>  (17) 
adg

>  <m_score__min__energy>  (17) 
-5.3799999999999999

>  <m_primary>  (17) 
energy

$$$$
17:0
     RDKit          3D

 37 40  0  0  0  0  0  0  0  0999 V2000
   59.2650   33.9520   43.6210 F   0  0  0  0  0  0  0  0  0  0  0  0
   59.2020   33.9980   44.9760 C   0  0  0  0  0  0  0  0  0  0  0  0
   59.5810   35.1750   45.6320 C   0  0  0  0  0  0  0  0  0  0  0  0
   59.4770   35.2710   47.0210 C   0  0  0  0  0  0  0  0  0  0  0  0
   58.9890   34.1930   47.7600 C   0  0  0  0  0  0  0  0  0  0  0  0
   58.6070   33.0110   47.1150 C   0  0  0  0  0  0  0  0  0  0  0  0
   58.1510   31.9720   47.8600 F   0  0  0  0  0  0  0  0  0  0  0  0
   58.7200   32.9000   45.7150 C   0  0  0  0  0  0  0  0  0  0  0  0
   58.3070   31.6570   45.0310 C   0  0  0  0  0  0  0  0  0  0  0  0
   58.7860   30.5200   45.4520 N   0  0  0  0  0  0  0  0  0  0  0  0
   58.4310   29.3060   44.8440 N   0  0  0  0  0  0  0  0  0  0  0  0
   59.0940   28.1380   44.8360 C   0  0  0  0  0  0  0  0  0  0  0  0
   60.3440   27.8530   45.6110 C   0  0  0  0  0  0  0  0  0  0  0  0
   60.3740   28.6690   46.8740 C   0  0  0  0  0  0  0  0  0  0  0  0
   61.1410   29.8450   46.9340 C   0  0  0  0  0  0  0  0  0  0  0  0
   61.1960   30.5900   48.1160 C   0  0  0  0  0  0  0  0  0  0  0  0
   60.4930   30.1630   49.2470 C   0  0  0  0  0  0  0  0  0  0  0  0
   59.7350   28.9910   49.1970 C   0  0  0  0  0  0  0  0  0  0  0  0
   59.6750   28.2440   48.0170 C   0  0  0  0  0  0  0  0  0  0  0  0
   58.5040   27.2600   43.9900 N   0  0  0  0  0  0  0  0  0  0  0  0
   57.4610   27.8930   43.4620 N   0  0  0  0  0  0  0  0  0  0  0  0
   57.4240   29.1290   43.9900 C   0  0  0  0  0  0  0  0  0  0  0  0
   56.2330   30.4110   43.6390 S   0  0  0  0  0  0  0  0  0  0  0  0
   57.5090   31.7220   43.7360 C   0  0  0  0  0  0  0  0  0  0  0  0
   59.9623   36.0276   45.0509 H   0  0  0  0  0  0  0  0  0  0  0  0
   59.7798   36.1965   47.5326 H   0  0  0  0  0  0  0  0  0  0  0  0
   58.9041   34.2723   48.8538 H   0  0  0  0  0  0  0  0  0  0  0  0
   60.3750   26.7841   45.8690 H   0  0  0  0  0  0  0  0  0  0  0  0
   61.2152   28.1177   44.9938 H   0  0  0  0  0  0  0  0  0  0  0  0
   61.7000   30.1806   46.0481 H   0  0  0  0  0  0  0  0  0  0  0  0
   61.7929   31.5131   48.1563 H   0  0  0  0  0  0  0  0  0  0  0  0
   60.5370   30.7502   50.1761 H   0  0  0  0  0  0  0  0  0  0  0  0
   59.1841   28.6551   50.0879 H   0  0  0  0  0  0  0  0  0  0  0  0
   59.0786   27.3203   47.9828 H   0  0  0  0  0  0  0  0  0  0  0  0
   56.7990   27.4840   42.7670 H   0  0  0  0  0  0  0  0  0  0  0  0
   58.2003   31.6061   42.8883 H   0  0  0  0  0  0  0  0  0  0  0  0
   56.9955   32.6943   43.7056 H   0  0  0  0  0  0  0  0  0  0  0  0
  1  2  1  0
  2  3  2  0
  3  4  1  0
  4  5  2  0
  5  6  1  0
  6  7  1  0
  6  8  2  0
  8  9  1  0
  9 10  2  0
 10 11  1  0
 11 12  1  0
 12 13  1  0
 13 14  1  0
 14 15  2  0
 15 16  1  0
 16 17  2  0
 17 18  1  0
 18 19  2  0
 12 20  2  0
 20 21  1  0
 21 22  2  0
 22 23  1  0
 23 24  1  0
  8  2  1  0
 24  9  1  0
 22 11  1  0
 19 14  1  0
  3 25  1  0
  4 26  1  0
  5 27  1  0
 13 28  1  0
 13 29  1  0
 15 30  1  0
 16 31  1  0
 17 32  1  0
 18 33  1  0
 19 34  1  0
 21 35  1  0
 24 36  1  0
 24 37  1  0
M  CHG  1  21   1
M  END
>  <UniqueID>  (18) 
18

>  <SMILES>  (18) 
Fc1cccc(F)c1C1=Nn2c(Cc3ccccc3)n[nH+]c2SC1

>  <Energy>  (18) 
89.30987845543756

>  <Genealogy>  (18) 
Fc1cccc(F)c1C1=Nn2c(Cc3ccccc3)n[nH+]c2SC1 (protonated)
Fc1cccc(F)c1C1=Nn2c(Cc3ccccc3)n[nH+]c2SC1 (3D coordinates assigned)
Fc1cccc(F)c1C1=Nn2c(Cc3ccccc3)n[nH+]c2SC1 (nonaromatic ring conformer: 89.30987845543756 kcal/mol)

>  <smiles>  (18) 
Fc1cccc(F)c1C1=Nn2c(Cc3ccccc3)nnc2SC1

>  <score_type>  (18) 
oracle

>  <origin>  (18) 
adg

>  <m_score__min__energy>  (18) 
-6.9199999999999999

>  <m_primary>  (18) 
energy

$$$$
18:0
     RDKit          3D

 23 24  0  0  0  0  0  0  0  0999 V2000
   59.2790   34.5350   47.7730 C   0  0  0  0  0  0  0  0  0  0  0  0
   58.8890   33.7110   46.5820 C   0  0  0  0  0  0  0  0  0  0  0  0
   58.4470   34.3370   45.4060 C   0  0  0  0  0  0  0  0  0  0  0  0
   58.0470   33.5720   44.3050 C   0  0  0  0  0  0  0  0  0  0  0  0
   58.0730   32.1680   44.3750 C   0  0  0  0  0  0  0  0  0  0  0  0
   57.6820   31.3530   43.3000 C   0  0  0  0  0  0  0  0  0  0  0  0
   57.2910   31.8620   42.2150 O   0  0  0  0  0  0  0  0  0  0  0  0
   57.7240   29.9970   43.4300 N   0  0  0  0  0  0  0  0  0  0  0  0
   58.1390   29.4070   44.5890 C   0  0  0  0  0  0  0  0  0  0  0  0
   58.1740   27.9020   44.7040 C   0  0  0  0  0  0  0  0  0  0  0  0
   59.6580   27.3990   45.5510 Cl  0  0  0  0  0  0  0  0  0  0  0  0
   58.1470   27.1010   43.1060 Cl  0  0  0  0  0  0  0  0  0  0  0  0
   56.7590   27.3390   45.6290 Cl  0  0  0  0  0  0  0  0  0  0  0  0
   58.5210   30.1860   45.6380 N   0  0  0  0  0  0  0  0  0  0  0  0
   58.5000   31.5400   45.5620 C   0  0  0  0  0  0  0  0  0  0  0  0
   58.8980   32.3100   46.6590 C   0  0  0  0  0  0  0  0  0  0  0  0
   59.0220   33.9921   48.6945 H   0  0  0  0  0  0  0  0  0  0  0  0
   60.3623   34.7244   47.7490 H   0  0  0  0  0  0  0  0  0  0  0  0
   58.7387   35.4929   47.7490 H   0  0  0  0  0  0  0  0  0  0  0  0
   58.4149   35.4351   45.3497 H   0  0  0  0  0  0  0  0  0  0  0  0
   57.7116   34.0697   43.3832 H   0  0  0  0  0  0  0  0  0  0  0  0
   57.4300   29.4020   42.6210 H   0  0  0  0  0  0  0  0  0  0  0  0
   59.2198   31.8150   47.5871 H   0  0  0  0  0  0  0  0  0  0  0  0
  1  2  1  0
  2  3  2  0
  3  4  1  0
  4  5  2  0
  5  6  1  0
  6  7  2  0
  6  8  1  0
  8  9  1  0
  9 10  1  0
 10 11  1  0
 10 12  1  0
 10 13  1  0
  9 14  2  0
 14 15  1  0
 15 16  2  0
 16  2  1  0
 15  5  1  0
  1 17  1  0
  1 18  1  0
  1 19  1  0
  3 20  1  0
  4 21  1  0
  8 22  1  0
 16 23  1  0
M  END
>  <UniqueID>  (19) 
19

>  <SMILES>  (19) 
Cc1ccc2c(=O)[nH]c(C(Cl)(Cl)Cl)nc2c1

>  <Energy>  (19) 
27.32460804914942

>  <Genealogy>  (19) 
Cc1ccc2c(=O)[nH]c(C(Cl)(Cl)Cl)nc2c1 (3D coordinates assigned)
Cc1ccc2c(=O)[nH]c(C(Cl)(Cl)Cl)nc2c1 (optimized conformer: 27.32460804914942 kcal/mol)

>  <smiles>  (19) 
Cc1ccc2c(=O)[nH]c(C(Cl)(Cl)Cl)nc2c1

>  <score_type>  (19) 
oracle

>  <origin>  (19) 
adg

>  <m_score__min__energy>  (19) 
-6.5700000000000003

>  <m_primary>  (19) 
energy

$$$$
19:0
     RDKit          3D

 45 47  0  0  0  0  0  0  0  0999 V2000
   55.7610   29.7170   43.4940 C   0  0  0  0  0  0  0  0  0  0  0  0
   56.0440   29.8950   44.8640 O   0  0  0  0  0  0  0  0  0  0  0  0
   57.2070   29.1730   45.2260 C   0  0  0  0  0  0  0  0  0  0  0  0
   58.4670   29.8870   44.7250 C   0  0  0  0  0  0  0  0  0  0  0  0
   58.4550   31.3060   45.1100 N   0  0  0  0  0  0  0  0  0  0  0  0
   58.6920   31.8120   46.3500 C   0  0  0  0  0  0  0  0  0  0  0  0
   58.8950   31.0040   47.5990 C   0  0  0  0  0  0  0  0  0  0  0  0
   58.5490   33.1940   46.3040 C   0  0  0  0  0  0  0  0  0  0  0  0
   58.5390   34.1680   47.4480 C   0  0  0  0  0  0  0  0  0  0  0  0
   59.7140   33.9630   48.2980 N   0  0  0  0  0  0  0  0  0  0  0  0
   59.6490   33.7680   49.7480 C   0  0  0  0  0  0  0  0  0  0  0  0
   61.0980   33.4890   50.2090 C   0  0  0  0  0  0  0  0  0  0  0  0
   61.8800   33.5370   48.9430 C   0  0  0  0  0  0  0  0  0  0  0  0
   63.2530   33.3510   48.7780 C   0  0  0  0  0  0  0  0  0  0  0  0
   63.7930   33.4550   47.4860 C   0  0  0  0  0  0  0  0  0  0  0  0
   62.9580   33.7480   46.3920 C   0  0  0  0  0  0  0  0  0  0  0  0
   61.5790   33.9340   46.5830 C   0  0  0  0  0  0  0  0  0  0  0  0
   61.0630   33.8120   47.8790 C   0  0  0  0  0  0  0  0  0  0  0  0
   58.2250   33.4600   44.9910 C   0  0  0  0  0  0  0  0  0  0  0  0
   57.9530   34.5960   44.5170 O   0  0  0  0  0  0  0  0  0  0  0  0
   58.1970   32.3150   44.2810 N   0  0  0  0  0  0  0  0  0  0  0  0
   57.7840   32.1880   42.8820 C   0  0  0  0  0  0  0  0  0  0  0  0
   54.8346   29.1343   43.3837 H   0  0  0  0  0  0  0  0  0  0  0  0
   55.6356   30.6992   43.0149 H   0  0  0  0  0  0  0  0  0  0  0  0
   56.5920   29.1787   43.0149 H   0  0  0  0  0  0  0  0  0  0  0  0
   57.2522   29.0875   46.3217 H   0  0  0  0  0  0  0  0  0  0  0  0
   57.1604   28.1747   44.7663 H   0  0  0  0  0  0  0  0  0  0  0  0
   59.3529   29.4029   45.1619 H   0  0  0  0  0  0  0  0  0  0  0  0
   58.4949   29.8212   43.6273 H   0  0  0  0  0  0  0  0  0  0  0  0
   58.7344   31.6434   48.4795 H   0  0  0  0  0  0  0  0  0  0  0  0
   58.1786   30.1694   47.6163 H   0  0  0  0  0  0  0  0  0  0  0  0
   59.9208   30.6071   47.6163 H   0  0  0  0  0  0  0  0  0  0  0  0
   58.5520   35.1940   47.0516 H   0  0  0  0  0  0  0  0  0  0  0  0
   57.6306   34.0080   48.0473 H   0  0  0  0  0  0  0  0  0  0  0  0
   59.2602   34.6730   50.2378 H   0  0  0  0  0  0  0  0  0  0  0  0
   58.9767   32.9383   50.0119 H   0  0  0  0  0  0  0  0  0  0  0  0
   61.4421   34.2607   50.9134 H   0  0  0  0  0  0  0  0  0  0  0  0
   61.2019   32.5319   50.7411 H   0  0  0  0  0  0  0  0  0  0  0  0
   63.8979   33.1279   49.6407 H   0  0  0  0  0  0  0  0  0  0  0  0
   64.8716   33.3070   47.3287 H   0  0  0  0  0  0  0  0  0  0  0  0
   63.3872   33.8318   45.3826 H   0  0  0  0  0  0  0  0  0  0  0  0
   60.9199   34.1699   45.7345 H   0  0  0  0  0  0  0  0  0  0  0  0
   56.7334   31.8649   42.8377 H   0  0  0  0  0  0  0  0  0  0  0  0
   57.8902   33.1603   42.3786 H   0  0  0  0  0  0  0  0  0  0  0  0
   58.4181   31.4433   42.3786 H   0  0  0  0  0  0  0  0  0  0  0  0
  1  2  1  0
  2  3  1  0
  3  4  1  0
  4  5  1  0
  5  6  1  0
  6  7  1  0
  6  8  2  0
  8  9  1  0
  9 10  1  0
 10 11  1  0
 11 12  1  0
 12 13  1  0
 13 14  2  0
 14 15  1  0
 15 16  2  0
 16 17  1  0
 17 18  2  0
  8 19  1  0
 19 20  2  0
 19 21  1  0
 21 22  1  0
 21  5  1  0
 18 10  1  0
 18 13  1  0
  1 23  1  0
  1 24  1  0
  1 25  1  0
  3 26  1  0
  3 27  1  0
  4 28  1  0
  4 29  1  0
  7 30  1  0
  7 31  1  0
  7 32  1  0
  9 33  1  0
  9 34  1  0
 11 35  1  0
 11 36  1  0
 12 37  1  0
 12 38  1  0
 14 39  1  0
 15 40  1  0
 16 41  1  0
 17 42  1  0
 22 43  1  0
 22 44  1  0
 22 45  1  0
M  END
>  <UniqueID>  (20) 
20

>  <SMILES>  (20) 
COCCn1c(C)c(CN2CCc3ccccc32)c(=O)n1C

>  <Energy>  (20) 
91.15669209976974

>  <Genealogy>  (20) 
COCCn1c(C)c(CN2CCc3ccccc32)c(=O)n1C (3D coordinates assigned)
COCCn1c(C)c(CN2CCc3ccccc32)c(=O)n1C (nonaromatic ring conformer: 91.15669209976974 kcal/mol)

>  <smiles>  (20) 
COCCn1c(C)c(CN2CCc3ccccc32)c(=O)n1C

>  <score_type>  (20) 
oracle

>  <origin>  (20) 
adg

>  <m_score__min__energy>  (20) 
-7.3899999999999997

>  <m_primary>  (20) 
energy

$$$$
20:0
     RDKit          3D

 44 46  0  0  0  0  0  0  0  0999 V2000
   62.3440   33.6570   50.4320 C   0  0  0  0  0  0  0  0  0  0  0  0
   61.2350   32.8770   51.0140 N   0  0  0  0  0  0  0  0  0  0  0  0
   61.4080   31.4540   50.6670 C   0  0  0  0  0  0  0  0  0  0  0  0
   59.9130   33.3780   50.5440 C   0  0  0  0  0  0  0  0  0  0  0  0
   60.0210   34.2610   49.2850 C   0  0  0  0  0  0  0  0  0  0  0  0
   59.4690   33.5840   48.0590 C   0  0  0  0  0  0  0  0  0  0  0  0
   59.1020   32.2150   48.1030 C   0  0  0  0  0  0  0  0  0  0  0  0
   58.5300   31.5900   46.9820 C   0  0  0  0  0  0  0  0  0  0  0  0
   58.3390   32.3570   45.8320 C   0  0  0  0  0  0  0  0  0  0  0  0
   58.6980   33.6790   45.7840 C   0  0  0  0  0  0  0  0  0  0  0  0
   58.3610   34.1570   44.5350 C   0  0  0  0  0  0  0  0  0  0  0  0
   57.7950   33.0770   43.8670 C   0  0  0  0  0  0  0  0  0  0  0  0
   57.7860   31.9840   44.6640 N   0  0  0  0  0  0  0  0  0  0  0  0
   57.1100   30.4360   44.2690 S   0  0  0  0  0  0  0  0  0  0  0  0
   55.7310   30.3170   44.8550 O   0  0  0  0  0  0  0  0  0  0  0  0
   57.0230   30.3120   42.7740 O   0  0  0  0  0  0  0  0  0  0  0  0
   58.1270   29.1620   44.9330 C   0  0  0  0  0  0  0  0  0  0  0  0
   57.5520   28.0680   45.5950 C   0  0  0  0  0  0  0  0  0  0  0  0
   58.3660   27.0520   46.1090 C   0  0  0  0  0  0  0  0  0  0  0  0
   59.7540   27.1260   45.9650 C   0  0  0  0  0  0  0  0  0  0  0  0
   60.3320   28.2180   45.3100 C   0  0  0  0  0  0  0  0  0  0  0  0
   59.5220   29.2360   44.7980 C   0  0  0  0  0  0  0  0  0  0  0  0
   59.2640   34.3290   46.8770 C   0  0  0  0  0  0  0  0  0  0  0  0
   62.9542   34.0862   51.2404 H   0  0  0  0  0  0  0  0  0  0  0  0
   62.9690   32.9985   49.8109 H   0  0  0  0  0  0  0  0  0  0  0  0
   61.9356   34.4678   49.8109 H   0  0  0  0  0  0  0  0  0  0  0  0
   61.3030   32.9470   52.0570 H   0  0  0  0  0  0  0  0  0  0  0  0
   61.4805   30.8580   51.5887 H   0  0  0  0  0  0  0  0  0  0  0  0
   60.5447   31.1129   50.0767 H   0  0  0  0  0  0  0  0  0  0  0  0
   62.3279   31.3297   50.0767 H   0  0  0  0  0  0  0  0  0  0  0  0
   59.2718   32.5144   50.3135 H   0  0  0  0  0  0  0  0  0  0  0  0
   59.4895   33.9982   51.3477 H   0  0  0  0  0  0  0  0  0  0  0  0
   59.4602   35.1915   49.4572 H   0  0  0  0  0  0  0  0  0  0  0  0
   61.0879   34.4601   49.1060 H   0  0  0  0  0  0  0  0  0  0  0  0
   59.2667   31.6365   49.0240 H   0  0  0  0  0  0  0  0  0  0  0  0
   58.2417   30.5288   47.0101 H   0  0  0  0  0  0  0  0  0  0  0  0
   58.5087   35.1765   44.1492 H   0  0  0  0  0  0  0  0  0  0  0  0
   57.4095   33.1070   42.8372 H   0  0  0  0  0  0  0  0  0  0  0  0
   56.4597   28.0081   45.7106 H   0  0  0  0  0  0  0  0  0  0  0  0
   57.9125   26.1941   46.6270 H   0  0  0  0  0  0  0  0  0  0  0  0
   60.3920   26.3252   46.3669 H   0  0  0  0  0  0  0  0  0  0  0  0
   61.4247   28.2760   45.1975 H   0  0  0  0  0  0  0  0  0  0  0  0
   59.9791   30.0969   44.2882 H   0  0  0  0  0  0  0  0  0  0  0  0
   59.5433   35.3915   46.8217 H   0  0  0  0  0  0  0  0  0  0  0  0
  1  2  1  0
  2  3  1  0
  2  4  1  0
  4  5  1  0
  5  6  1  0
  6  7  2  0
  7  8  1  0
  8  9  2  0
  9 10  1  0
 10 11  1  0
 11 12  2  0
 12 13  1  0
 13 14  1  0
 14 15  2  0
 14 16  2  0
 14 17  1  0
 17 18  2  0
 18 19  1  0
 19 20  2  0
 20 21  1  0
 21 22  2  0
 10 23  2  0
 23  6  1  0
 13  9  1  0
 22 17  1  0
  1 24  1  0
  1 25  1  0
  1 26  1  0
  2 27  1  0
  3 28  1  0
  3 29  1  0
  3 30  1  0
  4 31  1  0
  4 32  1  0
  5 33  1  0
  5 34  1  0
  7 35  1  0
  8 36  1  0
 11 37  1  0
 12 38  1  0
 18 39  1  0
 19 40  1  0
 20 41  1  0
 21 42  1  0
 22 43  1  0
 23 44  1  0
M  CHG  1   2   1
M  END
>  <UniqueID>  (21) 
21

>  <SMILES>  (21) 
C[NH+](C)CCc1ccc2c(ccn2S(=O)(=O)c2ccccc2)c1

>  <Energy>  (21) 
80.78072007471927

>  <Genealogy>  (21) 
C[NH+](C)CCc1ccc2c(ccn2S(=O)(=O)c2ccccc2)c1 (protonated)
C[NH+](C)CCc1ccc2c(ccn2S(=O)(=O)c2ccccc2)c1 (3D coordinates assigned)
C[NH+](C)CCc1ccc2c(ccn2S(=O)(=O)c2ccccc2)c1 (optimized conformer: 80.78072007471927 kcal/mol)

>  <smiles>  (21) 
CN(C)CCc1ccc2c(ccn2S(=O)(=O)c2ccccc2)c1

>  <score_type>  (21) 
oracle

>  <origin>  (21) 
adg

>  <m_score__min__energy>  (21) 
-6.96

>  <m_primary>  (21) 
energy

$$$$
21:0
     RDKit          3D

 48 51  0  0  0  0  0  0  0  0999 V2000
   65.4060   32.2960   49.7480 C   0  0  0  0  0  0  0  0  0  0  0  0
   64.2460   32.8270   49.0460 N   0  0  0  0  0  0  0  0  0  0  0  0
   63.2370   33.4370   49.6460 N   0  0  0  0  0  0  0  0  0  0  0  0
   62.4060   33.8270   48.6590 C   0  0  0  0  0  0  0  0  0  0  0  0
   61.1310   34.5860   48.8690 C   0  0  0  0  0  0  0  0  0  0  0  0
   59.9160   33.7800   48.6290 N   0  0  0  0  0  0  0  0  0  0  0  0
   59.2520   33.9720   47.3250 C   0  0  0  0  0  0  0  0  0  0  0  0
   59.6270   32.8970   46.2840 C   0  0  0  0  0  0  0  0  0  0  0  0
   59.5500   31.5270   46.8200 N   0  0  0  0  0  0  0  0  0  0  0  0
   58.1690   31.0070   46.9540 C   0  0  0  0  0  0  0  0  0  0  0  0
   57.8290   30.1660   45.7800 N   0  0  0  0  0  0  0  0  0  0  0  0
   57.1940   30.8180   44.7400 C   0  0  0  0  0  0  0  0  0  0  0  0
   56.8740   32.0370   44.8400 O   0  0  0  0  0  0  0  0  0  0  0  0
   56.8970   30.1640   43.5490 C   0  0  0  0  0  0  0  0  0  0  0  0
   57.2380   28.8370   43.3860 C   0  0  0  0  0  0  0  0  0  0  0  0
   57.8510   28.1440   44.4280 C   0  0  0  0  0  0  0  0  0  0  0  0
   58.1750   26.7920   44.2420 C   0  0  0  0  0  0  0  0  0  0  0  0
   58.7630   26.0630   45.2660 C   0  0  0  0  0  0  0  0  0  0  0  0
   59.0150   26.6690   46.4900 C   0  0  0  0  0  0  0  0  0  0  0  0
   58.7020   28.0150   46.7050 C   0  0  0  0  0  0  0  0  0  0  0  0
   58.9250   28.4640   47.9580 F   0  0  0  0  0  0  0  0  0  0  0  0
   58.1300   28.8090   45.6620 C   0  0  0  0  0  0  0  0  0  0  0  0
   60.3590   31.3880   48.0430 C   0  0  0  0  0  0  0  0  0  0  0  0
   59.9430   32.3910   49.1250 C   0  0  0  0  0  0  0  0  0  0  0  0
   62.9600   33.4590   47.4470 C   0  0  0  0  0  0  0  0  0  0  0  0
   64.1140   32.8350   47.7290 N   0  0  0  0  0  0  0  0  0  0  0  0
   65.2435   32.3704   50.8334 H   0  0  0  0  0  0  0  0  0  0  0  0
   65.5516   31.2416   49.4705 H   0  0  0  0  0  0  0  0  0  0  0  0
   66.2992   32.8749   49.4705 H   0  0  0  0  0  0  0  0  0  0  0  0
   61.1087   34.9477   49.9076 H   0  0  0  0  0  0  0  0  0  0  0  0
   61.1216   35.4087   48.1389 H   0  0  0  0  0  0  0  0  0  0  0  0
   58.1634   33.9428   47.4801 H   0  0  0  0  0  0  0  0  0  0  0  0
   59.5888   34.9410   46.9279 H   0  0  0  0  0  0  0  0  0  0  0  0
   58.9375   32.9792   45.4309 H   0  0  0  0  0  0  0  0  0  0  0  0
   60.6706   33.0763   45.9863 H   0  0  0  0  0  0  0  0  0  0  0  0
   58.0945   30.4020   47.8697 H   0  0  0  0  0  0  0  0  0  0  0  0
   57.4677   31.8527   47.0084 H   0  0  0  0  0  0  0  0  0  0  0  0
   56.3899   30.7050   42.7365 H   0  0  0  0  0  0  0  0  0  0  0  0
   57.0262   28.3268   42.4348 H   0  0  0  0  0  0  0  0  0  0  0  0
   57.9616   26.3065   43.2783 H   0  0  0  0  0  0  0  0  0  0  0  0
   59.0290   25.0073   45.1086 H   0  0  0  0  0  0  0  0  0  0  0  0
   59.4675   26.0815   47.3025 H   0  0  0  0  0  0  0  0  0  0  0  0
   60.2343   30.3686   48.4371 H   0  0  0  0  0  0  0  0  0  0  0  0
   61.4083   31.5880   47.7803 H   0  0  0  0  0  0  0  0  0  0  0  0
   58.9378   32.1253   49.4842 H   0  0  0  0  0  0  0  0  0  0  0  0
   60.6884   32.3393   49.9323 H   0  0  0  0  0  0  0  0  0  0  0  0
   62.5378   33.6418   46.4478 H   0  0  0  0  0  0  0  0  0  0  0  0
   64.7980   32.4370   47.0460 H   0  0  0  0  0  0  0  0  0  0  0  0
  1  2  1  0
  2  3  1  0
  3  4  2  0
  4  5  1  0
  5  6  1  0
  6  7  1  0
  7  8  1  0
  8  9  1  0
  9 10  1  0
 10 11  1  0
 11 12  1  0
 12 13  2  0
 12 14  1  0
 14 15  2  0
 15 16  1  0
 16 17  2  0
 17 18  1  0
 18 19  2  0
 19 20  1  0
 20 21  1  0
 20 22  2  0
  9 23  1  0
 23 24  1  0
  4 25  1  0
 25 26  2  0
 26  2  1  0
 24  6  1  0
 22 11  1  0
 22 16  1  0
  1 27  1  0
  1 28  1  0
  1 29  1  0
  5 30  1  0
  5 31  1  0
  7 32  1  0
  7 33  1  0
  8 34  1  0
  8 35  1  0
 10 36  1  0
 10 37  1  0
 14 38  1  0
 15 39  1  0
 17 40  1  0
 18 41  1  0
 19 42  1  0
 23 43  1  0
 23 44  1  0
 24 45  1  0
 24 46  1  0
 25 47  1  0
 26 48  1  0
M  CHG  1  26   1
M  END
>  <UniqueID>  (22) 
22

>  <SMILES>  (22) 
Cn1nc(CN2CCN(Cn3c(=O)ccc4cccc(F)c43)CC2)c[nH+]1

>  <Energy>  (22) 
115.15847183035255

>  <Genealogy>  (22) 
Cn1nc(CN2CCN(Cn3c(=O)ccc4cccc(F)c43)CC2)c[nH+]1 (protonated)
Cn1nc(CN2CCN(Cn3c(=O)ccc4cccc(F)c43)CC2)c[nH+]1 (3D coordinates assigned)
Cn1nc(CN2CCN(Cn3c(=O)ccc4cccc(F)c43)CC2)c[nH+]1 (nonaromatic ring conformer: 115.15847183035255 kcal/mol)

>  <smiles>  (22) 
Cn1ncc(CN2CCN(Cn3c(=O)ccc4cccc(F)c43)CC2)n1

>  <score_type>  (22) 
oracle

>  <origin>  (22) 
adg

>  <m_score__min__energy>  (22) 
-6.8200000000000003

>  <m_primary>  (22) 
energy

$$$$
22:0
     RDKit          3D

 44 46  0  0  0  0  0  0  0  0999 V2000
   62.6890   33.4780   47.0810 C   0  0  0  0  0  0  0  0  0  0  0  0
   61.3440   33.5010   47.8010 C   0  0  0  0  0  0  0  0  0  0  0  0
   60.2650   33.0490   46.8960 N   0  0  0  0  0  0  0  0  0  0  0  0
   60.0800   31.7110   46.6730 C   0  0  0  0  0  0  0  0  0  0  0  0
   60.8310   30.8570   47.2230 O   0  0  0  0  0  0  0  0  0  0  0  0
   59.0560   31.2780   45.8360 C   0  0  0  0  0  0  0  0  0  0  0  0
   58.8690   29.9540   45.5980 N   0  0  0  0  0  0  0  0  0  0  0  0
   57.8750   29.5020   44.7880 C   0  0  0  0  0  0  0  0  0  0  0  0
   57.7250   28.0420   44.5620 C   0  0  0  0  0  0  0  0  0  0  0  0
   57.9280   27.4700   43.2930 C   0  0  0  0  0  0  0  0  0  0  0  0
   57.7740   26.0950   43.0980 C   0  0  0  0  0  0  0  0  0  0  0  0
   57.4070   25.2500   44.1640 C   0  0  0  0  0  0  0  0  0  0  0  0
   57.2490   23.8200   43.9610 N   0  0  0  0  0  0  0  0  0  0  0  0
   58.0930   22.8650   44.6910 C   0  0  0  0  0  0  0  0  0  0  0  0
   56.2440   23.3050   43.0240 C   0  0  0  0  0  0  0  0  0  0  0  0
   57.1930   25.8290   45.4300 C   0  0  0  0  0  0  0  0  0  0  0  0
   57.3460   27.2050   45.6230 C   0  0  0  0  0  0  0  0  0  0  0  0
   57.0350   30.4430   44.1750 C   0  0  0  0  0  0  0  0  0  0  0  0
   57.2140   31.7700   44.4100 N   0  0  0  0  0  0  0  0  0  0  0  0
   58.2090   32.2240   45.2370 C   0  0  0  0  0  0  0  0  0  0  0  0
   58.3960   33.5640   45.4910 N   0  0  0  0  0  0  0  0  0  0  0  0
   57.5030   34.5660   44.8760 C   0  0  0  0  0  0  0  0  0  0  0  0
   59.4170   33.9670   46.3240 C   0  0  0  0  0  0  0  0  0  0  0  0
   59.5770   35.1960   46.5710 O   0  0  0  0  0  0  0  0  0  0  0  0
   63.5015   33.4641   47.8223 H   0  0  0  0  0  0  0  0  0  0  0  0
   62.7522   32.5786   46.4508 H   0  0  0  0  0  0  0  0  0  0  0  0
   62.7829   34.3747   46.4508 H   0  0  0  0  0  0  0  0  0  0  0  0
   61.3888   32.8324   48.6734 H   0  0  0  0  0  0  0  0  0  0  0  0
   61.1303   34.5307   48.1234 H   0  0  0  0  0  0  0  0  0  0  0  0
   58.2109   28.1117   42.4455 H   0  0  0  0  0  0  0  0  0  0  0  0
   57.9415   25.6665   42.0988 H   0  0  0  0  0  0  0  0  0  0  0  0
   57.9624   23.0128   45.7732 H   0  0  0  0  0  0  0  0  0  0  0  0
   57.8014   21.8387   44.4233 H   0  0  0  0  0  0  0  0  0  0  0  0
   59.1474   23.0282   44.4233 H   0  0  0  0  0  0  0  0  0  0  0  0
   55.4035   22.8743   43.5880 H   0  0  0  0  0  0  0  0  0  0  0  0
   55.8780   24.1266   42.3908 H   0  0  0  0  0  0  0  0  0  0  0  0
   56.6971   22.5280   42.3908 H   0  0  0  0  0  0  0  0  0  0  0  0
   56.9019   25.1906   46.2772 H   0  0  0  0  0  0  0  0  0  0  0  0
   57.1672   27.6371   46.6186 H   0  0  0  0  0  0  0  0  0  0  0  0
   56.2309   30.1072   43.5037 H   0  0  0  0  0  0  0  0  0  0  0  0
   56.5610   32.4230   43.9270 H   0  0  0  0  0  0  0  0  0  0  0  0
   56.9938   35.1374   45.6661 H   0  0  0  0  0  0  0  0  0  0  0  0
   58.0954   35.2512   44.2518 H   0  0  0  0  0  0  0  0  0  0  0  0
   56.7544   34.0560   44.2518 H   0  0  0  0  0  0  0  0  0  0  0  0
  1  2  1  0
  2  3  1  0
  3  4  1  0
  4  5  2  0
  4  6  1  0
  6  7  2  0
  7  8  1  0
  8  9  1  0
  9 10  2  0
 10 11  1  0
 11 12  2  0
 12 13  1  0
 13 14  1  0
 13 15  1  0
 12 16  1  0
 16 17  2  0
  8 18  2  0
 18 19  1  0
 19 20  2  0
 20 21  1  0
 21 22  1  0
 21 23  1  0
 23 24  2  0
 23  3  1  0
 20  6  1  0
 17  9  1  0
  1 25  1  0
  1 26  1  0
  1 27  1  0
  2 28  1  0
  2 29  1  0
 10 30  1  0
 11 31  1  0
 14 32  1  0
 14 33  1  0
 14 34  1  0
 15 35  1  0
 15 36  1  0
 15 37  1  0
 16 38  1  0
 17 39  1  0
 18 40  1  0
 19 41  1  0
 22 42  1  0
 22 43  1  0
 22 44  1  0
M  CHG  1  19   1
M  END
>  <UniqueID>  (23) 
23

>  <SMILES>  (23) 
CCn1c(=O)c2nc(-c3ccc(N(C)C)cc3)c[nH+]c2n(C)c1=O

>  <Energy>  (23) 
62.4237947937954

>  <Genealogy>  (23) 
CCn1c(=O)c2nc(-c3ccc(N(C)C)cc3)c[nH+]c2n(C)c1=O (protonated)
CCn1c(=O)c2nc(-c3ccc(N(C)C)cc3)c[nH+]c2n(C)c1=O (3D coordinates assigned)
CCn1c(=O)c2nc(-c3ccc(N(C)C)cc3)c[nH+]c2n(C)c1=O (optimized conformer: 62.4237947937954 kcal/mol)

>  <smiles>  (23) 
CCn1c(=O)c2nc(-c3ccc(N(C)C)cc3)cnc2n(C)c1=O

>  <score_type>  (23) 
oracle

>  <origin>  (23) 
adg

>  <m_score__min__energy>  (23) 
-5.2699999999999996

>  <m_primary>  (23) 
energy

$$$$
23:0
     RDKit          3D

 48 51  0  0  0  0  0  0  0  0999 V2000
   56.3510   29.6200   42.6720 C   0  0  0  0  0  0  0  0  0  0  0  0
   57.0280   30.8610   42.5140 O   0  0  0  0  0  0  0  0  0  0  0  0
   57.5250   31.6300   43.5750 C   0  0  0  0  0  0  0  0  0  0  0  0
   57.4000   31.1270   44.8750 C   0  0  0  0  0  0  0  0  0  0  0  0
   57.8790   31.8560   45.9680 C   0  0  0  0  0  0  0  0  0  0  0  0
   58.4890   33.1060   45.7750 C   0  0  0  0  0  0  0  0  0  0  0  0
   58.9800   33.9110   46.9500 C   0  0  0  0  0  0  0  0  0  0  0  0
   60.0460   33.1880   47.6500 N   0  0  0  0  0  0  0  0  0  0  0  0
   59.9440   32.3150   48.6930 C   0  0  0  0  0  0  0  0  0  0  0  0
   58.6450   31.8070   49.2510 C   0  0  0  0  0  0  0  0  0  0  0  0
   58.6130   30.3450   49.2080 N   0  0  0  0  0  0  0  0  0  0  0  0
   59.5970   29.5170   48.5740 C   0  0  0  0  0  0  0  0  0  0  0  0
   60.6110   29.1660   49.2380 O   0  0  0  0  0  0  0  0  0  0  0  0
   59.4550   29.0560   47.1780 C   0  0  0  0  0  0  0  0  0  0  0  0
   58.3760   28.2320   46.8160 C   0  0  0  0  0  0  0  0  0  0  0  0
   58.2510   27.7770   45.5000 C   0  0  0  0  0  0  0  0  0  0  0  0
   59.2020   28.1340   44.5380 C   0  0  0  0  0  0  0  0  0  0  0  0
   60.2810   28.9510   44.8940 C   0  0  0  0  0  0  0  0  0  0  0  0
   60.4150   29.3960   46.2110 C   0  0  0  0  0  0  0  0  0  0  0  0
   61.1560   31.8530   49.1060 N   0  0  0  0  0  0  0  0  0  0  0  0
   62.0360   32.4630   48.2960 C   0  0  0  0  0  0  0  0  0  0  0  0
   63.4190   32.3420   48.2500 C   0  0  0  0  0  0  0  0  0  0  0  0
   64.0960   33.0920   47.2700 C   0  0  0  0  0  0  0  0  0  0  0  0
   63.3630   33.9160   46.3830 C   0  0  0  0  0  0  0  0  0  0  0  0
   62.0010   33.9920   46.4680 N   0  0  0  0  0  0  0  0  0  0  0  0
   61.3690   33.2660   47.4250 C   0  0  0  0  0  0  0  0  0  0  0  0
   58.6170   33.6120   44.4730 C   0  0  0  0  0  0  0  0  0  0  0  0
   58.1410   32.8820   43.3790 C   0  0  0  0  0  0  0  0  0  0  0  0
   56.2317   29.4012   43.7434 H   0  0  0  0  0  0  0  0  0  0  0  0
   55.3605   29.6797   42.1974 H   0  0  0  0  0  0  0  0  0  0  0  0
   56.9374   28.8194   42.1974 H   0  0  0  0  0  0  0  0  0  0  0  0
   56.9211   30.1503   45.0383 H   0  0  0  0  0  0  0  0  0  0  0  0
   57.7774   31.4480   46.9845 H   0  0  0  0  0  0  0  0  0  0  0  0
   59.3696   34.8754   46.5921 H   0  0  0  0  0  0  0  0  0  0  0  0
   58.1438   34.0779   47.6449 H   0  0  0  0  0  0  0  0  0  0  0  0
   58.5418   32.1420   50.2936 H   0  0  0  0  0  0  0  0  0  0  0  0
   57.8159   32.2017   48.6455 H   0  0  0  0  0  0  0  0  0  0  0  0
   57.6281   27.9443   47.5696 H   0  0  0  0  0  0  0  0  0  0  0  0
   57.4020   27.1361   45.2200 H   0  0  0  0  0  0  0  0  0  0  0  0
   59.1018   27.7732   43.5037 H   0  0  0  0  0  0  0  0  0  0  0  0
   61.0235   29.2427   44.1366 H   0  0  0  0  0  0  0  0  0  0  0  0
   61.2782   30.0169   46.4928 H   0  0  0  0  0  0  0  0  0  0  0  0
   61.3580   31.1550   49.8590 H   0  0  0  0  0  0  0  0  0  0  0  0
   63.9615   31.6885   48.9490 H   0  0  0  0  0  0  0  0  0  0  0  0
   65.1920   33.0378   47.1937 H   0  0  0  0  0  0  0  0  0  0  0  0
   63.8945   34.5009   45.6179 H   0  0  0  0  0  0  0  0  0  0  0  0
   59.0949   34.5895   44.3113 H   0  0  0  0  0  0  0  0  0  0  0  0
   58.2479   33.2868   42.3618 H   0  0  0  0  0  0  0  0  0  0  0  0
  1  2  1  0
  2  3  1  0
  3  4  2  0
  4  5  1  0
  5  6  2  0
  6  7  1  0
  7  8  1  0
  8  9  1  0
  9 10  1  0
 10 11  1  0
 11 12  1  0
 12 13  2  0
 12 14  1  0
 14 15  2  0
 15 16  1  0
 16 17  2  0
 17 18  1  0
 18 19  2  0
  9 20  2  0
 20 21  1  0
 21 22  2  0
 22 23  1  0
 23 24  2  0
 24 25  1  0
 25 26  2  0
  6 27  1  0
 27 28  2  0
 28  3  1  0
 26  8  1  0
 19 14  1  0
 26 21  1  0
  1 29  1  0
  1 30  1  0
  1 31  1  0
  4 32  1  0
  5 33  1  0
  7 34  1  0
  7 35  1  0
 10 36  1  0
 10 37  1  0
 15 38  1  0
 16 39  1  0
 17 40  1  0
 18 41  1  0
 19 42  1  0
 20 43  1  0
 22 44  1  0
 23 45  1  0
 24 46  1  0
 27 47  1  0
 28 48  1  0
M  CHG  2  11  -1  20   1
M  END
>  <UniqueID>  (24) 
24

>  <SMILES>  (24) 
COc1ccc(Cn2c(C[N-]C(=O)c3ccccc3)[nH+]c3cccnc32)cc1

>  <Energy>  (24) 
92.96219491863116

>  <Genealogy>  (24) 
COc1ccc(Cn2c(C[N-]C(=O)c3ccccc3)[nH+]c3cccnc32)cc1 (protonated)
COc1ccc(Cn2c(C[N-]C(=O)c3ccccc3)[nH+]c3cccnc32)cc1 (3D coordinates assigned)
COc1ccc(Cn2c(C[N-]C(=O)c3ccccc3)[nH+]c3cccnc32)cc1 (optimized conformer: 92.96219491863116 kcal/mol)

>  <smiles>  (24) 
COc1ccc(Cn2c(CNC(=O)c3ccccc3)nc3cccnc32)cc1

>  <score_type>  (24) 
oracle

>  <origin>  (24) 
adg

>  <m_score__min__energy>  (24) 
-8.3499999999999996

>  <m_primary>  (24) 
energy

$$$$
24:0
     RDKit          3D

 47 49  0  0  0  0  0  0  0  0999 V2000
   57.0390   33.8760   45.6180 C   0  0  0  0  0  0  0  0  0  0  0  0
   58.2190   33.6420   46.4550 N   0  0  0  0  0  0  0  0  0  0  0  0
   59.1060   34.7670   46.7840 C   0  0  0  0  0  0  0  0  0  0  0  0
   60.4470   34.2650   47.2530 C   0  0  0  0  0  0  0  0  0  0  0  0
   61.4080   33.8210   46.3300 C   0  0  0  0  0  0  0  0  0  0  0  0
   62.6500   33.3550   46.7740 C   0  0  0  0  0  0  0  0  0  0  0  0
   62.9400   33.3290   48.1410 C   0  0  0  0  0  0  0  0  0  0  0  0
   61.9890   33.7700   49.0670 C   0  0  0  0  0  0  0  0  0  0  0  0
   60.7460   34.2360   48.6250 C   0  0  0  0  0  0  0  0  0  0  0  0
   58.5340   32.3130   46.9210 C   0  0  0  0  0  0  0  0  0  0  0  0
   58.7790   32.0100   48.2110 N   0  0  0  0  0  0  0  0  0  0  0  0
   58.9790   30.7060   48.3090 N   0  0  0  0  0  0  0  0  0  0  0  0
   59.2390   30.0200   49.5730 C   0  0  0  0  0  0  0  0  0  0  0  0
   58.8490   30.1470   47.0850 C   0  0  0  0  0  0  0  0  0  0  0  0
   58.9270   28.7010   46.7920 C   0  0  0  0  0  0  0  0  0  0  0  0
   60.1750   28.0830   46.6190 C   0  0  0  0  0  0  0  0  0  0  0  0
   60.2500   26.7180   46.3280 C   0  0  0  0  0  0  0  0  0  0  0  0
   59.0810   25.9630   46.2020 C   0  0  0  0  0  0  0  0  0  0  0  0
   57.8290   26.5690   46.3740 C   0  0  0  0  0  0  0  0  0  0  0  0
   56.3560   25.6270   46.1790 S   0  0  0  0  0  0  0  0  0  0  0  0
   56.5120   24.5840   44.7480 C   0  0  0  0  0  0  0  0  0  0  0  0
   56.1270   24.7790   47.3990 O   0  0  0  0  0  0  0  0  0  0  0  0
   55.1800   26.5450   46.0020 O   0  0  0  0  0  0  0  0  0  0  0  0
   57.7570   27.9380   46.6670 C   0  0  0  0  0  0  0  0  0  0  0  0
   58.5760   31.1470   46.1620 C   0  0  0  0  0  0  0  0  0  0  0  0
   58.1290   30.8960   44.3180 Br  0  0  0  0  0  0  0  0  0  0  0  0
   56.1628   34.0498   46.2599 H   0  0  0  0  0  0  0  0  0  0  0  0
   57.2090   34.7579   44.9829 H   0  0  0  0  0  0  0  0  0  0  0  0
   56.8596   32.9959   44.9829 H   0  0  0  0  0  0  0  0  0  0  0  0
   59.2463   35.3906   45.8888 H   0  0  0  0  0  0  0  0  0  0  0  0
   58.6463   35.3572   47.5904 H   0  0  0  0  0  0  0  0  0  0  0  0
   61.1831   33.8398   45.2534 H   0  0  0  0  0  0  0  0  0  0  0  0
   63.3990   33.0087   46.0466 H   0  0  0  0  0  0  0  0  0  0  0  0
   63.9167   32.9615   48.4888 H   0  0  0  0  0  0  0  0  0  0  0  0
   62.2183   33.7505   50.1427 H   0  0  0  0  0  0  0  0  0  0  0  0
   59.9995   34.5813   49.3554 H   0  0  0  0  0  0  0  0  0  0  0  0
   58.8120   32.6750   49.0150 H   0  0  0  0  0  0  0  0  0  0  0  0
   58.9863   30.6866   50.4107 H   0  0  0  0  0  0  0  0  0  0  0  0
   58.6233   29.1102   49.6298 H   0  0  0  0  0  0  0  0  0  0  0  0
   60.3030   29.7468   49.6298 H   0  0  0  0  0  0  0  0  0  0  0  0
   61.0974   28.6749   46.7127 H   0  0  0  0  0  0  0  0  0  0  0  0
   61.2308   26.2373   46.1980 H   0  0  0  0  0  0  0  0  0  0  0  0
   59.1435   24.8902   45.9672 H   0  0  0  0  0  0  0  0  0  0  0  0
   56.6677   23.5432   45.0681 H   0  0  0  0  0  0  0  0  0  0  0  0
   55.5942   24.6488   44.1452 H   0  0  0  0  0  0  0  0  0  0  0  0
   57.3707   24.9146   44.1452 H   0  0  0  0  0  0  0  0  0  0  0  0
   56.7758   28.4172   46.7998 H   0  0  0  0  0  0  0  0  0  0  0  0
  1  2  1  0
  2  3  1  0
  3  4  1  0
  4  5  2  0
  5  6  1  0
  6  7  2  0
  7  8  1  0
  8  9  2  0
  2 10  1  0
 10 11  2  0
 11 12  1  0
 12 13  1  0
 12 14  1  0
 14 15  1  0
 15 16  2  0
 16 17  1  0
 17 18  2  0
 18 19  1  0
 19 20  1  0
 20 21  1  0
 20 22  2  0
 20 23  2  0
 19 24  2  0
 14 25  2  0
 25 26  1  0
  9  4  1  0
 25 10  1  0
 24 15  1  0
  1 27  1  0
  1 28  1  0
  1 29  1  0
  3 30  1  0
  3 31  1  0
  5 32  1  0
  6 33  1  0
  7 34  1  0
  8 35  1  0
  9 36  1  0
 11 37  1  0
 13 38  1  0
 13 39  1  0
 13 40  1  0
 16 41  1  0
 17 42  1  0
 18 43  1  0
 21 44  1  0
 21 45  1  0
 21 46  1  0
 24 47  1  0
M  CHG  1  11   1
M  END
>  <UniqueID>  (25) 
25

>  <SMILES>  (25) 
CN(Cc1ccccc1)c1[nH+]n(C)c(-c2cccc(S(C)(=O)=O)c2)c1Br

>  <Energy>  (25) 
83.11957192510081

>  <Genealogy>  (25) 
CN(Cc1ccccc1)c1[nH+]n(C)c(-c2cccc(S(C)(=O)=O)c2)c1Br (protonated)
CN(Cc1ccccc1)c1[nH+]n(C)c(-c2cccc(S(C)(=O)=O)c2)c1Br (3D coordinates assigned)
CN(Cc1ccccc1)c1[nH+]n(C)c(-c2cccc(S(C)(=O)=O)c2)c1Br (optimized conformer: 83.11957192510081 kcal/mol)

>  <smiles>  (25) 
CN(Cc1ccccc1)c1nn(C)c(-c2cccc(S(C)(=O)=O)c2)c1Br

>  <score_type>  (25) 
oracle

>  <origin>  (25) 
adg

>  <m_score__min__energy>  (25) 
-7.9199999999999999

>  <m_primary>  (25) 
energy

$$$$
25:0
     RDKit          3D

 33 34  0  0  0  0  0  0  0  0999 V2000
   57.7220   32.2740   41.4890 C   0  0  0  0  0  0  0  0  0  0  0  0
   57.5960   31.9820   42.9190 N   0  0  0  0  0  0  0  0  0  0  0  0
   58.1610   33.0740   43.7250 C   0  0  0  0  0  0  0  0  0  0  0  0
   57.4270   33.1980   45.0640 C   0  0  0  0  0  0  0  0  0  0  0  0
   58.1250   32.4320   46.0990 N   0  0  0  0  0  0  0  0  0  0  0  0
   58.9910   32.9130   47.0300 C   0  0  0  0  0  0  0  0  0  0  0  0
   59.4040   34.6100   47.2100 Cl  0  0  0  0  0  0  0  0  0  0  0  0
   59.5390   31.9480   47.8120 N   0  0  0  0  0  0  0  0  0  0  0  0
   58.9860   30.8210   47.3240 C   0  0  0  0  0  0  0  0  0  0  0  0
   58.1470   31.0990   46.2980 C   0  0  0  0  0  0  0  0  0  0  0  0
   57.4910   30.0690   45.6290 C   0  0  0  0  0  0  0  0  0  0  0  0
   56.7400   30.3140   44.6470 O   0  0  0  0  0  0  0  0  0  0  0  0
   57.6880   28.7790   46.0670 N   0  0  0  0  0  0  0  0  0  0  0  0
   57.0240   27.6610   45.3760 C   0  0  0  0  0  0  0  0  0  0  0  0
   58.5640   28.5220   47.1090 C   0  0  0  0  0  0  0  0  0  0  0  0
   58.7580   27.3310   47.4860 O   0  0  0  0  0  0  0  0  0  0  0  0
   59.2310   29.5490   47.7400 N   0  0  0  0  0  0  0  0  0  0  0  0
   60.1320   29.2860   48.8700 C   0  0  0  0  0  0  0  0  0  0  0  0
   58.1546   33.2766   41.3562 H   0  0  0  0  0  0  0  0  0  0  0  0
   58.3776   31.5265   41.0185 H   0  0  0  0  0  0  0  0  0  0  0  0
   56.7283   32.2382   41.0185 H   0  0  0  0  0  0  0  0  0  0  0  0
   56.5820   31.8620   43.1490 H   0  0  0  0  0  0  0  0  0  0  0  0
   58.1060   31.0910   43.1250 H   0  0  0  0  0  0  0  0  0  0  0  0
   59.2250   32.8690   43.9146 H   0  0  0  0  0  0  0  0  0  0  0  0
   58.0455   34.0173   43.1710 H   0  0  0  0  0  0  0  0  0  0  0  0
   57.3884   34.2567   45.3600 H   0  0  0  0  0  0  0  0  0  0  0  0
   56.4074   32.8009   44.9513 H   0  0  0  0  0  0  0  0  0  0  0  0
   56.6101   26.9642   46.1197 H   0  0  0  0  0  0  0  0  0  0  0  0
   56.2107   28.0505   44.7460 H   0  0  0  0  0  0  0  0  0  0  0  0
   57.7551   27.1332   44.7460 H   0  0  0  0  0  0  0  0  0  0  0  0
   59.5911   29.4439   49.8147 H   0  0  0  0  0  0  0  0  0  0  0  0
   60.4881   28.2464   48.8207 H   0  0  0  0  0  0  0  0  0  0  0  0
   60.9915   29.9707   48.8207 H   0  0  0  0  0  0  0  0  0  0  0  0
  1  2  1  0
  2  3  1  0
  3  4  1  0
  4  5  1  0
  5  6  1  0
  6  7  1  0
  6  8  2  0
  8  9  1  0
  9 10  2  0
 10 11  1  0
 11 12  2  0
 11 13  1  0
 13 14  1  0
 13 15  1  0
 15 16  2  0
 15 17  1  0
 17 18  1  0
 10  5  1  0
 17  9  1  0
  1 19  1  0
  1 20  1  0
  1 21  1  0
  2 22  1  0
  2 23  1  0
  3 24  1  0
  3 25  1  0
  4 26  1  0
  4 27  1  0
 14 28  1  0
 14 29  1  0
 14 30  1  0
 18 31  1  0
 18 32  1  0
 18 33  1  0
M  CHG  1   2   1
M  END
>  <UniqueID>  (26) 
26

>  <SMILES>  (26) 
C[NH2+]CCn1c(Cl)nc2c1c(=O)n(C)c(=O)n2C

>  <Energy>  (26) 
74.33667603524717

>  <Genealogy>  (26) 
C[NH2+]CCn1c(Cl)nc2c1c(=O)n(C)c(=O)n2C (protonated)
C[NH2+]CCn1c(Cl)nc2c1c(=O)n(C)c(=O)n2C (3D coordinates assigned)
C[NH2+]CCn1c(Cl)nc2c1c(=O)n(C)c(=O)n2C (optimized conformer: 74.33667603524717 kcal/mol)

>  <smiles>  (26) 
CNCCn1c(Cl)nc2c1c(=O)n(C)c(=O)n2C

>  <score_type>  (26) 
oracle

>  <origin>  (26) 
adg

>  <m_score__min__energy>  (26) 
-4.5999999999999996

>  <m_primary>  (26) 
energy

$$$$
26:0
     RDKit          3D

 39 41  0  0  0  0  0  0  0  0999 V2000
   59.6350   35.4250   45.6420 C   0  0  0  0  0  0  0  0  0  0  0  0
   59.8840   34.4830   46.7480 N   0  0  0  0  0  0  0  0  0  0  0  0
   60.9170   33.4860   46.3950 C   0  0  0  0  0  0  0  0  0  0  0  0
   62.0110   33.4860   47.4220 C   0  0  0  0  0  0  0  0  0  0  0  0
   63.2110   32.7990   47.2580 C   0  0  0  0  0  0  0  0  0  0  0  0
   64.1560   33.0980   48.6170 S   0  0  0  0  0  0  0  0  0  0  0  0
   63.0140   34.0850   49.3560 C   0  0  0  0  0  0  0  0  0  0  0  0
   61.9150   34.1950   48.5800 N   0  0  0  0  0  0  0  0  0  0  0  0
   58.6350   33.8520   47.2290 C   0  0  0  0  0  0  0  0  0  0  0  0
   58.2480   32.6160   46.4600 C   0  0  0  0  0  0  0  0  0  0  0  0
   57.3080   32.5470   45.4370 C   0  0  0  0  0  0  0  0  0  0  0  0
   57.1300   31.3080   44.9080 N   0  0  0  0  0  0  0  0  0  0  0  0
   57.9230   30.3840   45.4990 C   0  0  0  0  0  0  0  0  0  0  0  0
   57.9250   28.9900   45.1280 N   0  0  0  0  0  0  0  0  0  0  0  0
   57.8840   27.9520   46.1660 C   0  0  0  0  0  0  0  0  0  0  0  0
   58.4230   26.6250   45.6220 C   0  0  0  0  0  0  0  0  0  0  0  0
   57.7940   26.2890   44.4010 O   0  0  0  0  0  0  0  0  0  0  0  0
   58.1520   27.2340   43.4130 C   0  0  0  0  0  0  0  0  0  0  0  0
   57.5820   28.6150   43.7500 C   0  0  0  0  0  0  0  0  0  0  0  0
   58.8770   31.0750   46.7070 S   0  0  0  0  0  0  0  0  0  0  0  0
   59.3742   36.4117   46.0524 H   0  0  0  0  0  0  0  0  0  0  0  0
   60.5408   35.5127   45.0241 H   0  0  0  0  0  0  0  0  0  0  0  0
   58.8042   35.0536   45.0241 H   0  0  0  0  0  0  0  0  0  0  0  0
   60.4583   32.4871   46.3530 H   0  0  0  0  0  0  0  0  0  0  0  0
   61.3450   33.7447   45.4153 H   0  0  0  0  0  0  0  0  0  0  0  0
   63.4901   32.1745   46.3966 H   0  0  0  0  0  0  0  0  0  0  0  0
   63.1437   34.5723   50.3336 H   0  0  0  0  0  0  0  0  0  0  0  0
   61.0830   34.7680   48.8450 H   0  0  0  0  0  0  0  0  0  0  0  0
   58.7693   33.5763   48.2854 H   0  0  0  0  0  0  0  0  0  0  0  0
   57.8279   34.5857   47.0870 H   0  0  0  0  0  0  0  0  0  0  0  0
   56.7516   33.4276   45.0834 H   0  0  0  0  0  0  0  0  0  0  0  0
   58.5003   28.2699   47.0199 H   0  0  0  0  0  0  0  0  0  0  0  0
   56.8406   27.8081   46.4831 H   0  0  0  0  0  0  0  0  0  0  0  0
   59.5065   26.7171   45.4559 H   0  0  0  0  0  0  0  0  0  0  0  0
   58.2135   25.8327   46.3557 H   0  0  0  0  0  0  0  0  0  0  0  0
   59.2486   27.3001   43.3576 H   0  0  0  0  0  0  0  0  0  0  0  0
   57.7390   26.9081   42.4470 H   0  0  0  0  0  0  0  0  0  0  0  0
   58.0019   29.3590   43.0571 H   0  0  0  0  0  0  0  0  0  0  0  0
   56.4869   28.5817   43.6521 H   0  0  0  0  0  0  0  0  0  0  0  0
  1  2  1  0
  2  3  1  0
  3  4  1  0
  4  5  2  0
  5  6  1  0
  6  7  1  0
  7  8  2  0
  2  9  1  0
  9 10  1  0
 10 11  2  0
 11 12  1  0
 12 13  2  0
 13 14  1  0
 14 15  1  0
 15 16  1  0
 16 17  1  0
 17 18  1  0
 18 19  1  0
 13 20  1  0
  8  4  1  0
 20 10  1  0
 19 14  1  0
  1 21  1  0
  1 22  1  0
  1 23  1  0
  3 24  1  0
  3 25  1  0
  5 26  1  0
  7 27  1  0
  8 28  1  0
  9 29  1  0
  9 30  1  0
 11 31  1  0
 15 32  1  0
 15 33  1  0
 16 34  1  0
 16 35  1  0
 18 36  1  0
 18 37  1  0
 19 38  1  0
 19 39  1  0
M  CHG  1   8   1
M  END
>  <UniqueID>  (27) 
27

>  <SMILES>  (27) 
CN(Cc1csc[nH+]1)Cc1cnc(N2CCOCC2)s1

>  <Energy>  (27) 
101.26859498517834

>  <Genealogy>  (27) 
CN(Cc1csc[nH+]1)Cc1cnc(N2CCOCC2)s1 (protonated)
CN(Cc1csc[nH+]1)Cc1cnc(N2CCOCC2)s1 (3D coordinates assigned)
CN(Cc1csc[nH+]1)Cc1cnc(N2CCOCC2)s1 (nonaromatic ring conformer: 101.26859498517834 kcal/mol)

>  <smiles>  (27) 
CN(Cc1cscn1)Cc1cnc(N2CCOCC2)s1

>  <score_type>  (27) 
oracle

>  <origin>  (27) 
adg

>  <m_score__min__energy>  (27) 
-5.3899999999999997

>  <m_primary>  (27) 
energy

$$$$
27:0
     RDKit          3D

 35 36  0  0  0  0  0  0  0  0999 V2000
   59.6280   28.5580   44.5320 C   0  0  0  0  0  0  0  0  0  0  0  0
   58.1020   28.7270   44.5110 C   0  0  0  0  0  0  0  0  0  0  0  0
   57.6160   29.8180   43.6320 N   0  0  1  0  0  0  0  0  0  0  0  0
   56.6450   29.3450   42.6270 C   0  0  0  0  0  0  0  0  0  0  0  0
   57.1020   30.9360   44.3990 C   0  0  0  0  0  0  0  0  0  0  0  0
   55.8580   31.1130   44.5200 O   0  0  0  0  0  0  0  0  0  0  0  0
   58.0220   31.8540   45.0970 C   0  0  0  0  0  0  0  0  0  0  0  0
   57.8370   33.2080   45.2780 C   0  0  0  0  0  0  0  0  0  0  0  0
   58.8710   33.6580   45.9450 O   0  0  0  0  0  0  0  0  0  0  0  0
   59.6670   32.6340   46.1710 C   0  0  0  0  0  0  0  0  0  0  0  0
   60.9470   32.7390   46.9020 C   0  0  0  0  0  0  0  0  0  0  0  0
   61.8820   33.7330   46.5680 C   0  0  0  0  0  0  0  0  0  0  0  0
   63.0910   33.8280   47.2650 C   0  0  0  0  0  0  0  0  0  0  0  0
   63.3770   32.9410   48.3130 C   0  0  0  0  0  0  0  0  0  0  0  0
   64.6880   33.0200   49.0360 C   0  0  0  0  0  0  0  0  0  0  0  0
   62.4530   31.9360   48.6350 C   0  0  0  0  0  0  0  0  0  0  0  0
   61.2440   31.8400   47.9390 C   0  0  0  0  0  0  0  0  0  0  0  0
   59.1860   31.4800   45.6620 N   0  0  0  0  0  0  0  0  0  0  0  0
   59.9783   28.5192   45.5740 H   0  0  0  0  0  0  0  0  0  0  0  0
   59.9006   27.6242   44.0185 H   0  0  0  0  0  0  0  0  0  0  0  0
   60.0983   29.4096   44.0185 H   0  0  0  0  0  0  0  0  0  0  0  0
   57.6565   27.7827   44.1648 H   0  0  0  0  0  0  0  0  0  0  0  0
   57.8027   28.9938   45.5353 H   0  0  0  0  0  0  0  0  0  0  0  0
   58.4440   30.1580   43.0870 H   0  0  0  0  0  0  0  0  0  0  0  0
   55.7686   28.9181   43.1365 H   0  0  0  0  0  0  0  0  0  0  0  0
   56.3279   30.1896   41.9976 H   0  0  0  0  0  0  0  0  0  0  0  0
   57.1146   28.5747   41.9976 H   0  0  0  0  0  0  0  0  0  0  0  0
   56.9796   33.8011   44.9272 H   0  0  0  0  0  0  0  0  0  0  0  0
   61.6622   34.4400   45.7544 H   0  0  0  0  0  0  0  0  0  0  0  0
   63.8216   34.6028   46.9896 H   0  0  0  0  0  0  0  0  0  0  0  0
   64.5094   33.0092   50.1214 H   0  0  0  0  0  0  0  0  0  0  0  0
   65.3123   32.1578   48.7586 H   0  0  0  0  0  0  0  0  0  0  0  0
   65.2042   33.9509   48.7586 H   0  0  0  0  0  0  0  0  0  0  0  0
   62.6805   31.2202   49.4386 H   0  0  0  0  0  0  0  0  0  0  0  0
   60.5209   31.0551   48.2056 H   0  0  0  0  0  0  0  0  0  0  0  0
  1  2  1  0
  2  3  1  0
  3  4  1  0
  3  5  1  0
  5  6  2  0
  5  7  1  0
  7  8  2  0
  8  9  1  0
  9 10  1  0
 10 11  1  0
 11 12  2  0
 12 13  1  0
 13 14  2  0
 14 15  1  0
 14 16  1  0
 16 17  2  0
 10 18  2  0
 18  7  1  0
 17 11  1  0
  1 19  1  0
  1 20  1  0
  1 21  1  0
  2 22  1  0
  2 23  1  0
  3 24  1  6
  4 25  1  0
  4 26  1  0
  4 27  1  0
  8 28  1  0
 12 29  1  0
 13 30  1  0
 15 31  1  0
 15 32  1  0
 15 33  1  0
 16 34  1  0
 17 35  1  0
M  CHG  1   3   1
M  END
>  <UniqueID>  (28) 
28

>  <SMILES>  (28) 
CC[N@@H+](C)C(=O)c1coc(-c2ccc(C)cc2)n1

>  <Energy>  (28) 
65.9393807697133

>  <Genealogy>  (28) 
CC[NH+](C)C(=O)c1coc(-c2ccc(C)cc2)n1 (protonated)
CC[N@@H+](C)C(=O)c1coc(-c2ccc(C)cc2)n1 (chirality)
CC[N@@H+](C)C(=O)c1coc(-c2ccc(C)cc2)n1 (3D coordinates assigned)
CC[N@@H+](C)C(=O)c1coc(-c2ccc(C)cc2)n1 (optimized conformer: 65.9393807697133 kcal/mol)

>  <smiles>  (28) 
CCN(C)C(=O)c1coc(-c2ccc(C)cc2)n1

>  <score_type>  (28) 
oracle

>  <origin>  (28) 
adg

>  <m_score__min__energy>  (28) 
-4.8799999999999999

>  <m_primary>  (28) 
energy

$$$$
28:0
     RDKit          3D

 38 40  0  0  0  0  0  0  0  0999 V2000
   60.1037   30.0402   45.7745 H   0  0  0  0  0  0  0  0  0  0  0  0
   59.0690   30.1890   45.4320 C   0  0  0  0  0  0  0  0  0  0  0  0
   58.1690   29.1120   44.5050 S   0  0  0  0  0  0  0  0  0  0  0  0
   56.8040   30.0920   44.4930 C   0  0  0  0  0  0  0  0  0  0  0  0
   55.5320   29.7810   43.7800 C   0  0  0  0  0  0  0  0  0  0  0  0
   54.7374   29.5867   44.5155 H   0  0  0  0  0  0  0  0  0  0  0  0
   55.2468   30.6359   43.1492 H   0  0  0  0  0  0  0  0  0  0  0  0
   55.6734   28.8910   43.1492 H   0  0  0  0  0  0  0  0  0  0  0  0
   57.0140   31.2390   45.1720 N   0  0  0  0  0  0  0  0  0  0  0  0
   58.2710   31.3050   45.6900 C   0  0  0  0  0  0  0  0  0  0  0  0
   58.7010   32.4520   46.5210 C   0  0  0  0  0  0  0  0  0  0  0  0
   58.3630   33.7830   46.2060 C   0  0  0  0  0  0  0  0  0  0  0  0
   57.3090   34.2030   44.8580 Cl  0  0  0  0  0  0  0  0  0  0  0  0
   58.8180   34.8130   47.0310 C   0  0  0  0  0  0  0  0  0  0  0  0
   58.5681   35.8563   46.7880 H   0  0  0  0  0  0  0  0  0  0  0  0
   59.5670   34.5390   48.1320 N   0  0  0  0  0  0  0  0  0  0  0  0
   59.8850   35.3370   48.7250 H   0  0  0  0  0  0  0  0  0  0  0  0
   59.8930   33.2640   48.4880 C   0  0  0  0  0  0  0  0  0  0  0  0
   60.6020   33.0850   49.5730 N   0  0  0  0  0  0  0  0  0  0  0  0
   62.0580   33.0780   49.7770 C   0  0  0  0  0  0  0  0  0  0  0  0
   62.2655   33.6401   50.6995 H   0  0  0  0  0  0  0  0  0  0  0  0
   62.5940   31.6540   50.0340 C   0  0  0  0  0  0  0  0  0  0  0  0
   62.0617   31.2222   50.8943 H   0  0  0  0  0  0  0  0  0  0  0  0
   62.4265   31.0546   49.1270 H   0  0  0  0  0  0  0  0  0  0  0  0
   64.1060   31.6620   50.3340 C   0  0  0  0  0  0  0  0  0  0  0  0
   64.2452   31.8745   51.4043 H   0  0  0  0  0  0  0  0  0  0  0  0
   64.4932   30.6739   50.0446 H   0  0  0  0  0  0  0  0  0  0  0  0
   64.9010   32.7080   49.5240 C   0  0  0  0  0  0  0  0  0  0  0  0
   65.1009   33.5760   50.1695 H   0  0  0  0  0  0  0  0  0  0  0  0
   65.8328   32.2306   49.1866 H   0  0  0  0  0  0  0  0  0  0  0  0
   64.1460   33.1860   48.2780 C   0  0  0  0  0  0  0  0  0  0  0  0
   64.7689   33.9131   47.7364 H   0  0  0  0  0  0  0  0  0  0  0  0
   63.9309   32.3148   47.6419 H   0  0  0  0  0  0  0  0  0  0  0  0
   62.8160   33.8520   48.6640 C   0  0  0  0  0  0  0  0  0  0  0  0
   63.0239   34.8707   49.0231 H   0  0  0  0  0  0  0  0  0  0  0  0
   62.1760   33.8583   47.7694 H   0  0  0  0  0  0  0  0  0  0  0  0
   59.4580   32.1970   47.6740 C   0  0  0  0  0  0  0  0  0  0  0  0
   59.7133   31.1618   47.9444 H   0  0  0  0  0  0  0  0  0  0  0  0
  1  2  1  0
  2  3  1  0
  3  4  1  0
  4  5  1  0
  5  6  1  0
  5  7  1  0
  5  8  1  0
  4  9  2  0
  9 10  1  0
 10 11  1  0
 11 12  1  0
 12 13  1  0
 12 14  2  0
 14 15  1  0
 14 16  1  0
 16 17  1  0
 16 18  1  0
 18 19  2  0
 19 20  1  0
 20 21  1  0
 20 22  1  0
 22 23  1  0
 22 24  1  0
 22 25  1  0
 25 26  1  0
 25 27  1  0
 25 28  1  0
 28 29  1  0
 28 30  1  0
 28 31  1  0
 31 32  1  0
 31 33  1  0
 31 34  1  0
 34 35  1  0
 34 36  1  0
 18 37  1  0
 37 38  1  0
 10  2  2  0
 37 11  2  0
 34 20  1  0
M  END
>  <UniqueID>  (29) 
29

>  <SMILES>  (29) 
Cc1nc(-c2c/c(=N\C3CCCCC3)[nH]cc2Cl)cs1

>  <Energy>  (29) 
81.14730119466118

>  <Genealogy>  (29) 
Cc1nc(-c2c/c(=N\C3CCCCC3)[nH]cc2Cl)cs1 (cis-trans isomerization)
Cc1nc(-c2c/c(=N\C3CCCCC3)[nH]cc2Cl)cs1 (3D coordinates assigned)
Cc1nc(-c2c/c(=N\C3CCCCC3)[nH]cc2Cl)cs1 (nonaromatic ring conformer: 81.14730119466118 kcal/mol)

>  <smiles>  (29) 
Cc1nc(-c2cc(=NC3CCCCC3)[nH]cc2Cl)cs1

>  <score_type>  (29) 
oracle

>  <origin>  (29) 
adg

>  <m_score__min__energy>  (29) 
-7.3200000000000003

>  <m_primary>  (29) 
energy

$$$$
29:0
     RDKit          3D

 41 42  0  0  0  0  0  0  0  0999 V2000
   58.4590   28.5373   45.8890 H   0  0  0  0  0  0  0  0  0  0  0  0
   58.6610   29.5750   46.1930 C   0  0  0  0  0  0  0  0  0  0  0  0
   58.1770   30.5430   45.3770 C   0  0  0  0  0  0  0  0  0  0  0  0
   57.9060   31.8980   45.8690 C   0  0  0  0  0  0  0  0  0  0  0  0
   57.9290   32.2420   47.0810 O   0  0  0  0  0  0  0  0  0  0  0  0
   57.6630   32.8060   44.8100 N   0  0  0  0  0  0  0  0  0  0  0  0
   57.7780   34.2640   44.8970 C   0  0  0  0  0  0  0  0  0  0  0  0
   57.2629   34.7158   44.0364 H   0  0  0  0  0  0  0  0  0  0  0  0
   57.3200   34.5920   45.8418 H   0  0  0  0  0  0  0  0  0  0  0  0
   59.2480   34.7110   44.8910 C   0  0  0  0  0  0  0  0  0  0  0  0
   59.7896   34.1419   44.1211 H   0  0  0  0  0  0  0  0  0  0  0  0
   59.2753   35.7901   44.6792 H   0  0  0  0  0  0  0  0  0  0  0  0
   59.9110   34.4800   46.2240 C   0  0  0  0  0  0  0  0  0  0  0  0
   61.1570   33.8310   46.2930 C   0  0  0  0  0  0  0  0  0  0  0  0
   61.6753   33.5396   45.3675 H   0  0  0  0  0  0  0  0  0  0  0  0
   61.7390   33.5550   47.5340 C   0  0  0  0  0  0  0  0  0  0  0  0
   62.7119   33.0441   47.5827 H   0  0  0  0  0  0  0  0  0  0  0  0
   61.0870   33.9270   48.7120 C   0  0  0  0  0  0  0  0  0  0  0  0
   61.5482   33.7118   49.6872 H   0  0  0  0  0  0  0  0  0  0  0  0
   59.8480   34.5730   48.6520 C   0  0  0  0  0  0  0  0  0  0  0  0
   59.3361   34.8668   49.5803 H   0  0  0  0  0  0  0  0  0  0  0  0
   59.2590   34.8460   47.4130 C   0  0  0  0  0  0  0  0  0  0  0  0
   58.2817   35.3491   47.3697 H   0  0  0  0  0  0  0  0  0  0  0  0
   57.7710   32.0390   43.6180 C   0  0  0  0  0  0  0  0  0  0  0  0
   57.7050   32.5530   42.4690 O   0  0  0  0  0  0  0  0  0  0  0  0
   58.0110   30.5740   43.8630 C   0  0  2  0  0  0  0  0  0  0  0  0
   58.8732   30.1308   43.3432 H   0  0  0  0  0  0  0  0  0  0  0  0
   56.8010   29.7730   43.3640 C   0  0  0  0  0  0  0  0  0  0  0  0
   56.2307   29.3954   44.2255 H   0  0  0  0  0  0  0  0  0  0  0  0
   56.1567   30.4236   42.7544 H   0  0  0  0  0  0  0  0  0  0  0  0
   57.1482   28.9258   42.7544 H   0  0  0  0  0  0  0  0  0  0  0  0
   59.4140   29.7480   47.4200 N   0  0  0  0  0  0  0  0  0  0  0  0
   58.9460   30.5340   47.9320 H   0  0  0  0  0  0  0  0  0  0  0  0
   59.2860   28.5710   48.2930 C   0  0  0  0  0  0  0  0  0  0  0  0
   59.3206   28.8895   49.3453 H   0  0  0  0  0  0  0  0  0  0  0  0
   58.3279   28.0688   48.0933 H   0  0  0  0  0  0  0  0  0  0  0  0
   60.1137   27.8746   48.0933 H   0  0  0  0  0  0  0  0  0  0  0  0
   60.8120   30.1710   47.2360 C   0  0  0  0  0  0  0  0  0  0  0  0
   61.2843   30.3139   48.2191 H   0  0  0  0  0  0  0  0  0  0  0  0
   61.3583   29.3979   46.6757 H   0  0  0  0  0  0  0  0  0  0  0  0
   60.8381   31.1172   46.6757 H   0  0  0  0  0  0  0  0  0  0  0  0
  1  2  1  0
  2  3  2  0
  3  4  1  0
  4  5  2  0
  4  6  1  0
  6  7  1  0
  7  8  1  0
  7  9  1  0
  7 10  1  0
 10 11  1  0
 10 12  1  0
 10 13  1  0
 13 14  2  0
 14 15  1  0
 14 16  1  0
 16 17  1  0
 16 18  2  0
 18 19  1  0
 18 20  1  0
 20 21  1  0
 20 22  2  0
 22 23  1  0
  6 24  1  0
 24 25  2  0
 24 26  1  0
 26 27  1  6
 26 28  1  0
 28 29  1  0
 28 30  1  0
 28 31  1  0
  2 32  1  0
 32 33  1  0
 32 34  1  0
 34 35  1  0
 34 36  1  0
 34 37  1  0
 32 38  1  0
 38 39  1  0
 38 40  1  0
 38 41  1  0
 26  3  1  0
 22 13  1  0
M  CHG  1  32   1
M  END
>  <UniqueID>  (30) 
30

>  <SMILES>  (30) 
C[C@H]1C(=O)N(CCc2ccccc2)C(=O)/C1=C/[NH+](C)C

>  <Energy>  (30) 
60.901863010846284

>  <Genealogy>  (30) 
CC1C(=O)N(CCc2ccccc2)C(=O)C1=C[NH+](C)C (protonated)
C[C@H]1C(=O)N(CCc2ccccc2)C(=O)C1=C[NH+](C)C (chirality)
C[C@H]1C(=O)N(CCc2ccccc2)C(=O)/C1=C/[NH+](C)C (cis-trans isomerization)
C[C@H]1C(=O)N(CCc2ccccc2)C(=O)/C1=C/[NH+](C)C (3D coordinates assigned)
C[C@H]1C(=O)N(CCc2ccccc2)C(=O)/C1=C/[NH+](C)C (nonaromatic ring conformer: 60.901863010846284 kcal/mol)

>  <smiles>  (30) 
CC1C(=O)N(CCc2ccccc2)C(=O)C1=CN(C)C

>  <score_type>  (30) 
oracle

>  <origin>  (30) 
adg

>  <m_score__min__energy>  (30) 
-4.8799999999999999

>  <m_primary>  (30) 
energy

$$$$
30:0
     RDKit          3D

 33 34  0  0  0  0  0  0  0  0999 V2000
   63.1023   33.2464   45.5371 H   0  0  0  0  0  0  0  0  0  0  0  0
   63.0070   33.7470   46.5120 C   0  0  0  0  0  0  0  0  0  0  0  0
   63.8115   34.4041   46.8738 H   0  0  0  0  0  0  0  0  0  0  0  0
   61.9150   33.5570   47.2560 C   0  0  0  0  0  0  0  0  0  0  0  0
   61.1187   32.8971   46.8813 H   0  0  0  0  0  0  0  0  0  0  0  0
   61.7470   34.2220   48.5920 C   0  0  0  0  0  0  0  0  0  0  0  0
   62.1317   33.5536   49.3764 H   0  0  0  0  0  0  0  0  0  0  0  0
   62.3052   35.1698   48.5818 H   0  0  0  0  0  0  0  0  0  0  0  0
   59.9910   34.5890   48.9310 S   0  0  0  0  0  0  0  0  0  0  0  0
   59.5020   34.5780   47.2030 C   0  0  0  0  0  0  0  0  0  0  0  0
   59.8080   35.5680   46.3450 N   0  0  0  0  0  0  0  0  0  0  0  0
   59.2870   35.2370   45.1730 N   0  0  0  0  0  0  0  0  0  0  0  0
   58.6790   34.0440   45.3300 C   0  0  0  0  0  0  0  0  0  0  0  0
   57.9650   33.3750   44.2250 C   0  0  0  0  0  0  0  0  0  0  0  0
   57.1522   33.9151   43.7174 H   0  0  0  0  0  0  0  0  0  0  0  0
   58.2680   32.1360   43.8160 C   0  0  0  0  0  0  0  0  0  0  0  0
   59.0702   32.0151   43.0732 H   0  0  0  0  0  0  0  0  0  0  0  0
   57.5810   30.9190   44.3100 C   0  0  0  0  0  0  0  0  0  0  0  0
   58.2580   29.9020   45.0150 C   0  0  0  0  0  0  0  0  0  0  0  0
   59.3330   30.0044   45.2247 H   0  0  0  0  0  0  0  0  0  0  0  0
   57.5700   28.7640   45.4490 C   0  0  0  0  0  0  0  0  0  0  0  0
   58.1037   27.9784   46.0040 H   0  0  0  0  0  0  0  0  0  0  0  0
   56.2060   28.6230   45.1790 C   0  0  0  0  0  0  0  0  0  0  0  0
   55.5250   27.4920   45.6130 O   0  0  0  0  0  0  0  0  0  0  0  0
   55.5300   29.6160   44.4690 C   0  0  0  0  0  0  0  0  0  0  0  0
   54.4575   29.5024   44.2527 H   0  0  0  0  0  0  0  0  0  0  0  0
   56.2130   30.7550   44.0320 C   0  0  0  0  0  0  0  0  0  0  0  0
   55.6751   31.5295   43.4657 H   0  0  0  0  0  0  0  0  0  0  0  0
   58.7760   33.6100   46.6070 N   0  0  0  0  0  0  0  0  0  0  0  0
   58.1910   32.4240   47.2300 C   0  0  0  0  0  0  0  0  0  0  0  0
   58.2398   32.5229   48.3245 H   0  0  0  0  0  0  0  0  0  0  0  0
   57.1410   32.3256   46.9172 H   0  0  0  0  0  0  0  0  0  0  0  0
   58.7520   31.5310   46.9172 H   0  0  0  0  0  0  0  0  0  0  0  0
  1  2  1  0
  2  3  1  0
  2  4  2  0
  4  5  1  0
  4  6  1  0
  6  7  1  0
  6  8  1  0
  6  9  1  0
  9 10  1  0
 10 11  2  0
 11 12  1  0
 12 13  2  0
 13 14  1  0
 14 15  1  0
 14 16  2  0
 16 17  1  0
 16 18  1  0
 18 19  2  0
 19 20  1  0
 19 21  1  0
 21 22  1  0
 21 23  2  0
 23 24  1  0
 23 25  1  0
 25 26  1  0
 25 27  2  0
 27 28  1  0
 13 29  1  0
 29 30  1  0
 30 31  1  0
 30 32  1  0
 30 33  1  0
 29 10  1  0
 27 18  1  0
M  CHG  1  24  -1
M  END
>  <UniqueID>  (31) 
31

>  <SMILES>  (31) 
C=CCSc1nnc(/C=C/c2ccc([O-])cc2)n1C

>  <Energy>  (31) 
66.07068673861448

>  <Genealogy>  (31) 
C=CCSc1nnc(C=Cc2ccc([O-])cc2)n1C (protonated)
C=CCSc1nnc(/C=C/c2ccc([O-])cc2)n1C (cis-trans isomerization)
C=CCSc1nnc(/C=C/c2ccc([O-])cc2)n1C (3D coordinates assigned)
C=CCSc1nnc(/C=C/c2ccc([O-])cc2)n1C (optimized conformer: 66.07068673861448 kcal/mol)

>  <smiles>  (31) 
C=CCSc1nnc(C=Cc2ccc(O)cc2)n1C

>  <score_type>  (31) 
oracle

>  <origin>  (31) 
adg

>  <m_score__min__energy>  (31) 
-10.380000000000001

>  <m_primary>  (31) 
energy

$$$$
31:0
     RDKit          3D

 49 52  0  0  0  0  0  0  0  0999 V2000
   64.3920   33.3577   49.2945 H   0  0  0  0  0  0  0  0  0  0  0  0
   63.4120   33.4670   48.8070 C   0  0  0  0  0  0  0  0  0  0  0  0
   63.2980   33.3060   47.4250 C   0  0  0  0  0  0  0  0  0  0  0  0
   64.1863   33.0594   46.8250 H   0  0  0  0  0  0  0  0  0  0  0  0
   62.0560   33.4580   46.8040 C   0  0  0  0  0  0  0  0  0  0  0  0
   61.9708   33.3323   45.7145 H   0  0  0  0  0  0  0  0  0  0  0  0
   60.9160   33.7700   47.5610 C   0  0  0  0  0  0  0  0  0  0  0  0
   59.6570   33.9820   46.9040 N   0  0  0  0  0  0  0  0  0  0  0  0
   58.4220   33.5110   47.5320 C   0  0  0  0  0  0  0  0  0  0  0  0
   58.6292   32.6027   48.1168 H   0  0  0  0  0  0  0  0  0  0  0  0
   58.0258   34.2895   48.2006 H   0  0  0  0  0  0  0  0  0  0  0  0
   57.3960   33.1960   46.4430 C   0  0  0  0  0  0  0  0  0  0  0  0
   57.7410   32.3265   45.8643 H   0  0  0  0  0  0  0  0  0  0  0  0
   56.4300   32.9804   46.9230 H   0  0  0  0  0  0  0  0  0  0  0  0
   57.2300   34.2980   45.5690 O   0  0  0  0  0  0  0  0  0  0  0  0
   58.4390   34.5600   44.8790 C   0  0  0  0  0  0  0  0  0  0  0  0
   58.7591   33.6482   44.3535 H   0  0  0  0  0  0  0  0  0  0  0  0
   58.2654   35.3751   44.1611 H   0  0  0  0  0  0  0  0  0  0  0  0
   59.5360   34.9890   45.8500 C   0  0  0  0  0  0  0  0  0  0  0  0
   60.4914   35.0769   45.3120 H   0  0  0  0  0  0  0  0  0  0  0  0
   59.2812   35.9631   46.2930 H   0  0  0  0  0  0  0  0  0  0  0  0
   61.0280   33.9050   48.9610 C   0  0  0  0  0  0  0  0  0  0  0  0
   59.8910   34.1730   49.7890 N   0  0  0  0  0  0  0  0  0  0  0  0
   59.7790   33.7190   51.1420 C   0  0  0  0  0  0  0  0  0  0  0  0
   60.7560   33.8360   51.9290 O   0  0  0  0  0  0  0  0  0  0  0  0
   58.4830   33.3410   51.6220 N   0  0  0  0  0  0  0  0  0  0  0  0
   57.8530   32.2010   51.5480 C   0  0  0  0  0  0  0  0  0  0  0  0
   56.6340   31.9880   52.1510 C   0  0  0  0  0  0  0  0  0  0  0  0
   55.9820   32.7252   52.6423 H   0  0  0  0  0  0  0  0  0  0  0  0
   56.4210   30.6330   51.9950 C   0  0  0  0  0  0  0  0  0  0  0  0
   55.2760   29.8590   52.5610 C   0  0  0  0  0  0  0  0  0  0  0  0
   55.3205   29.8891   53.6597 H   0  0  0  0  0  0  0  0  0  0  0  0
   54.3291   30.3030   52.2201 H   0  0  0  0  0  0  0  0  0  0  0  0
   55.3351   28.8148   52.2201 H   0  0  0  0  0  0  0  0  0  0  0  0
   57.4410   30.0800   51.3120 N   0  0  0  0  0  0  0  0  0  0  0  0
   58.3180   31.0340   51.0300 N   0  0  0  0  0  0  0  0  0  0  0  0
   59.2710   30.8450   49.9760 C   0  0  0  0  0  0  0  0  0  0  0  0
   60.6210   30.6310   50.2890 C   0  0  0  0  0  0  0  0  0  0  0  0
   60.9710   30.7622   51.3235 H   0  0  0  0  0  0  0  0  0  0  0  0
   61.5250   30.2510   49.2900 C   0  0  0  0  0  0  0  0  0  0  0  0
   62.5889   30.1153   49.5343 H   0  0  0  0  0  0  0  0  0  0  0  0
   61.0770   30.0440   47.9830 C   0  0  0  0  0  0  0  0  0  0  0  0
   61.7847   29.7267   47.2030 H   0  0  0  0  0  0  0  0  0  0  0  0
   59.7290   30.2400   47.6660 C   0  0  0  0  0  0  0  0  0  0  0  0
   59.1580   29.9220   46.0370 Cl  0  0  0  0  0  0  0  0  0  0  0  0
   58.8290   30.6540   48.6560 C   0  0  0  0  0  0  0  0  0  0  0  0
   57.7739   30.8300   48.3996 H   0  0  0  0  0  0  0  0  0  0  0  0
   62.2810   33.7670   49.5710 C   0  0  0  0  0  0  0  0  0  0  0  0
   62.3756   33.8957   50.6593 H   0  0  0  0  0  0  0  0  0  0  0  0
  1  2  1  0
  2  3  2  0
  3  4  1  0
  3  5  1  0
  5  6  1  0
  5  7  2  0
  7  8  1  0
  8  9  1  0
  9 10  1  0
  9 11  1  0
  9 12  1  0
 12 13  1  0
 12 14  1  0
 12 15  1  0
 15 16  1  0
 16 17  1  0
 16 18  1  0
 16 19  1  0
 19 20  1  0
 19 21  1  0
  7 22  1  0
 22 23  1  0
 23 24  1  0
 24 25  2  0
 24 26  1  0
 26 27  2  0
 27 28  1  0
 28 29  1  0
 28 30  2  0
 30 31  1  0
 31 32  1  0
 31 33  1  0
 31 34  1  0
 30 35  1  0
 35 36  1  0
 36 37  1  0
 37 38  2  0
 38 39  1  0
 38 40  1  0
 40 41  1  0
 40 42  2  0
 42 43  1  0
 42 44  1  0
 44 45  1  0
 44 46  2  0
 46 47  1  0
 22 48  2  0
 48 49  1  0
 48  2  1  0
 19  8  1  0
 36 27  1  0
 46 37  1  0
M  CHG  2  23  -1  35  -1
M  END
>  <UniqueID>  (32) 
32

>  <SMILES>  (32) 
Cc1c/c(=N/C(=O)[N-]c2ccccc2N2CCOCC2)n(-c2cccc(Cl)c2)[n-]1

>  <Energy>  (32) 
113.61762798262853

>  <Genealogy>  (32) 
Cc1cc(=NC(=O)[N-]c2ccccc2N2CCOCC2)n(-c2cccc(Cl)c2)[n-]1 (protonated)
Cc1c/c(=N/C(=O)[N-]c2ccccc2N2CCOCC2)n(-c2cccc(Cl)c2)[n-]1 (cis-trans isomerization)
Cc1c/c(=N/C(=O)[N-]c2ccccc2N2CCOCC2)n(-c2cccc(Cl)c2)[n-]1 (3D coordinates assigned)
Cc1c/c(=N/C(=O)[N-]c2ccccc2N2CCOCC2)n(-c2cccc(Cl)c2)[n-]1 (nonaromatic ring conformer: 113.61762798262853 kcal/mol)

>  <smiles>  (32) 
Cc1cc(=NC(=O)Nc2ccccc2N2CCOCC2)n(-c2cccc(Cl)c2)[nH]1

>  <score_type>  (32) 
oracle

>  <origin>  (32) 
adg

>  <m_score__min__energy>  (32) 
-10.74

>  <m_primary>  (32) 
energy

$$$$
32:0
     RDKit          3D

 41 44  0  0  0  0  0  0  0  0999 V2000
   54.7630   28.5920   44.4950 H   0  0  0  0  0  0  0  0  0  0  0  0
   55.2210   29.5200   44.6350 N   0  0  0  0  0  0  0  0  0  0  0  0
   56.4660   29.6300   44.9770 C   0  0  0  0  0  0  0  0  0  0  0  0
   57.0070   30.8570   45.2100 N   0  0  0  0  0  0  0  0  0  0  0  0
   58.3250   30.9820   45.5720 C   0  0  0  0  0  0  0  0  0  0  0  0
   58.8800   32.2830   45.8150 N   0  0  0  0  0  0  0  0  0  0  0  0
   58.1730   33.5190   45.5470 C   0  0  0  0  0  0  0  0  0  0  0  0
   57.7765   33.5233   44.5209 H   0  0  0  0  0  0  0  0  0  0  0  0
   57.3117   33.6569   46.2172 H   0  0  0  0  0  0  0  0  0  0  0  0
   59.2130   34.6100   45.7220 C   0  0  0  0  0  0  0  0  0  0  0  0
   59.6415   34.8885   44.7479 H   0  0  0  0  0  0  0  0  0  0  0  0
   58.7722   35.5187   46.1579 H   0  0  0  0  0  0  0  0  0  0  0  0
   60.3100   34.0160   46.6420 C   0  0  1  0  0  0  0  0  0  0  0  0
   61.2893   34.4644   46.4188 H   0  0  0  0  0  0  0  0  0  0  0  0
   60.1200   34.2930   48.0970 N   0  0  0  0  0  0  0  0  0  0  0  0
   59.1600   33.3270   48.6740 C   0  0  0  0  0  0  0  0  0  0  0  0
   59.2072   33.3745   49.7720 H   0  0  0  0  0  0  0  0  0  0  0  0
   58.1424   33.5771   48.3396 H   0  0  0  0  0  0  0  0  0  0  0  0
   59.4165   32.3109   48.3396 H   0  0  0  0  0  0  0  0  0  0  0  0
   61.3720   34.2130   48.8760 C   0  0  0  0  0  0  0  0  0  0  0  0
   61.1369   34.2280   49.9505 H   0  0  0  0  0  0  0  0  0  0  0  0
   61.8986   33.2794   48.6289 H   0  0  0  0  0  0  0  0  0  0  0  0
   62.0131   35.0720   48.6289 H   0  0  0  0  0  0  0  0  0  0  0  0
   60.2050   32.5010   46.3720 C   0  0  0  0  0  0  0  0  0  0  0  0
   60.9774   32.1864   45.6548 H   0  0  0  0  0  0  0  0  0  0  0  0
   60.3560   31.9169   47.2918 H   0  0  0  0  0  0  0  0  0  0  0  0
   59.1080   29.8690   45.7020 N   0  0  0  0  0  0  0  0  0  0  0  0
   58.5440   28.6620   45.4630 C   0  0  0  0  0  0  0  0  0  0  0  0
   57.2670   28.5450   45.1130 N   0  0  0  0  0  0  0  0  0  0  0  0
   56.9800   27.2670   44.9440 N   0  0  0  0  0  0  0  0  0  0  0  0
   58.1450   26.6200   45.2090 C   0  0  0  0  0  0  0  0  0  0  0  0
   58.2850   25.1590   45.1420 C   0  0  0  0  0  0  0  0  0  0  0  0
   59.1690   24.4790   45.8330 O   0  0  0  0  0  0  0  0  0  0  0  0
   59.0350   23.2040   45.5480 C   0  0  0  0  0  0  0  0  0  0  0  0
   59.6409   22.3916   45.9758 H   0  0  0  0  0  0  0  0  0  0  0  0
   58.0170   23.0390   44.6290 C   0  0  0  0  0  0  0  0  0  0  0  0
   57.6650   22.0911   44.1959 H   0  0  0  0  0  0  0  0  0  0  0  0
   57.5310   24.3020   44.3640 C   0  0  0  0  0  0  0  0  0  0  0  0
   56.7146   24.5706   43.6775 H   0  0  0  0  0  0  0  0  0  0  0  0
   59.1510   27.4710   45.5410 N   0  0  0  0  0  0  0  0  0  0  0  0
   60.1420   27.2610   45.7910 H   0  0  0  0  0  0  0  0  0  0  0  0
  1  2  1  0
  2  3  2  0
  3  4  1  0
  4  5  1  0
  5  6  1  0
  6  7  1  0
  7  8  1  0
  7  9  1  0
  7 10  1  0
 10 11  1  0
 10 12  1  0
 10 13  1  0
 13 14  1  6
 13 15  1  0
 15 16  1  0
 16 17  1  0
 16 18  1  0
 16 19  1  0
 15 20  1  0
 20 21  1  0
 20 22  1  0
 20 23  1  0
 13 24  1  0
 24 25  1  0
 24 26  1  0
  5 27  2  0
 27 28  1  0
 28 29  1  0
 29 30  1  0
 30 31  2  0
 31 32  1  0
 32 33  1  0
 33 34  1  0
 34 35  1  0
 34 36  2  0
 36 37  1  0
 36 38  1  0
 38 39  1  0
 31 40  1  0
 40 41  1  0
 29  3  1  0
 38 32  2  0
 24  6  1  0
 40 28  2  0
M  CHG  2   4  -1  40   1
M  END
>  <UniqueID>  (33) 
33

>  <SMILES>  (33) 
[H]/N=c1/[n-]c(N2CC[C@@H](N(C)C)C2)nc2[nH+]c(-c3ccco3)nn12

>  <Energy>  (33) 
120.19488580837682

>  <Genealogy>  (33) 
CN(C)C1CCN(c2nc3[nH+]c(-c4ccco4)nn3c(=N)[n-]2)C1 (protonated)
CN(C)[C@@H]1CCN(c2nc3[nH+]c(-c4ccco4)nn3c(=N)[n-]2)C1 (chirality)
[H]/N=c1/[n-]c(N2CC[C@@H](N(C)C)C2)nc2[nH+]c(-c3ccco3)nn12 (cis-trans isomerization)
[H]/N=c1/[n-]c(N2CC[C@@H](N(C)C)C2)nc2[nH+]c(-c3ccco3)nn12 (3D coordinates assigned)
[H]/N=c1/[n-]c(N2CC[C@@H](N(C)C)C2)nc2[nH+]c(-c3ccco3)nn12 (nonaromatic ring conformer: 120.19488580837682 kcal/mol)

>  <smiles>  (33) 
CN(C)C1CCN(c2nc3nc(-c4ccco4)nn3c(=N)[nH]2)C1

>  <score_type>  (33) 
oracle

>  <origin>  (33) 
adg

>  <m_score__min__energy>  (33) 
-6.4699999999999998

>  <m_primary>  (33) 
energy

$$$$
33:0
     RDKit          3D

 25 26  0  0  0  0  0  0  0  0999 V2000
   56.8980   29.1700   43.9810 C   0  0  0  0  0  0  0  0  0  0  0  0
   56.4170   30.4060   44.5020 O   0  0  0  0  0  0  0  0  0  0  0  0
   57.1950   31.5640   44.6570 C   0  0  0  0  0  0  0  0  0  0  0  0
   57.4340   31.9960   45.9280 N   0  0  0  0  0  0  0  0  0  0  0  0
   58.2090   33.0850   46.1950 C   0  0  0  0  0  0  0  0  0  0  0  0
   58.4470   33.4860   47.5180 C   0  0  0  0  0  0  0  0  0  0  0  0
   59.2490   34.6000   47.7820 C   0  0  0  0  0  0  0  0  0  0  0  0
   59.8200   35.3200   46.7280 C   0  0  0  0  0  0  0  0  0  0  0  0
   59.5880   34.9310   45.4060 C   0  0  0  0  0  0  0  0  0  0  0  0
   58.7840   33.8140   45.1330 C   0  0  0  0  0  0  0  0  0  0  0  0
   58.5300   33.4120   43.8190 C   0  0  0  0  0  0  0  0  0  0  0  0
   57.7160   32.2990   43.5600 C   0  0  0  0  0  0  0  0  0  0  0  0
   57.3980   31.9530   42.1320 C   0  0  0  0  0  0  0  0  0  0  0  0
   57.1593   28.4986   44.8122 H   0  0  0  0  0  0  0  0  0  0  0  0
   56.1160   28.7029   43.3643 H   0  0  0  0  0  0  0  0  0  0  0  0
   57.7900   29.3544   43.3643 H   0  0  0  0  0  0  0  0  0  0  0  0
   57.0200   31.4530   46.7190 H   0  0  0  0  0  0  0  0  0  0  0  0
   58.0010   32.9219   48.3504 H   0  0  0  0  0  0  0  0  0  0  0  0
   59.4314   34.9110   48.8212 H   0  0  0  0  0  0  0  0  0  0  0  0
   60.4530   36.1943   46.9399 H   0  0  0  0  0  0  0  0  0  0  0  0
   60.0361   35.5010   44.5787 H   0  0  0  0  0  0  0  0  0  0  0  0
   58.9715   33.9723   42.9816 H   0  0  0  0  0  0  0  0  0  0  0  0
   56.6538   31.1433   42.1079 H   0  0  0  0  0  0  0  0  0  0  0  0
   56.9925   32.8390   41.6216 H   0  0  0  0  0  0  0  0  0  0  0  0
   58.3150   31.6235   41.6216 H   0  0  0  0  0  0  0  0  0  0  0  0
  1  2  1  0
  2  3  1  0
  3  4  2  0
  4  5  1  0
  5  6  2  0
  6  7  1  0
  7  8  2  0
  8  9  1  0
  9 10  2  0
 10 11  1  0
 11 12  2  0
 12 13  1  0
 12  3  1  0
 10  5  1  0
  1 14  1  0
  1 15  1  0
  1 16  1  0
  4 17  1  0
  6 18  1  0
  7 19  1  0
  8 20  1  0
  9 21  1  0
 11 22  1  0
 13 23  1  0
 13 24  1  0
 13 25  1  0
M  CHG  1   4   1
M  END
>  <UniqueID>  (34) 
34

>  <SMILES>  (34) 
COc1[nH+]c2ccccc2cc1C

>  <Energy>  (34) 
34.67942727401389

>  <Genealogy>  (34) 
COc1[nH+]c2ccccc2cc1C (protonated)
COc1[nH+]c2ccccc2cc1C (3D coordinates assigned)
COc1[nH+]c2ccccc2cc1C (optimized conformer: 34.67942727401389 kcal/mol)

>  <smiles>  (34) 
COc1nc2ccccc2cc1C

>  <score_type>  (34) 
oracle

>  <origin>  (34) 
adg

>  <m_score__min__energy>  (34) 
-4.7000000000000002

>  <m_primary>  (34) 
energy

$$$$
34:0
     RDKit          3D

 40 40  0  0  0  0  0  0  0  0999 V2000
   57.9440   32.3260   41.7490 C   0  0  0  0  0  0  0  0  0  0  0  0
   57.0120   31.2230   42.2360 C   0  0  0  0  0  0  0  0  0  0  0  0
   57.3000   30.8830   43.6650 C   0  0  0  0  0  0  0  0  0  0  0  0
   58.4960   31.0860   44.3220 C   0  0  0  0  0  0  0  0  0  0  0  0
   58.2630   30.5570   45.5740 C   0  0  0  0  0  0  0  0  0  0  0  0
   59.2320   30.5230   46.7250 C   0  0  0  0  0  0  0  0  0  0  0  0
   59.8590   31.8360   47.0130 N   0  0  1  0  0  0  0  0  0  0  0  0
   58.9890   32.6950   47.8580 C   0  0  0  0  0  0  0  0  0  0  0  0
   58.2940   33.8050   47.0530 C   0  0  0  0  0  0  0  0  0  0  0  0
   58.7150   33.7610   45.7050 O   0  0  0  0  0  0  0  0  0  0  0  0
   57.6830   34.2460   44.8760 C   0  0  0  0  0  0  0  0  0  0  0  0
   61.1830   31.6530   47.5910 C   0  0  0  0  0  0  0  0  0  0  0  0
   61.4280   30.6090   48.2610 O   0  0  0  0  0  0  0  0  0  0  0  0
   62.2450   32.6140   47.3800 N   0  0  0  0  0  0  0  0  0  0  0  0
   62.0380   33.8320   46.5870 C   0  0  0  0  0  0  0  0  0  0  0  0
   63.5590   32.3530   47.9790 C   0  0  0  0  0  0  0  0  0  0  0  0
   57.0380   30.0850   45.6190 O   0  0  0  0  0  0  0  0  0  0  0  0
   56.4290   30.2590   44.4820 N   0  0  0  0  0  0  0  0  0  0  0  0
   58.3821   32.8445   42.6145 H   0  0  0  0  0  0  0  0  0  0  0  0
   58.7473   31.8851   41.1405 H   0  0  0  0  0  0  0  0  0  0  0  0
   57.3753   33.0445   41.1405 H   0  0  0  0  0  0  0  0  0  0  0  0
   55.9702   31.5652   42.1486 H   0  0  0  0  0  0  0  0  0  0  0  0
   57.1709   30.3263   41.6191 H   0  0  0  0  0  0  0  0  0  0  0  0
   59.4139   31.5563   43.9395 H   0  0  0  0  0  0  0  0  0  0  0  0
   58.6923   30.1908   47.6241 H   0  0  0  0  0  0  0  0  0  0  0  0
   60.0419   29.8337   46.4442 H   0  0  0  0  0  0  0  0  0  0  0  0
   59.9410   32.3200   46.0910 H   0  0  0  0  0  0  0  0  0  0  0  0
   58.2189   32.0643   48.3261 H   0  0  0  0  0  0  0  0  0  0  0  0
   59.6287   33.1795   48.6104 H   0  0  0  0  0  0  0  0  0  0  0  0
   57.2045   33.6606   47.0991 H   0  0  0  0  0  0  0  0  0  0  0  0
   58.5596   34.7823   47.4823 H   0  0  0  0  0  0  0  0  0  0  0  0
   56.8627   34.6315   45.4992 H   0  0  0  0  0  0  0  0  0  0  0  0
   58.0726   35.0553   44.2410 H   0  0  0  0  0  0  0  0  0  0  0  0
   57.3085   33.4296   44.2410 H   0  0  0  0  0  0  0  0  0  0  0  0
   61.8924   34.6885   47.2617 H   0  0  0  0  0  0  0  0  0  0  0  0
   62.9187   34.0106   45.9526 H   0  0  0  0  0  0  0  0  0  0  0  0
   61.1478   33.7096   45.9526 H   0  0  0  0  0  0  0  0  0  0  0  0
   63.4721   32.3703   49.0754 H   0  0  0  0  0  0  0  0  0  0  0  0
   63.9199   31.3656   47.6553 H   0  0  0  0  0  0  0  0  0  0  0  0
   64.2699   33.1275   47.6553 H   0  0  0  0  0  0  0  0  0  0  0  0
  1  2  1  0
  2  3  1  0
  3  4  1  0
  4  5  2  0
  5  6  1  0
  6  7  1  0
  7  8  1  0
  8  9  1  0
  9 10  1  0
 10 11  1  0
  7 12  1  0
 12 13  2  0
 12 14  1  0
 14 15  1  0
 14 16  1  0
  5 17  1  0
 17 18  1  0
 18  3  2  0
  1 19  1  0
  1 20  1  0
  1 21  1  0
  2 22  1  0
  2 23  1  0
  4 24  1  0
  6 25  1  0
  6 26  1  0
  7 27  1  6
  8 28  1  0
  8 29  1  0
  9 30  1  0
  9 31  1  0
 11 32  1  0
 11 33  1  0
 11 34  1  0
 15 35  1  0
 15 36  1  0
 15 37  1  0
 16 38  1  0
 16 39  1  0
 16 40  1  0
M  CHG  1   7   1
M  END
>  <UniqueID>  (35) 
35

>  <SMILES>  (35) 
CCc1cc(C[N@@H+](CCOC)C(=O)N(C)C)on1

>  <Energy>  (35) 
65.34144215204893

>  <Genealogy>  (35) 
CCc1cc(C[NH+](CCOC)C(=O)N(C)C)on1 (protonated)
CCc1cc(C[N@@H+](CCOC)C(=O)N(C)C)on1 (chirality)
CCc1cc(C[N@@H+](CCOC)C(=O)N(C)C)on1 (3D coordinates assigned)
CCc1cc(C[N@@H+](CCOC)C(=O)N(C)C)on1 (optimized conformer: 65.34144215204893 kcal/mol)

>  <smiles>  (35) 
CCc1cc(CN(CCOC)C(=O)N(C)C)on1

>  <score_type>  (35) 
oracle

>  <origin>  (35) 
adg

>  <m_score__min__energy>  (35) 
-4.04

>  <m_primary>  (35) 
energy

$$$$
35:0
     RDKit          3D

 47 49  0  0  0  0  0  0  0  0999 V2000
   59.4190   30.4770   49.1220 O   0  0  0  0  0  0  0  0  0  0  0  0
   58.9760   30.8750   48.0110 C   0  0  0  0  0  0  0  0  0  0  0  0
   58.4520   32.2830   47.8740 C   0  0  0  0  0  0  0  0  0  0  0  0
   58.7010   32.8930   46.5520 N   0  0  0  0  0  0  0  0  0  0  0  0
   57.4730   33.1440   45.7760 C   0  0  0  0  0  0  0  0  0  0  0  0
   57.2270   32.0250   44.8130 C   0  0  0  0  0  0  0  0  0  0  0  0
   57.5280   32.0380   43.4650 C   0  0  0  0  0  0  0  0  0  0  0  0
   57.1040   30.8210   42.9800 C   0  0  0  0  0  0  0  0  0  0  0  0
   56.5660   30.1440   44.0560 C   0  0  0  0  0  0  0  0  0  0  0  0
   56.6500   30.8900   45.1340 O   0  0  0  0  0  0  0  0  0  0  0  0
   59.7610   34.2920   46.6280 S   0  0  0  0  0  0  0  0  0  0  0  0
   59.1300   35.3300   47.5140 O   0  0  0  0  0  0  0  0  0  0  0  0
   59.9020   34.8900   45.2540 O   0  0  0  0  0  0  0  0  0  0  0  0
   61.3660   33.9180   47.2650 C   0  0  0  0  0  0  0  0  0  0  0  0
   62.4540   33.7400   46.3970 C   0  0  0  0  0  0  0  0  0  0  0  0
   63.7250   33.4580   46.9070 C   0  0  0  0  0  0  0  0  0  0  0  0
   63.9230   33.3780   48.2880 C   0  0  0  0  0  0  0  0  0  0  0  0
   62.8510   33.5850   49.1590 C   0  0  0  0  0  0  0  0  0  0  0  0
   61.5780   33.8580   48.6510 C   0  0  0  0  0  0  0  0  0  0  0  0
   58.9060   29.9690   46.9000 N   0  0  0  0  0  0  0  0  0  0  0  0
   59.3280   28.5730   47.0010 C   0  0  0  0  0  0  0  0  0  0  0  0
   58.7760   27.7740   45.8530 C   0  0  0  0  0  0  0  0  0  0  0  0
   59.0140   28.1720   44.5270 C   0  0  0  0  0  0  0  0  0  0  0  0
   58.5140   27.4140   43.4630 C   0  0  0  0  0  0  0  0  0  0  0  0
   57.7760   26.2530   43.7150 C   0  0  0  0  0  0  0  0  0  0  0  0
   57.5360   25.8500   45.0320 C   0  0  0  0  0  0  0  0  0  0  0  0
   58.0340   26.6060   46.0990 C   0  0  0  0  0  0  0  0  0  0  0  0
   57.3659   32.2658   48.0475 H   0  0  0  0  0  0  0  0  0  0  0  0
   58.9905   32.8952   48.6124 H   0  0  0  0  0  0  0  0  0  0  0  0
   56.6190   33.2240   46.4647 H   0  0  0  0  0  0  0  0  0  0  0  0
   57.5924   34.0807   45.2119 H   0  0  0  0  0  0  0  0  0  0  0  0
   58.0062   32.8502   42.8979 H   0  0  0  0  0  0  0  0  0  0  0  0
   57.1789   30.4607   41.9434 H   0  0  0  0  0  0  0  0  0  0  0  0
   56.1329   29.1336   44.0167 H   0  0  0  0  0  0  0  0  0  0  0  0
   62.3063   33.8227   45.3101 H   0  0  0  0  0  0  0  0  0  0  0  0
   64.5697   33.2990   46.2206 H   0  0  0  0  0  0  0  0  0  0  0  0
   64.9222   33.1522   48.6887 H   0  0  0  0  0  0  0  0  0  0  0  0
   63.0089   33.5331   50.2464 H   0  0  0  0  0  0  0  0  0  0  0  0
   60.7380   34.0267   49.3409 H   0  0  0  0  0  0  0  0  0  0  0  0
   58.5580   30.3170   45.9790 H   0  0  0  0  0  0  0  0  0  0  0  0
   60.4267   28.5242   46.9813 H   0  0  0  0  0  0  0  0  0  0  0  0
   58.9477   28.1527   47.9437 H   0  0  0  0  0  0  0  0  0  0  0  0
   59.5958   29.0833   44.3246 H   0  0  0  0  0  0  0  0  0  0  0  0
   58.7015   27.7315   42.4266 H   0  0  0  0  0  0  0  0  0  0  0  0
   57.3846   25.6572   42.8773 H   0  0  0  0  0  0  0  0  0  0  0  0
   56.9548   24.9373   45.2298 H   0  0  0  0  0  0  0  0  0  0  0  0
   57.8441   26.2850   47.1339 H   0  0  0  0  0  0  0  0  0  0  0  0
  1  2  2  0
  2  3  1  0
  3  4  1  0
  4  5  1  0
  5  6  1  0
  6  7  2  0
  7  8  1  0
  8  9  2  0
  9 10  1  0
  4 11  1  0
 11 12  2  0
 11 13  2  0
 11 14  1  0
 14 15  2  0
 15 16  1  0
 16 17  2  0
 17 18  1  0
 18 19  2  0
  2 20  1  0
 20 21  1  0
 21 22  1  0
 22 23  2  0
 23 24  1  0
 24 25  2  0
 25 26  1  0
 26 27  2  0
 10  6  1  0
 19 14  1  0
 27 22  1  0
  3 28  1  0
  3 29  1  0
  5 30  1  0
  5 31  1  0
  7 32  1  0
  8 33  1  0
  9 34  1  0
 15 35  1  0
 16 36  1  0
 17 37  1  0
 18 38  1  0
 19 39  1  0
 20 40  1  0
 21 41  1  0
 21 42  1  0
 23 43  1  0
 24 44  1  0
 25 45  1  0
 26 46  1  0
 27 47  1  0
M  END
>  <UniqueID>  (36) 
36

>  <SMILES>  (36) 
O=C(CN(Cc1ccco1)S(=O)(=O)c1ccccc1)NCc1ccccc1

>  <Energy>  (36) 
73.06515119522325

>  <Genealogy>  (36) 
O=C(CN(Cc1ccco1)S(=O)(=O)c1ccccc1)NCc1ccccc1 (3D coordinates assigned)
O=C(CN(Cc1ccco1)S(=O)(=O)c1ccccc1)NCc1ccccc1 (optimized conformer: 73.06515119522325 kcal/mol)

>  <smiles>  (36) 
O=C(CN(Cc1ccco1)S(=O)(=O)c1ccccc1)NCc1ccccc1

>  <score_type>  (36) 
oracle

>  <origin>  (36) 
adg

>  <m_score__min__energy>  (36) 
-9.1699999999999999

>  <m_primary>  (36) 
energy

$$$$
36:0
     RDKit          3D

 38 39  0  0  0  0  0  0  0  0999 V2000
   63.3520   33.5710   46.7670 C   0  0  0  0  0  0  0  0  0  0  0  0
   62.9470   32.3480   47.1200 C   0  0  0  0  0  0  0  0  0  0  0  0
   61.8020   32.1310   48.0680 C   0  0  0  0  0  0  0  0  0  0  0  0
   60.5950   31.7810   47.3190 N   0  0  0  0  0  0  0  0  0  0  0  0
   60.1130   30.5290   47.1340 C   0  0  0  0  0  0  0  0  0  0  0  0
   58.9880   30.5620   46.3190 C   0  0  0  0  0  0  0  0  0  0  0  0
   58.1460   29.3850   45.9180 C   0  0  0  0  0  0  0  0  0  0  0  0
   58.5910   28.7850   44.5710 C   0  0  0  0  0  0  0  0  0  0  0  0
   57.4990   28.6960   43.5780 N   0  0  0  0  0  0  0  0  0  0  0  0
   56.5160   29.7930   43.6870 C   0  0  0  0  0  0  0  0  0  0  0  0
   56.7070   30.8540   42.5990 C   0  0  0  0  0  0  0  0  0  0  0  0
   58.7900   31.8940   46.0010 C   0  0  0  0  0  0  0  0  0  0  0  0
   57.8130   32.5170   45.2250 C   0  0  0  0  0  0  0  0  0  0  0  0
   57.8800   33.9140   45.0790 C   0  0  0  0  0  0  0  0  0  0  0  0
   58.9090   34.6490   45.7050 C   0  0  0  0  0  0  0  0  0  0  0  0
   59.8800   33.9950   46.4860 C   0  0  0  0  0  0  0  0  0  0  0  0
   59.7890   32.6070   46.6180 C   0  0  0  0  0  0  0  0  0  0  0  0
   64.1945   33.6916   46.0701 H   0  0  0  0  0  0  0  0  0  0  0  0
   62.8430   34.4575   47.1732 H   0  0  0  0  0  0  0  0  0  0  0  0
   63.4678   31.4730   46.7038 H   0  0  0  0  0  0  0  0  0  0  0  0
   62.0516   31.3134   48.7603 H   0  0  0  0  0  0  0  0  0  0  0  0
   61.6209   33.0561   48.6350 H   0  0  0  0  0  0  0  0  0  0  0  0
   60.5495   29.6168   47.5668 H   0  0  0  0  0  0  0  0  0  0  0  0
   58.2264   28.6105   46.6949 H   0  0  0  0  0  0  0  0  0  0  0  0
   57.1086   29.7334   45.8069 H   0  0  0  0  0  0  0  0  0  0  0  0
   59.3899   29.4165   44.1550 H   0  0  0  0  0  0  0  0  0  0  0  0
   58.9331   27.7587   44.7700 H   0  0  0  0  0  0  0  0  0  0  0  0
   56.9990   27.7840   43.6760 H   0  0  0  0  0  0  0  0  0  0  0  0
   57.9190   28.6990   42.6190 H   0  0  0  0  0  0  0  0  0  0  0  0
   55.5040   29.3716   43.5965 H   0  0  0  0  0  0  0  0  0  0  0  0
   56.6621   30.2805   44.6622 H   0  0  0  0  0  0  0  0  0  0  0  0
   56.8832   31.8330   43.0685 H   0  0  0  0  0  0  0  0  0  0  0  0
   57.5714   30.5864   41.9736 H   0  0  0  0  0  0  0  0  0  0  0  0
   55.8035   30.9046   41.9736 H   0  0  0  0  0  0  0  0  0  0  0  0
   57.0149   31.9339   44.7422 H   0  0  0  0  0  0  0  0  0  0  0  0
   57.1255   34.4370   44.4730 H   0  0  0  0  0  0  0  0  0  0  0  0
   58.9525   35.7412   45.5817 H   0  0  0  0  0  0  0  0  0  0  0  0
   60.6861   34.5594   46.9776 H   0  0  0  0  0  0  0  0  0  0  0  0
  1  2  2  0
  2  3  1  0
  3  4  1  0
  4  5  1  0
  5  6  2  0
  6  7  1  0
  7  8  1  0
  8  9  1  0
  9 10  1  0
 10 11  1  0
  6 12  1  0
 12 13  2  0
 13 14  1  0
 14 15  2  0
 15 16  1  0
 16 17  2  0
 17  4  1  0
 17 12  1  0
  1 18  1  0
  1 19  1  0
  2 20  1  0
  3 21  1  0
  3 22  1  0
  5 23  1  0
  7 24  1  0
  7 25  1  0
  8 26  1  0
  8 27  1  0
  9 28  1  0
  9 29  1  0
 10 30  1  0
 10 31  1  0
 11 32  1  0
 11 33  1  0
 11 34  1  0
 13 35  1  0
 14 36  1  0
 15 37  1  0
 16 38  1  0
M  CHG  1   9   1
M  END
>  <UniqueID>  (37) 
37

>  <SMILES>  (37) 
C=CCn1cc(CC[NH2+]CC)c2ccccc21

>  <Energy>  (37) 
65.49915219082193

>  <Genealogy>  (37) 
C=CCn1cc(CC[NH2+]CC)c2ccccc21 (protonated)
C=CCn1cc(CC[NH2+]CC)c2ccccc21 (3D coordinates assigned)
C=CCn1cc(CC[NH2+]CC)c2ccccc21 (optimized conformer: 65.49915219082193 kcal/mol)

>  <smiles>  (37) 
C=CCn1cc(CCNCC)c2ccccc21

>  <score_type>  (37) 
oracle

>  <origin>  (37) 
adg

>  <m_score__min__energy>  (37) 
-4.79

>  <m_primary>  (37) 
energy

$$$$
37:0
     RDKit          3D

 22 23  0  0  0  0  0  0  0  0999 V2000
   57.3960   28.4700   45.8580 C   0  0  0  0  0  0  0  0  0  0  0  0
   56.6480   29.6280   45.5010 O   0  0  0  0  0  0  0  0  0  0  0  0
   57.0080   30.5320   44.4870 C   0  0  0  0  0  0  0  0  0  0  0  0
   56.6600   30.3050   43.1390 C   0  0  0  0  0  0  0  0  0  0  0  0
   57.0280   31.2160   42.1480 C   0  0  0  0  0  0  0  0  0  0  0  0
   57.7450   32.3650   42.4770 C   0  0  0  0  0  0  0  0  0  0  0  0
   58.1040   32.6150   43.8090 C   0  0  0  0  0  0  0  0  0  0  0  0
   58.8260   33.7700   44.1430 C   0  0  0  0  0  0  0  0  0  0  0  0
   59.1820   34.0190   45.4700 C   0  0  0  0  0  0  0  0  0  0  0  0
   58.8220   33.1170   46.4740 C   0  0  0  0  0  0  0  0  0  0  0  0
   59.3150   33.4660   48.2870 Br  0  0  0  0  0  0  0  0  0  0  0  0
   58.1020   31.9610   46.1570 C   0  0  0  0  0  0  0  0  0  0  0  0
   57.7340   31.6940   44.8240 C   0  0  0  0  0  0  0  0  0  0  0  0
   57.4475   28.3902   46.9539 H   0  0  0  0  0  0  0  0  0  0  0  0
   56.9047   27.5753   45.4479 H   0  0  0  0  0  0  0  0  0  0  0  0
   58.4136   28.5500   45.4479 H   0  0  0  0  0  0  0  0  0  0  0  0
   56.0937   29.4022   42.8666 H   0  0  0  0  0  0  0  0  0  0  0  0
   56.7505   31.0261   41.1007 H   0  0  0  0  0  0  0  0  0  0  0  0
   58.0301   33.0778   41.6892 H   0  0  0  0  0  0  0  0  0  0  0  0
   59.1131   34.4829   43.3561 H   0  0  0  0  0  0  0  0  0  0  0  0
   59.7472   34.9275   45.7253 H   0  0  0  0  0  0  0  0  0  0  0  0
   57.8214   31.2560   46.9534 H   0  0  0  0  0  0  0  0  0  0  0  0
  1  2  1  0
  2  3  1  0
  3  4  2  0
  4  5  1  0
  5  6  2  0
  6  7  1  0
  7  8  2  0
  8  9  1  0
  9 10  2  0
 10 11  1  0
 10 12  1  0
 12 13  2  0
 13  3  1  0
 13  7  1  0
  1 14  1  0
  1 15  1  0
  1 16  1  0
  4 17  1  0
  5 18  1  0
  6 19  1  0
  8 20  1  0
  9 21  1  0
 12 22  1  0
M  END
>  <UniqueID>  (38) 
38

>  <SMILES>  (38) 
COc1cccc2ccc(Br)cc12

>  <Energy>  (38) 
25.761251187106662

>  <Genealogy>  (38) 
COc1cccc2ccc(Br)cc12 (3D coordinates assigned)
COc1cccc2ccc(Br)cc12 (optimized conformer: 25.761251187106662 kcal/mol)

>  <smiles>  (38) 
COc1cccc2ccc(Br)cc12

>  <score_type>  (38) 
oracle

>  <origin>  (38) 
adg

>  <m_score__min__energy>  (38) 
-6.0599999999999996

>  <m_primary>  (38) 
energy

$$$$
38:0
     RDKit          3D

 55 57  0  0  0  0  0  0  0  0999 V2000
   56.9984   30.8874   41.4554 H   0  0  0  0  0  0  0  0  0  0  0  0
   57.0180   30.8660   42.5550 C   0  0  0  0  0  0  0  0  0  0  0  0
   56.5010   29.8040   43.2220 N   0  0  0  0  0  0  0  0  0  0  0  0
   56.5190   29.7510   44.5820 C   0  0  0  0  0  0  0  0  0  0  0  0
   56.0010   28.7470   45.2270 N   0  0  0  0  0  0  0  0  0  0  0  0
   56.6540   27.5100   45.5610 C   0  0  0  0  0  0  0  0  0  0  0  0
   58.0150   27.3690   45.2680 C   0  0  0  0  0  0  0  0  0  0  0  0
   58.5661   28.2052   44.8130 H   0  0  0  0  0  0  0  0  0  0  0  0
   58.6770   26.1730   45.5500 C   0  0  0  0  0  0  0  0  0  0  0  0
   59.7511   26.0766   45.3330 H   0  0  0  0  0  0  0  0  0  0  0  0
   57.9800   25.0980   46.1070 C   0  0  0  0  0  0  0  0  0  0  0  0
   58.6350   23.9410   46.3720 F   0  0  0  0  0  0  0  0  0  0  0  0
   56.6090   25.2030   46.3710 C   0  0  0  0  0  0  0  0  0  0  0  0
   55.9510   24.0840   46.9100 O   0  0  0  0  0  0  0  0  0  0  0  0
   56.3880   23.3190   48.0350 C   0  0  0  0  0  0  0  0  0  0  0  0
   57.3389   23.7347   48.3996 H   0  0  0  0  0  0  0  0  0  0  0  0
   55.6076   23.3747   48.8082 H   0  0  0  0  0  0  0  0  0  0  0  0
   56.5990   21.8310   47.6750 C   0  0  0  0  0  0  0  0  0  0  0  0
   57.6063   21.5404   48.0079 H   0  0  0  0  0  0  0  0  0  0  0  0
   55.7918   21.2790   48.1786 H   0  0  0  0  0  0  0  0  0  0  0  0
   56.4810   21.5040   46.2310 N   0  0  0  0  0  0  0  0  0  0  0  0
   56.0970   22.3610   45.7670 H   0  0  0  0  0  0  0  0  0  0  0  0
   55.5220   20.4160   45.9690 C   0  0  0  0  0  0  0  0  0  0  0  0
   55.1615   20.0070   46.9244 H   0  0  0  0  0  0  0  0  0  0  0  0
   54.6706   20.8084   45.3935 H   0  0  0  0  0  0  0  0  0  0  0  0
   56.0181   19.6206   45.3935 H   0  0  0  0  0  0  0  0  0  0  0  0
   57.7810   21.2250   45.5950 C   0  0  0  0  0  0  0  0  0  0  0  0
   58.5420   21.0617   46.3723 H   0  0  0  0  0  0  0  0  0  0  0  0
   57.6972   20.3244   44.9690 H   0  0  0  0  0  0  0  0  0  0  0  0
   58.0741   22.0807   44.9690 H   0  0  0  0  0  0  0  0  0  0  0  0
   55.9450   26.4150   46.0910 C   0  0  0  0  0  0  0  0  0  0  0  0
   54.8666   26.5056   46.2878 H   0  0  0  0  0  0  0  0  0  0  0  0
   57.0510   30.7850   45.2850 N   0  0  0  0  0  0  0  0  0  0  0  0
   57.5920   31.8720   44.6660 C   0  0  0  0  0  0  0  0  0  0  0  0
   58.1400   32.9500   45.4570 N   0  0  0  0  0  0  0  0  0  0  0  0
   59.4350   32.8370   46.0830 C   0  0  0  0  0  0  0  0  0  0  0  0
   59.8690   31.6080   46.6070 C   0  0  0  0  0  0  0  0  0  0  0  0
   59.2184   30.7237   46.5387 H   0  0  0  0  0  0  0  0  0  0  0  0
   61.1240   31.5030   47.2150 C   0  0  0  0  0  0  0  0  0  0  0  0
   61.4584   30.5354   47.6173 H   0  0  0  0  0  0  0  0  0  0  0  0
   61.9580   32.6260   47.3140 C   0  0  0  0  0  0  0  0  0  0  0  0
   63.3190   32.5050   47.9340 C   0  0  0  0  0  0  0  0  0  0  0  0
   63.2247   32.5134   49.0299 H   0  0  0  0  0  0  0  0  0  0  0  0
   63.7855   31.5618   47.6133 H   0  0  0  0  0  0  0  0  0  0  0  0
   63.9446   33.3511   47.6133 H   0  0  0  0  0  0  0  0  0  0  0  0
   61.5370   33.8480   46.7680 C   0  0  0  0  0  0  0  0  0  0  0  0
   62.1970   34.7266   46.8184 H   0  0  0  0  0  0  0  0  0  0  0  0
   60.2820   33.9540   46.1600 C   0  0  0  0  0  0  0  0  0  0  0  0
   59.9569   34.9173   45.7400 H   0  0  0  0  0  0  0  0  0  0  0  0
   57.3940   34.2070   45.5730 C   0  0  0  0  0  0  0  0  0  0  0  0
   57.2493   34.4508   46.6359 H   0  0  0  0  0  0  0  0  0  0  0  0
   57.9589   35.0150   45.0851 H   0  0  0  0  0  0  0  0  0  0  0  0
   56.4141   34.0982   45.0851 H   0  0  0  0  0  0  0  0  0  0  0  0
   57.5740   31.9300   43.2630 C   0  0  0  0  0  0  0  0  0  0  0  0
   57.9909   32.7989   42.7327 H   0  0  0  0  0  0  0  0  0  0  0  0
  1  2  1  0
  2  3  1  0
  3  4  1  0
  4  5  2  0
  5  6  1  0
  6  7  2  0
  7  8  1  0
  7  9  1  0
  9 10  1  0
  9 11  2  0
 11 12  1  0
 11 13  1  0
 13 14  1  0
 14 15  1  0
 15 16  1  0
 15 17  1  0
 15 18  1  0
 18 19  1  0
 18 20  1  0
 18 21  1  0
 21 22  1  0
 21 23  1  0
 23 24  1  0
 23 25  1  0
 23 26  1  0
 21 27  1  0
 27 28  1  0
 27 29  1  0
 27 30  1  0
 13 31  2  0
 31 32  1  0
  4 33  1  0
 33 34  2  0
 34 35  1  0
 35 36  1  0
 36 37  2  0
 37 38  1  0
 37 39  1  0
 39 40  1  0
 39 41  2  0
 41 42  1  0
 42 43  1  0
 42 44  1  0
 42 45  1  0
 41 46  1  0
 46 47  1  0
 46 48  2  0
 48 49  1  0
 35 50  1  0
 50 51  1  0
 50 52  1  0
 50 53  1  0
 34 54  1  0
 54 55  1  0
 54  2  2  0
 31  6  1  0
 48 36  1  0
M  CHG  2   3  -1  21   1
M  END
>  <UniqueID>  (39) 
39

>  <SMILES>  (39) 
Cc1ccc(N(C)c2cc[n-]/c(=N\c3ccc(F)c(OCC[NH+](C)C)c3)n2)cc1

>  <Energy>  (39) 
73.11713057649133

>  <Genealogy>  (39) 
Cc1ccc(N(C)c2cc[n-]c(=Nc3ccc(F)c(OCC[NH+](C)C)c3)n2)cc1 (protonated)
Cc1ccc(N(C)c2cc[n-]/c(=N\c3ccc(F)c(OCC[NH+](C)C)c3)n2)cc1 (cis-trans isomerization)
Cc1ccc(N(C)c2cc[n-]/c(=N\c3ccc(F)c(OCC[NH+](C)C)c3)n2)cc1 (3D coordinates assigned)
Cc1ccc(N(C)c2cc[n-]/c(=N\c3ccc(F)c(OCC[NH+](C)C)c3)n2)cc1 (optimized conformer: 73.11713057649133 kcal/mol)

>  <smiles>  (39) 
Cc1ccc(N(C)c2cc[nH]c(=Nc3ccc(F)c(OCCN(C)C)c3)n2)cc1

>  <score_type>  (39) 
oracle

>  <origin>  (39) 
adg

>  <m_score__min__energy>  (39) 
-7.9900000000000002

>  <m_primary>  (39) 
energy

$$$$
39:0
     RDKit          3D

 40 41  0  0  0  0  0  0  0  0999 V2000
   61.1060   31.1590   47.1370 C   0  0  0  0  0  0  0  0  0  0  0  0
   61.0200   29.7500   46.9510 O   0  0  0  0  0  0  0  0  0  0  0  0
   59.8260   29.0540   46.7120 C   0  0  0  0  0  0  0  0  0  0  0  0
   59.5450   27.8130   47.3070 C   0  0  0  0  0  0  0  0  0  0  0  0
   58.3370   27.1620   47.0420 C   0  0  0  0  0  0  0  0  0  0  0  0
   57.3910   27.7350   46.1710 C   0  0  0  0  0  0  0  0  0  0  0  0
   56.1630   27.1100   45.9000 O   0  0  0  0  0  0  0  0  0  0  0  0
   55.9500   25.7020   45.9210 C   0  0  0  0  0  0  0  0  0  0  0  0
   57.6810   28.9700   45.5590 C   0  0  0  0  0  0  0  0  0  0  0  0
   56.5260   29.7250   44.4550 S   0  0  0  0  0  0  0  0  0  0  0  0
   56.7780   29.2650   43.0450 O   0  0  0  0  0  0  0  0  0  0  0  0
   55.1340   29.3320   44.8620 O   0  0  0  0  0  0  0  0  0  0  0  0
   56.6660   31.4560   44.5240 N   0  0  0  0  0  0  0  0  0  0  0  0
   57.5500   31.9280   43.4580 C   0  0  0  0  0  0  0  0  0  0  0  0
   58.3890   33.1070   43.9550 C   0  0  0  0  0  0  0  0  0  0  0  0
   57.6340   33.9470   44.9920 C   0  0  0  0  0  0  0  0  0  0  0  0
   58.3430   33.9270   46.2680 N   0  0  0  0  0  0  0  0  0  0  0  0
   59.2810   34.7910   46.6840 C   0  0  0  0  0  0  0  0  0  0  0  0
   59.6280   34.4500   47.9720 C   0  0  0  0  0  0  0  0  0  0  0  0
   58.9000   33.3840   48.3690 N   0  0  0  0  0  0  0  0  0  0  0  0
   58.1230   33.0950   47.3050 C   0  0  0  0  0  0  0  0  0  0  0  0
   58.8880   29.6240   45.8470 C   0  0  0  0  0  0  0  0  0  0  0  0
   61.1199   31.3866   48.2131 H   0  0  0  0  0  0  0  0  0  0  0  0
   62.0287   31.5347   46.6708 H   0  0  0  0  0  0  0  0  0  0  0  0
   60.2358   31.6442   46.6708 H   0  0  0  0  0  0  0  0  0  0  0  0
   60.2787   27.3516   47.9843 H   0  0  0  0  0  0  0  0  0  0  0  0
   58.1236   26.1936   47.5181 H   0  0  0  0  0  0  0  0  0  0  0  0
   55.8975   25.3546   46.9634 H   0  0  0  0  0  0  0  0  0  0  0  0
   55.0060   25.4663   45.4079 H   0  0  0  0  0  0  0  0  0  0  0  0
   56.7821   25.1976   45.4079 H   0  0  0  0  0  0  0  0  0  0  0  0
   58.2180   31.1100   43.1503 H   0  0  0  0  0  0  0  0  0  0  0  0
   56.9404   32.2548   42.6027 H   0  0  0  0  0  0  0  0  0  0  0  0
   59.3108   32.7196   44.4136 H   0  0  0  0  0  0  0  0  0  0  0  0
   58.6164   33.7517   43.0933 H   0  0  0  0  0  0  0  0  0  0  0  0
   57.5585   34.9845   44.6342 H   0  0  0  0  0  0  0  0  0  0  0  0
   56.6281   33.5249   45.1330 H   0  0  0  0  0  0  0  0  0  0  0  0
   59.6988   35.6241   46.0998 H   0  0  0  0  0  0  0  0  0  0  0  0
   60.3823   34.9665   48.5837 H   0  0  0  0  0  0  0  0  0  0  0  0
   57.3923   32.2730   47.2859 H   0  0  0  0  0  0  0  0  0  0  0  0
   59.0993   30.5998   45.3853 H   0  0  0  0  0  0  0  0  0  0  0  0
  1  2  1  0
  2  3  1  0
  3  4  2  0
  4  5  1  0
  5  6  2  0
  6  7  1  0
  7  8  1  0
  6  9  1  0
  9 10  1  0
 10 11  2  0
 10 12  2  0
 10 13  1  0
 13 14  1  0
 14 15  1  0
 15 16  1  0
 16 17  1  0
 17 18  1  0
 18 19  2  0
 19 20  1  0
 20 21  2  0
  9 22  2  0
 22  3  1  0
 21 17  1  0
  1 23  1  0
  1 24  1  0
  1 25  1  0
  4 26  1  0
  5 27  1  0
  8 28  1  0
  8 29  1  0
  8 30  1  0
 14 31  1  0
 14 32  1  0
 15 33  1  0
 15 34  1  0
 16 35  1  0
 16 36  1  0
 18 37  1  0
 19 38  1  0
 21 39  1  0
 22 40  1  0
M  CHG  1  13  -1
M  END
>  <UniqueID>  (40) 
40

>  <SMILES>  (40) 
COc1ccc(OC)c(S(=O)(=O)[N-]CCCn2ccnc2)c1

>  <Energy>  (40) 
61.255526104383016

>  <Genealogy>  (40) 
COc1ccc(OC)c(S(=O)(=O)[N-]CCCn2ccnc2)c1 (protonated)
COc1ccc(OC)c(S(=O)(=O)[N-]CCCn2ccnc2)c1 (3D coordinates assigned)
COc1ccc(OC)c(S(=O)(=O)[N-]CCCn2ccnc2)c1 (optimized conformer: 61.255526104383016 kcal/mol)

>  <smiles>  (40) 
COc1ccc(OC)c(S(=O)(=O)NCCCn2ccnc2)c1

>  <score_type>  (40) 
oracle

>  <origin>  (40) 
adg

>  <m_score__min__energy>  (40) 
-7.9900000000000002

>  <m_primary>  (40) 
energy

$$$$
40:0
     RDKit          3D

 41 43  0  0  0  0  0  0  0  0999 V2000
   56.1230   30.0360   43.1380 C   0  0  0  0  0  0  0  0  0  0  0  0
   56.1950   30.4740   44.4910 O   0  0  0  0  0  0  0  0  0  0  0  0
   57.3860   30.8120   45.1500 C   0  0  0  0  0  0  0  0  0  0  0  0
   57.7010   32.1330   45.5140 C   0  0  0  0  0  0  0  0  0  0  0  0
   58.9020   32.4200   46.1710 C   0  0  0  0  0  0  0  0  0  0  0  0
   59.8230   31.3940   46.4660 C   0  0  0  0  0  0  0  0  0  0  0  0
   61.1300   31.6540   47.2100 C   0  0  1  0  0  0  0  0  0  0  0  0
   61.6090   33.1220   47.1200 C   0  0  0  0  0  0  0  0  0  0  0  0
   63.1140   33.1940   47.0630 C   0  0  0  0  0  0  0  0  0  0  0  0
   63.6570   33.5450   46.0240 O   0  0  0  0  0  0  0  0  0  0  0  0
   63.8930   32.9360   48.2610 N   0  0  1  0  0  0  0  0  0  0  0  0
   63.6460   33.9650   49.2890 C   0  0  0  0  0  0  0  0  0  0  0  0
   63.7080   31.5580   48.8130 C   0  0  0  0  0  0  0  0  0  0  0  0
   62.3370   31.2310   49.4230 C   0  0  0  0  0  0  0  0  0  0  0  0
   62.2980   30.8680   50.7840 C   0  0  0  0  0  0  0  0  0  0  0  0
   61.0980   30.5200   51.4010 C   0  0  0  0  0  0  0  0  0  0  0  0
   59.9130   30.5260   50.6730 C   0  0  0  0  0  0  0  0  0  0  0  0
   59.9210   30.8690   49.3230 C   0  0  0  0  0  0  0  0  0  0  0  0
   61.1270   31.2010   48.6650 C   0  0  0  0  0  0  0  0  0  0  0  0
   59.4880   30.0730   46.1160 C   0  0  0  0  0  0  0  0  0  0  0  0
   58.2880   29.7890   45.4600 C   0  0  0  0  0  0  0  0  0  0  0  0
   55.9446   28.9508   43.1129 H   0  0  0  0  0  0  0  0  0  0  0  0
   55.2981   30.5551   42.6280 H   0  0  0  0  0  0  0  0  0  0  0  0
   57.0706   30.2637   42.6280 H   0  0  0  0  0  0  0  0  0  0  0  0
   56.9982   32.9463   45.2805 H   0  0  0  0  0  0  0  0  0  0  0  0
   59.1302   33.4564   46.4604 H   0  0  0  0  0  0  0  0  0  0  0  0
   61.8512   31.0211   46.6722 H   0  0  0  0  0  0  0  0  0  0  0  0
   61.1917   33.5820   46.2121 H   0  0  0  0  0  0  0  0  0  0  0  0
   61.2650   33.6596   48.0159 H   0  0  0  0  0  0  0  0  0  0  0  0
   64.9030   33.0510   48.0050 H   0  0  0  0  0  0  0  0  0  0  0  0
   63.7533   33.5181   50.2884 H   0  0  0  0  0  0  0  0  0  0  0  0
   64.3736   34.7817   49.1726 H   0  0  0  0  0  0  0  0  0  0  0  0
   62.6269   34.3624   49.1726 H   0  0  0  0  0  0  0  0  0  0  0  0
   63.8855   30.8455   47.9939 H   0  0  0  0  0  0  0  0  0  0  0  0
   64.4180   31.4872   49.6502 H   0  0  0  0  0  0  0  0  0  0  0  0
   63.2297   30.8592   51.3687 H   0  0  0  0  0  0  0  0  0  0  0  0
   61.0880   30.2403   52.4648 H   0  0  0  0  0  0  0  0  0  0  0  0
   58.9661   30.2589   51.1650 H   0  0  0  0  0  0  0  0  0  0  0  0
   58.9754   30.8817   48.7611 H   0  0  0  0  0  0  0  0  0  0  0  0
   60.1797   29.2538   46.3620 H   0  0  0  0  0  0  0  0  0  0  0  0
   58.0501   28.7509   45.1846 H   0  0  0  0  0  0  0  0  0  0  0  0
  1  2  1  0
  2  3  1  0
  3  4  2  0
  4  5  1  0
  5  6  2  0
  6  7  1  0
  7  8  1  0
  8  9  1  0
  9 10  2  0
  9 11  1  0
 11 12  1  0
 11 13  1  0
 13 14  1  0
 14 15  2  0
 15 16  1  0
 16 17  2  0
 17 18  1  0
 18 19  2  0
  6 20  1  0
 20 21  2  0
 21  3  1  0
 19  7  1  0
 19 14  1  0
  1 22  1  0
  1 23  1  0
  1 24  1  0
  4 25  1  0
  5 26  1  0
  7 27  1  6
  8 28  1  0
  8 29  1  0
 11 30  1  6
 12 31  1  0
 12 32  1  0
 12 33  1  0
 13 34  1  0
 13 35  1  0
 15 36  1  0
 16 37  1  0
 17 38  1  0
 18 39  1  0
 20 40  1  0
 21 41  1  0
M  CHG  1  11   1
M  END
>  <UniqueID>  (41) 
41

>  <SMILES>  (41) 
COc1ccc([C@H]2CC(=O)[N@@H+](C)Cc3ccccc32)cc1

>  <Energy>  (41) 
64.69903984244914

>  <Genealogy>  (41) 
COc1ccc(C2CC(=O)[NH+](C)Cc3ccccc32)cc1 (protonated)
COc1ccc([C@H]2CC(=O)[N@@H+](C)Cc3ccccc32)cc1 (chirality)
COc1ccc([C@H]2CC(=O)[N@@H+](C)Cc3ccccc32)cc1 (3D coordinates assigned)
COc1ccc([C@H]2CC(=O)[N@@H+](C)Cc3ccccc32)cc1 (nonaromatic ring conformer: 64.69903984244914 kcal/mol)

>  <smiles>  (41) 
COc1ccc(C2CC(=O)N(C)Cc3ccccc32)cc1

>  <score_type>  (41) 
oracle

>  <origin>  (41) 
adg

>  <m_score__min__energy>  (41) 
-3.7999999999999998

>  <m_primary>  (41) 
energy

$$$$
41:0
     RDKit          3D

 68 72  0  0  0  0  0  0  0  0999 V2000
   67.1650   28.9570   51.1960 C   0  0  0  0  0  0  0  0  0  0  0  0
   66.3290   30.2360   51.2800 C   0  0  0  0  0  0  0  0  0  0  0  0
   67.1680   31.5140   51.1070 C   0  0  0  0  0  0  0  0  0  0  0  0
   66.5740   32.5520   50.1340 C   0  0  0  0  0  0  0  0  0  0  0  0
   65.2560   33.1870   50.6310 C   0  0  0  0  0  0  0  0  0  0  0  0
   64.2170   33.3430   49.5010 C   0  0  0  0  0  0  0  0  0  0  0  0
   63.7100   32.0290   49.0230 N   0  0  1  0  0  0  0  0  0  0  0  0
   63.0260   31.2320   50.0910 C   0  0  0  0  0  0  0  0  0  0  0  0
   61.4750   31.3180   50.1120 C   0  0  1  0  0  0  0  0  0  0  0  0
   60.9910   32.5950   49.3970 C   0  0  0  0  0  0  0  0  0  0  0  0
   61.4090   32.5240   47.8990 C   0  0  1  0  0  0  0  0  0  0  0  0
   61.0200   33.8710   47.2110 C   0  0  0  0  0  0  0  0  0  0  0  0
   59.7250   34.5450   47.7280 C   0  0  0  0  0  0  0  0  0  0  0  0
   58.5610   34.6030   46.7050 C   0  0  0  0  0  0  0  0  0  0  0  0
   59.0090   34.8910   45.2660 C   0  0  0  0  0  0  0  0  0  0  0  0
   58.8430   33.5860   44.5050 C   0  0  0  0  0  0  0  0  0  0  0  0
   57.7140   32.8450   45.2030 C   0  0  0  0  0  0  0  0  0  0  0  0
   57.7260   33.3130   46.6550 C   0  0  0  0  0  0  0  0  0  0  0  0
   62.9010   32.1940   47.8250 C   0  0  0  0  0  0  0  0  0  0  0  0
   63.4120   31.9790   46.7330 O   0  0  0  0  0  0  0  0  0  0  0  0
   60.6670   31.3260   47.3360 C   0  0  0  0  0  0  0  0  0  0  0  0
   60.1580   31.1370   46.0930 N   0  0  0  0  0  0  0  0  0  0  0  0
   59.6750   29.8760   46.0970 C   0  0  0  0  0  0  0  0  0  0  0  0
   59.0380   29.2140   45.0480 C   0  0  0  0  0  0  0  0  0  0  0  0
   58.5980   27.8960   45.2710 C   0  0  0  0  0  0  0  0  0  0  0  0
   58.7950   27.2740   46.5260 C   0  0  0  0  0  0  0  0  0  0  0  0
   58.1840   25.4860   46.8040 Br  0  0  0  0  0  0  0  0  0  0  0  0
   59.4370   27.9630   47.5700 C   0  0  0  0  0  0  0  0  0  0  0  0
   59.8690   29.2630   47.3140 C   0  0  0  0  0  0  0  0  0  0  0  0
   60.5100   30.1890   48.0970 C   0  0  0  0  0  0  0  0  0  0  0  0
   60.8840   30.1250   49.4770 N   0  0  0  0  0  0  0  0  0  0  0  0
   67.3965   28.6029   52.2114 H   0  0  0  0  0  0  0  0  0  0  0  0
   66.5979   28.1830   50.6581 H   0  0  0  0  0  0  0  0  0  0  0  0
   68.1015   29.1658   50.6581 H   0  0  0  0  0  0  0  0  0  0  0  0
   65.5651   30.2082   50.4890 H   0  0  0  0  0  0  0  0  0  0  0  0
   65.8794   30.2704   52.2834 H   0  0  0  0  0  0  0  0  0  0  0  0
   67.2729   31.9903   52.0930 H   0  0  0  0  0  0  0  0  0  0  0  0
   68.1278   31.1973   50.6730 H   0  0  0  0  0  0  0  0  0  0  0  0
   67.3126   33.3541   49.9886 H   0  0  0  0  0  0  0  0  0  0  0  0
   66.3420   32.0203   49.1994 H   0  0  0  0  0  0  0  0  0  0  0  0
   64.8296   32.5467   51.4173 H   0  0  0  0  0  0  0  0  0  0  0  0
   65.4902   34.1916   51.0130 H   0  0  0  0  0  0  0  0  0  0  0  0
   63.3695   33.9347   49.8774 H   0  0  0  0  0  0  0  0  0  0  0  0
   64.7091   33.8448   48.6548 H   0  0  0  0  0  0  0  0  0  0  0  0
   64.5510   31.4620   48.7580 H   0  0  0  0  0  0  0  0  0  0  0  0
   63.3034   30.1764   49.9539 H   0  0  0  0  0  0  0  0  0  0  0  0
   63.3615   31.6632   51.0458 H   0  0  0  0  0  0  0  0  0  0  0  0
   61.1471   31.3593   51.1612 H   0  0  0  0  0  0  0  0  0  0  0  0
   59.8959   32.6674   49.4717 H   0  0  0  0  0  0  0  0  0  0  0  0
   61.4433   33.4800   49.8684 H   0  0  0  0  0  0  0  0  0  0  0  0
   61.8501   34.5774   47.3595 H   0  0  0  0  0  0  0  0  0  0  0  0
   60.8259   33.6220   46.1573 H   0  0  0  0  0  0  0  0  0  0  0  0
   59.3773   33.9849   48.6086 H   0  0  0  0  0  0  0  0  0  0  0  0
   59.9904   35.5891   47.9502 H   0  0  0  0  0  0  0  0  0  0  0  0
   57.9544   35.4395   47.0823 H   0  0  0  0  0  0  0  0  0  0  0  0
   58.3804   35.6758   44.8201 H   0  0  0  0  0  0  0  0  0  0  0  0
   60.0492   35.2470   45.2321 H   0  0  0  0  0  0  0  0  0  0  0  0
   58.5805   33.7845   43.4554 H   0  0  0  0  0  0  0  0  0  0  0  0
   59.7726   32.9979   44.4989 H   0  0  0  0  0  0  0  0  0  0  0  0
   56.7502   33.0892   44.7323 H   0  0  0  0  0  0  0  0  0  0  0  0
   57.8487   31.7555   45.1336 H   0  0  0  0  0  0  0  0  0  0  0  0
   56.6995   33.5141   46.9955 H   0  0  0  0  0  0  0  0  0  0  0  0
   58.1549   32.5422   47.3122 H   0  0  0  0  0  0  0  0  0  0  0  0
   60.1190   31.8120   45.3000 H   0  0  0  0  0  0  0  0  0  0  0  0
   58.8842   29.7066   44.0766 H   0  0  0  0  0  0  0  0  0  0  0  0
   58.0964   27.3446   44.4621 H   0  0  0  0  0  0  0  0  0  0  0  0
   59.5925   27.4933   48.5525 H   0  0  0  0  0  0  0  0  0  0  0  0
   60.8040   29.2300   50.0080 H   0  0  0  0  0  0  0  0  0  0  0  0
  1  2  1  0
  2  3  1  0
  3  4  1  0
  4  5  1  0
  5  6  1  0
  6  7  1  0
  7  8  1  0
  8  9  1  0
  9 10  1  0
 10 11  1  0
 11 12  1  6
 12 13  1  0
 13 14  1  0
 14 15  1  0
 15 16  1  0
 16 17  1  0
 17 18  1  0
 11 19  1  0
 19 20  2  0
 11 21  1  0
 21 22  1  0
 22 23  1  0
 23 24  2  0
 24 25  1  0
 25 26  2  0
 26 27  1  0
 26 28  1  0
 28 29  2  0
 29 30  1  0
 30 31  1  0
 19  7  1  0
 30 21  2  0
 31  9  1  0
 18 14  1  0
 29 23  1  0
  1 32  1  0
  1 33  1  0
  1 34  1  0
  2 35  1  0
  2 36  1  0
  3 37  1  0
  3 38  1  0
  4 39  1  0
  4 40  1  0
  5 41  1  0
  5 42  1  0
  6 43  1  0
  6 44  1  0
  7 45  1  6
  8 46  1  0
  8 47  1  0
  9 48  1  1
 10 49  1  0
 10 50  1  0
 12 51  1  0
 12 52  1  0
 13 53  1  0
 13 54  1  0
 14 55  1  0
 15 56  1  0
 15 57  1  0
 16 58  1  0
 16 59  1  0
 17 60  1  0
 17 61  1  0
 18 62  1  0
 18 63  1  0
 22 64  1  0
 24 65  1  0
 25 66  1  0
 28 67  1  0
 31 68  1  0
M  CHG  1   7   1
M  END
>  <UniqueID>  (42) 
42

>  <SMILES>  (42) 
CCCCCC[N@H+]1C[C@H]2CC(CCC3CCCC3)(C1=O)c1[nH]c3ccc(Br)cc3c1N2

>  <Energy>  (42) 
123.74087193656858

>  <Genealogy>  (42) 
CCCCCC[NH+]1CC2CC(CCC3CCCC3)(C1=O)c1[nH]c3ccc(Br)cc3c1N2 (protonated)
CCCCCC[N@H+]1C[C@H]2CC(CCC3CCCC3)(C1=O)c1[nH]c3ccc(Br)cc3c1N2 (chirality)
CCCCCC[N@H+]1C[C@H]2CC(CCC3CCCC3)(C1=O)c1[nH]c3ccc(Br)cc3c1N2 (3D coordinates assigned)
CCCCCC[N@H+]1C[C@H]2CC(CCC3CCCC3)(C1=O)c1[nH]c3ccc(Br)cc3c1N2 (nonaromatic ring conformer: 123.74087193656858 kcal/mol)

>  <smiles>  (42) 
CCCCCCN1CC2CC(CCC3CCCC3)(C1=O)c1[nH]c3ccc(Br)cc3c1N2

>  <score_type>  (42) 
oracle

>  <origin>  (42) 
adg

>  <m_score__min__energy>  (42) 
-7.8499999999999996

>  <m_primary>  (42) 
energy

$$$$
42:0
     RDKit          3D

 37 39  0  0  0  0  0  0  0  0999 V2000
   56.6640   29.8470   43.6200 C   0  0  0  0  0  0  0  0  0  0  0  0
   56.7420   30.5180   44.8720 O   0  0  0  0  0  0  0  0  0  0  0  0
   57.4940   31.6800   45.1020 C   0  0  0  0  0  0  0  0  0  0  0  0
   57.7240   32.5540   44.0150 C   0  0  0  0  0  0  0  0  0  0  0  0
   58.4570   33.7400   44.1850 C   0  0  0  0  0  0  0  0  0  0  0  0
   58.9610   34.0200   45.4520 C   0  0  0  0  0  0  0  0  0  0  0  0
   59.6510   35.1110   45.8270 N   0  0  0  0  0  0  0  0  0  0  0  0
   59.8990   34.9630   47.1470 C   0  0  0  0  0  0  0  0  0  0  0  0
   59.3740   33.7590   47.6110 C   0  0  0  0  0  0  0  0  0  0  0  0
   59.4460   33.2520   49.0000 C   0  0  0  0  0  0  0  0  0  0  0  0
   58.5280   32.3820   49.4480 C   0  0  0  0  0  0  0  0  0  0  0  0
   58.5690   31.8070   50.8390 C   0  0  0  0  0  0  0  0  0  0  0  0
   59.3160   32.6560   51.7910 N   0  0  2  0  0  0  0  0  0  0  0  0
   58.5290   33.8350   52.2060 C   0  0  0  0  0  0  0  0  0  0  0  0
   60.6340   33.0280   51.2370 C   0  0  0  0  0  0  0  0  0  0  0  0
   60.5150   33.8020   49.9140 C   0  0  0  0  0  0  0  0  0  0  0  0
   58.7660   33.1720   46.5110 C   0  0  0  0  0  0  0  0  0  0  0  0
   58.0200   31.9970   46.3790 C   0  0  0  0  0  0  0  0  0  0  0  0
   56.5385   28.7674   43.7898 H   0  0  0  0  0  0  0  0  0  0  0  0
   55.8045   30.2311   43.0511 H   0  0  0  0  0  0  0  0  0  0  0  0
   57.5887   30.0237   43.0511 H   0  0  0  0  0  0  0  0  0  0  0  0
   57.3233   32.3017   43.0221 H   0  0  0  0  0  0  0  0  0  0  0  0
   58.6276   34.4266   43.3427 H   0  0  0  0  0  0  0  0  0  0  0  0
   59.9290   35.9180   45.2260 H   0  0  0  0  0  0  0  0  0  0  0  0
   60.4400   35.6917   47.7685 H   0  0  0  0  0  0  0  0  0  0  0  0
   57.7144   32.0772   48.7733 H   0  0  0  0  0  0  0  0  0  0  0  0
   57.5370   31.6956   51.2032 H   0  0  0  0  0  0  0  0  0  0  0  0
   59.0895   30.8397   50.7809 H   0  0  0  0  0  0  0  0  0  0  0  0
   59.4890   32.0860   52.6520 H   0  0  0  0  0  0  0  0  0  0  0  0
   58.4954   33.8853   53.3043 H   0  0  0  0  0  0  0  0  0  0  0  0
   58.9997   34.7475   51.8114 H   0  0  0  0  0  0  0  0  0  0  0  0
   57.5057   33.7502   51.8114 H   0  0  0  0  0  0  0  0  0  0  0  0
   61.1601   33.6582   51.9692 H   0  0  0  0  0  0  0  0  0  0  0  0
   61.1874   32.0992   51.0342 H   0  0  0  0  0  0  0  0  0  0  0  0
   60.2747   34.8508   50.1424 H   0  0  0  0  0  0  0  0  0  0  0  0
   61.4769   33.7047   49.3894 H   0  0  0  0  0  0  0  0  0  0  0  0
   57.8463   31.3373   47.2419 H   0  0  0  0  0  0  0  0  0  0  0  0
  1  2  1  0
  2  3  1  0
  3  4  2  0
  4  5  1  0
  5  6  2  0
  6  7  1  0
  7  8  1  0
  8  9  2  0
  9 10  1  0
 10 11  2  0
 11 12  1  0
 12 13  1  0
 13 14  1  0
 13 15  1  0
 15 16  1  0
  9 17  1  0
 17 18  2  0
 18  3  1  0
 17  6  1  0
 16 10  1  0
  1 19  1  0
  1 20  1  0
  1 21  1  0
  4 22  1  0
  5 23  1  0
  7 24  1  0
  8 25  1  0
 11 26  1  0
 12 27  1  0
 12 28  1  0
 13 29  1  1
 14 30  1  0
 14 31  1  0
 14 32  1  0
 15 33  1  0
 15 34  1  0
 16 35  1  0
 16 36  1  0
 18 37  1  0
M  CHG  1  13   1
M  END
>  <UniqueID>  (43) 
43

>  <SMILES>  (43) 
COc1ccc2[nH]cc(C3=CC[N@H+](C)CC3)c2c1

>  <Energy>  (43) 
78.46480091368772

>  <Genealogy>  (43) 
COc1ccc2[nH]cc(C3=CC[NH+](C)CC3)c2c1 (protonated)
COc1ccc2[nH]cc(C3=CC[N@H+](C)CC3)c2c1 (chirality)
COc1ccc2[nH]cc(C3=CC[N@H+](C)CC3)c2c1 (3D coordinates assigned)
COc1ccc2[nH]cc(C3=CC[N@H+](C)CC3)c2c1 (nonaromatic ring conformer: 78.46480091368772 kcal/mol)

>  <smiles>  (43) 
COc1ccc2[nH]cc(C3=CCN(C)CC3)c2c1

>  <score_type>  (43) 
oracle

>  <origin>  (43) 
adg

>  <m_score__min__energy>  (43) 
-5.1500000000000004

>  <m_primary>  (43) 
energy

$$$$
43:0
     RDKit          3D

 50 53  0  0  0  0  0  0  0  0999 V2000
   57.6670   26.7310   45.7660 C   0  0  0  0  0  0  0  0  0  0  0  0
   57.8180   28.1110   46.4130 C   0  0  2  0  0  0  0  0  0  0  0  0
   57.2910   29.1800   45.4990 C   0  0  0  0  0  0  0  0  0  0  0  0
   55.9900   29.4350   45.2550 N   0  0  0  0  0  0  0  0  0  0  0  0
   55.9570   30.4450   44.3940 N   0  0  0  0  0  0  0  0  0  0  0  0
   57.2370   30.7830   44.1300 C   0  0  0  0  0  0  0  0  0  0  0  0
   57.6270   31.8990   43.2070 C   0  0  0  0  0  0  0  0  0  0  0  0
   57.5720   33.1420   43.8790 O   0  0  0  0  0  0  0  0  0  0  0  0
   58.8650   33.5720   44.2610 C   0  0  0  0  0  0  0  0  0  0  0  0
   58.9560   33.7070   45.7510 C   0  0  0  0  0  0  0  0  0  0  0  0
   59.5770   34.7390   46.4400 C   0  0  0  0  0  0  0  0  0  0  0  0
   59.5330   34.5760   47.8300 C   0  0  0  0  0  0  0  0  0  0  0  0
   58.8850   33.4150   48.2350 C   0  0  0  0  0  0  0  0  0  0  0  0
   58.3670   32.5920   46.8620 S   0  0  0  0  0  0  0  0  0  0  0  0
   58.0940   29.9870   44.7970 N   0  0  0  0  0  0  0  0  0  0  0  0
   59.5490   30.0280   44.8930 C   0  0  0  0  0  0  0  0  0  0  0  0
   60.0610   28.7540   45.5920 C   0  0  0  0  0  0  0  0  0  0  0  0
   59.2420   28.3700   46.7750 N   0  0  0  0  0  0  0  0  0  0  0  0
   59.3380   29.3430   47.8910 C   0  0  0  0  0  0  0  0  0  0  0  0
   60.7390   29.3720   48.5450 C   0  0  0  0  0  0  0  0  0  0  0  0
   61.3990   30.7290   48.4690 C   0  0  0  0  0  0  0  0  0  0  0  0
   61.4600   31.5580   49.6030 C   0  0  0  0  0  0  0  0  0  0  0  0
   62.0640   32.8170   49.5260 C   0  0  0  0  0  0  0  0  0  0  0  0
   62.5930   33.2670   48.3140 C   0  0  0  0  0  0  0  0  0  0  0  0
   62.5120   32.4630   47.1750 C   0  0  0  0  0  0  0  0  0  0  0  0
   61.9110   31.2040   47.2480 C   0  0  0  0  0  0  0  0  0  0  0  0
   57.5832   25.9651   46.5511 H   0  0  0  0  0  0  0  0  0  0  0  0
   56.7619   26.7161   45.1411 H   0  0  0  0  0  0  0  0  0  0  0  0
   58.5475   26.5207   45.1411 H   0  0  0  0  0  0  0  0  0  0  0  0
   57.2247   28.1294   47.3391 H   0  0  0  0  0  0  0  0  0  0  0  0
   58.6519   31.7282   42.8459 H   0  0  0  0  0  0  0  0  0  0  0  0
   56.9246   31.9216   42.3608 H   0  0  0  0  0  0  0  0  0  0  0  0
   59.6070   32.8357   43.9185 H   0  0  0  0  0  0  0  0  0  0  0  0
   59.0631   34.5522   43.8028 H   0  0  0  0  0  0  0  0  0  0  0  0
   60.0549   35.5972   45.9450 H   0  0  0  0  0  0  0  0  0  0  0  0
   59.9700   35.2986   48.5349 H   0  0  0  0  0  0  0  0  0  0  0  0
   58.7363   33.0898   49.2753 H   0  0  0  0  0  0  0  0  0  0  0  0
   59.9802   30.0889   43.8829 H   0  0  0  0  0  0  0  0  0  0  0  0
   59.8501   30.9096   45.4778 H   0  0  0  0  0  0  0  0  0  0  0  0
   60.0418   27.9255   44.8686 H   0  0  0  0  0  0  0  0  0  0  0  0
   61.0797   28.9625   45.9508 H   0  0  0  0  0  0  0  0  0  0  0  0
   59.1113   30.3467   47.5021 H   0  0  0  0  0  0  0  0  0  0  0  0
   58.6194   29.0315   48.6634 H   0  0  0  0  0  0  0  0  0  0  0  0
   60.6374   29.0906   49.6035 H   0  0  0  0  0  0  0  0  0  0  0  0
   61.3749   28.6658   47.9911 H   0  0  0  0  0  0  0  0  0  0  0  0
   61.0304   31.2145   50.5556 H   0  0  0  0  0  0  0  0  0  0  0  0
   62.1226   33.4538   50.4210 H   0  0  0  0  0  0  0  0  0  0  0  0
   63.0735   34.2549   48.2567 H   0  0  0  0  0  0  0  0  0  0  0  0
   62.9219   32.8215   46.2192 H   0  0  0  0  0  0  0  0  0  0  0  0
   61.8377   30.5802   46.3450 H   0  0  0  0  0  0  0  0  0  0  0  0
  1  2  1  0
  2  3  1  0
  3  4  2  0
  4  5  1  0
  5  6  2  0
  6  7  1  0
  7  8  1  0
  8  9  1  0
  9 10  1  0
 10 11  2  0
 11 12  1  0
 12 13  2  0
 13 14  1  0
  6 15  1  0
 15 16  1  0
 16 17  1  0
 17 18  1  0
 18 19  1  0
 19 20  1  0
 20 21  1  0
 21 22  2  0
 22 23  1  0
 23 24  2  0
 24 25  1  0
 25 26  2  0
 18  2  1  0
 26 21  1  0
 15  3  1  0
 14 10  1  0
  1 27  1  0
  1 28  1  0
  1 29  1  0
  2 30  1  1
  7 31  1  0
  7 32  1  0
  9 33  1  0
  9 34  1  0
 11 35  1  0
 12 36  1  0
 13 37  1  0
 16 38  1  0
 16 39  1  0
 17 40  1  0
 17 41  1  0
 19 42  1  0
 19 43  1  0
 20 44  1  0
 20 45  1  0
 22 46  1  0
 23 47  1  0
 24 48  1  0
 25 49  1  0
 26 50  1  0
M  END
>  <UniqueID>  (44) 
44

>  <SMILES>  (44) 
C[C@@H]1c2nnc(COCc3cccs3)n2CCN1CCc1ccccc1

>  <Energy>  (44) 
120.49293725079902

>  <Genealogy>  (44) 
C[C@@H]1c2nnc(COCc3cccs3)n2CCN1CCc1ccccc1 (chirality)
C[C@@H]1c2nnc(COCc3cccs3)n2CCN1CCc1ccccc1 (3D coordinates assigned)
C[C@@H]1c2nnc(COCc3cccs3)n2CCN1CCc1ccccc1 (nonaromatic ring conformer: 120.49293725079902 kcal/mol)

>  <smiles>  (44) 
CC1c2nnc(COCc3cccs3)n2CCN1CCc1ccccc1

>  <score_type>  (44) 
oracle

>  <origin>  (44) 
adg

>  <m_score__min__energy>  (44) 
-8.3200000000000003

>  <m_primary>  (44) 
energy

$$$$
44:0
     RDKit          3D

 49 52  0  0  0  0  0  0  0  0999 V2000
   67.5350   29.4410   52.2240 C   0  0  0  0  0  0  0  0  0  0  0  0
   66.6310   30.4990   52.5200 O   0  0  0  0  0  0  0  0  0  0  0  0
   65.8490   31.1200   51.5430 C   0  0  0  0  0  0  0  0  0  0  0  0
   64.6050   30.6400   51.2820 N   0  0  0  0  0  0  0  0  0  0  0  0
   63.8130   31.2190   50.3410 C   0  0  0  0  0  0  0  0  0  0  0  0
   64.2700   32.3330   49.6330 C   0  0  0  0  0  0  0  0  0  0  0  0
   63.4290   32.9570   48.5910 C   0  0  0  0  0  0  0  0  0  0  0  0
   63.9290   33.0700   47.3270 N   0  0  0  0  0  0  0  0  0  0  0  0
   63.1940   33.6190   46.3270 C   0  0  0  0  0  0  0  0  0  0  0  0
   61.9320   34.0490   46.5660 N   0  0  0  0  0  0  0  0  0  0  0  0
   61.3710   33.9400   47.7980 C   0  0  0  0  0  0  0  0  0  0  0  0
   62.1180   33.4080   48.8660 C   0  0  0  0  0  0  0  0  0  0  0  0
   61.4770   33.1930   50.2210 C   0  0  0  0  0  0  0  0  0  0  0  0
   60.1140   33.8910   50.3620 C   0  0  0  0  0  0  0  0  0  0  0  0
   59.2890   33.7990   49.1380 N   0  0  0  0  0  0  0  0  0  0  0  0
   58.8740   32.4180   48.8020 C   0  0  0  0  0  0  0  0  0  0  0  0
   58.5490   32.2940   47.3380 C   0  0  0  0  0  0  0  0  0  0  0  0
   57.6430   33.1780   46.7280 C   0  0  0  0  0  0  0  0  0  0  0  0
   57.3650   33.0720   45.3630 C   0  0  0  0  0  0  0  0  0  0  0  0
   57.9930   32.0860   44.5930 C   0  0  0  0  0  0  0  0  0  0  0  0
   57.6370   31.9520   42.8400 S   0  0  0  0  0  0  0  0  0  0  0  0
   56.7140   30.3960   43.0230 C   0  0  0  0  0  0  0  0  0  0  0  0
   58.8950   31.2020   45.1940 C   0  0  0  0  0  0  0  0  0  0  0  0
   59.1750   31.3060   46.5610 C   0  0  0  0  0  0  0  0  0  0  0  0
   59.9730   34.4600   48.0090 C   0  0  0  0  0  0  0  0  0  0  0  0
   65.5590   32.8030   49.9040 C   0  0  0  0  0  0  0  0  0  0  0  0
   66.3180   32.1950   50.8510 N   0  0  0  0  0  0  0  0  0  0  0  0
   67.9081   29.0043   53.1621 H   0  0  0  0  0  0  0  0  0  0  0  0
   67.0151   28.6669   51.6405 H   0  0  0  0  0  0  0  0  0  0  0  0
   68.3807   29.8338   51.6405 H   0  0  0  0  0  0  0  0  0  0  0  0
   62.8123   30.8103   50.1371 H   0  0  0  0  0  0  0  0  0  0  0  0
   64.8970   32.7380   47.1150 H   0  0  0  0  0  0  0  0  0  0  0  0
   63.6244   33.7151   45.3193 H   0  0  0  0  0  0  0  0  0  0  0  0
   61.3345   32.1130   50.3733 H   0  0  0  0  0  0  0  0  0  0  0  0
   62.1486   33.6305   50.9743 H   0  0  0  0  0  0  0  0  0  0  0  0
   59.5642   33.4223   51.1915 H   0  0  0  0  0  0  0  0  0  0  0  0
   60.3079   34.9575   50.5490 H   0  0  0  0  0  0  0  0  0  0  0  0
   59.6929   31.7262   49.0486 H   0  0  0  0  0  0  0  0  0  0  0  0
   57.9732   32.1714   49.3832 H   0  0  0  0  0  0  0  0  0  0  0  0
   57.1503   33.9572   47.3281 H   0  0  0  0  0  0  0  0  0  0  0  0
   56.6515   33.7645   44.8925 H   0  0  0  0  0  0  0  0  0  0  0  0
   56.5811   30.1720   44.0917 H   0  0  0  0  0  0  0  0  0  0  0  0
   55.7288   30.4956   42.5440 H   0  0  0  0  0  0  0  0  0  0  0  0
   57.2737   29.5791   42.5440 H   0  0  0  0  0  0  0  0  0  0  0  0
   59.3852   30.4236   44.5909 H   0  0  0  0  0  0  0  0  0  0  0  0
   59.8881   30.6112   47.0287 H   0  0  0  0  0  0  0  0  0  0  0  0
   59.3898   34.2863   47.0926 H   0  0  0  0  0  0  0  0  0  0  0  0
   60.0468   35.5321   48.2440 H   0  0  0  0  0  0  0  0  0  0  0  0
   65.9578   33.6654   49.3497 H   0  0  0  0  0  0  0  0  0  0  0  0
  1  2  1  0
  2  3  1  0
  3  4  2  0
  4  5  1  0
  5  6  2  0
  6  7  1  0
  7  8  2  0
  8  9  1  0
  9 10  2  0
 10 11  1  0
 11 12  2  0
 12 13  1  0
 13 14  1  0
 14 15  1  0
 15 16  1  0
 16 17  1  0
 17 18  2  0
 18 19  1  0
 19 20  2  0
 20 21  1  0
 21 22  1  0
 20 23  1  0
 23 24  2  0
 15 25  1  0
  6 26  1  0
 26 27  2  0
 27  3  1  0
 12  7  1  0
 24 17  1  0
 25 11  1  0
  1 28  1  0
  1 29  1  0
  1 30  1  0
  5 31  1  0
  8 32  1  0
  9 33  1  0
 13 34  1  0
 13 35  1  0
 14 36  1  0
 14 37  1  0
 16 38  1  0
 16 39  1  0
 18 40  1  0
 19 41  1  0
 22 42  1  0
 22 43  1  0
 22 44  1  0
 23 45  1  0
 24 46  1  0
 25 47  1  0
 25 48  1  0
 26 49  1  0
M  CHG  1   8   1
M  END
>  <UniqueID>  (45) 
45

>  <SMILES>  (45) 
COc1ncc(-c2[nH+]cnc3c2CCN(Cc2ccc(SC)cc2)C3)cn1

>  <Energy>  (45) 
61.57528363929503

>  <Genealogy>  (45) 
COc1ncc(-c2[nH+]cnc3c2CCN(Cc2ccc(SC)cc2)C3)cn1 (protonated)
COc1ncc(-c2[nH+]cnc3c2CCN(Cc2ccc(SC)cc2)C3)cn1 (3D coordinates assigned)
COc1ncc(-c2[nH+]cnc3c2CCN(Cc2ccc(SC)cc2)C3)cn1 (nonaromatic ring conformer: 61.57528363929503 kcal/mol)

>  <smiles>  (45) 
COc1ncc(-c2ncnc3c2CCN(Cc2ccc(SC)cc2)C3)cn1

>  <score_type>  (45) 
oracle

>  <origin>  (45) 
adg

>  <m_score__min__energy>  (45) 
-6.7800000000000002

>  <m_primary>  (45) 
energy

$$$$
45:0
     RDKit          3D

 37 39  0  0  0  0  0  0  0  0999 V2000
   65.8040   32.7070   50.0750 C   0  0  0  0  0  0  0  0  0  0  0  0
   64.5130   33.4770   50.3320 C   0  0  0  0  0  0  0  0  0  0  0  0
   63.5330   33.2610   49.2100 C   0  0  0  0  0  0  0  0  0  0  0  0
   63.7650   32.2720   48.2460 C   0  0  0  0  0  0  0  0  0  0  0  0
   62.8240   32.0590   47.2370 C   0  0  0  0  0  0  0  0  0  0  0  0
   61.6850   32.8030   47.1920 N   0  0  0  0  0  0  0  0  0  0  0  0
   61.4310   33.7750   48.1160 C   0  0  0  0  0  0  0  0  0  0  0  0
   60.1440   34.5450   48.0620 C   0  0  0  0  0  0  0  0  0  0  0  0
   59.8830   35.1660   46.3700 S   0  0  0  0  0  0  0  0  0  0  0  0
   58.8090   33.8090   45.9130 C   0  0  0  0  0  0  0  0  0  0  0  0
   57.4690   34.0410   45.5990 C   0  0  0  0  0  0  0  0  0  0  0  0
   56.6710   32.9530   45.2490 C   0  0  0  0  0  0  0  0  0  0  0  0
   57.2030   31.7040   45.2190 N   0  0  0  0  0  0  0  0  0  0  0  0
   58.5120   31.4910   45.5250 C   0  0  0  0  0  0  0  0  0  0  0  0
   59.0670   30.1310   45.4870 C   0  0  0  0  0  0  0  0  0  0  0  0
   58.5710   29.0650   44.7440 C   0  0  0  0  0  0  0  0  0  0  0  0
   59.3110   27.8870   44.9100 C   0  0  0  0  0  0  0  0  0  0  0  0
   60.3860   28.0190   45.7780 C   0  0  0  0  0  0  0  0  0  0  0  0
   60.4180   29.6030   46.3410 S   0  0  0  0  0  0  0  0  0  0  0  0
   59.3040   32.5440   45.8680 N   0  0  0  0  0  0  0  0  0  0  0  0
   62.3480   34.0070   49.1520 C   0  0  0  0  0  0  0  0  0  0  0  0
   66.2645   32.4323   51.0355 H   0  0  0  0  0  0  0  0  0  0  0  0
   65.5793   31.7953   49.5021 H   0  0  0  0  0  0  0  0  0  0  0  0
   66.4994   33.3380   49.5021 H   0  0  0  0  0  0  0  0  0  0  0  0
   64.0658   33.1280   51.2744 H   0  0  0  0  0  0  0  0  0  0  0  0
   64.7475   34.5498   50.3955 H   0  0  0  0  0  0  0  0  0  0  0  0
   64.6828   31.6669   48.2836 H   0  0  0  0  0  0  0  0  0  0  0  0
   63.0038   31.2864   46.4749 H   0  0  0  0  0  0  0  0  0  0  0  0
   60.9940   32.6120   46.4310 H   0  0  0  0  0  0  0  0  0  0  0  0
   59.3097   33.8860   48.3441 H   0  0  0  0  0  0  0  0  0  0  0  0
   60.1926   35.3925   48.7616 H   0  0  0  0  0  0  0  0  0  0  0  0
   57.0524   35.0587   45.6271 H   0  0  0  0  0  0  0  0  0  0  0  0
   55.6112   33.1061   44.9973 H   0  0  0  0  0  0  0  0  0  0  0  0
   57.6878   29.1392   44.0925 H   0  0  0  0  0  0  0  0  0  0  0  0
   59.0630   26.9447   44.3996 H   0  0  0  0  0  0  0  0  0  0  0  0
   61.0953   27.2237   46.0508 H   0  0  0  0  0  0  0  0  0  0  0  0
   62.1379   34.7708   49.9152 H   0  0  0  0  0  0  0  0  0  0  0  0
  1  2  1  0
  2  3  1  0
  3  4  2  0
  4  5  1  0
  5  6  2  0
  6  7  1  0
  7  8  1  0
  8  9  1  0
  9 10  1  0
 10 11  2  0
 11 12  1  0
 12 13  2  0
 13 14  1  0
 14 15  1  0
 15 16  2  0
 16 17  1  0
 17 18  2  0
 18 19  1  0
 14 20  2  0
  7 21  2  0
 21  3  1  0
 20 10  1  0
 19 15  1  0
  1 22  1  0
  1 23  1  0
  1 24  1  0
  2 25  1  0
  2 26  1  0
  4 27  1  0
  5 28  1  0
  6 29  1  0
  8 30  1  0
  8 31  1  0
 11 32  1  0
 12 33  1  0
 16 34  1  0
 17 35  1  0
 18 36  1  0
 21 37  1  0
M  CHG  1   6   1
M  END
>  <UniqueID>  (46) 
46

>  <SMILES>  (46) 
CCc1cc[nH+]c(CSc2ccnc(-c3cccs3)n2)c1

>  <Energy>  (46) 
57.425251259993395

>  <Genealogy>  (46) 
CCc1cc[nH+]c(CSc2ccnc(-c3cccs3)n2)c1 (protonated)
CCc1cc[nH+]c(CSc2ccnc(-c3cccs3)n2)c1 (3D coordinates assigned)
CCc1cc[nH+]c(CSc2ccnc(-c3cccs3)n2)c1 (optimized conformer: 57.425251259993395 kcal/mol)

>  <smiles>  (46) 
CCc1ccnc(CSc2ccnc(-c3cccs3)n2)c1

>  <score_type>  (46) 
oracle

>  <origin>  (46) 
adg

>  <m_score__min__energy>  (46) 
-5.7699999999999996

>  <m_primary>  (46) 
energy

$$$$
46:0
     RDKit          3D

 76 79  0  0  0  0  0  0  0  0999 V2000
   61.0400   32.7750   50.7440 C   0  0  0  0  0  0  0  0  0  0  0  0
   62.1120   32.4510   51.6250 O   0  0  0  0  0  0  0  0  0  0  0  0
   63.4550   32.3300   51.2370 C   0  0  0  0  0  0  0  0  0  0  0  0
   63.9570   32.9510   50.0750 C   0  0  0  0  0  0  0  0  0  0  0  0
   65.3030   32.8110   49.7280 C   0  0  0  0  0  0  0  0  0  0  0  0
   66.1620   32.0700   50.5380 C   0  0  0  0  0  0  0  0  0  0  0  0
   65.6770   31.4510   51.6910 C   0  0  0  0  0  0  0  0  0  0  0  0
   64.3160   31.5670   52.0400 C   0  0  0  0  0  0  0  0  0  0  0  0
   63.7760   30.9270   53.1660 O   0  0  0  0  0  0  0  0  0  0  0  0
   63.6880   29.5140   53.3370 C   0  0  0  0  0  0  0  0  0  0  0  0
   62.5050   29.0140   52.5830 C   0  0  0  0  0  0  0  0  0  0  0  0
   62.1510   29.3790   51.3020 C   0  0  0  0  0  0  0  0  0  0  0  0
   61.0870   28.6260   50.9700 N   0  0  0  0  0  0  0  0  0  0  0  0
   60.4000   28.6380   49.7080 C   0  0  0  0  0  0  0  0  0  0  0  0
   59.2880   29.4640   49.5060 C   0  0  0  0  0  0  0  0  0  0  0  0
   58.5270   29.3500   48.3410 C   0  0  0  0  0  0  0  0  0  0  0  0
   58.8680   28.4030   47.3570 C   0  0  0  0  0  0  0  0  0  0  0  0
   58.0540   28.1630   46.2350 O   0  0  0  0  0  0  0  0  0  0  0  0
   57.3190   29.1380   45.4830 C   0  0  2  0  0  0  0  0  0  0  0  0
   55.9240   28.6290   45.2020 C   0  0  0  0  0  0  0  0  0  0  0  0
   55.0880   29.3630   44.6030 O   0  0  0  0  0  0  0  0  0  0  0  0
   55.5380   27.3620   45.6220 O   0  0  0  0  0  0  0  0  0  0  0  0
   58.0430   29.2930   44.1130 C   0  0  0  0  0  0  0  0  0  0  0  0
   59.3530   30.0970   44.2280 C   0  0  2  0  0  0  0  0  0  0  0  0
   60.4080   29.2080   44.5160 O   0  0  0  0  0  0  0  0  0  0  0  0
   59.2510   31.2290   45.2910 C   0  0  2  0  0  0  0  0  0  0  0  0
   59.9740   30.8650   46.5150 N   0  0  0  0  0  0  0  0  0  0  0  0
   60.9500   31.6990   47.1480 C   0  0  0  0  0  0  0  0  0  0  0  0
   62.1920   31.0930   47.6960 C   0  0  0  0  0  0  0  0  0  0  0  0
   60.7900   32.9500   47.1990 O   0  0  0  0  0  0  0  0  0  0  0  0
   57.7570   31.4860   45.6260 C   0  0  2  0  0  0  0  0  0  0  0  0
   57.4900   32.7410   46.5130 C   0  0  1  0  0  0  0  0  0  0  0  0
   58.1160   32.6250   47.7680 O   0  0  0  0  0  0  0  0  0  0  0  0
   57.8820   34.0840   45.8330 C   0  0  1  0  0  0  0  0  0  0  0  0
   58.8030   34.7560   46.6550 O   0  0  0  0  0  0  0  0  0  0  0  0
   58.4820   33.9000   44.4290 C   0  0  0  0  0  0  0  0  0  0  0  0
   59.8610   34.1680   44.4360 O   0  0  0  0  0  0  0  0  0  0  0  0
   57.2240   30.3360   46.2650 O   0  0  0  0  0  0  0  0  0  0  0  0
   60.0380   27.6370   47.5150 C   0  0  0  0  0  0  0  0  0  0  0  0
   60.4730   26.6710   46.4440 C   0  0  0  0  0  0  0  0  0  0  0  0
   59.6950   25.5320   46.5090 F   0  0  0  0  0  0  0  0  0  0  0  0
   61.8030   26.3320   46.6130 F   0  0  0  0  0  0  0  0  0  0  0  0
   60.7870   27.7510   48.6920 C   0  0  0  0  0  0  0  0  0  0  0  0
   60.8210   27.8330   51.9980 N   0  0  0  0  0  0  0  0  0  0  0  0
   61.6690   28.0370   53.0000 N   0  0  0  0  0  0  0  0  0  0  0  0
   60.1503   33.0439   51.3324 H   0  0  0  0  0  0  0  0  0  0  0  0
   61.3309   33.6254   50.1097 H   0  0  0  0  0  0  0  0  0  0  0  0
   60.8112   31.9059   50.1097 H   0  0  0  0  0  0  0  0  0  0  0  0
   63.2864   33.5479   49.4394 H   0  0  0  0  0  0  0  0  0  0  0  0
   65.6860   33.2868   48.8131 H   0  0  0  0  0  0  0  0  0  0  0  0
   67.2239   31.9730   50.2680 H   0  0  0  0  0  0  0  0  0  0  0  0
   66.3590   30.8706   52.3297 H   0  0  0  0  0  0  0  0  0  0  0  0
   64.6012   29.0370   52.9515 H   0  0  0  0  0  0  0  0  0  0  0  0
   63.5814   29.2718   54.4047 H   0  0  0  0  0  0  0  0  0  0  0  0
   62.6421   30.1372   50.6744 H   0  0  0  0  0  0  0  0  0  0  0  0
   59.0123   30.2067   50.2691 H   0  0  0  0  0  0  0  0  0  0  0  0
   57.6555   30.0043   48.1912 H   0  0  0  0  0  0  0  0  0  0  0  0
   58.2763   28.2918   43.7215 H   0  0  0  0  0  0  0  0  0  0  0  0
   57.3702   29.8430   43.4386 H   0  0  0  0  0  0  0  0  0  0  0  0
   59.5499   30.5985   43.2690 H   0  0  0  0  0  0  0  0  0  0  0  0
   60.3600   28.9910   45.4880 H   0  0  0  0  0  0  0  0  0  0  0  0
   59.7061   32.1412   44.8779 H   0  0  0  0  0  0  0  0  0  0  0  0
   62.1548   31.1112   48.7952 H   0  0  0  0  0  0  0  0  0  0  0  0
   62.2763   30.0525   47.3491 H   0  0  0  0  0  0  0  0  0  0  0  0
   63.0640   31.6669   47.3491 H   0  0  0  0  0  0  0  0  0  0  0  0
   57.2602   31.6905   44.6661 H   0  0  0  0  0  0  0  0  0  0  0  0
   56.3998   32.7707   46.6562 H   0  0  0  0  0  0  0  0  0  0  0  0
   59.0940   32.6510   47.6070 H   0  0  0  0  0  0  0  0  0  0  0  0
   56.9601   34.6706   45.7063 H   0  0  0  0  0  0  0  0  0  0  0  0
   59.5150   34.1060   46.8870 H   0  0  0  0  0  0  0  0  0  0  0  0
   58.3179   32.8633   44.0999 H   0  0  0  0  0  0  0  0  0  0  0  0
   57.9900   34.6031   43.7408 H   0  0  0  0  0  0  0  0  0  0  0  0
   60.2050   33.8320   45.3050 H   0  0  0  0  0  0  0  0  0  0  0  0
   60.3506   27.1497   45.4612 H   0  0  0  0  0  0  0  0  0  0  0  0
   61.6906   27.1373   48.8221 H   0  0  0  0  0  0  0  0  0  0  0  0
   60.0360   27.1440   52.0350 H   0  0  0  0  0  0  0  0  0  0  0  0
  1  2  1  0
  2  3  1  0
  3  4  2  0
  4  5  1  0
  5  6  2  0
  6  7  1  0
  7  8  2  0
  8  9  1  0
  9 10  1  0
 10 11  1  0
 11 12  2  0
 12 13  1  0
 13 14  1  0
 14 15  2  0
 15 16  1  0
 16 17  2  0
 17 18  1  0
 19 18  1  1
 19 20  1  0
 20 21  2  0
 20 22  1  0
 19 23  1  0
 23 24  1  0
 24 25  1  0
 24 26  1  0
 26 27  1  0
 27 28  1  0
 28 29  1  0
 28 30  2  0
 26 31  1  0
 31 32  1  0
 32 33  1  0
 32 34  1  0
 34 35  1  0
 34 36  1  0
 36 37  1  0
 31 38  1  0
 17 39  1  0
 39 40  1  0
 40 41  1  0
 40 42  1  0
 39 43  2  0
 13 44  1  0
 44 45  2  0
  8  3  1  0
 45 11  1  0
 43 14  1  0
 38 19  1  0
  1 46  1  0
  1 47  1  0
  1 48  1  0
  4 49  1  0
  5 50  1  0
  6 51  1  0
  7 52  1  0
 10 53  1  0
 10 54  1  0
 12 55  1  0
 15 56  1  0
 16 57  1  0
 23 58  1  0
 23 59  1  0
 24 60  1  6
 25 61  1  0
 26 62  1  6
 29 63  1  0
 29 64  1  0
 29 65  1  0
 31 66  1  6
 32 67  1  1
 33 68  1  0
 34 69  1  6
 35 70  1  0
 36 71  1  0
 36 72  1  0
 37 73  1  0
 40 74  1  0
 43 75  1  0
 44 76  1  0
M  CHG  3  22  -1  27  -1  44   1
M  END
>  <UniqueID>  (47) 
47

>  <SMILES>  (47) 
COc1ccccc1OCc1cn(-c2ccc(O[C@]3(C(=O)[O-])C[C@H](O)C([N-]C(C)=O)C(C(O)C(O)CO)O3)c(C(F)F)c2)[nH+]n1

>  <Energy>  (47) 
136.02516692617053

>  <Genealogy>  (47) 
COc1ccccc1OCc1cn(-c2ccc(OC3(C(=O)[O-])CC(O)C([N-]C(C)=O)C(C(O)C(O)CO)O3)c(C(F)F)c2)[nH+]n1 (protonated)
COc1ccccc1OCc1cn(-c2ccc(O[C@]3(C(=O)[O-])C[C@H](O)C([N-]C(C)=O)C(C(O)C(O)CO)O3)c(C(F)F)c2)[nH+]n1 (chirality)
COc1ccccc1OCc1cn(-c2ccc(O[C@]3(C(=O)[O-])C[C@H](O)C([N-]C(C)=O)C(C(O)C(O)CO)O3)c(C(F)F)c2)[nH+]n1 (3D coordinates assigned)
COc1ccccc1OCc1cn(-c2ccc(O[C@]3(C(=O)[O-])C[C@H](O)C([N-]C(C)=O)C(C(O)C(O)CO)O3)c(C(F)F)c2)[nH+]n1 (nonaromatic ring conformer: 136.02516692617053 kcal/mol)

>  <smiles>  (47) 
COc1ccccc1OCc1cn(-c2ccc(OC3(C(=O)O)CC(O)C(NC(C)=O)C(C(O)C(O)CO)O3)c(C(F)F)c2)nn1

>  <score_type>  (47) 
oracle

>  <origin>  (47) 
adg

>  <m_score__min__energy>  (47) 
-8.3300000000000001

>  <m_primary>  (47) 
energy

$$$$
47:0
     RDKit          3D

 55 58  0  0  0  0  0  0  0  0999 V2000
   56.0780   30.4750   43.9340 C   0  0  0  0  0  0  0  0  0  0  0  0
   57.0230   31.1060   44.8710 N   0  0  0  0  0  0  0  0  0  0  0  0
   57.9790   30.1000   45.3600 C   0  0  0  0  0  0  0  0  0  0  0  0
   57.7320   32.2360   44.2310 C   0  0  0  0  0  0  0  0  0  0  0  0
   57.6800   33.4830   45.1240 C   0  0  0  0  0  0  0  0  0  0  0  0
   58.5540   33.3100   46.3150 N   0  0  0  0  0  0  0  0  0  0  0  0
   57.7800   32.8700   47.4970 C   0  0  0  0  0  0  0  0  0  0  0  0
   58.6560   32.0810   48.4330 C   0  0  0  0  0  0  0  0  0  0  0  0
   59.5850   31.1530   47.9400 C   0  0  0  0  0  0  0  0  0  0  0  0
   60.3920   30.4460   48.8360 C   0  0  0  0  0  0  0  0  0  0  0  0
   60.2740   30.6560   50.1730 N   0  0  0  0  0  0  0  0  0  0  0  0
   59.3790   31.5450   50.6780 C   0  0  0  0  0  0  0  0  0  0  0  0
   58.5520   32.2730   49.8190 C   0  0  0  0  0  0  0  0  0  0  0  0
   59.3120   34.5440   46.6290 C   0  0  0  0  0  0  0  0  0  0  0  0
   60.6930   34.2110   47.1260 C   0  0  0  0  0  0  0  0  0  0  0  0
   61.6990   33.8160   46.2300 C   0  0  0  0  0  0  0  0  0  0  0  0
   62.9640   33.4570   46.7030 C   0  0  0  0  0  0  0  0  0  0  0  0
   63.2350   33.4790   48.0780 C   0  0  0  0  0  0  0  0  0  0  0  0
   64.4920   33.1080   48.5680 C   0  0  0  0  0  0  0  0  0  0  0  0
   64.7370   33.1290   49.9460 C   0  0  0  0  0  0  0  0  0  0  0  0
   65.9890   32.7570   50.4610 C   0  0  0  0  0  0  0  0  0  0  0  0
   66.2140   32.7830   51.8400 C   0  0  0  0  0  0  0  0  0  0  0  0
   65.1950   33.1780   52.7110 C   0  0  0  0  0  0  0  0  0  0  0  0
   63.9440   33.5510   52.2090 C   0  0  0  0  0  0  0  0  0  0  0  0
   63.7040   33.5290   50.8250 C   0  0  0  0  0  0  0  0  0  0  0  0
   62.4850   33.8910   50.3280 N   0  0  0  0  0  0  0  0  0  0  0  0
   62.2290   33.8780   48.9870 C   0  0  0  0  0  0  0  0  0  0  0  0
   60.9640   34.2460   48.5020 C   0  0  0  0  0  0  0  0  0  0  0  0
   55.2940   29.9515   44.5009 H   0  0  0  0  0  0  0  0  0  0  0  0
   55.6183   31.2480   43.3007 H   0  0  0  0  0  0  0  0  0  0  0  0
   56.6158   29.7542   43.3007 H   0  0  0  0  0  0  0  0  0  0  0  0
   57.9798   30.0992   46.4600 H   0  0  0  0  0  0  0  0  0  0  0  0
   57.6849   29.1057   44.9928 H   0  0  0  0  0  0  0  0  0  0  0  0
   58.9870   30.3431   44.9928 H   0  0  0  0  0  0  0  0  0  0  0  0
   58.7823   31.9552   44.0633 H   0  0  0  0  0  0  0  0  0  0  0  0
   57.2414   32.4653   43.2735 H   0  0  0  0  0  0  0  0  0  0  0  0
   58.0226   34.3551   44.5477 H   0  0  0  0  0  0  0  0  0  0  0  0
   56.6444   33.6341   45.4627 H   0  0  0  0  0  0  0  0  0  0  0  0
   57.3894   33.7531   48.0239 H   0  0  0  0  0  0  0  0  0  0  0  0
   56.9490   32.2317   47.1623 H   0  0  0  0  0  0  0  0  0  0  0  0
   59.6778   30.9830   46.8572 H   0  0  0  0  0  0  0  0  0  0  0  0
   61.1244   29.7178   48.4576 H   0  0  0  0  0  0  0  0  0  0  0  0
   59.3055   31.6918   51.7657 H   0  0  0  0  0  0  0  0  0  0  0  0
   57.8250   32.9911   50.2261 H   0  0  0  0  0  0  0  0  0  0  0  0
   59.3942   35.1579   45.7200 H   0  0  0  0  0  0  0  0  0  0  0  0
   58.7773   35.0955   47.4164 H   0  0  0  0  0  0  0  0  0  0  0  0
   61.4905   33.7890   45.1503 H   0  0  0  0  0  0  0  0  0  0  0  0
   63.7495   33.1562   45.9941 H   0  0  0  0  0  0  0  0  0  0  0  0
   65.2861   32.8004   47.8717 H   0  0  0  0  0  0  0  0  0  0  0  0
   66.7933   32.4449   49.7786 H   0  0  0  0  0  0  0  0  0  0  0  0
   67.1960   32.4917   52.2410 H   0  0  0  0  0  0  0  0  0  0  0  0
   65.3775   33.1956   53.7956 H   0  0  0  0  0  0  0  0  0  0  0  0
   63.1462   33.8623   52.8994 H   0  0  0  0  0  0  0  0  0  0  0  0
   61.7300   34.1840   50.9910 H   0  0  0  0  0  0  0  0  0  0  0  0
   60.1803   34.5638   49.2054 H   0  0  0  0  0  0  0  0  0  0  0  0
  1  2  1  0
  2  3  1  0
  2  4  1  0
  4  5  1  0
  5  6  1  0
  6  7  1  0
  7  8  1  0
  8  9  2  0
  9 10  1  0
 10 11  2  0
 11 12  1  0
 12 13  2  0
  6 14  1  0
 14 15  1  0
 15 16  2  0
 16 17  1  0
 17 18  2  0
 18 19  1  0
 19 20  2  0
 20 21  1  0
 21 22  2  0
 22 23  1  0
 23 24  2  0
 24 25  1  0
 25 26  2  0
 26 27  1  0
 27 28  2  0
 13  8  1  0
 28 15  1  0
 27 18  1  0
 25 20  1  0
  1 29  1  0
  1 30  1  0
  1 31  1  0
  3 32  1  0
  3 33  1  0
  3 34  1  0
  4 35  1  0
  4 36  1  0
  5 37  1  0
  5 38  1  0
  7 39  1  0
  7 40  1  0
  9 41  1  0
 10 42  1  0
 12 43  1  0
 13 44  1  0
 14 45  1  0
 14 46  1  0
 16 47  1  0
 17 48  1  0
 19 49  1  0
 21 50  1  0
 22 51  1  0
 23 52  1  0
 24 53  1  0
 26 54  1  0
 28 55  1  0
M  CHG  1  26   1
M  END
>  <UniqueID>  (48) 
48

>  <SMILES>  (48) 
CN(C)CCN(Cc1ccncc1)Cc1ccc2cc3ccccc3[nH+]c2c1

>  <Energy>  (48) 
64.09304565954922

>  <Genealogy>  (48) 
CN(C)CCN(Cc1ccncc1)Cc1ccc2cc3ccccc3[nH+]c2c1 (protonated)
CN(C)CCN(Cc1ccncc1)Cc1ccc2cc3ccccc3[nH+]c2c1 (3D coordinates assigned)
CN(C)CCN(Cc1ccncc1)Cc1ccc2cc3ccccc3[nH+]c2c1 (optimized conformer: 64.09304565954922 kcal/mol)

>  <smiles>  (48) 
CN(C)CCN(Cc1ccncc1)Cc1ccc2cc3ccccc3nc2c1

>  <score_type>  (48) 
oracle

>  <origin>  (48) 
adg

>  <m_score__min__energy>  (48) 
-7.2699999999999996

>  <m_primary>  (48) 
energy

$$$$
48:0
     RDKit          3D

 31 33  0  0  0  0  0  0  0  0999 V2000
   59.6730   26.2130   46.0620 C   0  0  0  0  0  0  0  0  0  0  0  0
   57.8570   26.2190   46.1730 S   0  0  0  0  0  0  0  0  0  0  0  0
   57.7170   27.9320   45.6560 C   0  0  0  0  0  0  0  0  0  0  0  0
   57.0660   28.2650   44.4990 N   0  0  0  0  0  0  0  0  0  0  0  0
   56.9680   29.5740   44.0870 C   0  0  0  0  0  0  0  0  0  0  0  0
   56.2820   29.9070   42.8010 C   0  0  0  0  0  0  0  0  0  0  0  0
   57.5310   30.5740   44.8320 N   0  0  0  0  0  0  0  0  0  0  0  0
   58.1550   30.2420   45.9880 C   0  0  0  0  0  0  0  0  0  0  0  0
   58.2690   28.9610   46.4060 C   0  0  0  0  0  0  0  0  0  0  0  0
   58.9870   28.8960   47.5420 N   0  0  0  0  0  0  0  0  0  0  0  0
   59.2950   30.2020   47.7760 C   0  0  0  0  0  0  0  0  0  0  0  0
   58.7980   31.0540   46.8400 N   0  0  0  0  0  0  0  0  0  0  0  0
   58.9560   32.4850   46.7840 C   0  0  0  0  0  0  0  0  0  0  0  0
   59.4080   33.2030   47.9070 C   0  0  0  0  0  0  0  0  0  0  0  0
   59.5630   34.5910   47.8430 C   0  0  0  0  0  0  0  0  0  0  0  0
   59.2720   35.2760   46.6600 C   0  0  0  0  0  0  0  0  0  0  0  0
   58.8300   34.5730   45.5370 C   0  0  0  0  0  0  0  0  0  0  0  0
   58.6740   33.1840   45.5960 C   0  0  0  0  0  0  0  0  0  0  0  0
   60.1022   26.2116   47.0748 H   0  0  0  0  0  0  0  0  0  0  0  0
   60.0044   25.3138   45.5221 H   0  0  0  0  0  0  0  0  0  0  0  0
   60.0103   27.1100   45.5221 H   0  0  0  0  0  0  0  0  0  0  0  0
   56.6450   27.5060   43.9160 H   0  0  0  0  0  0  0  0  0  0  0  0
   55.3113   30.3782   43.0146 H   0  0  0  0  0  0  0  0  0  0  0  0
   56.9072   30.6019   42.2211 H   0  0  0  0  0  0  0  0  0  0  0  0
   56.1228   28.9859   42.2211 H   0  0  0  0  0  0  0  0  0  0  0  0
   59.8890   30.5356   48.6396 H   0  0  0  0  0  0  0  0  0  0  0  0
   59.6406   32.6691   48.8402 H   0  0  0  0  0  0  0  0  0  0  0  0
   59.9148   35.1452   48.7257 H   0  0  0  0  0  0  0  0  0  0  0  0
   59.3911   36.3685   46.6134 H   0  0  0  0  0  0  0  0  0  0  0  0
   58.6043   35.1121   44.6051 H   0  0  0  0  0  0  0  0  0  0  0  0
   58.3286   32.6347   44.7077 H   0  0  0  0  0  0  0  0  0  0  0  0
  1  2  1  0
  2  3  1  0
  3  4  2  0
  4  5  1  0
  5  6  1  0
  5  7  2  0
  7  8  1  0
  8  9  2  0
  9 10  1  0
 10 11  2  0
 11 12  1  0
 12 13  1  0
 13 14  2  0
 14 15  1  0
 15 16  2  0
 16 17  1  0
 17 18  2  0
  9  3  1  0
 18 13  1  0
 12  8  1  0
  1 19  1  0
  1 20  1  0
  1 21  1  0
  4 22  1  0
  6 23  1  0
  6 24  1  0
  6 25  1  0
 11 26  1  0
 14 27  1  0
 15 28  1  0
 16 29  1  0
 17 30  1  0
 18 31  1  0
M  CHG  1   4   1
M  END
>  <UniqueID>  (49) 
49

>  <SMILES>  (49) 
CSc1[nH+]c(C)nc2c1ncn2-c1ccccc1

>  <Energy>  (49) 
72.16196492995958

>  <Genealogy>  (49) 
CSc1[nH+]c(C)nc2c1ncn2-c1ccccc1 (protonated)
CSc1[nH+]c(C)nc2c1ncn2-c1ccccc1 (3D coordinates assigned)
CSc1[nH+]c(C)nc2c1ncn2-c1ccccc1 (optimized conformer: 72.16196492995958 kcal/mol)

>  <smiles>  (49) 
CSc1nc(C)nc2c1ncn2-c1ccccc1

>  <score_type>  (49) 
oracle

>  <origin>  (49) 
adg

>  <m_score__min__energy>  (49) 
-5.2000000000000002

>  <m_primary>  (49) 
energy

$$$$
49:0
     RDKit          3D

 21 22  0  0  0  0  0  0  0  0999 V2000
   60.1426   35.9607   46.1781 H   0  0  0  0  0  0  0  0  0  0  0  0
   59.5840   35.0300   46.0000 C   0  0  0  0  0  0  0  0  0  0  0  0
   59.2120   34.2210   47.0760 C   0  0  0  0  0  0  0  0  0  0  0  0
   59.4785   34.5157   48.1017 H   0  0  0  0  0  0  0  0  0  0  0  0
   58.5020   33.0380   46.8530 C   0  0  0  0  0  0  0  0  0  0  0  0
   58.2124   32.4058   47.7053 H   0  0  0  0  0  0  0  0  0  0  0  0
   58.1550   32.6500   45.5450 C   0  0  0  0  0  0  0  0  0  0  0  0
   57.4030   31.3960   45.3170 C   0  0  0  0  0  0  0  0  0  0  0  0
   56.2690   31.3270   44.5780 N   0  0  0  0  0  0  0  0  0  0  0  0
   55.7520   30.1020   44.5000 N   0  0  0  0  0  0  0  0  0  0  0  0
   56.4760   29.1850   45.1800 C   0  0  0  0  0  0  0  0  0  0  0  0
   56.1710   27.9250   45.2500 N   0  0  0  0  0  0  0  0  0  0  0  0
   56.9830   26.9420   45.9570 C   0  0  0  0  0  0  0  0  0  0  0  0
   56.8669   27.0825   47.0418 H   0  0  0  0  0  0  0  0  0  0  0  0
   56.6549   25.9289   45.6813 H   0  0  0  0  0  0  0  0  0  0  0  0
   58.0398   27.0729   45.6813 H   0  0  0  0  0  0  0  0  0  0  0  0
   57.8160   29.8700   45.9230 S   0  0  0  0  0  0  0  0  0  0  0  0
   58.5360   33.4740   44.4690 C   0  0  0  0  0  0  0  0  0  0  0  0
   58.2730   33.1855   43.4406 H   0  0  0  0  0  0  0  0  0  0  0  0
   59.2460   34.6560   44.6980 C   0  0  0  0  0  0  0  0  0  0  0  0
   59.5391   35.2930   43.8505 H   0  0  0  0  0  0  0  0  0  0  0  0
  1  2  1  0
  2  3  2  0
  3  4  1  0
  3  5  1  0
  5  6  1  0
  5  7  2  0
  7  8  1  0
  8  9  2  0
  9 10  1  0
 10 11  1  0
 11 12  2  0
 12 13  1  0
 13 14  1  0
 13 15  1  0
 13 16  1  0
 11 17  1  0
  7 18  1  0
 18 19  1  0
 18 20  2  0
 20 21  1  0
 20  2  1  0
 17  8  1  0
M  CHG  1  10  -1
M  END
>  <UniqueID>  (50) 
50

>  <SMILES>  (50) 
C/N=c1\[n-]nc(-c2ccccc2)s1

>  <Energy>  (50) 
55.428085009723056

>  <Genealogy>  (50) 
CN=c1[n-]nc(-c2ccccc2)s1 (protonated)
C/N=c1\[n-]nc(-c2ccccc2)s1 (cis-trans isomerization)
C/N=c1\[n-]nc(-c2ccccc2)s1 (3D coordinates assigned)
C/N=c1\[n-]nc(-c2ccccc2)s1 (optimized conformer: 55.428085009723056 kcal/mol)

>  <smiles>  (50) 
CN=c1[nH]nc(-c2ccccc2)s1

>  <score_type>  (50) 
oracle

>  <origin>  (50) 
adg

>  <m_score__min__energy>  (50) 
-7.79

>  <m_primary>  (50) 
energy

$$$$
