0:0
     RDKit          3D

 46 49  0  0  0  0  0  0  0  0999 V2000
   59.6340   33.7150   48.9080 C   0  0  0  0  0  0  0  0  0  0  0  0
   59.3610   33.7590   47.4320 C   0  0  0  0  0  0  0  0  0  0  0  0
   59.5550   34.9480   46.7160 C   0  0  0  0  0  0  0  0  0  0  0  0
   59.2650   35.0000   45.3500 C   0  0  0  0  0  0  0  0  0  0  0  0
   58.7680   33.8720   44.6940 C   0  0  0  0  0  0  0  0  0  0  0  0
   58.5490   32.6750   45.4000 C   0  0  0  0  0  0  0  0  0  0  0  0
   58.0170   31.4750   44.7040 C   0  0  0  0  0  0  0  0  0  0  0  0
   57.0580   31.6070   43.6850 C   0  0  0  0  0  0  0  0  0  0  0  0
   56.5710   30.4800   43.0220 C   0  0  0  0  0  0  0  0  0  0  0  0
   57.0280   29.2080   43.3690 C   0  0  0  0  0  0  0  0  0  0  0  0
   57.9750   29.0480   44.3950 C   0  0  0  0  0  0  0  0  0  0  0  0
   58.4590   27.6920   44.7510 C   0  0  0  0  0  0  0  0  0  0  0  0
   59.5040   27.5710   45.4450 O   0  0  0  0  0  0  0  0  0  0  0  0
   57.7600   26.5180   44.3050 N   0  0  0  0  0  0  0  0  0  0  0  0
   58.0900   25.1830   44.8220 C   0  0  0  0  0  0  0  0  0  0  0  0
   57.9540   25.1570   46.3640 C   0  0  0  0  0  0  0  0  0  0  0  0
   56.8120   24.2470   46.6090 C   0  0  0  0  0  0  0  0  0  0  0  0
   56.2300   23.9510   47.8450 C   0  0  0  0  0  0  0  0  0  0  0  0
   55.1570   23.0480   47.8860 C   0  0  0  0  0  0  0  0  0  0  0  0
   54.6890   22.4510   46.7020 C   0  0  0  0  0  0  0  0  0  0  0  0
   55.2940   22.7570   45.4730 C   0  0  0  0  0  0  0  0  0  0  0  0
   56.3550   23.6670   45.4530 C   0  0  0  0  0  0  0  0  0  0  0  0
   57.1260   24.1010   44.2670 C   0  0  0  0  0  0  0  0  0  0  0  0
   58.4730   30.1890   45.0490 C   0  0  0  0  0  0  0  0  0  0  0  0
   58.8440   32.6310   46.7760 C   0  0  0  0  0  0  0  0  0  0  0  0
   58.6943   33.8665   49.4594 H   0  0  0  0  0  0  0  0  0  0  0  0
   60.0609   32.7365   49.1729 H   0  0  0  0  0  0  0  0  0  0  0  0
   60.3468   34.5099   49.1729 H   0  0  0  0  0  0  0  0  0  0  0  0
   59.9364   35.8424   47.2304 H   0  0  0  0  0  0  0  0  0  0  0  0
   59.4287   35.9324   44.7898 H   0  0  0  0  0  0  0  0  0  0  0  0
   58.5462   33.9196   43.6177 H   0  0  0  0  0  0  0  0  0  0  0  0
   56.6889   32.6056   43.4083 H   0  0  0  0  0  0  0  0  0  0  0  0
   55.8240   30.5947   42.2227 H   0  0  0  0  0  0  0  0  0  0  0  0
   56.6447   28.3252   42.8363 H   0  0  0  0  0  0  0  0  0  0  0  0
   57.0330   26.6190   43.5620 H   0  0  0  0  0  0  0  0  0  0  0  0
   59.1213   24.9680   44.5056 H   0  0  0  0  0  0  0  0  0  0  0  0
   58.8709   24.7677   46.8306 H   0  0  0  0  0  0  0  0  0  0  0  0
   57.7961   26.1582   46.7914 H   0  0  0  0  0  0  0  0  0  0  0  0
   56.6060   24.4171   48.7677 H   0  0  0  0  0  0  0  0  0  0  0  0
   54.6803   22.8063   48.8474 H   0  0  0  0  0  0  0  0  0  0  0  0
   53.8477   21.7433   46.7390 H   0  0  0  0  0  0  0  0  0  0  0  0
   54.9397   22.2893   44.5426 H   0  0  0  0  0  0  0  0  0  0  0  0
   57.6887   23.2594   43.8369 H   0  0  0  0  0  0  0  0  0  0  0  0
   56.4829   24.4807   43.4594 H   0  0  0  0  0  0  0  0  0  0  0  0
   59.2286   30.0749   45.8403 H   0  0  0  0  0  0  0  0  0  0  0  0
   58.6677   31.7044   47.3419 H   0  0  0  0  0  0  0  0  0  0  0  0
  1  2  1  0
  2  3  2  0
  3  4  1  0
  4  5  2  0
  5  6  1  0
  6  7  1  0
  7  8  2  0
  8  9  1  0
  9 10  2  0
 10 11  1  0
 11 12  1  0
 12 13  2  0
 12 14  1  0
 14 15  1  0
 15 16  1  0
 16 17  1  0
 17 18  2  0
 18 19  1  0
 19 20  2  0
 20 21  1  0
 21 22  2  0
 22 23  1  0
 11 24  2  0
  6 25  2  0
 25  2  1  0
 24  7  1  0
 23 15  1  0
 22 17  1  0
  1 26  1  0
  1 27  1  0
  1 28  1  0
  3 29  1  0
  4 30  1  0
  5 31  1  0
  8 32  1  0
  9 33  1  0
 10 34  1  0
 14 35  1  0
 15 36  1  0
 16 37  1  0
 16 38  1  0
 18 39  1  0
 19 40  1  0
 20 41  1  0
 21 42  1  0
 23 43  1  0
 23 44  1  0
 24 45  1  0
 25 46  1  0
M  END
>  <UniqueID>  (1) 
1

>  <SMILES>  (1) 
Cc1cccc(-c2cccc(C(=O)NC3Cc4ccccc4C3)c2)c1

>  <Energy>  (1) 
64.11563353854066

>  <Genealogy>  (1) 
Cc1cccc(-c2cccc(C(=O)NC3Cc4ccccc4C3)c2)c1 (3D coordinates assigned)
Cc1cccc(-c2cccc(C(=O)NC3Cc4ccccc4C3)c2)c1 (nonaromatic ring conformer: 64.11563353854066 kcal/mol)

>  <smiles>  (1) 
Cc1cccc(-c2cccc(C(=O)NC3Cc4ccccc4C3)c2)c1

>  <score_type>  (1) 
oracle

>  <origin>  (1) 
adg

>  <m_score__min__energy>  (1) 
-9.3300000000000001

>  <m_primary>  (1) 
energy

$$$$
1:0
     RDKit          3D

 36 37  0  0  0  0  0  0  0  0999 V2000
   59.4100   34.8390   45.9770 C   0  0  0  0  0  0  0  0  0  0  0  0
   58.7590   33.5850   45.4740 C   0  0  0  0  0  0  0  0  0  0  0  0
   58.4180   33.4630   44.1170 C   0  0  0  0  0  0  0  0  0  0  0  0
   57.7740   32.3100   43.6540 C   0  0  0  0  0  0  0  0  0  0  0  0
   57.4580   31.2740   44.5410 C   0  0  0  0  0  0  0  0  0  0  0  0
   56.6210   29.8400   43.9540 S   0  0  0  0  0  0  0  0  0  0  0  0
   56.0470   30.1040   42.5890 O   0  0  0  0  0  0  0  0  0  0  0  0
   55.4950   29.5050   44.8900 O   0  0  0  0  0  0  0  0  0  0  0  0
   57.7530   28.4610   43.8700 C   0  0  0  0  0  0  0  0  0  0  0  0
   57.9670   27.8380   45.2540 C   0  0  0  0  0  0  0  0  0  0  0  0
   59.4070   27.5950   45.4930 N   0  0  0  0  0  0  0  0  0  0  0  0
   59.7220   27.6130   46.9290 C   0  0  0  0  0  0  0  0  0  0  0  0
   60.0750   29.0410   47.3030 C   0  0  0  0  0  0  0  0  0  0  0  0
   60.5440   29.6800   46.0100 C   0  0  0  0  0  0  0  0  0  0  0  0
   60.2400   28.6640   44.9150 C   0  0  0  0  0  0  0  0  0  0  0  0
   57.7750   31.4050   45.9010 C   0  0  0  0  0  0  0  0  0  0  0  0
   58.4180   32.5570   46.3650 C   0  0  0  0  0  0  0  0  0  0  0  0
   59.4089   34.8369   47.0770 H   0  0  0  0  0  0  0  0  0  0  0  0
   60.4464   34.8861   45.6115 H   0  0  0  0  0  0  0  0  0  0  0  0
   58.8522   35.7138   45.6115 H   0  0  0  0  0  0  0  0  0  0  0  0
   58.6578   34.2761   43.4161 H   0  0  0  0  0  0  0  0  0  0  0  0
   57.5151   32.2174   42.5889 H   0  0  0  0  0  0  0  0  0  0  0  0
   57.3409   27.6986   43.1926 H   0  0  0  0  0  0  0  0  0  0  0  0
   58.7215   28.8261   43.4975 H   0  0  0  0  0  0  0  0  0  0  0  0
   57.5825   28.5236   46.0235 H   0  0  0  0  0  0  0  0  0  0  0  0
   57.4306   26.8787   45.3004 H   0  0  0  0  0  0  0  0  0  0  0  0
   58.8492   27.2781   47.5088 H   0  0  0  0  0  0  0  0  0  0  0  0
   60.5614   26.9370   47.1491 H   0  0  0  0  0  0  0  0  0  0  0  0
   59.1928   29.5671   47.6966 H   0  0  0  0  0  0  0  0  0  0  0  0
   60.8438   29.0847   48.0885 H   0  0  0  0  0  0  0  0  0  0  0  0
   59.9990   30.6175   45.8256 H   0  0  0  0  0  0  0  0  0  0  0  0
   61.6144   29.9311   46.0456 H   0  0  0  0  0  0  0  0  0  0  0  0
   59.6980   29.1543   44.0929 H   0  0  0  0  0  0  0  0  0  0  0  0
   61.1758   28.2426   44.5191 H   0  0  0  0  0  0  0  0  0  0  0  0
   57.5172   30.5996   46.6044 H   0  0  0  0  0  0  0  0  0  0  0  0
   58.6574   32.6573   47.4339 H   0  0  0  0  0  0  0  0  0  0  0  0
  1  2  1  0
  2  3  2  0
  3  4  1  0
  4  5  2  0
  5  6  1  0
  6  7  2  0
  6  8  2  0
  6  9  1  0
  9 10  1  0
 10 11  1  0
 11 12  1  0
 12 13  1  0
 13 14  1  0
 14 15  1  0
  5 16  1  0
 16 17  2  0
 17  2  1  0
 15 11  1  0
  1 18  1  0
  1 19  1  0
  1 20  1  0
  3 21  1  0
  4 22  1  0
  9 23  1  0
  9 24  1  0
 10 25  1  0
 10 26  1  0
 12 27  1  0
 12 28  1  0
 13 29  1  0
 13 30  1  0
 14 31  1  0
 14 32  1  0
 15 33  1  0
 15 34  1  0
 16 35  1  0
 17 36  1  0
M  END
>  <UniqueID>  (2) 
2

>  <SMILES>  (2) 
Cc1ccc(S(=O)(=O)CCN2CCCC2)cc1

>  <Energy>  (2) 
32.57377782933971

>  <Genealogy>  (2) 
Cc1ccc(S(=O)(=O)CCN2CCCC2)cc1 (3D coordinates assigned)
Cc1ccc(S(=O)(=O)CCN2CCCC2)cc1 (nonaromatic ring conformer: 32.57377782933971 kcal/mol)

>  <smiles>  (2) 
Cc1ccc(S(=O)(=O)CCN2CCCC2)cc1

>  <score_type>  (2) 
oracle

>  <origin>  (2) 
adg

>  <m_score__min__energy>  (2) 
-7.3399999999999999

>  <m_primary>  (2) 
energy

$$$$
2:0
     RDKit          3D

 35 38  0  0  0  0  0  0  0  0999 V2000
   56.7440   31.3710   41.7470 H   0  0  0  0  0  0  0  0  0  0  0  0
   56.6440   30.4610   42.2500 N   0  0  0  0  0  0  0  0  0  0  0  0
   57.0780   30.2940   43.4600 C   0  0  0  0  0  0  0  0  0  0  0  0
   57.6330   31.3570   44.1680 C   0  0  0  0  0  0  0  0  0  0  0  0
   57.7800   32.6320   43.7200 N   0  0  0  0  0  0  0  0  0  0  0  0
   58.3560   33.2410   44.7810 C   0  0  0  0  0  0  0  0  0  0  0  0
   58.7390   34.5760   44.8880 C   0  0  0  0  0  0  0  0  0  0  0  0
   58.5882   35.2790   44.0555 H   0  0  0  0  0  0  0  0  0  0  0  0
   59.3260   34.9960   46.0980 C   0  0  0  0  0  0  0  0  0  0  0  0
   59.6403   36.0433   46.2176 H   0  0  0  0  0  0  0  0  0  0  0  0
   59.5140   34.0820   47.1590 C   0  0  0  0  0  0  0  0  0  0  0  0
   59.9732   34.4241   48.0982 H   0  0  0  0  0  0  0  0  0  0  0  0
   59.1190   32.7380   47.0250 C   0  0  0  0  0  0  0  0  0  0  0  0
   59.2605   32.0160   47.8427 H   0  0  0  0  0  0  0  0  0  0  0  0
   58.5410   32.3580   45.8140 C   0  0  0  0  0  0  0  0  0  0  0  0
   58.0820   31.1630   45.4230 N   0  0  0  0  0  0  0  0  0  0  0  0
   58.0270   29.9670   46.0580 C   0  0  0  0  0  0  0  0  0  0  0  0
   58.4053   29.8500   47.0843 H   0  0  0  0  0  0  0  0  0  0  0  0
   57.4680   28.8770   45.3580 C   0  0  0  0  0  0  0  0  0  0  0  0
   57.3690   27.5420   45.9990 C   0  0  0  0  0  0  0  0  0  0  0  0
   58.3620   27.0980   46.8890 C   0  0  0  0  0  0  0  0  0  0  0  0
   59.2219   27.7458   47.1148 H   0  0  0  0  0  0  0  0  0  0  0  0
   58.2650   25.8380   47.4900 C   0  0  0  0  0  0  0  0  0  0  0  0
   59.0434   25.5050   48.1923 H   0  0  0  0  0  0  0  0  0  0  0  0
   57.1800   24.9980   47.2010 C   0  0  0  0  0  0  0  0  0  0  0  0
   57.0550   23.6650   47.8750 C   0  0  0  0  0  0  0  0  0  0  0  0
   57.0680   23.8032   48.9662 H   0  0  0  0  0  0  0  0  0  0  0  0
   56.1084   23.1906   47.5767 H   0  0  0  0  0  0  0  0  0  0  0  0
   57.8969   23.0229   47.5767 H   0  0  0  0  0  0  0  0  0  0  0  0
   56.1780   25.4450   46.3280 C   0  0  0  0  0  0  0  0  0  0  0  0
   55.3112   24.8019   46.1155 H   0  0  0  0  0  0  0  0  0  0  0  0
   56.2740   26.7030   45.7260 C   0  0  0  0  0  0  0  0  0  0  0  0
   55.4876   27.0389   45.0340 H   0  0  0  0  0  0  0  0  0  0  0  0
   57.0080   29.0710   44.0760 N   0  0  0  0  0  0  0  0  0  0  0  0
   56.6130   28.2620   43.5450 H   0  0  0  0  0  0  0  0  0  0  0  0
  1  2  1  0
  2  3  2  0
  3  4  1  0
  4  5  2  0
  5  6  1  0
  6  7  2  0
  7  8  1  0
  7  9  1  0
  9 10  1  0
  9 11  2  0
 11 12  1  0
 11 13  1  0
 13 14  1  0
 13 15  2  0
 15 16  1  0
 16 17  1  0
 17 18  1  0
 17 19  2  0
 19 20  1  0
 20 21  2  0
 21 22  1  0
 21 23  1  0
 23 24  1  0
 23 25  2  0
 25 26  1  0
 26 27  1  0
 26 28  1  0
 26 29  1  0
 25 30  1  0
 30 31  1  0
 30 32  2  0
 32 33  1  0
 19 34  1  0
 34 35  1  0
 34  3  1  0
 16  4  1  0
 32 20  1  0
 15  6  1  0
M  END
>  <UniqueID>  (3) 
3

>  <SMILES>  (3) 
[H]/N=c1\[nH]c(-c2ccc(C)cc2)cn2c1nc1ccccc12

>  <Energy>  (3) 
88.4728477604424

>  <Genealogy>  (3) 
[H]/N=c1\[nH]c(-c2ccc(C)cc2)cn2c1nc1ccccc12 (cis-trans isomerization)
[H]/N=c1\[nH]c(-c2ccc(C)cc2)cn2c1nc1ccccc12 (3D coordinates assigned)
[H]/N=c1\[nH]c(-c2ccc(C)cc2)cn2c1nc1ccccc12 (optimized conformer: 88.4728477604424 kcal/mol)

>  <smiles>  (3) 
Cc1ccc(-c2cn3c(nc4ccccc43)c(=N)[nH]2)cc1

>  <score_type>  (3) 
oracle

>  <origin>  (3) 
adg

>  <m_score__min__energy>  (3) 
-7.4800000000000004

>  <m_primary>  (3) 
energy

$$$$
3:0
     RDKit          3D

 34 35  0  0  0  0  0  0  0  0999 V2000
   56.8290   34.4420   44.8640 O   0  0  0  0  0  0  0  0  0  0  0  0
   57.5750   33.4280   44.9550 C   0  0  0  0  0  0  0  0  0  0  0  0
   58.0190   32.7200   43.7170 C   0  0  0  0  0  0  0  0  0  0  0  0
   57.6730   30.9780   43.8680 S   0  0  0  0  0  5  0  0  0  0  0  0
   56.6420   30.7230   45.1710 O   0  0  0  0  0  0  0  0  0  0  0  0
   56.9340   30.4610   42.4460 O   0  0  0  0  0  0  0  0  0  0  0  0
   59.0310   30.2150   44.1170 N   0  0  0  0  0  0  0  0  0  0  0  0
   59.3560   29.4880   45.3100 C   0  0  0  0  0  0  0  0  0  0  0  0
   60.0720   28.2790   45.2630 C   0  0  0  0  0  0  0  0  0  0  0  0
   60.3560   27.6040   46.4520 C   0  0  0  0  0  0  0  0  0  0  0  0
   59.9150   28.1220   47.6680 C   0  0  0  0  0  0  0  0  0  0  0  0
   59.1790   29.3090   47.6770 C   0  0  0  0  0  0  0  0  0  0  0  0
   58.9060   29.9540   46.5100 N   0  0  0  0  0  0  0  0  0  0  0  0
   57.9990   32.9460   46.2350 N   0  0  0  0  0  0  0  0  0  0  0  0
   59.3160   33.0730   46.7860 C   0  0  0  0  0  0  0  0  0  0  0  0
   59.6500   32.5410   48.0460 C   0  0  0  0  0  0  0  0  0  0  0  0
   60.9580   32.6430   48.5290 C   0  0  0  0  0  0  0  0  0  0  0  0
   61.9440   33.2680   47.7590 C   0  0  0  0  0  0  0  0  0  0  0  0
   63.7310   33.4030   48.4200 Br  0  0  0  0  0  0  0  0  0  0  0  0
   61.6230   33.7810   46.4980 C   0  0  0  0  0  0  0  0  0  0  0  0
   60.3160   33.6770   46.0120 C   0  0  0  0  0  0  0  0  0  0  0  0
   57.4791   33.1266   42.8491 H   0  0  0  0  0  0  0  0  0  0  0  0
   59.1004   32.8672   43.5798 H   0  0  0  0  0  0  0  0  0  0  0  0
   56.6260   31.5890   45.6530 H   0  0  0  0  0  0  0  0  0  0  0  0
   57.4270   29.6430   42.1870 H   0  0  0  0  0  0  0  0  0  0  0  0
   60.4054   27.8685   44.2985 H   0  0  0  0  0  0  0  0  0  0  0  0
   60.9273   26.6643   46.4286 H   0  0  0  0  0  0  0  0  0  0  0  0
   60.1439   27.6021   48.6100 H   0  0  0  0  0  0  0  0  0  0  0  0
   58.8189   29.7238   48.6301 H   0  0  0  0  0  0  0  0  0  0  0  0
   58.3500   30.8380   46.5420 H   0  0  0  0  0  0  0  0  0  0  0  0
   58.8791   32.0433   48.6526 H   0  0  0  0  0  0  0  0  0  0  0  0
   61.2121   32.2308   49.5167 H   0  0  0  0  0  0  0  0  0  0  0  0
   62.3992   34.2665   45.8882 H   0  0  0  0  0  0  0  0  0  0  0  0
   60.0710   34.0721   45.0151 H   0  0  0  0  0  0  0  0  0  0  0  0
  1  2  2  0
  2  3  1  0
  3  4  1  0
  4  5  1  0
  4  6  1  0
  4  7  2  0
  7  8  1  0
  8  9  2  0
  9 10  1  0
 10 11  2  0
 11 12  1  0
 12 13  2  0
  2 14  1  0
 14 15  1  0
 15 16  2  0
 16 17  1  0
 17 18  2  0
 18 19  1  0
 18 20  1  0
 20 21  2  0
 13  8  1  0
 21 15  1  0
  3 22  1  0
  3 23  1  0
  5 24  1  0
  6 25  1  0
  9 26  1  0
 10 27  1  0
 11 28  1  0
 12 29  1  0
 13 30  1  0
 16 31  1  0
 17 32  1  0
 20 33  1  0
 21 34  1  0
M  CHG  3   4   1  13   1  14  -1
M  END
>  <UniqueID>  (4) 
4

>  <SMILES>  (4) 
O=C(C[S+](O)(O)=Nc1cccc[nH+]1)[N-]c1ccc(Br)cc1

>  <Energy>  (4) 
35.77665141100591

>  <Genealogy>  (4) 
O=C(C[S+](O)(O)=Nc1cccc[nH+]1)[N-]c1ccc(Br)cc1 (protonated)
O=C(C[S+](O)(O)=Nc1cccc[nH+]1)[N-]c1ccc(Br)cc1 (3D coordinates assigned)
O=C(C[S+](O)(O)=Nc1cccc[nH+]1)[N-]c1ccc(Br)cc1 (optimized conformer: 35.77665141100591 kcal/mol)

>  <smiles>  (4) 
O=C(C[S+]([O-])([O-])=Nc1ccccn1)Nc1ccc(Br)cc1

>  <score_type>  (4) 
oracle

>  <origin>  (4) 
adg

>  <m_score__min__energy>  (4) 
-5.6299999999999999

>  <m_primary>  (4) 
energy

$$$$
4:0
     RDKit          3D

 27 29  0  0  0  0  0  0  0  0999 V2000
   56.6650   28.9840   42.6300 C   0  0  0  0  0  0  0  0  0  0  0  0
   56.9020   30.1620   43.5140 C   0  0  0  0  0  0  0  0  0  0  0  0
   56.0560   30.5550   44.4850 N   0  0  0  0  0  0  0  0  0  0  0  0
   56.6450   31.5650   45.0560 O   0  0  0  0  0  0  0  0  0  0  0  0
   57.8060   31.7910   44.4870 C   0  0  0  0  0  0  0  0  0  0  0  0
   58.7260   32.9150   44.9010 C   0  0  1  0  0  0  0  0  0  0  0  0
   58.0220   34.2640   45.1940 C   0  0  0  0  0  0  0  0  0  0  0  0
   58.4020   34.6140   46.5850 N   0  0  0  0  0  0  0  0  0  0  0  0
   59.8450   34.9570   46.5790 C   0  0  0  0  0  0  0  0  0  0  0  0
   60.5890   33.6190   46.3850 C   0  0  0  0  0  0  0  0  0  0  0  0
   59.4150   32.6420   46.2510 C   0  0  1  0  0  0  0  0  0  0  0  0
   58.4450   33.2930   47.1990 C   0  0  0  0  0  0  0  0  0  0  0  0
   58.0190   30.9110   43.4890 N   0  0  0  0  0  0  0  0  0  0  0  0
   56.4855   28.0920   43.2481 H   0  0  0  0  0  0  0  0  0  0  0  0
   55.7869   29.1728   41.9950 H   0  0  0  0  0  0  0  0  0  0  0  0
   57.5479   28.8186   41.9950 H   0  0  0  0  0  0  0  0  0  0  0  0
   59.4007   32.9708   44.0340 H   0  0  0  0  0  0  0  0  0  0  0  0
   58.3684   35.0387   44.4941 H   0  0  0  0  0  0  0  0  0  0  0  0
   56.9310   34.1900   45.0747 H   0  0  0  0  0  0  0  0  0  0  0  0
   60.0724   35.6461   45.7523 H   0  0  0  0  0  0  0  0  0  0  0  0
   60.1477   35.4597   47.5094 H   0  0  0  0  0  0  0  0  0  0  0  0
   61.2093   33.6307   45.4767 H   0  0  0  0  0  0  0  0  0  0  0  0
   61.2919   33.3718   47.1943 H   0  0  0  0  0  0  0  0  0  0  0  0
   59.6914   31.5859   46.3857 H   0  0  0  0  0  0  0  0  0  0  0  0
   57.4620   32.7993   47.1909 H   0  0  0  0  0  0  0  0  0  0  0  0
   58.7246   33.2679   48.2626 H   0  0  0  0  0  0  0  0  0  0  0  0
   58.8380   30.8110   42.8510 H   0  0  0  0  0  0  0  0  0  0  0  0
  1  2  1  0
  2  3  2  0
  3  4  1  0
  4  5  1  0
  5  6  1  0
  6  7  1  0
  8  7  1  0
  8  9  1  0
  9 10  1  0
 10 11  1  0
 11 12  1  0
  5 13  2  0
 13  2  1  0
 11  6  1  0
 12  8  1  0
  1 14  1  0
  1 15  1  0
  1 16  1  0
  6 17  1  6
  7 18  1  0
  7 19  1  0
  9 20  1  0
  9 21  1  0
 10 22  1  0
 10 23  1  0
 11 24  1  1
 12 25  1  0
 12 26  1  0
 13 27  1  0
M  CHG  1  13   1
M  END
>  <UniqueID>  (5) 
5

>  <SMILES>  (5) 
Cc1noc([C@H]2C[N@]3CCC2C3)[nH+]1

>  <Energy>  (5) 
90.2840229916828

>  <Genealogy>  (5) 
Cc1noc(C2CN3CCC2C3)[nH+]1 (protonated)
Cc1noc([C@H]2C[N@]3CCC2C3)[nH+]1 (chirality)
Cc1noc([C@H]2C[N@]3CCC2C3)[nH+]1 (3D coordinates assigned)
Cc1noc([C@H]2C[N@]3CCC2C3)[nH+]1 (nonaromatic ring conformer: 90.2840229916828 kcal/mol)

>  <smiles>  (5) 
Cc1noc(C2CN3CCC2C3)n1

>  <score_type>  (5) 
oracle

>  <origin>  (5) 
adg

>  <m_score__min__energy>  (5) 
-5.0599999999999996

>  <m_primary>  (5) 
energy

$$$$
5:0
     RDKit          3D

 42 46  0  0  0  0  0  0  0  0999 V2000
   55.1860   29.7130   43.3700 C   0  0  0  0  0  0  0  0  0  0  0  0
   56.2600   30.1040   44.2710 N   0  0  0  0  0  0  0  0  0  0  0  0
   56.7260   31.3230   44.4860 N   0  0  0  0  0  0  0  0  0  0  0  0
   57.7270   31.3020   45.3900 C   0  0  0  0  0  0  0  0  0  0  0  0
   58.5180   32.4120   45.9150 C   0  0  0  0  0  0  0  0  0  0  0  0
   58.0620   33.7250   45.7910 C   0  0  0  0  0  0  0  0  0  0  0  0
   58.8030   34.7600   46.2820 C   0  0  0  0  0  0  0  0  0  0  0  0
   60.0140   34.5530   46.9090 C   0  0  0  0  0  0  0  0  0  0  0  0
   60.4900   33.2650   47.0460 C   0  0  0  0  0  0  0  0  0  0  0  0
   61.7640   32.9610   47.6980 C   0  0  0  0  0  0  0  0  0  0  0  0
   61.8120   31.9210   48.6070 C   0  0  0  0  0  0  0  0  0  0  0  0
   63.0270   31.6570   49.2070 C   0  0  0  0  0  0  0  0  0  0  0  0
   64.1690   32.3710   48.9430 C   0  0  0  0  0  0  0  0  0  0  0  0
   64.1220   33.4130   48.0320 C   0  0  0  0  0  0  0  0  0  0  0  0
   62.9170   33.6900   47.4230 C   0  0  0  0  0  0  0  0  0  0  0  0
   59.7250   32.2120   46.5400 C   0  0  0  0  0  0  0  0  0  0  0  0
   57.8860   29.9770   45.7540 C   0  0  0  0  0  0  0  0  0  0  0  0
   56.9590   29.2390   45.0430 C   0  0  0  0  0  0  0  0  0  0  0  0
   57.1040   27.9450   45.3890 N   0  0  0  0  0  0  0  0  0  0  0  0
   58.0800   27.8340   46.2850 N   0  0  0  0  0  0  0  0  0  0  0  0
   58.6300   26.8010   46.9500 C   0  0  0  0  0  0  0  0  0  0  0  0
   59.6630   26.9610   47.8530 C   0  0  0  0  0  0  0  0  0  0  0  0
   60.1480   28.2560   48.0730 C   0  0  0  0  0  0  0  0  0  0  0  0
   61.1110   28.3950   48.9150 N   0  0  0  0  0  0  0  0  0  0  0  0
   59.5880   29.2760   47.3990 N   0  0  0  0  0  0  0  0  0  0  0  0
   58.5860   29.0570   46.5350 C   0  0  0  0  0  0  0  0  0  0  0  0
   54.3121   29.3949   43.9575 H   0  0  0  0  0  0  0  0  0  0  0  0
   54.9098   30.5683   42.7358 H   0  0  0  0  0  0  0  0  0  0  0  0
   55.5243   28.8804   42.7358 H   0  0  0  0  0  0  0  0  0  0  0  0
   57.1009   33.9264   45.2952 H   0  0  0  0  0  0  0  0  0  0  0  0
   58.4245   35.7873   46.1750 H   0  0  0  0  0  0  0  0  0  0  0  0
   60.5935   35.4045   47.2952 H   0  0  0  0  0  0  0  0  0  0  0  0
   60.9170   31.3268   48.8432 H   0  0  0  0  0  0  0  0  0  0  0  0
   63.0826   30.8328   49.9333 H   0  0  0  0  0  0  0  0  0  0  0  0
   65.1120   32.1182   49.4498 H   0  0  0  0  0  0  0  0  0  0  0  0
   65.0212   34.0030   47.8009 H   0  0  0  0  0  0  0  0  0  0  0  0
   62.8650   34.5140   46.6961 H   0  0  0  0  0  0  0  0  0  0  0  0
   60.1028   31.1843   46.6458 H   0  0  0  0  0  0  0  0  0  0  0  0
   56.5270   27.1440   45.0040 H   0  0  0  0  0  0  0  0  0  0  0  0
   58.2411   25.7884   46.7670 H   0  0  0  0  0  0  0  0  0  0  0  0
   60.0915   26.0976   48.3830 H   0  0  0  0  0  0  0  0  0  0  0  0
   61.6200   29.2610   49.1360 H   0  0  0  0  0  0  0  0  0  0  0  0
  1  2  1  0
  2  3  1  0
  3  4  2  0
  4  5  1  0
  5  6  2  0
  6  7  1  0
  7  8  2  0
  8  9  1  0
  9 10  1  0
 10 11  2  0
 11 12  1  0
 12 13  2  0
 13 14  1  0
 14 15  2  0
  9 16  2  0
  4 17  1  0
 17 18  2  0
 18 19  1  0
 19 20  1  0
 20 21  1  0
 21 22  2  0
 22 23  1  0
 23 24  2  3
 23 25  1  0
 25 26  2  0
 18  2  1  0
 26 20  1  0
 16  5  1  0
 26 17  1  0
 15 10  1  0
  1 27  1  0
  1 28  1  0
  1 29  1  0
  6 30  1  0
  7 31  1  0
  8 32  1  0
 11 33  1  0
 12 34  1  0
 13 35  1  0
 14 36  1  0
 15 37  1  0
 16 38  1  0
 19 39  1  0
 21 40  1  0
 22 41  1  0
 24 42  1  0
M  END
>  <smiles>  (6) 
Cn1nc(-c2cccc(-c3ccccc3)c2)c2c1[nH]n1ccc(=N)nc21

>  <score_type>  (6) 
oracle

>  <origin>  (6) 
adg

>  <m_score__min__energy>  (6) 
-8.5500000000000007

>  <m_primary>  (6) 
energy

$$$$
6:0
     RDKit          3D

 57 61  0  0  0  0  0  0  0  0999 V2000
   59.6540   27.4200   47.6630 O   0  0  0  0  0  0  0  0  0  0  0  0
   59.8530   28.4290   48.3940 C   0  0  0  0  0  0  0  0  0  0  0  0
   59.4890   29.7300   47.9220 N   0  0  0  0  0  0  0  0  0  0  0  0
   59.9150   30.9650   48.6020 C   0  0  0  0  0  0  0  0  0  0  0  0
   61.2180   31.4820   47.9400 C   0  0  0  0  0  0  0  0  0  0  0  0
   60.9110   32.4030   46.7520 C   0  0  0  0  0  0  0  0  0  0  0  0
   60.1620   33.6250   47.1580 N   0  0  0  0  0  0  0  0  0  0  0  0
   59.3600   34.1670   46.0370 C   0  0  0  0  0  0  0  0  0  0  0  0
   57.8620   34.1920   46.3810 C   0  0  0  0  0  0  0  0  0  0  0  0
   57.0230   33.6440   45.2260 C   0  0  0  0  0  0  0  0  0  0  0  0
   58.0980   33.0290   43.8830 S   0  0  0  0  0  0  0  0  0  0  0  0
   57.8890   31.2960   44.2920 C   0  0  0  0  0  0  0  0  0  0  0  0
   56.7130   30.6280   43.9560 C   0  0  0  0  0  0  0  0  0  0  0  0
   56.5690   29.2870   44.3050 C   0  0  0  0  0  0  0  0  0  0  0  0
   57.6120   28.6330   44.9790 C   0  0  0  0  0  0  0  0  0  0  0  0
   57.5180   27.2050   45.3840 C   0  0  0  0  0  0  0  0  0  0  0  0
   58.5880   26.3100   45.1900 C   0  0  0  0  0  0  0  0  0  0  0  0
   58.4570   24.9770   45.5870 C   0  0  0  0  0  0  0  0  0  0  0  0
   57.3060   24.5440   46.1640 N   0  0  0  0  0  0  0  0  0  0  0  0
   56.2600   25.3840   46.3780 C   0  0  0  0  0  0  0  0  0  0  0  0
   56.3480   26.7260   45.9980 C   0  0  0  0  0  0  0  0  0  0  0  0
   58.7320   29.3450   45.2890 N   0  0  0  0  0  0  0  0  0  0  0  0
   58.8660   30.6310   44.9590 N   0  0  0  0  0  0  0  0  0  0  0  0
   59.3330   33.4410   48.3770 C   0  0  0  0  0  0  0  0  0  0  0  0
   58.7740   32.0140   48.4900 C   0  0  0  0  0  0  0  0  0  0  0  0
   60.1870   30.7080   50.0280 N   0  0  0  0  0  0  0  0  0  0  0  0
   60.5910   29.4230   50.5240 C   0  0  0  0  0  0  0  0  0  0  0  0
   61.1200   29.2930   51.8160 C   0  0  0  0  0  0  0  0  0  0  0  0
   61.4940   28.0710   52.2810 N   0  0  0  0  0  0  0  0  0  0  0  0
   61.3670   26.9500   51.5230 C   0  0  0  0  0  0  0  0  0  0  0  0
   60.8380   27.0310   50.2340 C   0  0  0  0  0  0  0  0  0  0  0  0
   60.4460   28.2810   49.7300 C   0  0  0  0  0  0  0  0  0  0  0  0
   59.0890   29.7970   46.9580 H   0  0  0  0  0  0  0  0  0  0  0  0
   61.8015   32.0415   48.6859 H   0  0  0  0  0  0  0  0  0  0  0  0
   61.7874   30.6164   47.5707 H   0  0  0  0  0  0  0  0  0  0  0  0
   61.8602   32.7087   46.2878 H   0  0  0  0  0  0  0  0  0  0  0  0
   60.2795   31.8417   46.0476 H   0  0  0  0  0  0  0  0  0  0  0  0
   59.6947   35.1921   45.8201 H   0  0  0  0  0  0  0  0  0  0  0  0
   59.5038   33.5165   45.1617 H   0  0  0  0  0  0  0  0  0  0  0  0
   57.6884   33.5755   47.2753 H   0  0  0  0  0  0  0  0  0  0  0  0
   57.5633   35.2343   46.5662 H   0  0  0  0  0  0  0  0  0  0  0  0
   56.3969   32.8180   45.5945 H   0  0  0  0  0  0  0  0  0  0  0  0
   56.3920   34.4541   44.8314 H   0  0  0  0  0  0  0  0  0  0  0  0
   55.9079   31.1534   43.4215 H   0  0  0  0  0  0  0  0  0  0  0  0
   55.6452   28.7450   44.0543 H   0  0  0  0  0  0  0  0  0  0  0  0
   59.5231   26.6592   44.7277 H   0  0  0  0  0  0  0  0  0  0  0  0
   59.2895   24.2750   45.4317 H   0  0  0  0  0  0  0  0  0  0  0  0
   55.3415   25.0070   46.8515 H   0  0  0  0  0  0  0  0  0  0  0  0
   55.5028   27.4064   46.1792 H   0  0  0  0  0  0  0  0  0  0  0  0
   59.9528   33.6496   49.2615 H   0  0  0  0  0  0  0  0  0  0  0  0
   58.4805   34.1331   48.3128 H   0  0  0  0  0  0  0  0  0  0  0  0
   58.1385   31.9485   49.3855 H   0  0  0  0  0  0  0  0  0  0  0  0
   58.1925   31.7972   47.5818 H   0  0  0  0  0  0  0  0  0  0  0  0
   60.2660   31.5300   50.6700 H   0  0  0  0  0  0  0  0  0  0  0  0
   61.2327   30.1814   52.4548 H   0  0  0  0  0  0  0  0  0  0  0  0
   61.6820   25.9764   51.9265 H   0  0  0  0  0  0  0  0  0  0  0  0
   60.7294   26.1250   49.6197 H   0  0  0  0  0  0  0  0  0  0  0  0
  1  2  2  0
  2  3  1  0
  3  4  1  0
  4  5  1  0
  5  6  1  0
  6  7  1  0
  7  8  1  0
  8  9  1  0
  9 10  1  0
 10 11  1  0
 11 12  1  0
 12 13  2  0
 13 14  1  0
 14 15  2  0
 15 16  1  0
 16 17  2  0
 17 18  1  0
 18 19  2  0
 19 20  1  0
 20 21  2  0
 15 22  1  0
 22 23  2  0
  7 24  1  0
 24 25  1  0
  4 26  1  0
 26 27  1  0
 27 28  2  0
 28 29  1  0
 29 30  2  0
 30 31  1  0
 31 32  2  0
 32  2  1  0
 25  4  1  0
 32 27  1  0
 23 12  1  0
 21 16  1  0
  3 33  1  0
  5 34  1  0
  5 35  1  0
  6 36  1  0
  6 37  1  0
  8 38  1  0
  8 39  1  0
  9 40  1  0
  9 41  1  0
 10 42  1  0
 10 43  1  0
 13 44  1  0
 14 45  1  0
 17 46  1  0
 18 47  1  0
 20 48  1  0
 21 49  1  0
 24 50  1  0
 24 51  1  0
 25 52  1  0
 25 53  1  0
 26 54  1  0
 28 55  1  0
 30 56  1  0
 31 57  1  0
M  END
>  <UniqueID>  (7) 
6

>  <SMILES>  (7) 
O=C1NC2(CCN(CCCSc3ccc(-c4ccncc4)nn3)CC2)Nc2cnccc21

>  <Energy>  (7) 
73.08987318790312

>  <Genealogy>  (7) 
O=C1NC2(CCN(CCCSc3ccc(-c4ccncc4)nn3)CC2)Nc2cnccc21 (3D coordinates assigned)
O=C1NC2(CCN(CCCSc3ccc(-c4ccncc4)nn3)CC2)Nc2cnccc21 (nonaromatic ring conformer: 73.08987318790312 kcal/mol)

>  <smiles>  (7) 
O=C1NC2(CCN(CCCSc3ccc(-c4ccncc4)nn3)CC2)Nc2cnccc21

>  <score_type>  (7) 
oracle

>  <origin>  (7) 
adg

>  <m_score__min__energy>  (7) 
-9.8599999999999994

>  <m_primary>  (7) 
energy

$$$$
7:0
     RDKit          3D

 42 43  0  0  0  0  0  0  0  0999 V2000
   62.8650   33.8300   48.1820 C   0  0  0  0  0  0  0  0  0  0  0  0
   61.5220   34.1530   48.5310 O   0  0  0  0  0  0  0  0  0  0  0  0
   60.4180   33.9640   47.6870 C   0  0  0  0  0  0  0  0  0  0  0  0
   60.4630   34.2460   46.3080 C   0  0  0  0  0  0  0  0  0  0  0  0
   59.3340   34.0420   45.5090 C   0  0  0  0  0  0  0  0  0  0  0  0
   58.1430   33.5650   46.0750 C   0  0  0  0  0  0  0  0  0  0  0  0
   56.9410   33.3100   45.2110 C   0  0  0  0  0  0  0  0  0  0  0  0
   56.7740   31.8740   45.0300 N   0  0  0  0  0  0  0  0  0  0  0  0
   57.0400   31.1700   43.8100 C   0  0  0  0  0  0  0  0  0  0  0  0
   57.8480   31.6680   42.9840 O   0  0  0  0  0  0  0  0  0  0  0  0
   56.4250   29.8300   43.5120 C   0  0  0  0  0  0  0  0  0  0  0  0
   57.4130   28.7030   43.8240 C   0  0  0  0  0  0  0  0  0  0  0  0
   57.9530   28.8520   45.2150 C   0  0  0  0  0  0  0  0  0  0  0  0
   57.7020   27.9640   46.0730 O   0  0  0  0  0  0  0  0  0  0  0  0
   58.7470   30.0000   45.5560 N   0  0  0  0  0  0  0  0  0  0  0  0
   59.5040   30.1230   46.7720 C   0  0  0  0  0  0  0  0  0  0  0  0
   58.8920   29.8200   47.9990 C   0  0  0  0  0  0  0  0  0  0  0  0
   59.6000   29.9560   49.1960 C   0  0  0  0  0  0  0  0  0  0  0  0
   60.9210   30.4090   49.1810 C   0  0  0  0  0  0  0  0  0  0  0  0
   61.5330   30.7370   47.9680 C   0  0  0  0  0  0  0  0  0  0  0  0
   60.8280   30.6020   46.7670 C   0  0  0  0  0  0  0  0  0  0  0  0
   58.1020   33.2680   47.4460 C   0  0  0  0  0  0  0  0  0  0  0  0
   59.2310   33.4730   48.2440 C   0  0  0  0  0  0  0  0  0  0  0  0
   63.4576   33.6875   49.0977 H   0  0  0  0  0  0  0  0  0  0  0  0
   62.8771   32.9033   47.5894 H   0  0  0  0  0  0  0  0  0  0  0  0
   63.2972   34.6498   47.5894 H   0  0  0  0  0  0  0  0  0  0  0  0
   61.3907   34.6285   45.8574 H   0  0  0  0  0  0  0  0  0  0  0  0
   59.3802   34.2567   44.4311 H   0  0  0  0  0  0  0  0  0  0  0  0
   56.0453   33.7259   45.6955 H   0  0  0  0  0  0  0  0  0  0  0  0
   57.0824   33.7908   44.2318 H   0  0  0  0  0  0  0  0  0  0  0  0
   55.5230   29.7010   44.1282 H   0  0  0  0  0  0  0  0  0  0  0  0
   56.1650   29.7885   42.4440 H   0  0  0  0  0  0  0  0  0  0  0  0
   56.8980   27.7349   43.7368 H   0  0  0  0  0  0  0  0  0  0  0  0
   58.2480   28.7523   43.1097 H   0  0  0  0  0  0  0  0  0  0  0  0
   58.7090   30.8250   44.9160 H   0  0  0  0  0  0  0  0  0  0  0  0
   57.8482   29.4733   48.0180 H   0  0  0  0  0  0  0  0  0  0  0  0
   59.1161   29.7059   50.1517 H   0  0  0  0  0  0  0  0  0  0  0  0
   61.4796   30.5076   50.1235 H   0  0  0  0  0  0  0  0  0  0  0  0
   62.5707   31.1019   47.9575 H   0  0  0  0  0  0  0  0  0  0  0  0
   61.3099   30.8711   45.8155 H   0  0  0  0  0  0  0  0  0  0  0  0
   57.1784   32.8726   47.8940 H   0  0  0  0  0  0  0  0  0  0  0  0
   59.1866   33.2465   49.3195 H   0  0  0  0  0  0  0  0  0  0  0  0
  1  2  1  0
  2  3  1  0
  3  4  2  0
  4  5  1  0
  5  6  2  0
  6  7  1  0
  7  8  1  0
  8  9  1  0
  9 10  2  0
  9 11  1  0
 11 12  1  0
 12 13  1  0
 13 14  2  0
 13 15  1  0
 15 16  1  0
 16 17  2  0
 17 18  1  0
 18 19  2  0
 19 20  1  0
 20 21  2  0
  6 22  1  0
 22 23  2  0
 23  3  1  0
 21 16  1  0
  1 24  1  0
  1 25  1  0
  1 26  1  0
  4 27  1  0
  5 28  1  0
  7 29  1  0
  7 30  1  0
 11 31  1  0
 11 32  1  0
 12 33  1  0
 12 34  1  0
 15 35  1  0
 17 36  1  0
 18 37  1  0
 19 38  1  0
 20 39  1  0
 21 40  1  0
 22 41  1  0
 23 42  1  0
M  CHG  1   8  -1
M  END
>  <UniqueID>  (8) 
7

>  <SMILES>  (8) 
COc1ccc(C[N-]C(=O)CCC(=O)Nc2ccccc2)cc1

>  <Energy>  (8) 
37.84722727895742

>  <Genealogy>  (8) 
COc1ccc(C[N-]C(=O)CCC(=O)Nc2ccccc2)cc1 (protonated)
COc1ccc(C[N-]C(=O)CCC(=O)Nc2ccccc2)cc1 (3D coordinates assigned)
COc1ccc(C[N-]C(=O)CCC(=O)Nc2ccccc2)cc1 (optimized conformer: 37.84722727895742 kcal/mol)

>  <smiles>  (8) 
COc1ccc(CNC(=O)CCC(=O)Nc2ccccc2)cc1

>  <score_type>  (8) 
oracle

>  <origin>  (8) 
adg

>  <m_score__min__energy>  (8) 
-9.4800000000000004

>  <m_primary>  (8) 
energy

$$$$
8:0
     RDKit          3D

 48 49  0  0  0  0  0  0  0  0999 V2000
   60.3530   30.1570   46.4600 C   0  0  0  0  0  0  0  0  0  0  0  0
   60.3860   29.2400   45.2400 C   0  0  0  0  0  0  0  0  0  0  0  0
   59.6410   27.9770   45.5020 N   0  0  0  0  0  0  0  0  0  0  0  0
   59.6480   27.6850   46.9630 C   0  0  0  0  0  0  0  0  0  0  0  0
   60.3980   26.3830   47.2370 C   0  0  0  0  0  0  0  0  0  0  0  0
   58.2640   28.0250   44.9200 C   0  0  2  0  0  0  0  0  0  0  0  0
   57.1980   28.6260   45.8800 C   0  0  0  0  0  0  0  0  0  0  0  0
   55.8810   28.7010   45.2530 N   0  0  0  0  0  0  0  0  0  0  0  0
   55.5480   29.5600   44.1580 C   0  0  0  0  0  0  0  0  0  0  0  0
   54.4680   29.3940   43.5340 O   0  0  0  0  0  0  0  0  0  0  0  0
   56.4650   30.6510   43.7710 C   0  0  0  0  0  0  0  0  0  0  0  0
   56.7930   30.8610   42.4210 C   0  0  0  0  0  0  0  0  0  0  0  0
   57.6630   31.8920   42.0580 C   0  0  0  0  0  0  0  0  0  0  0  0
   58.2190   32.7200   43.0350 C   0  0  0  0  0  0  0  0  0  0  0  0
   57.8970   32.5300   44.3850 C   0  0  0  0  0  0  0  0  0  0  0  0
   58.6100   33.5720   45.6150 S   0  0  0  0  0  0  0  0  0  0  0  0
   57.6840   33.4180   47.1290 C   0  0  0  0  0  0  0  0  0  0  0  0
   60.0380   33.1690   45.8530 O   0  0  0  0  0  0  0  0  0  0  0  0
   58.5790   35.0010   45.1630 O   0  0  0  0  0  0  0  0  0  0  0  0
   57.0250   31.4950   44.7510 C   0  0  0  0  0  0  0  0  0  0  0  0
   57.7810   26.6470   44.5160 C   0  0  0  0  0  0  0  0  0  0  0  0
   57.3770   25.6470   45.3950 C   0  0  0  0  0  0  0  0  0  0  0  0
   57.0770   24.4380   44.7580 C   0  0  0  0  0  0  0  0  0  0  0  0
   57.2560   24.4690   43.3800 C   0  0  0  0  0  0  0  0  0  0  0  0
   57.7710   26.0090   42.9480 S   0  0  0  0  0  0  0  0  0  0  0  0
   60.3749   29.5490   47.3764 H   0  0  0  0  0  0  0  0  0  0  0  0
   61.2277   30.8237   46.4413 H   0  0  0  0  0  0  0  0  0  0  0  0
   59.4326   30.7591   46.4413 H   0  0  0  0  0  0  0  0  0  0  0  0
   59.9250   29.7593   44.3869 H   0  0  0  0  0  0  0  0  0  0  0  0
   61.4338   28.9895   45.0178 H   0  0  0  0  0  0  0  0  0  0  0  0
   60.1444   28.5094   47.4959 H   0  0  0  0  0  0  0  0  0  0  0  0
   58.6104   27.5822   47.3135 H   0  0  0  0  0  0  0  0  0  0  0  0
   60.4852   26.2316   48.3230 H   0  0  0  0  0  0  0  0  0  0  0  0
   59.8462   25.5415   46.7926 H   0  0  0  0  0  0  0  0  0  0  0  0
   61.4027   26.4381   46.7926 H   0  0  0  0  0  0  0  0  0  0  0  0
   58.3630   28.6827   44.0438 H   0  0  0  0  0  0  0  0  0  0  0  0
   57.1294   27.9925   46.7766 H   0  0  0  0  0  0  0  0  0  0  0  0
   57.5107   29.6482   46.1396 H   0  0  0  0  0  0  0  0  0  0  0  0
   56.3624   30.2101   41.6458 H   0  0  0  0  0  0  0  0  0  0  0  0
   57.9109   32.0521   40.9983 H   0  0  0  0  0  0  0  0  0  0  0  0
   58.9116   33.5235   42.7440 H   0  0  0  0  0  0  0  0  0  0  0  0
   58.3629   33.5309   47.9871 H   0  0  0  0  0  0  0  0  0  0  0  0
   56.9113   34.2000   47.1674 H   0  0  0  0  0  0  0  0  0  0  0  0
   57.2060   32.4280   47.1674 H   0  0  0  0  0  0  0  0  0  0  0  0
   56.7760   31.3405   45.8112 H   0  0  0  0  0  0  0  0  0  0  0  0
   57.3010   25.7925   46.4827 H   0  0  0  0  0  0  0  0  0  0  0  0
   56.7311   23.5445   45.2984 H   0  0  0  0  0  0  0  0  0  0  0  0
   57.0890   23.6288   42.6900 H   0  0  0  0  0  0  0  0  0  0  0  0
  1  2  1  0
  2  3  1  0
  3  4  1  0
  4  5  1  0
  3  6  1  0
  6  7  1  0
  7  8  1  0
  8  9  1  0
  9 10  2  0
  9 11  1  0
 11 12  2  0
 12 13  1  0
 13 14  2  0
 14 15  1  0
 15 16  1  0
 16 17  1  0
 16 18  2  0
 16 19  2  0
 15 20  2  0
  6 21  1  0
 21 22  2  0
 22 23  1  0
 23 24  2  0
 24 25  1  0
 20 11  1  0
 25 21  1  0
  1 26  1  0
  1 27  1  0
  1 28  1  0
  2 29  1  0
  2 30  1  0
  4 31  1  0
  4 32  1  0
  5 33  1  0
  5 34  1  0
  5 35  1  0
  6 36  1  6
  7 37  1  0
  7 38  1  0
 12 39  1  0
 13 40  1  0
 14 41  1  0
 17 42  1  0
 17 43  1  0
 17 44  1  0
 20 45  1  0
 22 46  1  0
 23 47  1  0
 24 48  1  0
M  CHG  1   8  -1
M  END
>  <UniqueID>  (9) 
8

>  <SMILES>  (9) 
CCN(CC)[C@H](C[N-]C(=O)c1cccc(S(C)(=O)=O)c1)c1cccs1

>  <Energy>  (9) 
75.33955338093655

>  <Genealogy>  (9) 
CCN(CC)C(C[N-]C(=O)c1cccc(S(C)(=O)=O)c1)c1cccs1 (protonated)
CCN(CC)[C@H](C[N-]C(=O)c1cccc(S(C)(=O)=O)c1)c1cccs1 (chirality)
CCN(CC)[C@H](C[N-]C(=O)c1cccc(S(C)(=O)=O)c1)c1cccs1 (3D coordinates assigned)
CCN(CC)[C@H](C[N-]C(=O)c1cccc(S(C)(=O)=O)c1)c1cccs1 (optimized conformer: 75.33955338093655 kcal/mol)

>  <smiles>  (9) 
CCN(CC)C(CNC(=O)c1cccc(S(C)(=O)=O)c1)c1cccs1

>  <score_type>  (9) 
oracle

>  <origin>  (9) 
adg

>  <m_score__min__energy>  (9) 
-9.7300000000000004

>  <m_primary>  (9) 
energy

$$$$
9:0
     RDKit          3D

 45 49  0  0  1  0  0  0  0  0999 V2000
   61.7580   33.8080   51.1080 C   0  0  0  0  0  0  0  0  0  0  0  0
   62.3870   33.6260   49.7940 C   0  0  0  0  0  0  0  0  0  0  0  0
   63.7730   33.4590   49.6910 C   0  0  0  0  0  0  0  0  0  0  0  0
   64.2510   33.2970   48.4100 C   0  0  0  0  0  0  0  0  0  0  0  0
   63.4710   33.2920   47.2850 C   0  0  0  0  0  0  0  0  0  0  0  0
   62.0670   33.4600   47.3870 C   0  0  0  0  0  0  0  0  0  0  0  0
   61.1850   33.4760   46.3750 C   0  0  0  0  0  0  0  0  0  0  0  0
   59.8540   33.6560   46.7000 C   0  0  0  0  0  0  0  0  0  0  0  0
   58.6390   33.7190   45.8660 C   0  0  0  0  0  0  0  0  0  0  0  0
   58.0030   32.4610   45.7420 O   0  0  0  0  0  0  0  0  0  0  0  0
   57.6750   32.0380   44.4470 C   0  0  0  0  0  0  0  0  0  0  0  0
   58.0020   32.7700   43.3250 C   0  0  0  0  0  0  0  0  0  0  0  0
   57.6900   32.3730   42.0410 C   0  0  0  0  0  0  0  0  0  0  0  0
   58.0110   33.0920   40.9420 F   0  0  0  0  0  0  0  0  0  0  0  0
   57.0150   31.1840   41.8600 C   0  0  0  0  0  0  0  0  0  0  0  0
   56.6710   30.4270   42.9740 C   0  0  0  0  0  0  0  0  0  0  0  0
   56.9890   30.8340   44.2560 C   0  0  0  0  0  0  0  0  0  0  0  0
   56.6530   30.0810   45.4170 N   0  0  0  0  0  0  0  0  0  0  0  0
   57.2740   28.9880   45.7510 C   0  0  0  0  0  0  0  0  0  0  0  0
   56.7820   27.8500   45.2780 N   0  0  0  0  0  0  0  0  0  0  0  0
   57.3320   26.6700   45.5540 C   0  0  0  0  0  0  0  0  0  0  0  0
   58.4060   26.6210   46.3230 N   0  0  0  0  0  0  0  0  0  0  0  0
   58.9360   27.7300   46.8210 C   0  0  0  0  0  0  0  0  0  0  0  0
   60.3790   28.0430   47.8950 S   0  0  0  0  0  0  0  0  0  0  0  0
   60.1470   29.9090   47.9220 C   0  0  0  0  0  0  0  0  0  0  0  0
   59.0110   30.0760   47.1190 C   0  0  0  0  0  0  0  0  0  0  0  0
   58.4080   29.0480   46.5770 C   0  0  0  0  0  0  0  0  0  0  0  0
   59.8570   33.8080   48.5330 S   0  0  0  0  0  0  0  0  0  0  0  0
   61.6100   33.6190   48.6560 C   0  0  0  0  0  0  0  0  0  0  0  0
   62.4926   33.5955   51.8987 H   0  0  0  0  0  0  0  0  0  0  0  0
   61.4047   34.8452   51.2049 H   0  0  0  0  0  0  0  0  0  0  0  0
   60.9054   33.1197   51.2049 H   0  0  0  0  0  0  0  0  0  0  0  0
   64.4332   33.4573   50.5708 H   0  0  0  0  0  0  0  0  0  0  0  0
   65.3351   33.1622   48.2816 H   0  0  0  0  0  0  0  0  0  0  0  0
   63.9358   33.1570   46.2972 H   0  0  0  0  0  0  0  0  0  0  0  0
   61.5082   33.3511   45.3310 H   0  0  0  0  0  0  0  0  0  0  0  0
   57.9332   34.4279   46.3234 H   0  0  0  0  0  0  0  0  0  0  0  0
   58.9404   34.0427   44.8588 H   0  0  0  0  0  0  0  0  0  0  0  0
   58.5396   33.7200   43.4608 H   0  0  0  0  0  0  0  0  0  0  0  0
   56.7526   30.8397   40.8488 H   0  0  0  0  0  0  0  0  0  0  0  0
   56.1315   29.4791   42.8315 H   0  0  0  0  0  0  0  0  0  0  0  0
   56.8975   25.7453   45.1465 H   0  0  0  0  0  0  0  0  0  0  0  0
   58.8560   25.7170   46.5550 H   0  0  0  0  0  0  0  0  0  0  0  0
   60.7486   30.6731   48.4361 H   0  0  0  0  0  0  0  0  0  0  0  0
   58.6190   31.0882   46.9409 H   0  0  0  0  0  0  0  0  0  0  0  0
  1  2  1  0
  2  3  2  0
  3  4  1  0
  4  5  2  0
  5  6  1  0
  6  7  1  0
  7  8  2  0
  8  9  1  0
  9 10  1  0
 10 11  1  0
 11 12  2  0
 12 13  1  0
 13 14  1  0
 13 15  2  0
 15 16  1  0
 16 17  2  0
 17 18  1  0
 18 19  2  0
 19 20  1  0
 20 21  2  0
 21 22  1  0
 22 23  1  0
 23 24  1  0
 24 25  1  0
 25 26  2  0
 26 27  1  0
  8 28  1  0
 28 29  1  0
 29  2  1  0
 29  6  2  0
 17 11  1  0
 27 19  1  0
 27 23  2  0
  1 30  1  0
  1 31  1  0
  1 32  1  0
  3 33  1  0
  4 34  1  0
  5 35  1  0
  7 36  1  0
  9 37  1  0
  9 38  1  0
 12 39  1  0
 15 40  1  0
 16 41  1  0
 21 42  1  0
 22 43  1  0
 25 44  1  0
 26 45  1  0
M  END
>  <smiles>  (10) 
Cc1cccc2cc(COc3cc(F)ccc3N=c3nc[nH]c4sccc34)sc12

>  <score_type>  (10) 
oracle

>  <origin>  (10) 
adg

>  <m_score__min__energy>  (10) 
-8.6999999999999993

>  <m_primary>  (10) 
energy

$$$$
10:0
     RDKit          3D

 30 31  0  0  0  0  0  0  0  0999 V2000
   58.9640   27.7900   45.8330 C   0  0  0  0  0  0  0  0  0  0  0  0
   57.8530   28.5920   45.2140 C   0  0  0  0  0  0  0  0  0  0  0  0
   56.5140   28.2400   45.4400 C   0  0  0  0  0  0  0  0  0  0  0  0
   55.5120   28.9590   44.8730 N   0  0  0  0  0  0  0  0  0  0  0  0
   55.7600   30.0310   44.0760 C   0  0  0  0  0  0  0  0  0  0  0  0
   57.0780   30.4310   43.8150 C   0  0  0  0  0  0  0  0  0  0  0  0
   57.3440   31.6110   42.9040 C   0  0  0  0  0  0  0  0  0  0  0  0
   58.2040   32.6220   43.5440 N   0  0  0  0  0  0  0  0  0  0  0  0
   57.4560   33.4580   44.4960 C   0  0  0  0  0  0  0  0  0  0  0  0
   58.3020   33.7700   45.6970 C   0  0  0  0  0  0  0  0  0  0  0  0
   59.2760   34.7810   45.7100 C   0  0  0  0  0  0  0  0  0  0  0  0
   59.9010   34.9320   46.9390 C   0  0  0  0  0  0  0  0  0  0  0  0
   59.2300   33.8210   48.0060 S   0  0  0  0  0  0  0  0  0  0  0  0
   58.1430   33.1350   46.9240 C   0  0  0  0  0  0  0  0  0  0  0  0
   58.1340   29.6960   44.3900 C   0  0  0  0  0  0  0  0  0  0  0  0
   59.3310   30.0280   44.1680 O   0  0  0  0  0  0  0  0  0  0  0  0
   58.8887   27.8443   46.9291 H   0  0  0  0  0  0  0  0  0  0  0  0
   58.8823   26.7412   45.5114 H   0  0  0  0  0  0  0  0  0  0  0  0
   59.9337   28.1977   45.5114 H   0  0  0  0  0  0  0  0  0  0  0  0
   56.2750   27.3775   46.0795 H   0  0  0  0  0  0  0  0  0  0  0  0
   54.9216   30.5884   43.6329 H   0  0  0  0  0  0  0  0  0  0  0  0
   57.8402   31.2497   41.9912 H   0  0  0  0  0  0  0  0  0  0  0  0
   56.3786   32.0848   42.6724 H   0  0  0  0  0  0  0  0  0  0  0  0
   58.9630   32.1170   44.0600 H   0  0  0  0  0  0  0  0  0  0  0  0
   58.6500   33.2260   42.8150 H   0  0  0  0  0  0  0  0  0  0  0  0
   57.1661   34.3977   44.0030 H   0  0  0  0  0  0  0  0  0  0  0  0
   56.5599   32.9105   44.8236 H   0  0  0  0  0  0  0  0  0  0  0  0
   59.5200   35.3944   44.8301 H   0  0  0  0  0  0  0  0  0  0  0  0
   60.6973   35.6535   47.1742 H   0  0  0  0  0  0  0  0  0  0  0  0
   57.4313   32.3264   47.1468 H   0  0  0  0  0  0  0  0  0  0  0  0
  1  2  1  0
  2  3  2  0
  3  4  1  0
  4  5  1  0
  5  6  2  0
  6  7  1  0
  7  8  1  0
  8  9  1  0
  9 10  1  0
 10 11  1  0
 11 12  2  0
 12 13  1  0
 13 14  1  0
  6 15  1  0
 15 16  2  0
 15  2  1  0
 14 10  2  0
  1 17  1  0
  1 18  1  0
  1 19  1  0
  3 20  1  0
  5 21  1  0
  7 22  1  0
  7 23  1  0
  8 24  1  0
  8 25  1  0
  9 26  1  0
  9 27  1  0
 11 28  1  0
 12 29  1  0
 14 30  1  0
M  CHG  2   4  -1   8   1
M  END
>  <UniqueID>  (11) 
9

>  <SMILES>  (11) 
Cc1c[n-]cc(C[NH2+]Cc2ccsc2)c1=O

>  <Energy>  (11) 
56.25709043644356

>  <Genealogy>  (11) 
Cc1c[n-]cc(C[NH2+]Cc2ccsc2)c1=O (protonated)
Cc1c[n-]cc(C[NH2+]Cc2ccsc2)c1=O (3D coordinates assigned)
Cc1c[n-]cc(C[NH2+]Cc2ccsc2)c1=O (optimized conformer: 56.25709043644356 kcal/mol)

>  <smiles>  (11) 
Cc1c[nH]cc(CNCc2ccsc2)c1=O

>  <score_type>  (11) 
oracle

>  <origin>  (11) 
adg

>  <m_score__min__energy>  (11) 
-6.3200000000000003

>  <m_primary>  (11) 
energy

$$$$
11:0
     RDKit          3D

 44 47  0  0  0  0  0  0  0  0999 V2000
   56.8955   26.4557   47.4147 H   0  0  0  0  0  0  0  0  0  0  0  0
   57.0130   26.5880   46.3290 C   0  0  0  0  0  0  0  0  0  0  0  0
   57.5530   27.7440   45.9100 C   0  0  0  0  0  0  0  0  0  0  0  0
   56.9210   28.7850   44.5920 S   0  0  0  0  0  0  0  0  0  0  0  0
   57.8020   30.1390   45.3650 C   0  0  0  0  0  0  0  0  0  0  0  0
   57.3470   31.3530   45.2540 N   0  0  0  0  0  0  0  0  0  0  0  0
   58.0320   32.5630   45.6010 C   0  0  0  0  0  0  0  0  0  0  0  0
   58.0540   33.0310   46.9250 C   0  0  0  0  0  0  0  0  0  0  0  0
   57.5765   32.4429   47.7226 H   0  0  0  0  0  0  0  0  0  0  0  0
   58.6810   34.2420   47.2320 C   0  0  0  0  0  0  0  0  0  0  0  0
   58.7084   34.5980   48.2724 H   0  0  0  0  0  0  0  0  0  0  0  0
   59.2730   35.0010   46.2190 C   0  0  0  0  0  0  0  0  0  0  0  0
   59.7755   35.9485   46.4632 H   0  0  0  0  0  0  0  0  0  0  0  0
   59.2260   34.5550   44.8950 C   0  0  0  0  0  0  0  0  0  0  0  0
   59.6852   35.1559   44.0962 H   0  0  0  0  0  0  0  0  0  0  0  0
   58.5960   33.3460   44.5850 C   0  0  0  0  0  0  0  0  0  0  0  0
   58.5429   33.0082   43.5395 H   0  0  0  0  0  0  0  0  0  0  0  0
   58.8730   29.7610   46.2440 N   0  0  0  0  0  0  0  0  0  0  0  0
   60.2180   30.3380   46.0820 C   0  0  0  0  0  0  0  0  0  0  0  0
   60.9384   29.5190   45.9397 H   0  0  0  0  0  0  0  0  0  0  0  0
   60.1912   31.0090   45.2108 H   0  0  0  0  0  0  0  0  0  0  0  0
   60.6440   31.1550   47.2770 C   0  0  0  0  0  0  0  0  0  0  0  0
   60.1130   30.8980   48.5510 C   0  0  0  0  0  0  0  0  0  0  0  0
   59.3696   30.0982   48.6841 H   0  0  0  0  0  0  0  0  0  0  0  0
   60.5150   31.6350   49.6210 N   0  0  0  0  0  0  0  0  0  0  0  0
   61.4320   32.6300   49.5010 C   0  0  0  0  0  0  0  0  0  0  0  0
   61.7364   33.2067   50.3869 H   0  0  0  0  0  0  0  0  0  0  0  0
   61.9880   32.9210   48.2550 C   0  0  0  0  0  0  0  0  0  0  0  0
   62.7307   33.7259   48.1522 H   0  0  0  0  0  0  0  0  0  0  0  0
   61.5920   32.1800   47.1400 C   0  0  0  0  0  0  0  0  0  0  0  0
   62.0239   32.4002   46.1526 H   0  0  0  0  0  0  0  0  0  0  0  0
   58.6690   28.3920   46.5990 C   0  0  0  0  0  0  0  0  0  0  0  0
   59.3810   27.8000   47.4560 O   0  0  0  0  0  0  0  0  0  0  0  0
   56.5620   25.4770   45.4640 C   0  0  0  0  0  0  0  0  0  0  0  0
   57.4110   24.7150   44.2190 S   0  0  0  0  0  0  0  0  0  0  0  0
   56.2400   23.5580   43.8820 C   0  0  0  0  0  0  0  0  0  0  0  0
   56.3140   22.5560   42.7790 C   0  0  0  0  0  0  0  0  0  0  0  0
   56.3887   21.5451   43.2063 H   0  0  0  0  0  0  0  0  0  0  0  0
   55.4082   22.6259   42.1587 H   0  0  0  0  0  0  0  0  0  0  0  0
   57.1997   22.7582   42.1587 H   0  0  0  0  0  0  0  0  0  0  0  0
   55.1600   23.7550   44.7310 C   0  0  0  0  0  0  0  0  0  0  0  0
   54.2478   23.1409   44.7032 H   0  0  0  0  0  0  0  0  0  0  0  0
   55.3490   24.8140   45.6260 C   0  0  0  0  0  0  0  0  0  0  0  0
   54.6072   25.0965   46.3875 H   0  0  0  0  0  0  0  0  0  0  0  0
  1  2  1  0
  2  3  2  0
  3  4  1  0
  4  5  1  0
  5  6  2  0
  6  7  1  0
  7  8  2  0
  8  9  1  0
  8 10  1  0
 10 11  1  0
 10 12  2  0
 12 13  1  0
 12 14  1  0
 14 15  1  0
 14 16  2  0
 16 17  1  0
  5 18  1  0
 18 19  1  0
 19 20  1  0
 19 21  1  0
 19 22  1  0
 22 23  2  0
 23 24  1  0
 23 25  1  0
 25 26  2  0
 26 27  1  0
 26 28  1  0
 28 29  1  0
 28 30  2  0
 30 31  1  0
 18 32  1  0
 32 33  2  0
  2 34  1  0
 34 35  1  0
 35 36  1  0
 36 37  1  0
 37 38  1  0
 37 39  1  0
 37 40  1  0
 36 41  2  0
 41 42  1  0
 41 43  1  0
 43 44  1  0
 32  3  1  0
 43 34  2  0
 16  7  1  0
 30 22  1  0
M  END
>  <UniqueID>  (12) 
10

>  <SMILES>  (12) 
Cc1ccc(/C=C2\S/C(=N/c3ccccc3)N(Cc3cccnc3)C2=O)s1

>  <Energy>  (12) 
108.76097133458605

>  <Genealogy>  (12) 
Cc1ccc(/C=C2\S/C(=N/c3ccccc3)N(Cc3cccnc3)C2=O)s1 (cis-trans isomerization)
Cc1ccc(/C=C2\S/C(=N/c3ccccc3)N(Cc3cccnc3)C2=O)s1 (3D coordinates assigned)
Cc1ccc(/C=C2\S/C(=N/c3ccccc3)N(Cc3cccnc3)C2=O)s1 (nonaromatic ring conformer: 108.76097133458605 kcal/mol)

>  <smiles>  (12) 
Cc1ccc(C=C2SC(=Nc3ccccc3)N(Cc3cccnc3)C2=O)s1

>  <score_type>  (12) 
oracle

>  <origin>  (12) 
adg

>  <m_score__min__energy>  (12) 
-8.3300000000000001

>  <m_primary>  (12) 
energy

$$$$
12:0
     RDKit          3D

 35 36  0  0  0  0  0  0  0  0999 V2000
   56.4500   30.4500   43.2920 C   0  0  0  0  0  0  0  0  0  0  0  0
   56.2970   31.1030   44.5480 O   0  0  0  0  0  0  0  0  0  0  0  0
   57.2860   31.8870   45.1670 C   0  0  0  0  0  0  0  0  0  0  0  0
   57.1740   33.2880   45.2490 C   0  0  0  0  0  0  0  0  0  0  0  0
   58.1580   34.0380   45.8880 C   0  0  0  0  0  0  0  0  0  0  0  0
   59.2690   33.4100   46.4500 C   0  0  0  0  0  0  0  0  0  0  0  0
   59.4110   32.0120   46.3740 C   0  0  0  0  0  0  0  0  0  0  0  0
   60.5320   31.3550   46.9090 O   0  0  0  0  0  0  0  0  0  0  0  0
   60.6500   30.9250   48.2610 C   0  0  0  0  0  0  0  0  0  0  0  0
   58.4120   31.2480   45.7300 C   0  0  0  0  0  0  0  0  0  0  0  0
   58.5460   29.7740   45.6470 C   0  0  0  0  0  0  0  0  0  0  0  0
   59.6450   29.1980   44.9890 C   0  0  0  0  0  0  0  0  0  0  0  0
   59.7660   27.8080   44.9050 C   0  0  0  0  0  0  0  0  0  0  0  0
   58.7970   26.9830   45.4790 C   0  0  0  0  0  0  0  0  0  0  0  0
   57.7010   27.5430   46.1530 C   0  0  0  0  0  0  0  0  0  0  0  0
   56.6360   26.6530   46.7420 C   0  0  0  0  0  0  0  0  0  0  0  0
   55.4060   26.7180   45.9580 N   0  0  0  0  0  0  0  0  0  0  0  0
   57.5730   28.9390   46.2230 C   0  0  0  0  0  0  0  0  0  0  0  0
   56.6981   29.3911   43.4571 H   0  0  0  0  0  0  0  0  0  0  0  0
   55.5106   30.5223   42.7243 H   0  0  0  0  0  0  0  0  0  0  0  0
   57.2595   30.9321   42.7243 H   0  0  0  0  0  0  0  0  0  0  0  0
   56.3035   33.7935   44.8054 H   0  0  0  0  0  0  0  0  0  0  0  0
   58.0584   35.1317   45.9498 H   0  0  0  0  0  0  0  0  0  0  0  0
   60.0390   34.0110   46.9558 H   0  0  0  0  0  0  0  0  0  0  0  0
   60.4198   31.7640   48.9340 H   0  0  0  0  0  0  0  0  0  0  0  0
   59.9446   30.1017   48.4468 H   0  0  0  0  0  0  0  0  0  0  0  0
   61.6768   30.5770   48.4468 H   0  0  0  0  0  0  0  0  0  0  0  0
   60.4134   29.8432   44.5381 H   0  0  0  0  0  0  0  0  0  0  0  0
   60.6272   27.3629   44.3851 H   0  0  0  0  0  0  0  0  0  0  0  0
   58.8930   25.8899   45.4026 H   0  0  0  0  0  0  0  0  0  0  0  0
   57.0006   25.6152   46.7535 H   0  0  0  0  0  0  0  0  0  0  0  0
   56.4183   26.9969   47.7639 H   0  0  0  0  0  0  0  0  0  0  0  0
   54.7820   27.4510   46.3690 H   0  0  0  0  0  0  0  0  0  0  0  0
   55.6430   27.0140   44.9820 H   0  0  0  0  0  0  0  0  0  0  0  0
   56.7049   29.3828   46.7323 H   0  0  0  0  0  0  0  0  0  0  0  0
  1  2  1  0
  2  3  1  0
  3  4  2  0
  4  5  1  0
  5  6  2  0
  6  7  1  0
  7  8  1  0
  8  9  1  0
  7 10  2  0
 10 11  1  0
 11 12  2  0
 12 13  1  0
 13 14  2  0
 14 15  1  0
 15 16  1  0
 16 17  1  0
 15 18  2  0
 10  3  1  0
 18 11  1  0
  1 19  1  0
  1 20  1  0
  1 21  1  0
  4 22  1  0
  5 23  1  0
  6 24  1  0
  9 25  1  0
  9 26  1  0
  9 27  1  0
 12 28  1  0
 13 29  1  0
 14 30  1  0
 16 31  1  0
 16 32  1  0
 17 33  1  0
 17 34  1  0
 18 35  1  0
M  END
>  <UniqueID>  (13) 
11

>  <SMILES>  (13) 
COc1cccc(OC)c1-c1cccc(CN)c1

>  <Energy>  (13) 
39.88548379424031

>  <Genealogy>  (13) 
COc1cccc(OC)c1-c1cccc(CN)c1 (3D coordinates assigned)
COc1cccc(OC)c1-c1cccc(CN)c1 (optimized conformer: 39.88548379424031 kcal/mol)

>  <smiles>  (13) 
COc1cccc(OC)c1-c1cccc(CN)c1

>  <score_type>  (13) 
oracle

>  <origin>  (13) 
adg

>  <m_score__min__energy>  (13) 
-6.6100000000000003

>  <m_primary>  (13) 
energy

$$$$
13:0
     RDKit          3D

 34 35  0  0  0  0  0  0  0  0999 V2000
   54.6140   30.1380   45.1930 H   0  0  0  0  0  0  0  0  0  0  0  0
   55.1230   29.4300   44.6240 N   0  0  0  0  0  0  0  0  0  0  0  0
   56.3860   29.1530   44.7260 C   0  0  0  0  0  0  0  0  0  0  0  0
   56.7690   28.2310   45.6500 N   0  0  0  0  0  0  0  0  0  0  0  0
   58.0720   27.8990   45.8350 C   0  0  0  0  0  0  0  0  0  0  0  0
   58.4380   26.9490   46.7950 C   0  0  0  0  0  0  0  0  0  0  0  0
   57.6673   26.4585   47.4077 H   0  0  0  0  0  0  0  0  0  0  0  0
   59.7880   26.6250   46.9730 C   0  0  0  0  0  0  0  0  0  0  0  0
   60.0781   25.8787   47.7272 H   0  0  0  0  0  0  0  0  0  0  0  0
   60.7700   27.2480   46.1940 C   0  0  0  0  0  0  0  0  0  0  0  0
   61.8296   26.9901   46.3377 H   0  0  0  0  0  0  0  0  0  0  0  0
   60.4070   28.1980   45.2330 C   0  0  0  0  0  0  0  0  0  0  0  0
   61.1796   28.6872   44.6216 H   0  0  0  0  0  0  0  0  0  0  0  0
   59.0580   28.5240   45.0520 C   0  0  0  0  0  0  0  0  0  0  0  0
   58.6860   29.4440   44.1260 N   0  0  0  0  0  0  0  0  0  0  0  0
   57.3810   29.7790   43.9250 C   0  0  0  0  0  0  0  0  0  0  0  0
   57.0840   30.8370   42.8860 C   0  0  0  0  0  0  0  0  0  0  0  0
   57.3112   30.4304   41.8895 H   0  0  0  0  0  0  0  0  0  0  0  0
   56.0215   31.1090   42.9707 H   0  0  0  0  0  0  0  0  0  0  0  0
   57.9180   32.1050   43.1060 C   0  0  0  0  0  0  0  0  0  0  0  0
   58.9315   31.9364   42.7132 H   0  0  0  0  0  0  0  0  0  0  0  0
   57.4215   32.9344   42.5810 H   0  0  0  0  0  0  0  0  0  0  0  0
   58.0130   32.4590   44.5270 C   0  0  0  0  0  0  0  0  0  0  0  0
   58.0840   32.7690   45.6900 C   0  0  0  0  0  0  0  0  0  0  0  0
   58.1650   33.1610   47.1030 C   0  0  0  0  0  0  0  0  0  0  0  0
   57.1463   33.2923   47.4968 H   0  0  0  0  0  0  0  0  0  0  0  0
   58.6970   32.3697   47.6515 H   0  0  0  0  0  0  0  0  0  0  0  0
   58.9400   34.4730   47.2770 C   0  0  0  0  0  0  0  0  0  0  0  0
   58.2440   35.2506   47.6246 H   0  0  0  0  0  0  0  0  0  0  0  0
   59.7425   34.2933   48.0075 H   0  0  0  0  0  0  0  0  0  0  0  0
   59.5920   34.9440   45.9760 C   0  0  0  0  0  0  0  0  0  0  0  0
   60.4634   35.5735   46.2095 H   0  0  0  0  0  0  0  0  0  0  0  0
   59.9167   34.0706   45.3914 H   0  0  0  0  0  0  0  0  0  0  0  0
   58.8648   35.5267   45.3914 H   0  0  0  0  0  0  0  0  0  0  0  0
  1  2  1  0
  2  3  2  0
  3  4  1  0
  4  5  1  0
  5  6  2  0
  6  7  1  0
  6  8  1  0
  8  9  1  0
  8 10  2  0
 10 11  1  0
 10 12  1  0
 12 13  1  0
 12 14  2  0
 14 15  1  0
 15 16  2  0
 16 17  1  0
 17 18  1  0
 17 19  1  0
 17 20  1  0
 20 21  1  0
 20 22  1  0
 20 23  1  0
 23 24  3  0
 24 25  1  0
 25 26  1  0
 25 27  1  0
 25 28  1  0
 28 29  1  0
 28 30  1  0
 28 31  1  0
 31 32  1  0
 31 33  1  0
 31 34  1  0
 16  3  1  0
 14  5  1  0
M  CHG  1   4  -1
M  END
>  <UniqueID>  (14) 
12

>  <SMILES>  (14) 
[H]/N=c1/[n-]c2ccccc2nc1CCC#CCCC

>  <Energy>  (14) 
27.576404885732405

>  <Genealogy>  (14) 
CCCC#CCCc1nc2ccccc2[n-]c1=N (protonated)
[H]/N=c1/[n-]c2ccccc2nc1CCC#CCCC (cis-trans isomerization)
[H]/N=c1/[n-]c2ccccc2nc1CCC#CCCC (3D coordinates assigned)
[H]/N=c1/[n-]c2ccccc2nc1CCC#CCCC (optimized conformer: 27.576404885732405 kcal/mol)

>  <smiles>  (14) 
CCCC#CCCc1nc2ccccc2[nH]c1=N

>  <score_type>  (14) 
oracle

>  <origin>  (14) 
adg

>  <m_score__min__energy>  (14) 
-8.6600000000000001

>  <m_primary>  (14) 
energy

$$$$
14:0
     RDKit          3D

 39 42  0  0  0  0  0  0  0  0999 V2000
   54.4700   27.0750   46.7520 H   0  0  0  0  0  0  0  0  0  0  0  0
   54.8210   26.3600   46.0760 N   0  0  0  0  0  0  0  0  0  0  0  0
   56.2180   26.1450   45.8980 C   0  0  0  0  0  0  0  0  0  0  0  0
   56.6420   24.9810   45.6710 O   0  0  0  0  0  0  0  0  0  0  0  0
   57.1530   27.2790   45.9780 C   0  0  0  0  0  0  0  0  0  0  0  0
   58.4250   27.2580   46.5520 C   0  0  0  0  0  0  0  0  0  0  0  0
   58.8867   26.3779   47.0236 H   0  0  0  0  0  0  0  0  0  0  0  0
   59.0110   28.4760   46.4460 N   0  0  0  0  0  0  0  0  0  0  0  0
   60.3190   28.8610   46.9790 C   0  0  0  0  0  0  0  0  0  0  0  0
   60.6798   28.0712   47.6544 H   0  0  0  0  0  0  0  0  0  0  0  0
   61.0163   28.9948   46.1389 H   0  0  0  0  0  0  0  0  0  0  0  0
   60.2270   30.1500   47.7360 C   0  0  0  0  0  0  0  0  0  0  0  0
   61.1840   31.5060   47.4620 S   0  0  0  0  0  0  0  0  0  0  0  0
   60.5410   32.4160   48.7190 C   0  0  0  0  0  0  0  0  0  0  0  0
   61.0450   34.0370   49.1440 Cl  0  0  0  0  0  0  0  0  0  0  0  0
   59.5690   31.6710   49.3700 C   0  0  0  0  0  0  0  0  0  0  0  0
   58.9962   32.0437   50.2319 H   0  0  0  0  0  0  0  0  0  0  0  0
   59.3910   30.3970   48.8190 C   0  0  0  0  0  0  0  0  0  0  0  0
   58.6643   29.6661   49.2033 H   0  0  0  0  0  0  0  0  0  0  0  0
   58.1110   29.2620   45.8290 C   0  0  0  0  0  0  0  0  0  0  0  0
   58.2690   30.5680   45.5090 N   0  0  0  0  0  0  0  0  0  0  0  0
   57.2540   31.2170   44.8610 C   0  0  0  0  0  0  0  0  0  0  0  0
   57.3810   32.4600   44.5040 N   0  0  0  0  0  0  0  0  0  0  0  0
   58.2000   33.4220   45.1830 C   0  0  0  0  0  0  0  0  0  0  0  0
   59.1050   34.2600   44.5660 C   0  0  0  0  0  0  0  0  0  0  0  0
   59.3589   34.3098   43.4969 H   0  0  0  0  0  0  0  0  0  0  0  0
   59.6210   35.0240   45.5980 C   0  0  0  0  0  0  0  0  0  0  0  0
   60.3922   35.8012   45.4922 H   0  0  0  0  0  0  0  0  0  0  0  0
   59.0280   34.6640   46.7530 N   0  0  0  0  0  0  0  0  0  0  0  0
   59.2110   35.0790   47.6930 H   0  0  0  0  0  0  0  0  0  0  0  0
   58.1520   33.7040   46.5030 N   0  0  0  0  0  0  0  0  0  0  0  0
   57.2890   33.1080   47.5190 C   0  0  0  0  0  0  0  0  0  0  0  0
   57.6661   33.3684   48.5190 H   0  0  0  0  0  0  0  0  0  0  0  0
   56.2650   33.4923   47.4017 H   0  0  0  0  0  0  0  0  0  0  0  0
   57.2858   32.0143   47.4017 H   0  0  0  0  0  0  0  0  0  0  0  0
   56.1060   30.5410   44.5410 N   0  0  0  0  0  0  0  0  0  0  0  0
   55.9360   29.2240   44.8610 C   0  0  0  0  0  0  0  0  0  0  0  0
   55.0072   28.6933   44.6047 H   0  0  0  0  0  0  0  0  0  0  0  0
   56.9740   28.5750   45.5210 C   0  0  0  0  0  0  0  0  0  0  0  0
  1  2  1  0
  2  3  1  0
  3  4  2  0
  3  5  1  0
  5  6  2  0
  6  7  1  0
  6  8  1  0
  8  9  1  0
  9 10  1  0
  9 11  1  0
  9 12  1  0
 12 13  1  0
 13 14  1  0
 14 15  1  0
 14 16  2  0
 16 17  1  0
 16 18  1  0
 18 19  1  0
  8 20  1  0
 20 21  2  0
 21 22  1  0
 22 23  2  0
 23 24  1  0
 24 25  2  0
 25 26  1  0
 25 27  1  0
 27 28  1  0
 27 29  2  0
 29 30  1  0
 29 31  1  0
 31 32  1  0
 32 33  1  0
 32 34  1  0
 32 35  1  0
 22 36  1  0
 36 37  1  0
 37 38  1  0
 37 39  2  0
 39  5  1  0
 18 12  2  0
 39 20  1  0
 31 24  1  0
M  CHG  3   2  -1  29   1  36  -1
M  END
>  <UniqueID>  (15) 
13

>  <SMILES>  (15) 
Cn1[nH+]ccc1/N=c1\nc2c(c[n-]1)c(C([NH-])=O)cn2Cc1ccc(Cl)s1

>  <Energy>  (15) 
138.76250169229021

>  <Genealogy>  (15) 
Cn1[nH+]ccc1N=c1nc2c(c[n-]1)c(C([NH-])=O)cn2Cc1ccc(Cl)s1 (protonated)
Cn1[nH+]ccc1/N=c1\nc2c(c[n-]1)c(C([NH-])=O)cn2Cc1ccc(Cl)s1 (cis-trans isomerization)
Cn1[nH+]ccc1/N=c1\nc2c(c[n-]1)c(C([NH-])=O)cn2Cc1ccc(Cl)s1 (3D coordinates assigned)
Cn1[nH+]ccc1/N=c1\nc2c(c[n-]1)c(C([NH-])=O)cn2Cc1ccc(Cl)s1 (optimized conformer: 138.76250169229021 kcal/mol)

>  <smiles>  (15) 
Cn1nccc1N=c1nc2c(c[nH]1)c(C(N)=O)cn2Cc1ccc(Cl)s1

>  <score_type>  (15) 
oracle

>  <origin>  (15) 
adg

>  <m_score__min__energy>  (15) 
-11.15

>  <m_primary>  (15) 
energy

$$$$
15:0
     RDKit          3D

 43 45  0  0  0  0  0  0  0  0999 V2000
   58.1430   26.7260   42.8880 C   0  0  0  0  0  0  0  0  0  0  0  0
   57.8850   27.5700   44.1300 C   0  0  0  0  0  0  0  0  0  0  0  0
   57.6500   28.9630   43.7600 N   0  0  0  0  0  0  0  0  0  0  0  0
   56.6270   29.4300   42.8280 C   0  0  0  0  0  0  0  0  0  0  0  0
   56.7320   30.9770   42.8300 C   0  0  0  0  0  0  0  0  0  0  0  0
   57.7660   31.3030   43.8060 N   0  0  0  0  0  0  0  0  0  0  0  0
   58.2020   32.6510   44.1610 C   0  0  0  0  0  0  0  0  0  0  0  0
   58.0970   32.8510   45.6420 C   0  0  0  0  0  0  0  0  0  0  0  0
   57.0270   33.3110   46.1240 O   0  0  0  0  0  0  0  0  0  0  0  0
   59.1750   32.4490   46.5020 N   0  0  0  0  0  0  0  0  0  0  0  0
   59.2210   32.7190   47.9140 C   0  0  0  0  0  0  0  0  0  0  0  0
   59.9380   33.8280   48.3760 C   0  0  0  0  0  0  0  0  0  0  0  0
   59.9920   34.1170   49.7400 C   0  0  0  0  0  0  0  0  0  0  0  0
   59.3180   33.3110   50.6710 C   0  0  0  0  0  0  0  0  0  0  0  0
   59.4510   33.6330   52.1350 C   0  0  0  0  0  0  0  0  0  0  0  0
   58.5320   32.2280   50.2070 C   0  0  0  0  0  0  0  0  0  0  0  0
   57.7630   31.4080   51.1010 N   0  0  0  0  0  0  0  0  0  0  0  0
   56.8130   31.7850   51.9750 C   0  0  0  0  0  0  0  0  0  0  0  0
   56.2680   30.6960   52.5490 N   0  0  0  0  0  0  0  0  0  0  0  0
   56.8930   29.6610   52.0020 N   0  0  0  0  0  0  0  0  0  0  0  0
   57.7860   30.0870   51.1220 N   0  0  0  0  0  0  0  0  0  0  0  0
   58.5050   31.9350   48.8340 C   0  0  0  0  0  0  0  0  0  0  0  0
   58.2790   30.0940   44.3240 C   0  0  0  0  0  0  0  0  0  0  0  0
   59.1860   30.0320   45.1950 O   0  0  0  0  0  0  0  0  0  0  0  0
   58.4522   25.7144   43.1898 H   0  0  0  0  0  0  0  0  0  0  0  0
   57.2226   26.6646   42.2887 H   0  0  0  0  0  0  0  0  0  0  0  0
   58.9404   27.1897   42.2887 H   0  0  0  0  0  0  0  0  0  0  0  0
   57.0005   27.1805   44.6554 H   0  0  0  0  0  0  0  0  0  0  0  0
   58.7672   27.5191   44.7851 H   0  0  0  0  0  0  0  0  0  0  0  0
   56.8174   29.0340   41.8196 H   0  0  0  0  0  0  0  0  0  0  0  0
   55.6232   29.0909   43.1238 H   0  0  0  0  0  0  0  0  0  0  0  0
   57.0173   31.3430   41.8327 H   0  0  0  0  0  0  0  0  0  0  0  0
   55.7712   31.4481   43.0849 H   0  0  0  0  0  0  0  0  0  0  0  0
   59.2474   32.7898   43.8480 H   0  0  0  0  0  0  0  0  0  0  0  0
   57.5591   33.3839   43.6516 H   0  0  0  0  0  0  0  0  0  0  0  0
   59.9220   31.8410   46.0970 H   0  0  0  0  0  0  0  0  0  0  0  0
   60.4627   34.4765   47.6590 H   0  0  0  0  0  0  0  0  0  0  0  0
   60.5690   34.9858   50.0896 H   0  0  0  0  0  0  0  0  0  0  0  0
   59.0982   32.7790   52.7318 H   0  0  0  0  0  0  0  0  0  0  0  0
   60.5061   33.8348   52.3717 H   0  0  0  0  0  0  0  0  0  0  0  0
   58.8459   34.5206   52.3717 H   0  0  0  0  0  0  0  0  0  0  0  0
   56.5250   32.8250   52.1884 H   0  0  0  0  0  0  0  0  0  0  0  0
   57.9149   31.0795   48.4737 H   0  0  0  0  0  0  0  0  0  0  0  0
  1  2  1  0
  2  3  1  0
  3  4  1  0
  4  5  1  0
  5  6  1  0
  6  7  1  0
  7  8  1  0
  8  9  2  0
  8 10  1  0
 10 11  1  0
 11 12  2  0
 12 13  1  0
 13 14  2  0
 14 15  1  0
 14 16  1  0
 16 17  1  0
 17 18  1  0
 18 19  2  0
 19 20  1  0
 20 21  2  0
 16 22  2  0
  6 23  1  0
 23 24  2  0
 23  3  1  0
 22 11  1  0
 21 17  1  0
  1 25  1  0
  1 26  1  0
  1 27  1  0
  2 28  1  0
  2 29  1  0
  4 30  1  0
  4 31  1  0
  5 32  1  0
  5 33  1  0
  7 34  1  0
  7 35  1  0
 10 36  1  0
 12 37  1  0
 13 38  1  0
 15 39  1  0
 15 40  1  0
 15 41  1  0
 18 42  1  0
 22 43  1  0
M  END
>  <UniqueID>  (16) 
14

>  <SMILES>  (16) 
CCN1CCN(CC(=O)Nc2ccc(C)c(-n3cnnn3)c2)C1=O

>  <Energy>  (16) 
98.34906327359849

>  <Genealogy>  (16) 
CCN1CCN(CC(=O)Nc2ccc(C)c(-n3cnnn3)c2)C1=O (3D coordinates assigned)
CCN1CCN(CC(=O)Nc2ccc(C)c(-n3cnnn3)c2)C1=O (nonaromatic ring conformer: 98.34906327359849 kcal/mol)

>  <smiles>  (16) 
CCN1CCN(CC(=O)Nc2ccc(C)c(-n3cnnn3)c2)C1=O

>  <score_type>  (16) 
oracle

>  <origin>  (16) 
adg

>  <m_score__min__energy>  (16) 
-8.2699999999999996

>  <m_primary>  (16) 
energy

$$$$
16:0
     RDKit          3D

 40 42  0  0  0  0  0  0  0  0999 V2000
   57.0040   29.3560   43.4000 C   0  0  0  0  0  0  0  0  0  0  0  0
   56.3030   29.0470   44.6790 C   0  0  0  0  0  0  0  0  0  0  0  0
   55.1360   29.4830   44.8730 O   0  0  0  0  0  0  0  0  0  0  0  0
   56.9430   28.2220   45.6570 N   0  0  0  0  0  0  0  0  0  0  0  0
   58.3330   27.7900   45.5640 C   0  0  0  0  0  0  0  0  0  0  0  0
   59.2750   28.9580   45.8440 C   0  0  0  0  0  0  0  0  0  0  0  0
   59.0070   29.5760   47.5380 S   0  0  0  0  0  0  0  0  0  0  0  0
   59.6480   31.2330   47.1620 C   0  0  0  0  0  0  0  0  0  0  0  0
   58.9300   32.0900   46.3010 C   0  0  0  0  0  0  0  0  0  0  0  0
   57.7090   31.6960   45.7060 C   0  0  0  0  0  0  0  0  0  0  0  0
   57.0130   32.5630   44.8630 C   0  0  0  0  0  0  0  0  0  0  0  0
   57.5160   33.8330   44.5960 C   0  0  0  0  0  0  0  0  0  0  0  0
   58.7190   34.2420   45.1690 C   0  0  0  0  0  0  0  0  0  0  0  0
   59.4370   33.3800   46.0250 C   0  0  0  0  0  0  0  0  0  0  0  0
   60.6510   33.7870   46.6060 C   0  0  0  0  0  0  0  0  0  0  0  0
   61.0950   34.9440   46.3520 O   0  0  0  0  0  0  0  0  0  0  0  0
   61.3510   32.9450   47.4370 N   0  0  0  0  0  0  0  0  0  0  0  0
   62.5360   33.3740   47.9870 C   0  0  0  0  0  0  0  0  0  0  0  0
   63.2910   32.5490   48.8260 C   0  0  0  0  0  0  0  0  0  0  0  0
   64.5630   33.0510   49.4470 C   0  0  0  0  0  0  0  0  0  0  0  0
   62.8090   31.2810   49.1340 C   0  0  0  0  0  0  0  0  0  0  0  0
   61.6130   30.8400   48.5840 C   0  0  0  0  0  0  0  0  0  0  0  0
   60.8720   31.6790   47.7230 C   0  0  0  0  0  0  0  0  0  0  0  0
   57.9905   29.7909   43.6184 H   0  0  0  0  0  0  0  0  0  0  0  0
   57.1316   28.4307   42.8190 H   0  0  0  0  0  0  0  0  0  0  0  0
   56.4071   30.0744   42.8190 H   0  0  0  0  0  0  0  0  0  0  0  0
   58.5147   26.9936   46.3007 H   0  0  0  0  0  0  0  0  0  0  0  0
   58.5223   27.4158   44.5471 H   0  0  0  0  0  0  0  0  0  0  0  0
   60.3166   28.6202   45.7391 H   0  0  0  0  0  0  0  0  0  0  0  0
   59.0734   29.7670   45.1264 H   0  0  0  0  0  0  0  0  0  0  0  0
   57.3032   30.6942   45.9102 H   0  0  0  0  0  0  0  0  0  0  0  0
   56.0643   32.2420   44.4082 H   0  0  0  0  0  0  0  0  0  0  0  0
   56.9637   34.5145   43.9323 H   0  0  0  0  0  0  0  0  0  0  0  0
   59.1124   35.2461   44.9519 H   0  0  0  0  0  0  0  0  0  0  0  0
   62.8977   34.3882   47.7620 H   0  0  0  0  0  0  0  0  0  0  0  0
   64.4747   33.0161   50.5429 H   0  0  0  0  0  0  0  0  0  0  0  0
   65.4027   32.4168   49.1265 H   0  0  0  0  0  0  0  0  0  0  0  0
   64.7433   34.0877   49.1265 H   0  0  0  0  0  0  0  0  0  0  0  0
   63.3757   30.6275   49.8136 H   0  0  0  0  0  0  0  0  0  0  0  0
   61.2407   29.8322   48.8200 H   0  0  0  0  0  0  0  0  0  0  0  0
  1  2  1  0
  2  3  2  0
  2  4  1  0
  4  5  1  0
  5  6  1  0
  6  7  1  0
  7  8  1  0
  8  9  1  0
  9 10  2  0
 10 11  1  0
 11 12  2  0
 12 13  1  0
 13 14  2  0
 14 15  1  0
 15 16  2  0
 15 17  1  0
 17 18  1  0
 18 19  2  0
 19 20  1  0
 19 21  1  0
 21 22  2  0
 22 23  1  0
 23  8  2  0
 14  9  1  0
 23 17  1  0
  1 24  1  0
  1 25  1  0
  1 26  1  0
  5 27  1  0
  5 28  1  0
  6 29  1  0
  6 30  1  0
 10 31  1  0
 11 32  1  0
 12 33  1  0
 13 34  1  0
 18 35  1  0
 20 36  1  0
 20 37  1  0
 20 38  1  0
 21 39  1  0
 22 40  1  0
M  CHG  1   4  -1
M  END
>  <UniqueID>  (17) 
15

>  <SMILES>  (17) 
CC(=O)[N-]CCSc1c2ccccc2c(=O)n2cc(C)ccc12

>  <Energy>  (17) 
47.353950303670885

>  <Genealogy>  (17) 
CC(=O)[N-]CCSc1c2ccccc2c(=O)n2cc(C)ccc12 (protonated)
CC(=O)[N-]CCSc1c2ccccc2c(=O)n2cc(C)ccc12 (3D coordinates assigned)
CC(=O)[N-]CCSc1c2ccccc2c(=O)n2cc(C)ccc12 (optimized conformer: 47.353950303670885 kcal/mol)

>  <smiles>  (17) 
CC(=O)NCCSc1c2ccccc2c(=O)n2cc(C)ccc12

>  <score_type>  (17) 
oracle

>  <origin>  (17) 
adg

>  <m_score__min__energy>  (17) 
-9.5800000000000001

>  <m_primary>  (17) 
energy

$$$$
17:0
     RDKit          3D

 44 47  0  0  0  0  0  0  0  0999 V2000
   59.1680   34.6170   46.3910 C   0  0  0  0  0  0  0  0  0  0  0  0
   58.5150   34.5640   45.0150 C   0  0  0  0  0  0  0  0  0  0  0  0
   58.1570   33.1900   44.6790 N   0  0  0  0  0  0  0  0  0  0  0  0
   58.2750   32.1200   45.4900 C   0  0  0  0  0  0  0  0  0  0  0  0
   57.9160   30.9990   44.7610 C   0  0  0  0  0  0  0  0  0  0  0  0
   57.9670   29.6220   45.1690 N   0  0  0  0  0  0  0  0  0  0  0  0
   56.8680   28.9180   45.4130 N   0  0  0  0  0  0  0  0  0  0  0  0
   57.2630   27.6780   45.7500 C   0  0  0  0  0  0  0  0  0  0  0  0
   58.6230   27.5840   45.7430 C   0  0  0  0  0  0  0  0  0  0  0  0
   59.0620   28.8380   45.3620 C   0  0  0  0  0  0  0  0  0  0  0  0
   60.4910   29.2450   45.1670 C   0  0  0  0  0  0  0  0  0  0  0  0
   59.3530   26.2880   45.9350 C   0  0  0  0  0  0  0  0  0  0  0  0
   58.5040   25.3080   46.7820 C   0  0  0  0  0  0  0  0  0  0  0  0
   57.0830   25.2790   46.3650 N   0  0  0  0  0  0  0  0  0  0  0  0
   56.3290   24.0540   46.4610 C   0  0  0  0  0  0  0  0  0  0  0  0
   55.9790   23.5240   47.7160 C   0  0  0  0  0  0  0  0  0  0  0  0
   55.2540   22.3320   47.8030 C   0  0  0  0  0  0  0  0  0  0  0  0
   54.8760   21.6550   46.6400 C   0  0  0  0  0  0  0  0  0  0  0  0
   54.1740   20.4980   46.7260 F   0  0  0  0  0  0  0  0  0  0  0  0
   55.2230   22.1700   45.3870 C   0  0  0  0  0  0  0  0  0  0  0  0
   55.9470   23.3630   45.2970 C   0  0  0  0  0  0  0  0  0  0  0  0
   56.4250   26.5220   46.0360 C   0  0  0  0  0  0  0  0  0  0  0  0
   55.1670   26.6140   45.9970 O   0  0  0  0  0  0  0  0  0  0  0  0
   57.6190   31.4540   43.4890 C   0  0  0  0  0  0  0  0  0  0  0  0
   57.7720   32.7910   43.4760 N   0  0  0  0  0  0  0  0  0  0  0  0
   58.3918   34.5540   47.1679 H   0  0  0  0  0  0  0  0  0  0  0  0
   59.8644   33.7724   46.4991 H   0  0  0  0  0  0  0  0  0  0  0  0
   59.7191   35.5628   46.4991 H   0  0  0  0  0  0  0  0  0  0  0  0
   57.6072   35.1851   45.0196 H   0  0  0  0  0  0  0  0  0  0  0  0
   59.2258   34.9428   44.2659 H   0  0  0  0  0  0  0  0  0  0  0  0
   58.5982   32.1347   46.5413 H   0  0  0  0  0  0  0  0  0  0  0  0
   60.9704   29.3815   46.1476 H   0  0  0  0  0  0  0  0  0  0  0  0
   61.0218   28.4623   44.6052 H   0  0  0  0  0  0  0  0  0  0  0  0
   60.5297   30.1899   44.6052 H   0  0  0  0  0  0  0  0  0  0  0  0
   59.5540   25.8366   44.9522 H   0  0  0  0  0  0  0  0  0  0  0  0
   60.2983   26.4865   46.4614 H   0  0  0  0  0  0  0  0  0  0  0  0
   58.9230   24.2965   46.6760 H   0  0  0  0  0  0  0  0  0  0  0  0
   58.5381   25.6538   47.8257 H   0  0  0  0  0  0  0  0  0  0  0  0
   56.2776   24.0506   48.6344 H   0  0  0  0  0  0  0  0  0  0  0  0
   54.9806   21.9262   48.7882 H   0  0  0  0  0  0  0  0  0  0  0  0
   54.9263   21.6365   44.4719 H   0  0  0  0  0  0  0  0  0  0  0  0
   56.2195   23.7636   44.3095 H   0  0  0  0  0  0  0  0  0  0  0  0
   57.3112   30.8312   42.6361 H   0  0  0  0  0  0  0  0  0  0  0  0
   57.6410   33.4180   42.6510 H   0  0  0  0  0  0  0  0  0  0  0  0
  1  2  1  0
  2  3  1  0
  3  4  1  0
  4  5  2  0
  5  6  1  0
  6  7  1  0
  7  8  2  0
  8  9  1  0
  9 10  2  0
 10 11  1  0
  9 12  1  0
 12 13  1  0
 13 14  1  0
 14 15  1  0
 15 16  2  0
 16 17  1  0
 17 18  2  0
 18 19  1  0
 18 20  1  0
 20 21  2  0
 14 22  1  0
 22 23  2  0
  5 24  1  0
 24 25  2  0
 25  3  1  0
 10  6  1  0
 21 15  1  0
 22  8  1  0
  1 26  1  0
  1 27  1  0
  1 28  1  0
  2 29  1  0
  2 30  1  0
  4 31  1  0
 11 32  1  0
 11 33  1  0
 11 34  1  0
 12 35  1  0
 12 36  1  0
 13 37  1  0
 13 38  1  0
 16 39  1  0
 17 40  1  0
 20 41  1  0
 21 42  1  0
 24 43  1  0
 25 44  1  0
M  CHG  1  25   1
M  END
>  <UniqueID>  (18) 
16

>  <SMILES>  (18) 
CCn1cc(-n2nc3c(c2C)CCN(c2ccc(F)cc2)C3=O)c[nH+]1

>  <Energy>  (18) 
117.46528495030574

>  <Genealogy>  (18) 
CCn1cc(-n2nc3c(c2C)CCN(c2ccc(F)cc2)C3=O)c[nH+]1 (protonated)
CCn1cc(-n2nc3c(c2C)CCN(c2ccc(F)cc2)C3=O)c[nH+]1 (3D coordinates assigned)
CCn1cc(-n2nc3c(c2C)CCN(c2ccc(F)cc2)C3=O)c[nH+]1 (nonaromatic ring conformer: 117.46528495030574 kcal/mol)

>  <smiles>  (18) 
CCn1cc(-n2nc3c(c2C)CCN(c2ccc(F)cc2)C3=O)cn1

>  <score_type>  (18) 
oracle

>  <origin>  (18) 
adg

>  <m_score__min__energy>  (18) 
-5.9400000000000004

>  <m_primary>  (18) 
energy

$$$$
18:0
     RDKit          3D

 43 45  0  0  0  0  0  0  0  0999 V2000
   57.9578   34.4484   44.1338 H   0  0  0  0  0  0  0  0  0  0  0  0
   58.3440   33.5240   44.5880 C   0  0  0  0  0  0  0  0  0  0  0  0
   58.3180   32.4100   43.8410 C   0  0  0  0  0  0  0  0  0  0  0  0
   58.8085   32.4438   42.8570 H   0  0  0  0  0  0  0  0  0  0  0  0
   57.6760   31.1370   44.2460 C   0  0  0  0  0  0  0  0  0  0  0  0
   56.3970   30.8220   43.7640 C   0  0  0  0  0  0  0  0  0  0  0  0
   55.8837   31.5027   43.0689 H   0  0  0  0  0  0  0  0  0  0  0  0
   55.7800   29.6380   44.1730 C   0  0  0  0  0  0  0  0  0  0  0  0
   54.6360   29.3420   43.7370 O   0  0  0  0  0  0  0  0  0  0  0  0
   56.3890   28.8220   45.0250 O   0  0  0  0  0  0  0  0  0  0  0  0
   57.5930   29.0760   45.5270 C   0  0  0  0  0  0  0  0  0  0  0  0
   58.1700   28.1670   46.4200 C   0  0  0  0  0  0  0  0  0  0  0  0
   57.6194   27.2574   46.7020 H   0  0  0  0  0  0  0  0  0  0  0  0
   59.4390   28.4020   46.9580 C   0  0  0  0  0  0  0  0  0  0  0  0
   59.9690   27.4580   47.8500 O   0  0  0  0  0  0  0  0  0  0  0  0
   60.4330   27.7610   49.1610 C   0  0  0  0  0  0  0  0  0  0  0  0
   59.7527   27.3168   49.9025 H   0  0  0  0  0  0  0  0  0  0  0  0
   61.4435   27.3482   49.2968 H   0  0  0  0  0  0  0  0  0  0  0  0
   60.4614   28.8522   49.2968 H   0  0  0  0  0  0  0  0  0  0  0  0
   60.1380   29.5660   46.5900 C   0  0  0  0  0  0  0  0  0  0  0  0
   61.1373   29.7578   47.0079 H   0  0  0  0  0  0  0  0  0  0  0  0
   59.5720   30.4810   45.6970 C   0  0  0  0  0  0  0  0  0  0  0  0
   60.1308   31.3848   45.4125 H   0  0  0  0  0  0  0  0  0  0  0  0
   58.2910   30.2520   45.1600 C   0  0  0  0  0  0  0  0  0  0  0  0
   58.8520   33.6060   45.9760 C   0  0  0  0  0  0  0  0  0  0  0  0
   60.1030   34.1690   46.2720 C   0  0  0  0  0  0  0  0  0  0  0  0
   60.7245   34.5755   45.4605 H   0  0  0  0  0  0  0  0  0  0  0  0
   60.5650   34.2170   47.5900 C   0  0  0  0  0  0  0  0  0  0  0  0
   61.5411   34.6753   47.8072 H   0  0  0  0  0  0  0  0  0  0  0  0
   59.7950   33.6850   48.6450 C   0  0  0  0  0  0  0  0  0  0  0  0
   60.2710   33.7380   50.0150 N   0  0  0  0  0  0  0  0  0  0  0  0
   59.3230   33.6980   51.1360 C   0  0  0  0  0  0  0  0  0  0  0  0
   59.8772   33.7214   52.0859 H   0  0  0  0  0  0  0  0  0  0  0  0
   58.6530   34.5687   51.0809 H   0  0  0  0  0  0  0  0  0  0  0  0
   58.7287   32.7740   51.0809 H   0  0  0  0  0  0  0  0  0  0  0  0
   61.7070   33.8290   50.3040 C   0  0  0  0  0  0  0  0  0  0  0  0
   61.8620   33.8388   51.3930 H   0  0  0  0  0  0  0  0  0  0  0  0
   62.2245   32.9618   49.8678 H   0  0  0  0  0  0  0  0  0  0  0  0
   62.1109   34.7545   49.8678 H   0  0  0  0  0  0  0  0  0  0  0  0
   58.5540   33.0910   48.3320 C   0  0  0  0  0  0  0  0  0  0  0  0
   57.9405   32.6582   49.1359 H   0  0  0  0  0  0  0  0  0  0  0  0
   58.0950   33.0460   47.0130 C   0  0  0  0  0  0  0  0  0  0  0  0
   57.1310   32.5667   46.7871 H   0  0  0  0  0  0  0  0  0  0  0  0
  1  2  1  0
  2  3  2  0
  3  4  1  0
  3  5  1  0
  5  6  2  0
  6  7  1  0
  6  8  1  0
  8  9  2  0
  8 10  1  0
 10 11  1  0
 11 12  2  0
 12 13  1  0
 12 14  1  0
 14 15  1  0
 15 16  1  0
 16 17  1  0
 16 18  1  0
 16 19  1  0
 14 20  2  0
 20 21  1  0
 20 22  1  0
 22 23  1  0
 22 24  2  0
  2 25  1  0
 25 26  2  0
 26 27  1  0
 26 28  1  0
 28 29  1  0
 28 30  2  0
 30 31  1  0
 31 32  1  0
 32 33  1  0
 32 34  1  0
 32 35  1  0
 31 36  1  0
 36 37  1  0
 36 38  1  0
 36 39  1  0
 30 40  1  0
 40 41  1  0
 40 42  2  0
 42 43  1  0
 24  5  1  0
 42 25  1  0
 24 11  1  0
M  END
>  <UniqueID>  (19) 
17

>  <SMILES>  (19) 
COc1ccc2c(/C=C\c3ccc(N(C)C)cc3)cc(=O)oc2c1

>  <Energy>  (19) 
61.53470278545464

>  <Genealogy>  (19) 
COc1ccc2c(/C=C\c3ccc(N(C)C)cc3)cc(=O)oc2c1 (cis-trans isomerization)
COc1ccc2c(/C=C\c3ccc(N(C)C)cc3)cc(=O)oc2c1 (3D coordinates assigned)
COc1ccc2c(/C=C\c3ccc(N(C)C)cc3)cc(=O)oc2c1 (optimized conformer: 61.53470278545464 kcal/mol)

>  <smiles>  (19) 
COc1ccc2c(C=Cc3ccc(N(C)C)cc3)cc(=O)oc2c1

>  <score_type>  (19) 
oracle

>  <origin>  (19) 
adg

>  <m_score__min__energy>  (19) 
-7.3099999999999996

>  <m_primary>  (19) 
energy

$$$$
19:0
     RDKit          3D

 57 61  0  0  0  0  0  0  0  0999 V2000
   58.3390   26.0010   46.8480 C   0  0  0  0  0  0  0  0  0  0  0  0
   57.9820   27.3300   46.2560 C   0  0  0  0  0  0  0  0  0  0  0  0
   56.8480   27.5150   45.5420 N   0  0  0  0  0  0  0  0  0  0  0  0
   56.9190   28.8090   45.1880 C   0  0  0  0  0  0  0  0  0  0  0  0
   55.9920   29.4960   44.4200 C   0  0  0  0  0  0  0  0  0  0  0  0
   56.2430   30.8420   44.1340 C   0  0  0  0  0  0  0  0  0  0  0  0
   57.3980   31.4860   44.6330 C   0  0  0  0  0  0  0  0  0  0  0  0
   58.3170   30.7770   45.4610 C   0  0  0  0  0  0  0  0  0  0  0  0
   58.0600   29.3970   45.6760 C   0  0  0  0  0  0  0  0  0  0  0  0
   58.7620   28.4420   46.3420 N   0  0  0  0  0  0  0  0  0  0  0  0
   60.0790   28.5030   46.9920 C   0  0  0  0  0  0  0  0  0  0  0  0
   60.0630   29.3400   48.2540 C   0  0  0  0  0  0  0  0  0  0  0  0
   61.2080   30.0830   48.5880 C   0  0  0  0  0  0  0  0  0  0  0  0
   61.2200   30.8980   49.7250 C   0  0  0  0  0  0  0  0  0  0  0  0
   60.0850   30.9870   50.5340 C   0  0  0  0  0  0  0  0  0  0  0  0
   60.0960   31.7790   51.6340 F   0  0  0  0  0  0  0  0  0  0  0  0
   58.9340   30.2650   50.2050 C   0  0  0  0  0  0  0  0  0  0  0  0
   58.9180   29.4490   49.0700 C   0  0  0  0  0  0  0  0  0  0  0  0
   59.5260   31.5000   46.0250 C   0  0  0  0  0  0  0  0  0  0  0  0
   59.3530   32.9650   46.0810 N   0  0  0  0  0  0  0  0  0  0  0  0
   58.4700   33.3760   47.2010 C   0  0  0  0  0  0  0  0  0  0  0  0
   59.2310   33.5210   48.5260 C   0  0  0  0  0  0  0  0  0  0  0  0
   60.3320   34.5850   48.4470 C   0  0  0  0  0  0  0  0  0  0  0  0
   61.6140   33.9550   48.1450 N   0  0  0  0  0  0  0  0  0  0  0  0
   62.6510   33.8160   48.9920 C   0  0  0  0  0  0  0  0  0  0  0  0
   63.7020   33.2380   48.3040 C   0  0  0  0  0  0  0  0  0  0  0  0
   63.2290   33.0570   47.0150 C   0  0  0  0  0  0  0  0  0  0  0  0
   61.9630   33.5070   46.9510 N   0  0  0  0  0  0  0  0  0  0  0  0
   58.9450   33.4850   44.7600 C   0  0  0  0  0  0  0  0  0  0  0  0
   57.5790   32.9490   44.3170 C   0  0  0  0  0  0  0  0  0  0  0  0
   58.3201   26.0715   47.9456 H   0  0  0  0  0  0  0  0  0  0  0  0
   57.6121   25.2448   46.5166 H   0  0  0  0  0  0  0  0  0  0  0  0
   59.3469   25.7108   46.5166 H   0  0  0  0  0  0  0  0  0  0  0  0
   55.0855   28.9973   44.0464 H   0  0  0  0  0  0  0  0  0  0  0  0
   55.5323   31.4066   43.5127 H   0  0  0  0  0  0  0  0  0  0  0  0
   60.3929   27.4809   47.2502 H   0  0  0  0  0  0  0  0  0  0  0  0
   60.7792   28.9742   46.2865 H   0  0  0  0  0  0  0  0  0  0  0  0
   62.1022   30.0233   47.9502 H   0  0  0  0  0  0  0  0  0  0  0  0
   62.1242   31.4693   49.9821 H   0  0  0  0  0  0  0  0  0  0  0  0
   58.0392   30.3391   50.8404 H   0  0  0  0  0  0  0  0  0  0  0  0
   58.0072   28.8888   48.8120 H   0  0  0  0  0  0  0  0  0  0  0  0
   59.7103   31.1304   47.0445 H   0  0  0  0  0  0  0  0  0  0  0  0
   60.3723   31.2960   45.3525 H   0  0  0  0  0  0  0  0  0  0  0  0
   58.0097   34.3432   46.9508 H   0  0  0  0  0  0  0  0  0  0  0  0
   57.7120   32.5902   47.3349 H   0  0  0  0  0  0  0  0  0  0  0  0
   58.5188   33.8058   49.3144 H   0  0  0  0  0  0  0  0  0  0  0  0
   59.7091   32.5557   48.7487 H   0  0  0  0  0  0  0  0  0  0  0  0
   60.0850   35.3067   47.6544 H   0  0  0  0  0  0  0  0  0  0  0  0
   60.4033   35.1035   49.4145 H   0  0  0  0  0  0  0  0  0  0  0  0
   62.6607   34.1119   50.0514 H   0  0  0  0  0  0  0  0  0  0  0  0
   64.6968   32.9785   48.6952 H   0  0  0  0  0  0  0  0  0  0  0  0
   63.7954   32.6175   46.1807 H   0  0  0  0  0  0  0  0  0  0  0  0
   61.3540   33.5170   46.1020 H   0  0  0  0  0  0  0  0  0  0  0  0
   58.8934   34.5825   44.8130 H   0  0  0  0  0  0  0  0  0  0  0  0
   59.6909   33.1514   44.0235 H   0  0  0  0  0  0  0  0  0  0  0  0
   56.7928   33.5203   44.8323 H   0  0  0  0  0  0  0  0  0  0  0  0
   57.5153   33.0635   43.2248 H   0  0  0  0  0  0  0  0  0  0  0  0
  1  2  1  0
  2  3  2  0
  3  4  1  0
  4  5  2  0
  5  6  1  0
  6  7  2  0
  7  8  1  0
  8  9  2  0
  9 10  1  0
 10 11  1  0
 11 12  1  0
 12 13  2  0
 13 14  1  0
 14 15  2  0
 15 16  1  0
 15 17  1  0
 17 18  2  0
  8 19  1  0
 19 20  1  0
 20 21  1  0
 21 22  1  0
 22 23  1  0
 23 24  1  0
 24 25  1  0
 25 26  2  0
 26 27  1  0
 27 28  2  0
 20 29  1  0
 29 30  1  0
 10  2  1  0
 18 12  1  0
 28 24  1  0
  9  4  1  0
 30  7  1  0
  1 31  1  0
  1 32  1  0
  1 33  1  0
  5 34  1  0
  6 35  1  0
 11 36  1  0
 11 37  1  0
 13 38  1  0
 14 39  1  0
 17 40  1  0
 18 41  1  0
 19 42  1  0
 19 43  1  0
 21 44  1  0
 21 45  1  0
 22 46  1  0
 22 47  1  0
 23 48  1  0
 23 49  1  0
 25 50  1  0
 26 51  1  0
 27 52  1  0
 28 53  1  0
 29 54  1  0
 29 55  1  0
 30 56  1  0
 30 57  1  0
M  CHG  1  28   1
M  END
>  <UniqueID>  (20) 
18

>  <SMILES>  (20) 
Cc1nc2ccc3c(c2n1Cc1ccc(F)cc1)CN(CCCn1ccc[nH+]1)CC3

>  <Energy>  (20) 
135.11029232656256

>  <Genealogy>  (20) 
Cc1nc2ccc3c(c2n1Cc1ccc(F)cc1)CN(CCCn1ccc[nH+]1)CC3 (protonated)
Cc1nc2ccc3c(c2n1Cc1ccc(F)cc1)CN(CCCn1ccc[nH+]1)CC3 (3D coordinates assigned)
Cc1nc2ccc3c(c2n1Cc1ccc(F)cc1)CN(CCCn1ccc[nH+]1)CC3 (nonaromatic ring conformer: 135.11029232656256 kcal/mol)

>  <smiles>  (20) 
Cc1nc2ccc3c(c2n1Cc1ccc(F)cc1)CN(CCCn1cccn1)CC3

>  <score_type>  (20) 
oracle

>  <origin>  (20) 
adg

>  <m_score__min__energy>  (20) 
-7.0499999999999998

>  <m_primary>  (20) 
energy

$$$$
20:0
     RDKit          3D

 51 54  0  0  0  0  0  0  0  0999 V2000
   61.6980   33.5560   46.3680 C   0  0  0  0  0  0  0  0  0  0  0  0
   62.3640   33.5760   47.7210 C   0  0  0  0  0  0  0  0  0  0  0  0
   63.7650   33.4670   47.7820 C   0  0  0  0  0  0  0  0  0  0  0  0
   64.4250   33.4420   49.0100 C   0  0  0  0  0  0  0  0  0  0  0  0
   63.6980   33.5150   50.1940 C   0  0  0  0  0  0  0  0  0  0  0  0
   62.3080   33.6310   50.1610 C   0  0  0  0  0  0  0  0  0  0  0  0
   61.6320   33.6670   51.3370 F   0  0  0  0  0  0  0  0  0  0  0  0
   61.6210   33.6960   48.9290 C   0  0  0  0  0  0  0  0  0  0  0  0
   60.1090   33.8330   48.9340 C   0  0  0  0  0  0  0  0  0  0  0  0
   59.4580   32.6260   48.4060 N   0  0  0  0  0  0  0  0  0  0  0  0
   58.5020   32.5400   47.4350 C   0  0  0  0  0  0  0  0  0  0  0  0
   57.9570   33.7040   46.6520 C   0  0  0  0  0  0  0  0  0  0  0  0
   57.7890   33.3540   45.1680 C   0  0  0  0  0  0  0  0  0  0  0  0
   56.9700   32.1560   45.0030 N   0  0  0  0  0  0  0  0  0  0  0  0
   57.2380   31.1350   44.0360 C   0  0  0  0  0  0  0  0  0  0  0  0
   57.0370   31.3710   42.8130 O   0  0  0  0  0  0  0  0  0  0  0  0
   57.7460   29.8070   44.4630 C   0  0  0  0  0  0  0  0  0  0  0  0
   59.1320   29.5530   44.4550 C   0  0  0  0  0  0  0  0  0  0  0  0
   59.6300   28.3080   44.8460 C   0  0  0  0  0  0  0  0  0  0  0  0
   58.7550   27.2990   45.2490 C   0  0  0  0  0  0  0  0  0  0  0  0
   57.3790   27.5300   45.2560 C   0  0  0  0  0  0  0  0  0  0  0  0
   56.8700   28.7730   44.8640 C   0  0  0  0  0  0  0  0  0  0  0  0
   55.5240   28.9480   44.8690 F   0  0  0  0  0  0  0  0  0  0  0  0
   58.1590   31.2580   47.1540 N   0  0  0  0  0  0  0  0  0  0  0  0
   58.9210   30.5200   47.9730 C   0  0  0  0  0  0  0  0  0  0  0  0
   58.9730   29.1310   48.0730 C   0  0  0  0  0  0  0  0  0  0  0  0
   59.8720   28.5770   49.0020 C   0  0  0  0  0  0  0  0  0  0  0  0
   60.6890   29.4160   49.7930 C   0  0  0  0  0  0  0  0  0  0  0  0
   60.6150   30.8150   49.6640 C   0  0  0  0  0  0  0  0  0  0  0  0
   59.7110   31.3370   48.7330 C   0  0  0  0  0  0  0  0  0  0  0  0
   60.6061   33.5232   46.4972 H   0  0  0  0  0  0  0  0  0  0  0  0
   61.9741   34.4628   45.8100 H   0  0  0  0  0  0  0  0  0  0  0  0
   62.0280   32.6674   45.8100 H   0  0  0  0  0  0  0  0  0  0  0  0
   64.3464   33.4007   46.8506 H   0  0  0  0  0  0  0  0  0  0  0  0
   65.5218   33.3645   49.0427 H   0  0  0  0  0  0  0  0  0  0  0  0
   64.2216   33.4811   51.1608 H   0  0  0  0  0  0  0  0  0  0  0  0
   59.7685   34.0004   49.9665 H   0  0  0  0  0  0  0  0  0  0  0  0
   59.8369   34.6822   48.2899 H   0  0  0  0  0  0  0  0  0  0  0  0
   56.9776   33.9859   47.0658 H   0  0  0  0  0  0  0  0  0  0  0  0
   58.6703   34.5376   46.7314 H   0  0  0  0  0  0  0  0  0  0  0  0
   57.3034   34.1957   44.6525 H   0  0  0  0  0  0  0  0  0  0  0  0
   58.7831   33.1612   44.7383 H   0  0  0  0  0  0  0  0  0  0  0  0
   59.8286   30.3430   44.1377 H   0  0  0  0  0  0  0  0  0  0  0  0
   60.7142   28.1228   44.8361 H   0  0  0  0  0  0  0  0  0  0  0  0
   59.1500   26.3210   45.5613 H   0  0  0  0  0  0  0  0  0  0  0  0
   56.6913   26.7314   45.5711 H   0  0  0  0  0  0  0  0  0  0  0  0
   57.4760   30.9200   46.4400 H   0  0  0  0  0  0  0  0  0  0  0  0
   58.3336   28.4906   47.4476 H   0  0  0  0  0  0  0  0  0  0  0  0
   59.9395   27.4847   49.1135 H   0  0  0  0  0  0  0  0  0  0  0  0
   61.3889   28.9714   50.5158 H   0  0  0  0  0  0  0  0  0  0  0  0
   61.2470   31.4763   50.2749 H   0  0  0  0  0  0  0  0  0  0  0  0
  1  2  1  0
  2  3  2  0
  3  4  1  0
  4  5  2  0
  5  6  1  0
  6  7  1  0
  6  8  2  0
  8  9  1  0
  9 10  1  0
 10 11  1  0
 11 12  1  0
 12 13  1  0
 13 14  1  0
 14 15  1  0
 15 16  2  0
 15 17  1  0
 17 18  2  0
 18 19  1  0
 19 20  2  0
 20 21  1  0
 21 22  2  0
 22 23  1  0
 11 24  2  0
 24 25  1  0
 25 26  2  0
 26 27  1  0
 27 28  2  0
 28 29  1  0
 29 30  2  0
  8  2  1  0
 30 10  1  0
 22 17  1  0
 30 25  1  0
  1 31  1  0
  1 32  1  0
  1 33  1  0
  3 34  1  0
  4 35  1  0
  5 36  1  0
  9 37  1  0
  9 38  1  0
 12 39  1  0
 12 40  1  0
 13 41  1  0
 13 42  1  0
 18 43  1  0
 19 44  1  0
 20 45  1  0
 21 46  1  0
 24 47  1  0
 26 48  1  0
 27 49  1  0
 28 50  1  0
 29 51  1  0
M  CHG  2  14  -1  24   1
M  END
>  <UniqueID>  (21) 
19

>  <SMILES>  (21) 
Cc1cccc(F)c1Cn1c(CC[N-]C(=O)c2ccccc2F)[nH+]c2ccccc21

>  <Energy>  (21) 
92.73068639004816

>  <Genealogy>  (21) 
Cc1cccc(F)c1Cn1c(CC[N-]C(=O)c2ccccc2F)[nH+]c2ccccc21 (protonated)
Cc1cccc(F)c1Cn1c(CC[N-]C(=O)c2ccccc2F)[nH+]c2ccccc21 (3D coordinates assigned)
Cc1cccc(F)c1Cn1c(CC[N-]C(=O)c2ccccc2F)[nH+]c2ccccc21 (optimized conformer: 92.73068639004816 kcal/mol)

>  <smiles>  (21) 
Cc1cccc(F)c1Cn1c(CCNC(=O)c2ccccc2F)nc2ccccc21

>  <score_type>  (21) 
oracle

>  <origin>  (21) 
adg

>  <m_score__min__energy>  (21) 
-8.5999999999999996

>  <m_primary>  (21) 
energy

$$$$
21:0
     RDKit          3D

 40 42  0  0  0  0  0  0  0  0999 V2000
   55.8900   19.2250   44.1010 C   0  0  0  0  0  0  0  0  0  0  0  0
   56.2700   20.2600   43.2020 O   0  0  0  0  0  0  0  0  0  0  0  0
   56.7380   21.5050   43.6350 C   0  0  0  0  0  0  0  0  0  0  0  0
   56.0040   22.6330   43.4340 N   0  0  0  0  0  0  0  0  0  0  0  0
   56.4520   23.8440   43.8500 C   0  0  0  0  0  0  0  0  0  0  0  0
   57.6910   23.9530   44.4890 C   0  0  0  0  0  0  0  0  0  0  0  0
   58.2010   25.2880   44.9650 C   0  0  0  0  0  0  0  0  0  0  0  0
   57.6010   26.3760   44.1900 N   0  0  0  0  0  0  0  0  0  0  0  0
   57.8060   27.7770   44.4570 C   0  0  0  0  0  0  0  0  0  0  0  0
   57.1510   28.7800   43.7190 C   0  0  0  0  0  0  0  0  0  0  0  0
   57.3680   30.1300   44.0080 C   0  0  0  0  0  0  0  0  0  0  0  0
   58.2480   30.5080   45.0380 C   0  0  0  0  0  0  0  0  0  0  0  0
   58.4780   31.9430   45.3450 C   0  0  0  0  0  0  0  0  0  0  0  0
   57.8040   32.9470   44.6240 C   0  0  0  0  0  0  0  0  0  0  0  0
   58.0230   34.2960   44.9150 C   0  0  0  0  0  0  0  0  0  0  0  0
   58.9150   34.6600   45.9280 C   0  0  0  0  0  0  0  0  0  0  0  0
   59.5890   33.6730   46.6510 C   0  0  0  0  0  0  0  0  0  0  0  0
   59.3750   32.3210   46.3630 C   0  0  0  0  0  0  0  0  0  0  0  0
   58.9070   29.5060   45.7690 C   0  0  0  0  0  0  0  0  0  0  0  0
   58.6890   28.1560   45.4790 C   0  0  0  0  0  0  0  0  0  0  0  0
   58.4260   22.7790   44.6970 C   0  0  0  0  0  0  0  0  0  0  0  0
   57.9420   21.5840   44.2650 N   0  0  0  0  0  0  0  0  0  0  0  0
   56.0179   19.5735   45.1365 H   0  0  0  0  0  0  0  0  0  0  0  0
   54.8360   18.9602   43.9308 H   0  0  0  0  0  0  0  0  0  0  0  0
   56.5222   18.3411   43.9308 H   0  0  0  0  0  0  0  0  0  0  0  0
   55.8392   24.7423   43.6843 H   0  0  0  0  0  0  0  0  0  0  0  0
   57.9431   25.4157   46.0267 H   0  0  0  0  0  0  0  0  0  0  0  0
   59.2925   25.3182   44.8318 H   0  0  0  0  0  0  0  0  0  0  0  0
   57.0180   26.1060   43.3650 H   0  0  0  0  0  0  0  0  0  0  0  0
   56.4627   28.4993   42.9082 H   0  0  0  0  0  0  0  0  0  0  0  0
   56.8463   30.9033   43.4251 H   0  0  0  0  0  0  0  0  0  0  0  0
   57.1002   32.6676   43.8261 H   0  0  0  0  0  0  0  0  0  0  0  0
   57.4923   35.0733   44.3457 H   0  0  0  0  0  0  0  0  0  0  0  0
   59.0859   35.7226   46.1555 H   0  0  0  0  0  0  0  0  0  0  0  0
   60.2899   33.9597   47.4489 H   0  0  0  0  0  0  0  0  0  0  0  0
   59.9103   31.5486   46.9348 H   0  0  0  0  0  0  0  0  0  0  0  0
   59.6001   29.7857   46.5761 H   0  0  0  0  0  0  0  0  0  0  0  0
   59.2153   27.3829   46.0582 H   0  0  0  0  0  0  0  0  0  0  0  0
   59.3974   22.8238   45.2112 H   0  0  0  0  0  0  0  0  0  0  0  0
   58.5030   20.7180   44.4220 H   0  0  0  0  0  0  0  0  0  0  0  0
  1  2  1  0
  2  3  1  0
  3  4  2  0
  4  5  1  0
  5  6  2  0
  6  7  1  0
  7  8  1  0
  8  9  1  0
  9 10  2  0
 10 11  1  0
 11 12  2  0
 12 13  1  0
 13 14  2  0
 14 15  1  0
 15 16  2  0
 16 17  1  0
 17 18  2  0
 12 19  1  0
 19 20  2  0
  6 21  1  0
 21 22  2  0
 22  3  1  0
 20  9  1  0
 18 13  1  0
  1 23  1  0
  1 24  1  0
  1 25  1  0
  5 26  1  0
  7 27  1  0
  7 28  1  0
  8 29  1  0
 10 30  1  0
 11 31  1  0
 14 32  1  0
 15 33  1  0
 16 34  1  0
 17 35  1  0
 18 36  1  0
 19 37  1  0
 20 38  1  0
 21 39  1  0
 22 40  1  0
M  CHG  1  22   1
M  END
>  <UniqueID>  (22) 
20

>  <SMILES>  (22) 
COc1ncc(CNc2ccc(-c3ccccc3)cc2)c[nH+]1

>  <Energy>  (22) 
45.31274297384556

>  <Genealogy>  (22) 
COc1ncc(CNc2ccc(-c3ccccc3)cc2)c[nH+]1 (protonated)
COc1ncc(CNc2ccc(-c3ccccc3)cc2)c[nH+]1 (3D coordinates assigned)
COc1ncc(CNc2ccc(-c3ccccc3)cc2)c[nH+]1 (optimized conformer: 45.31274297384556 kcal/mol)

>  <smiles>  (22) 
COc1ncc(CNc2ccc(-c3ccccc3)cc2)cn1

>  <score_type>  (22) 
oracle

>  <origin>  (22) 
adg

>  <m_score__min__energy>  (22) 
-6.4800000000000004

>  <m_primary>  (22) 
energy

$$$$
22:0
     RDKit          3D

 28 29  0  0  0  0  0  0  0  0999 V2000
   59.3100   34.8710   47.4470 C   0  0  0  0  0  0  0  0  0  0  0  0
   58.9480   33.6590   46.6410 C   0  0  0  0  0  0  0  0  0  0  0  0
   57.9350   33.7220   45.6870 C   0  0  0  0  0  0  0  0  0  0  0  0
   57.6330   32.5980   44.9180 C   0  0  0  0  0  0  0  0  0  0  0  0
   58.3250   31.4170   45.0690 N   0  0  0  0  0  0  0  0  0  0  0  0
   58.0210   30.3010   44.3060 C   0  0  0  0  0  0  0  0  0  0  0  0
   56.8920   30.3430   43.2720 C   0  0  0  0  0  0  0  0  0  0  0  0
   55.5480   29.7370   43.6960 C   0  0  0  0  0  0  0  0  0  0  0  0
   55.5680   29.4850   45.0730 O   0  0  0  0  0  0  0  0  0  0  0  0
   58.7690   29.1230   44.4950 C   0  0  0  0  0  0  0  0  0  0  0  0
   59.7880   29.1000   45.4360 C   0  0  0  0  0  0  0  0  0  0  0  0
   60.4600   28.0480   45.6090 O   0  0  0  0  0  0  0  0  0  0  0  0
   60.0590   30.2050   46.1680 N   0  0  0  0  0  0  0  0  0  0  0  0
   59.3460   31.3530   46.0000 C   0  0  0  0  0  0  0  0  0  0  0  0
   59.6670   32.4730   46.7850 C   0  0  0  0  0  0  0  0  0  0  0  0
   59.2390   34.6333   48.5187 H   0  0  0  0  0  0  0  0  0  0  0  0
   60.3388   35.1773   47.2067 H   0  0  0  0  0  0  0  0  0  0  0  0
   58.6177   35.6913   47.2067 H   0  0  0  0  0  0  0  0  0  0  0  0
   57.3740   34.6567   45.5402 H   0  0  0  0  0  0  0  0  0  0  0  0
   56.8243   32.6563   44.1746 H   0  0  0  0  0  0  0  0  0  0  0  0
   56.7156   31.3975   43.0134 H   0  0  0  0  0  0  0  0  0  0  0  0
   57.2409   29.7179   42.4368 H   0  0  0  0  0  0  0  0  0  0  0  0
   54.7370   30.4427   43.4633 H   0  0  0  0  0  0  0  0  0  0  0  0
   55.3799   28.7961   43.1516 H   0  0  0  0  0  0  0  0  0  0  0  0
   54.7460   28.9650   45.2690 H   0  0  0  0  0  0  0  0  0  0  0  0
   58.5464   28.2254   43.8994 H   0  0  0  0  0  0  0  0  0  0  0  0
   60.8310   30.1630   46.8730 H   0  0  0  0  0  0  0  0  0  0  0  0
   60.4876   32.4142   47.5151 H   0  0  0  0  0  0  0  0  0  0  0  0
  1  2  1  0
  2  3  1  0
  3  4  2  0
  4  5  1  0
  5  6  1  0
  6  7  1  0
  7  8  1  0
  8  9  1  0
  6 10  2  0
 10 11  1  0
 11 12  2  0
 11 13  1  0
 13 14  2  0
 14 15  1  0
 15  2  2  0
 14  5  1  0
  1 16  1  0
  1 17  1  0
  1 18  1  0
  3 19  1  0
  4 20  1  0
  7 21  1  0
  7 22  1  0
  8 23  1  0
  8 24  1  0
  9 25  1  0
 10 26  1  0
 13 27  1  0
 15 28  1  0
M  CHG  1  13   1
M  END
>  <UniqueID>  (23) 
21

>  <SMILES>  (23) 
Cc1ccn2c(CCO)cc(=O)[nH+]c2c1

>  <Energy>  (23) 
36.6541071506291

>  <Genealogy>  (23) 
Cc1ccn2c(CCO)cc(=O)[nH+]c2c1 (protonated)
Cc1ccn2c(CCO)cc(=O)[nH+]c2c1 (3D coordinates assigned)
Cc1ccn2c(CCO)cc(=O)[nH+]c2c1 (optimized conformer: 36.6541071506291 kcal/mol)

>  <smiles>  (23) 
Cc1ccn2c(CCO)cc(=O)nc2c1

>  <score_type>  (23) 
oracle

>  <origin>  (23) 
adg

>  <m_score__min__energy>  (23) 
-5

>  <m_primary>  (23) 
energy

$$$$
23:0
     RDKit          3D

 70 73  0  0  0  0  0  0  0  0999 V2000
   63.3760   33.0810   47.1380 C   0  0  0  0  0  0  0  0  0  0  0  0
   62.5510   31.9600   47.7750 C   0  0  0  0  0  0  0  0  0  0  0  0
   62.4260   32.0540   49.2490 N   0  0  0  0  0  0  0  0  0  0  0  0
   62.1020   33.4070   49.7640 C   0  0  0  0  0  0  0  0  0  0  0  0
   60.7870   33.4920   50.5560 C   0  0  0  0  0  0  0  0  0  0  0  0
   63.4330   31.2990   50.0280 C   0  0  0  0  0  0  0  0  0  0  0  0
   63.2920   31.5360   51.5420 C   0  0  0  0  0  0  0  0  0  0  0  0
   62.9850   30.2600   52.3490 C   0  0  0  0  0  0  0  0  0  0  0  0
   61.5430   30.0980   52.5980 N   0  0  0  0  0  0  0  0  0  0  0  0
   60.8980   29.5510   51.4300 C   0  0  0  0  0  0  0  0  0  0  0  0
   59.8780   30.2710   50.7820 C   0  0  0  0  0  0  0  0  0  0  0  0
   59.2610   29.7540   49.6380 C   0  0  0  0  0  0  0  0  0  0  0  0
   59.6570   28.5120   49.1290 C   0  0  0  0  0  0  0  0  0  0  0  0
   59.0180   27.9760   47.9560 C   0  0  0  0  0  0  0  0  0  0  0  0
   58.4850   27.5300   46.9710 C   0  0  0  0  0  0  0  0  0  0  0  0
   57.8340   26.9810   45.7710 C   0  0  2  0  0  0  0  0  0  0  0  0
   58.3060   27.7250   44.5070 C   0  0  0  0  0  0  0  0  0  0  0  0
   58.3090   29.1760   44.7020 N   0  0  0  0  0  0  0  0  0  0  0  0
   57.1750   30.0660   44.4190 C   0  0  0  0  0  0  0  0  0  0  0  0
   57.6550   31.4020   44.9100 C   0  0  0  0  0  0  0  0  0  0  0  0
   56.9790   32.6210   44.8820 C   0  0  0  0  0  0  0  0  0  0  0  0
   57.6140   33.7530   45.4190 C   0  0  0  0  0  0  0  0  0  0  0  0
   58.9080   33.6630   45.9780 C   0  0  0  0  0  0  0  0  0  0  0  0
   59.4880   34.8260   46.5040 O   0  0  0  0  0  0  0  0  0  0  0  0
   59.9560   34.9540   47.8430 C   0  0  0  0  0  0  0  0  0  0  0  0
   59.5730   32.4130   45.9940 C   0  0  0  0  0  0  0  0  0  0  0  0
   58.9170   31.3110   45.4500 C   0  0  0  0  0  0  0  0  0  0  0  0
   59.3320   29.9360   45.3410 C   0  0  0  0  0  0  0  0  0  0  0  0
   60.4140   29.4560   45.7730 O   0  0  0  0  0  0  0  0  0  0  0  0
   56.3860   27.0670   45.9150 N   0  0  0  0  0  0  0  0  0  0  0  0
   55.8670   25.7440   45.8910 C   0  0  0  0  0  0  0  0  0  0  0  0
   54.6390   25.4870   45.9790 O   0  0  0  0  0  0  0  0  0  0  0  0
   56.8580   24.7390   45.7570 N   0  0  0  0  0  0  0  0  0  0  0  0
   58.0620   25.4970   45.6940 C   0  0  0  0  0  0  0  0  0  0  0  0
   59.1960   24.9560   45.6010 O   0  0  0  0  0  0  0  0  0  0  0  0
   60.6770   27.7910   49.7610 C   0  0  0  0  0  0  0  0  0  0  0  0
   61.3000   28.3070   50.9030 C   0  0  0  0  0  0  0  0  0  0  0  0
   62.3000   27.6020   51.4880 F   0  0  0  0  0  0  0  0  0  0  0  0
   63.8294   33.6971   47.9284 H   0  0  0  0  0  0  0  0  0  0  0  0
   64.1691   32.6434   46.5139 H   0  0  0  0  0  0  0  0  0  0  0  0
   62.7223   33.7081   46.5139 H   0  0  0  0  0  0  0  0  0  0  0  0
   61.5404   31.9875   47.3415 H   0  0  0  0  0  0  0  0  0  0  0  0
   63.0824   31.0202   47.5641 H   0  0  0  0  0  0  0  0  0  0  0  0
   62.9214   33.7283   50.4238 H   0  0  0  0  0  0  0  0  0  0  0  0
   61.9782   34.0545   48.8834 H   0  0  0  0  0  0  0  0  0  0  0  0
   61.0065   33.4778   51.6338 H   0  0  0  0  0  0  0  0  0  0  0  0
   60.2647   34.4258   50.3004 H   0  0  0  0  0  0  0  0  0  0  0  0
   60.1489   32.6332   50.3004 H   0  0  0  0  0  0  0  0  0  0  0  0
   63.3070   30.2255   49.8240 H   0  0  0  0  0  0  0  0  0  0  0  0
   64.4297   31.6496   49.7221 H   0  0  0  0  0  0  0  0  0  0  0  0
   64.2348   31.9628   51.9148 H   0  0  0  0  0  0  0  0  0  0  0  0
   62.4369   32.2140   51.6802 H   0  0  0  0  0  0  0  0  0  0  0  0
   63.3483   29.3877   51.7858 H   0  0  0  0  0  0  0  0  0  0  0  0
   63.4904   30.3440   53.3224 H   0  0  0  0  0  0  0  0  0  0  0  0
   61.1170   31.0270   52.8210 H   0  0  0  0  0  0  0  0  0  0  0  0
   61.3880   29.4700   53.4200 H   0  0  0  0  0  0  0  0  0  0  0  0
   59.5632   31.2478   51.1778 H   0  0  0  0  0  0  0  0  0  0  0  0
   58.4640   30.3241   49.1381 H   0  0  0  0  0  0  0  0  0  0  0  0
   59.3263   27.3964   44.2601 H   0  0  0  0  0  0  0  0  0  0  0  0
   57.6077   27.4903   43.6901 H   0  0  0  0  0  0  0  0  0  0  0  0
   56.9575   30.0970   43.3412 H   0  0  0  0  0  0  0  0  0  0  0  0
   56.2410   29.7402   44.9001 H   0  0  0  0  0  0  0  0  0  0  0  0
   55.9705   32.6947   44.4489 H   0  0  0  0  0  0  0  0  0  0  0  0
   57.0962   34.7234   45.4040 H   0  0  0  0  0  0  0  0  0  0  0  0
   59.1360   34.7297   48.5410 H   0  0  0  0  0  0  0  0  0  0  0  0
   60.7837   34.2492   48.0111 H   0  0  0  0  0  0  0  0  0  0  0  0
   60.3098   35.9819   48.0111 H   0  0  0  0  0  0  0  0  0  0  0  0
   60.5805   32.3147   46.4244 H   0  0  0  0  0  0  0  0  0  0  0  0
   55.8250   27.9430   46.0130 H   0  0  0  0  0  0  0  0  0  0  0  0
   60.9897   26.8161   49.3588 H   0  0  0  0  0  0  0  0  0  0  0  0
  1  2  1  0
  2  3  1  0
  3  4  1  0
  4  5  1  0
  3  6  1  0
  6  7  1  0
  7  8  1  0
  8  9  1  0
  9 10  1  0
 10 11  2  0
 11 12  1  0
 12 13  2  0
 13 14  1  0
 14 15  3  0
 16 15  1  1
 16 17  1  0
 17 18  1  0
 18 19  1  0
 19 20  1  0
 20 21  2  0
 21 22  1  0
 22 23  2  0
 23 24  1  0
 24 25  1  0
 23 26  1  0
 26 27  2  0
 27 28  1  0
 28 29  2  0
 16 30  1  0
 30 31  1  0
 31 32  2  0
 31 33  1  0
 33 34  1  0
 34 35  2  0
 13 36  1  0
 36 37  2  0
 37 38  1  0
 37 10  1  0
 34 16  1  0
 28 18  1  0
 27 20  1  0
  1 39  1  0
  1 40  1  0
  1 41  1  0
  2 42  1  0
  2 43  1  0
  4 44  1  0
  4 45  1  0
  5 46  1  0
  5 47  1  0
  5 48  1  0
  6 49  1  0
  6 50  1  0
  7 51  1  0
  7 52  1  0
  8 53  1  0
  8 54  1  0
  9 55  1  0
  9 56  1  0
 11 57  1  0
 12 58  1  0
 17 59  1  0
 17 60  1  0
 19 61  1  0
 19 62  1  0
 21 63  1  0
 22 64  1  0
 25 65  1  0
 25 66  1  0
 25 67  1  0
 26 68  1  0
 30 69  1  0
 36 70  1  0
M  CHG  2   9   1  33  -1
M  END
>  <UniqueID>  (24) 
22

>  <SMILES>  (24) 
CCN(CC)CCC[NH2+]c1ccc(C#C[C@]2(CN3Cc4ccc(OC)cc4C3=O)NC(=O)[N-]C2=O)cc1F

>  <Energy>  (24) 
108.2135172480736

>  <Genealogy>  (24) 
CCN(CC)CCC[NH2+]c1ccc(C#CC2(CN3Cc4ccc(OC)cc4C3=O)NC(=O)[N-]C2=O)cc1F (protonated)
CCN(CC)CCC[NH2+]c1ccc(C#C[C@]2(CN3Cc4ccc(OC)cc4C3=O)NC(=O)[N-]C2=O)cc1F (chirality)
CCN(CC)CCC[NH2+]c1ccc(C#C[C@]2(CN3Cc4ccc(OC)cc4C3=O)NC(=O)[N-]C2=O)cc1F (3D coordinates assigned)
CCN(CC)CCC[NH2+]c1ccc(C#C[C@]2(CN3Cc4ccc(OC)cc4C3=O)NC(=O)[N-]C2=O)cc1F (nonaromatic ring conformer: 108.2135172480736 kcal/mol)

>  <smiles>  (24) 
CCN(CC)CCCNc1ccc(C#CC2(CN3Cc4ccc(OC)cc4C3=O)NC(=O)NC2=O)cc1F

>  <score_type>  (24) 
oracle

>  <origin>  (24) 
adg

>  <m_score__min__energy>  (24) 
-8.5

>  <m_primary>  (24) 
energy

$$$$
24:0
     RDKit          3D

 40 43  0  0  0  0  0  0  0  0999 V2000
   53.9950   29.8800   52.3220 C   0  0  0  0  0  0  0  0  0  0  0  0
   55.1090   30.4690   52.9830 O   0  0  0  0  0  0  0  0  0  0  0  0
   56.2750   30.8440   52.3110 C   0  0  0  0  0  0  0  0  0  0  0  0
   56.6690   32.1450   52.2690 N   0  0  0  0  0  0  0  0  0  0  0  0
   57.8010   32.5150   51.6170 C   0  0  0  0  0  0  0  0  0  0  0  0
   58.5860   31.5550   50.9620 C   0  0  0  0  0  0  0  0  0  0  0  0
   59.8270   31.9540   50.2530 C   0  0  0  0  0  0  0  0  0  0  0  0
   61.1070   31.4370   50.6290 C   0  0  0  0  0  0  0  0  0  0  0  0
   62.2320   31.8060   49.9360 N   0  0  0  0  0  0  0  0  0  0  0  0
   62.0850   32.6700   48.9070 C   0  0  0  0  0  0  0  0  0  0  0  0
   63.0190   33.1160   48.0480 N   0  0  0  0  0  0  0  0  0  0  0  0
   62.3530   33.8800   47.1770 N   0  0  0  0  0  0  0  0  0  0  0  0
   61.0530   33.9210   47.4680 N   0  0  0  0  0  0  0  0  0  0  0  0
   60.0330   34.6060   46.6800 C   0  0  0  0  0  0  0  0  0  0  0  0
   59.1000   33.6010   46.0610 C   0  0  0  0  0  0  0  0  0  0  0  0
   59.4490   32.2440   46.0090 C   0  0  0  0  0  0  0  0  0  0  0  0
   58.6020   31.3200   45.3900 C   0  0  0  0  0  0  0  0  0  0  0  0
   57.3920   31.7400   44.8080 C   0  0  0  0  0  0  0  0  0  0  0  0
   56.5160   30.7920   44.1690 N   0  0  0  0  0  0  0  0  0  0  0  0
   55.7310   30.0960   44.8440 O   0  0  0  0  0  0  0  0  0  0  0  0
   56.5320   30.6370   42.8020 O   0  0  0  0  0  0  0  0  0  0  0  0
   57.0500   33.1030   44.8570 C   0  0  0  0  0  0  0  0  0  0  0  0
   57.9000   34.0260   45.4740 C   0  0  0  0  0  0  0  0  0  0  0  0
   60.8840   33.1580   48.5530 C   0  0  0  0  0  0  0  0  0  0  0  0
   59.7410   32.8150   49.1890 N   0  0  0  0  0  0  0  0  0  0  0  0
   58.1610   30.2180   51.0270 C   0  0  0  0  0  0  0  0  0  0  0  0
   57.0240   29.8940   51.6950 N   0  0  0  0  0  0  0  0  0  0  0  0
   53.2821   29.5031   53.0701 H   0  0  0  0  0  0  0  0  0  0  0  0
   53.5011   30.6348   51.6925 H   0  0  0  0  0  0  0  0  0  0  0  0
   54.3407   29.0468   51.6925 H   0  0  0  0  0  0  0  0  0  0  0  0
   58.1037   33.5724   51.6024 H   0  0  0  0  0  0  0  0  0  0  0  0
   61.1893   30.7411   51.4769 H   0  0  0  0  0  0  0  0  0  0  0  0
   63.1690   31.4180   50.1860 H   0  0  0  0  0  0  0  0  0  0  0  0
   59.4603   35.2808   47.3332 H   0  0  0  0  0  0  0  0  0  0  0  0
   60.5213   35.1847   45.8821 H   0  0  0  0  0  0  0  0  0  0  0  0
   60.3943   31.9046   46.4576 H   0  0  0  0  0  0  0  0  0  0  0  0
   58.8836   30.2571   45.3578 H   0  0  0  0  0  0  0  0  0  0  0  0
   56.1068   33.4457   44.4066 H   0  0  0  0  0  0  0  0  0  0  0  0
   57.6257   35.0910   45.4989 H   0  0  0  0  0  0  0  0  0  0  0  0
   58.7511   29.4307   50.5352 H   0  0  0  0  0  0  0  0  0  0  0  0
  1  2  1  0
  2  3  1  0
  3  4  2  0
  4  5  1  0
  5  6  2  0
  6  7  1  0
  7  8  2  0
  8  9  1  0
  9 10  2  0
 10 11  1  0
 11 12  2  0
 12 13  1  0
 13 14  1  0
 14 15  1  0
 15 16  2  0
 16 17  1  0
 17 18  2  0
 18 19  1  0
 19 20  2  0
 19 21  1  0
 18 22  1  0
 22 23  2  0
 13 24  1  0
 24 25  2  0
  6 26  1  0
 26 27  2  0
 27  3  1  0
 25  7  1  0
 24 10  1  0
 23 15  1  0
  1 28  1  0
  1 29  1  0
  1 30  1  0
  5 31  1  0
  8 32  1  0
  9 33  1  0
 14 34  1  0
 14 35  1  0
 16 36  1  0
 17 37  1  0
 22 38  1  0
 23 39  1  0
 26 40  1  0
M  CHG  3   9   1  19   1  21  -1
M  END
>  <UniqueID>  (25) 
23

>  <SMILES>  (25) 
COc1ncc(-c2c[nH+]c3nnn(Cc4ccc([N+](=O)[O-])cc4)c3n2)cn1

>  <Energy>  (25) 
96.02885540256577

>  <Genealogy>  (25) 
COc1ncc(-c2c[nH+]c3nnn(Cc4ccc([N+](=O)[O-])cc4)c3n2)cn1 (protonated)
COc1ncc(-c2c[nH+]c3nnn(Cc4ccc([N+](=O)[O-])cc4)c3n2)cn1 (3D coordinates assigned)
COc1ncc(-c2c[nH+]c3nnn(Cc4ccc([N+](=O)[O-])cc4)c3n2)cn1 (optimized conformer: 96.02885540256577 kcal/mol)

>  <smiles>  (25) 
COc1ncc(-c2cnc3nnn(Cc4ccc([N+](=O)[O-])cc4)c3n2)cn1

>  <score_type>  (25) 
oracle

>  <origin>  (25) 
adg

>  <m_score__min__energy>  (25) 
-7.0899999999999999

>  <m_primary>  (25) 
energy

$$$$
25:0
     RDKit          3D

 51 53  0  0  0  0  0  0  0  0999 V2000
   63.1050   33.8240   46.4680 C   0  0  0  0  0  0  0  0  0  0  0  0
   63.3340   33.5110   48.2470 S   0  0  0  0  0  0  0  0  0  0  0  0
   62.1320   32.1800   48.2890 C   0  0  0  0  0  0  0  0  0  0  0  0
   61.4660   31.8730   49.4800 C   0  0  0  0  0  0  0  0  0  0  0  0
   60.5330   30.8320   49.5160 C   0  0  0  0  0  0  0  0  0  0  0  0
   60.2590   30.0890   48.3560 C   0  0  0  0  0  0  0  0  0  0  0  0
   59.2800   28.9480   48.3910 C   0  0  0  0  0  0  0  0  0  0  0  0
   59.3080   28.2210   47.1240 N   0  0  0  0  0  0  0  0  0  0  0  0
   59.1500   26.7960   47.0490 C   0  0  0  0  0  0  0  0  0  0  0  0
   58.9010   26.1260   48.0870 O   0  0  0  0  0  0  0  0  0  0  0  0
   59.2290   26.1030   45.7260 C   0  0  0  0  0  0  0  0  0  0  0  0
   58.3760   27.0530   44.4790 S   0  0  0  0  0  0  0  0  0  0  0  0
   57.7940   26.1240   43.4500 O   0  0  0  0  0  0  0  0  0  0  0  0
   59.3440   27.9860   43.8100 O   0  0  0  0  0  0  0  0  0  0  0  0
   57.0700   28.0150   45.2250 C   0  0  0  0  0  0  0  0  0  0  0  0
   57.3090   29.4780   45.0150 C   0  0  0  0  0  0  0  0  0  0  0  0
   57.9050   30.2760   45.9210 N   0  0  0  0  0  0  0  0  0  0  0  0
   57.8440   31.5000   45.3520 C   0  0  0  0  0  0  0  0  0  0  0  0
   58.3750   32.7250   45.9820 C   0  0  0  0  0  0  0  0  0  0  0  0
   58.5100   32.7980   47.3790 C   0  0  0  0  0  0  0  0  0  0  0  0
   59.0190   33.9540   47.9800 C   0  0  0  0  0  0  0  0  0  0  0  0
   59.3960   35.0450   47.1920 C   0  0  0  0  0  0  0  0  0  0  0  0
   59.2650   34.9820   45.8020 C   0  0  0  0  0  0  0  0  0  0  0  0
   59.6330   36.0400   45.0390 F   0  0  0  0  0  0  0  0  0  0  0  0
   58.7560   33.8280   45.1970 C   0  0  0  0  0  0  0  0  0  0  0  0
   57.2510   31.4830   44.1760 O   0  0  0  0  0  0  0  0  0  0  0  0
   56.9040   30.2430   43.9400 C   0  0  0  0  0  0  0  0  0  0  0  0
   56.1890   29.7840   42.7120 C   0  0  0  0  0  0  0  0  0  0  0  0
   60.9380   30.3940   47.1660 C   0  0  0  0  0  0  0  0  0  0  0  0
   61.8680   31.4360   47.1330 C   0  0  0  0  0  0  0  0  0  0  0  0
   62.4606   34.7048   46.3307 H   0  0  0  0  0  0  0  0  0  0  0  0
   64.0829   34.0085   45.9993 H   0  0  0  0  0  0  0  0  0  0  0  0
   62.6332   32.9478   45.9993 H   0  0  0  0  0  0  0  0  0  0  0  0
   61.6768   32.4522   50.3911 H   0  0  0  0  0  0  0  0  0  0  0  0
   60.0123   30.5944   50.4553 H   0  0  0  0  0  0  0  0  0  0  0  0
   59.5488   28.2634   49.2089 H   0  0  0  0  0  0  0  0  0  0  0  0
   58.2682   29.3477   48.5535 H   0  0  0  0  0  0  0  0  0  0  0  0
   59.4530   28.7620   46.2430 H   0  0  0  0  0  0  0  0  0  0  0  0
   60.2845   25.9901   45.4377 H   0  0  0  0  0  0  0  0  0  0  0  0
   58.7543   25.1143   45.8104 H   0  0  0  0  0  0  0  0  0  0  0  0
   56.1091   27.7362   44.7680 H   0  0  0  0  0  0  0  0  0  0  0  0
   57.0505   27.8098   46.3055 H   0  0  0  0  0  0  0  0  0  0  0  0
   58.2139   31.9418   48.0029 H   0  0  0  0  0  0  0  0  0  0  0  0
   59.1227   34.0044   49.0739 H   0  0  0  0  0  0  0  0  0  0  0  0
   59.7959   35.9535   47.6660 H   0  0  0  0  0  0  0  0  0  0  0  0
   58.6533   33.7831   44.1027 H   0  0  0  0  0  0  0  0  0  0  0  0
   55.2957   29.2106   43.0006 H   0  0  0  0  0  0  0  0  0  0  0  0
   55.8871   30.6575   42.1154 H   0  0  0  0  0  0  0  0  0  0  0  0
   56.8575   29.1458   42.1154 H   0  0  0  0  0  0  0  0  0  0  0  0
   60.7370   29.8102   46.2556 H   0  0  0  0  0  0  0  0  0  0  0  0
   62.3941   31.6724   46.1963 H   0  0  0  0  0  0  0  0  0  0  0  0
  1  2  1  0
  2  3  1  0
  3  4  2  0
  4  5  1  0
  5  6  2  0
  6  7  1  0
  7  8  1  0
  8  9  1  0
  9 10  2  0
  9 11  1  0
 11 12  1  0
 12 13  2  0
 12 14  2  0
 12 15  1  0
 15 16  1  0
 16 17  1  0
 17 18  2  0
 18 19  1  0
 19 20  2  0
 20 21  1  0
 21 22  2  0
 22 23  1  0
 23 24  1  0
 23 25  2  0
 18 26  1  0
 26 27  1  0
 27 28  1  0
  6 29  1  0
 29 30  2  0
 30  3  1  0
 27 16  2  0
 25 19  1  0
  1 31  1  0
  1 32  1  0
  1 33  1  0
  4 34  1  0
  5 35  1  0
  7 36  1  0
  7 37  1  0
  8 38  1  0
 11 39  1  0
 11 40  1  0
 15 41  1  0
 15 42  1  0
 20 43  1  0
 21 44  1  0
 22 45  1  0
 25 46  1  0
 28 47  1  0
 28 48  1  0
 28 49  1  0
 29 50  1  0
 30 51  1  0
M  END
>  <UniqueID>  (26) 
24

>  <SMILES>  (26) 
CSc1ccc(CNC(=O)CS(=O)(=O)Cc2nc(-c3cccc(F)c3)oc2C)cc1

>  <Energy>  (26) 
64.12375511590257

>  <Genealogy>  (26) 
CSc1ccc(CNC(=O)CS(=O)(=O)Cc2nc(-c3cccc(F)c3)oc2C)cc1 (3D coordinates assigned)
CSc1ccc(CNC(=O)CS(=O)(=O)Cc2nc(-c3cccc(F)c3)oc2C)cc1 (optimized conformer: 64.12375511590257 kcal/mol)

>  <smiles>  (26) 
CSc1ccc(CNC(=O)CS(=O)(=O)Cc2nc(-c3cccc(F)c3)oc2C)cc1

>  <score_type>  (26) 
oracle

>  <origin>  (26) 
adg

>  <m_score__min__energy>  (26) 
-8.6600000000000001

>  <m_primary>  (26) 
energy

$$$$
26:0
     RDKit          3D

 46 48  0  0  1  0  0  0  0  0999 V2000
   59.4730   29.7880   48.5690 C   0  0  0  0  0  0  0  0  0  0  0  0
   59.6380   30.1820   47.1470 C   0  0  0  0  0  0  0  0  0  0  0  0
   60.9560   30.8650   46.8630 C   0  0  0  0  0  0  0  0  0  0  0  0
   58.6540   31.1970   46.8170 O   0  0  0  0  0  0  0  0  0  0  0  0
   58.8130   32.4580   46.4130 C   0  0  0  0  0  0  0  0  0  0  0  0
   59.3190   33.3990   47.3190 C   0  0  0  0  0  0  0  0  0  0  0  0
   59.5150   34.7190   46.9810 C   0  0  0  0  0  0  0  0  0  0  0  0
   59.2250   35.1980   45.7230 C   0  0  0  0  0  0  0  0  0  0  0  0
   58.7260   34.2900   44.8130 C   0  0  0  0  0  0  0  0  0  0  0  0
   58.5250   32.9590   45.1390 C   0  0  0  0  0  0  0  0  0  0  0  0
   57.9740   31.9190   43.8380 Cl  0  0  0  0  0  0  0  0  0  0  0  0
   59.3500   29.0590   46.2150 C   0  0  0  0  0  0  0  0  0  0  0  0
   60.2860   28.9530   45.3120 O   0  0  0  0  0  0  0  0  0  0  0  0
   58.3240   28.1480   46.1290 N   0  0  0  0  0  0  0  0  0  0  0  0
   58.6360   26.8420   46.4620 C   0  0  0  0  0  0  0  0  0  0  0  0
   57.7010   25.8340   46.4070 C   0  0  0  0  0  0  0  0  0  0  0  0
   56.4060   26.0850   46.0170 C   0  0  0  0  0  0  0  0  0  0  0  0
   55.5470   25.1240   45.9740 N   0  0  0  0  0  0  0  0  0  0  0  0
   55.9350   23.9630   45.2170 C   0  0  0  0  0  0  0  0  0  0  0  0
   56.1790   22.7670   45.8790 C   0  0  0  0  0  0  0  0  0  0  0  0
   56.5470   21.6860   45.1030 C   0  0  0  0  0  0  0  0  0  0  0  0
   56.6780   21.7510   43.7310 C   0  0  0  0  0  0  0  0  0  0  0  0
   56.4310   22.9500   43.0700 C   0  0  0  0  0  0  0  0  0  0  0  0
   56.0580   24.0500   43.8460 C   0  0  0  0  0  0  0  0  0  0  0  0
   56.1190   27.3570   45.6960 N   0  0  0  0  0  0  0  0  0  0  0  0
   57.0610   28.3260   45.7610 C   0  0  0  0  0  0  0  0  0  0  0  0
   56.6780   29.4960   45.4220 N   0  0  0  0  0  0  0  0  0  0  0  0
   59.8159   30.6069   49.2185 H   0  0  0  0  0  0  0  0  0  0  0  0
   58.4120   29.5796   48.7710 H   0  0  0  0  0  0  0  0  0  0  0  0
   60.0688   28.8857   48.7710 H   0  0  0  0  0  0  0  0  0  0  0  0
   61.4488   31.1204   47.8127 H   0  0  0  0  0  0  0  0  0  0  0  0
   61.6025   30.1884   46.2848 H   0  0  0  0  0  0  0  0  0  0  0  0
   60.7760   31.7833   46.2848 H   0  0  0  0  0  0  0  0  0  0  0  0
   59.5691   33.0709   48.3387 H   0  0  0  0  0  0  0  0  0  0  0  0
   59.9146   35.4107   47.7372 H   0  0  0  0  0  0  0  0  0  0  0  0
   59.3836   36.2535   45.4569 H   0  0  0  0  0  0  0  0  0  0  0  0
   58.4801   34.6332   43.7973 H   0  0  0  0  0  0  0  0  0  0  0  0
   59.6614   26.6024   46.7800 H   0  0  0  0  0  0  0  0  0  0  0  0
   57.9943   24.8095   46.6797 H   0  0  0  0  0  0  0  0  0  0  0  0
   56.0835   22.6846   46.9717 H   0  0  0  0  0  0  0  0  0  0  0  0
   56.7454   20.7264   45.6028 H   0  0  0  0  0  0  0  0  0  0  0  0
   56.9766   20.8582   43.1620 H   0  0  0  0  0  0  0  0  0  0  0  0
   56.5259   23.0289   41.9769 H   0  0  0  0  0  0  0  0  0  0  0  0
   55.8570   25.0113   43.3504 H   0  0  0  0  0  0  0  0  0  0  0  0
   55.1430   27.5640   45.3990 H   0  0  0  0  0  0  0  0  0  0  0  0
   56.7620   30.3710   45.9490 H   0  0  0  0  0  0  0  0  0  0  0  0
  1  2  1  0
  2  3  1  0
  2  4  1  0
  4  5  1  0
  5  6  2  0
  6  7  1  0
  7  8  2  0
  8  9  1  0
  9 10  2  0
 10 11  1  0
  2 12  1  0
 12 13  2  0
 12 14  1  0
 14 15  1  0
 15 16  2  0
 16 17  1  0
 17 18  2  0
 18 19  1  0
 19 20  2  0
 20 21  1  0
 21 22  2  0
 22 23  1  0
 23 24  2  0
 17 25  1  0
 25 26  1  0
 26 27  2  3
 10  5  1  0
 26 14  1  0
 24 19  1  0
  1 28  1  0
  1 29  1  0
  1 30  1  0
  3 31  1  0
  3 32  1  0
  3 33  1  0
  6 34  1  0
  7 35  1  0
  8 36  1  0
  9 37  1  0
 15 38  1  0
 16 39  1  0
 20 40  1  0
 21 41  1  0
 22 42  1  0
 23 43  1  0
 24 44  1  0
 25 45  1  0
 27 46  1  0
M  END
>  <smiles>  (27) 
CC(C)(Oc1ccccc1Cl)C(=O)n1ccc(=Nc2ccccc2)[nH]c1=N

>  <score_type>  (27) 
oracle

>  <origin>  (27) 
adg

>  <m_score__min__energy>  (27) 
-8.7699999999999996

>  <m_primary>  (27) 
energy

$$$$
27:0
     RDKit          3D

 47 48  0  0  0  0  0  0  0  0999 V2000
   60.4317   33.9815   44.0372 H   0  0  0  0  0  0  0  0  0  0  0  0
   59.7100   33.7990   44.8470 C   0  0  0  0  0  0  0  0  0  0  0  0
   58.4380   33.5670   44.4740 C   0  0  0  0  0  0  0  0  0  0  0  0
   58.1650   32.8400   43.2110 C   0  0  0  0  0  0  0  0  0  0  0  0
   58.4307   33.3389   42.2673 H   0  0  0  0  0  0  0  0  0  0  0  0
   57.6170   31.6170   43.1360 C   0  0  0  0  0  0  0  0  0  0  0  0
   57.0632   31.3594   42.2211 H   0  0  0  0  0  0  0  0  0  0  0  0
   57.7060   30.5940   44.1960 C   0  0  0  0  0  0  0  0  0  0  0  0
   57.1060   30.7610   45.2940 O   0  0  0  0  0  0  0  0  0  0  0  0
   58.4490   29.3910   43.9590 N   0  0  0  0  0  0  0  0  0  0  0  0
   58.8560   29.2260   43.0110 H   0  0  0  0  0  0  0  0  0  0  0  0
   58.6680   28.3820   44.9950 C   0  0  0  0  0  0  0  0  0  0  0  0
   58.7556   27.3946   44.5182 H   0  0  0  0  0  0  0  0  0  0  0  0
   57.8141   28.4106   45.6878 H   0  0  0  0  0  0  0  0  0  0  0  0
   59.9470   28.6620   45.7990 C   0  0  0  0  0  0  0  0  0  0  0  0
   60.8193   28.4295   45.1704 H   0  0  0  0  0  0  0  0  0  0  0  0
   59.9256   28.0318   46.7003 H   0  0  0  0  0  0  0  0  0  0  0  0
   60.0370   30.1300   46.2490 C   0  0  0  0  0  0  0  0  0  0  0  0
   59.0474   30.4534   46.6042 H   0  0  0  0  0  0  0  0  0  0  0  0
   60.3670   30.7289   45.3873 H   0  0  0  0  0  0  0  0  0  0  0  0
   61.0630   30.3270   47.3860 C   0  0  0  0  0  0  0  0  0  0  0  0
   61.3449   31.3897   47.4207 H   0  0  0  0  0  0  0  0  0  0  0  0
   61.9212   29.6755   47.1647 H   0  0  0  0  0  0  0  0  0  0  0  0
   60.5290   29.9190   48.7700 C   0  0  0  0  0  0  0  0  0  0  0  0
   60.8841   30.6491   49.5122 H   0  0  0  0  0  0  0  0  0  0  0  0
   60.9011   28.9057   48.9814 H   0  0  0  0  0  0  0  0  0  0  0  0
   59.0030   29.8680   48.8280 C   0  0  0  0  0  0  0  0  0  0  0  0
   58.6761   29.8571   49.8783 H   0  0  0  0  0  0  0  0  0  0  0  0
   58.5871   30.7527   48.3237 H   0  0  0  0  0  0  0  0  0  0  0  0
   58.6471   28.9575   48.3237 H   0  0  0  0  0  0  0  0  0  0  0  0
   57.2690   34.1120   45.2320 C   0  0  0  0  0  0  0  0  0  0  0  0
   56.3477   33.9363   44.6572 H   0  0  0  0  0  0  0  0  0  0  0  0
   57.4101   35.1917   45.3877 H   0  0  0  0  0  0  0  0  0  0  0  0
   57.1600   33.4220   46.5820 C   0  0  0  0  0  0  0  0  0  0  0  0
   57.3818   32.3513   46.4622 H   0  0  0  0  0  0  0  0  0  0  0  0
   56.1393   33.5519   46.9710 H   0  0  0  0  0  0  0  0  0  0  0  0
   58.0810   33.9920   47.4970 O   0  0  0  0  0  0  0  0  0  0  0  0
   59.4820   33.9200   47.4380 C   0  0  0  0  0  0  0  0  0  0  0  0
   60.1460   33.9350   48.6750 C   0  0  0  0  0  0  0  0  0  0  0  0
   59.4300   34.0040   49.8260 F   0  0  0  0  0  0  0  0  0  0  0  0
   61.5380   33.8920   48.7440 C   0  0  0  0  0  0  0  0  0  0  0  0
   62.0405   33.9040   49.7224 H   0  0  0  0  0  0  0  0  0  0  0  0
   62.2910   33.8340   47.5770 C   0  0  0  0  0  0  0  0  0  0  0  0
   63.3893   33.8079   47.6316 H   0  0  0  0  0  0  0  0  0  0  0  0
   61.6540   33.8090   46.3380 C   0  0  0  0  0  0  0  0  0  0  0  0
   62.2602   33.7673   45.4211 H   0  0  0  0  0  0  0  0  0  0  0  0
   60.2490   33.8360   46.2360 C   0  0  0  0  0  0  0  0  0  0  0  0
  1  2  1  0
  2  3  2  0
  3  4  1  0
  4  5  1  0
  4  6  2  0
  6  7  1  0
  6  8  1  0
  8  9  2  0
  8 10  1  0
 10 11  1  0
 10 12  1  0
 12 13  1  0
 12 14  1  0
 12 15  1  0
 15 16  1  0
 15 17  1  0
 15 18  1  0
 18 19  1  0
 18 20  1  0
 18 21  1  0
 21 22  1  0
 21 23  1  0
 21 24  1  0
 24 25  1  0
 24 26  1  0
 24 27  1  0
 27 28  1  0
 27 29  1  0
 27 30  1  0
  3 31  1  0
 31 32  1  0
 31 33  1  0
 31 34  1  0
 34 35  1  0
 34 36  1  0
 34 37  1  0
 37 38  1  0
 38 39  2  0
 39 40  1  0
 39 41  1  0
 41 42  1  0
 41 43  2  0
 43 44  1  0
 43 45  1  0
 45 46  1  0
 45 47  2  0
 47  2  1  0
 47 38  1  0
M  END
>  <UniqueID>  (28) 
25

>  <SMILES>  (28) 
CCCCCCNC(=O)/C=C\C1=Cc2cccc(F)c2OCC1

>  <Energy>  (28) 
52.586796845595586

>  <Genealogy>  (28) 
CCCCCCNC(=O)/C=C\C1=Cc2cccc(F)c2OCC1 (cis-trans isomerization)
CCCCCCNC(=O)/C=C\C1=Cc2cccc(F)c2OCC1 (3D coordinates assigned)
CCCCCCNC(=O)/C=C\C1=Cc2cccc(F)c2OCC1 (nonaromatic ring conformer: 52.586796845595586 kcal/mol)

>  <smiles>  (28) 
CCCCCCNC(=O)C=CC1=Cc2cccc(F)c2OCC1

>  <score_type>  (28) 
oracle

>  <origin>  (28) 
adg

>  <m_score__min__energy>  (28) 
-5.6699999999999999

>  <m_primary>  (28) 
energy

$$$$
28:0
     RDKit          3D

 40 41  0  0  0  0  0  0  0  0999 V2000
   55.9010   29.7690   44.8690 O   0  0  0  0  0  0  0  0  0  0  0  0
   56.9660   30.1000   44.2790 C   0  0  0  0  0  0  0  0  0  0  0  0
   57.3170   31.5470   44.1460 C   0  0  0  0  0  0  0  0  0  0  0  0
   56.6660   32.2950   45.2330 N   0  0  0  0  0  0  0  0  0  0  0  0
   57.4710   33.3780   45.8300 C   0  0  2  0  0  0  0  0  0  0  0  0
   58.3920   34.1170   44.8310 C   0  0  0  0  0  0  0  0  0  0  0  0
   59.3780   34.9560   45.6400 C   0  0  0  0  0  0  0  0  0  0  0  0
   59.6390   34.0500   47.1380 S   0  0  0  0  0  0  0  0  0  0  0  0
   59.5090   34.9360   48.3460 O   0  0  0  0  0  0  0  0  0  0  0  0
   60.9680   33.3490   47.1330 O   0  0  0  0  0  0  0  0  0  0  0  0
   58.3010   32.8990   47.0290 C   0  0  0  0  0  0  0  0  0  0  0  0
   57.8720   29.1000   43.7990 N   0  0  0  0  0  0  0  0  0  0  0  0
   57.7440   27.6840   44.1430 C   0  0  0  0  0  0  0  0  0  0  0  0
   58.8670   27.2390   45.0900 C   0  0  0  0  0  0  0  0  0  0  0  0
   59.2580   28.3410   46.0420 C   0  0  0  0  0  0  0  0  0  0  0  0
   60.3540   29.1720   45.7540 C   0  0  0  0  0  0  0  0  0  0  0  0
   60.7520   30.1560   46.6650 C   0  0  0  0  0  0  0  0  0  0  0  0
   60.0610   30.3160   47.8690 C   0  0  0  0  0  0  0  0  0  0  0  0
   58.9690   29.4940   48.1630 C   0  0  0  0  0  0  0  0  0  0  0  0
   58.5690   28.5080   47.2560 C   0  0  0  0  0  0  0  0  0  0  0  0
   58.4079   31.6705   44.2140 H   0  0  0  0  0  0  0  0  0  0  0  0
   56.9729   31.9270   43.1727 H   0  0  0  0  0  0  0  0  0  0  0  0
   55.7780   32.7070   44.8620 H   0  0  0  0  0  0  0  0  0  0  0  0
   56.7179   34.1025   46.1734 H   0  0  0  0  0  0  0  0  0  0  0  0
   58.9384   33.3874   44.2153 H   0  0  0  0  0  0  0  0  0  0  0  0
   57.7986   34.7585   44.1629 H   0  0  0  0  0  0  0  0  0  0  0  0
   60.3240   35.0750   45.0914 H   0  0  0  0  0  0  0  0  0  0  0  0
   58.9940   35.9684   45.8336 H   0  0  0  0  0  0  0  0  0  0  0  0
   58.6788   31.8803   46.8570 H   0  0  0  0  0  0  0  0  0  0  0  0
   57.7093   32.8600   47.9555 H   0  0  0  0  0  0  0  0  0  0  0  0
   58.6830   29.3930   43.2080 H   0  0  0  0  0  0  0  0  0  0  0  0
   56.7739   27.5206   44.6351 H   0  0  0  0  0  0  0  0  0  0  0  0
   57.8140   27.0931   43.2178 H   0  0  0  0  0  0  0  0  0  0  0  0
   58.5215   26.3711   45.6708 H   0  0  0  0  0  0  0  0  0  0  0  0
   59.7470   26.9797   44.4831 H   0  0  0  0  0  0  0  0  0  0  0  0
   60.9014   29.0481   44.8079 H   0  0  0  0  0  0  0  0  0  0  0  0
   61.6098   30.8045   46.4334 H   0  0  0  0  0  0  0  0  0  0  0  0
   60.3763   31.0888   48.5855 H   0  0  0  0  0  0  0  0  0  0  0  0
   58.4236   29.6232   49.1095 H   0  0  0  0  0  0  0  0  0  0  0  0
   57.7120   27.8605   47.4932 H   0  0  0  0  0  0  0  0  0  0  0  0
  1  2  2  0
  2  3  1  0
  3  4  1  0
  4  5  1  0
  5  6  1  0
  6  7  1  0
  7  8  1  0
  8  9  2  0
  8 10  2  0
  8 11  1  0
  2 12  1  0
 12 13  1  0
 13 14  1  0
 14 15  1  0
 15 16  2  0
 16 17  1  0
 17 18  2  0
 18 19  1  0
 19 20  2  0
 11  5  1  0
 20 15  1  0
  3 21  1  0
  3 22  1  0
  4 23  1  0
  5 24  1  1
  6 25  1  0
  6 26  1  0
  7 27  1  0
  7 28  1  0
 11 29  1  0
 11 30  1  0
 12 31  1  0
 13 32  1  0
 13 33  1  0
 14 34  1  0
 14 35  1  0
 16 36  1  0
 17 37  1  0
 18 38  1  0
 19 39  1  0
 20 40  1  0
M  END
>  <UniqueID>  (29) 
26

>  <SMILES>  (29) 
O=C(CN[C@@H]1CCS(=O)(=O)C1)NCCc1ccccc1

>  <Energy>  (29) 
32.41633407739129

>  <Genealogy>  (29) 
O=C(CN[C@@H]1CCS(=O)(=O)C1)NCCc1ccccc1 (chirality)
O=C(CN[C@@H]1CCS(=O)(=O)C1)NCCc1ccccc1 (3D coordinates assigned)
O=C(CN[C@@H]1CCS(=O)(=O)C1)NCCc1ccccc1 (nonaromatic ring conformer: 32.41633407739129 kcal/mol)

>  <smiles>  (29) 
O=C(CNC1CCS(=O)(=O)C1)NCCc1ccccc1

>  <score_type>  (29) 
oracle

>  <origin>  (29) 
adg

>  <m_score__min__energy>  (29) 
-7.8899999999999997

>  <m_primary>  (29) 
energy

$$$$
29:0
     RDKit          3D

 31 34  0  0  0  0  0  0  0  0999 V2000
   59.7480   35.4650   46.0010 C   0  0  0  0  0  0  0  0  0  0  0  0
   59.1610   34.1140   46.2540 C   0  0  0  0  0  0  0  0  0  0  0  0
   59.8900   33.0770   46.7560 N   0  0  0  0  0  0  0  0  0  0  0  0
   59.0520   32.0600   46.7040 N   0  0  0  0  0  0  0  0  0  0  0  0
   59.2560   30.7640   46.4640 C   0  0  0  0  0  0  0  0  0  0  0  0
   58.1400   30.3530   45.7310 C   0  0  0  0  0  0  0  0  0  0  0  0
   57.9210   29.0080   45.1840 C   0  0  0  0  0  0  0  0  0  0  0  0
   58.0940   28.6770   43.8780 N   0  0  0  0  0  0  0  0  0  0  0  0
   57.7860   27.3730   43.8470 C   0  0  0  0  0  0  0  0  0  0  0  0
   57.7880   26.5050   42.7570 C   0  0  0  0  0  0  0  0  0  0  0  0
   57.4210   25.1670   42.9940 C   0  0  0  0  0  0  0  0  0  0  0  0
   57.0660   24.7380   44.2970 C   0  0  0  0  0  0  0  0  0  0  0  0
   56.5700   22.9190   44.5970 Br  0  0  0  0  0  0  0  0  0  0  0  0
   57.0770   25.6480   45.3720 C   0  0  0  0  0  0  0  0  0  0  0  0
   57.4450   26.9620   45.1010 C   0  0  0  0  0  0  0  0  0  0  0  0
   57.5310   27.9800   45.9220 O   0  0  0  0  0  0  0  0  0  0  0  0
   57.3220   31.4090   45.4550 N   0  0  0  0  0  0  0  0  0  0  0  0
   57.9380   32.4110   46.1110 C   0  0  0  0  0  0  0  0  0  0  0  0
   57.9280   33.7190   45.8130 N   0  0  0  0  0  0  0  0  0  0  0  0
   57.0500   34.4050   44.8710 C   0  0  0  0  0  0  0  0  0  0  0  0
   59.9620   35.9575   46.9611 H   0  0  0  0  0  0  0  0  0  0  0  0
   60.6808   35.3580   45.4279 H   0  0  0  0  0  0  0  0  0  0  0  0
   59.0333   36.0738   45.4279 H   0  0  0  0  0  0  0  0  0  0  0  0
   60.1155   30.1522   46.7753 H   0  0  0  0  0  0  0  0  0  0  0  0
   58.3970   29.2860   43.0840 H   0  0  0  0  0  0  0  0  0  0  0  0
   58.0655   26.8519   41.7507 H   0  0  0  0  0  0  0  0  0  0  0  0
   57.4097   24.4486   42.1611 H   0  0  0  0  0  0  0  0  0  0  0  0
   56.8044   25.3311   46.3895 H   0  0  0  0  0  0  0  0  0  0  0  0
   56.3017   34.9896   45.4263 H   0  0  0  0  0  0  0  0  0  0  0  0
   57.6461   35.0790   44.2383 H   0  0  0  0  0  0  0  0  0  0  0  0
   56.5402   33.6635   44.2383 H   0  0  0  0  0  0  0  0  0  0  0  0
  1  2  1  0
  2  3  2  0
  3  4  1  0
  4  5  1  0
  5  6  2  0
  6  7  1  0
  7  8  2  0
  8  9  1  0
  9 10  2  0
 10 11  1  0
 11 12  2  0
 12 13  1  0
 12 14  1  0
 14 15  2  0
 15 16  1  0
  6 17  1  0
 17 18  2  0
 18 19  1  0
 19 20  1  0
 19  2  1  0
 18  4  1  0
 16  7  1  0
 15  9  1  0
  1 21  1  0
  1 22  1  0
  1 23  1  0
  5 24  1  0
  8 25  1  0
 10 26  1  0
 11 27  1  0
 14 28  1  0
 20 29  1  0
 20 30  1  0
 20 31  1  0
M  CHG  1   8   1
M  END
>  <UniqueID>  (30) 
27

>  <SMILES>  (30) 
Cc1nn2cc(-c3[nH+]c4ccc(Br)cc4o3)nc2n1C

>  <Energy>  (30) 
166.2123092570919

>  <Genealogy>  (30) 
Cc1nn2cc(-c3[nH+]c4ccc(Br)cc4o3)nc2n1C (protonated)
Cc1nn2cc(-c3[nH+]c4ccc(Br)cc4o3)nc2n1C (3D coordinates assigned)
Cc1nn2cc(-c3[nH+]c4ccc(Br)cc4o3)nc2n1C (optimized conformer: 166.2123092570919 kcal/mol)

>  <smiles>  (30) 
Cc1nn2cc(-c3nc4ccc(Br)cc4o3)nc2n1C

>  <score_type>  (30) 
oracle

>  <origin>  (30) 
adg

>  <m_score__min__energy>  (30) 
-5.4699999999999998

>  <m_primary>  (30) 
energy

$$$$
30:0
     RDKit          3D

 35 36  0  0  0  0  0  0  0  0999 V2000
   57.7400   32.0250   42.0120 C   0  0  0  0  0  0  0  0  0  0  0  0
   57.7730   32.7100   43.3740 C   0  0  0  0  0  0  0  0  0  0  0  0
   57.8470   31.7110   44.4530 N   0  0  0  0  0  0  0  0  0  0  0  0
   57.5350   30.3060   44.1390 C   0  0  0  0  0  0  0  0  0  0  0  0
   56.0260   30.0780   44.1450 C   0  0  0  0  0  0  0  0  0  0  0  0
   58.2070   32.1130   45.7980 C   0  0  0  0  0  0  0  0  0  0  0  0
   58.7830   31.0310   46.8890 S   0  0  0  0  0  0  0  0  0  0  0  0
   58.1160   33.8360   46.3140 S   0  0  0  0  0  0  0  0  0  0  0  0
   59.7590   34.2850   45.6570 C   0  0  0  0  0  0  0  0  0  0  0  0
   60.8280   34.0170   46.6700 C   0  0  0  0  0  0  0  0  0  0  0  0
   60.7060   34.2130   48.0390 C   0  0  0  0  0  0  0  0  0  0  0  0
   61.8730   33.8430   48.5810 N   0  0  0  0  0  0  0  0  0  0  0  0
   62.2810   33.8260   49.8720 C   0  0  0  0  0  0  0  0  0  0  0  0
   63.5800   33.3760   50.1400 C   0  0  0  0  0  0  0  0  0  0  0  0
   64.3910   32.9640   49.0640 C   0  0  0  0  0  0  0  0  0  0  0  0
   63.9160   33.0050   47.7830 N   0  0  0  0  0  0  0  0  0  0  0  0
   62.6520   33.4480   47.5650 C   0  0  0  0  0  0  0  0  0  0  0  0
   62.0570   33.5370   46.3590 N   0  0  0  0  0  0  0  0  0  0  0  0
   57.6875   30.9351   42.1509 H   0  0  0  0  0  0  0  0  0  0  0  0
   56.8572   32.3661   41.4513 H   0  0  0  0  0  0  0  0  0  0  0  0
   58.6515   32.2797   41.4513 H   0  0  0  0  0  0  0  0  0  0  0  0
   58.6540   33.3664   43.4276 H   0  0  0  0  0  0  0  0  0  0  0  0
   56.8524   33.2992   43.4978 H   0  0  0  0  0  0  0  0  0  0  0  0
   57.9340   30.0605   43.1437 H   0  0  0  0  0  0  0  0  0  0  0  0
   57.9947   29.6609   44.9022 H   0  0  0  0  0  0  0  0  0  0  0  0
   55.6675   30.0238   45.1835 H   0  0  0  0  0  0  0  0  0  0  0  0
   55.5273   30.9110   43.6279 H   0  0  0  0  0  0  0  0  0  0  0  0
   55.7956   29.1349   43.6279 H   0  0  0  0  0  0  0  0  0  0  0  0
   59.9609   33.6906   44.7537 H   0  0  0  0  0  0  0  0  0  0  0  0
   59.7615   35.3586   45.4174 H   0  0  0  0  0  0  0  0  0  0  0  0
   59.8243   34.5967   48.5731 H   0  0  0  0  0  0  0  0  0  0  0  0
   61.6146   34.1546   50.6831 H   0  0  0  0  0  0  0  0  0  0  0  0
   63.9601   33.3448   51.1718 H   0  0  0  0  0  0  0  0  0  0  0  0
   65.4135   32.6069   49.2562 H   0  0  0  0  0  0  0  0  0  0  0  0
   64.5180   32.6990   46.9860 H   0  0  0  0  0  0  0  0  0  0  0  0
  1  2  1  0
  2  3  1  0
  3  4  1  0
  4  5  1  0
  3  6  1  0
  6  7  2  0
  6  8  1  0
  8  9  1  0
  9 10  1  0
 10 11  2  0
 11 12  1  0
 12 13  1  0
 13 14  2  0
 14 15  1  0
 15 16  2  0
 16 17  1  0
 17 18  2  0
 18 10  1  0
 17 12  1  0
  1 19  1  0
  1 20  1  0
  1 21  1  0
  2 22  1  0
  2 23  1  0
  4 24  1  0
  4 25  1  0
  5 26  1  0
  5 27  1  0
  5 28  1  0
  9 29  1  0
  9 30  1  0
 11 31  1  0
 13 32  1  0
 14 33  1  0
 15 34  1  0
 16 35  1  0
M  CHG  1  16   1
M  END
>  <UniqueID>  (31) 
28

>  <SMILES>  (31) 
CCN(CC)C(=S)SCc1cn2ccc[nH+]c2n1

>  <Energy>  (31) 
58.5176916513971

>  <Genealogy>  (31) 
CCN(CC)C(=S)SCc1cn2ccc[nH+]c2n1 (protonated)
CCN(CC)C(=S)SCc1cn2ccc[nH+]c2n1 (3D coordinates assigned)
CCN(CC)C(=S)SCc1cn2ccc[nH+]c2n1 (optimized conformer: 58.5176916513971 kcal/mol)

>  <smiles>  (31) 
CCN(CC)C(=S)SCc1cn2cccnc2n1

>  <score_type>  (31) 
oracle

>  <origin>  (31) 
adg

>  <m_score__min__energy>  (31) 
-5.3300000000000001

>  <m_primary>  (31) 
energy

$$$$
31:0
     RDKit          3D

 56 57  0  0  0  0  0  0  0  0999 V2000
   58.3570   30.5870   47.4050 N   0  0  0  0  0  0  0  0  0  0  0  0
   59.7950   30.7410   47.6250 C   0  0  0  0  0  0  0  0  0  0  0  0
   60.5830   30.2890   46.3910 C   0  0  0  0  0  0  0  0  0  0  0  0
   59.6920   30.0650   45.2410 N   0  0  0  0  0  0  0  0  0  0  0  0
   59.5850   28.6350   44.9070 C   0  0  0  0  0  0  0  0  0  0  0  0
   58.3980   27.9980   45.6470 C   0  0  0  0  0  0  0  0  0  0  0  0
   57.0510   28.5020   45.1140 C   0  0  0  0  0  0  0  0  0  0  0  0
   56.9990   29.9120   45.2190 O   0  0  0  0  0  0  0  0  0  0  0  0
   56.0320   30.4500   44.3340 C   0  0  0  0  0  0  0  0  0  0  0  0
   56.6410   30.6130   42.9330 C   0  0  0  0  0  0  0  0  0  0  0  0
   57.8870   31.5150   42.9010 C   0  0  0  0  0  0  0  0  0  0  0  0
   57.7980   32.7550   43.8050 C   0  0  0  0  0  0  0  0  0  0  0  0
   58.4950   32.5440   45.0830 N   0  0  0  0  0  0  0  0  0  0  0  0
   58.0750   33.5720   46.0480 C   0  0  0  0  0  0  0  0  0  0  0  0
   59.1940   34.5890   46.3080 C   0  0  0  0  0  0  0  0  0  0  0  0
   60.0390   34.2030   47.4900 C   0  0  0  0  0  0  0  0  0  0  0  0
   59.6500   34.2090   48.8230 C   0  0  0  0  0  0  0  0  0  0  0  0
   60.6870   33.8630   49.6210 N   0  0  0  0  0  0  0  0  0  0  0  0
   61.7280   33.6380   48.8010 C   0  0  0  0  0  0  0  0  0  0  0  0
   63.0210   33.2590   49.1620 C   0  0  0  0  0  0  0  0  0  0  0  0
   63.9630   33.0750   48.1340 C   0  0  0  0  0  0  0  0  0  0  0  0
   63.5980   33.2800   46.7840 C   0  0  0  0  0  0  0  0  0  0  0  0
   62.2860   33.6680   46.4510 C   0  0  0  0  0  0  0  0  0  0  0  0
   61.3720   33.8370   47.4920 C   0  0  0  0  0  0  0  0  0  0  0  0
   58.1950   29.6220   47.0360 H   0  0  0  0  0  0  0  0  0  0  0  0
   58.0680   31.2450   46.6430 H   0  0  0  0  0  0  0  0  0  0  0  0
   60.0180   31.7988   47.8283 H   0  0  0  0  0  0  0  0  0  0  0  0
   60.0906   30.1173   48.4815 H   0  0  0  0  0  0  0  0  0  0  0  0
   61.3168   31.0657   46.1300 H   0  0  0  0  0  0  0  0  0  0  0  0
   61.0881   29.3413   46.6291 H   0  0  0  0  0  0  0  0  0  0  0  0
   58.7350   30.3920   45.5150 H   0  0  0  0  0  0  0  0  0  0  0  0
   59.4362   28.5265   43.8225 H   0  0  0  0  0  0  0  0  0  0  0  0
   60.5108   28.1270   45.2148 H   0  0  0  0  0  0  0  0  0  0  0  0
   58.4444   26.9064   45.5194 H   0  0  0  0  0  0  0  0  0  0  0  0
   58.4696   28.2780   46.7084 H   0  0  0  0  0  0  0  0  0  0  0  0
   56.9412   28.2087   44.0595 H   0  0  0  0  0  0  0  0  0  0  0  0
   56.2349   28.0604   45.7048 H   0  0  0  0  0  0  0  0  0  0  0  0
   55.1686   29.7706   44.2799 H   0  0  0  0  0  0  0  0  0  0  0  0
   55.7077   31.4333   44.7053 H   0  0  0  0  0  0  0  0  0  0  0  0
   56.9232   29.6177   42.5591 H   0  0  0  0  0  0  0  0  0  0  0  0
   55.8780   31.0966   42.3053 H   0  0  0  0  0  0  0  0  0  0  0  0
   58.7527   30.9170   43.2219 H   0  0  0  0  0  0  0  0  0  0  0  0
   57.9795   31.8852   41.8693 H   0  0  0  0  0  0  0  0  0  0  0  0
   58.2561   33.6094   43.2853 H   0  0  0  0  0  0  0  0  0  0  0  0
   56.7367   32.9491   44.0196 H   0  0  0  0  0  0  0  0  0  0  0  0
   58.1930   31.6110   45.4530 H   0  0  0  0  0  0  0  0  0  0  0  0
   57.1973   34.1007   45.6479 H   0  0  0  0  0  0  0  0  0  0  0  0
   57.8325   33.0747   46.9987 H   0  0  0  0  0  0  0  0  0  0  0  0
   59.8354   34.6477   45.4163 H   0  0  0  0  0  0  0  0  0  0  0  0
   58.7273   35.5611   46.5255 H   0  0  0  0  0  0  0  0  0  0  0  0
   58.6404   34.4598   49.1804 H   0  0  0  0  0  0  0  0  0  0  0  0
   60.6790   33.7920   50.6610 H   0  0  0  0  0  0  0  0  0  0  0  0
   63.2950   33.1089   50.2167 H   0  0  0  0  0  0  0  0  0  0  0  0
   64.9902   32.7697   48.3822 H   0  0  0  0  0  0  0  0  0  0  0  0
   64.3437   33.1355   45.9883 H   0  0  0  0  0  0  0  0  0  0  0  0
   61.9910   33.8326   45.4041 H   0  0  0  0  0  0  0  0  0  0  0  0
  1  2  1  0
  2  3  1  0
  3  4  1  0
  4  5  1  0
  5  6  1  0
  6  7  1  0
  7  8  1  0
  8  9  1  0
  9 10  1  0
 10 11  1  0
 11 12  1  0
 12 13  1  0
 13 14  1  0
 14 15  1  0
 15 16  1  0
 16 17  2  0
 17 18  1  0
 18 19  1  0
 19 20  2  0
 20 21  1  0
 21 22  2  0
 22 23  1  0
 23 24  2  0
 24 16  1  0
 24 19  1  0
  1 25  1  0
  1 26  1  0
  2 27  1  0
  2 28  1  0
  3 29  1  0
  3 30  1  0
  4 31  1  0
  5 32  1  0
  5 33  1  0
  6 34  1  0
  6 35  1  0
  7 36  1  0
  7 37  1  0
  9 38  1  0
  9 39  1  0
 10 40  1  0
 10 41  1  0
 11 42  1  0
 11 43  1  0
 12 44  1  0
 12 45  1  0
 13 46  1  0
 14 47  1  0
 14 48  1  0
 15 49  1  0
 15 50  1  0
 17 51  1  0
 18 52  1  0
 20 53  1  0
 21 54  1  0
 22 55  1  0
 23 56  1  0
M  END
>  <UniqueID>  (32) 
29

>  <SMILES>  (32) 
NCCNCCCOCCCCNCCc1c[nH]c2ccccc12

>  <Energy>  (32) 
70.8491353820181

>  <Genealogy>  (32) 
NCCNCCCOCCCCNCCc1c[nH]c2ccccc12 (3D coordinates assigned)
NCCNCCCOCCCCNCCc1c[nH]c2ccccc12 (optimized conformer: 70.8491353820181 kcal/mol)

>  <smiles>  (32) 
NCCNCCCOCCCCNCCc1c[nH]c2ccccc12

>  <score_type>  (32) 
oracle

>  <origin>  (32) 
adg

>  <m_score__min__energy>  (32) 
-5.1500000000000004

>  <m_primary>  (32) 
energy

$$$$
32:0
     RDKit          3D

 49 52  0  0  0  0  0  0  0  0999 V2000
   66.0470   32.6630   50.1210 C   0  0  0  0  0  0  0  0  0  0  0  0
   65.1550   33.4370   49.3290 O   0  0  0  0  0  0  0  0  0  0  0  0
   63.8100   33.1080   49.1050 C   0  0  0  0  0  0  0  0  0  0  0  0
   63.3880   32.3800   47.9760 C   0  0  0  0  0  0  0  0  0  0  0  0
   62.0370   32.0690   47.8040 C   0  0  0  0  0  0  0  0  0  0  0  0
   61.0880   32.4720   48.7580 C   0  0  0  0  0  0  0  0  0  0  0  0
   59.6370   32.0960   48.5980 C   0  0  0  0  0  0  0  0  0  0  0  0
   59.4860   30.8310   47.8710 N   0  0  0  0  0  0  0  0  0  0  0  0
   59.8110   29.6110   48.3440 C   0  0  0  0  0  0  0  0  0  0  0  0
   59.4870   28.6710   47.3900 C   0  0  0  0  0  0  0  0  0  0  0  0
   58.9540   29.2990   46.3270 N   0  0  0  0  0  0  0  0  0  0  0  0
   58.9480   30.6070   46.6490 C   0  0  0  0  0  0  0  0  0  0  0  0
   58.4710   31.6500   45.7300 C   0  0  0  0  0  0  0  0  0  0  0  0
   58.6290   32.9670   45.9800 N   0  0  0  0  0  0  0  0  0  0  0  0
   58.0830   33.5730   44.9070 C   0  0  0  0  0  0  0  0  0  0  0  0
   57.6120   32.6250   44.0270 C   0  0  0  0  0  0  0  0  0  0  0  0
   57.8500   31.4110   44.5550 N   0  0  0  0  0  0  0  0  0  0  0  0
   57.6270   30.1250   43.8970 C   0  0  0  0  0  0  0  0  0  0  0  0
   56.2850   29.5360   44.3260 C   0  0  0  0  0  0  0  0  0  0  0  0
   56.4540   28.7840   45.5670 N   0  0  0  0  0  0  0  0  0  0  0  0
   56.5800   27.4930   45.6210 C   0  0  0  0  0  0  0  0  0  0  0  0
   55.5320   26.6980   45.9870 N   0  0  0  0  0  0  0  0  0  0  0  0
   55.6630   25.3470   46.0430 C   0  0  0  0  0  0  0  0  0  0  0  0
   56.8860   24.7550   45.7290 C   0  0  0  0  0  0  0  0  0  0  0  0
   57.9470   25.5790   45.3590 C   0  0  0  0  0  0  0  0  0  0  0  0
   57.7770   26.9270   45.3120 N   0  0  0  0  0  0  0  0  0  0  0  0
   61.5060   33.2120   49.8730 C   0  0  0  0  0  0  0  0  0  0  0  0
   62.8580   33.5240   50.0450 C   0  0  0  0  0  0  0  0  0  0  0  0
   65.8407   32.8420   51.1866 H   0  0  0  0  0  0  0  0  0  0  0  0
   65.9065   31.5958   49.8946 H   0  0  0  0  0  0  0  0  0  0  0  0
   67.0838   32.9525   49.8946 H   0  0  0  0  0  0  0  0  0  0  0  0
   64.1248   32.0550   47.2267 H   0  0  0  0  0  0  0  0  0  0  0  0
   61.7144   31.5052   46.9163 H   0  0  0  0  0  0  0  0  0  0  0  0
   59.1829   31.9919   49.5945 H   0  0  0  0  0  0  0  0  0  0  0  0
   59.1372   32.8876   48.0204 H   0  0  0  0  0  0  0  0  0  0  0  0
   60.2594   29.4013   49.3263 H   0  0  0  0  0  0  0  0  0  0  0  0
   59.6393   27.5855   47.4827 H   0  0  0  0  0  0  0  0  0  0  0  0
   58.6240   28.8610   45.4380 H   0  0  0  0  0  0  0  0  0  0  0  0
   58.0228   34.6611   44.7571 H   0  0  0  0  0  0  0  0  0  0  0  0
   57.1259   32.8253   43.0608 H   0  0  0  0  0  0  0  0  0  0  0  0
   57.6276   30.2703   42.8066 H   0  0  0  0  0  0  0  0  0  0  0  0
   58.4307   29.4314   44.1851 H   0  0  0  0  0  0  0  0  0  0  0  0
   55.5626   30.3498   44.4866 H   0  0  0  0  0  0  0  0  0  0  0  0
   55.9130   28.8634   43.5391 H   0  0  0  0  0  0  0  0  0  0  0  0
   54.8066   24.7216   46.3353 H   0  0  0  0  0  0  0  0  0  0  0  0
   57.0102   23.6629   45.7724 H   0  0  0  0  0  0  0  0  0  0  0  0
   58.9224   25.1386   45.1049 H   0  0  0  0  0  0  0  0  0  0  0  0
   60.7674   33.5485   50.6154 H   0  0  0  0  0  0  0  0  0  0  0  0
   63.1769   34.1009   50.9256 H   0  0  0  0  0  0  0  0  0  0  0  0
  1  2  1  0
  2  3  1  0
  3  4  2  0
  4  5  1  0
  5  6  2  0
  6  7  1  0
  7  8  1  0
  8  9  1  0
  9 10  2  0
 10 11  1  0
 11 12  2  0
 12 13  1  0
 13 14  2  0
 14 15  1  0
 15 16  2  0
 16 17  1  0
 17 18  1  0
 18 19  1  0
 19 20  1  0
 20 21  2  3
 21 22  1  0
 22 23  2  0
 23 24  1  0
 24 25  2  0
 25 26  1  0
  6 27  1  0
 27 28  2  0
 28  3  1  0
 12  8  1  0
 17 13  1  0
 26 21  1  0
  1 29  1  0
  1 30  1  0
  1 31  1  0
  4 32  1  0
  5 33  1  0
  7 34  1  0
  7 35  1  0
  9 36  1  0
 10 37  1  0
 11 38  1  0
 15 39  1  0
 16 40  1  0
 18 41  1  0
 18 42  1  0
 19 43  1  0
 19 44  1  0
 23 45  1  0
 24 46  1  0
 25 47  1  0
 27 48  1  0
 28 49  1  0
M  CHG  2  11   1  26  -1
M  END
>  <UniqueID>  (33) 
30

>  <SMILES>  (33) 
COc1ccc(Cn2cc[nH+]c2-c2nccn2CCN=c2nccc[n-]2)cc1

>  <Energy>  (33) 
113.82226633601226

>  <Genealogy>  (33) 
COc1ccc(Cn2cc[nH+]c2-c2nccn2CCN=c2nccc[n-]2)cc1 (protonated)
COc1ccc(Cn2cc[nH+]c2-c2nccn2CCN=c2nccc[n-]2)cc1 (3D coordinates assigned)
COc1ccc(Cn2cc[nH+]c2-c2nccn2CCN=c2nccc[n-]2)cc1 (optimized conformer: 113.82226633601226 kcal/mol)

>  <smiles>  (33) 
COc1ccc(Cn2ccnc2-c2nccn2CCN=c2nccc[nH]2)cc1

>  <score_type>  (33) 
oracle

>  <origin>  (33) 
adg

>  <m_score__min__energy>  (33) 
-7.1600000000000001

>  <m_primary>  (33) 
energy

$$$$
33:0
     RDKit          3D

 32 33  0  0  0  0  0  0  0  0999 V2000
   61.1960   28.6900   44.8730 C   0  0  0  0  0  0  0  0  0  0  0  0
   59.7790   28.3480   45.0520 N   0  0  0  0  0  0  0  0  0  0  0  0
   58.8220   29.1540   44.5130 C   0  0  0  0  0  0  0  0  0  0  0  0
   57.4710   28.8790   44.7060 C   0  0  0  0  0  0  0  0  0  0  0  0
   56.2440   29.9530   44.0220 S   0  0  0  0  0  0  0  0  0  0  0  0
   54.8780   29.3340   44.1280 O   0  0  0  0  0  0  0  0  0  0  0  0
   56.5630   30.1940   42.5740 O   0  0  0  0  0  0  0  0  0  0  0  0
   56.2320   31.4750   44.8550 N   0  0  0  0  0  0  0  0  0  0  0  0
   57.3960   32.2380   45.2000 C   0  0  0  0  0  0  0  0  0  0  0  0
   57.8010   33.3650   44.4600 C   0  0  0  0  0  0  0  0  0  0  0  0
   58.9380   34.0860   44.8400 C   0  0  0  0  0  0  0  0  0  0  0  0
   59.6780   33.6890   45.9560 C   0  0  0  0  0  0  0  0  0  0  0  0
   59.2840   32.5710   46.6940 C   0  0  0  0  0  0  0  0  0  0  0  0
   58.1470   31.8480   46.3170 C   0  0  0  0  0  0  0  0  0  0  0  0
   57.1210   27.7400   45.4410 C   0  0  0  0  0  0  0  0  0  0  0  0
   55.9020   27.4690   45.6220 O   0  0  0  0  0  0  0  0  0  0  0  0
   58.0960   26.9280   45.9610 N   0  0  0  0  0  0  0  0  0  0  0  0
   57.7210   25.7520   46.7640 C   0  0  0  0  0  0  0  0  0  0  0  0
   59.4190   27.2540   45.7960 C   0  0  0  0  0  0  0  0  0  0  0  0
   60.3160   26.5440   46.3350 O   0  0  0  0  0  0  0  0  0  0  0  0
   61.6726   28.8050   45.8577 H   0  0  0  0  0  0  0  0  0  0  0  0
   61.6991   27.8875   44.3136 H   0  0  0  0  0  0  0  0  0  0  0  0
   61.2776   29.6336   44.3136 H   0  0  0  0  0  0  0  0  0  0  0  0
   59.1198   30.0309   43.9193 H   0  0  0  0  0  0  0  0  0  0  0  0
   57.2213   33.6798   43.5798 H   0  0  0  0  0  0  0  0  0  0  0  0
   59.2496   34.9666   44.2592 H   0  0  0  0  0  0  0  0  0  0  0  0
   60.5716   34.2573   46.2537 H   0  0  0  0  0  0  0  0  0  0  0  0
   59.8679   32.2585   47.5723 H   0  0  0  0  0  0  0  0  0  0  0  0
   57.8406   30.9677   46.9012 H   0  0  0  0  0  0  0  0  0  0  0  0
   57.7994   25.9980   47.8333 H   0  0  0  0  0  0  0  0  0  0  0  0
   56.6860   25.4626   46.5293 H   0  0  0  0  0  0  0  0  0  0  0  0
   58.3974   24.9169   46.5293 H   0  0  0  0  0  0  0  0  0  0  0  0
  1  2  1  0
  2  3  1  0
  3  4  2  0
  4  5  1  0
  5  6  2  0
  5  7  2  0
  5  8  1  0
  8  9  1  0
  9 10  2  0
 10 11  1  0
 11 12  2  0
 12 13  1  0
 13 14  2  0
  4 15  1  0
 15 16  2  0
 15 17  1  0
 17 18  1  0
 17 19  1  0
 19 20  2  0
 19  2  1  0
 14  9  1  0
  1 21  1  0
  1 22  1  0
  1 23  1  0
  3 24  1  0
 10 25  1  0
 11 26  1  0
 12 27  1  0
 13 28  1  0
 14 29  1  0
 18 30  1  0
 18 31  1  0
 18 32  1  0
M  CHG  1   8  -1
M  END
>  <UniqueID>  (34) 
31

>  <SMILES>  (34) 
Cn1cc(S(=O)(=O)[N-]c2ccccc2)c(=O)n(C)c1=O

>  <Energy>  (34) 
41.92724710854163

>  <Genealogy>  (34) 
Cn1cc(S(=O)(=O)[N-]c2ccccc2)c(=O)n(C)c1=O (protonated)
Cn1cc(S(=O)(=O)[N-]c2ccccc2)c(=O)n(C)c1=O (3D coordinates assigned)
Cn1cc(S(=O)(=O)[N-]c2ccccc2)c(=O)n(C)c1=O (optimized conformer: 41.92724710854163 kcal/mol)

>  <smiles>  (34) 
Cn1cc(S(=O)(=O)Nc2ccccc2)c(=O)n(C)c1=O

>  <score_type>  (34) 
oracle

>  <origin>  (34) 
adg

>  <m_score__min__energy>  (34) 
-8.7300000000000004

>  <m_primary>  (34) 
energy

$$$$
34:0
     RDKit          3D

 52 54  0  0  0  0  0  0  0  0999 V2000
   58.6590   30.9280   50.2800 C   0  0  0  0  0  0  0  0  0  0  0  0
   59.9350   30.0750   50.2140 C   0  0  0  0  0  0  0  0  0  0  0  0
   60.2800   29.6240   48.8460 N   0  0  0  0  0  0  0  0  0  0  0  0
   59.6650   28.3150   48.5110 C   0  0  0  0  0  0  0  0  0  0  0  0
   60.7570   27.2640   48.2960 C   0  0  0  0  0  0  0  0  0  0  0  0
   60.6020   26.4350   46.6740 S   0  0  0  0  0  0  0  0  0  0  0  0
   59.4570   27.6260   45.9710 C   0  0  0  0  0  0  0  0  0  0  0  0
   59.9270   28.7320   45.2570 C   0  0  0  0  0  0  0  0  0  0  0  0
   59.0120   29.6390   44.7190 C   0  0  0  0  0  0  0  0  0  0  0  0
   57.6340   29.4230   44.8720 C   0  0  0  0  0  0  0  0  0  0  0  0
   56.6520   30.3360   44.2490 C   0  0  0  0  0  0  0  0  0  0  0  0
   56.1240   30.0260   43.1490 O   0  0  0  0  0  0  0  0  0  0  0  0
   56.3300   31.5990   44.8420 N   0  0  0  0  0  0  0  0  0  0  0  0
   57.2920   32.6190   45.1480 C   0  0  0  0  0  0  0  0  0  0  0  0
   57.3860   33.0940   46.4620 C   0  0  0  0  0  0  0  0  0  0  0  0
   58.3400   34.0620   46.7930 C   0  0  0  0  0  0  0  0  0  0  0  0
   59.2210   34.5420   45.8170 C   0  0  0  0  0  0  0  0  0  0  0  0
   60.1470   35.4790   46.1390 F   0  0  0  0  0  0  0  0  0  0  0  0
   59.1480   34.0530   44.5110 C   0  0  0  0  0  0  0  0  0  0  0  0
   58.1850   33.0970   44.1730 C   0  0  0  0  0  0  0  0  0  0  0  0
   57.2070   28.2890   45.5830 C   0  0  0  0  0  0  0  0  0  0  0  0
   58.1190   27.4320   46.1150 N   0  0  0  0  0  0  0  0  0  0  0  0
   60.0070   30.6700   47.8350 C   0  0  0  0  0  0  0  0  0  0  0  0
   61.1270   31.6740   47.7810 C   0  0  0  0  0  0  0  0  0  0  0  0
   60.9820   32.9250   48.3990 C   0  0  0  0  0  0  0  0  0  0  0  0
   62.0300   33.8510   48.3720 C   0  0  0  0  0  0  0  0  0  0  0  0
   63.2300   33.5300   47.7330 C   0  0  0  0  0  0  0  0  0  0  0  0
   63.3860   32.2830   47.1240 C   0  0  0  0  0  0  0  0  0  0  0  0
   62.3420   31.3550   47.1530 C   0  0  0  0  0  0  0  0  0  0  0  0
   58.3915   31.1068   51.3319 H   0  0  0  0  0  0  0  0  0  0  0  0
   58.8351   31.8906   49.7777 H   0  0  0  0  0  0  0  0  0  0  0  0
   57.8368   30.3973   49.7777 H   0  0  0  0  0  0  0  0  0  0  0  0
   60.7724   30.6721   50.6043 H   0  0  0  0  0  0  0  0  0  0  0  0
   59.7487   29.1713   50.8128 H   0  0  0  0  0  0  0  0  0  0  0  0
   59.0112   27.9976   49.3367 H   0  0  0  0  0  0  0  0  0  0  0  0
   59.0760   28.4182   47.5878 H   0  0  0  0  0  0  0  0  0  0  0  0
   61.7391   27.7564   48.3505 H   0  0  0  0  0  0  0  0  0  0  0  0
   60.6506   26.4992   49.0794 H   0  0  0  0  0  0  0  0  0  0  0  0
   61.0075   28.8863   45.1203 H   0  0  0  0  0  0  0  0  0  0  0  0
   59.3719   30.5243   44.1743 H   0  0  0  0  0  0  0  0  0  0  0  0
   56.7079   32.7049   47.2358 H   0  0  0  0  0  0  0  0  0  0  0  0
   58.3979   34.4466   47.8219 H   0  0  0  0  0  0  0  0  0  0  0  0
   59.8490   34.4203   43.7470 H   0  0  0  0  0  0  0  0  0  0  0  0
   58.1261   32.7182   43.1420 H   0  0  0  0  0  0  0  0  0  0  0  0
   56.1319   28.0938   45.7097 H   0  0  0  0  0  0  0  0  0  0  0  0
   59.9003   30.1968   46.8477 H   0  0  0  0  0  0  0  0  0  0  0  0
   59.0806   31.1934   48.1139 H   0  0  0  0  0  0  0  0  0  0  0  0
   60.0400   33.1788   48.9071 H   0  0  0  0  0  0  0  0  0  0  0  0
   61.9092   34.8323   48.8541 H   0  0  0  0  0  0  0  0  0  0  0  0
   64.0526   34.2599   47.7095 H   0  0  0  0  0  0  0  0  0  0  0  0
   64.3314   32.0313   46.6212 H   0  0  0  0  0  0  0  0  0  0  0  0
   62.4723   30.3697   46.6816 H   0  0  0  0  0  0  0  0  0  0  0  0
  1  2  1  0
  2  3  1  0
  3  4  1  0
  4  5  1  0
  5  6  1  0
  6  7  1  0
  7  8  2  0
  8  9  1  0
  9 10  2  0
 10 11  1  0
 11 12  2  0
 11 13  1  0
 13 14  1  0
 14 15  2  0
 15 16  1  0
 16 17  2  0
 17 18  1  0
 17 19  1  0
 19 20  2  0
 10 21  1  0
 21 22  2  0
  3 23  1  0
 23 24  1  0
 24 25  2  0
 25 26  1  0
 26 27  2  0
 27 28  1  0
 28 29  2  0
 22  7  1  0
 29 24  1  0
 20 14  1  0
  1 30  1  0
  1 31  1  0
  1 32  1  0
  2 33  1  0
  2 34  1  0
  4 35  1  0
  4 36  1  0
  5 37  1  0
  5 38  1  0
  8 39  1  0
  9 40  1  0
 15 41  1  0
 16 42  1  0
 19 43  1  0
 20 44  1  0
 21 45  1  0
 23 46  1  0
 23 47  1  0
 25 48  1  0
 26 49  1  0
 27 50  1  0
 28 51  1  0
 29 52  1  0
M  CHG  1  13  -1
M  END
>  <UniqueID>  (35) 
32

>  <SMILES>  (35) 
CCN(CCSc1ccc(C(=O)[N-]c2ccc(F)cc2)cn1)Cc1ccccc1

>  <Energy>  (35) 
54.88357739407266

>  <Genealogy>  (35) 
CCN(CCSc1ccc(C(=O)[N-]c2ccc(F)cc2)cn1)Cc1ccccc1 (protonated)
CCN(CCSc1ccc(C(=O)[N-]c2ccc(F)cc2)cn1)Cc1ccccc1 (3D coordinates assigned)
CCN(CCSc1ccc(C(=O)[N-]c2ccc(F)cc2)cn1)Cc1ccccc1 (optimized conformer: 54.88357739407266 kcal/mol)

>  <smiles>  (35) 
CCN(CCSc1ccc(C(=O)Nc2ccc(F)cc2)cn1)Cc1ccccc1

>  <score_type>  (35) 
oracle

>  <origin>  (35) 
adg

>  <m_score__min__energy>  (35) 
-10.49

>  <m_primary>  (35) 
energy

$$$$
35:0
     RDKit          3D

 55 57  0  0  0  0  0  0  0  0999 V2000
   60.9910   30.8010   50.8800 C   0  0  0  0  0  0  0  0  0  0  0  0
   60.4330   32.0250   50.1570 C   0  0  0  0  0  0  0  0  0  0  0  0
   61.0710   32.1900   48.7710 C   0  0  0  0  0  0  0  0  0  0  0  0
   60.9420   33.5890   48.3060 N   0  0  0  0  0  0  0  0  0  0  0  0
   61.4470   33.7770   46.9160 C   0  0  0  0  0  0  0  0  0  0  0  0
   60.4130   34.3670   45.9400 C   0  0  0  0  0  0  0  0  0  0  0  0
   59.1120   33.7080   46.1240 N   0  0  0  0  0  0  0  0  0  0  0  0
   58.3240   33.3060   44.9790 C   0  0  0  0  0  0  0  0  0  0  0  0
   58.7170   33.5930   43.8150 O   0  0  0  0  0  0  0  0  0  0  0  0
   57.0780   32.4660   45.1270 C   0  0  0  0  0  0  0  0  0  0  0  0
   57.4240   31.0630   45.4330 N   0  0  0  0  0  0  0  0  0  0  0  0
   58.8880   30.8680   45.4040 C   0  0  0  0  0  0  0  0  0  0  0  0
   59.3030   29.8090   46.3930 C   0  0  0  0  0  0  0  0  0  0  0  0
   58.9070   29.8920   47.7390 C   0  0  0  0  0  0  0  0  0  0  0  0
   59.2920   28.9030   48.6490 C   0  0  0  0  0  0  0  0  0  0  0  0
   60.0670   27.8200   48.2210 C   0  0  0  0  0  0  0  0  0  0  0  0
   60.4390   26.8620   49.1050 F   0  0  0  0  0  0  0  0  0  0  0  0
   60.4570   27.7260   46.8820 C   0  0  0  0  0  0  0  0  0  0  0  0
   60.0760   28.7140   45.9690 C   0  0  0  0  0  0  0  0  0  0  0  0
   56.6510   30.0090   44.2680 S   0  0  0  0  0  0  0  0  0  0  0  0
   57.0370   30.3950   42.8680 O   0  0  0  0  0  0  0  0  0  0  0  0
   55.1570   30.1000   44.4130 O   0  0  0  0  0  0  0  0  0  0  0  0
   57.1650   28.3550   44.5450 C   0  0  0  0  0  0  0  0  0  0  0  0
   56.7980   27.5700   45.6250 C   0  0  0  0  0  0  0  0  0  0  0  0
   57.3500   26.2840   45.5750 C   0  0  0  0  0  0  0  0  0  0  0  0
   58.1470   26.0630   44.4580 C   0  0  0  0  0  0  0  0  0  0  0  0
   58.1660   27.4680   43.5300 S   0  0  0  0  0  0  0  0  0  0  0  0
   58.5870   33.5660   47.4880 C   0  0  0  0  0  0  0  0  0  0  0  0
   59.5770   34.1160   48.5230 C   0  0  0  0  0  0  0  0  0  0  0  0
   60.9213   30.9539   51.9671 H   0  0  0  0  0  0  0  0  0  0  0  0
   60.4096   29.9112   50.5968 H   0  0  0  0  0  0  0  0  0  0  0  0
   62.0440   30.6563   50.5968 H   0  0  0  0  0  0  0  0  0  0  0  0
   59.3456   31.9076   50.0397 H   0  0  0  0  0  0  0  0  0  0  0  0
   60.6645   32.9185   50.7555 H   0  0  0  0  0  0  0  0  0  0  0  0
   62.1369   31.9243   48.8288 H   0  0  0  0  0  0  0  0  0  0  0  0
   60.5542   31.5289   48.0597 H   0  0  0  0  0  0  0  0  0  0  0  0
   62.3121   34.4554   46.9527 H   0  0  0  0  0  0  0  0  0  0  0  0
   61.7033   32.7769   46.5363 H   0  0  0  0  0  0  0  0  0  0  0  0
   60.3053   35.4448   46.1316 H   0  0  0  0  0  0  0  0  0  0  0  0
   60.7571   34.2031   44.9081 H   0  0  0  0  0  0  0  0  0  0  0  0
   56.4641   32.8724   45.9443 H   0  0  0  0  0  0  0  0  0  0  0  0
   56.5204   32.4927   44.1792 H   0  0  0  0  0  0  0  0  0  0  0  0
   59.1911   30.5571   44.3933 H   0  0  0  0  0  0  0  0  0  0  0  0
   59.3769   31.8157   45.6739 H   0  0  0  0  0  0  0  0  0  0  0  0
   58.2917   30.7385   48.0778 H   0  0  0  0  0  0  0  0  0  0  0  0
   58.9851   28.9766   49.7028 H   0  0  0  0  0  0  0  0  0  0  0  0
   61.0649   26.8730   46.5459 H   0  0  0  0  0  0  0  0  0  0  0  0
   60.3821   28.6342   44.9155 H   0  0  0  0  0  0  0  0  0  0  0  0
   56.1424   27.9195   46.4362 H   0  0  0  0  0  0  0  0  0  0  0  0
   57.1699   25.5210   46.3466 H   0  0  0  0  0  0  0  0  0  0  0  0
   58.6760   25.1283   44.2203 H   0  0  0  0  0  0  0  0  0  0  0  0
   57.6400   34.1199   47.5675 H   0  0  0  0  0  0  0  0  0  0  0  0
   58.4288   32.4965   47.6910 H   0  0  0  0  0  0  0  0  0  0  0  0
   59.6016   35.2130   48.4454 H   0  0  0  0  0  0  0  0  0  0  0  0
   59.2413   33.7997   49.5216 H   0  0  0  0  0  0  0  0  0  0  0  0
  1  2  1  0
  2  3  1  0
  3  4  1  0
  4  5  1  0
  5  6  1  0
  6  7  1  0
  7  8  1  0
  8  9  2  0
  8 10  1  0
 10 11  1  0
 11 12  1  0
 12 13  1  0
 13 14  2  0
 14 15  1  0
 15 16  2  0
 16 17  1  0
 16 18  1  0
 18 19  2  0
 11 20  1  0
 20 21  2  0
 20 22  2  0
 20 23  1  0
 23 24  2  0
 24 25  1  0
 25 26  2  0
 26 27  1  0
  7 28  1  0
 28 29  1  0
 29  4  1  0
 19 13  1  0
 27 23  1  0
  1 30  1  0
  1 31  1  0
  1 32  1  0
  2 33  1  0
  2 34  1  0
  3 35  1  0
  3 36  1  0
  5 37  1  0
  5 38  1  0
  6 39  1  0
  6 40  1  0
 10 41  1  0
 10 42  1  0
 12 43  1  0
 12 44  1  0
 14 45  1  0
 15 46  1  0
 18 47  1  0
 19 48  1  0
 24 49  1  0
 25 50  1  0
 26 51  1  0
 28 52  1  0
 28 53  1  0
 29 54  1  0
 29 55  1  0
M  END
>  <UniqueID>  (36) 
33

>  <SMILES>  (36) 
CCCN1CCN(C(=O)CN(Cc2ccc(F)cc2)S(=O)(=O)c2cccs2)CC1

>  <Energy>  (36) 
85.82432816501336

>  <Genealogy>  (36) 
CCCN1CCN(C(=O)CN(Cc2ccc(F)cc2)S(=O)(=O)c2cccs2)CC1 (3D coordinates assigned)
CCCN1CCN(C(=O)CN(Cc2ccc(F)cc2)S(=O)(=O)c2cccs2)CC1 (nonaromatic ring conformer: 85.82432816501336 kcal/mol)

>  <smiles>  (36) 
CCCN1CCN(C(=O)CN(Cc2ccc(F)cc2)S(=O)(=O)c2cccs2)CC1

>  <score_type>  (36) 
oracle

>  <origin>  (36) 
adg

>  <m_score__min__energy>  (36) 
-8.6699999999999999

>  <m_primary>  (36) 
energy

$$$$
36:0
     RDKit          3D

 55 56  0  0  0  0  0  0  0  0999 V2000
   57.8260   31.8880   43.4420 C   0  0  0  0  0  0  0  0  0  0  0  0
   57.3840   31.5440   44.8600 C   0  0  0  0  0  0  0  0  0  0  0  0
   56.6480   30.3220   44.8770 O   0  0  0  0  0  0  0  0  0  0  0  0
   56.7860   29.3260   43.9020 C   0  0  0  0  0  0  0  0  0  0  0  0
   56.3170   29.5060   42.7430 O   0  0  0  0  0  0  0  0  0  0  0  0
   57.4140   28.0720   44.2620 N   0  0  1  0  0  0  0  0  0  0  0  0
   58.8820   28.1740   44.1210 C   0  0  0  0  0  0  0  0  0  0  0  0
   59.5300   29.0690   45.2000 C   0  0  0  0  0  0  0  0  0  0  0  0
   58.8430   28.9530   46.5850 C   0  0  2  0  0  0  0  0  0  0  0  0
   59.8250   29.0440   47.6770 N   0  0  0  0  0  0  0  0  0  0  0  0
   59.9420   30.1630   48.5810 C   0  0  0  0  0  0  0  0  0  0  0  0
   60.0520   29.9930   49.9760 C   0  0  0  0  0  0  0  0  0  0  0  0
   60.1570   31.1040   50.8160 C   0  0  0  0  0  0  0  0  0  0  0  0
   60.1610   32.3920   50.2830 C   0  0  0  0  0  0  0  0  0  0  0  0
   60.0640   32.5850   48.8970 C   0  0  0  0  0  0  0  0  0  0  0  0
   60.0540   33.9540   48.3380 C   0  0  0  0  0  0  0  0  0  0  0  0
   59.6620   34.9080   49.0650 O   0  0  0  0  0  0  0  0  0  0  0  0
   60.4760   34.2230   46.9850 N   0  0  0  0  0  0  0  0  0  0  0  0
   61.6890   33.5960   46.4330 C   0  0  0  0  0  0  0  0  0  0  0  0
   62.8830   33.7910   47.3650 C   0  0  0  0  0  0  0  0  0  0  0  0
   59.7740   35.2500   46.2050 C   0  0  0  0  0  0  0  0  0  0  0  0
   58.8740   34.6110   45.1530 C   0  0  0  0  0  0  0  0  0  0  0  0
   59.9350   31.4660   48.0560 C   0  0  0  0  0  0  0  0  0  0  0  0
   58.0540   27.6410   46.6910 C   0  0  0  0  0  0  0  0  0  0  0  0
   56.9750   27.5500   45.5900 C   0  0  0  0  0  0  0  0  0  0  0  0
   58.6935   32.5632   43.4820 H   0  0  0  0  0  0  0  0  0  0  0  0
   58.1033   30.9657   42.9105 H   0  0  0  0  0  0  0  0  0  0  0  0
   57.0001   32.3833   42.9105 H   0  0  0  0  0  0  0  0  0  0  0  0
   58.2727   31.4390   45.4997 H   0  0  0  0  0  0  0  0  0  0  0  0
   56.7372   32.3513   45.2342 H   0  0  0  0  0  0  0  0  0  0  0  0
   57.0970   27.3770   43.5450 H   0  0  0  0  0  0  0  0  0  0  0  0
   59.1108   28.5962   43.1314 H   0  0  0  0  0  0  0  0  0  0  0  0
   59.2956   27.1618   44.2406 H   0  0  0  0  0  0  0  0  0  0  0  0
   59.4708   30.1158   44.8673 H   0  0  0  0  0  0  0  0  0  0  0  0
   60.5698   28.7317   45.3223 H   0  0  0  0  0  0  0  0  0  0  0  0
   58.1430   29.7960   46.6814 H   0  0  0  0  0  0  0  0  0  0  0  0
   60.4710   28.2380   47.8350 H   0  0  0  0  0  0  0  0  0  0  0  0
   60.0552   28.9802   50.4053 H   0  0  0  0  0  0  0  0  0  0  0  0
   60.2370   30.9618   51.9038 H   0  0  0  0  0  0  0  0  0  0  0  0
   60.2406   33.2612   50.9525 H   0  0  0  0  0  0  0  0  0  0  0  0
   61.5083   32.5189   46.3015 H   0  0  0  0  0  0  0  0  0  0  0  0
   61.9187   34.0708   45.4677 H   0  0  0  0  0  0  0  0  0  0  0  0
   62.5450   33.7358   48.4103 H   0  0  0  0  0  0  0  0  0  0  0  0
   63.6268   33.0024   47.1780 H   0  0  0  0  0  0  0  0  0  0  0  0
   63.3372   34.7752   47.1780 H   0  0  0  0  0  0  0  0  0  0  0  0
   59.1591   35.8600   46.8830 H   0  0  0  0  0  0  0  0  0  0  0  0
   60.5205   35.8773   45.6959 H   0  0  0  0  0  0  0  0  0  0  0  0
   58.0742   34.0431   45.6508 H   0  0  0  0  0  0  0  0  0  0  0  0
   58.4293   35.3968   44.5247 H   0  0  0  0  0  0  0  0  0  0  0  0
   59.4692   33.9321   44.5247 H   0  0  0  0  0  0  0  0  0  0  0  0
   59.8270   31.6128   46.9712 H   0  0  0  0  0  0  0  0  0  0  0  0
   57.5668   27.5934   47.6761 H   0  0  0  0  0  0  0  0  0  0  0  0
   58.7536   26.8017   46.5644 H   0  0  0  0  0  0  0  0  0  0  0  0
   56.0987   28.1292   45.9164 H   0  0  0  0  0  0  0  0  0  0  0  0
   56.7510   26.4818   45.4528 H   0  0  0  0  0  0  0  0  0  0  0  0
  1  2  1  0
  2  3  1  0
  3  4  1  0
  4  5  2  0
  4  6  1  0
  6  7  1  0
  7  8  1  0
  8  9  1  0
  9 10  1  0
 10 11  1  0
 11 12  2  0
 12 13  1  0
 13 14  2  0
 14 15  1  0
 15 16  1  0
 16 17  2  0
 16 18  1  0
 18 19  1  0
 19 20  1  0
 18 21  1  0
 21 22  1  0
 15 23  2  0
  9 24  1  0
 24 25  1  0
 25  6  1  0
 23 11  1  0
  1 26  1  0
  1 27  1  0
  1 28  1  0
  2 29  1  0
  2 30  1  0
  6 31  1  6
  7 32  1  0
  7 33  1  0
  8 34  1  0
  8 35  1  0
  9 36  1  1
 10 37  1  0
 12 38  1  0
 13 39  1  0
 14 40  1  0
 19 41  1  0
 19 42  1  0
 20 43  1  0
 20 44  1  0
 20 45  1  0
 21 46  1  0
 21 47  1  0
 22 48  1  0
 22 49  1  0
 22 50  1  0
 23 51  1  0
 24 52  1  0
 24 53  1  0
 25 54  1  0
 25 55  1  0
M  CHG  1   6   1
M  END
>  <UniqueID>  (37) 
34

>  <SMILES>  (37) 
CCOC(=O)[NH+]1CCC(Nc2cccc(C(=O)N(CC)CC)c2)CC1

>  <Energy>  (37) 
59.87532419334797

>  <Genealogy>  (37) 
CCOC(=O)[NH+]1CCC(Nc2cccc(C(=O)N(CC)CC)c2)CC1 (protonated)
CCOC(=O)[NH+]1CCC(Nc2cccc(C(=O)N(CC)CC)c2)CC1 (3D coordinates assigned)
CCOC(=O)[NH+]1CCC(Nc2cccc(C(=O)N(CC)CC)c2)CC1 (nonaromatic ring conformer: 59.87532419334797 kcal/mol)

>  <smiles>  (37) 
CCOC(=O)N1CCC(Nc2cccc(C(=O)N(CC)CC)c2)CC1

>  <score_type>  (37) 
oracle

>  <origin>  (37) 
adg

>  <m_score__min__energy>  (37) 
-6.7800000000000002

>  <m_primary>  (37) 
energy

$$$$
37:0
     RDKit          3D

 49 52  0  0  0  0  0  0  0  0999 V2000
   58.9710   29.6400   47.7290 O   0  0  0  0  0  0  0  0  0  0  0  0
   58.8960   30.8970   47.7840 C   0  0  0  0  0  0  0  0  0  0  0  0
   58.9690   31.6860   46.5100 C   0  0  0  0  0  0  0  0  0  0  0  0
   58.4750   33.0620   46.7180 N   0  0  0  0  0  0  0  0  0  0  0  0
   57.2660   33.3110   45.9080 C   0  0  0  0  0  0  0  0  0  0  0  0
   57.1870   32.3250   44.7850 C   0  0  0  0  0  0  0  0  0  0  0  0
   57.7890   32.4580   43.5500 C   0  0  0  0  0  0  0  0  0  0  0  0
   57.4610   31.3140   42.8550 C   0  0  0  0  0  0  0  0  0  0  0  0
   56.6880   30.5540   43.7090 C   0  0  0  0  0  0  0  0  0  0  0  0
   56.5460   31.1810   44.8540 O   0  0  0  0  0  0  0  0  0  0  0  0
   59.7190   34.2380   46.3190 S   0  0  0  0  0  0  0  0  0  0  0  0
   59.9620   34.2390   44.8350 O   0  0  0  0  0  0  0  0  0  0  0  0
   59.2940   35.6180   46.7370 O   0  0  0  0  0  0  0  0  0  0  0  0
   61.2140   33.8540   47.1790 C   0  0  0  0  0  0  0  0  0  0  0  0
   62.4060   33.6720   46.4610 C   0  0  0  0  0  0  0  0  0  0  0  0
   63.5930   33.3520   47.1250 C   0  0  0  0  0  0  0  0  0  0  0  0
   63.6060   33.2030   48.5140 C   0  0  0  0  0  0  0  0  0  0  0  0
   62.4290   33.3940   49.2480 C   0  0  0  0  0  0  0  0  0  0  0  0
   62.4180   33.2600   50.6430 C   0  0  0  0  0  0  0  0  0  0  0  0
   61.2340   33.4680   51.3520 C   0  0  0  0  0  0  0  0  0  0  0  0
   60.0710   33.8100   50.6600 C   0  0  0  0  0  0  0  0  0  0  0  0
   60.0930   33.9340   49.3070 N   0  0  0  0  0  0  0  0  0  0  0  0
   61.2280   33.7330   48.5820 C   0  0  0  0  0  0  0  0  0  0  0  0
   58.6900   31.5670   49.0380 N   0  0  0  0  0  0  0  0  0  0  0  0
   58.6380   30.9040   50.3140 C   0  0  0  0  0  0  0  0  0  0  0  0
   57.6400   31.2640   51.2340 C   0  0  0  0  0  0  0  0  0  0  0  0
   57.5610   30.6330   52.4800 C   0  0  0  0  0  0  0  0  0  0  0  0
   58.4940   29.6530   52.8280 C   0  0  0  0  0  0  0  0  0  0  0  0
   58.4180   29.0440   54.0370 F   0  0  0  0  0  0  0  0  0  0  0  0
   59.5130   29.3130   51.9350 C   0  0  0  0  0  0  0  0  0  0  0  0
   59.5940   29.9390   50.6880 C   0  0  0  0  0  0  0  0  0  0  0  0
   60.0142   31.7254   46.1693 H   0  0  0  0  0  0  0  0  0  0  0  0
   58.3388   31.1950   45.7538 H   0  0  0  0  0  0  0  0  0  0  0  0
   56.3745   33.2097   46.5444 H   0  0  0  0  0  0  0  0  0  0  0  0
   57.3150   34.3279   45.4914 H   0  0  0  0  0  0  0  0  0  0  0  0
   58.4016   33.2999   43.1952 H   0  0  0  0  0  0  0  0  0  0  0  0
   57.7560   31.0582   41.8266 H   0  0  0  0  0  0  0  0  0  0  0  0
   56.2562   29.5716   43.4672 H   0  0  0  0  0  0  0  0  0  0  0  0
   62.4058   33.7822   45.3665 H   0  0  0  0  0  0  0  0  0  0  0  0
   64.5217   33.2167   46.5513 H   0  0  0  0  0  0  0  0  0  0  0  0
   64.5398   32.9359   49.0304 H   0  0  0  0  0  0  0  0  0  0  0  0
   63.3408   32.9914   51.1781 H   0  0  0  0  0  0  0  0  0  0  0  0
   61.2174   33.3633   52.4469 H   0  0  0  0  0  0  0  0  0  0  0  0
   59.1344   33.9796   51.2113 H   0  0  0  0  0  0  0  0  0  0  0  0
   58.4250   32.5780   49.0070 H   0  0  0  0  0  0  0  0  0  0  0  0
   56.9145   32.0485   50.9728 H   0  0  0  0  0  0  0  0  0  0  0  0
   56.7639   30.9085   53.1862 H   0  0  0  0  0  0  0  0  0  0  0  0
   60.2543   28.5498   52.2143 H   0  0  0  0  0  0  0  0  0  0  0  0
   60.4076   29.6771   49.9956 H   0  0  0  0  0  0  0  0  0  0  0  0
  1  2  2  0
  2  3  1  0
  3  4  1  0
  4  5  1  0
  5  6  1  0
  6  7  2  0
  7  8  1  0
  8  9  2  0
  9 10  1  0
  4 11  1  0
 11 12  2  0
 11 13  2  0
 11 14  1  0
 14 15  2  0
 15 16  1  0
 16 17  2  0
 17 18  1  0
 18 19  2  0
 19 20  1  0
 20 21  2  0
 21 22  1  0
 22 23  2  0
  2 24  1  0
 24 25  1  0
 25 26  2  0
 26 27  1  0
 27 28  2  0
 28 29  1  0
 28 30  1  0
 30 31  2  0
 10  6  1  0
 23 14  1  0
 31 25  1  0
 23 18  1  0
  3 32  1  0
  3 33  1  0
  5 34  1  0
  5 35  1  0
  7 36  1  0
  8 37  1  0
  9 38  1  0
 15 39  1  0
 16 40  1  0
 17 41  1  0
 19 42  1  0
 20 43  1  0
 21 44  1  0
 24 45  1  0
 26 46  1  0
 27 47  1  0
 30 48  1  0
 31 49  1  0
M  END
>  <UniqueID>  (38) 
35

>  <SMILES>  (38) 
O=C(CN(Cc1ccco1)S(=O)(=O)c1cccc2cccnc12)Nc1ccc(F)cc1

>  <Energy>  (38) 
81.39589001835034

>  <Genealogy>  (38) 
O=C(CN(Cc1ccco1)S(=O)(=O)c1cccc2cccnc12)Nc1ccc(F)cc1 (3D coordinates assigned)
O=C(CN(Cc1ccco1)S(=O)(=O)c1cccc2cccnc12)Nc1ccc(F)cc1 (optimized conformer: 81.39589001835034 kcal/mol)

>  <smiles>  (38) 
O=C(CN(Cc1ccco1)S(=O)(=O)c1cccc2cccnc12)Nc1ccc(F)cc1

>  <score_type>  (38) 
oracle

>  <origin>  (38) 
adg

>  <m_score__min__energy>  (38) 
-8.4800000000000004

>  <m_primary>  (38) 
energy

$$$$
38:0
     RDKit          3D

 55 57  0  0  0  0  0  0  0  0999 V2000
   63.3430   33.4260   46.7030 C   0  0  0  0  0  0  0  0  0  0  0  0
   62.9280   32.0770   47.2820 C   0  0  0  0  0  0  0  0  0  0  0  0
   63.1900   32.0400   48.7410 N   0  0  0  0  0  0  0  0  0  0  0  0
   63.5670   33.3790   49.2480 C   0  0  0  0  0  0  0  0  0  0  0  0
   62.3670   34.0640   49.8990 C   0  0  0  0  0  0  0  0  0  0  0  0
   62.0210   31.5010   49.4760 C   0  0  0  0  0  0  0  0  0  0  0  0
   61.2540   30.4910   48.6140 C   0  0  0  0  0  0  0  0  0  0  0  0
   59.8560   30.8900   48.4470 N   0  0  0  0  0  0  0  0  0  0  0  0
   59.3590   31.2690   47.1560 C   0  0  0  0  0  0  0  0  0  0  0  0
   59.3820   32.6140   46.7560 C   0  0  0  0  0  0  0  0  0  0  0  0
   59.8790   33.6140   47.6180 C   0  0  0  0  0  0  0  0  0  0  0  0
   59.9640   34.9390   47.1970 C   0  0  0  0  0  0  0  0  0  0  0  0
   59.5640   35.2860   45.9120 C   0  0  0  0  0  0  0  0  0  0  0  0
   59.0440   34.3190   45.0520 C   0  0  0  0  0  0  0  0  0  0  0  0
   58.9020   32.9700   45.4680 C   0  0  0  0  0  0  0  0  0  0  0  0
   58.3260   32.0120   44.6530 N   0  0  0  0  0  0  0  0  0  0  0  0
   57.5730   32.4230   43.4470 C   0  0  0  0  0  0  0  0  0  0  0  0
   58.4230   30.6720   44.9840 C   0  0  0  0  0  0  0  0  0  0  0  0
   58.0740   29.6480   44.0660 C   0  0  0  0  0  0  0  0  0  0  0  0
   58.1140   28.2940   44.4290 C   0  0  0  0  0  0  0  0  0  0  0  0
   57.7730   27.2710   43.4700 N   0  0  0  0  0  0  0  0  0  0  0  0
   57.7740   25.9560   44.1120 C   0  0  0  0  0  0  0  0  0  0  0  0
   58.5440   27.9410   45.7110 C   0  0  0  0  0  0  0  0  0  0  0  0
   58.9380   28.9230   46.6160 C   0  0  0  0  0  0  0  0  0  0  0  0
   58.9030   30.2860   46.2630 C   0  0  0  0  0  0  0  0  0  0  0  0
   63.5585   34.1264   47.5233 H   0  0  0  0  0  0  0  0  0  0  0  0
   64.2433   33.2980   46.0841 H   0  0  0  0  0  0  0  0  0  0  0  0
   62.5264   33.8262   46.0841 H   0  0  0  0  0  0  0  0  0  0  0  0
   61.8542   31.9199   47.1022 H   0  0  0  0  0  0  0  0  0  0  0  0
   63.5123   31.2833   46.7936 H   0  0  0  0  0  0  0  0  0  0  0  0
   64.3696   33.2710   49.9925 H   0  0  0  0  0  0  0  0  0  0  0  0
   63.9119   33.9940   48.4037 H   0  0  0  0  0  0  0  0  0  0  0  0
   62.4628   34.0093   50.9935 H   0  0  0  0  0  0  0  0  0  0  0  0
   62.3322   35.1180   49.5862 H   0  0  0  0  0  0  0  0  0  0  0  0
   61.4417   33.5580   49.5862 H   0  0  0  0  0  0  0  0  0  0  0  0
   62.3699   31.0018   50.3920 H   0  0  0  0  0  0  0  0  0  0  0  0
   61.3475   32.3339   49.7265 H   0  0  0  0  0  0  0  0  0  0  0  0
   61.7301   30.4297   47.6243 H   0  0  0  0  0  0  0  0  0  0  0  0
   61.2789   29.5137   49.1182 H   0  0  0  0  0  0  0  0  0  0  0  0
   59.1690   30.7700   49.2260 H   0  0  0  0  0  0  0  0  0  0  0  0
   60.2030   33.3443   48.6340 H   0  0  0  0  0  0  0  0  0  0  0  0
   60.3475   35.7103   47.8811 H   0  0  0  0  0  0  0  0  0  0  0  0
   59.6580   36.3278   45.5718 H   0  0  0  0  0  0  0  0  0  0  0  0
   58.7391   34.6068   44.0350 H   0  0  0  0  0  0  0  0  0  0  0  0
   56.6447   32.9297   43.7494 H   0  0  0  0  0  0  0  0  0  0  0  0
   58.1876   33.1107   42.8476 H   0  0  0  0  0  0  0  0  0  0  0  0
   57.3270   31.5340   42.8476 H   0  0  0  0  0  0  0  0  0  0  0  0
   57.7651   29.9224   43.0465 H   0  0  0  0  0  0  0  0  0  0  0  0
   56.8250   27.4560   43.0660 H   0  0  0  0  0  0  0  0  0  0  0  0
   58.4630   27.2700   42.6820 H   0  0  0  0  0  0  0  0  0  0  0  0
   57.7739   26.0815   45.2048 H   0  0  0  0  0  0  0  0  0  0  0  0
   56.8763   25.3983   43.8069 H   0  0  0  0  0  0  0  0  0  0  0  0
   58.6726   25.3997   43.8069 H   0  0  0  0  0  0  0  0  0  0  0  0
   58.5713   26.8818   46.0066 H   0  0  0  0  0  0  0  0  0  0  0  0
   59.2810   28.6306   47.6194 H   0  0  0  0  0  0  0  0  0  0  0  0
  1  2  1  0
  2  3  1  0
  3  4  1  0
  4  5  1  0
  3  6  1  0
  6  7  1  0
  7  8  1  0
  8  9  1  0
  9 10  2  0
 10 11  1  0
 11 12  2  0
 12 13  1  0
 13 14  2  0
 14 15  1  0
 15 16  2  0
 16 17  1  0
 16 18  1  0
 18 19  2  0
 19 20  1  0
 20 21  1  0
 21 22  1  0
 20 23  2  0
 23 24  1  0
 24 25  2  0
 25  9  1  0
 15 10  1  0
 25 18  1  0
  1 26  1  0
  1 27  1  0
  1 28  1  0
  2 29  1  0
  2 30  1  0
  4 31  1  0
  4 32  1  0
  5 33  1  0
  5 34  1  0
  5 35  1  0
  6 36  1  0
  6 37  1  0
  7 38  1  0
  7 39  1  0
  8 40  1  0
 11 41  1  0
 12 42  1  0
 13 43  1  0
 14 44  1  0
 17 45  1  0
 17 46  1  0
 17 47  1  0
 19 48  1  0
 21 49  1  0
 21 50  1  0
 22 51  1  0
 22 52  1  0
 22 53  1  0
 23 54  1  0
 24 55  1  0
M  CHG  2  16   1  21   1
M  END
>  <UniqueID>  (39) 
36

>  <SMILES>  (39) 
CCN(CC)CCNc1c2ccccc2[n+](C)c2cc([NH2+]C)ccc12

>  <Energy>  (39) 
78.42545057503324

>  <Genealogy>  (39) 
CCN(CC)CCNc1c2ccccc2[n+](C)c2cc([NH2+]C)ccc12 (protonated)
CCN(CC)CCNc1c2ccccc2[n+](C)c2cc([NH2+]C)ccc12 (3D coordinates assigned)
CCN(CC)CCNc1c2ccccc2[n+](C)c2cc([NH2+]C)ccc12 (optimized conformer: 78.42545057503324 kcal/mol)

>  <smiles>  (39) 
CCN(CC)CCNc1c2ccccc2[n+](C)c2cc(NC)ccc12

>  <score_type>  (39) 
oracle

>  <origin>  (39) 
adg

>  <m_score__min__energy>  (39) 
-4.6600000000000001

>  <m_primary>  (39) 
energy

$$$$
39:0
     RDKit          3D

 35 37  0  0  0  0  0  0  0  0999 V2000
   63.8480   33.1810   47.8940 C   0  0  0  0  0  0  0  0  0  0  0  0
   62.7780   34.0400   48.2710 O   0  0  0  0  0  0  0  0  0  0  0  0
   61.4490   33.8910   47.8420 C   0  0  0  0  0  0  0  0  0  0  0  0
   61.0820   34.0130   46.4880 C   0  0  0  0  0  0  0  0  0  0  0  0
   59.7480   33.8610   46.1010 C   0  0  0  0  0  0  0  0  0  0  0  0
   58.7580   33.5800   47.0540 C   0  0  0  0  0  0  0  0  0  0  0  0
   57.3740   33.4640   46.6580 N   0  0  0  0  0  0  0  0  0  0  0  0
   57.2270   33.5300   45.1950 C   0  0  0  0  0  0  0  0  0  0  0  0
   57.3720   32.1760   44.5610 C   0  0  0  0  0  0  0  0  0  0  0  0
   57.4150   31.9130   43.2110 C   0  0  0  0  0  0  0  0  0  0  0  0
   57.4680   30.6130   43.0670 O   0  0  0  0  0  0  0  0  0  0  0  0
   57.4510   30.0880   44.2720 C   0  0  0  0  0  0  0  0  0  0  0  0
   57.4900   28.6450   44.5280 C   0  0  0  0  0  0  0  0  0  0  0  0
   57.0060   28.0010   45.6600 C   0  0  0  0  0  0  0  0  0  0  0  0
   57.1820   26.6130   45.6180 C   0  0  0  0  0  0  0  0  0  0  0  0
   57.8010   26.1620   44.4590 C   0  0  0  0  0  0  0  0  0  0  0  0
   58.1290   27.4940   43.4840 S   0  0  0  0  0  0  0  0  0  0  0  0
   57.3840   31.0180   45.2490 N   0  0  0  0  0  0  0  0  0  0  0  0
   59.1230   33.4610   48.4060 C   0  0  0  0  0  0  0  0  0  0  0  0
   60.4580   33.6150   48.7970 C   0  0  0  0  0  0  0  0  0  0  0  0
   60.8740   33.4680   50.4980 Cl  0  0  0  0  0  0  0  0  0  0  0  0
   64.3380   32.7877   48.7969 H   0  0  0  0  0  0  0  0  0  0  0  0
   63.4543   32.3453   47.2968 H   0  0  0  0  0  0  0  0  0  0  0  0
   64.5788   33.7460   47.2968 H   0  0  0  0  0  0  0  0  0  0  0  0
   61.8499   34.2292   45.7306 H   0  0  0  0  0  0  0  0  0  0  0  0
   59.4722   33.9625   45.0410 H   0  0  0  0  0  0  0  0  0  0  0  0
   56.9980   32.5460   46.9910 H   0  0  0  0  0  0  0  0  0  0  0  0
   56.7970   34.2130   47.1080 H   0  0  0  0  0  0  0  0  0  0  0  0
   56.2316   33.9317   44.9544 H   0  0  0  0  0  0  0  0  0  0  0  0
   58.0206   34.1809   44.7994 H   0  0  0  0  0  0  0  0  0  0  0  0
   57.4064   32.6580   42.4018 H   0  0  0  0  0  0  0  0  0  0  0  0
   56.5333   28.5275   46.5022 H   0  0  0  0  0  0  0  0  0  0  0  0
   56.8600   25.9416   46.4277 H   0  0  0  0  0  0  0  0  0  0  0  0
   58.0363   25.1144   44.2197 H   0  0  0  0  0  0  0  0  0  0  0  0
   58.3539   33.2453   49.1623 H   0  0  0  0  0  0  0  0  0  0  0  0
  1  2  1  0
  2  3  1  0
  3  4  2  0
  4  5  1  0
  5  6  2  0
  6  7  1  0
  7  8  1  0
  8  9  1  0
  9 10  2  0
 10 11  1  0
 11 12  1  0
 12 13  1  0
 13 14  2  0
 14 15  1  0
 15 16  2  0
 16 17  1  0
 12 18  2  0
  6 19  1  0
 19 20  2  0
 20 21  1  0
 20  3  1  0
 18  9  1  0
 17 13  1  0
  1 22  1  0
  1 23  1  0
  1 24  1  0
  4 25  1  0
  5 26  1  0
  7 27  1  0
  7 28  1  0
  8 29  1  0
  8 30  1  0
 10 31  1  0
 14 32  1  0
 15 33  1  0
 16 34  1  0
 19 35  1  0
M  CHG  1   7   1
M  END
>  <UniqueID>  (40) 
37

>  <SMILES>  (40) 
COc1ccc([NH2+]Cc2coc(-c3cccs3)n2)cc1Cl

>  <Energy>  (40) 
90.83149776814456

>  <Genealogy>  (40) 
COc1ccc([NH2+]Cc2coc(-c3cccs3)n2)cc1Cl (protonated)
COc1ccc([NH2+]Cc2coc(-c3cccs3)n2)cc1Cl (3D coordinates assigned)
COc1ccc([NH2+]Cc2coc(-c3cccs3)n2)cc1Cl (optimized conformer: 90.83149776814456 kcal/mol)

>  <smiles>  (40) 
COc1ccc(NCc2coc(-c3cccs3)n2)cc1Cl

>  <score_type>  (40) 
oracle

>  <origin>  (40) 
adg

>  <m_score__min__energy>  (40) 
-6.1600000000000001

>  <m_primary>  (40) 
energy

$$$$
40:0
     RDKit          3D

 50 52  0  0  0  0  0  0  0  0999 V2000
   56.9040   30.6430   43.9010 C   0  0  0  0  0  0  0  0  0  0  0  0
   57.0270   31.1780   45.2160 O   0  0  0  0  0  0  0  0  0  0  0  0
   57.7390   32.3440   45.5330 C   0  0  0  0  0  0  0  0  0  0  0  0
   57.6990   33.4120   44.6290 C   0  0  0  0  0  0  0  0  0  0  0  0
   58.3960   34.5920   44.8970 C   0  0  0  0  0  0  0  0  0  0  0  0
   59.1340   34.7190   46.0760 C   0  0  0  0  0  0  0  0  0  0  0  0
   59.1730   33.6690   47.0040 C   0  0  0  0  0  0  0  0  0  0  0  0
   59.9720   33.8080   48.2840 C   0  0  0  0  0  0  0  0  0  0  0  0
   61.4160   33.5020   48.1360 N   0  0  0  0  0  0  0  0  0  0  0  0
   61.8600   33.5510   46.7330 C   0  0  0  0  0  0  0  0  0  0  0  0
   61.8290   32.2340   48.7750 C   0  0  0  0  0  0  0  0  0  0  0  0
   60.9550   31.0870   48.3340 C   0  0  0  0  0  0  0  0  0  0  0  0
   59.9110   30.6330   49.1490 C   0  0  0  0  0  0  0  0  0  0  0  0
   59.0920   29.5810   48.7340 C   0  0  0  0  0  0  0  0  0  0  0  0
   59.2850   28.9540   47.4800 C   0  0  0  0  0  0  0  0  0  0  0  0
   58.4320   27.8490   47.0450 N   0  0  0  0  0  0  0  0  0  0  0  0
   58.5410   26.5400   47.7220 C   0  0  0  0  0  0  0  0  0  0  0  0
   57.6510   25.4550   47.1080 C   0  0  0  0  0  0  0  0  0  0  0  0
   56.4090   25.9850   46.7150 O   0  0  0  0  0  0  0  0  0  0  0  0
   56.6200   26.8400   45.6160 C   0  0  0  0  0  0  0  0  0  0  0  0
   57.3770   28.1010   46.0390 C   0  0  0  0  0  0  0  0  0  0  0  0
   60.3260   29.4460   46.6570 C   0  0  0  0  0  0  0  0  0  0  0  0
   61.1430   30.4980   47.0780 C   0  0  0  0  0  0  0  0  0  0  0  0
   58.4860   32.4740   46.7200 C   0  0  0  0  0  0  0  0  0  0  0  0
   56.6579   29.5726   43.9622 H   0  0  0  0  0  0  0  0  0  0  0  0
   56.1043   31.1729   43.3629 H   0  0  0  0  0  0  0  0  0  0  0  0
   57.8549   30.7705   43.3629 H   0  0  0  0  0  0  0  0  0  0  0  0
   57.1147   33.3212   43.7014 H   0  0  0  0  0  0  0  0  0  0  0  0
   58.3637   35.4236   44.1777 H   0  0  0  0  0  0  0  0  0  0  0  0
   59.6876   35.6479   46.2774 H   0  0  0  0  0  0  0  0  0  0  0  0
   59.8737   34.8437   48.6412 H   0  0  0  0  0  0  0  0  0  0  0  0
   59.5641   33.0722   48.9926 H   0  0  0  0  0  0  0  0  0  0  0  0
   62.9528   33.6716   46.6983 H   0  0  0  0  0  0  0  0  0  0  0  0
   61.5780   32.6163   46.2263 H   0  0  0  0  0  0  0  0  0  0  0  0
   61.3809   34.4017   46.2263 H   0  0  0  0  0  0  0  0  0  0  0  0
   62.8714   32.0167   48.4989 H   0  0  0  0  0  0  0  0  0  0  0  0
   61.7299   32.3465   49.8647 H   0  0  0  0  0  0  0  0  0  0  0  0
   59.7344   31.1092   50.1247 H   0  0  0  0  0  0  0  0  0  0  0  0
   58.2828   29.2336   49.3932 H   0  0  0  0  0  0  0  0  0  0  0  0
   59.5872   26.2050   47.6646 H   0  0  0  0  0  0  0  0  0  0  0  0
   58.2038   26.6846   48.7590 H   0  0  0  0  0  0  0  0  0  0  0  0
   58.1561   25.0310   46.2276 H   0  0  0  0  0  0  0  0  0  0  0  0
   57.4761   24.6756   47.8643 H   0  0  0  0  0  0  0  0  0  0  0  0
   57.2068   26.3072   44.8533 H   0  0  0  0  0  0  0  0  0  0  0  0
   55.6416   27.1381   45.2112 H   0  0  0  0  0  0  0  0  0  0  0  0
   57.8456   28.5411   45.1464 H   0  0  0  0  0  0  0  0  0  0  0  0
   56.6437   28.7770   46.5030 H   0  0  0  0  0  0  0  0  0  0  0  0
   60.4946   28.9924   45.6692 H   0  0  0  0  0  0  0  0  0  0  0  0
   61.9410   30.8668   46.4168 H   0  0  0  0  0  0  0  0  0  0  0  0
   58.5328   31.6353   47.4303 H   0  0  0  0  0  0  0  0  0  0  0  0
  1  2  1  0
  2  3  1  0
  3  4  2  0
  4  5  1  0
  5  6  2  0
  6  7  1  0
  7  8  1  0
  8  9  1  0
  9 10  1  0
  9 11  1  0
 11 12  1  0
 12 13  2  0
 13 14  1  0
 14 15  2  0
 15 16  1  0
 16 17  1  0
 17 18  1  0
 18 19  1  0
 19 20  1  0
 20 21  1  0
 15 22  1  0
 22 23  2  0
  7 24  2  0
 24  3  1  0
 23 12  1  0
 21 16  1  0
  1 25  1  0
  1 26  1  0
  1 27  1  0
  4 28  1  0
  5 29  1  0
  6 30  1  0
  8 31  1  0
  8 32  1  0
 10 33  1  0
 10 34  1  0
 10 35  1  0
 11 36  1  0
 11 37  1  0
 13 38  1  0
 14 39  1  0
 17 40  1  0
 17 41  1  0
 18 42  1  0
 18 43  1  0
 20 44  1  0
 20 45  1  0
 21 46  1  0
 21 47  1  0
 22 48  1  0
 23 49  1  0
 24 50  1  0
M  END
>  <UniqueID>  (41) 
38

>  <SMILES>  (41) 
COc1cccc(CN(C)Cc2ccc(N3CCOCC3)cc2)c1

>  <Energy>  (41) 
60.98625442373877

>  <Genealogy>  (41) 
COc1cccc(CN(C)Cc2ccc(N3CCOCC3)cc2)c1 (3D coordinates assigned)
COc1cccc(CN(C)Cc2ccc(N3CCOCC3)cc2)c1 (nonaromatic ring conformer: 60.98625442373877 kcal/mol)

>  <smiles>  (41) 
COc1cccc(CN(C)Cc2ccc(N3CCOCC3)cc2)c1

>  <score_type>  (41) 
oracle

>  <origin>  (41) 
adg

>  <m_score__min__energy>  (41) 
-7.8200000000000003

>  <m_primary>  (41) 
energy

$$$$
41:0
     RDKit          3D

 69 73  0  0  0  0  0  0  0  0999 V2000
   57.1580   33.6050   45.8610 C   0  0  0  0  0  0  0  0  0  0  0  0
   58.5260   33.6270   46.4800 C   0  0  0  0  0  0  0  0  0  0  0  0
   59.6580   33.7960   45.6680 C   0  0  0  0  0  0  0  0  0  0  0  0
   60.9340   33.8480   46.2380 C   0  0  0  0  0  0  0  0  0  0  0  0
   61.0900   33.7320   47.6270 C   0  0  0  0  0  0  0  0  0  0  0  0
   62.6870   33.8260   48.3590 S   0  0  0  0  0  0  0  0  0  0  0  0
   62.6550   34.8180   49.4890 O   0  0  0  0  0  0  0  0  0  0  0  0
   63.6840   34.2840   47.3320 O   0  0  0  0  0  0  0  0  0  0  0  0
   63.1220   32.2500   48.9430 N   0  0  0  0  0  0  0  0  0  0  0  0
   62.2080   31.2490   49.4030 C   0  0  0  0  0  0  0  0  0  0  0  0
   62.2340   30.9120   50.6140 O   0  0  0  0  0  0  0  0  0  0  0  0
   61.2370   30.5980   48.5030 C   0  0  0  0  0  0  0  0  0  0  0  0
   61.5270   30.5070   47.1360 C   0  0  0  0  0  0  0  0  0  0  0  0
   60.6210   29.9120   46.2580 C   0  0  0  0  0  0  0  0  0  0  0  0
   59.4110   29.3830   46.7350 C   0  0  0  0  0  0  0  0  0  0  0  0
   58.4580   28.8000   45.8220 N   0  0  0  0  0  0  0  0  0  0  0  0
   57.4170   27.8820   46.2970 C   0  0  0  0  0  0  0  0  0  0  0  0
   57.4020   26.5870   45.4580 C   0  0  0  0  0  0  0  0  0  0  0  0
   58.0310   26.7670   44.1280 N   0  0  0  0  0  0  0  0  0  0  0  0
   57.7640   25.6500   43.1950 C   0  0  0  0  0  0  0  0  0  0  0  0
   57.3830   24.3530   43.8810 C   0  0  0  0  0  0  0  0  0  0  0  0
   56.1090   23.7900   43.6870 C   0  0  0  0  0  0  0  0  0  0  0  0
   55.7600   22.5970   44.3260 C   0  0  0  0  0  0  0  0  0  0  0  0
   56.6820   21.9480   45.1530 C   0  0  0  0  0  0  0  0  0  0  0  0
   57.9560   22.4900   45.3380 C   0  0  0  0  0  0  0  0  0  0  0  0
   58.3080   23.6840   44.7010 C   0  0  0  0  0  0  0  0  0  0  0  0
   57.7680   28.0980   43.5530 C   0  0  0  0  0  0  0  0  0  0  0  0
   58.4970   29.1520   44.3950 C   0  0  0  0  0  0  0  0  0  0  0  0
   59.1280   29.4580   48.1100 C   0  0  0  0  0  0  0  0  0  0  0  0
   60.0460   30.0400   49.0040 C   0  0  0  0  0  0  0  0  0  0  0  0
   59.7820   30.1090   50.3810 O   0  0  0  0  0  0  0  0  0  0  0  0
   59.0720   31.1320   51.0250 C   0  0  0  0  0  0  0  0  0  0  0  0
   57.7110   30.9970   51.3600 C   0  0  0  0  0  0  0  0  0  0  0  0
   57.0450   32.0320   52.0250 C   0  0  0  0  0  0  0  0  0  0  0  0
   57.7320   33.2010   52.3660 C   0  0  0  0  0  0  0  0  0  0  0  0
   59.0870   33.3330   52.0510 C   0  0  0  0  0  0  0  0  0  0  0  0
   59.7560   32.2980   51.3880 C   0  0  0  0  0  0  0  0  0  0  0  0
   59.9590   33.5780   48.4390 C   0  0  0  0  0  0  0  0  0  0  0  0
   58.6840   33.5290   47.8700 C   0  0  0  0  0  0  0  0  0  0  0  0
   56.3965   33.5928   46.6547 H   0  0  0  0  0  0  0  0  0  0  0  0
   57.0233   34.5011   45.2374 H   0  0  0  0  0  0  0  0  0  0  0  0
   57.0521   32.7050   45.2374 H   0  0  0  0  0  0  0  0  0  0  0  0
   59.5411   33.8880   44.5781 H   0  0  0  0  0  0  0  0  0  0  0  0
   61.8171   33.9802   45.5956 H   0  0  0  0  0  0  0  0  0  0  0  0
   62.4765   30.9078   46.7517 H   0  0  0  0  0  0  0  0  0  0  0  0
   60.8560   29.8569   45.1848 H   0  0  0  0  0  0  0  0  0  0  0  0
   57.6135   27.6276   47.3490 H   0  0  0  0  0  0  0  0  0  0  0  0
   56.4395   28.3768   46.1982 H   0  0  0  0  0  0  0  0  0  0  0  0
   57.9500   25.8056   46.0049 H   0  0  0  0  0  0  0  0  0  0  0  0
   56.3512   26.3049   45.2962 H   0  0  0  0  0  0  0  0  0  0  0  0
   56.9394   25.9447   42.5292 H   0  0  0  0  0  0  0  0  0  0  0  0
   58.7002   25.4593   42.6498 H   0  0  0  0  0  0  0  0  0  0  0  0
   55.3836   24.2910   43.0291 H   0  0  0  0  0  0  0  0  0  0  0  0
   54.7581   22.1678   44.1781 H   0  0  0  0  0  0  0  0  0  0  0  0
   56.4041   21.0110   45.6577 H   0  0  0  0  0  0  0  0  0  0  0  0
   58.6828   21.9773   45.9852 H   0  0  0  0  0  0  0  0  0  0  0  0
   59.3154   24.1024   44.8426 H   0  0  0  0  0  0  0  0  0  0  0  0
   58.1364   28.1327   42.5171 H   0  0  0  0  0  0  0  0  0  0  0  0
   56.6866   28.2996   43.5556 H   0  0  0  0  0  0  0  0  0  0  0  0
   59.5453   29.2131   44.0673 H   0  0  0  0  0  0  0  0  0  0  0  0
   57.9952   30.1212   44.2575 H   0  0  0  0  0  0  0  0  0  0  0  0
   58.1775   29.0569   48.4918 H   0  0  0  0  0  0  0  0  0  0  0  0
   57.1702   30.0756   51.0982 H   0  0  0  0  0  0  0  0  0  0  0  0
   55.9802   31.9261   52.2798 H   0  0  0  0  0  0  0  0  0  0  0  0
   57.2056   34.0172   52.8825 H   0  0  0  0  0  0  0  0  0  0  0  0
   59.6280   34.2509   52.3243 H   0  0  0  0  0  0  0  0  0  0  0  0
   60.8252   32.4013   51.1509 H   0  0  0  0  0  0  0  0  0  0  0  0
   60.0753   33.4953   49.5297 H   0  0  0  0  0  0  0  0  0  0  0  0
   57.8004   33.4131   48.5149 H   0  0  0  0  0  0  0  0  0  0  0  0
  1  2  1  0
  2  3  2  0
  3  4  1  0
  4  5  2  0
  5  6  1  0
  6  7  2  0
  6  8  2  0
  6  9  1  0
  9 10  1  0
 10 11  2  0
 10 12  1  0
 12 13  2  0
 13 14  1  0
 14 15  2  0
 15 16  1  0
 16 17  1  0
 17 18  1  0
 18 19  1  0
 19 20  1  0
 20 21  1  0
 21 22  2  0
 22 23  1  0
 23 24  2  0
 24 25  1  0
 25 26  2  0
 19 27  1  0
 27 28  1  0
 15 29  1  0
 29 30  2  0
 30 31  1  0
 31 32  1  0
 32 33  2  0
 33 34  1  0
 34 35  2  0
 35 36  1  0
 36 37  2  0
  5 38  1  0
 38 39  2  0
 39  2  1  0
 30 12  1  0
 37 32  1  0
 28 16  1  0
 26 21  1  0
  1 40  1  0
  1 41  1  0
  1 42  1  0
  3 43  1  0
  4 44  1  0
 13 45  1  0
 14 46  1  0
 17 47  1  0
 17 48  1  0
 18 49  1  0
 18 50  1  0
 20 51  1  0
 20 52  1  0
 22 53  1  0
 23 54  1  0
 24 55  1  0
 25 56  1  0
 26 57  1  0
 27 58  1  0
 27 59  1  0
 28 60  1  0
 28 61  1  0
 29 62  1  0
 33 63  1  0
 34 64  1  0
 35 65  1  0
 36 66  1  0
 37 67  1  0
 38 68  1  0
 39 69  1  0
M  CHG  1   9  -1
M  END
>  <UniqueID>  (42) 
39

>  <SMILES>  (42) 
Cc1ccc(S(=O)(=O)[N-]C(=O)c2ccc(N3CCN(Cc4ccccc4)CC3)cc2Oc2ccccc2)cc1

>  <Energy>  (42) 
102.00568303067436

>  <Genealogy>  (42) 
Cc1ccc(S(=O)(=O)[N-]C(=O)c2ccc(N3CCN(Cc4ccccc4)CC3)cc2Oc2ccccc2)cc1 (protonated)
Cc1ccc(S(=O)(=O)[N-]C(=O)c2ccc(N3CCN(Cc4ccccc4)CC3)cc2Oc2ccccc2)cc1 (3D coordinates assigned)
Cc1ccc(S(=O)(=O)[N-]C(=O)c2ccc(N3CCN(Cc4ccccc4)CC3)cc2Oc2ccccc2)cc1 (nonaromatic ring conformer: 102.00568303067436 kcal/mol)

>  <smiles>  (42) 
Cc1ccc(S(=O)(=O)NC(=O)c2ccc(N3CCN(Cc4ccccc4)CC3)cc2Oc2ccccc2)cc1

>  <score_type>  (42) 
oracle

>  <origin>  (42) 
adg

>  <m_score__min__energy>  (42) 
-11.529999999999999

>  <m_primary>  (42) 
energy

$$$$
42:0
     RDKit          3D

 50 52  0  0  0  0  0  0  0  0999 V2000
   59.2280   34.7090   47.7930 C   0  0  0  0  0  0  0  0  0  0  0  0
   59.6300   33.3970   48.9910 S   0  0  0  0  0  0  0  0  0  0  0  0
   61.2470   33.0650   48.2710 C   0  0  0  0  0  0  0  0  0  0  0  0
   62.2150   34.0800   48.2940 C   0  0  0  0  0  0  0  0  0  0  0  0
   63.4860   33.8540   47.7600 C   0  0  0  0  0  0  0  0  0  0  0  0
   63.7990   32.6140   47.2010 C   0  0  0  0  0  0  0  0  0  0  0  0
   62.8470   31.5920   47.1830 C   0  0  0  0  0  0  0  0  0  0  0  0
   61.5670   31.8010   47.7310 C   0  0  0  0  0  0  0  0  0  0  0  0
   60.5840   30.7510   47.6980 N   0  0  0  0  0  0  0  0  0  0  0  0
   60.6310   29.6000   48.5560 C   0  0  0  0  0  0  0  0  0  0  0  0
   61.4820   29.5250   49.4850 O   0  0  0  0  0  0  0  0  0  0  0  0
   59.6750   28.4650   48.3430 C   0  0  0  0  0  0  0  0  0  0  0  0
   60.2840   27.4270   47.3900 C   0  0  0  0  0  0  0  0  0  0  0  0
   59.3390   27.0550   46.2360 C   0  0  0  0  0  0  0  0  0  0  0  0
   59.5370   27.9470   44.9990 C   0  0  0  0  0  0  0  0  0  0  0  0
   58.5430   27.5980   43.8820 C   0  0  0  0  0  0  0  0  0  0  0  0
   57.4020   28.5190   43.8720 N   0  0  0  0  0  0  0  0  0  0  0  0
   57.4880   29.9430   44.0900 C   0  0  0  0  0  0  0  0  0  0  0  0
   57.3680   30.8270   42.9960 C   0  0  0  0  0  0  0  0  0  0  0  0
   57.4440   32.2270   43.1790 C   0  0  0  0  0  0  0  0  0  0  0  0
   57.6450   32.7790   44.4650 C   0  0  0  0  0  0  0  0  0  0  0  0
   57.7330   34.2030   44.6650 N   0  0  0  0  0  0  0  0  0  0  0  0
   56.6980   34.8930   44.7770 O   0  0  0  0  0  0  0  0  0  0  0  0
   58.9580   34.8310   44.7350 O   0  0  0  0  0  0  0  0  0  0  0  0
   57.7720   31.8720   45.5250 C   0  0  0  0  0  0  0  0  0  0  0  0
   58.0010   32.1160   46.8260 N   0  0  0  0  0  0  0  0  0  0  0  0
   58.0660   30.9320   47.3790 O   0  0  0  0  0  0  0  0  0  0  0  0
   57.8980   29.9390   46.5420 N   0  0  0  0  0  0  0  0  0  0  0  0
   57.7040   30.5250   45.3490 C   0  0  0  0  0  0  0  0  0  0  0  0
   58.9473   35.6252   48.3331 H   0  0  0  0  0  0  0  0  0  0  0  0
   60.1057   34.9101   47.1612 H   0  0  0  0  0  0  0  0  0  0  0  0
   58.3883   34.3839   47.1612 H   0  0  0  0  0  0  0  0  0  0  0  0
   61.9722   35.0583   48.7345 H   0  0  0  0  0  0  0  0  0  0  0  0
   64.2407   34.6540   47.7801 H   0  0  0  0  0  0  0  0  0  0  0  0
   64.7977   32.4411   46.7736 H   0  0  0  0  0  0  0  0  0  0  0  0
   63.0988   30.6180   46.7380 H   0  0  0  0  0  0  0  0  0  0  0  0
   59.7620   30.8560   47.0640 H   0  0  0  0  0  0  0  0  0  0  0  0
   59.4582   27.9869   49.3097 H   0  0  0  0  0  0  0  0  0  0  0  0
   58.7476   28.8568   47.8999 H   0  0  0  0  0  0  0  0  0  0  0  0
   61.2115   27.8397   46.9663 H   0  0  0  0  0  0  0  0  0  0  0  0
   60.4741   26.5130   47.9717 H   0  0  0  0  0  0  0  0  0  0  0  0
   59.5265   26.0095   45.9501 H   0  0  0  0  0  0  0  0  0  0  0  0
   58.3076   27.2000   46.5898 H   0  0  0  0  0  0  0  0  0  0  0  0
   59.3914   28.9977   45.2902 H   0  0  0  0  0  0  0  0  0  0  0  0
   60.5549   27.7813   44.6162 H   0  0  0  0  0  0  0  0  0  0  0  0
   59.0592   27.6576   42.9125 H   0  0  0  0  0  0  0  0  0  0  0  0
   58.1645   26.5809   44.0617 H   0  0  0  0  0  0  0  0  0  0  0  0
   56.4520   28.0920   43.7890 H   0  0  0  0  0  0  0  0  0  0  0  0
   57.2130   30.4205   41.9857 H   0  0  0  0  0  0  0  0  0  0  0  0
   57.3456   32.8947   42.3104 H   0  0  0  0  0  0  0  0  0  0  0  0
  1  2  1  0
  2  3  1  0
  3  4  2  0
  4  5  1  0
  5  6  2  0
  6  7  1  0
  7  8  2  0
  8  9  1  0
  9 10  1  0
 10 11  2  0
 10 12  1  0
 12 13  1  0
 13 14  1  0
 14 15  1  0
 15 16  1  0
 16 17  1  0
 17 18  1  0
 18 19  2  0
 19 20  1  0
 20 21  2  0
 21 22  1  0
 22 23  2  0
 22 24  1  0
 21 25  1  0
 25 26  2  0
 26 27  1  0
 27 28  1  0
 28 29  2  0
  8  3  1  0
 29 18  1  0
 29 25  1  0
  1 30  1  0
  1 31  1  0
  1 32  1  0
  4 33  1  0
  5 34  1  0
  6 35  1  0
  7 36  1  0
  9 37  1  0
 12 38  1  0
 12 39  1  0
 13 40  1  0
 13 41  1  0
 14 42  1  0
 14 43  1  0
 15 44  1  0
 15 45  1  0
 16 46  1  0
 16 47  1  0
 17 48  1  0
 19 49  1  0
 20 50  1  0
M  CHG  2  22   1  24  -1
M  END
>  <UniqueID>  (43) 
40

>  <SMILES>  (43) 
CSc1ccccc1NC(=O)CCCCCNc1ccc([N+](=O)[O-])c2nonc12

>  <Energy>  (43) 
88.98460160391798

>  <Genealogy>  (43) 
CSc1ccccc1NC(=O)CCCCCNc1ccc([N+](=O)[O-])c2nonc12 (3D coordinates assigned)
CSc1ccccc1NC(=O)CCCCCNc1ccc([N+](=O)[O-])c2nonc12 (optimized conformer: 88.98460160391798 kcal/mol)

>  <smiles>  (43) 
CSc1ccccc1NC(=O)CCCCCNc1ccc([N+](=O)[O-])c2nonc12

>  <score_type>  (43) 
oracle

>  <origin>  (43) 
adg

>  <m_score__min__energy>  (43) 
-10.35

>  <m_primary>  (43) 
energy

$$$$
43:0
     RDKit          3D

 49 52  0  0  1  0  0  0  0  0999 V2000
   57.7960   27.3550   42.5910 N   0  0  0  0  0  0  0  0  0  0  0  0
   57.7060   28.0670   43.6750 C   0  0  0  0  0  0  0  0  0  0  0  0
   58.1000   27.5730   44.8740 N   0  0  0  0  0  0  0  0  0  0  0  0
   57.9970   28.3260   45.9540 C   0  0  0  0  0  0  0  0  0  0  0  0
   58.3810   27.9070   47.3340 C   0  0  0  0  0  0  0  0  0  0  0  0
   59.7650   28.1240   47.4960 N   0  0  0  0  0  0  0  0  0  0  0  0
   60.5320   28.5400   46.3950 C   0  0  0  0  0  0  0  0  0  0  0  0
   60.5010   30.0440   46.2280 C   0  0  0  0  0  0  0  0  0  0  0  0
   60.5560   30.7700   47.4590 N   0  0  0  0  0  0  0  0  0  0  0  0
   60.9780   32.1460   47.4900 C   0  0  0  0  0  0  0  0  0  0  0  0
   61.2930   32.6450   46.3910 O   0  0  0  0  0  0  0  0  0  0  0  0
   61.0190   32.8730   48.7530 C   0  0  0  0  0  0  0  0  0  0  0  0
   62.2020   33.4030   49.2680 C   0  0  0  0  0  0  0  0  0  0  0  0
   61.8290   34.0060   50.4560 C   0  0  0  0  0  0  0  0  0  0  0  0
   60.4790   33.8280   50.6180 C   0  0  0  0  0  0  0  0  0  0  0  0
   60.0440   33.1470   49.5760 O   0  0  0  0  0  0  0  0  0  0  0  0
   60.1960   30.1900   48.7410 C   0  0  0  0  0  0  0  0  0  0  0  0
   60.1310   28.6970   48.7260 C   0  0  0  0  0  0  0  0  0  0  0  0
   57.5000   29.5750   45.8330 N   0  0  0  0  0  0  0  0  0  0  0  0
   57.1120   30.0560   44.6380 C   0  0  0  0  0  0  0  0  0  0  0  0
   56.6410   31.2550   44.6170 N   0  0  0  0  0  0  0  0  0  0  0  0
   57.4320   32.3770   44.9800 C   0  0  0  0  0  0  0  0  0  0  0  0
   58.2090   33.0710   44.0650 C   0  0  0  0  0  0  0  0  0  0  0  0
   58.9230   34.1410   44.5470 C   0  0  0  0  0  0  0  0  0  0  0  0
   58.8970   34.5390   45.8710 C   0  0  0  0  0  0  0  0  0  0  0  0
   58.1110   33.8330   46.7840 C   0  0  0  0  0  0  0  0  0  0  0  0
   57.4000   32.7680   46.3050 C   0  0  0  0  0  0  0  0  0  0  0  0
   57.2070   29.3090   43.5270 N   0  0  0  0  0  0  0  0  0  0  0  0
   56.9690   26.7710   42.2690 H   0  0  0  0  0  0  0  0  0  0  0  0
   57.8228   28.5020   48.0718 H   0  0  0  0  0  0  0  0  0  0  0  0
   58.1448   26.8434   47.4856 H   0  0  0  0  0  0  0  0  0  0  0  0
   61.5735   28.2192   46.5444 H   0  0  0  0  0  0  0  0  0  0  0  0
   60.1059   28.0853   45.4885 H   0  0  0  0  0  0  0  0  0  0  0  0
   61.3634   30.3410   45.6131 H   0  0  0  0  0  0  0  0  0  0  0  0
   59.5380   30.2908   45.7572 H   0  0  0  0  0  0  0  0  0  0  0  0
   63.2086   33.3527   48.8272 H   0  0  0  0  0  0  0  0  0  0  0  0
   62.4985   34.5358   51.1496 H   0  0  0  0  0  0  0  0  0  0  0  0
   59.8711   34.1871   51.4615 H   0  0  0  0  0  0  0  0  0  0  0  0
   60.9458   30.4978   49.4846 H   0  0  0  0  0  0  0  0  0  0  0  0
   59.1877   30.5540   48.9876 H   0  0  0  0  0  0  0  0  0  0  0  0
   61.1243   28.3109   48.9986 H   0  0  0  0  0  0  0  0  0  0  0  0
   59.3397   28.4199   49.4381 H   0  0  0  0  0  0  0  0  0  0  0  0
   57.4100   30.1980   46.6890 H   0  0  0  0  0  0  0  0  0  0  0  0
   58.2516   32.7791   43.0053 H   0  0  0  0  0  0  0  0  0  0  0  0
   59.5477   34.7107   43.8433 H   0  0  0  0  0  0  0  0  0  0  0  0
   59.4902   35.4041   46.2021 H   0  0  0  0  0  0  0  0  0  0  0  0
   58.0658   34.1217   47.8445 H   0  0  0  0  0  0  0  0  0  0  0  0
   56.7741   32.1965   47.0061 H   0  0  0  0  0  0  0  0  0  0  0  0
   56.8970   29.7140   42.6210 H   0  0  0  0  0  0  0  0  0  0  0  0
  1  2  2  3
  2  3  1  0
  3  4  2  0
  4  5  1  0
  5  6  1  0
  6  7  1  0
  7  8  1  0
  8  9  1  0
  9 10  1  0
 10 11  2  0
 10 12  1  0
 12 13  2  0
 13 14  1  0
 14 15  2  0
 15 16  1  0
  9 17  1  0
 17 18  1  0
  4 19  1  0
 19 20  1  0
 20 21  2  0
 21 22  1  0
 22 23  2  0
 23 24  1  0
 24 25  2  0
 25 26  1  0
 26 27  2  0
 20 28  1  0
 28  2  1  0
 18  6  1  0
 27 22  1  0
 16 12  1  0
  1 29  1  0
  5 30  1  0
  5 31  1  0
  7 32  1  0
  7 33  1  0
  8 34  1  0
  8 35  1  0
 13 36  1  0
 14 37  1  0
 15 38  1  0
 17 39  1  0
 17 40  1  0
 18 41  1  0
 18 42  1  0
 19 43  1  0
 23 44  1  0
 24 45  1  0
 25 46  1  0
 26 47  1  0
 27 48  1  0
 28 49  1  0
M  END
>  <smiles>  (44) 
N=c1nc(CN2CCN(C(=O)c3ccco3)CC2)[nH]c(=Nc2ccccc2)[nH]1

>  <score_type>  (44) 
oracle

>  <origin>  (44) 
adg

>  <m_score__min__energy>  (44) 
-8.4600000000000009

>  <m_primary>  (44) 
energy

$$$$
44:0
     RDKit          3D

 27 28  0  0  0  0  0  0  0  0999 V2000
   56.2630   29.7750   42.8470 C   0  0  0  0  0  0  0  0  0  0  0  0
   56.2080   29.6040   44.3340 C   0  0  0  0  0  0  0  0  0  0  0  0
   55.1400   29.3450   44.8670 O   0  0  0  0  0  0  0  0  0  0  0  0
   57.4430   29.7670   45.1760 C   0  0  0  0  0  0  0  0  0  0  0  0
   57.5090   31.0800   45.7300 O   0  0  0  0  0  0  0  0  0  0  0  0
   58.6900   31.7730   46.0460 C   0  0  0  0  0  0  0  0  0  0  0  0
   58.7500   33.1400   45.7520 C   0  0  0  0  0  0  0  0  0  0  0  0
   59.8970   33.8840   46.0380 C   0  0  0  0  0  0  0  0  0  0  0  0
   61.0080   33.2660   46.6290 C   0  0  0  0  0  0  0  0  0  0  0  0
   62.1660   34.0030   46.9200 C   0  0  0  0  0  0  0  0  0  0  0  0
   63.2670   33.3750   47.5100 C   0  0  0  0  0  0  0  0  0  0  0  0
   63.2200   32.0120   47.8130 C   0  0  0  0  0  0  0  0  0  0  0  0
   62.0730   31.2670   47.5280 C   0  0  0  0  0  0  0  0  0  0  0  0
   60.9590   31.8850   46.9350 C   0  0  0  0  0  0  0  0  0  0  0  0
   59.8020   31.1470   46.6440 C   0  0  0  0  0  0  0  0  0  0  0  0
   56.5917   30.7970   42.6074 H   0  0  0  0  0  0  0  0  0  0  0  0
   56.9738   29.0518   42.4208 H   0  0  0  0  0  0  0  0  0  0  0  0
   55.2638   29.6018   42.4208 H   0  0  0  0  0  0  0  0  0  0  0  0
   57.4217   29.0313   45.9935 H   0  0  0  0  0  0  0  0  0  0  0  0
   58.3265   29.6078   44.5404 H   0  0  0  0  0  0  0  0  0  0  0  0
   57.8830   33.6347   45.2899 H   0  0  0  0  0  0  0  0  0  0  0  0
   59.9287   34.9573   45.7990 H   0  0  0  0  0  0  0  0  0  0  0  0
   62.2076   35.0765   46.6836 H   0  0  0  0  0  0  0  0  0  0  0  0
   64.1732   33.9560   47.7364 H   0  0  0  0  0  0  0  0  0  0  0  0
   64.0892   31.5236   48.2777 H   0  0  0  0  0  0  0  0  0  0  0  0
   62.0419   30.1940   47.7684 H   0  0  0  0  0  0  0  0  0  0  0  0
   59.7625   30.0742   46.8838 H   0  0  0  0  0  0  0  0  0  0  0  0
  1  2  1  0
  2  3  2  0
  2  4  1  0
  4  5  1  0
  5  6  1  0
  6  7  2  0
  7  8  1  0
  8  9  2  0
  9 10  1  0
 10 11  2  0
 11 12  1  0
 12 13  2  0
 13 14  1  0
 14 15  2  0
 15  6  1  0
 14  9  1  0
  1 16  1  0
  1 17  1  0
  1 18  1  0
  4 19  1  0
  4 20  1  0
  7 21  1  0
  8 22  1  0
 10 23  1  0
 11 24  1  0
 12 25  1  0
 13 26  1  0
 15 27  1  0
M  END
>  <UniqueID>  (45) 
41

>  <SMILES>  (45) 
CC(=O)COc1ccc2ccccc2c1

>  <Energy>  (45) 
27.293882572283685

>  <Genealogy>  (45) 
CC(=O)COc1ccc2ccccc2c1 (3D coordinates assigned)
CC(=O)COc1ccc2ccccc2c1 (optimized conformer: 27.293882572283685 kcal/mol)

>  <smiles>  (45) 
CC(=O)COc1ccc2ccccc2c1

>  <score_type>  (45) 
oracle

>  <origin>  (45) 
adg

>  <m_score__min__energy>  (45) 
-6.5

>  <m_primary>  (45) 
energy

$$$$
45:0
     RDKit          3D

 40 42  0  0  0  0  0  0  0  0999 V2000
   55.8870   29.7280   43.4870 C   0  0  0  0  0  0  0  0  0  0  0  0
   56.1060   29.6250   44.8910 O   0  0  0  0  0  0  0  0  0  0  0  0
   57.3620   29.7260   45.5110 C   0  0  0  0  0  0  0  0  0  0  0  0
   58.0870   28.5850   45.9010 C   0  0  0  0  0  0  0  0  0  0  0  0
   59.3310   28.7100   46.5150 C   0  0  0  0  0  0  0  0  0  0  0  0
   59.8700   29.9780   46.7550 C   0  0  0  0  0  0  0  0  0  0  0  0
   61.1210   30.1090   47.3780 C   0  0  0  0  0  0  0  0  0  0  0  0
   61.6470   31.3830   47.6260 C   0  0  0  0  0  0  0  0  0  0  0  0
   62.8880   31.5470   48.2590 C   0  0  0  0  0  0  0  0  0  0  0  0
   63.3890   32.8380   48.5050 C   0  0  0  0  0  0  0  0  0  0  0  0
   64.6930   33.0110   49.2260 C   0  0  0  0  0  0  0  0  0  0  0  0
   62.6290   33.9610   48.1350 C   0  0  0  0  0  0  0  0  0  0  0  0
   61.3960   33.8010   47.4960 C   0  0  0  0  0  0  0  0  0  0  0  0
   60.9030   32.5170   47.2380 C   0  0  0  0  0  0  0  0  0  0  0  0
   59.7000   32.3620   46.6270 N   0  0  0  0  0  0  0  0  0  0  0  0
   59.1550   31.1420   46.3720 C   0  0  0  0  0  0  0  0  0  0  0  0
   57.8880   31.0120   45.7380 C   0  0  0  0  0  0  0  0  0  0  0  0
   57.0940   32.0940   45.2920 O   0  0  0  0  0  0  0  0  0  0  0  0
   57.3850   33.0520   44.2690 C   0  0  0  0  0  0  0  0  0  0  0  0
   58.2530   34.1560   44.8690 C   0  0  0  0  0  0  0  0  0  0  0  0
   58.1260   32.3820   43.1000 C   0  0  0  0  0  0  0  0  0  0  0  0
   54.9058   30.1895   43.3018 H   0  0  0  0  0  0  0  0  0  0  0  0
   56.6753   30.3498   43.0376 H   0  0  0  0  0  0  0  0  0  0  0  0
   55.9108   28.7243   43.0376 H   0  0  0  0  0  0  0  0  0  0  0  0
   57.6673   27.5846   45.7193 H   0  0  0  0  0  0  0  0  0  0  0  0
   59.8902   27.8103   46.8115 H   0  0  0  0  0  0  0  0  0  0  0  0
   61.6872   29.2126   47.6709 H   0  0  0  0  0  0  0  0  0  0  0  0
   63.4701   30.6647   48.5634 H   0  0  0  0  0  0  0  0  0  0  0  0
   64.5176   32.9877   50.3117 H   0  0  0  0  0  0  0  0  0  0  0  0
   65.3769   32.1957   48.9475 H   0  0  0  0  0  0  0  0  0  0  0  0
   65.1407   33.9764   48.9475 H   0  0  0  0  0  0  0  0  0  0  0  0
   63.0066   34.9716   48.3495 H   0  0  0  0  0  0  0  0  0  0  0  0
   60.8133   34.6844   47.1960 H   0  0  0  0  0  0  0  0  0  0  0  0
   56.4458   33.4757   43.8838 H   0  0  0  0  0  0  0  0  0  0  0  0
   58.2096   34.1008   45.9668 H   0  0  0  0  0  0  0  0  0  0  0  0
   59.2934   34.0261   44.5362 H   0  0  0  0  0  0  0  0  0  0  0  0
   57.8813   35.1363   44.5362 H   0  0  0  0  0  0  0  0  0  0  0  0
   58.8875   31.6935   43.4950 H   0  0  0  0  0  0  0  0  0  0  0  0
   57.4079   31.8204   42.4844 H   0  0  0  0  0  0  0  0  0  0  0  0
   58.6127   33.1528   42.4844 H   0  0  0  0  0  0  0  0  0  0  0  0
  1  2  1  0
  2  3  1  0
  3  4  2  0
  4  5  1  0
  5  6  2  0
  6  7  1  0
  7  8  2  0
  8  9  1  0
  9 10  2  0
 10 11  1  0
 10 12  1  0
 12 13  2  0
 13 14  1  0
 14 15  2  0
 15 16  1  0
 16 17  2  0
 17 18  1  0
 18 19  1  0
 19 20  1  0
 19 21  1  0
 17  3  1  0
 16  6  1  0
 14  8  1  0
  1 22  1  0
  1 23  1  0
  1 24  1  0
  4 25  1  0
  5 26  1  0
  7 27  1  0
  9 28  1  0
 11 29  1  0
 11 30  1  0
 11 31  1  0
 12 32  1  0
 13 33  1  0
 19 34  1  0
 20 35  1  0
 20 36  1  0
 20 37  1  0
 21 38  1  0
 21 39  1  0
 21 40  1  0
M  END
>  <UniqueID>  (46) 
42

>  <SMILES>  (46) 
COc1ccc2cc3cc(C)ccc3nc2c1OC(C)C

>  <Energy>  (46) 
46.81553240339522

>  <Genealogy>  (46) 
COc1ccc2cc3cc(C)ccc3nc2c1OC(C)C (3D coordinates assigned)
COc1ccc2cc3cc(C)ccc3nc2c1OC(C)C (optimized conformer: 46.81553240339522 kcal/mol)

>  <smiles>  (46) 
COc1ccc2cc3cc(C)ccc3nc2c1OC(C)C

>  <score_type>  (46) 
oracle

>  <origin>  (46) 
adg

>  <m_score__min__energy>  (46) 
-7.3600000000000003

>  <m_primary>  (46) 
energy

$$$$
46:0
     RDKit          3D

 51 53  0  0  0  0  0  0  0  0999 V2000
   64.4149   33.6506   46.4813 H   0  0  0  0  0  0  0  0  0  0  0  0
   63.3980   33.7140   46.8960 C   0  0  0  0  0  0  0  0  0  0  0  0
   62.3370   33.8170   46.0660 N   0  0  0  0  0  0  0  0  0  0  0  0
   61.0620   33.8660   46.5270 C   0  0  0  0  0  0  0  0  0  0  0  0
   60.0200   33.9510   45.5980 C   0  0  0  0  0  0  0  0  0  0  0  0
   60.2492   34.0135   44.5240 H   0  0  0  0  0  0  0  0  0  0  0  0
   58.6940   33.9570   46.0240 C   0  0  0  0  0  0  0  0  0  0  0  0
   57.3940   34.0710   44.8530 Cl  0  0  0  0  0  0  0  0  0  0  0  0
   58.4040   33.8540   47.3820 C   0  0  0  0  0  0  0  0  0  0  0  0
   57.3563   33.8402   47.7168 H   0  0  0  0  0  0  0  0  0  0  0  0
   59.4340   33.7680   48.3230 C   0  0  0  0  0  0  0  0  0  0  0  0
   59.1839   33.6619   49.3889 H   0  0  0  0  0  0  0  0  0  0  0  0
   60.7950   33.8150   47.9290 C   0  0  0  0  0  0  0  0  0  0  0  0
   61.9230   33.7790   48.8220 C   0  0  0  0  0  0  0  0  0  0  0  0
   61.8850   33.8970   50.1260 N   0  0  0  0  0  0  0  0  0  0  0  0
   62.8280   33.5160   51.1690 C   0  0  0  0  0  0  0  0  0  0  0  0
   62.9941   34.3702   51.8419 H   0  0  0  0  0  0  0  0  0  0  0  0
   63.7816   33.2189   50.7081 H   0  0  0  0  0  0  0  0  0  0  0  0
   62.2640   32.3430   51.9670 C   0  0  0  0  0  0  0  0  0  0  0  0
   61.9417   32.6949   52.9581 H   0  0  0  0  0  0  0  0  0  0  0  0
   63.0406   31.5732   52.0863 H   0  0  0  0  0  0  0  0  0  0  0  0
   61.1210   31.7760   51.2560 N   0  0  0  0  0  0  0  0  0  0  0  0
   61.1140   31.8650   50.2140 H   0  0  0  0  0  0  0  0  0  0  0  0
   59.8830   31.5120   51.9260 C   0  0  0  0  0  0  0  0  0  0  0  0
   59.8840   31.0520   53.1000 O   0  0  0  0  0  0  0  0  0  0  0  0
   58.5780   31.7880   51.2310 C   0  0  0  0  0  0  0  0  0  0  0  0
   58.4316   32.8767   51.1730 H   0  0  0  0  0  0  0  0  0  0  0  0
   57.7787   31.3052   51.8124 H   0  0  0  0  0  0  0  0  0  0  0  0
   58.5400   31.2090   49.8110 C   0  0  0  0  0  0  0  0  0  0  0  0
   58.5689   32.0339   49.0839 H   0  0  0  0  0  0  0  0  0  0  0  0
   57.6144   30.6268   49.6914 H   0  0  0  0  0  0  0  0  0  0  0  0
   59.6800   30.3290   49.5820 N   0  0  0  0  0  0  0  0  0  0  0  0
   60.5090   30.3990   48.4180 C   0  0  0  0  0  0  0  0  0  0  0  0
   61.7120   30.7600   48.5220 O   0  0  0  0  0  0  0  0  0  0  0  0
   59.9510   30.0510   47.0940 C   0  0  0  0  0  0  0  0  0  0  0  0
   60.7210   29.3350   46.1630 C   0  0  0  0  0  0  0  0  0  0  0  0
   61.7486   29.0355   46.4166 H   0  0  0  0  0  0  0  0  0  0  0  0
   60.1870   29.0020   44.9170 C   0  0  0  0  0  0  0  0  0  0  0  0
   60.7985   28.4492   44.1887 H   0  0  0  0  0  0  0  0  0  0  0  0
   58.8800   29.3680   44.5920 C   0  0  0  0  0  0  0  0  0  0  0  0
   58.4695   29.1070   43.6054 H   0  0  0  0  0  0  0  0  0  0  0  0
   58.0880   30.0640   45.5110 C   0  0  0  0  0  0  0  0  0  0  0  0
   56.7720   30.3870   45.1470 O   0  0  0  0  0  0  0  0  0  0  0  0
   56.2990   30.4350   43.8050 C   0  0  0  0  0  0  0  0  0  0  0  0
   55.2046   30.5461   43.8057 H   0  0  0  0  0  0  0  0  0  0  0  0
   56.7541   31.2916   43.2862 H   0  0  0  0  0  0  0  0  0  0  0  0
   56.5728   29.5045   43.2862 H   0  0  0  0  0  0  0  0  0  0  0  0
   58.6320   30.4130   46.7630 C   0  0  0  0  0  0  0  0  0  0  0  0
   58.0213   30.9725   47.4869 H   0  0  0  0  0  0  0  0  0  0  0  0
   63.2080   33.6880   48.2710 C   0  0  0  0  0  0  0  0  0  0  0  0
   64.0784   33.5947   48.9371 H   0  0  0  0  0  0  0  0  0  0  0  0
  1  2  1  0
  2  3  1  0
  3  4  1  0
  4  5  2  0
  5  6  1  0
  5  7  1  0
  7  8  1  0
  7  9  2  0
  9 10  1  0
  9 11  1  0
 11 12  1  0
 11 13  2  0
 13 14  1  0
 14 15  2  0
 15 16  1  0
 16 17  1  0
 16 18  1  0
 16 19  1  0
 19 20  1  0
 19 21  1  0
 19 22  1  0
 22 23  1  0
 22 24  1  0
 24 25  2  0
 24 26  1  0
 26 27  1  0
 26 28  1  0
 26 29  1  0
 29 30  1  0
 29 31  1  0
 29 32  1  0
 32 33  1  0
 33 34  2  0
 33 35  1  0
 35 36  2  0
 36 37  1  0
 36 38  1  0
 38 39  1  0
 38 40  2  0
 40 41  1  0
 40 42  1  0
 42 43  1  0
 43 44  1  0
 44 45  1  0
 44 46  1  0
 44 47  1  0
 42 48  2  0
 48 49  1  0
 14 50  1  0
 50 51  1  0
 50  2  2  0
 13  4  1  0
 48 35  1  0
M  CHG  2   3  -1  32  -1
M  END
>  <UniqueID>  (47) 
43

>  <SMILES>  (47) 
COc1cccc(C(=O)[N-]CCC(=O)NCC/N=c2/cc[n-]c3cc(Cl)ccc23)c1

>  <Energy>  (47) 
57.021959094338484

>  <Genealogy>  (47) 
COc1cccc(C(=O)[N-]CCC(=O)NCCN=c2cc[n-]c3cc(Cl)ccc23)c1 (protonated)
COc1cccc(C(=O)[N-]CCC(=O)NCC/N=c2/cc[n-]c3cc(Cl)ccc23)c1 (cis-trans isomerization)
COc1cccc(C(=O)[N-]CCC(=O)NCC/N=c2/cc[n-]c3cc(Cl)ccc23)c1 (3D coordinates assigned)
COc1cccc(C(=O)[N-]CCC(=O)NCC/N=c2/cc[n-]c3cc(Cl)ccc23)c1 (optimized conformer: 57.021959094338484 kcal/mol)

>  <smiles>  (47) 
COc1cccc(C(=O)NCCC(=O)NCCN=c2cc[nH]c3cc(Cl)ccc23)c1

>  <score_type>  (47) 
oracle

>  <origin>  (47) 
adg

>  <m_score__min__energy>  (47) 
-11.1

>  <m_primary>  (47) 
energy

$$$$
47:0
     RDKit          3D

 39 41  0  0  0  0  0  0  0  0999 V2000
   54.3550   24.5230   45.7870 O   0  0  0  0  0  0  0  0  0  0  0  0
   55.4580   25.1020   45.6000 C   0  0  0  0  0  0  0  0  0  0  0  0
   56.2660   24.7550   44.3810 C   0  0  0  0  0  0  0  0  0  0  0  0
   56.6440   23.2990   44.4270 C   0  0  0  0  0  0  0  0  0  0  0  0
   57.0900   22.7220   45.6270 C   0  0  0  0  0  0  0  0  0  0  0  0
   57.4730   21.3760   45.6410 C   0  0  0  0  0  0  0  0  0  0  0  0
   57.4220   20.6380   44.4960 N   0  0  0  0  0  0  0  0  0  0  0  0
   57.0150   21.1800   43.3140 C   0  0  0  0  0  0  0  0  0  0  0  0
   56.6250   22.5220   43.2560 C   0  0  0  0  0  0  0  0  0  0  0  0
   55.8360   26.1750   46.4730 N   0  0  0  0  0  0  0  0  0  0  0  0
   57.1580   26.7140   46.6140 C   0  0  0  0  0  0  0  0  0  0  0  0
   58.1300   26.0290   47.3650 C   0  0  0  0  0  0  0  0  0  0  0  0
   59.4190   26.5510   47.4930 C   0  0  0  0  0  0  0  0  0  0  0  0
   59.7470   27.7630   46.8830 C   0  0  0  0  0  0  0  0  0  0  0  0
   58.7830   28.4620   46.1500 C   0  0  0  0  0  0  0  0  0  0  0  0
   57.4810   27.9580   46.0290 C   0  0  0  0  0  0  0  0  0  0  0  0
   56.5510   28.6890   45.2730 O   0  0  0  0  0  0  0  0  0  0  0  0
   56.8650   29.7680   44.4320 C   0  0  0  0  0  0  0  0  0  0  0  0
   57.4450   30.9090   45.0030 C   0  0  0  0  0  0  0  0  0  0  0  0
   57.7760   32.0080   44.2040 C   0  0  0  0  0  0  0  0  0  0  0  0
   57.5010   31.9830   42.8320 C   0  0  0  0  0  0  0  0  0  0  0  0
   56.8990   30.8580   42.2570 C   0  0  0  0  0  0  0  0  0  0  0  0
   56.5820   29.7530   43.0510 C   0  0  0  0  0  0  0  0  0  0  0  0
   55.6693   24.9505   43.4778 H   0  0  0  0  0  0  0  0  0  0  0  0
   57.1778   25.3699   44.3585 H   0  0  0  0  0  0  0  0  0  0  0  0
   57.1379   23.3224   46.5475 H   0  0  0  0  0  0  0  0  0  0  0  0
   57.8159   20.9126   46.5779 H   0  0  0  0  0  0  0  0  0  0  0  0
   57.7100   19.6330   44.5230 H   0  0  0  0  0  0  0  0  0  0  0  0
   56.9931   20.5616   42.4045 H   0  0  0  0  0  0  0  0  0  0  0  0
   56.3059   22.9658   42.3014 H   0  0  0  0  0  0  0  0  0  0  0  0
   57.8737   25.0775   47.8539 H   0  0  0  0  0  0  0  0  0  0  0  0
   60.1768   26.0064   48.0753 H   0  0  0  0  0  0  0  0  0  0  0  0
   60.7650   28.1686   46.9791 H   0  0  0  0  0  0  0  0  0  0  0  0
   59.0482   29.4132   45.6654 H   0  0  0  0  0  0  0  0  0  0  0  0
   57.6408   30.9402   46.0850 H   0  0  0  0  0  0  0  0  0  0  0  0
   58.2523   32.8917   44.6537 H   0  0  0  0  0  0  0  0  0  0  0  0
   57.7584   32.8490   42.2045 H   0  0  0  0  0  0  0  0  0  0  0  0
   56.6754   30.8438   41.1800 H   0  0  0  0  0  0  0  0  0  0  0  0
   56.1103   28.8689   42.5973 H   0  0  0  0  0  0  0  0  0  0  0  0
  1  2  2  0
  2  3  1  0
  3  4  1  0
  4  5  2  0
  5  6  1  0
  6  7  2  0
  7  8  1  0
  8  9  2  0
  2 10  1  0
 10 11  1  0
 11 12  2  0
 12 13  1  0
 13 14  2  0
 14 15  1  0
 15 16  2  0
 16 17  1  0
 17 18  1  0
 18 19  2  0
 19 20  1  0
 20 21  2  0
 21 22  1  0
 22 23  2  0
  9  4  1  0
 16 11  1  0
 23 18  1  0
  3 24  1  0
  3 25  1  0
  5 26  1  0
  6 27  1  0
  7 28  1  0
  8 29  1  0
  9 30  1  0
 12 31  1  0
 13 32  1  0
 14 33  1  0
 15 34  1  0
 19 35  1  0
 20 36  1  0
 21 37  1  0
 22 38  1  0
 23 39  1  0
M  CHG  2   7   1  10  -1
M  END
>  <UniqueID>  (48) 
44

>  <SMILES>  (48) 
O=C(Cc1cc[nH+]cc1)[N-]c1ccccc1Oc1ccccc1

>  <Energy>  (48) 
53.05387294125454

>  <Genealogy>  (48) 
O=C(Cc1cc[nH+]cc1)[N-]c1ccccc1Oc1ccccc1 (protonated)
O=C(Cc1cc[nH+]cc1)[N-]c1ccccc1Oc1ccccc1 (3D coordinates assigned)
O=C(Cc1cc[nH+]cc1)[N-]c1ccccc1Oc1ccccc1 (optimized conformer: 53.05387294125454 kcal/mol)

>  <smiles>  (48) 
O=C(Cc1ccncc1)Nc1ccccc1Oc1ccccc1

>  <score_type>  (48) 
oracle

>  <origin>  (48) 
adg

>  <m_score__min__energy>  (48) 
-9.3900000000000006

>  <m_primary>  (48) 
energy

$$$$
48:0
     RDKit          3D

 45 48  0  0  0  0  0  0  0  0999 V2000
   58.4920   34.4650   46.7070 C   0  0  0  0  0  0  0  0  0  0  0  0
   59.3360   34.6520   45.6090 C   0  0  0  0  0  0  0  0  0  0  0  0
   59.1920   33.8540   44.4710 C   0  0  0  0  0  0  0  0  0  0  0  0
   58.1970   32.8620   44.4210 C   0  0  0  0  0  0  0  0  0  0  0  0
   58.0570   31.9820   43.2060 C   0  0  0  0  0  0  0  0  0  0  0  0
   57.5250   30.6650   43.5840 N   0  0  0  0  0  0  0  0  0  0  0  0
   56.2440   30.2230   43.0110 C   0  0  0  0  0  0  0  0  0  0  0  0
   55.2980   29.8040   44.1370 C   0  0  0  0  0  0  0  0  0  0  0  0
   55.9340   28.8450   44.9830 O   0  0  0  0  0  0  0  0  0  0  0  0
   57.2940   28.9290   45.3010 C   0  0  0  0  0  0  0  0  0  0  0  0
   57.8280   28.0900   46.2840 C   0  0  0  0  0  0  0  0  0  0  0  0
   59.1950   28.1570   46.6070 C   0  0  0  0  0  0  0  0  0  0  0  0
   59.7790   27.3420   47.5890 O   0  0  0  0  0  0  0  0  0  0  0  0
   60.1610   27.7920   48.8860 C   0  0  0  0  0  0  0  0  0  0  0  0
   60.0930   29.2850   48.9280 C   0  0  0  0  0  0  0  0  0  0  0  0
   58.9250   29.9350   49.3520 C   0  0  0  0  0  0  0  0  0  0  0  0
   58.8790   31.3300   49.3510 C   0  0  0  0  0  0  0  0  0  0  0  0
   59.9870   32.0620   48.9200 C   0  0  0  0  0  0  0  0  0  0  0  0
   61.1300   31.3810   48.4920 C   0  0  0  0  0  0  0  0  0  0  0  0
   61.1570   30.0220   48.5020 N   0  0  0  0  0  0  0  0  0  0  0  0
   60.0150   29.0640   45.9270 C   0  0  0  0  0  0  0  0  0  0  0  0
   59.4870   29.8990   44.9370 C   0  0  0  0  0  0  0  0  0  0  0  0
   58.1180   29.8450   44.6180 C   0  0  0  0  0  0  0  0  0  0  0  0
   57.3580   32.6760   45.5330 C   0  0  0  0  0  0  0  0  0  0  0  0
   57.5050   33.4770   46.6690 C   0  0  0  0  0  0  0  0  0  0  0  0
   58.6048   35.0957   47.6012 H   0  0  0  0  0  0  0  0  0  0  0  0
   60.1147   35.4283   45.6406 H   0  0  0  0  0  0  0  0  0  0  0  0
   59.8604   34.0027   43.6101 H   0  0  0  0  0  0  0  0  0  0  0  0
   57.3702   32.4584   42.4910 H   0  0  0  0  0  0  0  0  0  0  0  0
   59.0478   31.8477   42.7474 H   0  0  0  0  0  0  0  0  0  0  0  0
   55.7928   31.0490   42.4417 H   0  0  0  0  0  0  0  0  0  0  0  0
   56.4180   29.3676   42.3417 H   0  0  0  0  0  0  0  0  0  0  0  0
   55.0256   30.6888   44.7311 H   0  0  0  0  0  0  0  0  0  0  0  0
   54.3950   29.3538   43.6989 H   0  0  0  0  0  0  0  0  0  0  0  0
   57.1761   27.3747   46.8068 H   0  0  0  0  0  0  0  0  0  0  0  0
   59.4770   27.3712   49.6377 H   0  0  0  0  0  0  0  0  0  0  0  0
   61.1876   27.4625   49.1041 H   0  0  0  0  0  0  0  0  0  0  0  0
   58.0533   29.3510   49.6823 H   0  0  0  0  0  0  0  0  0  0  0  0
   57.9715   31.8517   49.6891 H   0  0  0  0  0  0  0  0  0  0  0  0
   59.9607   33.1617   48.9173 H   0  0  0  0  0  0  0  0  0  0  0  0
   62.0087   31.9454   48.1467 H   0  0  0  0  0  0  0  0  0  0  0  0
   61.0855   29.1209   46.1734 H   0  0  0  0  0  0  0  0  0  0  0  0
   60.1455   30.6015   44.4052 H   0  0  0  0  0  0  0  0  0  0  0  0
   56.5822   31.8966   45.5093 H   0  0  0  0  0  0  0  0  0  0  0  0
   56.8424   33.3292   47.5345 H   0  0  0  0  0  0  0  0  0  0  0  0
  1  2  2  0
  2  3  1  0
  3  4  2  0
  4  5  1  0
  5  6  1  0
  6  7  1  0
  7  8  1  0
  8  9  1  0
  9 10  1  0
 10 11  2  0
 11 12  1  0
 12 13  1  0
 13 14  1  0
 14 15  1  0
 15 16  2  0
 16 17  1  0
 17 18  2  0
 18 19  1  0
 19 20  2  0
 12 21  2  0
 21 22  1  0
 22 23  2  0
  4 24  1  0
 24 25  2  0
 25  1  1  0
 23  6  1  0
 23 10  1  0
 20 15  1  0
  1 26  1  0
  2 27  1  0
  3 28  1  0
  5 29  1  0
  5 30  1  0
  7 31  1  0
  7 32  1  0
  8 33  1  0
  8 34  1  0
 11 35  1  0
 14 36  1  0
 14 37  1  0
 16 38  1  0
 17 39  1  0
 18 40  1  0
 19 41  1  0
 21 42  1  0
 22 43  1  0
 24 44  1  0
 25 45  1  0
M  END
>  <UniqueID>  (49) 
45

>  <SMILES>  (49) 
c1ccc(CN2CCOc3cc(OCc4ccccn4)ccc32)cc1

>  <Energy>  (49) 
50.52831830394067

>  <Genealogy>  (49) 
c1ccc(CN2CCOc3cc(OCc4ccccn4)ccc32)cc1 (3D coordinates assigned)
c1ccc(CN2CCOc3cc(OCc4ccccn4)ccc32)cc1 (nonaromatic ring conformer: 50.52831830394067 kcal/mol)

>  <smiles>  (49) 
c1ccc(CN2CCOc3cc(OCc4ccccn4)ccc32)cc1

>  <score_type>  (49) 
oracle

>  <origin>  (49) 
adg

>  <m_score__min__energy>  (49) 
-7.7400000000000002

>  <m_primary>  (49) 
energy

$$$$
