0:0
     RDKit          3D

 30 32  0  0  0  0  0  0  0  0999 V2000
   56.7900   20.9520   43.0150 C   0  0  0  0  0  0  0  0  0  0  0  0
   55.9000   21.8440   43.6780 O   0  0  0  0  0  0  0  0  0  0  0  0
   56.2560   23.1180   44.1420 C   0  0  0  0  0  0  0  0  0  0  0  0
   57.0250   23.9380   43.3110 C   0  0  0  0  0  0  0  0  0  0  0  0
   57.4090   25.2170   43.7270 C   0  0  0  0  0  0  0  0  0  0  0  0
   57.0290   25.7000   44.9930 C   0  0  0  0  0  0  0  0  0  0  0  0
   57.4120   27.0190   45.4390 N   0  0  0  0  0  0  0  0  0  0  0  0
   57.3810   28.1650   44.7230 C   0  0  0  0  0  0  0  0  0  0  0  0
   57.8410   29.1870   45.5270 C   0  0  0  0  0  0  0  0  0  0  0  0
   57.9910   30.6070   45.1750 C   0  0  0  0  0  0  0  0  0  0  0  0
   57.4980   31.2240   44.0280 C   0  0  0  0  0  0  0  0  0  0  0  0
   57.7960   32.5900   43.9640 C   0  0  0  0  0  0  0  0  0  0  0  0
   58.5200   33.0420   45.0570 C   0  0  0  0  0  0  0  0  0  0  0  0
   59.0650   34.6860   45.3140 Cl  0  0  0  0  0  0  0  0  0  0  0  0
   58.7940   31.7600   46.1060 S   0  0  0  0  0  0  0  0  0  0  0  0
   58.1430   28.5900   46.7350 C   0  0  0  0  0  0  0  0  0  0  0  0
   57.8750   27.2730   46.6550 N   0  0  0  0  0  0  0  0  0  0  0  0
   56.2500   24.8760   45.8240 C   0  0  0  0  0  0  0  0  0  0  0  0
   55.8680   23.5970   45.4070 C   0  0  0  0  0  0  0  0  0  0  0  0
   57.3603   20.3804   43.7621 H   0  0  0  0  0  0  0  0  0  0  0  0
   56.2129   20.2588   42.3854 H   0  0  0  0  0  0  0  0  0  0  0  0
   57.4844   21.5276   42.3854 H   0  0  0  0  0  0  0  0  0  0  0  0
   57.3314   23.5735   42.3194 H   0  0  0  0  0  0  0  0  0  0  0  0
   58.0124   25.8499   43.0597 H   0  0  0  0  0  0  0  0  0  0  0  0
   57.0468   28.2652   43.6798 H   0  0  0  0  0  0  0  0  0  0  0  0
   56.9312   30.6912   43.2503 H   0  0  0  0  0  0  0  0  0  0  0  0
   57.4873   33.2391   43.1313 H   0  0  0  0  0  0  0  0  0  0  0  0
   58.5392   29.1077   47.6210 H   0  0  0  0  0  0  0  0  0  0  0  0
   55.9374   25.2414   46.8133 H   0  0  0  0  0  0  0  0  0  0  0  0
   55.2618   22.9628   46.0705 H   0  0  0  0  0  0  0  0  0  0  0  0
  1  2  1  0
  2  3  1  0
  3  4  2  0
  4  5  1  0
  5  6  2  0
  6  7  1  0
  7  8  1  0
  8  9  2  0
  9 10  1  0
 10 11  2  0
 11 12  1  0
 12 13  2  0
 13 14  1  0
 13 15  1  0
  9 16  1  0
 16 17  2  0
  6 18  1  0
 18 19  2  0
 19  3  1  0
 17  7  1  0
 15 10  1  0
  1 20  1  0
  1 21  1  0
  1 22  1  0
  4 23  1  0
  5 24  1  0
  8 25  1  0
 11 26  1  0
 12 27  1  0
 16 28  1  0
 18 29  1  0
 19 30  1  0
M  END
>  <UniqueID>  (1) 
1

>  <SMILES>  (1) 
COc1ccc(-n2cc(-c3ccc(Cl)s3)cn2)cc1

>  <Energy>  (1) 
90.72654881194298

>  <Genealogy>  (1) 
COc1ccc(-n2cc(-c3ccc(Cl)s3)cn2)cc1 (3D coordinates assigned)
COc1ccc(-n2cc(-c3ccc(Cl)s3)cn2)cc1 (optimized conformer: 90.72654881194298 kcal/mol)

>  <smiles>  (1) 
COc1ccc(-n2cc(-c3ccc(Cl)s3)cn2)cc1

>  <score_type>  (1) 
oracle

>  <origin>  (1) 
adg

>  <m_score__min__energy>  (1) 
-6.4500000000000002

>  <m_primary>  (1) 
energy

$$$$
1:0
     RDKit          3D

 51 55  0  0  0  0  0  0  0  0999 V2000
   56.7731   29.7923   41.9983 H   0  0  0  0  0  0  0  0  0  0  0  0
   56.9900   29.9510   43.0650 C   0  0  0  0  0  0  0  0  0  0  0  0
   56.9460   31.2030   43.5880 N   0  0  0  0  0  0  0  0  0  0  0  0
   57.1980   31.4220   44.9080 C   0  0  0  0  0  0  0  0  0  0  0  0
   57.2000   32.6230   45.4070 N   0  0  0  0  0  0  0  0  0  0  0  0
   58.1240   33.1540   46.3750 C   0  0  0  0  0  0  0  0  0  0  0  0
   58.1150   32.7130   47.7110 C   0  0  0  0  0  0  0  0  0  0  0  0
   57.3720   31.9700   48.0364 H   0  0  0  0  0  0  0  0  0  0  0  0
   59.0440   33.2130   48.6270 C   0  0  0  0  0  0  0  0  0  0  0  0
   59.0201   32.8745   49.6733 H   0  0  0  0  0  0  0  0  0  0  0  0
   60.0020   34.1410   48.2170 C   0  0  0  0  0  0  0  0  0  0  0  0
   60.7286   34.5374   48.9415 H   0  0  0  0  0  0  0  0  0  0  0  0
   60.0390   34.5670   46.8870 C   0  0  0  0  0  0  0  0  0  0  0  0
   60.7997   35.2941   46.5667 H   0  0  0  0  0  0  0  0  0  0  0  0
   59.1100   34.0720   45.9560 C   0  0  0  0  0  0  0  0  0  0  0  0
   59.1620   34.5340   44.5250 C   0  0  0  0  0  0  0  0  0  0  0  0
   59.2850   35.6267   44.4967 H   0  0  0  0  0  0  0  0  0  0  0  0
   60.0120   34.0561   44.0160 H   0  0  0  0  0  0  0  0  0  0  0  0
   58.2270   34.2570   44.0160 H   0  0  0  0  0  0  0  0  0  0  0  0
   57.5150   30.3740   45.7110 N   0  0  0  0  0  0  0  0  0  0  0  0
   57.5720   29.1030   45.2330 C   0  0  0  0  0  0  0  0  0  0  0  0
   57.9620   28.0050   46.1410 C   0  0  0  0  0  0  0  0  0  0  0  0
   58.9300   28.0310   47.1540 C   0  0  0  0  0  0  0  0  0  0  0  0
   59.8760   29.1260   47.4630 C   0  0  0  0  0  0  0  0  0  0  0  0
   60.1570   29.4470   48.7990 C   0  0  0  0  0  0  0  0  0  0  0  0
   59.6792   28.8772   49.6096 H   0  0  0  0  0  0  0  0  0  0  0  0
   61.0400   30.4860   49.1080 C   0  0  0  0  0  0  0  0  0  0  0  0
   61.2438   30.7369   50.1594 H   0  0  0  0  0  0  0  0  0  0  0  0
   61.6690   31.2120   48.0800 C   0  0  0  0  0  0  0  0  0  0  0  0
   62.5580   32.2680   48.3380 O   0  0  0  0  0  0  0  0  0  0  0  0
   63.3420   32.9160   47.3430 C   0  0  0  0  0  0  0  0  0  0  0  0
   64.1030   33.5450   47.8280 H   0  0  0  0  0  0  0  0  0  0  0  0
   63.8367   32.1597   46.7159 H   0  0  0  0  0  0  0  0  0  0  0  0
   62.6923   33.5443   46.7159 H   0  0  0  0  0  0  0  0  0  0  0  0
   61.4080   30.8740   46.7480 C   0  0  0  0  0  0  0  0  0  0  0  0
   61.9005   31.4309   45.9373 H   0  0  0  0  0  0  0  0  0  0  0  0
   60.5270   29.8350   46.4390 C   0  0  0  0  0  0  0  0  0  0  0  0
   60.3416   29.5701   45.3876 H   0  0  0  0  0  0  0  0  0  0  0  0
   58.8990   26.8710   47.8500 N   0  0  0  0  0  0  0  0  0  0  0  0
   57.9530   26.1230   47.3100 N   0  0  0  0  0  0  0  0  0  0  0  0
   57.5770   24.8870   47.7290 C   0  0  0  0  0  0  0  0  0  0  0  0
   58.0966   24.3925   48.5630 H   0  0  0  0  0  0  0  0  0  0  0  0
   56.5110   24.2570   47.0730 C   0  0  0  0  0  0  0  0  0  0  0  0
   56.1865   23.2521   47.3811 H   0  0  0  0  0  0  0  0  0  0  0  0
   55.8590   24.9200   46.0170 C   0  0  0  0  0  0  0  0  0  0  0  0
   55.0174   24.4336   45.5022 H   0  0  0  0  0  0  0  0  0  0  0  0
   56.2770   26.1990   45.6170 C   0  0  0  0  0  0  0  0  0  0  0  0
   55.7683   26.7357   44.8026 H   0  0  0  0  0  0  0  0  0  0  0  0
   57.3620   26.7660   46.2900 C   0  0  0  0  0  0  0  0  0  0  0  0
   57.3100   28.8670   43.8800 C   0  0  0  0  0  0  0  0  0  0  0  0
   57.3555   27.8481   43.4680 H   0  0  0  0  0  0  0  0  0  0  0  0
  1  2  1  0
  2  3  1  0
  3  4  1  0
  4  5  2  0
  5  6  1  0
  6  7  2  0
  7  8  1  0
  7  9  1  0
  9 10  1  0
  9 11  2  0
 11 12  1  0
 11 13  1  0
 13 14  1  0
 13 15  2  0
 15 16  1  0
 16 17  1  0
 16 18  1  0
 16 19  1  0
  4 20  1  0
 20 21  2  0
 21 22  1  0
 22 23  1  0
 23 24  1  0
 24 25  2  0
 25 26  1  0
 25 27  1  0
 27 28  1  0
 27 29  2  0
 29 30  1  0
 30 31  1  0
 31 32  1  0
 31 33  1  0
 31 34  1  0
 29 35  1  0
 35 36  1  0
 35 37  2  0
 37 38  1  0
 23 39  2  0
 39 40  1  0
 40 41  1  0
 41 42  1  0
 41 43  2  0
 43 44  1  0
 43 45  1  0
 45 46  1  0
 45 47  2  0
 47 48  1  0
 47 49  1  0
 21 50  1  0
 50 51  1  0
 50  2  2  0
 15  6  1  0
 49 22  2  0
 37 24  1  0
 49 40  1  0
M  CHG  1   3  -1
M  END
>  <UniqueID>  (2) 
2

>  <SMILES>  (2) 
COc1ccc(-c2nn3ccccc3c2-c2cc[n-]/c(=N\c3ccccc3C)n2)cc1

>  <Energy>  (2) 
107.55881354005194

>  <Genealogy>  (2) 
COc1ccc(-c2nn3ccccc3c2-c2cc[n-]c(=Nc3ccccc3C)n2)cc1 (protonated)
COc1ccc(-c2nn3ccccc3c2-c2cc[n-]/c(=N\c3ccccc3C)n2)cc1 (cis-trans isomerization)
COc1ccc(-c2nn3ccccc3c2-c2cc[n-]/c(=N\c3ccccc3C)n2)cc1 (3D coordinates assigned)
COc1ccc(-c2nn3ccccc3c2-c2cc[n-]/c(=N\c3ccccc3C)n2)cc1 (optimized conformer: 107.55881354005194 kcal/mol)

>  <smiles>  (2) 
COc1ccc(-c2nn3ccccc3c2-c2cc[nH]c(=Nc3ccccc3C)n2)cc1

>  <score_type>  (2) 
oracle

>  <origin>  (2) 
adg

>  <m_score__min__energy>  (2) 
-10.94

>  <m_primary>  (2) 
energy

$$$$
2:0
     RDKit          3D

 33 34  0  0  0  0  0  0  0  0999 V2000
   55.5110   28.9970   44.8790 O   0  0  0  0  0  0  0  0  0  0  0  0
   56.5290   29.7380   44.8540 C   0  0  0  0  0  0  0  0  0  0  0  0
   56.3570   31.1170   44.4960 N   0  0  0  0  0  0  0  0  0  0  0  0
   57.3620   32.1770   44.5440 C   0  0  0  0  0  0  0  0  0  0  0  0
   56.9130   33.3380   45.4410 C   0  0  0  0  0  0  0  0  0  0  0  0
   58.0230   33.7980   46.3050 N   0  0  0  0  0  0  0  0  0  0  0  0
   58.3110   32.8290   47.3810 C   0  0  0  0  0  0  0  0  0  0  0  0
   59.2630   33.4490   48.4210 C   0  0  0  0  0  0  0  0  0  0  0  0
   60.1270   34.5730   47.8270 C   0  0  0  0  0  0  0  0  0  0  0  0
   60.4960   34.2720   46.3730 C   0  0  0  0  0  0  0  0  0  0  0  0
   59.2390   34.0580   45.5000 C   0  0  0  0  0  0  0  0  0  0  0  0
   57.8410   29.1440   45.1850 C   0  0  0  0  0  0  0  0  0  0  0  0
   58.6510   29.5420   46.2430 C   0  0  0  0  0  0  0  0  0  0  0  0
   59.8770   28.8680   46.2940 C   0  0  0  0  0  0  0  0  0  0  0  0
   60.0510   27.9500   45.2670 C   0  0  0  0  0  0  0  0  0  0  0  0
   58.6780   27.9820   44.3000 S   0  0  0  0  0  0  0  0  0  0  0  0
   58.3006   31.7619   44.9399 H   0  0  0  0  0  0  0  0  0  0  0  0
   57.5041   32.5640   43.5242 H   0  0  0  0  0  0  0  0  0  0  0  0
   56.5791   34.1736   44.8083 H   0  0  0  0  0  0  0  0  0  0  0  0
   56.0902   32.9887   46.0822 H   0  0  0  0  0  0  0  0  0  0  0  0
   57.3699   32.5453   47.8748 H   0  0  0  0  0  0  0  0  0  0  0  0
   58.7904   31.9412   46.9429 H   0  0  0  0  0  0  0  0  0  0  0  0
   58.6643   33.8621   49.2461 H   0  0  0  0  0  0  0  0  0  0  0  0
   59.9393   32.6556   48.7720 H   0  0  0  0  0  0  0  0  0  0  0  0
   59.5651   35.5178   47.8672 H   0  0  0  0  0  0  0  0  0  0  0  0
   61.0537   34.6499   48.4146 H   0  0  0  0  0  0  0  0  0  0  0  0
   61.0719   35.1174   45.9685 H   0  0  0  0  0  0  0  0  0  0  0  0
   61.0904   33.3466   46.3533 H   0  0  0  0  0  0  0  0  0  0  0  0
   59.0735   34.9607   44.8936 H   0  0  0  0  0  0  0  0  0  0  0  0
   59.4172   33.1733   44.8711 H   0  0  0  0  0  0  0  0  0  0  0  0
   58.3565   30.3128   46.9704 H   0  0  0  0  0  0  0  0  0  0  0  0
   60.6312   29.0487   47.0741 H   0  0  0  0  0  0  0  0  0  0  0  0
   60.9343   27.3127   45.1134 H   0  0  0  0  0  0  0  0  0  0  0  0
  1  2  2  0
  2  3  1  0
  3  4  1  0
  4  5  1  0
  5  6  1  0
  6  7  1  0
  7  8  1  0
  8  9  1  0
  9 10  1  0
 10 11  1  0
  2 12  1  0
 12 13  2  0
 13 14  1  0
 14 15  2  0
 15 16  1  0
 11  6  1  0
 16 12  1  0
  4 17  1  0
  4 18  1  0
  5 19  1  0
  5 20  1  0
  7 21  1  0
  7 22  1  0
  8 23  1  0
  8 24  1  0
  9 25  1  0
  9 26  1  0
 10 27  1  0
 10 28  1  0
 11 29  1  0
 11 30  1  0
 13 31  1  0
 14 32  1  0
 15 33  1  0
M  CHG  1   3  -1
M  END
>  <UniqueID>  (3) 
3

>  <SMILES>  (3) 
O=C([N-]CCN1CCCCC1)c1cccs1

>  <Energy>  (3) 
63.24397147866897

>  <Genealogy>  (3) 
O=C([N-]CCN1CCCCC1)c1cccs1 (protonated)
O=C([N-]CCN1CCCCC1)c1cccs1 (3D coordinates assigned)
O=C([N-]CCN1CCCCC1)c1cccs1 (nonaromatic ring conformer: 63.24397147866897 kcal/mol)

>  <smiles>  (3) 
O=C(NCCN1CCCCC1)c1cccs1

>  <score_type>  (3) 
oracle

>  <origin>  (3) 
adg

>  <m_score__min__energy>  (3) 
-8.5999999999999996

>  <m_primary>  (3) 
energy

$$$$
3:0
     RDKit          3D

 48 50  0  0  0  0  0  0  0  0999 V2000
   62.4190   30.9500   50.0120 C   0  0  0  0  0  0  0  0  0  0  0  0
   62.7130   32.0330   51.0590 C   0  0  0  0  0  0  0  0  0  0  0  0
   63.6890   33.0630   50.6170 N   0  0  0  0  0  0  0  0  0  0  0  0
   64.7640   32.4720   49.7680 C   0  0  0  0  0  0  0  0  0  0  0  0
   66.1550   33.0050   50.1300 C   0  0  0  0  0  0  0  0  0  0  0  0
   63.0130   34.3030   50.1010 C   0  0  0  0  0  0  0  0  0  0  0  0
   61.9950   34.1110   48.9890 C   0  0  0  0  0  0  0  0  0  0  0  0
   60.6190   34.1600   49.2730 C   0  0  0  0  0  0  0  0  0  0  0  0
   59.6780   33.9680   48.2580 C   0  0  0  0  0  0  0  0  0  0  0  0
   60.0900   33.6960   46.9500 C   0  0  0  0  0  0  0  0  0  0  0  0
   59.1130   33.5240   45.9580 O   0  0  0  0  0  0  0  0  0  0  0  0
   58.6310   32.2860   45.5080 C   0  0  0  0  0  0  0  0  0  0  0  0
   57.6440   32.3050   44.6100 C   0  0  0  0  0  0  0  0  0  0  0  0
   56.9370   30.8430   43.9650 S   0  0  0  0  0  0  0  0  0  0  0  0
   55.5380   30.6810   44.4870 O   0  0  0  0  0  0  0  0  0  0  0  0
   56.9300   30.9170   42.4650 O   0  0  0  0  0  0  0  0  0  0  0  0
   57.9250   29.4960   44.4830 C   0  0  0  0  0  0  0  0  0  0  0  0
   57.7010   28.2270   43.9330 C   0  0  0  0  0  0  0  0  0  0  0  0
   58.4640   27.1350   44.3500 C   0  0  0  0  0  0  0  0  0  0  0  0
   59.4520   27.3050   45.3200 C   0  0  0  0  0  0  0  0  0  0  0  0
   59.6790   28.5670   45.8750 C   0  0  0  0  0  0  0  0  0  0  0  0
   58.9200   29.6810   45.4620 C   0  0  0  0  0  0  0  0  0  0  0  0
   59.1780   31.0160   46.0670 C   0  0  0  0  0  0  0  0  0  0  0  0
   59.8900   31.0840   47.1070 O   0  0  0  0  0  0  0  0  0  0  0  0
   61.4650   33.6380   46.6620 C   0  0  0  0  0  0  0  0  0  0  0  0
   62.4070   33.8290   47.6760 C   0  0  0  0  0  0  0  0  0  0  0  0
   62.1634   30.0085   50.5202 H   0  0  0  0  0  0  0  0  0  0  0  0
   61.5747   31.2680   49.3827 H   0  0  0  0  0  0  0  0  0  0  0  0
   63.3082   30.7973   49.3827 H   0  0  0  0  0  0  0  0  0  0  0  0
   61.7678   32.5381   51.3068 H   0  0  0  0  0  0  0  0  0  0  0  0
   63.1641   31.5219   51.9223 H   0  0  0  0  0  0  0  0  0  0  0  0
   64.1550   33.3490   51.5120 H   0  0  0  0  0  0  0  0  0  0  0  0
   64.7587   31.3801   49.9009 H   0  0  0  0  0  0  0  0  0  0  0  0
   64.5589   32.7525   48.7243 H   0  0  0  0  0  0  0  0  0  0  0  0
   66.2590   33.0449   51.2243 H   0  0  0  0  0  0  0  0  0  0  0  0
   66.9234   32.3376   49.7127 H   0  0  0  0  0  0  0  0  0  0  0  0
   66.2807   34.0150   49.7127 H   0  0  0  0  0  0  0  0  0  0  0  0
   62.4964   34.7783   50.9479 H   0  0  0  0  0  0  0  0  0  0  0  0
   63.8171   34.9078   49.6565 H   0  0  0  0  0  0  0  0  0  0  0  0
   60.2805   34.3509   50.3021 H   0  0  0  0  0  0  0  0  0  0  0  0
   58.6046   34.0314   48.4899 H   0  0  0  0  0  0  0  0  0  0  0  0
   57.2616   33.2764   44.2632 H   0  0  0  0  0  0  0  0  0  0  0  0
   56.9208   28.0907   43.1696 H   0  0  0  0  0  0  0  0  0  0  0  0
   58.2863   26.1409   43.9139 H   0  0  0  0  0  0  0  0  0  0  0  0
   60.0532   26.4443   45.6484 H   0  0  0  0  0  0  0  0  0  0  0  0
   60.4576   28.6926   46.6418 H   0  0  0  0  0  0  0  0  0  0  0  0
   61.8008   33.4413   45.6331 H   0  0  0  0  0  0  0  0  0  0  0  0
   63.4800   33.7580   47.4443 H   0  0  0  0  0  0  0  0  0  0  0  0
  1  2  1  0
  2  3  1  0
  3  4  1  0
  4  5  1  0
  3  6  1  0
  6  7  1  0
  7  8  2  0
  8  9  1  0
  9 10  2  0
 10 11  1  0
 11 12  1  0
 12 13  2  0
 13 14  1  0
 14 15  2  0
 14 16  2  0
 14 17  1  0
 17 18  2  0
 18 19  1  0
 19 20  2  0
 20 21  1  0
 21 22  2  0
 22 23  1  0
 23 24  2  0
 10 25  1  0
 25 26  2  0
 26  7  1  0
 23 12  1  0
 22 17  1  0
  1 27  1  0
  1 28  1  0
  1 29  1  0
  2 30  1  0
  2 31  1  0
  3 32  1  0
  4 33  1  0
  4 34  1  0
  5 35  1  0
  5 36  1  0
  5 37  1  0
  6 38  1  0
  6 39  1  0
  8 40  1  0
  9 41  1  0
 13 42  1  0
 18 43  1  0
 19 44  1  0
 20 45  1  0
 21 46  1  0
 25 47  1  0
 26 48  1  0
M  CHG  1   3   1
M  END
>  <UniqueID>  (4) 
4

>  <SMILES>  (4) 
CC[NH+](CC)Cc1ccc(OC2=CS(=O)(=O)c3ccccc3C2=O)cc1

>  <Energy>  (4) 
74.56299487949222

>  <Genealogy>  (4) 
CC[NH+](CC)Cc1ccc(OC2=CS(=O)(=O)c3ccccc3C2=O)cc1 (protonated)
CC[NH+](CC)Cc1ccc(OC2=CS(=O)(=O)c3ccccc3C2=O)cc1 (3D coordinates assigned)
CC[NH+](CC)Cc1ccc(OC2=CS(=O)(=O)c3ccccc3C2=O)cc1 (nonaromatic ring conformer: 74.56299487949222 kcal/mol)

>  <smiles>  (4) 
CCN(CC)Cc1ccc(OC2=CS(=O)(=O)c3ccccc3C2=O)cc1

>  <score_type>  (4) 
oracle

>  <origin>  (4) 
adg

>  <m_score__min__energy>  (4) 
-6.8300000000000001

>  <m_primary>  (4) 
energy

$$$$
4:0
     RDKit          3D

 52 54  0  0  0  0  0  0  0  0999 V2000
   56.9970   31.1350   42.3960 C   0  0  0  0  0  0  0  0  0  0  0  0
   56.1770   30.1420   43.2130 C   0  0  0  0  0  0  0  0  0  0  0  0
   56.3120   30.4010   44.6100 O   0  0  0  0  0  0  0  0  0  0  0  0
   57.3890   31.0670   45.2230 C   0  0  0  0  0  0  0  0  0  0  0  0
   57.4230   32.4640   45.3770 C   0  0  0  0  0  0  0  0  0  0  0  0
   58.5100   33.0890   46.0020 C   0  0  0  0  0  0  0  0  0  0  0  0
   59.5540   32.3110   46.5480 C   0  0  0  0  0  0  0  0  0  0  0  0
   59.5550   30.9250   46.3080 C   0  0  0  0  0  0  0  0  0  0  0  0
   58.4670   30.2970   45.6750 C   0  0  0  0  0  0  0  0  0  0  0  0
   58.4210   28.9080   45.4770 O   0  0  0  0  0  0  0  0  0  0  0  0
   59.1440   28.2080   44.4670 C   0  0  0  0  0  0  0  0  0  0  0  0
   58.1800   27.3750   43.6390 C   0  0  0  0  0  0  0  0  0  0  0  0
   60.7500   32.9780   47.2320 C   0  0  2  0  0  0  0  0  0  0  0  0
   61.2270   32.2510   48.5190 C   0  0  0  0  0  0  0  0  0  0  0  0
   60.1070   31.6590   49.3470 C   0  0  0  0  0  0  0  0  0  0  0  0
   59.9980   30.2670   49.5040 C   0  0  0  0  0  0  0  0  0  0  0  0
   58.9740   29.7170   50.2780 C   0  0  0  0  0  0  0  0  0  0  0  0
   58.0290   30.5520   50.9020 C   0  0  0  0  0  0  0  0  0  0  0  0
   56.9850   30.0490   51.6930 O   0  0  0  0  0  0  0  0  0  0  0  0
   56.0020   30.8540   52.3340 C   0  0  0  0  0  0  0  0  0  0  0  0
   58.1250   31.9370   50.7300 C   0  0  0  0  0  0  0  0  0  0  0  0
   59.1480   32.4880   49.9540 C   0  0  0  0  0  0  0  0  0  0  0  0
   60.5170   34.4080   47.5220 N   0  0  0  0  0  0  0  0  0  0  0  0
   59.9470   35.1040   46.3660 C   0  0  0  0  0  0  0  0  0  0  0  0
   58.5320   34.5910   46.0910 C   0  0  0  0  0  0  0  0  0  0  0  0
   57.5479   31.8021   43.0753 H   0  0  0  0  0  0  0  0  0  0  0  0
   57.7098   30.5877   41.7617 H   0  0  0  0  0  0  0  0  0  0  0  0
   56.3247   31.7314   41.7617 H   0  0  0  0  0  0  0  0  0  0  0  0
   55.1176   30.2307   42.9306 H   0  0  0  0  0  0  0  0  0  0  0  0
   56.5450   29.1263   43.0057 H   0  0  0  0  0  0  0  0  0  0  0  0
   56.5870   33.0730   45.0027 H   0  0  0  0  0  0  0  0  0  0  0  0
   60.4206   30.3224   46.6204 H   0  0  0  0  0  0  0  0  0  0  0  0
   59.6568   28.9309   43.8155 H   0  0  0  0  0  0  0  0  0  0  0  0
   59.8869   27.5480   44.9387 H   0  0  0  0  0  0  0  0  0  0  0  0
   57.5198   26.8045   44.3088 H   0  0  0  0  0  0  0  0  0  0  0  0
   57.5740   28.0383   43.0044 H   0  0  0  0  0  0  0  0  0  0  0  0
   58.7484   26.6792   43.0044 H   0  0  0  0  0  0  0  0  0  0  0  0
   61.5594   32.8960   46.4916 H   0  0  0  0  0  0  0  0  0  0  0  0
   61.9058   31.4371   48.2243 H   0  0  0  0  0  0  0  0  0  0  0  0
   61.7185   33.0087   49.1469 H   0  0  0  0  0  0  0  0  0  0  0  0
   60.7259   29.6045   49.0128 H   0  0  0  0  0  0  0  0  0  0  0  0
   58.9059   28.6260   50.4004 H   0  0  0  0  0  0  0  0  0  0  0  0
   56.1101   30.7654   53.4251 H   0  0  0  0  0  0  0  0  0  0  0  0
   56.1371   31.9043   52.0362 H   0  0  0  0  0  0  0  0  0  0  0  0
   54.9990   30.5145   52.0362 H   0  0  0  0  0  0  0  0  0  0  0  0
   57.3885   32.5982   51.2100 H   0  0  0  0  0  0  0  0  0  0  0  0
   59.2032   33.5781   49.8172 H   0  0  0  0  0  0  0  0  0  0  0  0
   59.8400   34.5080   48.3150 H   0  0  0  0  0  0  0  0  0  0  0  0
   59.9091   36.1836   46.5733 H   0  0  0  0  0  0  0  0  0  0  0  0
   60.5770   34.9150   45.4843 H   0  0  0  0  0  0  0  0  0  0  0  0
   57.8680   34.9126   46.9069 H   0  0  0  0  0  0  0  0  0  0  0  0
   58.1905   35.0037   45.1303 H   0  0  0  0  0  0  0  0  0  0  0  0
  1  2  1  0
  2  3  1  0
  3  4  1  0
  4  5  2  0
  5  6  1  0
  6  7  2  0
  7  8  1  0
  8  9  2  0
  9 10  1  0
 10 11  1  0
 11 12  1  0
  7 13  1  0
 13 14  1  0
 14 15  1  0
 15 16  2  0
 16 17  1  0
 17 18  2  0
 18 19  1  0
 19 20  1  0
 18 21  1  0
 21 22  2  0
 13 23  1  0
 23 24  1  0
 24 25  1  0
  9  4  1  0
 22 15  1  0
 25  6  1  0
  1 26  1  0
  1 27  1  0
  1 28  1  0
  2 29  1  0
  2 30  1  0
  5 31  1  0
  8 32  1  0
 11 33  1  0
 11 34  1  0
 12 35  1  0
 12 36  1  0
 12 37  1  0
 13 38  1  6
 14 39  1  0
 14 40  1  0
 16 41  1  0
 17 42  1  0
 20 43  1  0
 20 44  1  0
 20 45  1  0
 21 46  1  0
 22 47  1  0
 23 48  1  0
 24 49  1  0
 24 50  1  0
 25 51  1  0
 25 52  1  0
M  END
>  <UniqueID>  (5) 
5

>  <SMILES>  (5) 
CCOc1cc2c(cc1OCC)[C@H](Cc1ccc(OC)cc1)NCC2

>  <Energy>  (5) 
50.69786450737505

>  <Genealogy>  (5) 
CCOc1cc2c(cc1OCC)[C@H](Cc1ccc(OC)cc1)NCC2 (chirality)
CCOc1cc2c(cc1OCC)[C@H](Cc1ccc(OC)cc1)NCC2 (3D coordinates assigned)
CCOc1cc2c(cc1OCC)[C@H](Cc1ccc(OC)cc1)NCC2 (nonaromatic ring conformer: 50.69786450737505 kcal/mol)

>  <smiles>  (5) 
CCOc1cc2c(cc1OCC)C(Cc1ccc(OC)cc1)NCC2

>  <score_type>  (5) 
oracle

>  <origin>  (5) 
adg

>  <m_score__min__energy>  (5) 
-7.4400000000000004

>  <m_primary>  (5) 
energy

$$$$
5:0
     RDKit          3D

 48 51  0  0  1  0  0  0  0  0999 V2000
   56.2760   20.0310   44.1500 C   0  0  0  0  0  0  0  0  0  0  0  0
   56.1130   21.1900   43.3640 O   0  0  0  0  0  0  0  0  0  0  0  0
   56.2570   22.4450   43.9000 C   0  0  0  0  0  0  0  0  0  0  0  0
   55.1920   22.9540   44.6270 C   0  0  0  0  0  0  0  0  0  0  0  0
   55.2490   24.2240   45.2100 C   0  0  0  0  0  0  0  0  0  0  0  0
   56.3920   24.9830   45.0560 C   0  0  0  0  0  0  0  0  0  0  0  0
   56.4110   26.3010   45.6790 C   0  0  0  0  0  0  0  0  0  0  0  0
   55.3880   26.6570   46.3200 O   0  0  0  0  0  0  0  0  0  0  0  0
   57.4830   27.1690   45.6020 O   0  0  0  0  0  0  0  0  0  0  0  0
   57.5030   28.2560   44.6630 C   0  0  1  0  0  0  0  0  0  0  0  0
   56.1990   29.0020   44.8500 C   0  0  0  0  0  0  0  0  0  0  0  0
   56.3010   30.4030   44.2760 C   0  0  2  0  0  0  0  0  0  0  0  0
   57.3410   30.4850   43.1930 C   0  0  0  0  0  0  0  0  0  0  0  0
   58.2900   30.5710   44.3370 C   0  0  2  0  0  0  0  0  0  0  0  0
   58.6290   29.2040   44.9150 C   0  0  0  0  0  0  0  0  0  0  0  0
   57.2020   31.1300   45.1400 N   0  0  0  0  0  0  0  0  0  0  0  0
   57.0270   32.5470   45.0030 C   0  0  0  0  0  0  0  0  0  0  0  0
   58.0070   33.3660   45.7520 C   0  0  0  0  0  0  0  0  0  0  0  0
   58.2800   33.2090   47.0920 C   0  0  0  0  0  0  0  0  0  0  0  0
   59.2040   33.9810   47.7720 C   0  0  0  0  0  0  0  0  0  0  0  0
   59.8930   34.9520   47.1070 C   0  0  0  0  0  0  0  0  0  0  0  0
   59.6560   35.1510   45.7550 C   0  0  0  0  0  0  0  0  0  0  0  0
   58.7320   34.3710   45.1000 C   0  0  0  0  0  0  0  0  0  0  0  0
   57.4580   24.4890   44.3350 C   0  0  0  0  0  0  0  0  0  0  0  0
   57.3770   23.2340   43.7700 C   0  0  0  0  0  0  0  0  0  0  0  0
   56.2379   20.3021   45.2154 H   0  0  0  0  0  0  0  0  0  0  0  0
   55.4693   19.3182   43.9239 H   0  0  0  0  0  0  0  0  0  0  0  0
   57.2480   19.5684   43.9239 H   0  0  0  0  0  0  0  0  0  0  0  0
   54.2831   22.3463   44.7478 H   0  0  0  0  0  0  0  0  0  0  0  0
   54.3947   24.6129   45.7835 H   0  0  0  0  0  0  0  0  0  0  0  0
   57.6334   27.8573   43.6461 H   0  0  0  0  0  0  0  0  0  0  0  0
   55.3936   28.4577   44.3352 H   0  0  0  0  0  0  0  0  0  0  0  0
   55.9812   29.0734   45.9258 H   0  0  0  0  0  0  0  0  0  0  0  0
   55.2652   30.7063   44.0634 H   0  0  0  0  0  0  0  0  0  0  0  0
   57.4396   29.5887   42.5630 H   0  0  0  0  0  0  0  0  0  0  0  0
   57.3092   31.2142   42.3701 H   0  0  0  0  0  0  0  0  0  0  0  0
   59.2683   31.0555   44.2018 H   0  0  0  0  0  0  0  0  0  0  0  0
   59.5427   28.8214   44.4367 H   0  0  0  0  0  0  0  0  0  0  0  0
   58.7900   29.2974   45.9991 H   0  0  0  0  0  0  0  0  0  0  0  0
   57.1120   32.8013   43.9362 H   0  0  0  0  0  0  0  0  0  0  0  0
   56.0388   32.7806   45.4258 H   0  0  0  0  0  0  0  0  0  0  0  0
   57.7366   32.4315   47.6490 H   0  0  0  0  0  0  0  0  0  0  0  0
   59.3824   33.8127   48.8443 H   0  0  0  0  0  0  0  0  0  0  0  0
   60.6302   35.5719   47.6382 H   0  0  0  0  0  0  0  0  0  0  0  0
   60.2059   35.9310   45.2079 H   0  0  0  0  0  0  0  0  0  0  0  0
   58.5565   34.5424   44.0277 H   0  0  0  0  0  0  0  0  0  0  0  0
   58.3688   25.0932   44.2110 H   0  0  0  0  0  0  0  0  0  0  0  0
   58.2346   22.8513   43.1973 H   0  0  0  0  0  0  0  0  0  0  0  0
  1  2  1  0
  2  3  1  0
  3  4  2  0
  4  5  1  0
  5  6  2  0
  6  7  1  0
  7  8  2  0
  7  9  1  0
  9 10  1  0
 10 11  1  0
 11 12  1  0
 12 13  1  0
 13 14  1  0
 14 15  1  0
 14 16  1  0
 16 17  1  0
 17 18  1  0
 18 19  2  0
 19 20  1  0
 20 21  2  0
 21 22  1  0
 22 23  2  0
  6 24  1  0
 24 25  2  0
 25  3  1  0
 15 10  1  0
 23 18  1  0
 16 12  1  0
  1 26  1  0
  1 27  1  0
  1 28  1  0
  4 29  1  0
  5 30  1  0
 10 31  1  6
 11 32  1  0
 11 33  1  0
 12 34  1  6
 13 35  1  0
 13 36  1  0
 14 37  1  6
 15 38  1  0
 15 39  1  0
 17 40  1  0
 17 41  1  0
 19 42  1  0
 20 43  1  0
 21 44  1  0
 22 45  1  0
 23 46  1  0
 24 47  1  0
 25 48  1  0
M  END
>  <smiles>  (6) 
COc1ccc(C(=O)OC2CC3CC(C2)N3Cc2ccccc2)cc1

>  <score_type>  (6) 
oracle

>  <origin>  (6) 
adg

>  <m_score__min__energy>  (6) 
-9.7699999999999996

>  <m_primary>  (6) 
energy

$$$$
6:0
     RDKit          3D

 57 59  0  0  0  0  0  0  0  0999 V2000
   62.1780   31.1270   51.5260 C   0  0  0  0  0  0  0  0  0  0  0  0
   61.5390   30.3510   50.3780 C   0  0  0  0  0  0  0  0  0  0  0  0
   61.6330   31.1200   49.1150 N   0  0  0  0  0  0  0  0  0  0  0  0
   61.1010   30.3470   47.9680 C   0  0  0  0  0  0  0  0  0  0  0  0
   59.8830   29.5290   48.3880 C   0  0  0  0  0  0  0  0  0  0  0  0
   63.0170   31.6000   48.8620 C   0  0  0  0  0  0  0  0  0  0  0  0
   63.1950   31.9360   47.3770 C   0  0  0  0  0  0  0  0  0  0  0  0
   63.6130   33.3960   47.1580 C   0  0  0  0  0  0  0  0  0  0  0  0
   62.4950   34.1740   46.6220 N   0  0  0  0  0  0  0  0  0  0  0  0
   61.1070   33.9020   46.8790 C   0  0  0  0  0  0  0  0  0  0  0  0
   60.1450   33.8890   45.8600 C   0  0  0  0  0  0  0  0  0  0  0  0
   58.8170   33.6240   46.1950 C   0  0  0  0  0  0  0  0  0  0  0  0
   57.5630   33.5950   44.9140 S   0  0  0  0  0  0  0  0  0  0  0  0
   57.6240   31.8080   44.7830 C   0  0  0  0  0  0  0  0  0  0  0  0
   58.6470   31.0930   45.4190 C   0  0  0  0  0  0  0  0  0  0  0  0
   58.7020   29.7000   45.3070 C   0  0  0  0  0  0  0  0  0  0  0  0
   57.7370   29.0190   44.5580 C   0  0  0  0  0  0  0  0  0  0  0  0
   57.7870   27.6670   44.4530 F   0  0  0  0  0  0  0  0  0  0  0  0
   56.7130   29.7310   43.9240 C   0  0  0  0  0  0  0  0  0  0  0  0
   56.6550   31.1250   44.0370 C   0  0  0  0  0  0  0  0  0  0  0  0
   58.4750   33.3800   47.4880 N   0  0  0  0  0  0  0  0  0  0  0  0
   59.4210   33.3680   48.4720 C   0  0  0  0  0  0  0  0  0  0  0  0
   59.0630   33.0810   49.8830 C   0  0  0  0  0  0  0  0  0  0  0  0
   59.6380   33.8370   50.9220 C   0  0  0  0  0  0  0  0  0  0  0  0
   59.3150   33.5700   52.2560 C   0  0  0  0  0  0  0  0  0  0  0  0
   58.4240   32.5430   52.5690 C   0  0  0  0  0  0  0  0  0  0  0  0
   57.8560   31.7760   51.5480 C   0  0  0  0  0  0  0  0  0  0  0  0
   58.1750   32.0390   50.2130 C   0  0  0  0  0  0  0  0  0  0  0  0
   60.7170   33.6370   48.1550 N   0  0  0  0  0  0  0  0  0  0  0  0
   61.8356   30.7112   52.4851 H   0  0  0  0  0  0  0  0  0  0  0  0
   63.2729   31.0437   51.4603 H   0  0  0  0  0  0  0  0  0  0  0  0
   61.8862   32.1856   51.4603 H   0  0  0  0  0  0  0  0  0  0  0  0
   62.0605   29.3902   50.2563 H   0  0  0  0  0  0  0  0  0  0  0  0
   60.4778   30.1800   50.6118 H   0  0  0  0  0  0  0  0  0  0  0  0
   60.8101   31.0429   47.1673 H   0  0  0  0  0  0  0  0  0  0  0  0
   61.8826   29.6602   47.6111 H   0  0  0  0  0  0  0  0  0  0  0  0
   59.8273   29.4916   49.4860 H   0  0  0  0  0  0  0  0  0  0  0  0
   58.9711   29.9985   47.9904 H   0  0  0  0  0  0  0  0  0  0  0  0
   59.9726   28.5073   47.9904 H   0  0  0  0  0  0  0  0  0  0  0  0
   63.2052   32.5012   49.4640 H   0  0  0  0  0  0  0  0  0  0  0  0
   63.7288   30.8088   49.1399 H   0  0  0  0  0  0  0  0  0  0  0  0
   63.9700   31.2788   46.9558 H   0  0  0  0  0  0  0  0  0  0  0  0
   62.2263   31.7842   46.8784 H   0  0  0  0  0  0  0  0  0  0  0  0
   63.9288   33.8301   48.1181 H   0  0  0  0  0  0  0  0  0  0  0  0
   64.4439   33.4241   46.4377 H   0  0  0  0  0  0  0  0  0  0  0  0
   62.7260   34.9790   45.9980 H   0  0  0  0  0  0  0  0  0  0  0  0
   60.4316   34.0840   44.8160 H   0  0  0  0  0  0  0  0  0  0  0  0
   59.4076   31.6275   46.0070 H   0  0  0  0  0  0  0  0  0  0  0  0
   59.5048   29.1396   45.8084 H   0  0  0  0  0  0  0  0  0  0  0  0
   55.9531   29.1950   43.3364 H   0  0  0  0  0  0  0  0  0  0  0  0
   55.8485   31.6840   43.5400 H   0  0  0  0  0  0  0  0  0  0  0  0
   57.4690   33.2190   47.7140 H   0  0  0  0  0  0  0  0  0  0  0  0
   60.3466   34.6437   50.6827 H   0  0  0  0  0  0  0  0  0  0  0  0
   59.7643   34.1709   53.0604 H   0  0  0  0  0  0  0  0  0  0  0  0
   58.1687   32.3370   53.6189 H   0  0  0  0  0  0  0  0  0  0  0  0
   57.1566   30.9639   51.7956 H   0  0  0  0  0  0  0  0  0  0  0  0
   57.7293   31.4278   49.4144 H   0  0  0  0  0  0  0  0  0  0  0  0
  1  2  1  0
  2  3  1  0
  3  4  1  0
  4  5  1  0
  3  6  1  0
  6  7  1  0
  7  8  1  0
  8  9  1  0
  9 10  1  0
 10 11  2  0
 11 12  1  0
 12 13  1  0
 13 14  1  0
 14 15  2  0
 15 16  1  0
 16 17  2  0
 17 18  1  0
 17 19  1  0
 19 20  2  0
 12 21  2  0
 21 22  1  0
 22 23  1  0
 23 24  2  0
 24 25  1  0
 25 26  2  0
 26 27  1  0
 27 28  2  0
 22 29  2  0
 29 10  1  0
 20 14  1  0
 28 23  1  0
  1 30  1  0
  1 31  1  0
  1 32  1  0
  2 33  1  0
  2 34  1  0
  4 35  1  0
  4 36  1  0
  5 37  1  0
  5 38  1  0
  5 39  1  0
  6 40  1  0
  6 41  1  0
  7 42  1  0
  7 43  1  0
  8 44  1  0
  8 45  1  0
  9 46  1  0
 11 47  1  0
 15 48  1  0
 16 49  1  0
 19 50  1  0
 20 51  1  0
 21 52  1  0
 24 53  1  0
 25 54  1  0
 26 55  1  0
 27 56  1  0
 28 57  1  0
M  CHG  1  21   1
M  END
>  <UniqueID>  (7) 
6

>  <SMILES>  (7) 
CCN(CC)CCCNc1cc(Sc2ccc(F)cc2)[nH+]c(-c2ccccc2)n1

>  <Energy>  (7) 
53.41556049201852

>  <Genealogy>  (7) 
CCN(CC)CCCNc1cc(Sc2ccc(F)cc2)[nH+]c(-c2ccccc2)n1 (protonated)
CCN(CC)CCCNc1cc(Sc2ccc(F)cc2)[nH+]c(-c2ccccc2)n1 (3D coordinates assigned)
CCN(CC)CCCNc1cc(Sc2ccc(F)cc2)[nH+]c(-c2ccccc2)n1 (optimized conformer: 53.41556049201852 kcal/mol)

>  <smiles>  (7) 
CCN(CC)CCCNc1cc(Sc2ccc(F)cc2)nc(-c2ccccc2)n1

>  <score_type>  (7) 
oracle

>  <origin>  (7) 
adg

>  <m_score__min__energy>  (7) 
-6.5899999999999999

>  <m_primary>  (7) 
energy

$$$$
7:0
     RDKit          3D

 49 52  0  0  0  0  0  0  0  0999 V2000
   58.4160   33.6490   44.4680 C   0  0  0  0  0  0  0  0  0  0  0  0
   58.0080   32.8320   45.6150 N   0  0  0  0  0  0  0  0  0  0  0  0
   57.9090   33.4690   46.9360 C   0  0  0  0  0  0  0  0  0  0  0  0
   59.2370   33.5060   47.6610 C   0  0  0  0  0  0  0  0  0  0  0  0
   59.2460   33.5270   49.0660 C   0  0  0  0  0  0  0  0  0  0  0  0
   60.4530   33.6040   49.7670 C   0  0  0  0  0  0  0  0  0  0  0  0
   61.6630   33.6710   49.0730 C   0  0  0  0  0  0  0  0  0  0  0  0
   61.6680   33.6670   47.6760 C   0  0  0  0  0  0  0  0  0  0  0  0
   63.3220   33.7750   46.7260 Br  0  0  0  0  0  0  0  0  0  0  0  0
   60.4630   33.5890   46.9710 C   0  0  0  0  0  0  0  0  0  0  0  0
   57.7570   31.4170   45.4340 C   0  0  0  0  0  0  0  0  0  0  0  0
   56.8020   30.9780   44.5480 N   0  0  0  0  0  0  0  0  0  0  0  0
   56.5280   29.6430   44.3890 C   0  0  0  0  0  0  0  0  0  0  0  0
   57.1980   28.7030   45.1140 N   0  0  0  0  0  0  0  0  0  0  0  0
   58.1460   29.1270   45.9820 C   0  0  0  0  0  0  0  0  0  0  0  0
   58.4380   30.4360   46.1640 C   0  0  0  0  0  0  0  0  0  0  0  0
   59.3560   30.5720   47.1420 N   0  0  0  0  0  0  0  0  0  0  0  0
   59.5980   29.2880   47.5190 C   0  0  0  0  0  0  0  0  0  0  0  0
   58.8780   28.3770   46.8160 N   0  0  0  0  0  0  0  0  0  0  0  0
   58.7910   26.9330   47.0360 C   0  0  1  0  0  0  0  0  0  0  0  0
   57.4410   26.5630   47.2320 O   0  0  0  0  0  0  0  0  0  0  0  0
   57.1810   25.4730   46.3790 C   0  0  1  0  0  0  0  0  0  0  0  0
   55.6980   25.4360   45.9840 C   0  0  0  0  0  0  0  0  0  0  0  0
   55.1560   26.7280   45.9700 O   0  0  0  0  0  0  0  0  0  0  0  0
   58.1430   25.5510   45.1980 C   0  0  1  0  0  0  0  0  0  0  0  0
   57.6450   26.3970   44.1910 O   0  0  0  0  0  0  0  0  0  0  0  0
   59.3660   26.1710   45.8340 C   0  0  2  0  0  0  0  0  0  0  0  0
   60.2430   25.1690   46.2830 O   0  0  0  0  0  0  0  0  0  0  0  0
   58.8805   34.5792   44.8271 H   0  0  0  0  0  0  0  0  0  0  0  0
   59.1403   33.0891   43.8582 H   0  0  0  0  0  0  0  0  0  0  0  0
   57.5333   33.8917   43.8582 H   0  0  0  0  0  0  0  0  0  0  0  0
   57.5497   34.5003   46.8046 H   0  0  0  0  0  0  0  0  0  0  0  0
   57.2122   32.8731   47.5437 H   0  0  0  0  0  0  0  0  0  0  0  0
   58.2959   33.4825   49.6185 H   0  0  0  0  0  0  0  0  0  0  0  0
   60.4497   33.6118   50.8670 H   0  0  0  0  0  0  0  0  0  0  0  0
   62.6121   33.7269   49.6263 H   0  0  0  0  0  0  0  0  0  0  0  0
   60.4720   33.5924   45.8710 H   0  0  0  0  0  0  0  0  0  0  0  0
   56.2680   31.6590   43.9670 H   0  0  0  0  0  0  0  0  0  0  0  0
   55.7590   29.3277   43.6684 H   0  0  0  0  0  0  0  0  0  0  0  0
   60.3068   29.0148   48.3146 H   0  0  0  0  0  0  0  0  0  0  0  0
   59.3774   26.6757   47.9304 H   0  0  0  0  0  0  0  0  0  0  0  0
   57.3612   24.5149   46.8885 H   0  0  0  0  0  0  0  0  0  0  0  0
   55.6025   24.9936   44.9814 H   0  0  0  0  0  0  0  0  0  0  0  0
   55.1508   24.8313   46.7222 H   0  0  0  0  0  0  0  0  0  0  0  0
   55.8950   27.3390   46.2220 H   0  0  0  0  0  0  0  0  0  0  0  0
   58.3207   24.5795   44.7136 H   0  0  0  0  0  0  0  0  0  0  0  0
   56.7610   26.7230   44.5080 H   0  0  0  0  0  0  0  0  0  0  0  0
   59.9349   26.8082   45.1409 H   0  0  0  0  0  0  0  0  0  0  0  0
   61.0540   25.6310   46.6180 H   0  0  0  0  0  0  0  0  0  0  0  0
  1  2  1  0
  2  3  1  0
  3  4  1  0
  4  5  2  0
  5  6  1  0
  6  7  2  0
  7  8  1  0
  8  9  1  0
  8 10  2  0
  2 11  1  0
 11 12  2  0
 12 13  1  0
 13 14  2  0
 14 15  1  0
 15 16  2  0
 16 17  1  0
 17 18  2  0
 18 19  1  0
 19 20  1  0
 20 21  1  0
 21 22  1  0
 22 23  1  0
 23 24  1  0
 22 25  1  0
 25 26  1  0
 25 27  1  0
 27 28  1  0
 10  4  1  0
 16 11  1  0
 27 20  1  0
 19 15  1  0
  1 29  1  0
  1 30  1  0
  1 31  1  0
  3 32  1  0
  3 33  1  0
  5 34  1  0
  6 35  1  0
  7 36  1  0
 10 37  1  0
 12 38  1  0
 13 39  1  0
 18 40  1  0
 20 41  1  1
 22 42  1  1
 23 43  1  0
 23 44  1  0
 24 45  1  0
 25 46  1  6
 26 47  1  0
 27 48  1  6
 28 49  1  0
M  CHG  1  12   1
M  END
>  <UniqueID>  (8) 
7

>  <SMILES>  (8) 
CN(Cc1cccc(Br)c1)c1[nH+]cnc2c1ncn2[C@H]1O[C@@H](CO)C(O)C1O

>  <Energy>  (8) 
95.88225277083326

>  <Genealogy>  (8) 
CN(Cc1cccc(Br)c1)c1[nH+]cnc2c1ncn2C1OC(CO)C(O)C1O (protonated)
CN(Cc1cccc(Br)c1)c1[nH+]cnc2c1ncn2[C@H]1O[C@@H](CO)C(O)C1O (chirality)
CN(Cc1cccc(Br)c1)c1[nH+]cnc2c1ncn2[C@H]1O[C@@H](CO)C(O)C1O (3D coordinates assigned)
CN(Cc1cccc(Br)c1)c1[nH+]cnc2c1ncn2[C@H]1O[C@@H](CO)C(O)C1O (nonaromatic ring conformer: 95.88225277083326 kcal/mol)

>  <smiles>  (8) 
CN(Cc1cccc(Br)c1)c1ncnc2c1ncn2C1OC(CO)C(O)C1O

>  <score_type>  (8) 
oracle

>  <origin>  (8) 
adg

>  <m_score__min__energy>  (8) 
-6.6600000000000001

>  <m_primary>  (8) 
energy

$$$$
8:0
     RDKit          3D

 59 62  0  0  0  0  0  0  0  0999 V2000
   60.1640   33.4800   50.0020 C   0  0  0  0  0  0  0  0  0  0  0  0
   61.2240   33.3360   48.9410 C   0  0  0  0  0  0  0  0  0  0  0  0
   62.3380   32.5160   49.1980 C   0  0  0  0  0  0  0  0  0  0  0  0
   63.3480   32.3660   48.2450 C   0  0  0  0  0  0  0  0  0  0  0  0
   63.2620   33.0310   47.0240 C   0  0  0  0  0  0  0  0  0  0  0  0
   62.1630   33.8450   46.7470 C   0  0  0  0  0  0  0  0  0  0  0  0
   61.1320   34.0080   47.6910 C   0  0  0  0  0  0  0  0  0  0  0  0
   59.9510   34.8730   47.3080 C   0  0  0  0  0  0  0  0  0  0  0  0
   59.2120   34.2540   46.2080 N   0  0  0  0  0  0  0  0  0  0  0  0
   57.9560   33.5810   46.3820 C   0  0  0  0  0  0  0  0  0  0  0  0
   57.4530   33.4490   47.5310 O   0  0  0  0  0  0  0  0  0  0  0  0
   57.2230   33.0360   45.1910 C   0  0  0  0  0  0  0  0  0  0  0  0
   58.1470   32.2610   44.2360 C   0  0  0  0  0  0  0  0  0  0  0  0
   58.1730   30.7670   44.5480 C   0  0  0  0  0  0  0  0  0  0  0  0
   57.3380   29.8700   43.8030 C   0  0  0  0  0  0  0  0  0  0  0  0
   56.5980   30.2960   42.5650 C   0  0  0  0  0  0  0  0  0  0  0  0
   57.2320   28.5630   44.1760 N   0  0  0  0  0  0  0  0  0  0  0  0
   57.9090   28.1070   45.2520 C   0  0  0  0  0  0  0  0  0  0  0  0
   58.7210   28.9060   46.0000 C   0  0  0  0  0  0  0  0  0  0  0  0
   59.1070   28.0850   47.0620 C   0  0  0  0  0  0  0  0  0  0  0  0
   59.9410   28.4310   48.2530 C   0  0  0  0  0  0  0  0  0  0  0  0
   58.5380   26.8640   46.9080 N   0  0  0  0  0  0  0  0  0  0  0  0
   57.8170   26.8790   45.7940 N   0  0  0  0  0  0  0  0  0  0  0  0
   57.0320   25.7660   45.3320 C   0  0  0  0  0  0  0  0  0  0  0  0
   55.8570   25.4080   46.0130 C   0  0  0  0  0  0  0  0  0  0  0  0
   55.0760   24.3390   45.5600 C   0  0  0  0  0  0  0  0  0  0  0  0
   55.4710   23.6120   44.4340 C   0  0  0  0  0  0  0  0  0  0  0  0
   56.6480   23.9490   43.7600 C   0  0  0  0  0  0  0  0  0  0  0  0
   57.4290   25.0200   44.2070 C   0  0  0  0  0  0  0  0  0  0  0  0
   58.9460   30.2490   45.6390 C   0  0  0  0  0  0  0  0  0  0  0  0
   59.9640   31.0910   46.3680 C   0  0  0  0  0  0  0  0  0  0  0  0
   60.6297   33.4167   50.9965 H   0  0  0  0  0  0  0  0  0  0  0  0
   59.6651   34.4542   49.8920 H   0  0  0  0  0  0  0  0  0  0  0  0
   59.4233   32.6742   49.8920 H   0  0  0  0  0  0  0  0  0  0  0  0
   62.4143   31.9874   50.1597 H   0  0  0  0  0  0  0  0  0  0  0  0
   64.2132   31.7214   48.4591 H   0  0  0  0  0  0  0  0  0  0  0  0
   64.0613   32.9143   46.2774 H   0  0  0  0  0  0  0  0  0  0  0  0
   62.1018   34.3652   45.7797 H   0  0  0  0  0  0  0  0  0  0  0  0
   59.2851   34.9852   48.1763 H   0  0  0  0  0  0  0  0  0  0  0  0
   60.3159   35.8598   46.9870 H   0  0  0  0  0  0  0  0  0  0  0  0
   59.6350   34.2820   45.2540 H   0  0  0  0  0  0  0  0  0  0  0  0
   56.4313   32.3585   45.5434 H   0  0  0  0  0  0  0  0  0  0  0  0
   56.8066   33.8890   44.6351 H   0  0  0  0  0  0  0  0  0  0  0  0
   57.7900   32.4018   43.2051 H   0  0  0  0  0  0  0  0  0  0  0  0
   59.1678   32.6510   44.3619 H   0  0  0  0  0  0  0  0  0  0  0  0
   55.6777   30.8258   42.8520 H   0  0  0  0  0  0  0  0  0  0  0  0
   57.2356   30.9653   41.9687 H   0  0  0  0  0  0  0  0  0  0  0  0
   56.3394   29.4085   41.9687 H   0  0  0  0  0  0  0  0  0  0  0  0
   59.3823   28.1992   49.1717 H   0  0  0  0  0  0  0  0  0  0  0  0
   60.8715   27.8446   48.2319 H   0  0  0  0  0  0  0  0  0  0  0  0
   60.1831   29.5038   48.2319 H   0  0  0  0  0  0  0  0  0  0  0  0
   55.5492   25.9706   46.9067 H   0  0  0  0  0  0  0  0  0  0  0  0
   54.1505   24.0708   46.0906 H   0  0  0  0  0  0  0  0  0  0  0  0
   54.8548   22.7734   44.0776 H   0  0  0  0  0  0  0  0  0  0  0  0
   56.9605   23.3717   42.8774 H   0  0  0  0  0  0  0  0  0  0  0  0
   58.3571   25.2800   43.6769 H   0  0  0  0  0  0  0  0  0  0  0  0
   59.8253   30.9763   47.4532 H   0  0  0  0  0  0  0  0  0  0  0  0
   60.9769   30.7632   46.0911 H   0  0  0  0  0  0  0  0  0  0  0  0
   59.8320   32.1474   46.0911 H   0  0  0  0  0  0  0  0  0  0  0  0
  1  2  1  0
  2  3  2  0
  3  4  1  0
  4  5  2  0
  5  6  1  0
  6  7  2  0
  7  8  1  0
  8  9  1  0
  9 10  1  0
 10 11  2  0
 10 12  1  0
 12 13  1  0
 13 14  1  0
 14 15  2  0
 15 16  1  0
 15 17  1  0
 17 18  2  0
 18 19  1  0
 19 20  1  0
 20 21  1  0
 20 22  2  0
 22 23  1  0
 23 24  1  0
 24 25  2  0
 25 26  1  0
 26 27  2  0
 27 28  1  0
 28 29  2  0
 19 30  2  0
 30 31  1  0
  7  2  1  0
 30 14  1  0
 23 18  1  0
 29 24  1  0
  1 32  1  0
  1 33  1  0
  1 34  1  0
  3 35  1  0
  4 36  1  0
  5 37  1  0
  6 38  1  0
  8 39  1  0
  8 40  1  0
  9 41  1  0
 12 42  1  0
 12 43  1  0
 13 44  1  0
 13 45  1  0
 16 46  1  0
 16 47  1  0
 16 48  1  0
 21 49  1  0
 21 50  1  0
 21 51  1  0
 25 52  1  0
 26 53  1  0
 27 54  1  0
 28 55  1  0
 29 56  1  0
 31 57  1  0
 31 58  1  0
 31 59  1  0
M  END
>  <UniqueID>  (9) 
8

>  <SMILES>  (9) 
Cc1ccccc1CNC(=O)CCc1c(C)nc2c(c(C)nn2-c2ccccc2)c1C

>  <Energy>  (9) 
106.9258563190812

>  <Genealogy>  (9) 
Cc1ccccc1CNC(=O)CCc1c(C)nc2c(c(C)nn2-c2ccccc2)c1C (3D coordinates assigned)
Cc1ccccc1CNC(=O)CCc1c(C)nc2c(c(C)nn2-c2ccccc2)c1C (optimized conformer: 106.9258563190812 kcal/mol)

>  <smiles>  (9) 
Cc1ccccc1CNC(=O)CCc1c(C)nc2c(c(C)nn2-c2ccccc2)c1C

>  <score_type>  (9) 
oracle

>  <origin>  (9) 
adg

>  <m_score__min__energy>  (9) 
-9.8100000000000005

>  <m_primary>  (9) 
energy

$$$$
9:0
     RDKit          3D

 45 47  0  0  0  0  0  0  0  0999 V2000
   58.1290   27.2040   43.7490 C   0  0  0  0  0  0  0  0  0  0  0  0
   59.4100   27.7930   43.7810 O   0  0  0  0  0  0  0  0  0  0  0  0
   59.6800   28.3050   45.0710 C   0  0  0  0  0  0  0  0  0  0  0  0
   59.2270   29.7370   45.1800 C   0  0  0  0  0  0  0  0  0  0  0  0
   58.6600   30.3990   44.1470 N   0  0  0  0  0  0  0  0  0  0  0  0
   58.3720   31.6110   44.6440 C   0  0  0  0  0  0  0  0  0  0  0  0
   57.7930   32.6810   43.9680 C   0  0  0  0  0  0  0  0  0  0  0  0
   57.4390   32.5790   42.6630 F   0  0  0  0  0  0  0  0  0  0  0  0
   57.5890   33.8710   44.6790 C   0  0  0  0  0  0  0  0  0  0  0  0
   57.9570   33.9640   46.0350 C   0  0  0  0  0  0  0  0  0  0  0  0
   58.5480   32.8700   46.7110 C   0  0  0  0  0  0  0  0  0  0  0  0
   58.8690   33.0070   48.1480 C   0  0  0  0  0  0  0  0  0  0  0  0
   58.1620   32.4060   48.9970 O   0  0  0  0  0  0  0  0  0  0  0  0
   59.8960   33.8940   48.6120 N   0  0  0  0  0  0  0  0  0  0  0  0
   61.2800   33.5460   48.7760 C   0  0  0  0  0  0  0  0  0  0  0  0
   62.1130   33.4950   47.6370 C   0  0  0  0  0  0  0  0  0  0  0  0
   61.5680   33.8400   46.2770 C   0  0  0  0  0  0  0  0  0  0  0  0
   63.4550   33.1090   47.7750 C   0  0  0  0  0  0  0  0  0  0  0  0
   63.9710   32.7870   49.0280 C   0  0  0  0  0  0  0  0  0  0  0  0
   63.1640   32.8730   50.1630 C   0  0  0  0  0  0  0  0  0  0  0  0
   61.8250   33.2790   50.0550 C   0  0  0  0  0  0  0  0  0  0  0  0
   61.0100   33.4230   51.3110 C   0  0  0  0  0  0  0  0  0  0  0  0
   58.7450   31.6830   45.9640 C   0  0  0  0  0  0  0  0  0  0  0  0
   59.3120   30.4970   46.3090 N   0  0  0  0  0  0  0  0  0  0  0  0
   59.8600   30.0740   47.5990 C   0  0  0  0  0  0  0  0  0  0  0  0
   57.7746   27.0410   44.7775 H   0  0  0  0  0  0  0  0  0  0  0  0
   57.4314   27.8718   43.2223 H   0  0  0  0  0  0  0  0  0  0  0  0
   58.1818   26.2398   43.2223 H   0  0  0  0  0  0  0  0  0  0  0  0
   59.1469   27.6996   45.8188 H   0  0  0  0  0  0  0  0  0  0  0  0
   60.7647   28.2623   45.2489 H   0  0  0  0  0  0  0  0  0  0  0  0
   58.4830   30.0470   43.1800 H   0  0  0  0  0  0  0  0  0  0  0  0
   57.1383   34.7384   44.1745 H   0  0  0  0  0  0  0  0  0  0  0  0
   57.7820   34.9040   46.5788 H   0  0  0  0  0  0  0  0  0  0  0  0
   60.6435   34.4252   46.3901 H   0  0  0  0  0  0  0  0  0  0  0  0
   62.3115   34.4323   45.7235 H   0  0  0  0  0  0  0  0  0  0  0  0
   61.3507   32.9146   45.7235 H   0  0  0  0  0  0  0  0  0  0  0  0
   64.1037   33.0604   46.8879 H   0  0  0  0  0  0  0  0  0  0  0  0
   65.0181   32.4638   49.1231 H   0  0  0  0  0  0  0  0  0  0  0  0
   63.5803   32.6208   51.1494 H   0  0  0  0  0  0  0  0  0  0  0  0
   61.6641   33.3074   52.1878 H   0  0  0  0  0  0  0  0  0  0  0  0
   60.5412   34.4179   51.3319 H   0  0  0  0  0  0  0  0  0  0  0  0
   60.2287   32.6490   51.3319 H   0  0  0  0  0  0  0  0  0  0  0  0
   59.2739   30.5264   48.4125 H   0  0  0  0  0  0  0  0  0  0  0  0
   59.8101   28.9779   47.6769 H   0  0  0  0  0  0  0  0  0  0  0  0
   60.9077   30.3998   47.6769 H   0  0  0  0  0  0  0  0  0  0  0  0
  1  2  1  0
  2  3  1  0
  3  4  1  0
  4  5  2  0
  5  6  1  0
  6  7  2  0
  7  8  1  0
  7  9  1  0
  9 10  2  0
 10 11  1  0
 11 12  1  0
 12 13  2  0
 12 14  1  0
 14 15  1  0
 15 16  2  0
 16 17  1  0
 16 18  1  0
 18 19  2  0
 19 20  1  0
 20 21  2  0
 21 22  1  0
 11 23  2  0
 23 24  1  0
 24 25  1  0
 24  4  1  0
 23  6  1  0
 21 15  1  0
  1 26  1  0
  1 27  1  0
  1 28  1  0
  3 29  1  0
  3 30  1  0
  5 31  1  0
  9 32  1  0
 10 33  1  0
 17 34  1  0
 17 35  1  0
 17 36  1  0
 18 37  1  0
 19 38  1  0
 20 39  1  0
 22 40  1  0
 22 41  1  0
 22 42  1  0
 25 43  1  0
 25 44  1  0
 25 45  1  0
M  CHG  2   5   1  14  -1
M  END
>  <UniqueID>  (10) 
9

>  <SMILES>  (10) 
COCc1[nH+]c2c(F)ccc(C(=O)[N-]c3c(C)cccc3C)c2n1C

>  <Energy>  (10) 
100.30661656767734

>  <Genealogy>  (10) 
COCc1[nH+]c2c(F)ccc(C(=O)[N-]c3c(C)cccc3C)c2n1C (protonated)
COCc1[nH+]c2c(F)ccc(C(=O)[N-]c3c(C)cccc3C)c2n1C (3D coordinates assigned)
COCc1[nH+]c2c(F)ccc(C(=O)[N-]c3c(C)cccc3C)c2n1C (optimized conformer: 100.30661656767734 kcal/mol)

>  <smiles>  (10) 
COCc1nc2c(F)ccc(C(=O)Nc3c(C)cccc3C)c2n1C

>  <score_type>  (10) 
oracle

>  <origin>  (10) 
adg

>  <m_score__min__energy>  (10) 
-6.2800000000000002

>  <m_primary>  (10) 
energy

$$$$
10:0
     RDKit          3D

 31 33  0  0  0  0  0  0  0  0999 V2000
   57.7870   32.2250   41.5540 C   0  0  0  0  0  0  0  0  0  0  0  0
   57.0080   31.2390   42.4140 C   0  0  0  0  0  0  0  0  0  0  0  0
   57.7100   30.9990   43.6790 N   0  0  0  0  0  0  0  0  0  0  0  0
   58.1070   31.9230   44.5890 C   0  0  0  0  0  0  0  0  0  0  0  0
   57.9660   33.3120   44.5010 C   0  0  0  0  0  0  0  0  0  0  0  0
   58.4390   34.0970   45.5640 C   0  0  0  0  0  0  0  0  0  0  0  0
   59.0330   33.4950   46.6920 C   0  0  0  0  0  0  0  0  0  0  0  0
   59.6650   34.5850   48.1260 Br  0  0  0  0  0  0  0  0  0  0  0  0
   59.1580   32.0970   46.7700 C   0  0  0  0  0  0  0  0  0  0  0  0
   58.6840   31.3260   45.7000 C   0  0  0  0  0  0  0  0  0  0  0  0
   58.6250   29.9550   45.4660 C   0  0  0  0  0  0  0  0  0  0  0  0
   58.0180   29.8010   44.2330 C   0  0  0  0  0  0  0  0  0  0  0  0
   57.7710   28.5320   43.7140 C   0  0  0  0  0  0  0  0  0  0  0  0
   58.1700   27.4280   44.4740 C   0  0  0  0  0  0  0  0  0  0  0  0
   58.7940   27.6170   45.7220 C   0  0  0  0  0  0  0  0  0  0  0  0
   59.0210   28.8790   46.2190 N   0  0  0  0  0  0  0  0  0  0  0  0
   59.6680   29.0290   47.5250 C   0  0  0  0  0  0  0  0  0  0  0  0
   58.3377   32.9220   42.2028 H   0  0  0  0  0  0  0  0  0  0  0  0
   58.4978   31.6758   40.9190 H   0  0  0  0  0  0  0  0  0  0  0  0
   57.0883   32.7894   40.9190 H   0  0  0  0  0  0  0  0  0  0  0  0
   56.0105   31.6517   42.6255 H   0  0  0  0  0  0  0  0  0  0  0  0
   56.9155   30.2870   41.8708 H   0  0  0  0  0  0  0  0  0  0  0  0
   57.4966   33.7769   43.6215 H   0  0  0  0  0  0  0  0  0  0  0  0
   58.3454   35.1920   45.5166 H   0  0  0  0  0  0  0  0  0  0  0  0
   59.6164   31.6201   47.6489 H   0  0  0  0  0  0  0  0  0  0  0  0
   57.2785   28.4027   42.7389 H   0  0  0  0  0  0  0  0  0  0  0  0
   57.9960   26.4097   44.0960 H   0  0  0  0  0  0  0  0  0  0  0  0
   59.1051   26.7405   46.3093 H   0  0  0  0  0  0  0  0  0  0  0  0
   58.9294   28.8578   48.3219 H   0  0  0  0  0  0  0  0  0  0  0  0
   60.4830   28.2960   47.6168 H   0  0  0  0  0  0  0  0  0  0  0  0
   60.0773   30.0459   47.6168 H   0  0  0  0  0  0  0  0  0  0  0  0
  1  2  1  0
  2  3  1  0
  3  4  1  0
  4  5  2  0
  5  6  1  0
  6  7  2  0
  7  8  1  0
  7  9  1  0
  9 10  2  0
 10 11  1  0
 11 12  2  0
 12 13  1  0
 13 14  2  0
 14 15  1  0
 15 16  2  0
 16 17  1  0
 12  3  1  0
 10  4  1  0
 16 11  1  0
  1 18  1  0
  1 19  1  0
  1 20  1  0
  2 21  1  0
  2 22  1  0
  5 23  1  0
  6 24  1  0
  9 25  1  0
 13 26  1  0
 14 27  1  0
 15 28  1  0
 17 29  1  0
 17 30  1  0
 17 31  1  0
M  CHG  1  16   1
M  END
>  <UniqueID>  (11) 
10

>  <SMILES>  (11) 
CCn1c2ccc(Br)cc2c2c1ccc[n+]2C

>  <Energy>  (11) 
76.46859163035782

>  <Genealogy>  (11) 
CCn1c2ccc(Br)cc2c2c1ccc[n+]2C (3D coordinates assigned)
CCn1c2ccc(Br)cc2c2c1ccc[n+]2C (optimized conformer: 76.46859163035782 kcal/mol)

>  <smiles>  (11) 
CCn1c2ccc(Br)cc2c2c1ccc[n+]2C

>  <score_type>  (11) 
oracle

>  <origin>  (11) 
adg

>  <m_score__min__energy>  (11) 
-5.21

>  <m_primary>  (11) 
energy

$$$$
11:0
     RDKit          3D

 30 32  0  0  0  0  0  0  0  0999 V2000
   57.7330   32.5020   45.4220 C   0  0  0  0  0  0  0  0  0  0  0  0
   57.6360   31.1280   44.8270 C   0  0  0  0  0  0  0  0  0  0  0  0
   56.8700   30.9110   43.6710 C   0  0  0  0  0  0  0  0  0  0  0  0
   56.7580   29.6270   43.1320 C   0  0  0  0  0  0  0  0  0  0  0  0
   57.3920   28.5480   43.7540 C   0  0  0  0  0  0  0  0  0  0  0  0
   58.1250   28.7430   44.9350 C   0  0  0  0  0  0  0  0  0  0  0  0
   58.8000   27.6460   45.5670 N   0  0  0  0  0  0  0  0  0  0  0  0
   60.0840   27.6680   45.8750 N   0  0  0  0  0  0  0  0  0  0  0  0
   60.3660   26.4530   46.3800 C   0  0  0  0  0  0  0  0  0  0  0  0
   59.2870   25.6430   46.4110 N   0  0  0  0  0  0  0  0  0  0  0  0
   58.3180   26.4260   45.8960 C   0  0  0  0  0  0  0  0  0  0  0  0
   56.9070   26.0010   45.8220 C   0  0  0  0  0  0  0  0  0  0  0  0
   56.4700   24.7280   45.5100 C   0  0  0  0  0  0  0  0  0  0  0  0
   55.1010   24.8250   45.6230 C   0  0  0  0  0  0  0  0  0  0  0  0
   54.1190   23.7230   45.4100 C   0  0  0  0  0  0  0  0  0  0  0  0
   54.7850   26.0460   45.9850 O   0  0  0  0  0  0  0  0  0  0  0  0
   55.8500   26.7820   46.1180 N   0  0  0  0  0  0  0  0  0  0  0  0
   58.2550   30.0380   45.4590 C   0  0  0  0  0  0  0  0  0  0  0  0
   57.7277   32.4275   46.5195 H   0  0  0  0  0  0  0  0  0  0  0  0
   58.6671   32.9796   45.0914 H   0  0  0  0  0  0  0  0  0  0  0  0
   56.8753   33.1061   45.0914 H   0  0  0  0  0  0  0  0  0  0  0  0
   56.3560   31.7550   43.1877 H   0  0  0  0  0  0  0  0  0  0  0  0
   56.1699   29.4650   42.2166 H   0  0  0  0  0  0  0  0  0  0  0  0
   57.3163   27.5417   43.3162 H   0  0  0  0  0  0  0  0  0  0  0  0
   61.3652   26.1532   46.7289 H   0  0  0  0  0  0  0  0  0  0  0  0
   57.0712   23.8483   45.2369 H   0  0  0  0  0  0  0  0  0  0  0  0
   53.7790   23.3415   46.3841 H   0  0  0  0  0  0  0  0  0  0  0  0
   53.2563   24.1049   44.8444 H   0  0  0  0  0  0  0  0  0  0  0  0
   54.5974   22.9098   44.8444 H   0  0  0  0  0  0  0  0  0  0  0  0
   58.8465   30.2004   46.3721 H   0  0  0  0  0  0  0  0  0  0  0  0
  1  2  1  0
  2  3  2  0
  3  4  1  0
  4  5  2  0
  5  6  1  0
  6  7  1  0
  7  8  1  0
  8  9  2  0
  9 10  1  0
 10 11  2  0
 11 12  1  0
 12 13  1  0
 13 14  2  0
 14 15  1  0
 14 16  1  0
 16 17  1  0
  6 18  2  0
 18  2  1  0
 11  7  1  0
 17 12  2  0
  1 19  1  0
  1 20  1  0
  1 21  1  0
  3 22  1  0
  4 23  1  0
  5 24  1  0
  9 25  1  0
 13 26  1  0
 15 27  1  0
 15 28  1  0
 15 29  1  0
 18 30  1  0
M  END
>  <UniqueID>  (12) 
11

>  <SMILES>  (12) 
Cc1cccc(-n2ncnc2-c2cc(C)on2)c1

>  <Energy>  (12) 
99.86273604863622

>  <Genealogy>  (12) 
Cc1cccc(-n2ncnc2-c2cc(C)on2)c1 (3D coordinates assigned)
Cc1cccc(-n2ncnc2-c2cc(C)on2)c1 (optimized conformer: 99.86273604863622 kcal/mol)

>  <smiles>  (12) 
Cc1cccc(-n2ncnc2-c2cc(C)on2)c1

>  <score_type>  (12) 
oracle

>  <origin>  (12) 
adg

>  <m_score__min__energy>  (12) 
-7.6100000000000003

>  <m_primary>  (12) 
energy

$$$$
12:0
     RDKit          3D

 55 57  0  0  0  0  0  0  0  0999 V2000
   59.2090   30.1250   48.1060 C   0  0  0  0  0  0  0  0  0  0  0  0
   59.5140   31.4330   47.6310 O   0  0  0  0  0  0  0  0  0  0  0  0
   60.8030   31.9870   47.5860 C   0  0  0  0  0  0  0  0  0  0  0  0
   61.9100   31.2410   47.1350 C   0  0  0  0  0  0  0  0  0  0  0  0
   63.1890   31.7990   47.1380 C   0  0  0  0  0  0  0  0  0  0  0  0
   63.3840   33.0970   47.6030 C   0  0  0  0  0  0  0  0  0  0  0  0
   62.2980   33.8510   48.0480 C   0  0  0  0  0  0  0  0  0  0  0  0
   60.9930   33.3230   48.0100 C   0  0  0  0  0  0  0  0  0  0  0  0
   59.8210   34.1720   48.4830 C   0  0  0  0  0  0  0  0  0  0  0  0
   58.9800   34.7310   47.3900 N   0  0  0  0  0  0  0  0  0  0  0  0
   59.7690   35.2450   46.2380 C   0  0  0  0  0  0  0  0  0  0  0  0
   59.6940   34.3140   45.0170 C   0  0  0  0  0  0  0  0  0  0  0  0
   58.2970   34.1360   44.5410 N   0  0  0  0  0  0  0  0  0  0  0  0
   58.1400   32.8760   43.7750 C   0  0  0  0  0  0  0  0  0  0  0  0
   57.5580   31.7390   44.6320 C   0  0  0  0  0  0  0  0  0  0  0  0
   56.7720   30.7310   43.7860 C   0  0  0  0  0  0  0  0  0  0  0  0
   56.3970   29.5230   44.6040 C   0  0  0  0  0  0  0  0  0  0  0  0
   55.1750   29.3370   44.8500 O   0  0  0  0  0  0  0  0  0  0  0  0
   57.3970   28.5320   45.0940 C   0  0  0  0  0  0  0  0  0  0  0  0
   58.7680   28.7360   44.8390 C   0  0  0  0  0  0  0  0  0  0  0  0
   59.7250   27.8230   45.2910 C   0  0  0  0  0  0  0  0  0  0  0  0
   59.3290   26.6880   46.0020 C   0  0  0  0  0  0  0  0  0  0  0  0
   60.2570   25.7980   46.4360 F   0  0  0  0  0  0  0  0  0  0  0  0
   57.9750   26.4670   46.2610 C   0  0  0  0  0  0  0  0  0  0  0  0
   57.0140   27.3800   45.8140 C   0  0  0  0  0  0  0  0  0  0  0  0
   57.2910   34.2300   45.6320 C   0  0  0  0  0  0  0  0  0  0  0  0
   57.8770   33.8190   46.9890 C   0  0  0  0  0  0  0  0  0  0  0  0
   59.2090   30.1251   49.2060 H   0  0  0  0  0  0  0  0  0  0  0  0
   58.2166   29.8239   47.7394 H   0  0  0  0  0  0  0  0  0  0  0  0
   59.9659   29.4160   47.7394 H   0  0  0  0  0  0  0  0  0  0  0  0
   61.7649   30.2108   46.7778 H   0  0  0  0  0  0  0  0  0  0  0  0
   64.0447   31.2125   46.7724 H   0  0  0  0  0  0  0  0  0  0  0  0
   64.3958   33.5284   47.6194 H   0  0  0  0  0  0  0  0  0  0  0  0
   62.4626   34.8684   48.4325 H   0  0  0  0  0  0  0  0  0  0  0  0
   59.1809   33.5470   49.1230 H   0  0  0  0  0  0  0  0  0  0  0  0
   60.2538   35.0324   49.0144 H   0  0  0  0  0  0  0  0  0  0  0  0
   58.5130   35.5710   47.8130 H   0  0  0  0  0  0  0  0  0  0  0  0
   59.3776   36.2330   45.9540 H   0  0  0  0  0  0  0  0  0  0  0  0
   60.8218   35.3046   46.5513 H   0  0  0  0  0  0  0  0  0  0  0  0
   60.2948   34.7458   44.2030 H   0  0  0  0  0  0  0  0  0  0  0  0
   60.0808   33.3284   45.3153 H   0  0  0  0  0  0  0  0  0  0  0  0
   57.4649   33.0601   42.9263 H   0  0  0  0  0  0  0  0  0  0  0  0
   59.1381   32.5631   43.4347 H   0  0  0  0  0  0  0  0  0  0  0  0
   58.3837   31.2141   45.1348 H   0  0  0  0  0  0  0  0  0  0  0  0
   56.8667   32.1828   45.3635 H   0  0  0  0  0  0  0  0  0  0  0  0
   55.8560   31.2113   43.4114 H   0  0  0  0  0  0  0  0  0  0  0  0
   57.4047   30.4059   42.9469 H   0  0  0  0  0  0  0  0  0  0  0  0
   59.0891   29.6253   44.2769 H   0  0  0  0  0  0  0  0  0  0  0  0
   60.7914   27.9987   45.0865 H   0  0  0  0  0  0  0  0  0  0  0  0
   57.6627   25.5717   46.8186 H   0  0  0  0  0  0  0  0  0  0  0  0
   55.9499   27.1984   46.0256 H   0  0  0  0  0  0  0  0  0  0  0  0
   56.9349   35.2686   45.6985 H   0  0  0  0  0  0  0  0  0  0  0  0
   56.4663   33.5418   45.3948 H   0  0  0  0  0  0  0  0  0  0  0  0
   57.0837   33.8573   47.7501 H   0  0  0  0  0  0  0  0  0  0  0  0
   58.2790   32.7987   46.9031 H   0  0  0  0  0  0  0  0  0  0  0  0
  1  2  1  0
  2  3  1  0
  3  4  2  0
  4  5  1  0
  5  6  2  0
  6  7  1  0
  7  8  2  0
  8  9  1  0
  9 10  1  0
 10 11  1  0
 11 12  1  0
 12 13  1  0
 13 14  1  0
 14 15  1  0
 15 16  1  0
 16 17  1  0
 17 18  2  0
 17 19  1  0
 19 20  2  0
 20 21  1  0
 21 22  2  0
 22 23  1  0
 22 24  1  0
 24 25  2  0
 13 26  1  0
 26 27  1  0
  8  3  1  0
 27 10  1  0
 25 19  1  0
  1 28  1  0
  1 29  1  0
  1 30  1  0
  4 31  1  0
  5 32  1  0
  6 33  1  0
  7 34  1  0
  9 35  1  0
  9 36  1  0
 10 37  1  0
 11 38  1  0
 11 39  1  0
 12 40  1  0
 12 41  1  0
 14 42  1  0
 14 43  1  0
 15 44  1  0
 15 45  1  0
 16 46  1  0
 16 47  1  0
 20 48  1  0
 21 49  1  0
 24 50  1  0
 25 51  1  0
 26 52  1  0
 26 53  1  0
 27 54  1  0
 27 55  1  0
M  CHG  1  10   1
M  END
>  <UniqueID>  (13) 
12

>  <SMILES>  (13) 
COc1ccccc1C[NH+]1CCN(CCCC(=O)c2ccc(F)cc2)CC1

>  <Energy>  (13) 
70.98446738660782

>  <Genealogy>  (13) 
COc1ccccc1C[NH+]1CCN(CCCC(=O)c2ccc(F)cc2)CC1 (protonated)
COc1ccccc1C[NH+]1CCN(CCCC(=O)c2ccc(F)cc2)CC1 (3D coordinates assigned)
COc1ccccc1C[NH+]1CCN(CCCC(=O)c2ccc(F)cc2)CC1 (nonaromatic ring conformer: 70.98446738660782 kcal/mol)

>  <smiles>  (13) 
COc1ccccc1CN1CCN(CCCC(=O)c2ccc(F)cc2)CC1

>  <score_type>  (13) 
oracle

>  <origin>  (13) 
adg

>  <m_score__min__energy>  (13) 
-7.2300000000000004

>  <m_primary>  (13) 
energy

$$$$
13:0
     RDKit          3D

 38 40  0  0  0  0  0  0  0  0999 V2000
   54.4100   24.8350   45.5800 C   0  0  0  0  0  0  0  0  0  0  0  0
   54.8870   26.1050   45.9710 O   0  0  0  0  0  0  0  0  0  0  0  0
   56.1800   25.9930   46.5360 C   0  0  0  0  0  0  0  0  0  0  0  0
   57.2440   26.3460   45.4970 C   0  0  0  0  0  0  0  0  0  0  0  0
   57.8290   27.6500   45.7970 N   0  0  0  0  0  0  0  0  0  0  0  0
   58.8090   27.8350   46.6680 N   0  0  0  0  0  0  0  0  0  0  0  0
   59.0620   29.1620   46.7360 C   0  0  0  0  0  0  0  0  0  0  0  0
   60.0660   29.7360   47.6570 C   0  0  0  0  0  0  0  0  0  0  0  0
   60.1660   29.3010   48.9870 C   0  0  0  0  0  0  0  0  0  0  0  0
   61.1380   29.8560   49.8230 C   0  0  0  0  0  0  0  0  0  0  0  0
   61.9910   30.8000   49.3450 N   0  0  0  0  0  0  0  0  0  0  0  0
   61.9300   31.2280   48.0570 C   0  0  0  0  0  0  0  0  0  0  0  0
   63.0580   32.4440   47.4920 Cl  0  0  0  0  0  0  0  0  0  0  0  0
   60.9720   30.6980   47.1870 C   0  0  0  0  0  0  0  0  0  0  0  0
   58.2000   29.8450   45.8740 C   0  0  0  0  0  0  0  0  0  0  0  0
   58.1700   31.2840   45.5300 C   0  0  0  0  0  0  0  0  0  0  0  0
   58.1460   32.2540   46.5460 C   0  0  0  0  0  0  0  0  0  0  0  0
   58.1100   33.6150   46.2220 C   0  0  0  0  0  0  0  0  0  0  0  0
   58.0910   34.0160   44.8840 C   0  0  0  0  0  0  0  0  0  0  0  0
   58.0560   35.3350   44.5720 F   0  0  0  0  0  0  0  0  0  0  0  0
   58.1020   33.0570   43.8670 C   0  0  0  0  0  0  0  0  0  0  0  0
   58.1370   31.6960   44.1870 C   0  0  0  0  0  0  0  0  0  0  0  0
   57.4380   28.8420   45.3130 C   0  0  0  0  0  0  0  0  0  0  0  0
   56.5280   28.9960   44.4530 O   0  0  0  0  0  0  0  0  0  0  0  0
   54.1851   24.2363   46.4750 H   0  0  0  0  0  0  0  0  0  0  0  0
   53.4958   24.9554   44.9802 H   0  0  0  0  0  0  0  0  0  0  0  0
   55.1774   24.3238   44.9802 H   0  0  0  0  0  0  0  0  0  0  0  0
   56.2640   26.6813   47.3900 H   0  0  0  0  0  0  0  0  0  0  0  0
   56.3361   24.9570   46.8710 H   0  0  0  0  0  0  0  0  0  0  0  0
   58.0344   25.5811   45.5120 H   0  0  0  0  0  0  0  0  0  0  0  0
   56.7759   26.3830   44.5023 H   0  0  0  0  0  0  0  0  0  0  0  0
   59.4833   28.5278   49.3692 H   0  0  0  0  0  0  0  0  0  0  0  0
   61.2131   29.5283   50.8704 H   0  0  0  0  0  0  0  0  0  0  0  0
   60.9292   31.0336   46.1403 H   0  0  0  0  0  0  0  0  0  0  0  0
   58.1555   31.9424   47.6009 H   0  0  0  0  0  0  0  0  0  0  0  0
   58.0967   34.3699   47.0219 H   0  0  0  0  0  0  0  0  0  0  0  0
   58.0831   33.3733   42.8136 H   0  0  0  0  0  0  0  0  0  0  0  0
   58.1387   30.9446   43.3836 H   0  0  0  0  0  0  0  0  0  0  0  0
  1  2  1  0
  2  3  1  0
  3  4  1  0
  4  5  1  0
  5  6  1  0
  6  7  1  0
  7  8  1  0
  8  9  2  0
  9 10  1  0
 10 11  2  0
 11 12  1  0
 12 13  1  0
 12 14  2  0
  7 15  2  0
 15 16  1  0
 16 17  2  0
 17 18  1  0
 18 19  2  0
 19 20  1  0
 19 21  1  0
 21 22  2  0
 15 23  1  0
 23 24  2  0
 23  5  1  0
 14  8  1  0
 22 16  1  0
  1 25  1  0
  1 26  1  0
  1 27  1  0
  3 28  1  0
  3 29  1  0
  4 30  1  0
  4 31  1  0
  9 32  1  0
 10 33  1  0
 14 34  1  0
 17 35  1  0
 18 36  1  0
 21 37  1  0
 22 38  1  0
M  CHG  1   6  -1
M  END
>  <UniqueID>  (14) 
13

>  <SMILES>  (14) 
COCCn1[n-]c(-c2ccnc(Cl)c2)c(-c2ccc(F)cc2)c1=O

>  <Energy>  (14) 
80.83725268849004

>  <Genealogy>  (14) 
COCCn1[n-]c(-c2ccnc(Cl)c2)c(-c2ccc(F)cc2)c1=O (protonated)
COCCn1[n-]c(-c2ccnc(Cl)c2)c(-c2ccc(F)cc2)c1=O (3D coordinates assigned)
COCCn1[n-]c(-c2ccnc(Cl)c2)c(-c2ccc(F)cc2)c1=O (optimized conformer: 80.83725268849004 kcal/mol)

>  <smiles>  (14) 
COCCn1[nH]c(-c2ccnc(Cl)c2)c(-c2ccc(F)cc2)c1=O

>  <score_type>  (14) 
oracle

>  <origin>  (14) 
adg

>  <m_score__min__energy>  (14) 
-8.1400000000000006

>  <m_primary>  (14) 
energy

$$$$
14:0
     RDKit          3D

 28 30  0  0  0  0  0  0  0  0999 V2000
   58.3860   26.7000   44.4700 C   0  0  0  0  0  0  0  0  0  0  0  0
   58.6630   28.0630   44.9130 N   0  0  0  0  0  0  0  0  0  0  0  0
   59.8180   28.5100   45.4570 C   0  0  0  0  0  0  0  0  0  0  0  0
   59.7510   29.8790   45.6850 C   0  0  0  0  0  0  0  0  0  0  0  0
   58.4920   30.2640   45.2560 C   0  0  0  0  0  0  0  0  0  0  0  0
   57.8660   31.5180   45.1860 C   0  0  0  0  0  0  0  0  0  0  0  0
   58.4920   32.7610   45.6870 C   0  0  0  0  0  0  0  0  0  0  0  0
   58.8040   32.9150   47.0480 C   0  0  0  0  0  0  0  0  0  0  0  0
   59.3700   34.1100   47.4940 C   0  0  0  0  0  0  0  0  0  0  0  0
   59.6100   35.1440   46.5910 C   0  0  0  0  0  0  0  0  0  0  0  0
   59.2700   34.9700   45.2480 C   0  0  0  0  0  0  0  0  0  0  0  0
   58.7170   33.7990   44.8280 N   0  0  0  0  0  0  0  0  0  0  0  0
   56.6290   31.5760   44.6090 N   0  0  0  0  0  0  0  0  0  0  0  0
   55.9900   30.4670   44.1250 C   0  0  0  0  0  0  0  0  0  0  0  0
   56.5990   29.2050   44.2010 C   0  0  0  0  0  0  0  0  0  0  0  0
   57.8670   29.1410   44.7790 C   0  0  0  0  0  0  0  0  0  0  0  0
   58.2537   26.0492   45.3469 H   0  0  0  0  0  0  0  0  0  0  0  0
   57.4676   26.6907   43.8646 H   0  0  0  0  0  0  0  0  0  0  0  0
   59.2279   26.3330   43.8646 H   0  0  0  0  0  0  0  0  0  0  0  0
   60.6886   27.8781   45.6868 H   0  0  0  0  0  0  0  0  0  0  0  0
   60.5332   30.5215   46.1155 H   0  0  0  0  0  0  0  0  0  0  0  0
   58.6034   32.0988   47.7576 H   0  0  0  0  0  0  0  0  0  0  0  0
   59.6262   34.2356   48.5563 H   0  0  0  0  0  0  0  0  0  0  0  0
   60.0623   36.0868   46.9325 H   0  0  0  0  0  0  0  0  0  0  0  0
   59.4495   35.7814   44.5273 H   0  0  0  0  0  0  0  0  0  0  0  0
   58.4760   33.7000   43.8150 H   0  0  0  0  0  0  0  0  0  0  0  0
   54.9919   30.5654   43.6732 H   0  0  0  0  0  0  0  0  0  0  0  0
   56.0971   28.3032   43.8204 H   0  0  0  0  0  0  0  0  0  0  0  0
  1  2  1  0
  2  3  1  0
  3  4  2  0
  4  5  1  0
  5  6  2  0
  6  7  1  0
  7  8  2  0
  8  9  1  0
  9 10  2  0
 10 11  1  0
 11 12  2  0
  6 13  1  0
 13 14  2  0
 14 15  1  0
 15 16  2  0
 16  2  1  0
 16  5  1  0
 12  7  1  0
  1 17  1  0
  1 18  1  0
  1 19  1  0
  3 20  1  0
  4 21  1  0
  8 22  1  0
  9 23  1  0
 10 24  1  0
 11 25  1  0
 12 26  1  0
 14 27  1  0
 15 28  1  0
M  CHG  1  12   1
M  END
>  <UniqueID>  (15) 
14

>  <SMILES>  (15) 
Cn1ccc2c(-c3cccc[nH+]3)nccc21

>  <Energy>  (15) 
69.90914288999798

>  <Genealogy>  (15) 
Cn1ccc2c(-c3cccc[nH+]3)nccc21 (protonated)
Cn1ccc2c(-c3cccc[nH+]3)nccc21 (3D coordinates assigned)
Cn1ccc2c(-c3cccc[nH+]3)nccc21 (optimized conformer: 69.90914288999798 kcal/mol)

>  <smiles>  (15) 
Cn1ccc2c(-c3ccccn3)nccc21

>  <score_type>  (15) 
oracle

>  <origin>  (15) 
adg

>  <m_score__min__energy>  (15) 
-4.5599999999999996

>  <m_primary>  (15) 
energy

$$$$
15:0
     RDKit          3D

 60 62  0  0  0  0  0  0  0  0999 V2000
   60.7237   26.6463   49.6311 H   0  0  0  0  0  0  0  0  0  0  0  0
   60.4270   27.6710   49.3630 C   0  0  0  0  0  0  0  0  0  0  0  0
   60.1340   27.8880   48.0630 C   0  0  0  0  0  0  0  0  0  0  0  0
   60.5800   27.0180   47.1310 N   0  0  0  0  0  0  0  0  0  0  0  0
   60.1200   27.4820   45.9600 C   0  0  0  0  0  0  0  0  0  0  0  0
   60.2957   27.0166   44.9789 H   0  0  0  0  0  0  0  0  0  0  0  0
   59.3920   28.6340   46.1770 C   0  0  0  0  0  0  0  0  0  0  0  0
   58.7470   29.3600   45.2340 C   0  0  0  0  0  0  0  0  0  0  0  0
   59.2660   29.5051   44.2750 H   0  0  0  0  0  0  0  0  0  0  0  0
   57.3760   29.9920   45.3760 C   0  0  2  0  0  0  0  0  0  0  0  0
   57.2786   30.3706   46.4042 H   0  0  0  0  0  0  0  0  0  0  0  0
   56.2730   28.9740   45.2220 C   0  0  0  0  0  0  0  0  0  0  0  0
   55.1460   29.3390   44.7950 O   0  0  0  0  0  0  0  0  0  0  0  0
   56.4730   27.6360   45.5430 O   0  0  0  0  0  0  0  0  0  0  0  0
   57.2230   31.2340   44.4670 C   0  0  0  0  0  0  0  0  0  0  0  0
   57.7342   31.0409   43.5123 H   0  0  0  0  0  0  0  0  0  0  0  0
   56.1487   31.4130   44.3129 H   0  0  0  0  0  0  0  0  0  0  0  0
   57.8170   32.4700   45.0970 C   0  0  0  0  0  0  0  0  0  0  0  0
   58.5530   33.3780   44.3150 C   0  0  0  0  0  0  0  0  0  0  0  0
   58.6879   33.1903   43.2396 H   0  0  0  0  0  0  0  0  0  0  0  0
   59.1140   34.5180   44.8980 C   0  0  0  0  0  0  0  0  0  0  0  0
   59.6902   35.2233   44.2811 H   0  0  0  0  0  0  0  0  0  0  0  0
   58.9440   34.7630   46.2630 C   0  0  0  0  0  0  0  0  0  0  0  0
   59.3864   35.6605   46.7199 H   0  0  0  0  0  0  0  0  0  0  0  0
   58.2120   33.8680   47.0480 C   0  0  0  0  0  0  0  0  0  0  0  0
   58.0785   34.0619   48.1225 H   0  0  0  0  0  0  0  0  0  0  0  0
   57.6490   32.7260   46.4690 C   0  0  0  0  0  0  0  0  0  0  0  0
   57.0721   32.0250   47.0901 H   0  0  0  0  0  0  0  0  0  0  0  0
   59.4040   28.9090   47.5130 N   0  0  0  0  0  0  0  0  0  0  0  0
   58.9620   30.1740   48.1360 C   0  0  0  0  0  0  0  0  0  0  0  0
   58.1396   30.5868   47.5333 H   0  0  0  0  0  0  0  0  0  0  0  0
   58.6554   29.9306   49.1640 H   0  0  0  0  0  0  0  0  0  0  0  0
   60.0490   31.2260   48.2420 C   0  0  0  0  0  0  0  0  0  0  0  0
   60.9910   31.2970   47.1990 C   0  0  0  0  0  0  0  0  0  0  0  0
   60.9292   30.5846   46.3632 H   0  0  0  0  0  0  0  0  0  0  0  0
   62.0010   32.2570   47.2100 C   0  0  0  0  0  0  0  0  0  0  0  0
   62.7381   32.2895   46.3941 H   0  0  0  0  0  0  0  0  0  0  0  0
   62.0770   33.1760   48.2550 C   0  0  0  0  0  0  0  0  0  0  0  0
   62.8790   33.9288   48.2668 H   0  0  0  0  0  0  0  0  0  0  0  0
   61.1380   33.1430   49.2860 C   0  0  0  0  0  0  0  0  0  0  0  0
   61.2016   33.8752   50.1045 H   0  0  0  0  0  0  0  0  0  0  0  0
   60.1080   32.1800   49.2890 C   0  0  0  0  0  0  0  0  0  0  0  0
   59.1460   32.1380   50.3120 O   0  0  0  0  0  0  0  0  0  0  0  0
   58.9350   33.1350   51.3110 C   0  0  0  0  0  0  0  0  0  0  0  0
   59.8220   33.1901   51.9592 H   0  0  0  0  0  0  0  0  0  0  0  0
   58.7641   34.1019   50.8152 H   0  0  0  0  0  0  0  0  0  0  0  0
   57.7150   32.7970   52.1600 C   0  0  0  0  0  0  0  0  0  0  0  0
   57.9782   32.8699   53.2256 H   0  0  0  0  0  0  0  0  0  0  0  0
   56.9034   33.5041   51.9336 H   0  0  0  0  0  0  0  0  0  0  0  0
   57.3830   31.7730   51.9336 H   0  0  0  0  0  0  0  0  0  0  0  0
   60.3940   28.6720   50.4880 C   0  0  0  0  0  0  0  0  0  0  0  0
   59.6665   28.3352   51.2412 H   0  0  0  0  0  0  0  0  0  0  0  0
   60.1091   29.6469   50.0656 H   0  0  0  0  0  0  0  0  0  0  0  0
   61.7660   28.8310   51.1610 C   0  0  0  0  0  0  0  0  0  0  0  0
   62.4469   28.0658   50.7599 H   0  0  0  0  0  0  0  0  0  0  0  0
   61.6228   28.7149   52.2455 H   0  0  0  0  0  0  0  0  0  0  0  0
   62.3790   30.2100   50.9170 C   0  0  0  0  0  0  0  0  0  0  0  0
   62.5933   30.6920   51.8823 H   0  0  0  0  0  0  0  0  0  0  0  0
   63.3131   30.1003   50.3466 H   0  0  0  0  0  0  0  0  0  0  0  0
   61.6717   30.8300   50.3466 H   0  0  0  0  0  0  0  0  0  0  0  0
  1  2  1  0
  2  3  2  3
  3  4  1  0
  4  5  2  0
  5  6  1  0
  5  7  1  0
  7  8  2  0
  8  9  1  0
  8 10  1  0
 10 11  1  1
 10 12  1  0
 12 13  2  0
 12 14  1  0
 10 15  1  0
 15 16  1  0
 15 17  1  0
 15 18  1  0
 18 19  2  0
 19 20  1  0
 19 21  1  0
 21 22  1  0
 21 23  2  0
 23 24  1  0
 23 25  1  0
 25 26  1  0
 25 27  2  0
 27 28  1  0
  7 29  1  0
 29 30  1  0
 30 31  1  0
 30 32  1  0
 30 33  1  0
 33 34  2  0
 34 35  1  0
 34 36  1  0
 36 37  1  0
 36 38  2  0
 38 39  1  0
 38 40  1  0
 40 41  1  0
 40 42  2  0
 42 43  1  0
 43 44  1  0
 44 45  1  0
 44 46  1  0
 44 47  1  0
 47 48  1  0
 47 49  1  0
 47 50  1  0
  2 51  1  0
 51 52  1  0
 51 53  1  0
 51 54  1  0
 54 55  1  0
 54 56  1  0
 54 57  1  0
 57 58  1  0
 57 59  1  0
 57 60  1  0
 29  3  1  0
 42 33  1  0
 27 18  1  0
M  CHG  1  14  -1
M  END
>  <UniqueID>  (16) 
15

>  <SMILES>  (16) 
CCCC=c1nc/c(=C\[C@@H](Cc2ccccc2)C(=O)[O-])n1Cc1ccccc1OCC

>  <Energy>  (16) 
96.50835695029284

>  <Genealogy>  (16) 
CCCC=c1ncc(=CC(Cc2ccccc2)C(=O)[O-])n1Cc1ccccc1OCC (protonated)
CCCC=c1ncc(=C[C@@H](Cc2ccccc2)C(=O)[O-])n1Cc1ccccc1OCC (chirality)
CCCC=c1nc/c(=C\[C@@H](Cc2ccccc2)C(=O)[O-])n1Cc1ccccc1OCC (cis-trans isomerization)
CCCC=c1nc/c(=C\[C@@H](Cc2ccccc2)C(=O)[O-])n1Cc1ccccc1OCC (3D coordinates assigned)
CCCC=c1nc/c(=C\[C@@H](Cc2ccccc2)C(=O)[O-])n1Cc1ccccc1OCC (optimized conformer: 96.50835695029284 kcal/mol)

>  <smiles>  (16) 
CCCC=c1ncc(=CC(Cc2ccccc2)C(=O)O)n1Cc1ccccc1OCC

>  <score_type>  (16) 
oracle

>  <origin>  (16) 
adg

>  <m_score__min__energy>  (16) 
-12.210000000000001

>  <m_primary>  (16) 
energy

$$$$
16:0
     RDKit          3D

 50 53  0  0  1  0  0  0  0  0999 V2000
   58.0090   27.3500   43.4330 C   0  0  0  0  0  0  0  0  0  0  0  0
   58.1000   28.6010   44.1900 C   0  0  0  0  0  0  0  0  0  0  0  0
   57.5540   29.7750   43.7290 C   0  0  0  0  0  0  0  0  0  0  0  0
   57.6950   30.8960   44.5190 C   0  0  0  0  0  0  0  0  0  0  0  0
   57.1980   31.9870   44.1070 N   0  0  0  0  0  0  0  0  0  0  0  0
   57.4370   33.3060   44.6660 C   0  0  0  0  0  0  0  0  0  0  0  0
   57.0150   33.2860   46.1000 C   0  0  0  0  0  0  0  0  0  0  0  0
   57.8970   33.9780   47.0540 C   0  0  0  0  0  0  0  0  0  0  0  0
   59.3150   33.9010   46.7890 N   0  0  0  0  0  0  0  0  0  0  0  0
   60.0370   34.6020   47.7940 C   0  0  0  0  0  0  0  0  0  0  0  0
   61.3560   33.9740   48.0460 C   0  0  0  0  0  0  0  0  0  0  0  0
   61.9600   33.2130   47.0450 C   0  0  0  0  0  0  0  0  0  0  0  0
   63.1730   32.6000   47.2130 C   0  0  0  0  0  0  0  0  0  0  0  0
   63.8450   32.7300   48.4200 C   0  0  0  0  0  0  0  0  0  0  0  0
   63.2670   33.4800   49.4300 C   0  0  0  0  0  0  0  0  0  0  0  0
   62.0430   34.0870   49.2350 C   0  0  0  0  0  0  0  0  0  0  0  0
   59.5110   34.4950   45.4830 C   0  0  0  0  0  0  0  0  0  0  0  0
   58.9430   33.4990   44.4960 C   0  0  0  0  0  0  0  0  0  0  0  0
   58.3410   30.8480   45.6980 N   0  0  0  0  0  0  0  0  0  0  0  0
   58.8690   29.6910   46.1360 C   0  0  0  0  0  0  0  0  0  0  0  0
   59.5640   29.5990   47.3870 C   0  0  0  0  0  0  0  0  0  0  0  0
   60.2820   28.6670   48.0240 C   0  0  0  0  0  0  0  0  0  0  0  0
   60.8140   28.9100   49.2270 C   0  0  0  0  0  0  0  0  0  0  0  0
   60.5680   30.1910   49.7620 C   0  0  0  0  0  0  0  0  0  0  0  0
   59.5950   31.0350   48.5690 S   0  0  0  0  0  0  0  0  0  0  0  0
   58.7440   28.5950   45.3870 N   0  0  0  0  0  0  0  0  0  0  0  0
   57.9473   26.5024   44.1315 H   0  0  0  0  0  0  0  0  0  0  0  0
   57.1099   27.3693   42.7996 H   0  0  0  0  0  0  0  0  0  0  0  0
   58.9014   27.2390   42.7996 H   0  0  0  0  0  0  0  0  0  0  0  0
   57.0244   29.8186   42.7659 H   0  0  0  0  0  0  0  0  0  0  0  0
   56.8811   34.1263   44.1883 H   0  0  0  0  0  0  0  0  0  0  0  0
   56.0218   33.7547   46.1626 H   0  0  0  0  0  0  0  0  0  0  0  0
   57.0400   32.2269   46.3960 H   0  0  0  0  0  0  0  0  0  0  0  0
   57.6148   35.0412   47.0603 H   0  0  0  0  0  0  0  0  0  0  0  0
   57.7505   33.4625   48.0146 H   0  0  0  0  0  0  0  0  0  0  0  0
   60.1913   35.6405   47.4659 H   0  0  0  0  0  0  0  0  0  0  0  0
   59.4538   34.5712   48.7261 H   0  0  0  0  0  0  0  0  0  0  0  0
   61.4409   33.1008   46.0817 H   0  0  0  0  0  0  0  0  0  0  0  0
   63.6119   32.0082   46.3962 H   0  0  0  0  0  0  0  0  0  0  0  0
   64.8207   32.2452   48.5718 H   0  0  0  0  0  0  0  0  0  0  0  0
   63.7862   33.5927   50.3932 H   0  0  0  0  0  0  0  0  0  0  0  0
   61.6034   34.6779   50.0521 H   0  0  0  0  0  0  0  0  0  0  0  0
   58.9761   35.4536   45.4126 H   0  0  0  0  0  0  0  0  0  0  0  0
   60.5726   34.7048   45.2855 H   0  0  0  0  0  0  0  0  0  0  0  0
   59.1400   33.8606   43.4760 H   0  0  0  0  0  0  0  0  0  0  0  0
   59.4287   32.5294   44.6803 H   0  0  0  0  0  0  0  0  0  0  0  0
   58.4120   31.7310   46.2470 H   0  0  0  0  0  0  0  0  0  0  0  0
   60.4372   27.6860   47.5513 H   0  0  0  0  0  0  0  0  0  0  0  0
   61.4071   28.1565   49.7659 H   0  0  0  0  0  0  0  0  0  0  0  0
   60.9150   30.5820   50.7298 H   0  0  0  0  0  0  0  0  0  0  0  0
  1  2  1  0
  2  3  2  0
  3  4  1  0
  4  5  2  0
  5  6  1  0
  6  7  1  0
  7  8  1  0
  8  9  1  0
  9 10  1  0
 10 11  1  0
 11 12  2  0
 12 13  1  0
 13 14  2  0
 14 15  1  0
 15 16  2  0
  9 17  1  0
 17 18  1  0
  4 19  1  0
 19 20  1  0
 20 21  1  0
 21 22  2  0
 22 23  1  0
 23 24  2  0
 24 25  1  0
 20 26  2  0
 26  2  1  0
 18  6  1  0
 25 21  1  0
 16 11  1  0
  1 27  1  0
  1 28  1  0
  1 29  1  0
  3 30  1  0
  6 31  1  0
  7 32  1  0
  7 33  1  0
  8 34  1  0
  8 35  1  0
 10 36  1  0
 10 37  1  0
 12 38  1  0
 13 39  1  0
 14 40  1  0
 15 41  1  0
 16 42  1  0
 17 43  1  0
 17 44  1  0
 18 45  1  0
 18 46  1  0
 19 47  1  0
 22 48  1  0
 23 49  1  0
 24 50  1  0
M  END
>  <smiles>  (17) 
Cc1cc(=NC2CCN(Cc3ccccc3)CC2)[nH]c(-c2cccs2)n1

>  <score_type>  (17) 
oracle

>  <origin>  (17) 
adg

>  <m_score__min__energy>  (17) 
-8.5500000000000007

>  <m_primary>  (17) 
energy

$$$$
17:0
     RDKit          3D

 41 42  0  0  0  0  0  0  0  0999 V2000
   63.7270   33.1710   47.0670 C   0  0  0  0  0  0  0  0  0  0  0  0
   62.3610   33.7600   46.7100 C   0  0  0  0  0  0  0  0  0  0  0  0
   61.2980   33.4810   47.7820 C   0  0  0  0  0  0  0  0  0  0  0  0
   59.9400   34.1730   47.5310 C   0  0  0  0  0  0  0  0  0  0  0  0
   59.0840   33.4390   46.5020 C   0  0  0  0  0  0  0  0  0  0  0  0
   58.8650   34.0110   45.2180 C   0  0  0  0  0  0  0  0  0  0  0  0
   59.2800   35.4150   44.8710 C   0  0  0  0  0  0  0  0  0  0  0  0
   58.2000   33.3070   44.2650 N   0  0  0  0  0  0  0  0  0  0  0  0
   57.7120   32.0640   44.4850 C   0  0  0  0  0  0  0  0  0  0  0  0
   57.0530   31.3750   43.4640 C   0  0  0  0  0  0  0  0  0  0  0  0
   56.5340   30.1030   43.7070 C   0  0  0  0  0  0  0  0  0  0  0  0
   56.6780   29.5340   44.9750 C   0  0  0  0  0  0  0  0  0  0  0  0
   56.1570   28.2600   45.2200 O   0  0  0  0  0  0  0  0  0  0  0  0
   56.9670   27.1630   45.6290 C   0  0  0  0  0  0  0  0  0  0  0  0
   58.2260   27.1140   44.7780 C   0  0  0  0  0  0  0  0  0  0  0  0
   57.3220   30.2250   45.9570 N   0  0  0  0  0  0  0  0  0  0  0  0
   57.8420   31.4690   45.7520 C   0  0  0  0  0  0  0  0  0  0  0  0
   58.5050   32.1660   46.7850 C   0  0  0  0  0  0  0  0  0  0  0  0
   58.5470   31.5750   48.1800 C   0  0  0  0  0  0  0  0  0  0  0  0
   63.8322   33.1257   48.1610 H   0  0  0  0  0  0  0  0  0  0  0  0
   63.8099   32.1572   46.6483 H   0  0  0  0  0  0  0  0  0  0  0  0
   64.5211   33.8067   46.6483 H   0  0  0  0  0  0  0  0  0  0  0  0
   62.4665   34.8487   46.5938 H   0  0  0  0  0  0  0  0  0  0  0  0
   62.0263   33.2823   45.7774 H   0  0  0  0  0  0  0  0  0  0  0  0
   61.1281   32.3950   47.8232 H   0  0  0  0  0  0  0  0  0  0  0  0
   61.6889   33.8906   48.7251 H   0  0  0  0  0  0  0  0  0  0  0  0
   59.3871   34.2173   48.4809 H   0  0  0  0  0  0  0  0  0  0  0  0
   60.1482   35.1772   47.1332 H   0  0  0  0  0  0  0  0  0  0  0  0
   59.4489   35.9865   45.7956 H   0  0  0  0  0  0  0  0  0  0  0  0
   60.2085   35.3879   44.2819 H   0  0  0  0  0  0  0  0  0  0  0  0
   58.4859   35.8971   44.2819 H   0  0  0  0  0  0  0  0  0  0  0  0
   56.9435   31.8344   42.4705 H   0  0  0  0  0  0  0  0  0  0  0  0
   56.0161   29.5530   42.9075 H   0  0  0  0  0  0  0  0  0  0  0  0
   57.2443   27.2867   46.6863 H   0  0  0  0  0  0  0  0  0  0  0  0
   56.4042   26.2263   45.5033 H   0  0  0  0  0  0  0  0  0  0  0  0
   59.1097   27.0796   45.4322 H   0  0  0  0  0  0  0  0  0  0  0  0
   58.2047   26.2160   44.1431 H   0  0  0  0  0  0  0  0  0  0  0  0
   58.2745   28.0109   44.1431 H   0  0  0  0  0  0  0  0  0  0  0  0
   58.4895   32.3842   48.9229 H   0  0  0  0  0  0  0  0  0  0  0  0
   57.6951   30.8923   48.3148 H   0  0  0  0  0  0  0  0  0  0  0  0
   59.4869   31.0196   48.3148 H   0  0  0  0  0  0  0  0  0  0  0  0
  1  2  1  0
  2  3  1  0
  3  4  1  0
  4  5  1  0
  5  6  2  0
  6  7  1  0
  6  8  1  0
  8  9  2  0
  9 10  1  0
 10 11  2  0
 11 12  1  0
 12 13  1  0
 13 14  1  0
 14 15  1  0
 12 16  2  0
 16 17  1  0
 17 18  2  0
 18 19  1  0
 18  5  1  0
 17  9  1  0
  1 20  1  0
  1 21  1  0
  1 22  1  0
  2 23  1  0
  2 24  1  0
  3 25  1  0
  3 26  1  0
  4 27  1  0
  4 28  1  0
  7 29  1  0
  7 30  1  0
  7 31  1  0
 10 32  1  0
 11 33  1  0
 14 34  1  0
 14 35  1  0
 15 36  1  0
 15 37  1  0
 15 38  1  0
 19 39  1  0
 19 40  1  0
 19 41  1  0
M  END
>  <UniqueID>  (18) 
16

>  <SMILES>  (18) 
CCCCc1c(C)nc2ccc(OCC)nc2c1C

>  <Energy>  (18) 
39.27680915862353

>  <Genealogy>  (18) 
CCCCc1c(C)nc2ccc(OCC)nc2c1C (3D coordinates assigned)
CCCCc1c(C)nc2ccc(OCC)nc2c1C (optimized conformer: 39.27680915862353 kcal/mol)

>  <smiles>  (18) 
CCCCc1c(C)nc2ccc(OCC)nc2c1C

>  <score_type>  (18) 
oracle

>  <origin>  (18) 
adg

>  <m_score__min__energy>  (18) 
-7.0300000000000002

>  <m_primary>  (18) 
energy

$$$$
18:0
     RDKit          3D

 75 78  0  0  0  0  0  0  0  0999 V2000
   56.3070   22.5750   42.6910 C   0  0  0  0  0  0  0  0  0  0  0  0
   57.0010   23.4980   43.6900 C   0  0  0  0  0  0  0  0  0  0  0  0
   58.1460   22.8110   44.4460 C   0  0  0  0  0  0  0  0  0  0  0  0
   58.2230   23.2630   45.7990 O   0  0  0  0  0  0  0  0  0  0  0  0
   58.5820   24.5510   46.2320 C   0  0  0  0  0  0  0  0  0  0  0  0
   59.8910   25.0630   46.1270 C   0  0  0  0  0  0  0  0  0  0  0  0
   60.1840   26.3510   46.5850 C   0  0  0  0  0  0  0  0  0  0  0  0
   59.1830   27.1410   47.1640 C   0  0  0  0  0  0  0  0  0  0  0  0
   59.4910   28.5130   47.6280 C   0  0  0  0  0  0  0  0  0  0  0  0
   59.0800   28.8550   48.9140 C   0  0  0  0  0  0  0  0  0  0  0  0
   59.3860   30.1100   49.4170 C   0  0  0  0  0  0  0  0  0  0  0  0
   59.0030   30.4050   50.5830 O   0  0  0  0  0  0  0  0  0  0  0  0
   60.1000   31.0010   48.6620 N   0  0  0  0  0  0  0  0  0  0  0  0
   60.4230   32.3400   49.2000 C   0  0  0  0  0  0  0  0  0  0  0  0
   61.9060   32.6010   49.1190 C   0  0  0  0  0  0  0  0  0  0  0  0
   62.4090   33.5860   48.2520 C   0  0  0  0  0  0  0  0  0  0  0  0
   63.7830   33.8450   48.2020 C   0  0  0  0  0  0  0  0  0  0  0  0
   64.6610   33.1330   49.0240 C   0  0  0  0  0  0  0  0  0  0  0  0
   64.1690   32.1500   49.8860 C   0  0  0  0  0  0  0  0  0  0  0  0
   62.7980   31.8810   49.9310 C   0  0  0  0  0  0  0  0  0  0  0  0
   60.4930   30.6580   47.3900 C   0  0  0  0  0  0  0  0  0  0  0  0
   61.1670   31.4810   46.7070 O   0  0  0  0  0  0  0  0  0  0  0  0
   60.1660   29.4310   46.8540 N   0  0  0  0  0  0  0  0  0  0  0  0
   60.5600   29.1300   45.4550 C   0  0  0  0  0  0  0  0  0  0  0  0
   59.3900   29.2590   44.4620 C   0  0  0  0  0  0  0  0  0  0  0  0
   58.0070   29.3870   45.1370 C   0  0  0  0  0  0  0  0  0  0  0  0
   57.3020   30.5940   44.6770 N   0  0  0  0  0  0  0  0  0  0  0  0
   56.0180   30.4850   43.9700 C   0  0  0  0  0  0  0  0  0  0  0  0
   56.1740   29.7420   42.6480 C   0  0  0  0  0  0  0  0  0  0  0  0
   57.7790   31.8910   45.0820 C   0  0  0  0  0  0  0  0  0  0  0  0
   57.8290   32.2050   46.4480 C   0  0  0  0  0  0  0  0  0  0  0  0
   58.2900   33.4520   46.8730 C   0  0  0  0  0  0  0  0  0  0  0  0
   58.7080   34.3980   45.9380 C   0  0  0  0  0  0  0  0  0  0  0  0
   58.6590   34.1020   44.5740 C   0  0  0  0  0  0  0  0  0  0  0  0
   58.1810   32.8580   44.1290 C   0  0  0  0  0  0  0  0  0  0  0  0
   58.1450   32.5840   42.6510 C   0  0  0  0  0  0  0  0  0  0  0  0
   57.8730   26.6470   47.2400 C   0  0  0  0  0  0  0  0  0  0  0  0
   57.5800   25.3600   46.7820 C   0  0  0  0  0  0  0  0  0  0  0  0
   55.7326   21.8110   43.2354 H   0  0  0  0  0  0  0  0  0  0  0  0
   55.6264   23.1643   42.0589 H   0  0  0  0  0  0  0  0  0  0  0  0
   57.0621   22.0848   42.0589 H   0  0  0  0  0  0  0  0  0  0  0  0
   57.4096   24.3613   43.1443 H   0  0  0  0  0  0  0  0  0  0  0  0
   56.2501   23.8008   44.4347 H   0  0  0  0  0  0  0  0  0  0  0  0
   57.9767   21.7241   44.4409 H   0  0  0  0  0  0  0  0  0  0  0  0
   59.0918   23.0613   43.9432 H   0  0  0  0  0  0  0  0  0  0  0  0
   60.6859   24.4461   45.6825 H   0  0  0  0  0  0  0  0  0  0  0  0
   61.2062   26.7460   46.4901 H   0  0  0  0  0  0  0  0  0  0  0  0
   58.5169   28.1348   49.5258 H   0  0  0  0  0  0  0  0  0  0  0  0
   59.8891   33.1032   48.6147 H   0  0  0  0  0  0  0  0  0  0  0  0
   60.1125   32.3829   50.2544 H   0  0  0  0  0  0  0  0  0  0  0  0
   61.7202   34.1552   47.6105 H   0  0  0  0  0  0  0  0  0  0  0  0
   64.1729   34.6102   47.5147 H   0  0  0  0  0  0  0  0  0  0  0  0
   65.7396   33.3467   48.9921 H   0  0  0  0  0  0  0  0  0  0  0  0
   64.8609   31.5872   50.5298 H   0  0  0  0  0  0  0  0  0  0  0  0
   62.4155   31.1012   50.6060 H   0  0  0  0  0  0  0  0  0  0  0  0
   61.3535   29.8304   45.1554 H   0  0  0  0  0  0  0  0  0  0  0  0
   60.9037   28.0855   45.4263 H   0  0  0  0  0  0  0  0  0  0  0  0
   59.5576   30.1532   43.8437 H   0  0  0  0  0  0  0  0  0  0  0  0
   59.3711   28.3327   43.8690 H   0  0  0  0  0  0  0  0  0  0  0  0
   57.4030   28.5018   44.8889 H   0  0  0  0  0  0  0  0  0  0  0  0
   58.1549   29.4622   46.2244 H   0  0  0  0  0  0  0  0  0  0  0  0
   55.3045   29.9397   44.6053 H   0  0  0  0  0  0  0  0  0  0  0  0
   55.6525   31.5002   43.7563 H   0  0  0  0  0  0  0  0  0  0  0  0
   56.3963   28.6831   42.8465 H   0  0  0  0  0  0  0  0  0  0  0  0
   55.2401   29.8188   42.0718 H   0  0  0  0  0  0  0  0  0  0  0  0
   56.9981   30.1879   42.0718 H   0  0  0  0  0  0  0  0  0  0  0  0
   57.5022   31.4623   47.1907 H   0  0  0  0  0  0  0  0  0  0  0  0
   58.3236   33.6886   47.9467 H   0  0  0  0  0  0  0  0  0  0  0  0
   59.0766   35.3781   46.2748 H   0  0  0  0  0  0  0  0  0  0  0  0
   58.9977   34.8495   43.8415 H   0  0  0  0  0  0  0  0  0  0  0  0
   58.0034   31.5064   42.4812 H   0  0  0  0  0  0  0  0  0  0  0  0
   57.3121   33.1395   42.1953 H   0  0  0  0  0  0  0  0  0  0  0  0
   59.0931   32.9056   42.1953 H   0  0  0  0  0  0  0  0  0  0  0  0
   57.0738   27.2744   47.6614 H   0  0  0  0  0  0  0  0  0  0  0  0
   56.5510   24.9780   46.8542 H   0  0  0  0  0  0  0  0  0  0  0  0
  1  2  1  0
  2  3  1  0
  3  4  1  0
  4  5  1  0
  5  6  2  0
  6  7  1  0
  7  8  2  0
  8  9  1  0
  9 10  2  0
 10 11  1  0
 11 12  2  0
 11 13  1  0
 13 14  1  0
 14 15  1  0
 15 16  2  0
 16 17  1  0
 17 18  2  0
 18 19  1  0
 19 20  2  0
 13 21  1  0
 21 22  2  0
 21 23  1  0
 23 24  1  0
 24 25  1  0
 25 26  1  0
 26 27  1  0
 27 28  1  0
 28 29  1  0
 27 30  1  0
 30 31  2  0
 31 32  1  0
 32 33  2  0
 33 34  1  0
 34 35  2  0
 35 36  1  0
  8 37  1  0
 37 38  2  0
 38  5  1  0
 23  9  1  0
 35 30  1  0
 20 15  1  0
  1 39  1  0
  1 40  1  0
  1 41  1  0
  2 42  1  0
  2 43  1  0
  3 44  1  0
  3 45  1  0
  6 46  1  0
  7 47  1  0
 10 48  1  0
 14 49  1  0
 14 50  1  0
 16 51  1  0
 17 52  1  0
 18 53  1  0
 19 54  1  0
 20 55  1  0
 24 56  1  0
 24 57  1  0
 25 58  1  0
 25 59  1  0
 26 60  1  0
 26 61  1  0
 28 62  1  0
 28 63  1  0
 29 64  1  0
 29 65  1  0
 29 66  1  0
 31 67  1  0
 32 68  1  0
 33 69  1  0
 34 70  1  0
 36 71  1  0
 36 72  1  0
 36 73  1  0
 37 74  1  0
 38 75  1  0
M  END
>  <UniqueID>  (19) 
17

>  <SMILES>  (19) 
CCCOc1ccc(-c2cc(=O)n(Cc3ccccc3)c(=O)n2CCCN(CC)c2ccccc2C)cc1

>  <Energy>  (19) 
86.07152519627694

>  <Genealogy>  (19) 
CCCOc1ccc(-c2cc(=O)n(Cc3ccccc3)c(=O)n2CCCN(CC)c2ccccc2C)cc1 (3D coordinates assigned)
CCCOc1ccc(-c2cc(=O)n(Cc3ccccc3)c(=O)n2CCCN(CC)c2ccccc2C)cc1 (optimized conformer: 86.07152519627694 kcal/mol)

>  <smiles>  (19) 
CCCOc1ccc(-c2cc(=O)n(Cc3ccccc3)c(=O)n2CCCN(CC)c2ccccc2C)cc1

>  <score_type>  (19) 
oracle

>  <origin>  (19) 
adg

>  <m_score__min__energy>  (19) 
-9.1400000000000006

>  <m_primary>  (19) 
energy

$$$$
19:0
     RDKit          3D

 50 52  0  0  0  0  0  0  0  0999 V2000
   63.2500   31.6510   47.1300 C   0  0  0  0  0  0  0  0  0  0  0  0
   63.9310   32.4370   48.1750 N   0  0  0  0  0  0  0  0  0  0  0  0
   63.5560   31.9150   49.4990 C   0  0  0  0  0  0  0  0  0  0  0  0
   63.5830   33.8720   48.0760 C   0  0  0  0  0  0  0  0  0  0  0  0
   62.9870   34.3800   49.3950 C   0  0  0  0  0  0  0  0  0  0  0  0
   61.5550   34.6470   49.2480 N   0  0  0  0  0  0  0  0  0  0  0  0
   60.7160   34.1000   48.2100 C   0  0  0  0  0  0  0  0  0  0  0  0
   60.3060   34.9340   47.1610 C   0  0  0  0  0  0  0  0  0  0  0  0
   59.4940   34.4430   46.1410 C   0  0  0  0  0  0  0  0  0  0  0  0
   59.0800   33.1100   46.1560 C   0  0  0  0  0  0  0  0  0  0  0  0
   58.1010   32.5220   44.9200 S   0  0  0  0  0  0  0  0  0  0  0  0
   57.7210   30.8980   45.1290 C   0  0  0  0  0  0  0  0  0  0  0  0
   56.9130   30.2440   44.1920 C   0  0  0  0  0  0  0  0  0  0  0  0
   56.6020   28.8960   44.3610 C   0  0  0  0  0  0  0  0  0  0  0  0
   57.0950   28.1950   45.4660 C   0  0  0  0  0  0  0  0  0  0  0  0
   56.7290   26.4850   45.6850 S   0  0  0  0  0  0  0  0  0  0  0  0
   57.0950   25.7450   44.4300 O   0  0  0  0  0  0  0  0  0  0  0  0
   57.5240   25.9190   46.8300 O   0  0  0  0  0  0  0  0  0  0  0  0
   55.0340   26.2800   45.9970 N   0  0  0  0  0  0  0  0  0  0  0  0
   54.5840   24.9940   45.4670 C   0  0  0  0  0  0  0  0  0  0  0  0
   55.1110   23.8620   46.3460 C   0  0  0  0  0  0  0  0  0  0  0  0
   55.6130   24.3680   47.5550 O   0  0  0  0  0  0  0  0  0  0  0  0
   57.9030   28.8520   46.4050 C   0  0  0  0  0  0  0  0  0  0  0  0
   58.2350   30.2200   46.2580 C   0  0  0  0  0  0  0  0  0  0  0  0
   59.0630   30.8580   47.2360 C   0  0  0  0  0  0  0  0  0  0  0  0
   59.4680   30.1570   48.2080 O   0  0  0  0  0  0  0  0  0  0  0  0
   59.4680   32.2320   47.1930 C   0  0  0  0  0  0  0  0  0  0  0  0
   60.2890   32.7550   48.2210 C   0  0  0  0  0  0  0  0  0  0  0  0
   62.5993   30.8999   47.6017 H   0  0  0  0  0  0  0  0  0  0  0  0
   62.6425   32.3214   46.5043 H   0  0  0  0  0  0  0  0  0  0  0  0
   64.0001   31.1452   46.5043 H   0  0  0  0  0  0  0  0  0  0  0  0
   64.0069   32.5427   50.2818 H   0  0  0  0  0  0  0  0  0  0  0  0
   62.4610   31.9301   49.6024 H   0  0  0  0  0  0  0  0  0  0  0  0
   63.9198   30.8821   49.6024 H   0  0  0  0  0  0  0  0  0  0  0  0
   64.4911   34.4482   47.8449 H   0  0  0  0  0  0  0  0  0  0  0  0
   62.8356   33.9995   47.2790 H   0  0  0  0  0  0  0  0  0  0  0  0
   63.1339   33.6180   50.1746 H   0  0  0  0  0  0  0  0  0  0  0  0
   63.4939   35.3154   49.6746 H   0  0  0  0  0  0  0  0  0  0  0  0
   61.1120   35.2590   49.9710 H   0  0  0  0  0  0  0  0  0  0  0  0
   60.6282   35.9856   47.1429 H   0  0  0  0  0  0  0  0  0  0  0  0
   59.1786   35.1068   45.3225 H   0  0  0  0  0  0  0  0  0  0  0  0
   56.5235   30.7937   43.3224 H   0  0  0  0  0  0  0  0  0  0  0  0
   55.9675   28.3825   43.6237 H   0  0  0  0  0  0  0  0  0  0  0  0
   53.4844   24.9674   45.4568 H   0  0  0  0  0  0  0  0  0  0  0  0
   54.9661   24.8682   44.4432 H   0  0  0  0  0  0  0  0  0  0  0  0
   54.2921   23.1596   46.5604 H   0  0  0  0  0  0  0  0  0  0  0  0
   55.9237   23.3476   45.8122 H   0  0  0  0  0  0  0  0  0  0  0  0
   55.5470   25.3580   47.4980 H   0  0  0  0  0  0  0  0  0  0  0  0
   58.2860   28.2938   47.2720 H   0  0  0  0  0  0  0  0  0  0  0  0
   60.6010   32.0984   49.0466 H   0  0  0  0  0  0  0  0  0  0  0  0
  1  2  1  0
  2  3  1  0
  2  4  1  0
  4  5  1  0
  5  6  1  0
  6  7  1  0
  7  8  2  0
  8  9  1  0
  9 10  2  0
 10 11  1  0
 11 12  1  0
 12 13  2  0
 13 14  1  0
 14 15  2  0
 15 16  1  0
 16 17  2  0
 16 18  2  0
 16 19  1  0
 19 20  1  0
 20 21  1  0
 21 22  1  0
 15 23  1  0
 23 24  2  0
 24 25  1  0
 25 26  2  0
 25 27  1  0
 27 28  2  0
 28  7  1  0
 27 10  1  0
 24 12  1  0
  1 29  1  0
  1 30  1  0
  1 31  1  0
  3 32  1  0
  3 33  1  0
  3 34  1  0
  4 35  1  0
  4 36  1  0
  5 37  1  0
  5 38  1  0
  6 39  1  0
  8 40  1  0
  9 41  1  0
 13 42  1  0
 14 43  1  0
 20 44  1  0
 20 45  1  0
 21 46  1  0
 21 47  1  0
 22 48  1  0
 23 49  1  0
 28 50  1  0
M  CHG  1  19  -1
M  END
>  <UniqueID>  (20) 
18

>  <SMILES>  (20) 
CN(C)CCNc1ccc2sc3ccc(S(=O)(=O)[N-]CCO)cc3c(=O)c2c1

>  <Energy>  (20) 
58.21459414954801

>  <Genealogy>  (20) 
CN(C)CCNc1ccc2sc3ccc(S(=O)(=O)[N-]CCO)cc3c(=O)c2c1 (protonated)
CN(C)CCNc1ccc2sc3ccc(S(=O)(=O)[N-]CCO)cc3c(=O)c2c1 (3D coordinates assigned)
CN(C)CCNc1ccc2sc3ccc(S(=O)(=O)[N-]CCO)cc3c(=O)c2c1 (optimized conformer: 58.21459414954801 kcal/mol)

>  <smiles>  (20) 
CN(C)CCNc1ccc2sc3ccc(S(=O)(=O)NCCO)cc3c(=O)c2c1

>  <score_type>  (20) 
oracle

>  <origin>  (20) 
adg

>  <m_score__min__energy>  (20) 
-10.68

>  <m_primary>  (20) 
energy

$$$$
20:0
     RDKit          3D

 42 43  0  0  0  0  0  0  0  0999 V2000
   57.7621   28.9632   48.5169 H   0  0  0  0  0  0  0  0  0  0  0  0
   58.1700   28.6710   47.5380 C   0  0  0  0  0  0  0  0  0  0  0  0
   59.0350   27.7010   47.4900 N   0  0  0  0  0  0  0  0  0  0  0  0
   59.6420   27.1740   46.2690 C   0  0  0  0  0  0  0  0  0  0  0  0
   60.7343   27.1319   46.3920 H   0  0  0  0  0  0  0  0  0  0  0  0
   59.3915   27.8316   45.4235 H   0  0  0  0  0  0  0  0  0  0  0  0
   59.1070   25.7700   45.9950 C   0  0  0  0  0  0  0  0  0  0  0  0
   58.3649   25.5070   46.7632 H   0  0  0  0  0  0  0  0  0  0  0  0
   59.9422   25.0547   46.0214 H   0  0  0  0  0  0  0  0  0  0  0  0
   58.4680   25.7210   44.6590 N   0  0  0  0  0  0  0  0  0  0  0  0
   58.5110   27.0440   43.9950 C   0  0  0  0  0  0  0  0  0  0  0  0
   59.5347   27.4432   44.0469 H   0  0  0  0  0  0  0  0  0  0  0  0
   57.8152   27.7248   44.5072 H   0  0  0  0  0  0  0  0  0  0  0  0
   58.0940   26.9150   42.5320 C   0  0  0  0  0  0  0  0  0  0  0  0
   57.0444   26.5903   42.4772 H   0  0  0  0  0  0  0  0  0  0  0  0
   58.2031   27.8889   42.0324 H   0  0  0  0  0  0  0  0  0  0  0  0
   58.7340   26.1728   42.0324 H   0  0  0  0  0  0  0  0  0  0  0  0
   57.0800   25.2110   44.7470 C   0  0  0  0  0  0  0  0  0  0  0  0
   56.8530   24.9536   45.7921 H   0  0  0  0  0  0  0  0  0  0  0  0
   56.3882   25.9897   44.3934 H   0  0  0  0  0  0  0  0  0  0  0  0
   56.9190   23.9680   43.8750 C   0  0  0  0  0  0  0  0  0  0  0  0
   56.8043   23.0821   44.5169 H   0  0  0  0  0  0  0  0  0  0  0  0
   56.0277   24.0786   43.2399 H   0  0  0  0  0  0  0  0  0  0  0  0
   57.8091   23.8478   43.2399 H   0  0  0  0  0  0  0  0  0  0  0  0
   57.7120   29.3960   46.3400 C   0  0  0  0  0  0  0  0  0  0  0  0
   56.6890   29.0120   45.4860 C   0  0  0  0  0  0  0  0  0  0  0  0
   55.9480   27.8410   45.6100 O   0  0  0  0  0  0  0  0  0  0  0  0
   56.4970   29.9290   44.5090 N   0  0  0  0  0  0  0  0  0  0  0  0
   55.4730   29.8980   43.4670 C   0  0  0  0  0  0  0  0  0  0  0  0
   54.4769   29.8678   43.9326 H   0  0  0  0  0  0  0  0  0  0  0  0
   55.5585   30.7991   42.8420 H   0  0  0  0  0  0  0  0  0  0  0  0
   55.6128   29.0037   42.8420 H   0  0  0  0  0  0  0  0  0  0  0  0
   57.3730   30.9230   44.7650 C   0  0  0  0  0  0  0  0  0  0  0  0
   57.5250   32.1310   44.0780 C   0  0  0  0  0  0  0  0  0  0  0  0
   56.9186   32.3571   43.1885 H   0  0  0  0  0  0  0  0  0  0  0  0
   58.4760   33.0480   44.5580 C   0  0  0  0  0  0  0  0  0  0  0  0
   58.6291   34.0011   44.0306 H   0  0  0  0  0  0  0  0  0  0  0  0
   59.2370   32.7560   45.7120 C   0  0  0  0  0  0  0  0  0  0  0  0
   60.5070   34.0250   46.3600 Br  0  0  0  0  0  0  0  0  0  0  0  0
   59.0560   31.5380   46.3930 C   0  0  0  0  0  0  0  0  0  0  0  0
   59.6285   31.3071   47.3035 H   0  0  0  0  0  0  0  0  0  0  0  0
   58.1280   30.6320   45.8780 C   0  0  0  0  0  0  0  0  0  0  0  0
  1  2  1  0
  2  3  2  0
  3  4  1  0
  4  5  1  0
  4  6  1  0
  4  7  1  0
  7  8  1  0
  7  9  1  0
  7 10  1  0
 10 11  1  0
 11 12  1  0
 11 13  1  0
 11 14  1  0
 14 15  1  0
 14 16  1  0
 14 17  1  0
 10 18  1  0
 18 19  1  0
 18 20  1  0
 18 21  1  0
 21 22  1  0
 21 23  1  0
 21 24  1  0
  2 25  1  0
 25 26  2  0
 26 27  1  0
 26 28  1  0
 28 29  1  0
 29 30  1  0
 29 31  1  0
 29 32  1  0
 28 33  1  0
 33 34  2  0
 34 35  1  0
 34 36  1  0
 36 37  1  0
 36 38  2  0
 38 39  1  0
 38 40  1  0
 40 41  1  0
 40 42  2  0
 42 25  1  0
 42 33  1  0
M  CHG  1  27  -1
M  END
>  <UniqueID>  (21) 
19

>  <SMILES>  (21) 
CCN(CC)CC/N=C\c1c([O-])n(C)c2ccc(Br)cc12

>  <Energy>  (21) 
78.66956301246493

>  <Genealogy>  (21) 
CCN(CC)CCN=Cc1c([O-])n(C)c2ccc(Br)cc12 (protonated)
CCN(CC)CC/N=C\c1c([O-])n(C)c2ccc(Br)cc12 (cis-trans isomerization)
CCN(CC)CC/N=C\c1c([O-])n(C)c2ccc(Br)cc12 (3D coordinates assigned)
CCN(CC)CC/N=C\c1c([O-])n(C)c2ccc(Br)cc12 (optimized conformer: 78.66956301246493 kcal/mol)

>  <smiles>  (21) 
CCN(CC)CCN=Cc1c(O)n(C)c2ccc(Br)cc12

>  <score_type>  (21) 
oracle

>  <origin>  (21) 
adg

>  <m_score__min__energy>  (21) 
-9.3599999999999994

>  <m_primary>  (21) 
energy

$$$$
21:0
     RDKit          3D

 42 44  0  0  0  0  0  0  0  0999 V2000
   55.3373   30.0489   43.4685 H   0  0  0  0  0  0  0  0  0  0  0  0
   56.1420   29.7230   44.1440 C   0  0  0  0  0  0  0  0  0  0  0  0
   55.9940   28.5910   44.8720 N   0  0  0  0  0  0  0  0  0  0  0  0
   56.9890   28.1040   45.6560 C   0  0  0  0  0  0  0  0  0  0  0  0
   56.7920   26.8960   46.3260 C   0  0  0  0  0  0  0  0  0  0  0  0
   55.8112   26.4009   46.2728 H   0  0  0  0  0  0  0  0  0  0  0  0
   57.8210   26.3060   47.0630 C   0  0  0  0  0  0  0  0  0  0  0  0
   57.5030   25.1260   47.7600 O   0  0  0  0  0  0  0  0  0  0  0  0
   56.6680   24.0710   47.2970 C   0  0  0  0  0  0  0  0  0  0  0  0
   56.2434   23.5345   48.1583 H   0  0  0  0  0  0  0  0  0  0  0  0
   55.8533   24.4888   46.6874 H   0  0  0  0  0  0  0  0  0  0  0  0
   57.2618   23.3740   46.6874 H   0  0  0  0  0  0  0  0  0  0  0  0
   59.1030   26.9040   47.0550 C   0  0  0  0  0  0  0  0  0  0  0  0
   60.1430   26.3430   47.8050 O   0  0  0  0  0  0  0  0  0  0  0  0
   60.7570   27.0160   48.9000 C   0  0  0  0  0  0  0  0  0  0  0  0
   60.3777   26.6003   49.8452 H   0  0  0  0  0  0  0  0  0  0  0  0
   61.8472   26.8784   48.8502 H   0  0  0  0  0  0  0  0  0  0  0  0
   60.5202   28.0891   48.8502 H   0  0  0  0  0  0  0  0  0  0  0  0
   59.3270   28.0660   46.2800 C   0  0  0  0  0  0  0  0  0  0  0  0
   60.6310   28.4540   45.9480 O   0  0  0  0  0  0  0  0  0  0  0  0
   61.0760   28.5990   44.6040 C   0  0  0  0  0  0  0  0  0  0  0  0
   62.1219   28.9398   44.5988 H   0  0  0  0  0  0  0  0  0  0  0  0
   61.0033   27.6307   44.0872 H   0  0  0  0  0  0  0  0  0  0  0  0
   60.4468   29.3386   44.0872 H   0  0  0  0  0  0  0  0  0  0  0  0
   58.2280   28.7810   45.7420 C   0  0  0  0  0  0  0  0  0  0  0  0
   58.3270   30.0760   45.1410 C   0  0  0  0  0  0  0  0  0  0  0  0
   59.2460   30.9630   45.4410 N   0  0  0  0  0  0  0  0  0  0  0  0
   59.3020   31.8930   46.5340 C   0  0  0  0  0  0  0  0  0  0  0  0
   59.6600   33.2230   46.2790 C   0  0  0  0  0  0  0  0  0  0  0  0
   59.9177   33.5346   45.2560 H   0  0  0  0  0  0  0  0  0  0  0  0
   59.6910   34.1560   47.3200 C   0  0  0  0  0  0  0  0  0  0  0  0
   59.9944   35.1939   47.1182 H   0  0  0  0  0  0  0  0  0  0  0  0
   59.3370   33.7720   48.6170 C   0  0  0  0  0  0  0  0  0  0  0  0
   59.3713   34.5052   49.4363 H   0  0  0  0  0  0  0  0  0  0  0  0
   58.9390   32.4550   48.8730 C   0  0  0  0  0  0  0  0  0  0  0  0
   58.5530   32.0640   50.2040 C   0  0  0  0  0  0  0  0  0  0  0  0
   58.2460   31.7500   51.2750 N   0  0  0  0  0  0  0  0  0  0  0  0
   58.9090   31.5180   47.8310 C   0  0  0  0  0  0  0  0  0  0  0  0
   58.5775   30.4878   48.0281 H   0  0  0  0  0  0  0  0  0  0  0  0
   57.3110   30.4780   44.2470 C   0  0  0  0  0  0  0  0  0  0  0  0
   57.3980   31.7250   43.5210 C   0  0  0  0  0  0  0  0  0  0  0  0
   57.4670   32.7240   42.9400 N   0  0  0  0  0  0  0  0  0  0  0  0
  1  2  1  0
  2  3  1  0
  3  4  1  0
  4  5  2  0
  5  6  1  0
  5  7  1  0
  7  8  1  0
  8  9  1  0
  9 10  1  0
  9 11  1  0
  9 12  1  0
  7 13  2  0
 13 14  1  0
 14 15  1  0
 15 16  1  0
 15 17  1  0
 15 18  1  0
 13 19  1  0
 19 20  1  0
 20 21  1  0
 21 22  1  0
 21 23  1  0
 21 24  1  0
 19 25  2  0
 25 26  1  0
 26 27  2  0
 27 28  1  0
 28 29  2  0
 29 30  1  0
 29 31  1  0
 31 32  1  0
 31 33  2  0
 33 34  1  0
 33 35  1  0
 35 36  1  0
 36 37  3  0
 35 38  2  0
 38 39  1  0
 26 40  1  0
 40 41  1  0
 41 42  3  0
 40  2  2  0
 25  4  1  0
 38 28  1  0
M  CHG  1   3  -1
M  END
>  <UniqueID>  (22) 
20

>  <SMILES>  (22) 
COc1cc2[n-]cc(C#N)/c(=N/c3cccc(C#N)c3)c2c(OC)c1OC

>  <Energy>  (22) 
82.69422789128627

>  <Genealogy>  (22) 
COc1cc2[n-]cc(C#N)c(=Nc3cccc(C#N)c3)c2c(OC)c1OC (protonated)
COc1cc2[n-]cc(C#N)/c(=N/c3cccc(C#N)c3)c2c(OC)c1OC (cis-trans isomerization)
COc1cc2[n-]cc(C#N)/c(=N/c3cccc(C#N)c3)c2c(OC)c1OC (3D coordinates assigned)
COc1cc2[n-]cc(C#N)/c(=N/c3cccc(C#N)c3)c2c(OC)c1OC (optimized conformer: 82.69422789128627 kcal/mol)

>  <smiles>  (22) 
COc1cc2[nH]cc(C#N)c(=Nc3cccc(C#N)c3)c2c(OC)c1OC

>  <score_type>  (22) 
oracle

>  <origin>  (22) 
adg

>  <m_score__min__energy>  (22) 
-7.9500000000000002

>  <m_primary>  (22) 
energy

$$$$
22:0
     RDKit          3D

 34 36  0  0  0  0  0  0  0  0999 V2000
   58.4010   32.3990   44.8280 C   0  0  0  0  0  0  0  0  0  0  0  0
   58.0090   30.9830   45.1590 C   0  0  0  0  0  0  0  0  0  0  0  0
   58.4710   30.4010   46.3500 C   0  0  0  0  0  0  0  0  0  0  0  0
   58.1210   29.0920   46.6840 C   0  0  0  0  0  0  0  0  0  0  0  0
   57.3000   28.3370   45.8350 C   0  0  0  0  0  0  0  0  0  0  0  0
   56.9270   26.9230   46.2030 C   0  0  1  0  0  0  0  0  0  0  0  0
   55.5030   26.7150   45.9450 N   0  0  0  0  0  0  0  0  0  0  0  0
   54.9770   25.4270   45.6220 C   0  0  0  0  0  0  0  0  0  0  0  0
   53.7300   25.2470   45.6190 O   0  0  0  0  0  0  0  0  0  0  0  0
   55.9030   24.3430   45.2570 C   0  0  0  0  0  0  0  0  0  0  0  0
   55.4470   23.0450   44.9740 C   0  0  0  0  0  0  0  0  0  0  0  0
   56.3550   22.0520   44.5900 C   0  0  0  0  0  0  0  0  0  0  0  0
   57.7160   22.3510   44.4820 C   0  0  0  0  0  0  0  0  0  0  0  0
   58.1750   23.6420   44.7610 C   0  0  0  0  0  0  0  0  0  0  0  0
   57.2740   24.6410   45.1560 C   0  0  0  0  0  0  0  0  0  0  0  0
   57.7440   25.9680   45.4450 N   0  0  0  0  0  0  0  0  0  0  0  0
   56.8300   28.9130   44.6440 C   0  0  0  0  0  0  0  0  0  0  0  0
   57.1710   30.2320   44.2990 C   0  0  0  0  0  0  0  0  0  0  0  0
   56.6510   30.8150   43.0110 C   0  0  0  0  0  0  0  0  0  0  0  0
   58.5572   32.9634   45.7591 H   0  0  0  0  0  0  0  0  0  0  0  0
   59.3316   32.3943   44.2415 H   0  0  0  0  0  0  0  0  0  0  0  0
   57.6004   32.8735   44.2415 H   0  0  0  0  0  0  0  0  0  0  0  0
   59.1150   30.9822   47.0264 H   0  0  0  0  0  0  0  0  0  0  0  0
   58.4921   28.6495   47.6202 H   0  0  0  0  0  0  0  0  0  0  0  0
   57.1211   26.7577   47.2730 H   0  0  0  0  0  0  0  0  0  0  0  0
   54.3756   22.8090   45.0543 H   0  0  0  0  0  0  0  0  0  0  0  0
   55.9972   21.0347   44.3729 H   0  0  0  0  0  0  0  0  0  0  0  0
   58.4273   21.5694   44.1770 H   0  0  0  0  0  0  0  0  0  0  0  0
   59.2463   23.8746   44.6703 H   0  0  0  0  0  0  0  0  0  0  0  0
   58.7610   26.1770   45.3190 H   0  0  0  0  0  0  0  0  0  0  0  0
   56.1871   28.3247   43.9728 H   0  0  0  0  0  0  0  0  0  0  0  0
   55.9342   31.6187   43.2353 H   0  0  0  0  0  0  0  0  0  0  0  0
   57.4898   31.2239   42.4286 H   0  0  0  0  0  0  0  0  0  0  0  0
   56.1493   30.0282   42.4286 H   0  0  0  0  0  0  0  0  0  0  0  0
  1  2  1  0
  2  3  2  0
  3  4  1  0
  4  5  2  0
  5  6  1  0
  6  7  1  0
  7  8  1  0
  8  9  2  0
  8 10  1  0
 10 11  2  0
 11 12  1  0
 12 13  2  0
 13 14  1  0
 14 15  2  0
 15 16  1  0
  5 17  1  0
 17 18  2  0
 18 19  1  0
 18  2  1  0
 16  6  1  0
 15 10  1  0
  1 20  1  0
  1 21  1  0
  1 22  1  0
  3 23  1  0
  4 24  1  0
  6 25  1  1
 11 26  1  0
 12 27  1  0
 13 28  1  0
 14 29  1  0
 16 30  1  0
 17 31  1  0
 19 32  1  0
 19 33  1  0
 19 34  1  0
M  CHG  1   7  -1
M  END
>  <UniqueID>  (23) 
21

>  <SMILES>  (23) 
Cc1ccc([C@H]2[N-]C(=O)c3ccccc3N2)cc1C

>  <Energy>  (23) 
38.182078171428536

>  <Genealogy>  (23) 
Cc1ccc(C2[N-]C(=O)c3ccccc3N2)cc1C (protonated)
Cc1ccc([C@H]2[N-]C(=O)c3ccccc3N2)cc1C (chirality)
Cc1ccc([C@H]2[N-]C(=O)c3ccccc3N2)cc1C (3D coordinates assigned)
Cc1ccc([C@H]2[N-]C(=O)c3ccccc3N2)cc1C (nonaromatic ring conformer: 38.182078171428536 kcal/mol)

>  <smiles>  (23) 
Cc1ccc(C2NC(=O)c3ccccc3N2)cc1C

>  <score_type>  (23) 
oracle

>  <origin>  (23) 
adg

>  <m_score__min__energy>  (23) 
-9.1400000000000006

>  <m_primary>  (23) 
energy

$$$$
23:0
     RDKit          3D

 22 23  0  0  0  0  0  0  0  0999 V2000
   55.4700   29.7170   43.4490 C   0  0  0  0  0  0  0  0  0  0  0  0
   56.4830   30.0950   44.4830 C   0  0  0  0  0  0  0  0  0  0  0  0
   56.9060   31.3830   44.6080 N   0  0  0  0  0  0  0  0  0  0  0  0
   57.8220   31.5380   45.5930 C   0  0  0  0  0  0  0  0  0  0  0  0
   58.4410   32.8390   45.9350 C   0  0  0  0  0  0  0  0  0  0  0  0
   58.7700   33.1590   47.2640 C   0  0  0  0  0  0  0  0  0  0  0  0
   59.3530   34.3950   47.5530 C   0  0  0  0  0  0  0  0  0  0  0  0
   59.6010   35.2840   46.5560 N   0  0  0  0  0  0  0  0  0  0  0  0
   59.2940   35.0050   45.2620 C   0  0  0  0  0  0  0  0  0  0  0  0
   58.7100   33.7810   44.9270 C   0  0  0  0  0  0  0  0  0  0  0  0
   58.1410   30.0660   46.3470 S   0  0  0  0  0  0  0  0  0  0  0  0
   57.0710   29.1970   45.3820 C   0  0  0  0  0  0  0  0  0  0  0  0
   56.8340   27.7480   45.5090 C   0  0  0  0  0  0  0  0  0  0  0  0
   57.7930   26.9340   45.5180 O   0  0  0  0  0  0  0  0  0  0  0  0
   55.5350   27.2690   45.6210 O   0  0  0  0  0  0  0  0  0  0  0  0
   54.5502   29.3738   43.9451 H   0  0  0  0  0  0  0  0  0  0  0  0
   55.2435   30.5911   42.8208 H   0  0  0  0  0  0  0  0  0  0  0  0
   55.8715   28.9082   42.8208 H   0  0  0  0  0  0  0  0  0  0  0  0
   58.5694   32.4399   48.0718 H   0  0  0  0  0  0  0  0  0  0  0  0
   59.6122   34.6494   48.5913 H   0  0  0  0  0  0  0  0  0  0  0  0
   59.5059   35.7450   44.4762 H   0  0  0  0  0  0  0  0  0  0  0  0
   58.4618   33.5554   43.8794 H   0  0  0  0  0  0  0  0  0  0  0  0
  1  2  1  0
  2  3  1  0
  3  4  2  0
  4  5  1  0
  5  6  2  0
  6  7  1  0
  7  8  2  0
  8  9  1  0
  9 10  2  0
  4 11  1  0
 11 12  1  0
 12 13  1  0
 13 14  2  0
 13 15  1  0
 12  2  2  0
 10  5  1  0
  1 16  1  0
  1 17  1  0
  1 18  1  0
  6 19  1  0
  7 20  1  0
  9 21  1  0
 10 22  1  0
M  CHG  1  15  -1
M  END
>  <UniqueID>  (24) 
22

>  <SMILES>  (24) 
Cc1nc(-c2ccncc2)sc1C(=O)[O-]

>  <Energy>  (24) 
53.41832989099841

>  <Genealogy>  (24) 
Cc1nc(-c2ccncc2)sc1C(=O)[O-] (protonated)
Cc1nc(-c2ccncc2)sc1C(=O)[O-] (3D coordinates assigned)
Cc1nc(-c2ccncc2)sc1C(=O)[O-] (optimized conformer: 53.41832989099841 kcal/mol)

>  <smiles>  (24) 
Cc1nc(-c2ccncc2)sc1C(=O)O

>  <score_type>  (24) 
oracle

>  <origin>  (24) 
adg

>  <m_score__min__energy>  (24) 
-8.5399999999999991

>  <m_primary>  (24) 
energy

$$$$
24:0
     RDKit          3D

 47 50  0  0  0  0  0  0  0  0999 V2000
   62.0420   33.6280   49.5330 O   0  0  0  0  0  0  0  0  0  0  0  0
   61.9350   32.3860   49.4820 N   0  0  0  0  0  0  0  0  0  0  0  0
   62.4920   31.6340   50.4890 O   0  0  0  0  0  0  0  0  0  0  0  0
   61.3300   31.7720   48.3320 C   0  0  0  0  0  0  0  0  0  0  0  0
   61.0630   30.4550   48.2580 N   0  0  0  0  0  0  0  0  0  0  0  0
   60.4940   30.2020   47.0890 N   0  0  0  0  0  0  0  0  0  0  0  0
   60.0330   28.9080   46.6560 C   0  0  0  0  0  0  0  0  0  0  0  0
   59.6070   28.7180   45.3280 C   0  0  0  0  0  0  0  0  0  0  0  0
   59.1380   27.4720   44.9040 C   0  0  0  0  0  0  0  0  0  0  0  0
   59.0830   26.4020   45.8000 C   0  0  0  0  0  0  0  0  0  0  0  0
   59.4970   26.5780   47.1210 C   0  0  0  0  0  0  0  0  0  0  0  0
   59.9710   27.8220   47.5530 C   0  0  0  0  0  0  0  0  0  0  0  0
   60.3110   27.9740   48.8570 F   0  0  0  0  0  0  0  0  0  0  0  0
   60.4070   31.3500   46.3850 C   0  0  0  0  0  0  0  0  0  0  0  0
   60.9180   32.3880   47.1500 C   0  0  0  0  0  0  0  0  0  0  0  0
   61.0130   33.8330   46.7250 C   0  0  0  0  0  0  0  0  0  0  0  0
   59.6990   34.5100   46.6200 N   0  0  0  0  0  0  0  0  0  0  0  0
   59.2780   34.8630   45.2430 C   0  0  0  0  0  0  0  0  0  0  0  0
   57.9300   34.2530   44.8320 C   0  0  0  0  0  0  0  0  0  0  0  0
   57.7580   32.9320   45.4430 N   0  0  0  0  0  0  0  0  0  0  0  0
   57.3420   31.7920   44.6700 C   0  0  0  0  0  0  0  0  0  0  0  0
   57.3550   31.7720   43.3820 N   0  0  0  0  0  0  0  0  0  0  0  0
   56.8920   30.4690   42.9270 C   0  0  0  0  0  0  0  0  0  0  0  0
   56.5300   29.7150   44.2140 C   0  0  0  0  0  0  0  0  0  0  0  0
   56.8980   30.6170   45.2420 O   0  0  0  0  0  0  0  0  0  0  0  0
   57.8820   32.7990   46.8970 C   0  0  0  0  0  0  0  0  0  0  0  0
   58.6360   33.9930   47.5080 C   0  0  0  0  0  0  0  0  0  0  0  0
   61.2880   29.7420   48.9860 H   0  0  0  0  0  0  0  0  0  0  0  0
   59.6436   29.5574   44.6181 H   0  0  0  0  0  0  0  0  0  0  0  0
   58.8115   27.3335   43.8627 H   0  0  0  0  0  0  0  0  0  0  0  0
   58.7137   25.4216   45.4647 H   0  0  0  0  0  0  0  0  0  0  0  0
   59.4506   25.7350   47.8261 H   0  0  0  0  0  0  0  0  0  0  0  0
   59.9971   31.4469   45.3688 H   0  0  0  0  0  0  0  0  0  0  0  0
   61.6239   34.3729   47.4635 H   0  0  0  0  0  0  0  0  0  0  0  0
   61.4619   33.8442   45.7208 H   0  0  0  0  0  0  0  0  0  0  0  0
   59.1986   35.9580   45.1745 H   0  0  0  0  0  0  0  0  0  0  0  0
   60.0369   34.4527   44.5606 H   0  0  0  0  0  0  0  0  0  0  0  0
   57.1166   34.9146   45.1646 H   0  0  0  0  0  0  0  0  0  0  0  0
   57.9067   34.1450   43.7376 H   0  0  0  0  0  0  0  0  0  0  0  0
   56.0101   30.5752   42.2782 H   0  0  0  0  0  0  0  0  0  0  0  0
   57.6525   29.9401   42.3338 H   0  0  0  0  0  0  0  0  0  0  0  0
   55.4528   29.4954   44.2510 H   0  0  0  0  0  0  0  0  0  0  0  0
   57.0367   28.7422   44.2968 H   0  0  0  0  0  0  0  0  0  0  0  0
   56.8759   32.7472   47.3387 H   0  0  0  0  0  0  0  0  0  0  0  0
   58.4511   31.8829   47.1134 H   0  0  0  0  0  0  0  0  0  0  0  0
   57.9161   34.8015   47.7032 H   0  0  0  0  0  0  0  0  0  0  0  0
   59.1164   33.6445   48.4341 H   0  0  0  0  0  0  0  0  0  0  0  0
  1  2  2  0
  2  3  1  0
  2  4  1  0
  4  5  2  0
  5  6  1  0
  6  7  1  0
  7  8  2  0
  8  9  1  0
  9 10  2  0
 10 11  1  0
 11 12  2  0
 12 13  1  0
  6 14  1  0
 14 15  2  0
 15 16  1  0
 16 17  1  0
 17 18  1  0
 18 19  1  0
 19 20  1  0
 20 21  1  0
 21 22  2  0
 22 23  1  0
 23 24  1  0
 24 25  1  0
 20 26  1  0
 26 27  1  0
 15  4  1  0
 27 17  1  0
 12  7  1  0
 25 21  1  0
  5 28  1  0
  8 29  1  0
  9 30  1  0
 10 31  1  0
 11 32  1  0
 14 33  1  0
 16 34  1  0
 16 35  1  0
 18 36  1  0
 18 37  1  0
 19 38  1  0
 19 39  1  0
 23 40  1  0
 23 41  1  0
 24 42  1  0
 24 43  1  0
 26 44  1  0
 26 45  1  0
 27 46  1  0
 27 47  1  0
M  CHG  3   2   1   3  -1   5   1
M  END
>  <UniqueID>  (25) 
23

>  <SMILES>  (25) 
O=[N+]([O-])c1[nH+]n(-c2ccccc2F)cc1CN1CCN(C2=NCCO2)CC1

>  <Energy>  (25) 
108.05785791755666

>  <Genealogy>  (25) 
O=[N+]([O-])c1[nH+]n(-c2ccccc2F)cc1CN1CCN(C2=NCCO2)CC1 (protonated)
O=[N+]([O-])c1[nH+]n(-c2ccccc2F)cc1CN1CCN(C2=NCCO2)CC1 (3D coordinates assigned)
O=[N+]([O-])c1[nH+]n(-c2ccccc2F)cc1CN1CCN(C2=NCCO2)CC1 (nonaromatic ring conformer: 108.05785791755666 kcal/mol)

>  <smiles>  (25) 
O=[N+]([O-])c1nn(-c2ccccc2F)cc1CN1CCN(C2=NCCO2)CC1

>  <score_type>  (25) 
oracle

>  <origin>  (25) 
adg

>  <m_score__min__energy>  (25) 
-6.3099999999999996

>  <m_primary>  (25) 
energy

$$$$
25:0
     RDKit          3D

 45 47  0  0  0  0  0  0  0  0999 V2000
   57.2750   34.1980   45.6580 C   0  0  0  0  0  0  0  0  0  0  0  0
   57.8480   33.5540   46.7540 O   0  0  0  0  0  0  0  0  0  0  0  0
   58.8110   32.5730   46.6950 C   0  0  0  0  0  0  0  0  0  0  0  0
   58.7020   31.4890   45.8490 C   0  0  0  0  0  0  0  0  0  0  0  0
   59.6850   30.4930   45.7920 C   0  0  0  0  0  0  0  0  0  0  0  0
   59.4550   29.3860   44.8700 C   0  0  0  0  0  0  0  0  0  0  0  0
   58.4120   28.4300   45.2210 C   0  0  0  0  0  0  0  0  0  0  0  0
   58.8020   27.1370   45.6040 C   0  0  0  0  0  0  0  0  0  0  0  0
   57.9020   26.2050   45.9660 N   0  0  0  0  0  0  0  0  0  0  0  0
   56.5710   26.4880   45.9740 C   0  0  0  0  0  0  0  0  0  0  0  0
   55.7070   25.5960   46.3210 N   0  0  0  0  0  0  0  0  0  0  0  0
   56.1680   27.7150   45.6130 N   0  0  0  0  0  0  0  0  0  0  0  0
   57.0600   28.6650   45.2450 C   0  0  0  0  0  0  0  0  0  0  0  0
   56.5710   29.7990   44.8920 N   0  0  0  0  0  0  0  0  0  0  0  0
   60.7560   30.6640   46.6280 C   0  0  0  0  0  0  0  0  0  0  0  0
   60.8890   31.7410   47.4860 C   0  0  0  0  0  0  0  0  0  0  0  0
   62.0260   31.8560   48.3260 N   0  0  0  0  0  0  0  0  0  0  0  0
   62.2770   31.2460   49.5130 C   0  0  0  0  0  0  0  0  0  0  0  0
   61.3260   30.2870   50.1700 C   0  0  0  0  0  0  0  0  0  0  0  0
   63.5150   31.6540   49.9760 C   0  0  0  0  0  0  0  0  0  0  0  0
   63.9910   32.5230   49.0330 C   0  0  0  0  0  0  0  0  0  0  0  0
   63.0750   32.6530   48.0090 C   0  0  0  0  0  0  0  0  0  0  0  0
   63.2650   33.5160   46.8170 C   0  0  0  0  0  0  0  0  0  0  0  0
   59.9150   32.7070   47.5260 C   0  0  0  0  0  0  0  0  0  0  0  0
   56.5825   34.9764   46.0109 H   0  0  0  0  0  0  0  0  0  0  0  0
   58.0663   34.6599   45.0492 H   0  0  0  0  0  0  0  0  0  0  0  0
   56.7243   33.4658   45.0492 H   0  0  0  0  0  0  0  0  0  0  0  0
   57.8176   31.4044   45.2004 H   0  0  0  0  0  0  0  0  0  0  0  0
   59.1919   29.8185   43.8934 H   0  0  0  0  0  0  0  0  0  0  0  0
   60.3887   28.8048   44.8877 H   0  0  0  0  0  0  0  0  0  0  0  0
   59.8714   26.8792   45.6082 H   0  0  0  0  0  0  0  0  0  0  0  0
   58.2540   25.2620   46.2400 H   0  0  0  0  0  0  0  0  0  0  0  0
   54.7140   25.7760   46.4910 H   0  0  0  0  0  0  0  0  0  0  0  0
   55.1430   27.9040   45.6280 H   0  0  0  0  0  0  0  0  0  0  0  0
   56.3610   30.5040   45.6210 H   0  0  0  0  0  0  0  0  0  0  0  0
   61.5523   29.9052   46.6167 H   0  0  0  0  0  0  0  0  0  0  0  0
   61.4133   30.3750   51.2630 H   0  0  0  0  0  0  0  0  0  0  0  0
   60.2964   30.5242   49.8641 H   0  0  0  0  0  0  0  0  0  0  0  0
   61.5718   29.2594   49.8641 H   0  0  0  0  0  0  0  0  0  0  0  0
   64.0123   31.3446   50.9071 H   0  0  0  0  0  0  0  0  0  0  0  0
   64.9600   33.0412   49.0834 H   0  0  0  0  0  0  0  0  0  0  0  0
   63.4911   34.5429   47.1401 H   0  0  0  0  0  0  0  0  0  0  0  0
   64.0995   33.1293   46.2136 H   0  0  0  0  0  0  0  0  0  0  0  0
   62.3452   33.5155   46.2136 H   0  0  0  0  0  0  0  0  0  0  0  0
   60.0071   33.5695   48.2024 H   0  0  0  0  0  0  0  0  0  0  0  0
  1  2  1  0
  2  3  1  0
  3  4  2  0
  4  5  1  0
  5  6  1  0
  6  7  1  0
  7  8  2  0
  8  9  1  0
  9 10  1  0
 10 11  2  3
 10 12  1  0
 12 13  1  0
 13 14  2  3
  5 15  2  0
 15 16  1  0
 16 17  1  0
 17 18  1  0
 18 19  1  0
 18 20  2  0
 20 21  1  0
 21 22  2  0
 22 23  1  0
 16 24  2  0
 24  3  1  0
 13  7  1  0
 22 17  1  0
  1 25  1  0
  1 26  1  0
  1 27  1  0
  4 28  1  0
  6 29  1  0
  6 30  1  0
  8 31  1  0
  9 32  1  0
 11 33  1  0
 12 34  1  0
 14 35  1  0
 15 36  1  0
 19 37  1  0
 19 38  1  0
 19 39  1  0
 20 40  1  0
 21 41  1  0
 23 42  1  0
 23 43  1  0
 23 44  1  0
 24 45  1  0
M  END
>  <smiles>  (26) 
COc1cc(Cc2c[nH]c(=N)[nH]c2=N)cc(-n2c(C)ccc2C)c1

>  <score_type>  (26) 
oracle

>  <origin>  (26) 
adg

>  <m_score__min__energy>  (26) 
-7.7199999999999998

>  <m_primary>  (26) 
energy

$$$$
26:0
     RDKit          3D

 38 39  0  0  0  0  0  0  0  0999 V2000
   57.0100   34.2610   45.2580 C   0  0  0  0  0  0  0  0  0  0  0  0
   58.4910   34.2850   44.8870 C   0  0  0  0  0  0  0  0  0  0  0  0
   58.8330   33.1190   44.1630 O   0  0  0  0  0  0  0  0  0  0  0  0
   57.7630   32.7010   43.3350 C   0  0  0  0  0  0  0  0  0  0  0  0
   57.7860   31.1760   43.1970 C   0  0  0  0  0  0  0  0  0  0  0  0
   56.5300   30.5180   43.7810 C   0  0  0  0  0  0  0  0  0  0  0  0
   56.6390   30.4120   45.2310 N   0  0  0  0  0  0  0  0  0  0  0  0
   57.6110   29.5920   45.8850 C   0  0  0  0  0  0  0  0  0  0  0  0
   57.3220   28.4020   46.1780 O   0  0  0  0  0  0  0  0  0  0  0  0
   58.9440   30.1480   46.2220 C   0  0  0  0  0  0  0  0  0  0  0  0
   60.1850   29.5860   45.9130 C   0  0  0  0  0  0  0  0  0  0  0  0
   60.4480   28.2940   45.2040 C   0  0  0  0  0  0  0  0  0  0  0  0
   61.1670   30.3940   46.3680 N   0  0  0  0  0  0  0  0  0  0  0  0
   60.5270   31.4240   46.9510 C   0  0  0  0  0  0  0  0  0  0  0  0
   61.1260   32.5220   47.5740 C   0  0  0  0  0  0  0  0  0  0  0  0
   62.8710   32.6960   47.6680 Cl  0  0  0  0  0  0  0  0  0  0  0  0
   60.2830   33.4990   48.1250 C   0  0  0  0  0  0  0  0  0  0  0  0
   58.8870   33.3640   48.0340 C   0  0  0  0  0  0  0  0  0  0  0  0
   58.3380   32.2440   47.3950 C   0  0  0  0  0  0  0  0  0  0  0  0
   59.1840   31.3070   46.8810 N   0  0  0  0  0  0  0  0  0  0  0  0
   56.9063   34.2593   46.3531 H   0  0  0  0  0  0  0  0  0  0  0  0
   56.5138   35.1512   44.8441 H   0  0  0  0  0  0  0  0  0  0  0  0
   56.5429   33.3552   44.8441 H   0  0  0  0  0  0  0  0  0  0  0  0
   58.6959   35.1705   44.2673 H   0  0  0  0  0  0  0  0  0  0  0  0
   59.0908   34.3239   45.8083 H   0  0  0  0  0  0  0  0  0  0  0  0
   56.8088   33.0136   43.7841 H   0  0  0  0  0  0  0  0  0  0  0  0
   57.8696   33.1595   42.3408 H   0  0  0  0  0  0  0  0  0  0  0  0
   57.8560   30.9187   42.1298 H   0  0  0  0  0  0  0  0  0  0  0  0
   58.6538   30.8010   43.7594 H   0  0  0  0  0  0  0  0  0  0  0  0
   55.6502   31.1276   43.5273 H   0  0  0  0  0  0  0  0  0  0  0  0
   56.4258   29.5086   43.3564 H   0  0  0  0  0  0  0  0  0  0  0  0
   60.6104   27.4963   45.9438 H   0  0  0  0  0  0  0  0  0  0  0  0
   59.5833   28.0390   44.5736 H   0  0  0  0  0  0  0  0  0  0  0  0
   61.3435   28.3974   44.5736 H   0  0  0  0  0  0  0  0  0  0  0  0
   62.1970   30.2450   46.2860 H   0  0  0  0  0  0  0  0  0  0  0  0
   60.7166   34.3745   48.6304 H   0  0  0  0  0  0  0  0  0  0  0  0
   58.2283   34.1339   48.4623 H   0  0  0  0  0  0  0  0  0  0  0  0
   57.2479   32.1237   47.3101 H   0  0  0  0  0  0  0  0  0  0  0  0
  1  2  1  0
  2  3  1  0
  3  4  1  0
  4  5  1  0
  5  6  1  0
  6  7  1  0
  7  8  1  0
  8  9  2  0
  8 10  1  0
 10 11  2  0
 11 12  1  0
 11 13  1  0
 13 14  2  0
 14 15  1  0
 15 16  1  0
 15 17  2  0
 17 18  1  0
 18 19  2  0
 19 20  1  0
 20 10  1  0
 20 14  1  0
  1 21  1  0
  1 22  1  0
  1 23  1  0
  2 24  1  0
  2 25  1  0
  4 26  1  0
  4 27  1  0
  5 28  1  0
  5 29  1  0
  6 30  1  0
  6 31  1  0
 12 32  1  0
 12 33  1  0
 12 34  1  0
 13 35  1  0
 17 36  1  0
 18 37  1  0
 19 38  1  0
M  CHG  2   7  -1  13   1
M  END
>  <UniqueID>  (27) 
24

>  <SMILES>  (27) 
CCOCCC[N-]C(=O)c1c(C)[nH+]c2c(Cl)cccn12

>  <Energy>  (27) 
67.67294613098613

>  <Genealogy>  (27) 
CCOCCC[N-]C(=O)c1c(C)[nH+]c2c(Cl)cccn12 (protonated)
CCOCCC[N-]C(=O)c1c(C)[nH+]c2c(Cl)cccn12 (3D coordinates assigned)
CCOCCC[N-]C(=O)c1c(C)[nH+]c2c(Cl)cccn12 (optimized conformer: 67.67294613098613 kcal/mol)

>  <smiles>  (27) 
CCOCCCNC(=O)c1c(C)nc2c(Cl)cccn12

>  <score_type>  (27) 
oracle

>  <origin>  (27) 
adg

>  <m_score__min__energy>  (27) 
-6.4699999999999998

>  <m_primary>  (27) 
energy

$$$$
27:0
     RDKit          3D

 41 42  0  0  0  0  0  0  0  0999 V2000
   59.2100   24.7920   46.0070 C   0  0  0  0  0  0  0  0  0  0  0  0
   58.0640   25.7100   45.5670 C   0  0  0  0  0  0  0  0  0  0  0  0
   57.4100   25.1750   44.2800 C   0  0  0  0  0  0  0  0  0  0  0  0
   58.5550   27.1580   45.4400 C   0  0  0  0  0  0  0  0  0  0  0  0
   59.9340   27.4040   45.6010 C   0  0  0  0  0  0  0  0  0  0  0  0
   60.4730   28.6630   45.3880 C   0  0  0  0  0  0  0  0  0  0  0  0
   59.6580   29.7180   45.0040 C   0  0  0  0  0  0  0  0  0  0  0  0
   58.2680   29.5450   44.8810 C   0  0  0  0  0  0  0  0  0  0  0  0
   57.4300   30.6220   44.5120 C   0  0  0  0  0  0  0  0  0  0  0  0
   57.9570   31.8910   44.0780 N   0  0  0  0  0  0  0  0  0  0  0  0
   57.3860   33.1630   44.5170 C   0  0  0  0  0  0  0  0  0  0  0  0
   57.4640   33.2770   46.0530 C   0  0  0  0  0  0  0  0  0  0  0  0
   58.4370   34.2790   46.5440 N   0  0  0  0  0  0  0  0  0  0  0  0
   59.2380   34.8770   45.4640 C   0  0  0  0  0  0  0  0  0  0  0  0
   59.2950   33.7680   47.6240 C   0  0  0  0  0  0  0  0  0  0  0  0
   56.0860   30.4510   44.5450 N   0  0  0  0  0  0  0  0  0  0  0  0
   55.5300   29.3000   44.9100 N   0  0  0  0  0  0  0  0  0  0  0  0
   56.2690   28.2150   45.2430 C   0  0  0  0  0  0  0  0  0  0  0  0
   55.6560   27.1930   45.6450 O   0  0  0  0  0  0  0  0  0  0  0  0
   57.6870   28.2750   45.1820 C   0  0  0  0  0  0  0  0  0  0  0  0
   59.2518   24.7585   47.1057 H   0  0  0  0  0  0  0  0  0  0  0  0
   59.0388   23.7784   45.6155 H   0  0  0  0  0  0  0  0  0  0  0  0
   60.1618   25.1803   45.6155 H   0  0  0  0  0  0  0  0  0  0  0  0
   57.2794   25.7132   46.3380 H   0  0  0  0  0  0  0  0  0  0  0  0
   56.5832   24.4987   44.5427 H   0  0  0  0  0  0  0  0  0  0  0  0
   57.0211   26.0172   43.6889 H   0  0  0  0  0  0  0  0  0  0  0  0
   58.1584   24.6269   43.6889 H   0  0  0  0  0  0  0  0  0  0  0  0
   60.5963   26.5790   45.9021 H   0  0  0  0  0  0  0  0  0  0  0  0
   61.5522   28.8265   45.5241 H   0  0  0  0  0  0  0  0  0  0  0  0
   60.1043   30.7011   44.7933 H   0  0  0  0  0  0  0  0  0  0  0  0
   58.6900   31.9280   43.3350 H   0  0  0  0  0  0  0  0  0  0  0  0
   57.9491   33.9910   44.0617 H   0  0  0  0  0  0  0  0  0  0  0  0
   56.3321   33.2111   44.2055 H   0  0  0  0  0  0  0  0  0  0  0  0
   56.4675   33.5526   46.4284 H   0  0  0  0  0  0  0  0  0  0  0  0
   57.8068   32.2995   46.4230 H   0  0  0  0  0  0  0  0  0  0  0  0
   60.0475   35.4813   45.8994 H   0  0  0  0  0  0  0  0  0  0  0  0
   59.6699   34.0786   44.8427 H   0  0  0  0  0  0  0  0  0  0  0  0
   58.5953   35.5180   44.8427 H   0  0  0  0  0  0  0  0  0  0  0  0
   58.8547   34.0303   48.5973 H   0  0  0  0  0  0  0  0  0  0  0  0
   59.3764   32.6741   47.5412 H   0  0  0  0  0  0  0  0  0  0  0  0
   60.2956   34.2175   47.5412 H   0  0  0  0  0  0  0  0  0  0  0  0
  1  2  1  0
  2  3  1  0
  2  4  1  0
  4  5  2  0
  5  6  1  0
  6  7  2  0
  7  8  1  0
  8  9  1  0
  9 10  1  0
 10 11  1  0
 11 12  1  0
 12 13  1  0
 13 14  1  0
 13 15  1  0
  9 16  2  0
 16 17  1  0
 17 18  1  0
 18 19  2  0
 18 20  1  0
 20  4  1  0
 20  8  2  0
  1 21  1  0
  1 22  1  0
  1 23  1  0
  2 24  1  0
  3 25  1  0
  3 26  1  0
  3 27  1  0
  5 28  1  0
  6 29  1  0
  7 30  1  0
 10 31  1  0
 11 32  1  0
 11 33  1  0
 12 34  1  0
 12 35  1  0
 14 36  1  0
 14 37  1  0
 14 38  1  0
 15 39  1  0
 15 40  1  0
 15 41  1  0
M  CHG  1  17  -1
M  END
>  <UniqueID>  (28) 
25

>  <SMILES>  (28) 
CC(C)c1cccc2c(NCCN(C)C)n[n-]c(=O)c12

>  <Energy>  (28) 
56.13815290379017

>  <Genealogy>  (28) 
CC(C)c1cccc2c(NCCN(C)C)n[n-]c(=O)c12 (protonated)
CC(C)c1cccc2c(NCCN(C)C)n[n-]c(=O)c12 (3D coordinates assigned)
CC(C)c1cccc2c(NCCN(C)C)n[n-]c(=O)c12 (optimized conformer: 56.13815290379017 kcal/mol)

>  <smiles>  (28) 
CC(C)c1cccc2c(NCCN(C)C)n[nH]c(=O)c12

>  <score_type>  (28) 
oracle

>  <origin>  (28) 
adg

>  <m_score__min__energy>  (28) 
-9.25

>  <m_primary>  (28) 
energy

$$$$
28:0
     RDKit          3D

 50 52  0  0  0  0  0  0  0  0999 V2000
   63.1500   33.7870   46.4900 C   0  0  0  0  0  0  0  0  0  0  0  0
   63.0340   33.2200   47.9020 C   0  0  2  0  0  0  0  0  0  0  0  0
   63.6470   31.9810   47.9350 F   0  0  0  0  0  0  0  0  0  0  0  0
   61.6620   33.0590   48.2660 O   0  0  0  0  0  0  0  0  0  0  0  0
   60.9060   31.8840   48.1130 C   0  0  0  0  0  0  0  0  0  0  0  0
   59.9350   31.4750   49.0490 C   0  0  0  0  0  0  0  0  0  0  0  0
   59.2220   30.2900   48.8490 C   0  0  0  0  0  0  0  0  0  0  0  0
   59.4650   29.5050   47.7200 C   0  0  0  0  0  0  0  0  0  0  0  0
   60.4180   29.9070   46.7730 C   0  0  0  0  0  0  0  0  0  0  0  0
   60.7090   29.0440   45.5750 C   0  0  0  0  0  0  0  0  0  0  0  0
   59.4520   28.6240   44.9430 N   0  0  0  0  0  0  0  0  0  0  0  0
   59.1370   27.2110   45.2290 C   0  0  0  0  0  0  0  0  0  0  0  0
   57.7060   26.8170   44.8200 C   0  0  0  0  0  0  0  0  0  0  0  0
   56.6360   27.5340   45.6540 C   0  0  0  0  0  0  0  0  0  0  0  0
   56.0240   28.6170   44.8840 N   0  0  0  0  0  0  0  0  0  0  0  0
   56.6580   29.8730   44.5820 C   0  0  0  0  0  0  0  0  0  0  0  0
   56.8530   30.3150   43.2600 C   0  0  0  0  0  0  0  0  0  0  0  0
   57.4730   31.5450   43.0220 C   0  0  0  0  0  0  0  0  0  0  0  0
   57.6470   31.9290   41.8330 O   0  0  0  0  0  0  0  0  0  0  0  0
   57.8930   32.3380   44.1040 C   0  0  0  0  0  0  0  0  0  0  0  0
   58.5200   33.5840   43.9190 C   0  0  0  0  0  0  0  0  0  0  0  0
   58.9190   34.3410   45.0270 C   0  0  0  0  0  0  0  0  0  0  0  0
   58.6950   33.8650   46.3210 C   0  0  0  0  0  0  0  0  0  0  0  0
   58.0730   32.6280   46.5180 C   0  0  0  0  0  0  0  0  0  0  0  0
   57.6710   31.8620   45.4170 C   0  0  0  0  0  0  0  0  0  0  0  0
   57.0680   30.6600   45.6130 N   0  0  0  0  0  0  0  0  0  0  0  0
   61.1450   31.0900   46.9860 C   0  0  0  0  0  0  0  0  0  0  0  0
   63.3702   34.8634   46.5441 H   0  0  0  0  0  0  0  0  0  0  0  0
   63.9616   33.2731   45.9541 H   0  0  0  0  0  0  0  0  0  0  0  0
   62.2018   33.6332   45.9541 H   0  0  0  0  0  0  0  0  0  0  0  0
   63.5147   33.9145   48.6067 H   0  0  0  0  0  0  0  0  0  0  0  0
   59.7379   32.0902   49.9393 H   0  0  0  0  0  0  0  0  0  0  0  0
   58.4665   29.9744   49.5836 H   0  0  0  0  0  0  0  0  0  0  0  0
   58.9072   28.5684   47.5730 H   0  0  0  0  0  0  0  0  0  0  0  0
   61.3079   29.6157   44.8508 H   0  0  0  0  0  0  0  0  0  0  0  0
   61.2667   28.1527   45.8983 H   0  0  0  0  0  0  0  0  0  0  0  0
   58.6760   29.2520   45.2590 H   0  0  0  0  0  0  0  0  0  0  0  0
   59.8461   26.5757   44.6781 H   0  0  0  0  0  0  0  0  0  0  0  0
   59.2178   27.0704   46.3170 H   0  0  0  0  0  0  0  0  0  0  0  0
   57.5586   27.0748   43.7608 H   0  0  0  0  0  0  0  0  0  0  0  0
   57.5952   25.7364   44.9934 H   0  0  0  0  0  0  0  0  0  0  0  0
   55.8585   26.8115   45.9429 H   0  0  0  0  0  0  0  0  0  0  0  0
   57.1110   27.9601   46.5500 H   0  0  0  0  0  0  0  0  0  0  0  0
   55.0680   28.4510   44.4980 H   0  0  0  0  0  0  0  0  0  0  0  0
   56.5183   29.6939   42.4161 H   0  0  0  0  0  0  0  0  0  0  0  0
   58.6970   33.9639   42.9020 H   0  0  0  0  0  0  0  0  0  0  0  0
   59.4105   35.3138   44.8781 H   0  0  0  0  0  0  0  0  0  0  0  0
   59.0088   34.4651   47.1879 H   0  0  0  0  0  0  0  0  0  0  0  0
   57.8994   32.2565   47.5387 H   0  0  0  0  0  0  0  0  0  0  0  0
   61.9111   31.3957   46.2583 H   0  0  0  0  0  0  0  0  0  0  0  0
  1  2  1  0
  2  3  1  0
  2  4  1  0
  4  5  1  0
  5  6  2  0
  6  7  1  0
  7  8  2  0
  8  9  1  0
  9 10  1  0
 10 11  1  0
 11 12  1  0
 12 13  1  0
 13 14  1  0
 14 15  1  0
 15 16  1  0
 16 17  2  0
 17 18  1  0
 18 19  2  0
 18 20  1  0
 20 21  2  0
 21 22  1  0
 22 23  2  0
 23 24  1  0
 24 25  2  0
 25 26  1  0
  9 27  2  0
 27  5  1  0
 26 16  1  0
 25 20  1  0
  1 28  1  0
  1 29  1  0
  1 30  1  0
  2 31  1  1
  6 32  1  0
  7 33  1  0
  8 34  1  0
 10 35  1  0
 10 36  1  0
 11 37  1  0
 12 38  1  0
 12 39  1  0
 13 40  1  0
 13 41  1  0
 14 42  1  0
 14 43  1  0
 15 44  1  0
 17 45  1  0
 21 46  1  0
 22 47  1  0
 23 48  1  0
 24 49  1  0
 27 50  1  0
M  CHG  1  26  -1
M  END
>  <UniqueID>  (29) 
26

>  <SMILES>  (29) 
C[C@H](F)Oc1cccc(CNCCCNc2cc(=O)c3ccccc3[n-]2)c1

>  <Energy>  (29) 
52.07834202183555

>  <Genealogy>  (29) 
CC(F)Oc1cccc(CNCCCNc2cc(=O)c3ccccc3[n-]2)c1 (protonated)
C[C@H](F)Oc1cccc(CNCCCNc2cc(=O)c3ccccc3[n-]2)c1 (chirality)
C[C@H](F)Oc1cccc(CNCCCNc2cc(=O)c3ccccc3[n-]2)c1 (3D coordinates assigned)
C[C@H](F)Oc1cccc(CNCCCNc2cc(=O)c3ccccc3[n-]2)c1 (optimized conformer: 52.07834202183555 kcal/mol)

>  <smiles>  (29) 
CC(F)Oc1cccc(CNCCCNc2cc(=O)c3ccccc3[nH]2)c1

>  <score_type>  (29) 
oracle

>  <origin>  (29) 
adg

>  <m_score__min__energy>  (29) 
-9.7100000000000009

>  <m_primary>  (29) 
energy

$$$$
29:0
     RDKit          3D

 41 43  0  0  0  0  0  0  0  0999 V2000
   59.5750   34.9410   46.0220 C   0  0  0  0  0  0  0  0  0  0  0  0
   58.9330   33.6290   45.6480 C   0  0  0  0  0  0  0  0  0  0  0  0
   58.5660   33.4150   44.3090 C   0  0  0  0  0  0  0  0  0  0  0  0
   57.9410   32.2260   43.9130 C   0  0  0  0  0  0  0  0  0  0  0  0
   57.7020   31.2160   44.8620 C   0  0  0  0  0  0  0  0  0  0  0  0
   58.0480   31.4290   46.2010 C   0  0  0  0  0  0  0  0  0  0  0  0
   58.6780   32.6180   46.6100 C   0  0  0  0  0  0  0  0  0  0  0  0
   59.0410   32.7650   48.0740 C   0  0  0  0  0  0  0  0  0  0  0  0
   60.2250   31.9510   48.3980 N   0  0  0  0  0  0  0  0  0  0  0  0
   60.0120   30.6070   48.9500 C   0  0  0  0  0  0  0  0  0  0  0  0
   61.5650   32.4820   48.2270 C   0  0  0  0  0  0  0  0  0  0  0  0
   61.9530   33.7100   48.7900 C   0  0  0  0  0  0  0  0  0  0  0  0
   63.2510   34.1770   48.5910 C   0  0  0  0  0  0  0  0  0  0  0  0
   64.1400   33.4160   47.8390 C   0  0  0  0  0  0  0  0  0  0  0  0
   63.7290   32.2330   47.3130 N   0  0  0  0  0  0  0  0  0  0  0  0
   62.4860   31.7860   47.5020 N   0  0  0  0  0  0  0  0  0  0  0  0
   56.9790   29.9460   44.4730 C   0  0  0  0  0  0  0  0  0  0  0  0
   57.0660   29.6720   43.0330 N   0  0  0  0  0  0  0  0  0  0  0  0
   56.6440   30.8430   42.2560 C   0  0  0  0  0  0  0  0  0  0  0  0
   57.6150   32.0130   42.4570 C   0  0  0  0  0  0  0  0  0  0  0  0
   59.6181   35.0290   47.1176 H   0  0  0  0  0  0  0  0  0  0  0  0
   60.5944   34.9808   45.6106 H   0  0  0  0  0  0  0  0  0  0  0  0
   58.9809   35.7704   45.6106 H   0  0  0  0  0  0  0  0  0  0  0  0
   58.7728   34.1935   43.5599 H   0  0  0  0  0  0  0  0  0  0  0  0
   57.8232   30.6526   46.9471 H   0  0  0  0  0  0  0  0  0  0  0  0
   59.2590   33.8217   48.2882 H   0  0  0  0  0  0  0  0  0  0  0  0
   58.1946   32.4198   48.6860 H   0  0  0  0  0  0  0  0  0  0  0  0
   60.0198   30.6565   50.0489 H   0  0  0  0  0  0  0  0  0  0  0  0
   59.0412   30.2195   48.6073 H   0  0  0  0  0  0  0  0  0  0  0  0
   60.8154   29.9383   48.6073 H   0  0  0  0  0  0  0  0  0  0  0  0
   61.2375   34.2982   49.3833 H   0  0  0  0  0  0  0  0  0  0  0  0
   63.5690   35.1369   49.0239 H   0  0  0  0  0  0  0  0  0  0  0  0
   65.1681   33.7696   47.6716 H   0  0  0  0  0  0  0  0  0  0  0  0
   64.3960   31.6620   46.7480 H   0  0  0  0  0  0  0  0  0  0  0  0
   57.4256   29.1031   45.0208 H   0  0  0  0  0  0  0  0  0  0  0  0
   55.9163   30.0734   44.7270 H   0  0  0  0  0  0  0  0  0  0  0  0
   58.0570   29.4380   42.7900 H   0  0  0  0  0  0  0  0  0  0  0  0
   56.6173   30.5766   41.1891 H   0  0  0  0  0  0  0  0  0  0  0  0
   55.6460   31.1518   42.6004 H   0  0  0  0  0  0  0  0  0  0  0  0
   58.5461   31.8008   41.9110 H   0  0  0  0  0  0  0  0  0  0  0  0
   57.1333   32.9262   42.0773 H   0  0  0  0  0  0  0  0  0  0  0  0
  1  2  1  0
  2  3  2  0
  3  4  1  0
  4  5  2  0
  5  6  1  0
  6  7  2  0
  7  8  1  0
  8  9  1  0
  9 10  1  0
  9 11  1  0
 11 12  2  0
 12 13  1  0
 13 14  2  0
 14 15  1  0
 15 16  2  0
  5 17  1  0
 17 18  1  0
 18 19  1  0
 19 20  1  0
  7  2  1  0
 16 11  1  0
 20  4  1  0
  1 21  1  0
  1 22  1  0
  1 23  1  0
  3 24  1  0
  6 25  1  0
  8 26  1  0
  8 27  1  0
 10 28  1  0
 10 29  1  0
 10 30  1  0
 12 31  1  0
 13 32  1  0
 14 33  1  0
 15 34  1  0
 17 35  1  0
 17 36  1  0
 18 37  1  0
 19 38  1  0
 19 39  1  0
 20 40  1  0
 20 41  1  0
M  CHG  1  15   1
M  END
>  <UniqueID>  (30) 
27

>  <SMILES>  (30) 
Cc1cc2c(cc1CN(C)c1ccc[nH+]n1)CNCC2

>  <Energy>  (30) 
46.100972401573486

>  <Genealogy>  (30) 
Cc1cc2c(cc1CN(C)c1ccc[nH+]n1)CNCC2 (protonated)
Cc1cc2c(cc1CN(C)c1ccc[nH+]n1)CNCC2 (3D coordinates assigned)
Cc1cc2c(cc1CN(C)c1ccc[nH+]n1)CNCC2 (nonaromatic ring conformer: 46.100972401573486 kcal/mol)

>  <smiles>  (30) 
Cc1cc2c(cc1CN(C)c1cccnn1)CNCC2

>  <score_type>  (30) 
oracle

>  <origin>  (30) 
adg

>  <m_score__min__energy>  (30) 
-6.5999999999999996

>  <m_primary>  (30) 
energy

$$$$
30:0
     RDKit          3D

 49 52  0  0  0  0  0  0  0  0999 V2000
   54.2690   24.5730   45.6100 C   0  0  0  0  0  0  0  0  0  0  0  0
   54.9740   25.7550   45.9790 O   0  0  0  0  0  0  0  0  0  0  0  0
   56.3700   25.8440   46.0910 C   0  0  0  0  0  0  0  0  0  0  0  0
   57.0270   27.0510   46.3990 C   0  0  0  0  0  0  0  0  0  0  0  0
   58.4280   27.0950   46.4920 C   0  0  0  0  0  0  0  0  0  0  0  0
   59.1160   28.3120   46.8260 N   0  0  0  0  0  0  0  0  0  0  0  0
   59.5090   29.3050   45.8630 C   0  0  0  0  0  0  0  0  0  0  0  0
   59.4850   29.0390   44.6310 O   0  0  0  0  0  0  0  0  0  0  0  0
   59.9320   30.6490   46.3200 C   0  0  0  0  0  0  0  0  0  0  0  0
   61.0730   30.7370   47.1340 C   0  0  0  0  0  0  0  0  0  0  0  0
   61.4860   31.9760   47.6480 C   0  0  0  0  0  0  0  0  0  0  0  0
   62.6800   32.0990   48.5230 C   0  0  0  0  0  0  0  0  0  0  0  0
   62.8200   31.3150   49.6870 C   0  0  0  0  0  0  0  0  0  0  0  0
   63.9560   31.4400   50.4930 C   0  0  0  0  0  0  0  0  0  0  0  0
   64.9660   32.3400   50.1470 C   0  0  0  0  0  0  0  0  0  0  0  0
   64.8450   33.1130   48.9900 C   0  0  0  0  0  0  0  0  0  0  0  0
   63.7130   32.9920   48.1800 C   0  0  0  0  0  0  0  0  0  0  0  0
   60.7600   33.0890   47.3580 N   0  0  0  0  0  0  0  0  0  0  0  0
   59.6590   33.0570   46.5630 C   0  0  0  0  0  0  0  0  0  0  0  0
   58.9750   34.2470   46.2910 C   0  0  0  0  0  0  0  0  0  0  0  0
   57.8620   34.2390   45.4480 C   0  0  0  0  0  0  0  0  0  0  0  0
   57.4350   33.0460   44.8660 C   0  0  0  0  0  0  0  0  0  0  0  0
   58.1070   31.8490   45.1330 C   0  0  0  0  0  0  0  0  0  0  0  0
   59.2180   31.8320   46.0050 C   0  0  0  0  0  0  0  0  0  0  0  0
   59.1660   25.9170   46.3120 C   0  0  0  0  0  0  0  0  0  0  0  0
   58.5200   24.7060   46.0030 C   0  0  0  0  0  0  0  0  0  0  0  0
   59.2220   23.5080   45.8030 O   0  0  0  0  0  0  0  0  0  0  0  0
   58.8480   22.5040   44.8650 C   0  0  0  0  0  0  0  0  0  0  0  0
   57.1260   24.6840   45.8910 C   0  0  0  0  0  0  0  0  0  0  0  0
   53.9500   24.0382   46.5168 H   0  0  0  0  0  0  0  0  0  0  0  0
   53.3850   24.8442   45.0142 H   0  0  0  0  0  0  0  0  0  0  0  0
   54.9277   23.9241   45.0142 H   0  0  0  0  0  0  0  0  0  0  0  0
   56.4392   27.9653   46.5679 H   0  0  0  0  0  0  0  0  0  0  0  0
   59.4330   28.4420   47.8140 H   0  0  0  0  0  0  0  0  0  0  0  0
   61.6469   29.8288   47.3703 H   0  0  0  0  0  0  0  0  0  0  0  0
   62.0304   30.6005   49.9627 H   0  0  0  0  0  0  0  0  0  0  0  0
   64.0541   30.8279   51.4017 H   0  0  0  0  0  0  0  0  0  0  0  0
   65.8563   32.4401   50.7852 H   0  0  0  0  0  0  0  0  0  0  0  0
   65.6429   33.8188   48.7158 H   0  0  0  0  0  0  0  0  0  0  0  0
   63.6282   33.5994   47.2668 H   0  0  0  0  0  0  0  0  0  0  0  0
   59.3149   35.1908   46.7423 H   0  0  0  0  0  0  0  0  0  0  0  0
   57.3214   35.1748   45.2428 H   0  0  0  0  0  0  0  0  0  0  0  0
   56.5648   33.0464   44.1932 H   0  0  0  0  0  0  0  0  0  0  0  0
   57.7683   30.9149   44.6610 H   0  0  0  0  0  0  0  0  0  0  0  0
   60.2611   25.9396   46.4133 H   0  0  0  0  0  0  0  0  0  0  0  0
   58.5132   21.6053   45.4038 H   0  0  0  0  0  0  0  0  0  0  0  0
   58.0293   22.8791   44.2333 H   0  0  0  0  0  0  0  0  0  0  0  0
   59.7126   22.2520   44.2333 H   0  0  0  0  0  0  0  0  0  0  0  0
   56.6169   23.7412   45.6421 H   0  0  0  0  0  0  0  0  0  0  0  0
  1  2  1  0
  2  3  1  0
  3  4  2  0
  4  5  1  0
  5  6  1  0
  6  7  1  0
  7  8  2  0
  7  9  1  0
  9 10  2  0
 10 11  1  0
 11 12  1  0
 12 13  2  0
 13 14  1  0
 14 15  2  0
 15 16  1  0
 16 17  2  0
 11 18  2  0
 18 19  1  0
 19 20  2  0
 20 21  1  0
 21 22  2  0
 22 23  1  0
 23 24  2  0
  5 25  2  0
 25 26  1  0
 26 27  1  0
 27 28  1  0
 26 29  2  0
 29  3  1  0
 24  9  1  0
 17 12  1  0
 24 19  1  0
  1 30  1  0
  1 31  1  0
  1 32  1  0
  4 33  1  0
  6 34  1  0
 10 35  1  0
 13 36  1  0
 14 37  1  0
 15 38  1  0
 16 39  1  0
 17 40  1  0
 20 41  1  0
 21 42  1  0
 22 43  1  0
 23 44  1  0
 25 45  1  0
 28 46  1  0
 28 47  1  0
 28 48  1  0
 29 49  1  0
M  END
>  <UniqueID>  (31) 
28

>  <SMILES>  (31) 
COc1cc(NC(=O)c2cc(-c3ccccc3)nc3ccccc23)cc(OC)c1

>  <Energy>  (31) 
69.78993728105556

>  <Genealogy>  (31) 
COc1cc(NC(=O)c2cc(-c3ccccc3)nc3ccccc23)cc(OC)c1 (3D coordinates assigned)
COc1cc(NC(=O)c2cc(-c3ccccc3)nc3ccccc23)cc(OC)c1 (optimized conformer: 69.78993728105556 kcal/mol)

>  <smiles>  (31) 
COc1cc(NC(=O)c2cc(-c3ccccc3)nc3ccccc23)cc(OC)c1

>  <score_type>  (31) 
oracle

>  <origin>  (31) 
adg

>  <m_score__min__energy>  (31) 
-8.9800000000000004

>  <m_primary>  (31) 
energy

$$$$
31:0
     RDKit          3D

 31 33  0  0  0  0  0  0  0  0999 V2000
   64.0660   33.4400   49.1640 C   0  0  0  0  0  0  0  0  0  0  0  0
   63.0420   33.8440   50.0230 C   0  0  0  0  0  0  0  0  0  0  0  0
   61.7950   34.2110   49.5050 C   0  0  0  0  0  0  0  0  0  0  0  0
   61.5700   34.1930   48.1200 C   0  0  0  0  0  0  0  0  0  0  0  0
   60.2730   34.5470   47.6100 N   0  0  0  0  0  0  0  0  0  0  0  0
   59.4780   33.7080   46.7530 C   0  0  0  0  0  0  0  0  0  0  0  0
   58.5160   34.2510   45.8860 C   0  0  0  0  0  0  0  0  0  0  0  0
   57.7360   33.4170   45.0820 C   0  0  0  0  0  0  0  0  0  0  0  0
   57.8890   32.0170   45.1400 C   0  0  0  0  0  0  0  0  0  0  0  0
   57.0960   31.1390   44.3140 N   0  0  0  0  0  0  0  0  0  0  0  0
   57.2570   30.8850   42.9980 C   0  0  0  0  0  0  0  0  0  0  0  0
   56.2810   29.9970   42.5980 C   0  0  0  0  0  0  0  0  0  0  0  0
   55.5460   29.7470   43.7380 C   0  0  0  0  0  0  0  0  0  0  0  0
   56.0560   30.4510   44.7660 N   0  0  0  0  0  0  0  0  0  0  0  0
   58.8430   31.4800   46.0230 C   0  0  0  0  0  0  0  0  0  0  0  0
   59.6210   32.3170   46.8280 C   0  0  0  0  0  0  0  0  0  0  0  0
   62.6000   33.7630   47.2620 C   0  0  0  0  0  0  0  0  0  0  0  0
   63.8440   33.3950   47.7850 C   0  0  0  0  0  0  0  0  0  0  0  0
   65.0473   33.1572   49.5727 H   0  0  0  0  0  0  0  0  0  0  0  0
   63.2159   33.8738   51.1088 H   0  0  0  0  0  0  0  0  0  0  0  0
   60.9871   34.5151   50.1868 H   0  0  0  0  0  0  0  0  0  0  0  0
   59.8810   35.4780   47.8810 H   0  0  0  0  0  0  0  0  0  0  0  0
   58.3758   35.3411   45.8398 H   0  0  0  0  0  0  0  0  0  0  0  0
   56.9957   33.8566   44.3974 H   0  0  0  0  0  0  0  0  0  0  0  0
   58.0369   31.3149   42.3523 H   0  0  0  0  0  0  0  0  0  0  0  0
   56.1234   29.5802   41.5923 H   0  0  0  0  0  0  0  0  0  0  0  0
   54.6767   29.0756   43.7980 H   0  0  0  0  0  0  0  0  0  0  0  0
   58.9783   30.3899   46.0807 H   0  0  0  0  0  0  0  0  0  0  0  0
   60.3508   31.8799   47.5254 H   0  0  0  0  0  0  0  0  0  0  0  0
   62.4259   33.7163   46.1769 H   0  0  0  0  0  0  0  0  0  0  0  0
   64.6490   33.0696   47.1096 H   0  0  0  0  0  0  0  0  0  0  0  0
  1  2  2  0
  2  3  1  0
  3  4  2  0
  4  5  1  0
  5  6  1  0
  6  7  2  0
  7  8  1  0
  8  9  2  0
  9 10  1  0
 10 11  1  0
 11 12  2  0
 12 13  1  0
 13 14  2  0
  9 15  1  0
 15 16  2  0
  4 17  1  0
 17 18  2  0
 18  1  1  0
 16  6  1  0
 14 10  1  0
  1 19  1  0
  2 20  1  0
  3 21  1  0
  5 22  1  0
  7 23  1  0
  8 24  1  0
 11 25  1  0
 12 26  1  0
 13 27  1  0
 15 28  1  0
 16 29  1  0
 17 30  1  0
 18 31  1  0
M  END
>  <UniqueID>  (32) 
29

>  <SMILES>  (32) 
c1ccc(Nc2ccc(-n3cccn3)cc2)cc1

>  <Energy>  (32) 
71.05780856889159

>  <Genealogy>  (32) 
c1ccc(Nc2ccc(-n3cccn3)cc2)cc1 (3D coordinates assigned)
c1ccc(Nc2ccc(-n3cccn3)cc2)cc1 (optimized conformer: 71.05780856889159 kcal/mol)

>  <smiles>  (32) 
c1ccc(Nc2ccc(-n3cccn3)cc2)cc1

>  <score_type>  (32) 
oracle

>  <origin>  (32) 
adg

>  <m_score__min__energy>  (32) 
-7.0599999999999996

>  <m_primary>  (32) 
energy

$$$$
32:0
     RDKit          3D

 43 44  0  0  0  0  0  0  0  0999 V2000
   60.0830   30.3930   48.3930 C   0  0  0  0  0  0  0  0  0  0  0  0
   59.7010   31.3540   47.4350 O   0  0  0  0  0  0  0  0  0  0  0  0
   58.5450   32.0370   47.8820 C   0  0  0  0  0  0  0  0  0  0  0  0
   58.3960   33.3820   47.1230 C   0  0  1  0  0  0  0  0  0  0  0  0
   59.6150   34.2680   47.4970 C   0  0  0  0  0  0  0  0  0  0  0  0
   59.6450   35.5730   46.7100 C   0  0  0  0  0  0  0  0  0  0  0  0
   59.5970   35.2760   45.2190 C   0  0  0  0  0  0  0  0  0  0  0  0
   58.3440   34.4650   44.9030 C   0  0  0  0  0  0  0  0  0  0  0  0
   58.3330   33.1820   45.6430 N   0  0  0  0  0  0  0  0  0  0  0  0
   57.2100   32.3280   45.1620 C   0  0  0  0  0  0  0  0  0  0  0  0
   57.5910   30.9060   44.9950 N   0  0  0  0  0  0  0  0  0  0  0  0
   58.8810   30.5550   45.1150 N   0  0  0  0  0  0  0  0  0  0  0  0
   59.3010   29.2620   44.9910 C   0  0  0  0  0  0  0  0  0  0  0  0
   60.7620   28.9340   45.1640 C   0  0  0  0  0  0  0  0  0  0  0  0
   58.3590   28.2550   44.7160 C   0  0  0  0  0  0  0  0  0  0  0  0
   58.7600   26.8120   44.5650 C   0  0  0  0  0  0  0  0  0  0  0  0
   57.0250   28.6250   44.5440 C   0  0  0  0  0  0  0  0  0  0  0  0
   56.6500   29.9580   44.6790 C   0  0  0  0  0  0  0  0  0  0  0  0
   55.4420   30.2730   44.5060 O   0  0  0  0  0  0  0  0  0  0  0  0
   59.9220   30.7980   49.4030 H   0  0  0  0  0  0  0  0  0  0  0  0
   59.4779   29.4838   48.2618 H   0  0  0  0  0  0  0  0  0  0  0  0
   61.1472   30.1473   48.2618 H   0  0  0  0  0  0  0  0  0  0  0  0
   57.6584   31.4133   47.6952 H   0  0  0  0  0  0  0  0  0  0  0  0
   58.6391   32.2390   48.9592 H   0  0  0  0  0  0  0  0  0  0  0  0
   57.4524   33.8657   47.4155 H   0  0  0  0  0  0  0  0  0  0  0  0
   59.5652   34.5033   48.5704 H   0  0  0  0  0  0  0  0  0  0  0  0
   60.5278   33.7056   47.2509 H   0  0  0  0  0  0  0  0  0  0  0  0
   58.7761   36.1874   46.9882 H   0  0  0  0  0  0  0  0  0  0  0  0
   60.5726   36.1165   46.9427 H   0  0  0  0  0  0  0  0  0  0  0  0
   59.5734   36.2214   44.6572 H   0  0  0  0  0  0  0  0  0  0  0  0
   60.4890   34.7007   44.9304 H   0  0  0  0  0  0  0  0  0  0  0  0
   57.4571   35.0503   45.1873 H   0  0  0  0  0  0  0  0  0  0  0  0
   58.3355   34.2445   43.8254 H   0  0  0  0  0  0  0  0  0  0  0  0
   56.3884   32.3869   45.8910 H   0  0  0  0  0  0  0  0  0  0  0  0
   56.9113   32.7057   44.1730 H   0  0  0  0  0  0  0  0  0  0  0  0
   59.5980   31.2880   45.3010 H   0  0  0  0  0  0  0  0  0  0  0  0
   61.0013   28.8803   46.2363 H   0  0  0  0  0  0  0  0  0  0  0  0
   60.9787   27.9648   44.6910 H   0  0  0  0  0  0  0  0  0  0  0  0
   61.3722   29.7175   44.6910 H   0  0  0  0  0  0  0  0  0  0  0  0
   58.8855   26.3603   45.5601 H   0  0  0  0  0  0  0  0  0  0  0  0
   57.9784   26.2701   44.0123 H   0  0  0  0  0  0  0  0  0  0  0  0
   59.7091   26.7511   44.0123 H   0  0  0  0  0  0  0  0  0  0  0  0
   56.2697   27.8629   44.3017 H   0  0  0  0  0  0  0  0  0  0  0  0
  1  2  1  0
  2  3  1  0
  3  4  1  0
  4  5  1  0
  5  6  1  0
  6  7  1  0
  7  8  1  0
  8  9  1  0
  9 10  1  0
 10 11  1  0
 11 12  1  0
 12 13  2  0
 13 14  1  0
 13 15  1  0
 15 16  1  0
 15 17  2  0
 17 18  1  0
 18 19  2  0
  9  4  1  0
 18 11  1  0
  1 20  1  0
  1 21  1  0
  1 22  1  0
  3 23  1  0
  3 24  1  0
  4 25  1  1
  5 26  1  0
  5 27  1  0
  6 28  1  0
  6 29  1  0
  7 30  1  0
  7 31  1  0
  8 32  1  0
  8 33  1  0
 10 34  1  0
 10 35  1  0
 12 36  1  0
 14 37  1  0
 14 38  1  0
 14 39  1  0
 16 40  1  0
 16 41  1  0
 16 42  1  0
 17 43  1  0
M  CHG  1  12   1
M  END
>  <UniqueID>  (33) 
30

>  <SMILES>  (33) 
COC[C@H]1CCCCN1Cn1[nH+]c(C)c(C)cc1=O

>  <Energy>  (33) 
47.72420340714172

>  <Genealogy>  (33) 
COCC1CCCCN1Cn1[nH+]c(C)c(C)cc1=O (protonated)
COC[C@H]1CCCCN1Cn1[nH+]c(C)c(C)cc1=O (chirality)
COC[C@H]1CCCCN1Cn1[nH+]c(C)c(C)cc1=O (3D coordinates assigned)
COC[C@H]1CCCCN1Cn1[nH+]c(C)c(C)cc1=O (nonaromatic ring conformer: 47.72420340714172 kcal/mol)

>  <smiles>  (33) 
COCC1CCCCN1Cn1nc(C)c(C)cc1=O

>  <score_type>  (33) 
oracle

>  <origin>  (33) 
adg

>  <m_score__min__energy>  (33) 
-4.8899999999999997

>  <m_primary>  (33) 
energy

$$$$
33:0
     RDKit          3D

 58 61  0  0  0  0  0  0  0  0999 V2000
   57.0970   31.6000   43.7080 C   0  0  0  0  0  0  0  0  0  0  0  0
   56.8490   30.8220   44.8750 O   0  0  0  0  0  0  0  0  0  0  0  0
   57.5880   29.6890   45.2410 C   0  0  0  0  0  0  0  0  0  0  0  0
   57.7950   28.5970   44.3530 C   0  0  0  0  0  0  0  0  0  0  0  0
   58.5460   27.4790   44.7550 C   0  0  0  0  0  0  0  0  0  0  0  0
   59.0730   27.4700   46.0470 C   0  0  0  0  0  0  0  0  0  0  0  0
   58.8780   28.5210   46.9070 C   0  0  0  0  0  0  0  0  0  0  0  0
   58.1420   29.6470   46.5350 C   0  0  0  0  0  0  0  0  0  0  0  0
   59.5590   28.2200   48.0740 C   0  0  0  0  0  0  0  0  0  0  0  0
   59.7800   29.1070   49.2730 C   0  0  0  0  0  0  0  0  0  0  0  0
   60.4850   30.3550   48.8970 N   0  0  0  0  0  0  0  0  0  0  0  0
   61.4920   30.7370   49.9230 C   0  0  0  0  0  0  0  0  0  0  0  0
   62.6560   31.5790   49.3550 C   0  0  0  0  0  0  0  0  0  0  0  0
   62.2560   32.3920   48.1870 N   0  0  0  0  0  0  0  0  0  0  0  0
   61.3910   33.5420   48.5370 C   0  0  0  0  0  0  0  0  0  0  0  0
   60.2110   33.6520   47.5980 C   0  0  0  0  0  0  0  0  0  0  0  0
   60.3600   34.3600   46.3950 C   0  0  0  0  0  0  0  0  0  0  0  0
   59.2840   34.5020   45.5180 C   0  0  0  0  0  0  0  0  0  0  0  0
   58.0470   33.9400   45.8350 C   0  0  0  0  0  0  0  0  0  0  0  0
   57.8800   33.2390   47.0300 C   0  0  0  0  0  0  0  0  0  0  0  0
   58.9580   33.0880   47.9260 C   0  0  0  0  0  0  0  0  0  0  0  0
   58.8160   32.3960   49.1410 O   0  0  0  0  0  0  0  0  0  0  0  0
   58.8950   32.9920   50.4310 C   0  0  0  0  0  0  0  0  0  0  0  0
   61.6940   31.5610   47.0910 C   0  0  0  0  0  0  0  0  0  0  0  0
   61.1120   30.2120   47.5700 C   0  0  0  0  0  0  0  0  0  0  0  0
   60.1540   26.9820   47.8560 C   0  0  0  0  0  0  0  0  0  0  0  0
   59.8410   26.5230   46.6210 N   0  0  0  0  0  0  0  0  0  0  0  0
   60.3400   25.2980   46.0060 C   0  0  0  0  0  0  0  0  0  0  0  0
   57.4189   32.6099   44.0022 H   0  0  0  0  0  0  0  0  0  0  0  0
   57.8875   31.1227   43.1103 H   0  0  0  0  0  0  0  0  0  0  0  0
   56.1761   31.6683   43.1103 H   0  0  0  0  0  0  0  0  0  0  0  0
   57.3631   28.6279   43.3418 H   0  0  0  0  0  0  0  0  0  0  0  0
   58.7136   26.6347   44.0702 H   0  0  0  0  0  0  0  0  0  0  0  0
   57.9980   30.4822   47.2362 H   0  0  0  0  0  0  0  0  0  0  0  0
   58.8051   29.3647   49.7126 H   0  0  0  0  0  0  0  0  0  0  0  0
   60.4021   28.5619   49.9981 H   0  0  0  0  0  0  0  0  0  0  0  0
   59.7610   31.1070   48.8260 H   0  0  0  0  0  0  0  0  0  0  0  0
   60.9876   31.3223   50.7059 H   0  0  0  0  0  0  0  0  0  0  0  0
   61.9258   29.8055   50.3155 H   0  0  0  0  0  0  0  0  0  0  0  0
   63.0206   32.2528   50.1443 H   0  0  0  0  0  0  0  0  0  0  0  0
   63.4384   30.8814   49.0216 H   0  0  0  0  0  0  0  0  0  0  0  0
   61.0198   33.4108   49.5641 H   0  0  0  0  0  0  0  0  0  0  0  0
   61.9878   34.4621   48.4516 H   0  0  0  0  0  0  0  0  0  0  0  0
   61.3329   34.8065   46.1417 H   0  0  0  0  0  0  0  0  0  0  0  0
   59.4110   35.0570   44.5768 H   0  0  0  0  0  0  0  0  0  0  0  0
   57.2008   34.0498   45.1408 H   0  0  0  0  0  0  0  0  0  0  0  0
   56.9009   32.8014   47.2745 H   0  0  0  0  0  0  0  0  0  0  0  0
   58.7918   32.2137   51.2014 H   0  0  0  0  0  0  0  0  0  0  0  0
   59.8675   33.4935   50.5443 H   0  0  0  0  0  0  0  0  0  0  0  0
   58.0868   33.7295   50.5443 H   0  0  0  0  0  0  0  0  0  0  0  0
   60.8913   32.1307   46.5999 H   0  0  0  0  0  0  0  0  0  0  0  0
   62.5231   31.3284   46.4065 H   0  0  0  0  0  0  0  0  0  0  0  0
   60.3557   29.8688   46.8487 H   0  0  0  0  0  0  0  0  0  0  0  0
   61.9303   29.4805   47.6432 H   0  0  0  0  0  0  0  0  0  0  0  0
   60.7877   26.4519   48.5823 H   0  0  0  0  0  0  0  0  0  0  0  0
   60.6304   24.5852   46.7918 H   0  0  0  0  0  0  0  0  0  0  0  0
   59.5512   24.8537   45.3812 H   0  0  0  0  0  0  0  0  0  0  0  0
   61.2147   25.5314   45.3812 H   0  0  0  0  0  0  0  0  0  0  0  0
  1  2  1  0
  2  3  1  0
  3  4  2  0
  4  5  1  0
  5  6  2  0
  6  7  1  0
  7  8  2  0
  7  9  1  0
  9 10  1  0
 10 11  1  0
 11 12  1  0
 12 13  1  0
 13 14  1  0
 14 15  1  0
 15 16  1  0
 16 17  2  0
 17 18  1  0
 18 19  2  0
 19 20  1  0
 20 21  2  0
 21 22  1  0
 22 23  1  0
 14 24  1  0
 24 25  1  0
  9 26  2  0
 26 27  1  0
 27 28  1  0
  8  3  1  0
 25 11  1  0
 27  6  1  0
 21 16  1  0
  1 29  1  0
  1 30  1  0
  1 31  1  0
  4 32  1  0
  5 33  1  0
  8 34  1  0
 10 35  1  0
 10 36  1  0
 11 37  1  0
 12 38  1  0
 12 39  1  0
 13 40  1  0
 13 41  1  0
 15 42  1  0
 15 43  1  0
 17 44  1  0
 18 45  1  0
 19 46  1  0
 20 47  1  0
 23 48  1  0
 23 49  1  0
 23 50  1  0
 24 51  1  0
 24 52  1  0
 25 53  1  0
 25 54  1  0
 26 55  1  0
 28 56  1  0
 28 57  1  0
 28 58  1  0
M  CHG  1  11   1
M  END
>  <UniqueID>  (34) 
31

>  <SMILES>  (34) 
COc1ccc2c(c1)c(C[NH+]1CCN(Cc3ccccc3OC)CC1)cn2C

>  <Energy>  (34) 
104.80287408578153

>  <Genealogy>  (34) 
COc1ccc2c(c1)c(C[NH+]1CCN(Cc3ccccc3OC)CC1)cn2C (protonated)
COc1ccc2c(c1)c(C[NH+]1CCN(Cc3ccccc3OC)CC1)cn2C (3D coordinates assigned)
COc1ccc2c(c1)c(C[NH+]1CCN(Cc3ccccc3OC)CC1)cn2C (nonaromatic ring conformer: 104.80287408578153 kcal/mol)

>  <smiles>  (34) 
COc1ccc2c(c1)c(CN1CCN(Cc3ccccc3OC)CC1)cn2C

>  <score_type>  (34) 
oracle

>  <origin>  (34) 
adg

>  <m_score__min__energy>  (34) 
-5.8399999999999999

>  <m_primary>  (34) 
energy

$$$$
34:0
     RDKit          3D

 40 43  0  0  0  0  0  0  0  0999 V2000
   56.6560   27.0480   45.6390 C   0  0  0  0  0  0  0  0  0  0  0  0
   55.9170   28.2010   45.2480 O   0  0  0  0  0  0  0  0  0  0  0  0
   56.4730   29.3220   44.6120 C   0  0  0  0  0  0  0  0  0  0  0  0
   56.0880   29.7190   43.3150 C   0  0  0  0  0  0  0  0  0  0  0  0
   56.6690   30.8430   42.7160 C   0  0  0  0  0  0  0  0  0  0  0  0
   57.6360   31.5840   43.3990 C   0  0  0  0  0  0  0  0  0  0  0  0
   58.0260   31.2020   44.6850 C   0  0  0  0  0  0  0  0  0  0  0  0
   58.9550   31.9180   45.3650 N   0  0  0  0  0  0  0  0  0  0  0  0
   59.3510   31.5750   46.6220 C   0  0  0  0  0  0  0  0  0  0  0  0
   60.3100   32.4630   47.3170 C   0  0  0  0  0  0  0  0  0  0  0  0
   61.6960   32.3360   47.1100 C   0  0  0  0  0  0  0  0  0  0  0  0
   62.5890   33.1730   47.7840 C   0  0  0  0  0  0  0  0  0  0  0  0
   62.1100   34.1310   48.6820 C   0  0  0  0  0  0  0  0  0  0  0  0
   62.9790   34.9410   49.3360 F   0  0  0  0  0  0  0  0  0  0  0  0
   60.7370   34.2490   48.9110 C   0  0  0  0  0  0  0  0  0  0  0  0
   59.8400   33.4140   48.2380 C   0  0  0  0  0  0  0  0  0  0  0  0
   58.7970   30.4140   47.2200 C   0  0  0  0  0  0  0  0  0  0  0  0
   59.2290   29.8980   48.5380 C   0  0  0  0  0  0  0  0  0  0  0  0
   60.0190   28.7380   48.6380 C   0  0  0  0  0  0  0  0  0  0  0  0
   60.4080   28.2550   49.8900 C   0  0  0  0  0  0  0  0  0  0  0  0
   60.0010   28.9160   51.0530 C   0  0  0  0  0  0  0  0  0  0  0  0
   60.3800   28.4450   52.2670 F   0  0  0  0  0  0  0  0  0  0  0  0
   59.1980   30.0560   50.9640 C   0  0  0  0  0  0  0  0  0  0  0  0
   58.8070   30.5420   49.7120 C   0  0  0  0  0  0  0  0  0  0  0  0
   57.8520   29.7120   46.5360 N   0  0  0  0  0  0  0  0  0  0  0  0
   57.4460   30.0720   45.2910 C   0  0  0  0  0  0  0  0  0  0  0  0
   56.6926   26.9909   46.7369 H   0  0  0  0  0  0  0  0  0  0  0  0
   56.1669   26.1467   45.2410 H   0  0  0  0  0  0  0  0  0  0  0  0
   57.6792   27.1160   45.2410 H   0  0  0  0  0  0  0  0  0  0  0  0
   55.3263   29.1418   42.7703 H   0  0  0  0  0  0  0  0  0  0  0  0
   56.3627   31.1438   41.7032 H   0  0  0  0  0  0  0  0  0  0  0  0
   58.0898   32.4669   42.9252 H   0  0  0  0  0  0  0  0  0  0  0  0
   62.0782   31.5743   46.4144 H   0  0  0  0  0  0  0  0  0  0  0  0
   63.6706   33.0779   47.6076 H   0  0  0  0  0  0  0  0  0  0  0  0
   60.3611   34.9998   49.6217 H   0  0  0  0  0  0  0  0  0  0  0  0
   58.7606   33.5022   48.4307 H   0  0  0  0  0  0  0  0  0  0  0  0
   60.3319   28.2087   47.7259 H   0  0  0  0  0  0  0  0  0  0  0  0
   61.0350   27.3540   49.9608 H   0  0  0  0  0  0  0  0  0  0  0  0
   58.8730   30.5719   51.8795 H   0  0  0  0  0  0  0  0  0  0  0  0
   58.1656   31.4333   49.6469 H   0  0  0  0  0  0  0  0  0  0  0  0
  1  2  1  0
  2  3  1  0
  3  4  2  0
  4  5  1  0
  5  6  2  0
  6  7  1  0
  7  8  2  0
  8  9  1  0
  9 10  1  0
 10 11  2  0
 11 12  1  0
 12 13  2  0
 13 14  1  0
 13 15  1  0
 15 16  2  0
  9 17  2  0
 17 18  1  0
 18 19  2  0
 19 20  1  0
 20 21  2  0
 21 22  1  0
 21 23  1  0
 23 24  2  0
 17 25  1  0
 25 26  2  0
 26  3  1  0
 26  7  1  0
 16 10  1  0
 24 18  1  0
  1 27  1  0
  1 28  1  0
  1 29  1  0
  4 30  1  0
  5 31  1  0
  6 32  1  0
 11 33  1  0
 12 34  1  0
 15 35  1  0
 16 36  1  0
 19 37  1  0
 20 38  1  0
 23 39  1  0
 24 40  1  0
M  END
>  <UniqueID>  (35) 
32

>  <SMILES>  (35) 
COc1cccc2nc(-c3ccc(F)cc3)c(-c3ccc(F)cc3)nc12

>  <Energy>  (35) 
59.59789052600566

>  <Genealogy>  (35) 
COc1cccc2nc(-c3ccc(F)cc3)c(-c3ccc(F)cc3)nc12 (3D coordinates assigned)
COc1cccc2nc(-c3ccc(F)cc3)c(-c3ccc(F)cc3)nc12 (optimized conformer: 59.59789052600566 kcal/mol)

>  <smiles>  (35) 
COc1cccc2nc(-c3ccc(F)cc3)c(-c3ccc(F)cc3)nc12

>  <score_type>  (35) 
oracle

>  <origin>  (35) 
adg

>  <m_score__min__energy>  (35) 
-7.71

>  <m_primary>  (35) 
energy

$$$$
35:0
     RDKit          3D

 34 34  0  0  0  0  0  0  0  0999 V2000
   58.0951   32.6314   43.2097 H   0  0  0  0  0  0  0  0  0  0  0  0
   57.6230   31.7340   43.6360 C   0  0  0  0  0  0  0  0  0  0  0  0
   57.6470   31.5110   45.0180 C   0  0  0  0  0  0  0  0  0  0  0  0
   58.3270   32.4800   45.9300 C   0  0  0  0  0  0  0  0  0  0  0  0
   58.1303   32.1997   46.9753 H   0  0  0  0  0  0  0  0  0  0  0  0
   59.4108   32.4609   45.7430 H   0  0  0  0  0  0  0  0  0  0  0  0
   57.9405   33.4927   45.7430 H   0  0  0  0  0  0  0  0  0  0  0  0
   57.0700   30.3880   45.5290 N   0  0  0  0  0  0  0  0  0  0  0  0
   56.4500   29.4660   44.7380 C   0  0  0  0  0  0  0  0  0  0  0  0
   55.9050   28.3960   45.2440 N   0  0  0  0  0  0  0  0  0  0  0  0
   56.5730   27.3460   45.9620 C   0  0  0  0  0  0  0  0  0  0  0  0
   55.9400   26.3480   46.4030 O   0  0  0  0  0  0  0  0  0  0  0  0
   58.0440   27.4540   46.2230 C   0  0  0  0  0  0  0  0  0  0  0  0
   58.3117   26.7926   47.0602 H   0  0  0  0  0  0  0  0  0  0  0  0
   58.2836   28.4987   46.4704 H   0  0  0  0  0  0  0  0  0  0  0  0
   58.8180   27.0590   45.0250 N   0  0  0  0  0  0  0  0  0  0  0  0
   57.9510   26.3520   44.0580 C   0  0  0  0  0  0  0  0  0  0  0  0
   56.9001   26.4752   44.3588 H   0  0  0  0  0  0  0  0  0  0  0  0
   58.2254   25.2868   44.0519 H   0  0  0  0  0  0  0  0  0  0  0  0
   58.1380   26.9140   42.6490 C   0  0  0  0  0  0  0  0  0  0  0  0
   58.4847   27.9560   42.7129 H   0  0  0  0  0  0  0  0  0  0  0  0
   58.8841   26.3117   42.1100 H   0  0  0  0  0  0  0  0  0  0  0  0
   57.1797   26.8788   42.1100 H   0  0  0  0  0  0  0  0  0  0  0  0
   59.5040   28.2240   44.4040 C   0  0  0  0  0  0  0  0  0  0  0  0
   60.1196   27.8791   43.5601 H   0  0  0  0  0  0  0  0  0  0  0  0
   58.7517   28.9406   44.0427 H   0  0  0  0  0  0  0  0  0  0  0  0
   60.3940   28.9030   45.4360 C   0  0  0  0  0  0  0  0  0  0  0  0
   60.0495   28.6401   46.4470 H   0  0  0  0  0  0  0  0  0  0  0  0
   61.4325   28.5656   45.3033 H   0  0  0  0  0  0  0  0  0  0  0  0
   60.3430   29.9938   45.3033 H   0  0  0  0  0  0  0  0  0  0  0  0
   56.4040   29.6660   43.3540 C   0  0  0  0  0  0  0  0  0  0  0  0
   55.9070   28.9310   42.7038 H   0  0  0  0  0  0  0  0  0  0  0  0
   56.9940   30.8060   42.8050 C   0  0  0  0  0  0  0  0  0  0  0  0
   56.9631   30.9726   41.7181 H   0  0  0  0  0  0  0  0  0  0  0  0
  1  2  1  0
  2  3  2  0
  3  4  1  0
  4  5  1  0
  4  6  1  0
  4  7  1  0
  3  8  1  0
  8  9  1  0
  9 10  2  0
 10 11  1  0
 11 12  2  0
 11 13  1  0
 13 14  1  0
 13 15  1  0
 13 16  1  0
 16 17  1  0
 17 18  1  0
 17 19  1  0
 17 20  1  0
 20 21  1  0
 20 22  1  0
 20 23  1  0
 16 24  1  0
 24 25  1  0
 24 26  1  0
 24 27  1  0
 27 28  1  0
 27 29  1  0
 27 30  1  0
  9 31  1  0
 31 32  1  0
 31 33  2  0
 33 34  1  0
 33  2  1  0
M  CHG  1   8  -1
M  END
>  <UniqueID>  (36) 
33

>  <SMILES>  (36) 
CCN(CC)CC(=O)/N=c1/cccc(C)[n-]1

>  <Energy>  (36) 
31.631991087977138

>  <Genealogy>  (36) 
CCN(CC)CC(=O)N=c1cccc(C)[n-]1 (protonated)
CCN(CC)CC(=O)/N=c1/cccc(C)[n-]1 (cis-trans isomerization)
CCN(CC)CC(=O)/N=c1/cccc(C)[n-]1 (3D coordinates assigned)
CCN(CC)CC(=O)/N=c1/cccc(C)[n-]1 (optimized conformer: 31.631991087977138 kcal/mol)

>  <smiles>  (36) 
CCN(CC)CC(=O)N=c1cccc(C)[nH]1

>  <score_type>  (36) 
oracle

>  <origin>  (36) 
adg

>  <m_score__min__energy>  (36) 
-7.79

>  <m_primary>  (36) 
energy

$$$$
36:0
     RDKit          3D

 47 48  0  0  0  0  0  0  0  0999 V2000
   56.2260   22.4440   47.9280 C   0  0  0  0  0  0  0  0  0  0  0  0
   56.3250   21.7770   46.5510 C   0  0  0  0  0  0  0  0  0  0  0  0
   56.7300   22.7350   45.4890 N   0  0  0  0  0  0  0  0  0  0  0  0
   57.7990   22.1890   44.6110 C   0  0  0  0  0  0  0  0  0  0  0  0
   57.2990   21.5060   43.3350 C   0  0  0  0  0  0  0  0  0  0  0  0
   55.6100   23.3670   44.7300 C   0  0  0  0  0  0  0  0  0  0  0  0
   54.7370   24.3650   45.5250 C   0  0  0  0  0  0  0  0  0  0  0  0
   55.5740   25.4990   46.0270 C   0  0  0  0  0  0  0  0  0  0  0  0
   55.1250   26.6770   45.9870 O   0  0  0  0  0  0  0  0  0  0  0  0
   56.8570   25.2290   46.5990 N   0  0  0  0  0  0  0  0  0  0  0  0
   58.1120   25.7070   46.0230 C   0  0  1  0  0  0  0  0  0  0  0  0
   58.0520   25.6540   44.4830 C   0  0  0  0  0  0  0  0  0  0  0  0
   57.9300   27.0730   44.1010 C   0  0  0  0  0  0  0  0  0  0  0  0
   57.8260   27.4610   42.9060 O   0  0  0  0  0  0  0  0  0  0  0  0
   58.0290   27.9580   45.2050 N   0  0  0  0  0  0  0  0  0  0  0  0
   57.9100   29.3940   45.1620 C   0  0  0  0  0  0  0  0  0  0  0  0
   58.4040   30.1800   46.2190 C   0  0  0  0  0  0  0  0  0  0  0  0
   58.2900   31.5740   46.1790 C   0  0  0  0  0  0  0  0  0  0  0  0
   57.6730   32.1960   45.0920 C   0  0  0  0  0  0  0  0  0  0  0  0
   57.5340   33.9440   45.0420 Cl  0  0  0  0  0  0  0  0  0  0  0  0
   57.1630   31.4240   44.0440 C   0  0  0  0  0  0  0  0  0  0  0  0
   57.2760   30.0310   44.0790 C   0  0  0  0  0  0  0  0  0  0  0  0
   58.3270   27.1880   46.4030 C   0  0  0  0  0  0  0  0  0  0  0  0
   56.3391   21.6822   48.7134 H   0  0  0  0  0  0  0  0  0  0  0  0
   57.0224   23.1960   48.0293 H   0  0  0  0  0  0  0  0  0  0  0  0
   55.2455   22.9323   48.0293 H   0  0  0  0  0  0  0  0  0  0  0  0
   57.0699   20.9692   46.6018 H   0  0  0  0  0  0  0  0  0  0  0  0
   55.3289   21.3886   46.2924 H   0  0  0  0  0  0  0  0  0  0  0  0
   57.2060   23.5270   45.9860 H   0  0  0  0  0  0  0  0  0  0  0  0
   58.4581   23.0196   44.3182 H   0  0  0  0  0  0  0  0  0  0  0  0
   58.3119   21.4116   45.1963 H   0  0  0  0  0  0  0  0  0  0  0  0
   56.6688   20.6451   43.6028 H   0  0  0  0  0  0  0  0  0  0  0  0
   56.7098   22.2217   42.7428 H   0  0  0  0  0  0  0  0  0  0  0  0
   58.1592   21.1606   42.7428 H   0  0  0  0  0  0  0  0  0  0  0  0
   56.0437   23.9053   43.8743 H   0  0  0  0  0  0  0  0  0  0  0  0
   54.9388   22.5429   44.4467 H   0  0  0  0  0  0  0  0  0  0  0  0
   53.9471   24.7593   44.8689 H   0  0  0  0  0  0  0  0  0  0  0  0
   54.2876   23.8438   46.3831 H   0  0  0  0  0  0  0  0  0  0  0  0
   58.9220   25.0687   46.4057 H   0  0  0  0  0  0  0  0  0  0  0  0
   58.9693   25.2112   44.0676 H   0  0  0  0  0  0  0  0  0  0  0  0
   57.2265   25.0332   44.1048 H   0  0  0  0  0  0  0  0  0  0  0  0
   58.8830   29.6955   47.0826 H   0  0  0  0  0  0  0  0  0  0  0  0
   58.6874   32.1811   47.0058 H   0  0  0  0  0  0  0  0  0  0  0  0
   56.6718   31.9136   43.1902 H   0  0  0  0  0  0  0  0  0  0  0  0
   56.8666   29.4288   43.2545 H   0  0  0  0  0  0  0  0  0  0  0  0
   59.3685   27.3550   46.7152 H   0  0  0  0  0  0  0  0  0  0  0  0
   57.6824   27.4855   47.2433 H   0  0  0  0  0  0  0  0  0  0  0  0
  1  2  1  0
  2  3  1  0
  3  4  1  0
  4  5  1  0
  3  6  1  0
  6  7  1  0
  7  8  1  0
  8  9  2  0
  8 10  1  0
 10 11  1  0
 11 12  1  0
 12 13  1  0
 13 14  2  0
 13 15  1  0
 15 16  1  0
 16 17  2  0
 17 18  1  0
 18 19  2  0
 19 20  1  0
 19 21  1  0
 21 22  2  0
 15 23  1  0
 23 11  1  0
 22 16  1  0
  1 24  1  0
  1 25  1  0
  1 26  1  0
  2 27  1  0
  2 28  1  0
  3 29  1  0
  4 30  1  0
  4 31  1  0
  5 32  1  0
  5 33  1  0
  5 34  1  0
  6 35  1  0
  6 36  1  0
  7 37  1  0
  7 38  1  0
 11 39  1  1
 12 40  1  0
 12 41  1  0
 17 42  1  0
 18 43  1  0
 21 44  1  0
 22 45  1  0
 23 46  1  0
 23 47  1  0
M  CHG  2   3   1  10  -1
M  END
>  <UniqueID>  (37) 
34

>  <SMILES>  (37) 
CC[NH+](CC)CCC(=O)[N-][C@H]1CC(=O)N(c2ccc(Cl)cc2)C1

>  <Energy>  (37) 
59.86623233025959

>  <Genealogy>  (37) 
CC[NH+](CC)CCC(=O)[N-]C1CC(=O)N(c2ccc(Cl)cc2)C1 (protonated)
CC[NH+](CC)CCC(=O)[N-][C@H]1CC(=O)N(c2ccc(Cl)cc2)C1 (chirality)
CC[NH+](CC)CCC(=O)[N-][C@H]1CC(=O)N(c2ccc(Cl)cc2)C1 (3D coordinates assigned)
CC[NH+](CC)CCC(=O)[N-][C@H]1CC(=O)N(c2ccc(Cl)cc2)C1 (nonaromatic ring conformer: 59.86623233025959 kcal/mol)

>  <smiles>  (37) 
CCN(CC)CCC(=O)NC1CC(=O)N(c2ccc(Cl)cc2)C1

>  <score_type>  (37) 
oracle

>  <origin>  (37) 
adg

>  <m_score__min__energy>  (37) 
-7.4400000000000004

>  <m_primary>  (37) 
energy

$$$$
37:0
     RDKit          3D

 58 60  0  0  0  0  0  0  0  0999 V2000
   59.7670   30.4170   48.9900 C   0  0  0  0  0  0  0  0  0  0  0  0
   61.2740   30.1710   48.9900 C   0  0  0  0  0  0  0  0  0  0  0  0
   61.9470   30.7630   50.2420 C   0  0  0  0  0  0  0  0  0  0  0  0
   63.3200   31.1910   49.9370 N   0  0  0  0  0  0  0  0  0  0  0  0
   63.4470   32.6620   49.8530 C   0  0  1  0  0  0  0  0  0  0  0  0
   64.8540   33.0940   49.3980 C   0  0  0  0  0  0  0  0  0  0  0  0
   62.3930   33.2010   48.9100 C   0  0  0  0  0  0  0  0  0  0  0  0
   62.5760   33.1450   47.5170 C   0  0  0  0  0  0  0  0  0  0  0  0
   61.6010   33.6520   46.6540 C   0  0  0  0  0  0  0  0  0  0  0  0
   60.4130   34.2010   47.1630 C   0  0  0  0  0  0  0  0  0  0  0  0
   59.3480   34.7530   46.2360 C   0  0  0  0  0  0  0  0  0  0  0  0
   58.3430   33.7460   45.8210 N   0  0  0  0  0  0  0  0  0  0  0  0
   57.7010   34.0160   44.5090 C   0  0  0  0  0  0  0  0  0  0  0  0
   58.0210   32.9520   43.4550 C   0  0  0  0  0  0  0  0  0  0  0  0
   57.6370   31.6110   44.0020 C   0  0  0  0  0  0  0  0  0  0  0  0
   56.9920   30.6520   43.2120 C   0  0  0  0  0  0  0  0  0  0  0  0
   56.6420   29.4170   43.7630 C   0  0  0  0  0  0  0  0  0  0  0  0
   56.9380   29.1190   45.0980 C   0  0  0  0  0  0  0  0  0  0  0  0
   56.5680   27.8550   45.5870 O   0  0  0  0  0  0  0  0  0  0  0  0
   57.4060   26.7000   45.6470 C   0  0  0  0  0  0  0  0  0  0  0  0
   58.5890   26.9260   46.5880 C   0  0  0  0  0  0  0  0  0  0  0  0
   59.5860   27.6180   45.9260 F   0  0  0  0  0  0  0  0  0  0  0  0
   58.1750   27.6670   47.6780 F   0  0  0  0  0  0  0  0  0  0  0  0
   59.0980   25.7200   47.0350 F   0  0  0  0  0  0  0  0  0  0  0  0
   57.6010   30.0830   45.8860 C   0  0  0  0  0  0  0  0  0  0  0  0
   57.9360   31.3320   45.3400 C   0  0  0  0  0  0  0  0  0  0  0  0
   58.7310   32.3430   46.1280 C   0  0  0  0  0  0  0  0  0  0  0  0
   60.2300   34.2570   48.5540 C   0  0  0  0  0  0  0  0  0  0  0  0
   61.2080   33.7590   49.4180 C   0  0  0  0  0  0  0  0  0  0  0  0
   59.4051   30.4761   50.0271 H   0  0  0  0  0  0  0  0  0  0  0  0
   59.5498   31.3625   48.4715 H   0  0  0  0  0  0  0  0  0  0  0  0
   59.2604   29.5897   48.4715 H   0  0  0  0  0  0  0  0  0  0  0  0
   61.4583   29.0868   48.9650 H   0  0  0  0  0  0  0  0  0  0  0  0
   61.7022   30.6639   48.1047 H   0  0  0  0  0  0  0  0  0  0  0  0
   61.3663   31.6305   50.5887 H   0  0  0  0  0  0  0  0  0  0  0  0
   61.9814   29.9912   51.0250 H   0  0  0  0  0  0  0  0  0  0  0  0
   63.9620   30.8140   50.6730 H   0  0  0  0  0  0  0  0  0  0  0  0
   63.2940   33.0801   50.8589 H   0  0  0  0  0  0  0  0  0  0  0  0
   65.4817   33.2867   50.2805 H   0  0  0  0  0  0  0  0  0  0  0  0
   65.3061   32.2933   48.7943 H   0  0  0  0  0  0  0  0  0  0  0  0
   64.7789   34.0105   48.7943 H   0  0  0  0  0  0  0  0  0  0  0  0
   63.4928   32.6991   47.1039 H   0  0  0  0  0  0  0  0  0  0  0  0
   61.7654   33.6208   45.5668 H   0  0  0  0  0  0  0  0  0  0  0  0
   58.8267   35.5717   46.7536 H   0  0  0  0  0  0  0  0  0  0  0  0
   59.8594   35.0935   45.3236 H   0  0  0  0  0  0  0  0  0  0  0  0
   56.6110   34.0501   44.6527 H   0  0  0  0  0  0  0  0  0  0  0  0
   58.0971   34.9736   44.1401 H   0  0  0  0  0  0  0  0  0  0  0  0
   57.4503   33.1556   42.5369 H   0  0  0  0  0  0  0  0  0  0  0  0
   59.0947   32.9685   43.2164 H   0  0  0  0  0  0  0  0  0  0  0  0
   56.7611   30.8706   42.1590 H   0  0  0  0  0  0  0  0  0  0  0  0
   56.1278   28.6701   43.1404 H   0  0  0  0  0  0  0  0  0  0  0  0
   56.8155   25.8464   46.0111 H   0  0  0  0  0  0  0  0  0  0  0  0
   57.7958   26.4987   44.6383 H   0  0  0  0  0  0  0  0  0  0  0  0
   57.8562   29.8553   46.9315 H   0  0  0  0  0  0  0  0  0  0  0  0
   58.5683   32.1598   47.2004 H   0  0  0  0  0  0  0  0  0  0  0  0
   59.7885   32.2230   45.8499 H   0  0  0  0  0  0  0  0  0  0  0  0
   59.3097   34.6963   48.9663 H   0  0  0  0  0  0  0  0  0  0  0  0
   61.0490   33.8041   50.5055 H   0  0  0  0  0  0  0  0  0  0  0  0
  1  2  1  0
  2  3  1  0
  3  4  1  0
  4  5  1  0
  5  6  1  0
  5  7  1  0
  7  8  2  0
  8  9  1  0
  9 10  2  0
 10 11  1  0
 11 12  1  0
 12 13  1  0
 13 14  1  0
 14 15  1  0
 15 16  2  0
 16 17  1  0
 17 18  2  0
 18 19  1  0
 19 20  1  0
 20 21  1  0
 21 22  1  0
 21 23  1  0
 21 24  1  0
 18 25  1  0
 25 26  2  0
 26 27  1  0
 10 28  1  0
 28 29  2  0
 29  7  1  0
 27 12  1  0
 26 15  1  0
  1 30  1  0
  1 31  1  0
  1 32  1  0
  2 33  1  0
  2 34  1  0
  3 35  1  0
  3 36  1  0
  4 37  1  0
  5 38  1  1
  6 39  1  0
  6 40  1  0
  6 41  1  0
  8 42  1  0
  9 43  1  0
 11 44  1  0
 11 45  1  0
 13 46  1  0
 13 47  1  0
 14 48  1  0
 14 49  1  0
 16 50  1  0
 17 51  1  0
 20 52  1  0
 20 53  1  0
 25 54  1  0
 27 55  1  0
 27 56  1  0
 28 57  1  0
 29 58  1  0
M  END
>  <UniqueID>  (38) 
35

>  <SMILES>  (38) 
CCCN[C@@H](C)c1ccc(CN2CCc3ccc(OCC(F)(F)F)cc3C2)cc1

>  <Energy>  (38) 
69.87339643908822

>  <Genealogy>  (38) 
CCCN[C@@H](C)c1ccc(CN2CCc3ccc(OCC(F)(F)F)cc3C2)cc1 (chirality)
CCCN[C@@H](C)c1ccc(CN2CCc3ccc(OCC(F)(F)F)cc3C2)cc1 (3D coordinates assigned)
CCCN[C@@H](C)c1ccc(CN2CCc3ccc(OCC(F)(F)F)cc3C2)cc1 (nonaromatic ring conformer: 69.87339643908822 kcal/mol)

>  <smiles>  (38) 
CCCNC(C)c1ccc(CN2CCc3ccc(OCC(F)(F)F)cc3C2)cc1

>  <score_type>  (38) 
oracle

>  <origin>  (38) 
adg

>  <m_score__min__energy>  (38) 
-8.2400000000000002

>  <m_primary>  (38) 
energy

$$$$
38:0
     RDKit          3D

 45 47  0  0  0  0  0  0  0  0999 V2000
   67.0710   34.7170   51.7030 C   0  0  0  0  0  0  0  0  0  0  0  0
   66.5700   33.5170   51.0200 N   0  0  0  0  0  0  0  0  0  0  0  0
   67.4590   32.3570   50.8810 C   0  0  0  0  0  0  0  0  0  0  0  0
   65.2170   33.4780   50.4950 C   0  0  0  0  0  0  0  0  0  0  0  0
   64.1620   34.1760   51.1480 C   0  0  0  0  0  0  0  0  0  0  0  0
   62.8520   34.1420   50.6460 C   0  0  0  0  0  0  0  0  0  0  0  0
   62.6060   33.4080   49.4910 C   0  0  0  0  0  0  0  0  0  0  0  0
   63.6080   32.7230   48.8390 C   0  0  0  0  0  0  0  0  0  0  0  0
   64.9180   32.7430   49.3200 C   0  0  0  0  0  0  0  0  0  0  0  0
   63.0890   32.0090   47.6240 C   0  0  0  0  0  0  0  0  0  0  0  0
   61.6380   32.3900   47.6820 C   0  0  0  0  0  0  0  0  0  0  0  0
   60.6250   32.0210   46.7970 C   0  0  0  0  0  0  0  0  0  0  0  0
   59.3150   32.4890   47.0270 C   0  0  0  0  0  0  0  0  0  0  0  0
   58.2520   32.1310   46.1220 N   0  0  0  0  0  0  0  0  0  0  0  0
   57.2890   33.1450   45.6680 C   0  0  0  0  0  0  0  0  0  0  0  0
   57.8490   33.9540   44.4970 C   0  0  0  0  0  0  0  0  0  0  0  0
   59.2160   34.9710   45.0220 Cl  0  0  0  0  0  0  0  0  0  0  0  0
   58.0900   30.7320   45.6970 C   0  0  0  0  0  0  0  0  0  0  0  0
   57.6330   30.6540   44.2400 C   0  0  0  0  0  0  0  0  0  0  0  0
   55.9630   30.0410   44.1220 Cl  0  0  0  0  0  0  0  0  0  0  0  0
   59.0550   33.3220   48.1420 C   0  0  0  0  0  0  0  0  0  0  0  0
   60.0880   33.6830   49.0220 C   0  0  0  0  0  0  0  0  0  0  0  0
   61.3700   33.2010   48.7660 C   0  0  0  0  0  0  0  0  0  0  0  0
   67.0103   34.5715   52.7916 H   0  0  0  0  0  0  0  0  0  0  0  0
   68.1178   34.8930   51.4144 H   0  0  0  0  0  0  0  0  0  0  0  0
   66.4601   35.5851   51.4144 H   0  0  0  0  0  0  0  0  0  0  0  0
   67.7408   31.9893   51.8787 H   0  0  0  0  0  0  0  0  0  0  0  0
   66.9383   31.5599   50.3301 H   0  0  0  0  0  0  0  0  0  0  0  0
   68.3640   32.6526   50.3301 H   0  0  0  0  0  0  0  0  0  0  0  0
   64.3771   34.7512   52.0606 H   0  0  0  0  0  0  0  0  0  0  0  0
   62.0397   34.6827   51.1538 H   0  0  0  0  0  0  0  0  0  0  0  0
   65.7114   32.1935   48.7922 H   0  0  0  0  0  0  0  0  0  0  0  0
   63.5681   32.3733   46.7033 H   0  0  0  0  0  0  0  0  0  0  0  0
   63.2784   30.9255   47.6131 H   0  0  0  0  0  0  0  0  0  0  0  0
   60.8445   31.3755   45.9338 H   0  0  0  0  0  0  0  0  0  0  0  0
   56.3639   32.6434   45.3478 H   0  0  0  0  0  0  0  0  0  0  0  0
   57.0881   33.8330   46.5024 H   0  0  0  0  0  0  0  0  0  0  0  0
   58.1943   33.2627   43.7142 H   0  0  0  0  0  0  0  0  0  0  0  0
   57.0536   34.6074   44.1091 H   0  0  0  0  0  0  0  0  0  0  0  0
   59.0528   30.2102   45.8009 H   0  0  0  0  0  0  0  0  0  0  0  0
   57.3260   30.2583   46.3309 H   0  0  0  0  0  0  0  0  0  0  0  0
   57.6789   31.6589   43.7950 H   0  0  0  0  0  0  0  0  0  0  0  0
   58.2977   29.9618   43.7023 H   0  0  0  0  0  0  0  0  0  0  0  0
   58.0339   33.6899   48.3206 H   0  0  0  0  0  0  0  0  0  0  0  0
   59.8904   34.3290   49.8901 H   0  0  0  0  0  0  0  0  0  0  0  0
  1  2  1  0
  2  3  1  0
  2  4  1  0
  4  5  2  0
  5  6  1  0
  6  7  2  0
  7  8  1  0
  8  9  2  0
  8 10  1  0
 10 11  1  0
 11 12  2  0
 12 13  1  0
 13 14  1  0
 14 15  1  0
 15 16  1  0
 16 17  1  0
 14 18  1  0
 18 19  1  0
 19 20  1  0
 13 21  2  0
 21 22  1  0
 22 23  2  0
  9  4  1  0
 23 11  1  0
 23  7  1  0
  1 24  1  0
  1 25  1  0
  1 26  1  0
  3 27  1  0
  3 28  1  0
  3 29  1  0
  5 30  1  0
  6 31  1  0
  9 32  1  0
 10 33  1  0
 10 34  1  0
 12 35  1  0
 15 36  1  0
 15 37  1  0
 16 38  1  0
 16 39  1  0
 18 40  1  0
 18 41  1  0
 19 42  1  0
 19 43  1  0
 21 44  1  0
 22 45  1  0
M  END
>  <UniqueID>  (39) 
36

>  <SMILES>  (39) 
CN(C)c1ccc2c(c1)Cc1cc(N(CCCl)CCCl)ccc1-2

>  <Energy>  (39) 
67.26545276135322

>  <Genealogy>  (39) 
CN(C)c1ccc2c(c1)Cc1cc(N(CCCl)CCCl)ccc1-2 (3D coordinates assigned)
CN(C)c1ccc2c(c1)Cc1cc(N(CCCl)CCCl)ccc1-2 (nonaromatic ring conformer: 67.26545276135322 kcal/mol)

>  <smiles>  (39) 
CN(C)c1ccc2c(c1)Cc1cc(N(CCCl)CCCl)ccc1-2

>  <score_type>  (39) 
oracle

>  <origin>  (39) 
adg

>  <m_score__min__energy>  (39) 
-6.8600000000000003

>  <m_primary>  (39) 
energy

$$$$
39:0
     RDKit          3D

 41 44  0  0  0  0  0  0  0  0999 V2000
   56.5700   29.7540   42.9880 C   0  0  0  0  0  0  0  0  0  0  0  0
   56.4550   30.8330   43.9100 O   0  0  0  0  0  0  0  0  0  0  0  0
   57.3830   31.1100   44.9250 C   0  0  0  0  0  0  0  0  0  0  0  0
   58.1020   30.0970   45.5880 C   0  0  0  0  0  0  0  0  0  0  0  0
   59.0160   30.4240   46.5930 C   0  0  0  0  0  0  0  0  0  0  0  0
   59.2380   31.7640   46.9460 C   0  0  0  0  0  0  0  0  0  0  0  0
   60.2030   32.0980   48.0630 C   0  0  2  0  0  0  0  0  0  0  0  0
   59.7860   33.3910   48.8450 C   0  0  1  0  0  0  0  0  0  0  0  0
   59.2630   33.0730   50.2320 C   0  0  0  0  0  0  0  0  0  0  0  0
   58.3350   32.0340   50.4360 C   0  0  0  0  0  0  0  0  0  0  0  0
   57.8480   31.7600   51.7180 C   0  0  0  0  0  0  0  0  0  0  0  0
   58.2780   32.5220   52.8070 C   0  0  0  0  0  0  0  0  0  0  0  0
   57.8040   32.2550   54.0490 F   0  0  0  0  0  0  0  0  0  0  0  0
   59.1930   33.5590   52.6160 C   0  0  0  0  0  0  0  0  0  0  0  0
   59.6830   33.8370   51.3360 C   0  0  0  0  0  0  0  0  0  0  0  0
   61.0430   34.3180   48.8730 C   0  0  0  0  0  0  0  0  0  0  0  0
   61.9720   33.5880   47.9900 C   0  0  0  0  0  0  0  0  0  0  0  0
   63.3380   33.6230   47.8240 C   0  0  0  0  0  0  0  0  0  0  0  0
   63.7030   32.4510   47.2520 N   0  0  0  0  0  0  0  0  0  0  0  0
   62.5660   31.7270   47.1240 C   0  0  0  0  0  0  0  0  0  0  0  0
   61.5080   32.4400   47.5450 N   0  0  0  0  0  0  0  0  0  0  0  0
   58.5060   32.7720   46.2940 C   0  0  0  0  0  0  0  0  0  0  0  0
   57.5920   32.4440   45.2890 C   0  0  0  0  0  0  0  0  0  0  0  0
   56.6708   28.8084   43.5409 H   0  0  0  0  0  0  0  0  0  0  0  0
   55.6709   29.7148   42.3554 H   0  0  0  0  0  0  0  0  0  0  0  0
   57.4571   29.9052   42.3554 H   0  0  0  0  0  0  0  0  0  0  0  0
   57.9435   29.0437   45.3136 H   0  0  0  0  0  0  0  0  0  0  0  0
   59.5659   29.6248   47.1116 H   0  0  0  0  0  0  0  0  0  0  0  0
   60.2036   31.2014   48.7003 H   0  0  0  0  0  0  0  0  0  0  0  0
   58.9490   33.8998   48.3445 H   0  0  0  0  0  0  0  0  0  0  0  0
   57.9906   31.4336   49.5811 H   0  0  0  0  0  0  0  0  0  0  0  0
   57.1259   30.9440   51.8689 H   0  0  0  0  0  0  0  0  0  0  0  0
   59.5294   34.1589   53.4745 H   0  0  0  0  0  0  0  0  0  0  0  0
   60.4010   34.6578   51.1916 H   0  0  0  0  0  0  0  0  0  0  0  0
   60.8132   35.3174   48.4750 H   0  0  0  0  0  0  0  0  0  0  0  0
   61.4389   34.5035   49.8824 H   0  0  0  0  0  0  0  0  0  0  0  0
   64.0083   34.4491   48.1038 H   0  0  0  0  0  0  0  0  0  0  0  0
   64.6750   32.1260   47.0570 H   0  0  0  0  0  0  0  0  0  0  0  0
   62.5157   30.7008   46.7311 H   0  0  0  0  0  0  0  0  0  0  0  0
   58.6536   33.8248   46.5766 H   0  0  0  0  0  0  0  0  0  0  0  0
   57.0320   33.2422   44.7798 H   0  0  0  0  0  0  0  0  0  0  0  0
  1  2  1  0
  2  3  1  0
  3  4  2  0
  4  5  1  0
  5  6  2  0
  6  7  1  0
  7  8  1  0
  8  9  1  0
  9 10  2  0
 10 11  1  0
 11 12  2  0
 12 13  1  0
 12 14  1  0
 14 15  2  0
  8 16  1  0
 16 17  1  0
 17 18  2  0
 18 19  1  0
 19 20  2  0
 20 21  1  0
  6 22  1  0
 22 23  2  0
 23  3  1  0
 21  7  1  0
 15  9  1  0
 21 17  1  0
  1 24  1  0
  1 25  1  0
  1 26  1  0
  4 27  1  0
  5 28  1  0
  7 29  1  1
  8 30  1  6
 10 31  1  0
 11 32  1  0
 14 33  1  0
 15 34  1  0
 16 35  1  0
 16 36  1  0
 18 37  1  0
 19 38  1  0
 20 39  1  0
 22 40  1  0
 23 41  1  0
M  CHG  1  19   1
M  END
>  <UniqueID>  (40) 
37

>  <SMILES>  (40) 
COc1ccc([C@@H]2[C@@H](c3ccc(F)cc3)Cc3c[nH+]cn32)cc1

>  <Energy>  (40) 
98.07964725982589

>  <Genealogy>  (40) 
COc1ccc(C2C(c3ccc(F)cc3)Cc3c[nH+]cn32)cc1 (protonated)
COc1ccc([C@@H]2[C@@H](c3ccc(F)cc3)Cc3c[nH+]cn32)cc1 (chirality)
COc1ccc([C@@H]2[C@@H](c3ccc(F)cc3)Cc3c[nH+]cn32)cc1 (3D coordinates assigned)
COc1ccc([C@@H]2[C@@H](c3ccc(F)cc3)Cc3c[nH+]cn32)cc1 (nonaromatic ring conformer: 98.07964725982589 kcal/mol)

>  <smiles>  (40) 
COc1ccc(C2C(c3ccc(F)cc3)Cc3cncn32)cc1

>  <score_type>  (40) 
oracle

>  <origin>  (40) 
adg

>  <m_score__min__energy>  (40) 
-5.9400000000000004

>  <m_primary>  (40) 
energy

$$$$
40:0
     RDKit          3D

 99100  0  0  0  0  0  0  0  0999 V2000
   54.0080   30.7500   51.6800 C   0  0  0  0  0  0  0  0  0  0  0  0
   54.8730   29.7360   52.4240 C   0  0  0  0  0  0  0  0  0  0  0  0
   56.3470   30.1670   52.5170 C   0  0  0  0  0  0  0  0  0  0  0  0
   56.6000   31.5610   51.9200 C   0  0  0  0  0  0  0  0  0  0  0  0
   57.9030   32.1690   52.4650 C   0  0  0  0  0  0  0  0  0  0  0  0
   59.2200   31.6170   51.8410 C   0  0  0  0  0  0  0  0  0  0  0  0
   60.5300   32.3040   52.1640 N   0  0  0  0  0  0  0  0  0  0  0  0
   60.5010   32.7660   53.5810 C   0  0  0  0  0  0  0  0  0  0  0  0
   60.7680   33.4690   51.2490 C   0  0  0  0  0  0  0  0  0  0  0  0
   59.8680   33.5220   49.9740 C   0  0  0  0  0  0  0  0  0  0  0  0
   60.5600   34.2150   48.7840 C   0  0  0  0  0  0  0  0  0  0  0  0
   62.0440   33.8080   48.6410 C   0  0  0  0  0  0  0  0  0  0  0  0
   62.4490   33.5490   47.1870 C   0  0  0  0  0  0  0  0  0  0  0  0
   63.7620   32.7660   47.1130 C   0  0  0  0  0  0  0  0  0  0  0  0
   61.6320   31.2790   52.0640 C   0  0  0  0  0  0  0  0  0  0  0  0
   61.3330   30.0730   51.1770 C   0  0  0  0  0  0  0  0  0  0  0  0
   61.0980   30.2110   49.8010 C   0  0  0  0  0  0  0  0  0  0  0  0
   60.7170   29.1000   49.0360 C   0  0  0  0  0  0  0  0  0  0  0  0
   60.5970   27.8320   49.6240 C   0  0  0  0  0  0  0  0  0  0  0  0
   60.1890   26.7270   48.8050 N   0  0  0  0  0  0  0  0  0  0  0  0
   60.1700   26.6340   47.3700 C   0  0  0  0  0  0  0  0  0  0  0  0
   60.7500   27.5380   46.7080 O   0  0  0  0  0  0  0  0  0  0  0  0
   59.3170   25.6320   46.6290 C   0  0  0  0  0  0  0  0  0  0  0  0
   57.9890   26.2520   46.1530 C   0  0  0  0  0  0  0  0  0  0  0  0
   57.7840   27.6700   46.7260 C   0  0  0  0  0  0  0  0  0  0  0  0
   58.3330   28.7210   45.8490 N   0  0  0  0  0  0  0  0  0  0  0  0
   58.4040   28.2990   44.4370 C   0  0  0  0  0  0  0  0  0  0  0  0
   57.3540   29.0100   43.5690 C   0  0  0  0  0  0  0  0  0  0  0  0
   56.3270   29.7260   44.3870 C   0  0  0  0  0  0  0  0  0  0  0  0
   55.1180   29.3670   44.3460 O   0  0  0  0  0  0  0  0  0  0  0  0
   56.7310   30.7980   45.1900 O   0  0  0  0  0  0  0  0  0  0  0  0
   57.7760   31.7060   44.8360 C   0  0  1  0  0  0  0  0  0  0  0  0
   57.6230   33.0190   45.6380 C   0  0  0  0  0  0  0  0  0  0  0  0
   57.8640   32.7680   47.1330 C   0  0  0  0  0  0  0  0  0  0  0  0
   58.9520   31.6970   47.3800 C   0  0  1  0  0  0  0  0  0  0  0  0
   58.3540   30.4820   47.7530 O   0  0  0  0  0  0  0  0  0  0  0  0
   59.8030   31.4870   46.1090 C   0  0  1  0  0  0  0  0  0  0  0  0
   60.9320   30.4890   46.3620 C   0  0  0  0  0  0  0  0  0  0  0  0
   59.0280   31.0410   45.0020 O   0  0  0  0  0  0  0  0  0  0  0  0
   60.9610   27.6730   50.9740 C   0  0  0  0  0  0  0  0  0  0  0  0
   61.3060   28.7890   51.7440 C   0  0  0  0  0  0  0  0  0  0  0  0
   53.4722   31.3781   52.4068 H   0  0  0  0  0  0  0  0  0  0  0  0
   54.6475   31.3842   51.0485 H   0  0  0  0  0  0  0  0  0  0  0  0
   53.2809   30.2184   51.0485 H   0  0  0  0  0  0  0  0  0  0  0  0
   54.4766   29.6160   53.4430 H   0  0  0  0  0  0  0  0  0  0  0  0
   54.8380   28.7924   51.8598 H   0  0  0  0  0  0  0  0  0  0  0  0
   56.6431   30.1795   53.5763 H   0  0  0  0  0  0  0  0  0  0  0  0
   56.9398   29.4456   51.9355 H   0  0  0  0  0  0  0  0  0  0  0  0
   56.6739   31.4751   50.8258 H   0  0  0  0  0  0  0  0  0  0  0  0
   55.7638   32.2182   52.2009 H   0  0  0  0  0  0  0  0  0  0  0  0
   57.8717   33.2534   52.2832 H   0  0  0  0  0  0  0  0  0  0  0  0
   57.9386   31.8956   53.5299 H   0  0  0  0  0  0  0  0  0  0  0  0
   59.3164   30.5704   52.1655 H   0  0  0  0  0  0  0  0  0  0  0  0
   59.0920   31.7874   50.7618 H   0  0  0  0  0  0  0  0  0  0  0  0
   60.5556   31.8958   54.2516 H   0  0  0  0  0  0  0  0  0  0  0  0
   61.3594   33.4278   53.7685 H   0  0  0  0  0  0  0  0  0  0  0  0
   59.5666   33.3153   53.7685 H   0  0  0  0  0  0  0  0  0  0  0  0
   60.5952   34.3910   51.8235 H   0  0  0  0  0  0  0  0  0  0  0  0
   61.7998   33.3583   50.8840 H   0  0  0  0  0  0  0  0  0  0  0  0
   59.6120   32.4930   49.6813 H   0  0  0  0  0  0  0  0  0  0  0  0
   58.9723   34.1093   50.2246 H   0  0  0  0  0  0  0  0  0  0  0  0
   60.0291   33.9422   47.8600 H   0  0  0  0  0  0  0  0  0  0  0  0
   60.5277   35.2995   48.9650 H   0  0  0  0  0  0  0  0  0  0  0  0
   62.6711   34.6179   49.0419 H   0  0  0  0  0  0  0  0  0  0  0  0
   62.1860   32.8697   49.1973 H   0  0  0  0  0  0  0  0  0  0  0  0
   61.6565   32.9695   46.6909 H   0  0  0  0  0  0  0  0  0  0  0  0
   62.5906   34.5177   46.6854 H   0  0  0  0  0  0  0  0  0  0  0  0
   64.1196   32.5527   48.1311 H   0  0  0  0  0  0  0  0  0  0  0  0
   63.5950   31.8199   46.5773 H   0  0  0  0  0  0  0  0  0  0  0  0
   64.5150   33.3627   46.5773 H   0  0  0  0  0  0  0  0  0  0  0  0
   62.5253   31.7805   51.6633 H   0  0  0  0  0  0  0  0  0  0  0  0
   61.7643   30.8795   53.0803 H   0  0  0  0  0  0  0  0  0  0  0  0
   61.2131   31.1940   49.3209 H   0  0  0  0  0  0  0  0  0  0  0  0
   60.5098   29.2237   47.9628 H   0  0  0  0  0  0  0  0  0  0  0  0
   59.8744   25.2686   45.7531 H   0  0  0  0  0  0  0  0  0  0  0  0
   59.0818   24.8074   47.3180 H   0  0  0  0  0  0  0  0  0  0  0  0
   57.9955   26.3088   45.0545 H   0  0  0  0  0  0  0  0  0  0  0  0
   57.1658   25.6155   46.5097 H   0  0  0  0  0  0  0  0  0  0  0  0
   56.7057   27.8457   46.8540 H   0  0  0  0  0  0  0  0  0  0  0  0
   58.3203   27.7226   47.6849 H   0  0  0  0  0  0  0  0  0  0  0  0
   59.2840   28.9910   46.1890 H   0  0  0  0  0  0  0  0  0  0  0  0
   57.7080   29.5550   45.9290 H   0  0  0  0  0  0  0  0  0  0  0  0
   59.4052   28.5336   44.0464 H   0  0  0  0  0  0  0  0  0  0  0  0
   58.2032   27.2183   44.3954 H   0  0  0  0  0  0  0  0  0  0  0  0
   57.8647   29.7409   42.9248 H   0  0  0  0  0  0  0  0  0  0  0  0
   56.8346   28.2429   42.9759 H   0  0  0  0  0  0  0  0  0  0  0  0
   57.7199   32.0077   43.7797 H   0  0  0  0  0  0  0  0  0  0  0  0
   58.3550   33.7540   45.2719 H   0  0  0  0  0  0  0  0  0  0  0  0
   56.6006   33.4013   45.5021 H   0  0  0  0  0  0  0  0  0  0  0  0
   58.1818   33.7103   47.6032 H   0  0  0  0  0  0  0  0  0  0  0  0
   56.9235   32.3992   47.5684 H   0  0  0  0  0  0  0  0  0  0  0  0
   59.6065   32.0463   48.1922 H   0  0  0  0  0  0  0  0  0  0  0  0
   57.6020   30.3210   47.1220 H   0  0  0  0  0  0  0  0  0  0  0  0
   60.2259   32.4712   45.8591 H   0  0  0  0  0  0  0  0  0  0  0  0
   61.0743   30.3632   47.4455 H   0  0  0  0  0  0  0  0  0  0  0  0
   60.6724   29.5197   45.9113 H   0  0  0  0  0  0  0  0  0  0  0  0
   61.8621   30.8656   45.9113 H   0  0  0  0  0  0  0  0  0  0  0  0
   60.9743   26.6696   51.4246 H   0  0  0  0  0  0  0  0  0  0  0  0
   61.5592   28.6588   52.8065 H   0  0  0  0  0  0  0  0  0  0  0  0
  1  2  1  0
  2  3  1  0
  3  4  1  0
  4  5  1  0
  5  6  1  0
  6  7  1  0
  7  8  1  0
  7  9  1  0
  9 10  1  0
 10 11  1  0
 11 12  1  0
 12 13  1  0
 13 14  1  0
  7 15  1  0
 15 16  1  0
 16 17  2  0
 17 18  1  0
 18 19  2  0
 19 20  1  0
 20 21  1  0
 21 22  2  0
 21 23  1  0
 23 24  1  0
 24 25  1  0
 25 26  1  0
 26 27  1  0
 27 28  1  0
 28 29  1  0
 29 30  2  0
 29 31  1  0
 31 32  1  0
 32 33  1  0
 33 34  1  0
 34 35  1  0
 35 36  1  0
 35 37  1  0
 37 38  1  0
 37 39  1  0
 19 40  1  0
 40 41  2  0
 41 16  1  0
 39 32  1  0
  1 42  1  0
  1 43  1  0
  1 44  1  0
  2 45  1  0
  2 46  1  0
  3 47  1  0
  3 48  1  0
  4 49  1  0
  4 50  1  0
  5 51  1  0
  5 52  1  0
  6 53  1  0
  6 54  1  0
  8 55  1  0
  8 56  1  0
  8 57  1  0
  9 58  1  0
  9 59  1  0
 10 60  1  0
 10 61  1  0
 11 62  1  0
 11 63  1  0
 12 64  1  0
 12 65  1  0
 13 66  1  0
 13 67  1  0
 14 68  1  0
 14 69  1  0
 14 70  1  0
 15 71  1  0
 15 72  1  0
 17 73  1  0
 18 74  1  0
 23 75  1  0
 23 76  1  0
 24 77  1  0
 24 78  1  0
 25 79  1  0
 25 80  1  0
 26 81  1  0
 26 82  1  0
 27 83  1  0
 27 84  1  0
 28 85  1  0
 28 86  1  0
 32 87  1  6
 33 88  1  0
 33 89  1  0
 34 90  1  0
 34 91  1  0
 35 92  1  1
 36 93  1  0
 37 94  1  6
 38 95  1  0
 38 96  1  0
 38 97  1  0
 40 98  1  0
 41 99  1  0
M  CHG  3   7   1  20  -1  26   1
M  END
>  <UniqueID>  (41) 
38

>  <SMILES>  (41) 
CCCCCC[N+](C)(CCCCCC)Cc1ccc([N-]C(=O)CCC[NH2+]CCC(=O)O[C@H]2CC[C@@H](O)C(C)O2)cc1

>  <Energy>  (41) 
117.14562426086466

>  <Genealogy>  (41) 
CCCCCC[N+](C)(CCCCCC)Cc1ccc([N-]C(=O)CCC[NH2+]CCC(=O)OC2CCC(O)C(C)O2)cc1 (protonated)
CCCCCC[N+](C)(CCCCCC)Cc1ccc([N-]C(=O)CCC[NH2+]CCC(=O)O[C@H]2CC[C@@H](O)C(C)O2)cc1 (chirality)
CCCCCC[N+](C)(CCCCCC)Cc1ccc([N-]C(=O)CCC[NH2+]CCC(=O)O[C@H]2CC[C@@H](O)C(C)O2)cc1 (3D coordinates assigned)
CCCCCC[N+](C)(CCCCCC)Cc1ccc([N-]C(=O)CCC[NH2+]CCC(=O)O[C@H]2CC[C@@H](O)C(C)O2)cc1 (nonaromatic ring conformer: 117.14562426086466 kcal/mol)

>  <smiles>  (41) 
CCCCCC[N+](C)(CCCCCC)Cc1ccc(NC(=O)CCCNCCC(=O)OC2CCC(O)C(C)O2)cc1

>  <score_type>  (41) 
oracle

>  <origin>  (41) 
adg

>  <m_score__min__energy>  (41) 
-6.9100000000000001

>  <m_primary>  (41) 
energy

$$$$
41:0
     RDKit          3D

 40 43  0  0  0  0  0  0  0  0999 V2000
   56.1894   34.6049   45.1534 H   0  0  0  0  0  0  0  0  0  0  0  0
   57.1490   34.2240   45.5330 C   0  0  0  0  0  0  0  0  0  0  0  0
   58.3310   34.4930   44.8380 C   0  0  0  0  0  0  0  0  0  0  0  0
   58.3005   35.0815   43.9091 H   0  0  0  0  0  0  0  0  0  0  0  0
   59.5520   34.0150   45.3220 C   0  0  0  0  0  0  0  0  0  0  0  0
   60.4793   34.2247   44.7687 H   0  0  0  0  0  0  0  0  0  0  0  0
   59.6020   33.2670   46.5130 C   0  0  0  0  0  0  0  0  0  0  0  0
   60.8540   32.7700   47.0220 N   0  0  0  0  0  0  0  0  0  0  0  0
   61.3310   31.5070   46.9480 C   0  0  0  0  0  0  0  0  0  0  0  0
   60.6920   30.5380   46.3540 N   0  0  0  0  0  0  0  0  0  0  0  0
   59.3670   30.0410   46.6030 C   0  0  0  0  0  0  0  0  0  0  0  0
   59.0600   29.5480   47.7220 O   0  0  0  0  0  0  0  0  0  0  0  0
   58.3480   30.1120   45.5280 C   0  0  0  0  0  0  0  0  0  0  0  0
   57.1960   29.3030   45.5800 C   0  0  0  0  0  0  0  0  0  0  0  0
   57.0508   28.6125   46.4239 H   0  0  0  0  0  0  0  0  0  0  0  0
   56.2360   29.3720   44.5660 C   0  0  0  0  0  0  0  0  0  0  0  0
   55.3398   28.7360   44.6147 H   0  0  0  0  0  0  0  0  0  0  0  0
   56.4120   30.2460   43.4920 C   0  0  0  0  0  0  0  0  0  0  0  0
   55.6549   30.2981   42.6957 H   0  0  0  0  0  0  0  0  0  0  0  0
   57.5500   31.0550   43.4280 C   0  0  0  0  0  0  0  0  0  0  0  0
   57.7700   32.1530   42.0770 Cl  0  0  0  0  0  0  0  0  0  0  0  0
   58.5150   30.9880   44.4390 C   0  0  0  0  0  0  0  0  0  0  0  0
   59.4104   31.6244   44.3823 H   0  0  0  0  0  0  0  0  0  0  0  0
   62.5830   31.4530   47.5510 C   0  0  0  0  0  0  0  0  0  0  0  0
   63.2412   30.5793   47.6674 H   0  0  0  0  0  0  0  0  0  0  0  0
   62.8110   32.7590   47.9730 C   0  0  0  0  0  0  0  0  0  0  0  0
   64.0180   33.3060   48.6940 C   0  0  0  0  0  0  0  0  0  0  0  0
   64.3771   33.8899   47.8337 H   0  0  0  0  0  0  0  0  0  0  0  0
   64.6630   32.3800   49.7140 C   0  0  0  0  0  0  0  0  0  0  0  0
   64.2748   31.3604   49.8540 H   0  0  0  0  0  0  0  0  0  0  0  0
   65.6847   32.0162   49.8976 H   0  0  0  0  0  0  0  0  0  0  0  0
   63.8470   33.5750   50.1810 C   0  0  0  0  0  0  0  0  0  0  0  0
   62.8685   33.4198   50.6590 H   0  0  0  0  0  0  0  0  0  0  0  0
   64.0340   34.4337   50.8425 H   0  0  0  0  0  0  0  0  0  0  0  0
   61.7550   33.5230   47.6350 N   0  0  0  0  0  0  0  0  0  0  0  0
   61.6470   34.5430   47.8370 H   0  0  0  0  0  0  0  0  0  0  0  0
   58.4050   32.9920   47.1970 C   0  0  0  0  0  0  0  0  0  0  0  0
   58.4278   32.3960   48.1212 H   0  0  0  0  0  0  0  0  0  0  0  0
   57.1850   33.4720   46.7090 C   0  0  0  0  0  0  0  0  0  0  0  0
   56.2530   33.2568   47.2523 H   0  0  0  0  0  0  0  0  0  0  0  0
  1  2  1  0
  2  3  2  0
  3  4  1  0
  3  5  1  0
  5  6  1  0
  5  7  2  0
  7  8  1  0
  8  9  1  0
  9 10  2  0
 10 11  1  0
 11 12  2  0
 11 13  1  0
 13 14  2  0
 14 15  1  0
 14 16  1  0
 16 17  1  0
 16 18  2  0
 18 19  1  0
 18 20  1  0
 20 21  1  0
 20 22  2  0
 22 23  1  0
  9 24  1  0
 24 25  1  0
 24 26  2  0
 26 27  1  0
 27 28  1  0
 27 29  1  0
 29 30  1  0
 29 31  1  0
 29 32  1  0
 32 33  1  0
 32 34  1  0
 26 35  1  0
 35 36  1  0
  7 37  1  0
 37 38  1  0
 37 39  2  0
 39 40  1  0
 39  2  1  0
 35  8  1  0
 22 13  1  0
 32 27  1  0
M  END
>  <UniqueID>  (42) 
39

>  <SMILES>  (42) 
O=C(/N=c1\cc(C2CC2)[nH]n1-c1ccccc1)c1cccc(Cl)c1

>  <Energy>  (42) 
349.6258882773074

>  <Genealogy>  (42) 
O=C(/N=c1\cc(C2CC2)[nH]n1-c1ccccc1)c1cccc(Cl)c1 (cis-trans isomerization)
O=C(/N=c1\cc(C2CC2)[nH]n1-c1ccccc1)c1cccc(Cl)c1 (3D coordinates assigned)
O=C(/N=c1\cc(C2CC2)[nH]n1-c1ccccc1)c1cccc(Cl)c1 (nonaromatic ring conformer: 349.6258882773074 kcal/mol)

>  <smiles>  (42) 
O=C(N=c1cc(C2CC2)[nH]n1-c1ccccc1)c1cccc(Cl)c1

>  <score_type>  (42) 
oracle

>  <origin>  (42) 
adg

>  <m_score__min__energy>  (42) 
-7.8399999999999999

>  <m_primary>  (42) 
energy

$$$$
42:0
     RDKit          3D

 41 42  0  0  0  0  0  0  0  0999 V2000
   57.5742   31.9667   49.6285 H   0  0  0  0  0  0  0  0  0  0  0  0
   58.4010   32.3460   49.0100 C   0  0  0  0  0  0  0  0  0  0  0  0
   59.6590   32.3730   49.5080 N   0  0  0  0  0  0  0  0  0  0  0  0
   60.7150   32.7980   48.7700 C   0  0  0  0  0  0  0  0  0  0  0  0
   61.9880   32.7700   49.3490 C   0  0  0  0  0  0  0  0  0  0  0  0
   62.1047   32.4577   50.3973 H   0  0  0  0  0  0  0  0  0  0  0  0
   63.1090   33.1350   48.6070 C   0  0  0  0  0  0  0  0  0  0  0  0
   64.7020   33.0870   49.3380 Cl  0  0  0  0  0  0  0  0  0  0  0  0
   62.9640   33.5010   47.2710 C   0  0  0  0  0  0  0  0  0  0  0  0
   63.8522   33.7629   46.6772 H   0  0  0  0  0  0  0  0  0  0  0  0
   61.6980   33.5380   46.6790 C   0  0  0  0  0  0  0  0  0  0  0  0
   61.6060   33.8039   45.6156 H   0  0  0  0  0  0  0  0  0  0  0  0
   60.5320   33.2390   47.4250 C   0  0  0  0  0  0  0  0  0  0  0  0
   59.1890   33.2940   46.9180 C   0  0  0  0  0  0  0  0  0  0  0  0
   58.8070   33.8390   45.7910 N   0  0  0  0  0  0  0  0  0  0  0  0
   57.5650   33.7610   45.0310 C   0  0  0  0  0  0  0  0  0  0  0  0
   57.2818   34.7678   44.6901 H   0  0  0  0  0  0  0  0  0  0  0  0
   56.7719   33.3500   45.6729 H   0  0  0  0  0  0  0  0  0  0  0  0
   57.7560   32.8470   43.8150 C   0  0  0  0  0  0  0  0  0  0  0  0
   58.5513   33.2678   43.1822 H   0  0  0  0  0  0  0  0  0  0  0  0
   56.7923   32.7979   43.2869 H   0  0  0  0  0  0  0  0  0  0  0  0
   58.1430   31.4110   44.1960 C   0  0  0  0  0  0  0  0  0  0  0  0
   59.0207   31.4345   44.8587 H   0  0  0  0  0  0  0  0  0  0  0  0
   58.3792   30.8474   43.2814 H   0  0  0  0  0  0  0  0  0  0  0  0
   57.0170   30.7480   44.8970 N   0  0  0  0  0  0  0  0  0  0  0  0
   57.4690   29.6280   45.7540 C   0  0  0  0  0  0  0  0  0  0  0  0
   57.2460   28.6782   45.2460 H   0  0  0  0  0  0  0  0  0  0  0  0
   56.9377   29.6960   46.7148 H   0  0  0  0  0  0  0  0  0  0  0  0
   58.9690   29.6990   46.0340 C   0  0  0  0  0  0  0  0  0  0  0  0
   59.1392   29.7071   47.1207 H   0  0  0  0  0  0  0  0  0  0  0  0
   59.4665   28.8234   45.5914 H   0  0  0  0  0  0  0  0  0  0  0  0
   59.3815   30.6177   45.5914 H   0  0  0  0  0  0  0  0  0  0  0  0
   55.8870   30.4220   43.9940 C   0  0  0  0  0  0  0  0  0  0  0  0
   55.1954   29.7568   44.5318 H   0  0  0  0  0  0  0  0  0  0  0  0
   55.4214   31.3772   43.7097 H   0  0  0  0  0  0  0  0  0  0  0  0
   56.3080   29.7290   42.6920 C   0  0  0  0  0  0  0  0  0  0  0  0
   56.8657   28.8110   42.9290 H   0  0  0  0  0  0  0  0  0  0  0  0
   55.4125   29.4732   42.1066 H   0  0  0  0  0  0  0  0  0  0  0  0
   56.9477   30.4058   42.1066 H   0  0  0  0  0  0  0  0  0  0  0  0
   58.1510   32.7960   47.7200 C   0  0  0  0  0  0  0  0  0  0  0  0
   57.1261   32.7615   47.3220 H   0  0  0  0  0  0  0  0  0  0  0  0
  1  2  1  0
  2  3  1  0
  3  4  1  0
  4  5  2  0
  5  6  1  0
  5  7  1  0
  7  8  1  0
  7  9  2  0
  9 10  1  0
  9 11  1  0
 11 12  1  0
 11 13  2  0
 13 14  1  0
 14 15  2  0
 15 16  1  0
 16 17  1  0
 16 18  1  0
 16 19  1  0
 19 20  1  0
 19 21  1  0
 19 22  1  0
 22 23  1  0
 22 24  1  0
 22 25  1  0
 25 26  1  0
 26 27  1  0
 26 28  1  0
 26 29  1  0
 29 30  1  0
 29 31  1  0
 29 32  1  0
 25 33  1  0
 33 34  1  0
 33 35  1  0
 33 36  1  0
 36 37  1  0
 36 38  1  0
 36 39  1  0
 14 40  1  0
 40 41  1  0
 40  2  2  0
 13  4  1  0
M  CHG  1   3  -1
M  END
>  <UniqueID>  (43) 
40

>  <SMILES>  (43) 
CCN(CC)CCC/N=c1/cc[n-]c2cc(Cl)ccc12

>  <Energy>  (43) 
57.143421507726465

>  <Genealogy>  (43) 
CCN(CC)CCCN=c1cc[n-]c2cc(Cl)ccc12 (protonated)
CCN(CC)CCC/N=c1/cc[n-]c2cc(Cl)ccc12 (cis-trans isomerization)
CCN(CC)CCC/N=c1/cc[n-]c2cc(Cl)ccc12 (3D coordinates assigned)
CCN(CC)CCC/N=c1/cc[n-]c2cc(Cl)ccc12 (optimized conformer: 57.143421507726465 kcal/mol)

>  <smiles>  (43) 
CCN(CC)CCCN=c1cc[nH]c2cc(Cl)ccc12

>  <score_type>  (43) 
oracle

>  <origin>  (43) 
adg

>  <m_score__min__energy>  (43) 
-8.2699999999999996

>  <m_primary>  (43) 
energy

$$$$
43:0
     RDKit          3D

 53 55  0  0  0  0  0  0  0  0999 V2000
   60.9723   28.0076   45.8931 H   0  0  0  0  0  0  0  0  0  0  0  0
   60.4370   28.9500   45.7050 C   0  0  0  0  0  0  0  0  0  0  0  0
   59.7980   29.0850   44.5390 C   0  0  0  0  0  0  0  0  0  0  0  0
   60.3722   29.0199   43.6030 H   0  0  0  0  0  0  0  0  0  0  0  0
   58.3430   29.3190   44.4740 C   0  0  0  0  0  0  0  0  0  0  0  0
   57.4330   28.4250   45.0390 C   0  0  0  0  0  0  0  0  0  0  0  0
   57.7260   27.0660   45.6050 C   0  0  0  0  0  0  0  0  0  0  0  0
   58.6743   26.6971   45.1871 H   0  0  0  0  0  0  0  0  0  0  0  0
   56.9030   26.3863   45.3393 H   0  0  0  0  0  0  0  0  0  0  0  0
   57.8390   27.1300   47.1200 C   0  0  0  0  0  0  0  0  0  0  0  0
   56.9671   26.6362   47.5739 H   0  0  0  0  0  0  0  0  0  0  0  0
   58.7584   26.6185   47.4410 H   0  0  0  0  0  0  0  0  0  0  0  0
   57.8732   28.1816   47.4410 H   0  0  0  0  0  0  0  0  0  0  0  0
   55.8910   29.0660   44.8710 S   0  0  0  0  0  0  0  0  0  0  0  0
   56.4220   30.4660   44.1170 C   0  0  0  0  0  0  0  0  0  0  0  0
   55.7640   31.2854   43.7921 H   0  0  0  0  0  0  0  0  0  0  0  0
   57.7690   30.4560   43.9600 N   0  0  0  0  0  0  0  0  0  0  0  0
   58.4890   31.6160   43.4140 C   0  0  0  0  0  0  0  0  0  0  0  0
   59.5041   31.6356   43.8372 H   0  0  0  0  0  0  0  0  0  0  0  0
   58.5169   31.5146   42.3190 H   0  0  0  0  0  0  0  0  0  0  0  0
   57.7850   32.9400   43.7510 C   0  0  0  0  0  0  0  0  0  0  0  0
   57.9488   33.6492   42.9263 H   0  0  0  0  0  0  0  0  0  0  0  0
   56.7140   32.7299   43.8884 H   0  0  0  0  0  0  0  0  0  0  0  0
   58.3070   33.5480   45.0260 C   0  0  0  0  0  0  0  0  0  0  0  0
   57.7390   33.2060   46.2640 C   0  0  0  0  0  0  0  0  0  0  0  0
   56.9241   32.4685   46.3082 H   0  0  0  0  0  0  0  0  0  0  0  0
   58.2060   33.8000   47.4410 C   0  0  0  0  0  0  0  0  0  0  0  0
   57.7522   33.5346   48.4072 H   0  0  0  0  0  0  0  0  0  0  0  0
   59.2480   34.7300   47.3920 C   0  0  0  0  0  0  0  0  0  0  0  0
   59.6171   35.1922   48.3194 H   0  0  0  0  0  0  0  0  0  0  0  0
   59.8200   35.0720   46.1660 C   0  0  0  0  0  0  0  0  0  0  0  0
   60.6441   35.7996   46.1284 H   0  0  0  0  0  0  0  0  0  0  0  0
   59.3470   34.4910   44.9850 C   0  0  0  0  0  0  0  0  0  0  0  0
   59.7916   34.7739   44.0195 H   0  0  0  0  0  0  0  0  0  0  0  0
   60.4700   29.9900   46.7610 C   0  0  0  0  0  0  0  0  0  0  0  0
   61.5040   30.9390   46.8650 C   0  0  0  0  0  0  0  0  0  0  0  0
   62.3271   30.9301   46.1353 H   0  0  0  0  0  0  0  0  0  0  0  0
   61.4950   31.8920   47.8860 C   0  0  0  0  0  0  0  0  0  0  0  0
   62.3187   32.6176   47.9562 H   0  0  0  0  0  0  0  0  0  0  0  0
   60.4450   31.9390   48.8300 C   0  0  0  0  0  0  0  0  0  0  0  0
   60.4430   32.9210   49.9050 N   0  0  0  0  0  0  0  0  0  0  0  0
   61.5940   33.8140   50.1050 C   0  0  0  0  0  0  0  0  0  0  0  0
   61.7696   33.9502   51.1823 H   0  0  0  0  0  0  0  0  0  0  0  0
   62.4873   33.3703   49.6411 H   0  0  0  0  0  0  0  0  0  0  0  0
   61.3862   34.7895   49.6411 H   0  0  0  0  0  0  0  0  0  0  0  0
   59.2890   33.0490   50.8030 C   0  0  0  0  0  0  0  0  0  0  0  0
   59.6313   33.0110   51.8477 H   0  0  0  0  0  0  0  0  0  0  0  0
   58.7844   34.0086   50.6171 H   0  0  0  0  0  0  0  0  0  0  0  0
   58.5864   32.2233   50.6171 H   0  0  0  0  0  0  0  0  0  0  0  0
   59.4040   30.9960   48.7030 C   0  0  0  0  0  0  0  0  0  0  0  0
   58.5689   31.0108   49.4188 H   0  0  0  0  0  0  0  0  0  0  0  0
   59.4180   30.0440   47.6820 C   0  0  0  0  0  0  0  0  0  0  0  0
   58.5893   29.3253   47.6003 H   0  0  0  0  0  0  0  0  0  0  0  0
  1  2  1  0
  2  3  2  0
  3  4  1  0
  3  5  1  0
  5  6  2  0
  6  7  1  0
  7  8  1  0
  7  9  1  0
  7 10  1  0
 10 11  1  0
 10 12  1  0
 10 13  1  0
  6 14  1  0
 14 15  1  0
 15 16  1  0
 15 17  2  0
 17 18  1  0
 18 19  1  0
 18 20  1  0
 18 21  1  0
 21 22  1  0
 21 23  1  0
 21 24  1  0
 24 25  2  0
 25 26  1  0
 25 27  1  0
 27 28  1  0
 27 29  2  0
 29 30  1  0
 29 31  1  0
 31 32  1  0
 31 33  2  0
 33 34  1  0
  2 35  1  0
 35 36  2  0
 36 37  1  0
 36 38  1  0
 38 39  1  0
 38 40  2  0
 40 41  1  0
 41 42  1  0
 42 43  1  0
 42 44  1  0
 42 45  1  0
 41 46  1  0
 46 47  1  0
 46 48  1  0
 46 49  1  0
 40 50  1  0
 50 51  1  0
 50 52  2  0
 52 53  1  0
 17  5  1  0
 33 24  1  0
 52 35  1  0
M  CHG  1  17   1
M  END
>  <UniqueID>  (44) 
41

>  <SMILES>  (44) 
CCc1sc[n+](CCc2ccccc2)c1/C=C/c1ccc(N(C)C)cc1

>  <Energy>  (44) 
85.7952102156218

>  <Genealogy>  (44) 
CCc1sc[n+](CCc2ccccc2)c1/C=C/c1ccc(N(C)C)cc1 (cis-trans isomerization)
CCc1sc[n+](CCc2ccccc2)c1/C=C/c1ccc(N(C)C)cc1 (3D coordinates assigned)
CCc1sc[n+](CCc2ccccc2)c1/C=C/c1ccc(N(C)C)cc1 (optimized conformer: 85.7952102156218 kcal/mol)

>  <smiles>  (44) 
CCc1sc[n+](CCc2ccccc2)c1C=Cc1ccc(N(C)C)cc1

>  <score_type>  (44) 
oracle

>  <origin>  (44) 
adg

>  <m_score__min__energy>  (44) 
-6.4000000000000004

>  <m_primary>  (44) 
energy

$$$$
44:0
     RDKit          3D

 45 47  0  0  0  0  0  0  0  0999 V2000
   56.6140   27.1060   45.6740 C   0  0  0  0  0  0  0  0  0  0  0  0
   55.9180   28.2760   45.2540 O   0  0  0  0  0  0  0  0  0  0  0  0
   56.4970   29.3260   44.5220 C   0  0  0  0  0  0  0  0  0  0  0  0
   56.0500   29.6720   43.2310 C   0  0  0  0  0  0  0  0  0  0  0  0
   56.6430   30.7290   42.5400 C   0  0  0  0  0  0  0  0  0  0  0  0
   57.7040   31.4310   43.1120 C   0  0  0  0  0  0  0  0  0  0  0  0
   58.1680   31.0850   44.3830 C   0  0  0  0  0  0  0  0  0  0  0  0
   57.5490   30.0520   45.1080 C   0  0  0  0  0  0  0  0  0  0  0  0
   58.0170   29.6660   46.4100 N   0  0  0  0  0  0  0  0  0  0  0  0
   59.3540   29.3070   46.7930 C   0  0  0  0  0  0  0  0  0  0  0  0
   59.5320   28.2320   47.4240 O   0  0  0  0  0  0  0  0  0  0  0  0
   60.5470   30.1790   46.5050 C   0  0  0  0  0  0  0  0  0  0  0  0
   60.4710   31.4160   47.2120 O   0  0  0  0  0  0  0  0  0  0  0  0
   61.5590   32.1120   47.7680 C   0  0  0  0  0  0  0  0  0  0  0  0
   62.8660   31.5840   47.7560 C   0  0  0  0  0  0  0  0  0  0  0  0
   63.9250   32.3060   48.3080 C   0  0  0  0  0  0  0  0  0  0  0  0
   63.6990   33.5610   48.8720 C   0  0  0  0  0  0  0  0  0  0  0  0
   62.4090   34.0960   48.8940 C   0  0  0  0  0  0  0  0  0  0  0  0
   61.3280   33.3730   48.3610 C   0  0  0  0  0  0  0  0  0  0  0  0
   59.9600   33.9440   48.4050 C   0  0  0  0  0  0  0  0  0  0  0  0
   59.5160   34.3610   49.5100 O   0  0  0  0  0  0  0  0  0  0  0  0
   59.1020   34.0500   47.1950 C   0  0  0  0  0  0  0  0  0  0  0  0
   59.5830   34.7150   46.0500 C   0  0  0  0  0  0  0  0  0  0  0  0
   58.8020   34.7910   44.8920 C   0  0  0  0  0  0  0  0  0  0  0  0
   57.5360   34.2010   44.8610 C   0  0  0  0  0  0  0  0  0  0  0  0
   57.0500   33.5320   45.9860 C   0  0  0  0  0  0  0  0  0  0  0  0
   57.8270   33.4510   47.1450 C   0  0  0  0  0  0  0  0  0  0  0  0
   56.6368   27.0676   46.7731 H   0  0  0  0  0  0  0  0  0  0  0  0
   56.0994   26.2143   45.2866 H   0  0  0  0  0  0  0  0  0  0  0  0
   57.6432   27.1327   45.2866 H   0  0  0  0  0  0  0  0  0  0  0  0
   55.2295   29.1059   42.7659 H   0  0  0  0  0  0  0  0  0  0  0  0
   56.2733   31.0092   41.5426 H   0  0  0  0  0  0  0  0  0  0  0  0
   58.1758   32.2581   42.5613 H   0  0  0  0  0  0  0  0  0  0  0  0
   59.0223   31.6236   44.8190 H   0  0  0  0  0  0  0  0  0  0  0  0
   61.4605   29.6478   46.8105 H   0  0  0  0  0  0  0  0  0  0  0  0
   60.5640   30.3971   45.4270 H   0  0  0  0  0  0  0  0  0  0  0  0
   63.0523   30.5965   47.3086 H   0  0  0  0  0  0  0  0  0  0  0  0
   64.9407   31.8839   48.2981 H   0  0  0  0  0  0  0  0  0  0  0  0
   64.5374   34.1302   49.3000 H   0  0  0  0  0  0  0  0  0  0  0  0
   62.2378   35.0905   49.3317 H   0  0  0  0  0  0  0  0  0  0  0  0
   60.5806   35.1781   46.0667 H   0  0  0  0  0  0  0  0  0  0  0  0
   59.1852   35.3160   44.0046 H   0  0  0  0  0  0  0  0  0  0  0  0
   56.9222   34.2635   43.9503 H   0  0  0  0  0  0  0  0  0  0  0  0
   56.0532   33.0676   45.9601 H   0  0  0  0  0  0  0  0  0  0  0  0
   57.4406   32.9157   48.0249 H   0  0  0  0  0  0  0  0  0  0  0  0
  1  2  1  0
  2  3  1  0
  3  4  2  0
  4  5  1  0
  5  6  2  0
  6  7  1  0
  7  8  2  0
  8  9  1  0
  9 10  1  0
 10 11  2  0
 10 12  1  0
 12 13  1  0
 13 14  1  0
 14 15  2  0
 15 16  1  0
 16 17  2  0
 17 18  1  0
 18 19  2  0
 19 20  1  0
 20 21  2  0
 20 22  1  0
 22 23  2  0
 23 24  1  0
 24 25  2  0
 25 26  1  0
 26 27  2  0
  8  3  1  0
 19 14  1  0
 27 22  1  0
  1 28  1  0
  1 29  1  0
  1 30  1  0
  4 31  1  0
  5 32  1  0
  6 33  1  0
  7 34  1  0
 12 35  1  0
 12 36  1  0
 15 37  1  0
 16 38  1  0
 17 39  1  0
 18 40  1  0
 23 41  1  0
 24 42  1  0
 25 43  1  0
 26 44  1  0
 27 45  1  0
M  CHG  1   9  -1
M  END
>  <UniqueID>  (45) 
42

>  <SMILES>  (45) 
COc1ccccc1[N-]C(=O)COc1ccccc1C(=O)c1ccccc1

>  <Energy>  (45) 
53.526447514094556

>  <Genealogy>  (45) 
COc1ccccc1[N-]C(=O)COc1ccccc1C(=O)c1ccccc1 (protonated)
COc1ccccc1[N-]C(=O)COc1ccccc1C(=O)c1ccccc1 (3D coordinates assigned)
COc1ccccc1[N-]C(=O)COc1ccccc1C(=O)c1ccccc1 (optimized conformer: 53.526447514094556 kcal/mol)

>  <smiles>  (45) 
COc1ccccc1NC(=O)COc1ccccc1C(=O)c1ccccc1

>  <score_type>  (45) 
oracle

>  <origin>  (45) 
adg

>  <m_score__min__energy>  (45) 
-11.24

>  <m_primary>  (45) 
energy

$$$$
45:0
     RDKit          3D

 50 52  0  0  0  0  0  0  0  0999 V2000
   60.0400   29.7330   48.1900 C   0  0  0  0  0  0  0  0  0  0  0  0
   60.2040   30.7950   47.2560 O   0  0  0  0  0  0  0  0  0  0  0  0
   61.3020   31.6680   47.2280 C   0  0  0  0  0  0  0  0  0  0  0  0
   62.6070   31.2260   47.5250 C   0  0  0  0  0  0  0  0  0  0  0  0
   63.6830   32.1130   47.4650 C   0  0  0  0  0  0  0  0  0  0  0  0
   63.4740   33.4450   47.1120 C   0  0  0  0  0  0  0  0  0  0  0  0
   62.1880   33.8970   46.8210 C   0  0  0  0  0  0  0  0  0  0  0  0
   61.0930   33.0180   46.8770 C   0  0  0  0  0  0  0  0  0  0  0  0
   59.7700   33.5000   46.5730 N   0  0  0  0  0  0  0  0  0  0  0  0
   58.6930   33.2600   47.5400 C   0  0  0  0  0  0  0  0  0  0  0  0
   57.3070   33.5810   46.9450 C   0  0  0  0  0  0  0  0  0  0  0  0
   57.2960   33.5470   45.4640 N   0  0  0  0  0  0  0  0  0  0  0  0
   57.5080   32.2150   44.9040 C   0  0  0  0  0  0  0  0  0  0  0  0
   57.6320   31.2420   45.6350 O   0  0  0  0  0  0  0  0  0  0  0  0
   57.4300   31.9730   43.4120 C   0  0  0  0  0  0  0  0  0  0  0  0
   57.3410   30.4820   43.0610 C   0  0  0  0  0  0  0  0  0  0  0  0
   56.1330   29.6170   44.1220 S   0  0  0  0  0  0  0  0  0  0  0  0
   57.3500   28.5200   44.8500 C   0  0  0  0  0  0  0  0  0  0  0  0
   56.9480   27.4990   45.7180 C   0  0  0  0  0  0  0  0  0  0  0  0
   57.9040   26.6620   46.3050 C   0  0  0  0  0  0  0  0  0  0  0  0
   59.2620   26.8500   46.0320 C   0  0  0  0  0  0  0  0  0  0  0  0
   59.6660   27.8770   45.1730 C   0  0  0  0  0  0  0  0  0  0  0  0
   58.7100   28.7100   44.5800 C   0  0  0  0  0  0  0  0  0  0  0  0
   58.2230   34.5680   44.9220 C   0  0  0  0  0  0  0  0  0  0  0  0
   59.6210   34.5650   45.5780 C   0  0  0  0  0  0  0  0  0  0  0  0
   60.1016   30.1319   49.2133 H   0  0  0  0  0  0  0  0  0  0  0  0
   59.0582   29.2604   48.0392 H   0  0  0  0  0  0  0  0  0  0  0  0
   60.8335   28.9862   48.0392 H   0  0  0  0  0  0  0  0  0  0  0  0
   62.7784   30.1763   47.8056 H   0  0  0  0  0  0  0  0  0  0  0  0
   64.6986   31.7598   47.6969 H   0  0  0  0  0  0  0  0  0  0  0  0
   64.3249   34.1404   47.0630 H   0  0  0  0  0  0  0  0  0  0  0  0
   62.0290   34.9500   46.5454 H   0  0  0  0  0  0  0  0  0  0  0  0
   58.7146   32.2024   47.8418 H   0  0  0  0  0  0  0  0  0  0  0  0
   58.8556   33.9212   48.4040 H   0  0  0  0  0  0  0  0  0  0  0  0
   56.5841   32.8410   47.3189 H   0  0  0  0  0  0  0  0  0  0  0  0
   57.0423   34.6028   47.2547 H   0  0  0  0  0  0  0  0  0  0  0  0
   56.3290   33.8270   45.1710 H   0  0  0  0  0  0  0  0  0  0  0  0
   56.5375   32.4816   43.0186 H   0  0  0  0  0  0  0  0  0  0  0  0
   58.3527   32.3673   42.9614 H   0  0  0  0  0  0  0  0  0  0  0  0
   57.0318   30.3798   42.0103 H   0  0  0  0  0  0  0  0  0  0  0  0
   58.3302   30.0291   43.2234 H   0  0  0  0  0  0  0  0  0  0  0  0
   55.8803   27.3540   45.9392 H   0  0  0  0  0  0  0  0  0  0  0  0
   57.5863   25.8553   46.9820 H   0  0  0  0  0  0  0  0  0  0  0  0
   60.0124   26.1906   46.4925 H   0  0  0  0  0  0  0  0  0  0  0  0
   60.7349   28.0302   44.9634 H   0  0  0  0  0  0  0  0  0  0  0  0
   59.0281   29.5149   43.9010 H   0  0  0  0  0  0  0  0  0  0  0  0
   58.3470   34.3842   43.8446 H   0  0  0  0  0  0  0  0  0  0  0  0
   57.7744   35.5489   45.1379 H   0  0  0  0  0  0  0  0  0  0  0  0
   60.3789   34.4236   44.7934 H   0  0  0  0  0  0  0  0  0  0  0  0
   59.7502   35.5271   46.0954 H   0  0  0  0  0  0  0  0  0  0  0  0
  1  2  1  0
  2  3  1  0
  3  4  2  0
  4  5  1  0
  5  6  2  0
  6  7  1  0
  7  8  2  0
  8  9  1  0
  9 10  1  0
 10 11  1  0
 11 12  1  0
 12 13  1  0
 13 14  2  0
 13 15  1  0
 15 16  1  0
 16 17  1  0
 17 18  1  0
 18 19  2  0
 19 20  1  0
 20 21  2  0
 21 22  1  0
 22 23  2  0
 12 24  1  0
 24 25  1  0
  8  3  1  0
 25  9  1  0
 23 18  1  0
  1 26  1  0
  1 27  1  0
  1 28  1  0
  4 29  1  0
  5 30  1  0
  6 31  1  0
  7 32  1  0
 10 33  1  0
 10 34  1  0
 11 35  1  0
 11 36  1  0
 12 37  1  0
 15 38  1  0
 15 39  1  0
 16 40  1  0
 16 41  1  0
 19 42  1  0
 20 43  1  0
 21 44  1  0
 22 45  1  0
 23 46  1  0
 24 47  1  0
 24 48  1  0
 25 49  1  0
 25 50  1  0
M  CHG  1  12   1
M  END
>  <UniqueID>  (46) 
43

>  <SMILES>  (46) 
COc1ccccc1N1CC[NH+](C(=O)CCSc2ccccc2)CC1

>  <Energy>  (46) 
59.095047217894006

>  <Genealogy>  (46) 
COc1ccccc1N1CC[NH+](C(=O)CCSc2ccccc2)CC1 (protonated)
COc1ccccc1N1CC[NH+](C(=O)CCSc2ccccc2)CC1 (3D coordinates assigned)
COc1ccccc1N1CC[NH+](C(=O)CCSc2ccccc2)CC1 (nonaromatic ring conformer: 59.095047217894006 kcal/mol)

>  <smiles>  (46) 
COc1ccccc1N1CCN(C(=O)CCSc2ccccc2)CC1

>  <score_type>  (46) 
oracle

>  <origin>  (46) 
adg

>  <m_score__min__energy>  (46) 
-6.1799999999999997

>  <m_primary>  (46) 
energy

$$$$
46:0
     RDKit          3D

 52 54  0  0  0  0  0  0  0  0999 V2000
   57.8340   31.7600   43.5380 C   0  0  0  0  0  0  0  0  0  0  0  0
   57.5550   31.2890   44.9620 C   0  0  0  0  0  0  0  0  0  0  0  0
   58.2820   30.0280   45.2330 N   0  0  0  0  0  0  0  0  0  0  0  0
   57.7310   28.9050   44.4400 C   0  0  0  0  0  0  0  0  0  0  0  0
   58.8010   27.8420   44.2200 C   0  0  0  0  0  0  0  0  0  0  0  0
   58.2800   29.7100   46.6790 C   0  0  0  0  0  0  0  0  0  0  0  0
   59.5620   30.1830   47.3110 C   0  0  0  0  0  0  0  0  0  0  0  0
   59.6260   30.4580   48.6860 C   0  0  0  0  0  0  0  0  0  0  0  0
   60.8150   30.9220   49.2570 C   0  0  0  0  0  0  0  0  0  0  0  0
   61.9500   31.1290   48.4590 C   0  0  0  0  0  0  0  0  0  0  0  0
   63.2410   31.5940   49.0810 C   0  0  0  0  0  0  0  0  0  0  0  0
   64.0110   32.4160   48.1220 N   0  0  0  0  0  0  0  0  0  0  0  0
   63.4350   33.7520   47.8390 C   0  0  0  0  0  0  0  0  0  0  0  0
   62.8230   33.8450   46.4160 C   0  0  0  0  0  0  0  0  0  0  0  0
   61.3690   33.9750   46.6730 C   0  0  0  0  0  0  0  0  0  0  0  0
   60.3490   33.9420   45.7200 C   0  0  0  0  0  0  0  0  0  0  0  0
   59.0190   34.0770   46.1490 C   0  0  0  0  0  0  0  0  0  0  0  0
   58.7340   34.2530   47.5140 C   0  0  0  0  0  0  0  0  0  0  0  0
   59.7750   34.2900   48.4550 C   0  0  0  0  0  0  0  0  0  0  0  0
   61.0900   34.1410   48.0080 C   0  0  0  0  0  0  0  0  0  0  0  0
   62.3190   34.1620   48.8350 C   0  0  0  0  0  0  0  0  0  0  0  0
   61.8900   30.8400   47.0870 C   0  0  0  0  0  0  0  0  0  0  0  0
   60.7020   30.3780   46.5140 C   0  0  0  0  0  0  0  0  0  0  0  0
   58.3944   32.7061   43.5679 H   0  0  0  0  0  0  0  0  0  0  0  0
   58.4271   30.9990   43.0097 H   0  0  0  0  0  0  0  0  0  0  0  0
   56.8816   31.9145   43.0097 H   0  0  0  0  0  0  0  0  0  0  0  0
   57.8877   32.0605   45.6720 H   0  0  0  0  0  0  0  0  0  0  0  0
   56.4752   31.1139   45.0780 H   0  0  0  0  0  0  0  0  0  0  0  0
   56.8825   28.4602   44.9806 H   0  0  0  0  0  0  0  0  0  0  0  0
   57.3961   29.2851   43.4636 H   0  0  0  0  0  0  0  0  0  0  0  0
   59.1646   27.4808   45.1933 H   0  0  0  0  0  0  0  0  0  0  0  0
   58.3723   27.0019   43.6540 H   0  0  0  0  0  0  0  0  0  0  0  0
   59.6383   28.2762   43.6540 H   0  0  0  0  0  0  0  0  0  0  0  0
   57.4287   30.2125   47.1615 H   0  0  0  0  0  0  0  0  0  0  0  0
   58.1928   28.6213   46.8096 H   0  0  0  0  0  0  0  0  0  0  0  0
   58.7374   30.3079   49.3167 H   0  0  0  0  0  0  0  0  0  0  0  0
   60.8606   31.1257   50.3370 H   0  0  0  0  0  0  0  0  0  0  0  0
   63.0166   32.1951   49.9745 H   0  0  0  0  0  0  0  0  0  0  0  0
   63.8404   30.7139   49.3570 H   0  0  0  0  0  0  0  0  0  0  0  0
   64.0970   31.9040   47.2110 H   0  0  0  0  0  0  0  0  0  0  0  0
   64.9810   32.5470   48.4970 H   0  0  0  0  0  0  0  0  0  0  0  0
   64.2923   34.4341   47.9381 H   0  0  0  0  0  0  0  0  0  0  0  0
   63.2077   34.7247   45.8792 H   0  0  0  0  0  0  0  0  0  0  0  0
   63.0710   32.9786   45.7853 H   0  0  0  0  0  0  0  0  0  0  0  0
   60.5831   33.8126   44.6530 H   0  0  0  0  0  0  0  0  0  0  0  0
   58.1993   34.0450   45.4162 H   0  0  0  0  0  0  0  0  0  0  0  0
   57.6911   34.3622   47.8462 H   0  0  0  0  0  0  0  0  0  0  0  0
   59.5593   34.4336   49.5240 H   0  0  0  0  0  0  0  0  0  0  0  0
   62.5034   35.1683   49.2392 H   0  0  0  0  0  0  0  0  0  0  0  0
   62.2586   33.4953   49.7078 H   0  0  0  0  0  0  0  0  0  0  0  0
   62.7827   30.9778   46.4593 H   0  0  0  0  0  0  0  0  0  0  0  0
   60.6596   30.1664   45.4354 H   0  0  0  0  0  0  0  0  0  0  0  0
  1  2  1  0
  2  3  1  0
  3  4  1  0
  4  5  1  0
  3  6  1  0
  6  7  1  0
  7  8  2  0
  8  9  1  0
  9 10  2  0
 10 11  1  0
 11 12  1  0
 12 13  1  0
 13 14  1  0
 14 15  1  0
 15 16  2  0
 16 17  1  0
 17 18  2  0
 18 19  1  0
 19 20  2  0
 20 21  1  0
 10 22  1  0
 22 23  2  0
 23  7  1  0
 21 13  1  0
 20 15  1  0
  1 24  1  0
  1 25  1  0
  1 26  1  0
  2 27  1  0
  2 28  1  0
  4 29  1  0
  4 30  1  0
  5 31  1  0
  5 32  1  0
  5 33  1  0
  6 34  1  0
  6 35  1  0
  8 36  1  0
  9 37  1  0
 11 38  1  0
 11 39  1  0
 12 40  1  0
 12 41  1  0
 13 42  1  0
 14 43  1  0
 14 44  1  0
 16 45  1  0
 17 46  1  0
 18 47  1  0
 19 48  1  0
 21 49  1  0
 21 50  1  0
 22 51  1  0
 23 52  1  0
M  CHG  1  12   1
M  END
>  <UniqueID>  (47) 
44

>  <SMILES>  (47) 
CCN(CC)Cc1ccc(C[NH2+]C2Cc3ccccc3C2)cc1

>  <Energy>  (47) 
62.607410260105276

>  <Genealogy>  (47) 
CCN(CC)Cc1ccc(C[NH2+]C2Cc3ccccc3C2)cc1 (protonated)
CCN(CC)Cc1ccc(C[NH2+]C2Cc3ccccc3C2)cc1 (3D coordinates assigned)
CCN(CC)Cc1ccc(C[NH2+]C2Cc3ccccc3C2)cc1 (nonaromatic ring conformer: 62.607410260105276 kcal/mol)

>  <smiles>  (47) 
CCN(CC)Cc1ccc(CNC2Cc3ccccc3C2)cc1

>  <score_type>  (47) 
oracle

>  <origin>  (47) 
adg

>  <m_score__min__energy>  (47) 
-6.0800000000000001

>  <m_primary>  (47) 
energy

$$$$
47:0
     RDKit          3D

 47 49  0  0  0  0  0  0  0  0999 V2000
   56.5850   29.6260   43.0080 C   0  0  0  0  0  0  0  0  0  0  0  0
   55.7980   29.8400   44.2980 C   0  0  0  0  0  0  0  0  0  0  0  0
   55.5220   28.5920   44.9350 O   0  0  0  0  0  0  0  0  0  0  0  0
   56.4510   27.7720   45.5990 C   0  0  0  0  0  0  0  0  0  0  0  0
   57.7720   28.2050   45.8290 C   0  0  0  0  0  0  0  0  0  0  0  0
   58.6950   27.3860   46.4870 C   0  0  0  0  0  0  0  0  0  0  0  0
   60.1120   27.8480   46.6820 C   0  0  0  0  0  0  0  0  0  0  0  0
   60.1400   29.3260   46.9090 C   0  0  0  0  0  0  0  0  0  0  0  0
   60.7890   29.9190   47.9360 N   0  0  0  0  0  0  0  0  0  0  0  0
   60.7370   31.2760   47.8760 C   0  0  0  0  0  0  0  0  0  0  0  0
   60.0450   31.7770   46.7740 C   0  0  0  0  0  0  0  0  0  0  0  0
   59.8360   33.1950   46.4430 C   0  0  0  0  0  0  0  0  0  0  0  0
   59.3440   33.7010   45.2440 C   0  0  0  0  0  0  0  0  0  0  0  0
   59.2570   35.0990   45.2270 C   0  0  0  0  0  0  0  0  0  0  0  0
   59.6780   35.6990   46.4070 C   0  0  0  0  0  0  0  0  0  0  0  0
   60.1580   34.4890   47.4710 S   0  0  0  0  0  0  0  0  0  0  0  0
   59.4950   30.4700   45.8600 S   0  0  0  0  0  0  0  0  0  0  0  0
   58.3090   26.1070   46.8990 C   0  0  0  0  0  0  0  0  0  0  0  0
   56.9970   25.6510   46.6850 C   0  0  0  0  0  0  0  0  0  0  0  0
   56.5730   24.3730   47.0920 O   0  0  0  0  0  0  0  0  0  0  0  0
   57.0030   23.6810   48.2650 C   0  0  0  0  0  0  0  0  0  0  0  0
   56.0250   22.5680   48.6260 C   0  0  0  0  0  0  0  0  0  0  0  0
   56.0630   26.4790   46.0370 C   0  0  0  0  0  0  0  0  0  0  0  0
   54.7700   25.9500   45.8630 O   0  0  0  0  0  0  0  0  0  0  0  0
   54.4360   24.6880   45.2960 C   0  0  0  0  0  0  0  0  0  0  0  0
   57.6200   29.3446   43.2523 H   0  0  0  0  0  0  0  0  0  0  0  0
   56.1155   28.8229   42.4210 H   0  0  0  0  0  0  0  0  0  0  0  0
   56.5868   30.5563   42.4210 H   0  0  0  0  0  0  0  0  0  0  0  0
   56.3873   30.4707   44.9799 H   0  0  0  0  0  0  0  0  0  0  0  0
   54.8442   30.3299   44.0527 H   0  0  0  0  0  0  0  0  0  0  0  0
   58.0821   29.2029   45.4856 H   0  0  0  0  0  0  0  0  0  0  0  0
   60.5453   27.3369   47.5544 H   0  0  0  0  0  0  0  0  0  0  0  0
   60.6974   27.6092   45.7818 H   0  0  0  0  0  0  0  0  0  0  0  0
   61.2880   29.3960   48.6900 H   0  0  0  0  0  0  0  0  0  0  0  0
   61.2018   31.9245   48.6332 H   0  0  0  0  0  0  0  0  0  0  0  0
   59.0524   33.0665   44.3941 H   0  0  0  0  0  0  0  0  0  0  0  0
   58.8897   35.6683   44.3604 H   0  0  0  0  0  0  0  0  0  0  0  0
   59.6945   36.7799   46.6103 H   0  0  0  0  0  0  0  0  0  0  0  0
   59.0393   25.4512   47.3955 H   0  0  0  0  0  0  0  0  0  0  0  0
   57.9956   23.2437   48.0822 H   0  0  0  0  0  0  0  0  0  0  0  0
   57.0475   24.3959   49.0998 H   0  0  0  0  0  0  0  0  0  0  0  0
   55.9519   22.4848   49.7204 H   0  0  0  0  0  0  0  0  0  0  0  0
   55.0341   22.8010   48.2090 H   0  0  0  0  0  0  0  0  0  0  0  0
   56.3835   21.6153   48.2090 H   0  0  0  0  0  0  0  0  0  0  0  0
   54.2443   23.9635   46.1012 H   0  0  0  0  0  0  0  0  0  0  0  0
   53.5346   24.7924   44.6743 H   0  0  0  0  0  0  0  0  0  0  0  0
   55.2711   24.3328   44.6743 H   0  0  0  0  0  0  0  0  0  0  0  0
  1  2  1  0
  2  3  1  0
  3  4  1  0
  4  5  2  0
  5  6  1  0
  6  7  1  0
  7  8  1  0
  8  9  2  0
  9 10  1  0
 10 11  2  0
 11 12  1  0
 12 13  2  0
 13 14  1  0
 14 15  2  0
 15 16  1  0
 11 17  1  0
  6 18  2  0
 18 19  1  0
 19 20  1  0
 20 21  1  0
 21 22  1  0
 19 23  2  0
 23 24  1  0
 24 25  1  0
 23  4  1  0
 17  8  1  0
 16 12  1  0
  1 26  1  0
  1 27  1  0
  1 28  1  0
  2 29  1  0
  2 30  1  0
  5 31  1  0
  7 32  1  0
  7 33  1  0
  9 34  1  0
 10 35  1  0
 13 36  1  0
 14 37  1  0
 15 38  1  0
 18 39  1  0
 21 40  1  0
 21 41  1  0
 22 42  1  0
 22 43  1  0
 22 44  1  0
 25 45  1  0
 25 46  1  0
 25 47  1  0
M  CHG  1   9   1
M  END
>  <UniqueID>  (48) 
45

>  <SMILES>  (48) 
CCOc1cc(Cc2[nH+]cc(-c3cccs3)s2)cc(OCC)c1OC

>  <Energy>  (48) 
99.75224412021409

>  <Genealogy>  (48) 
CCOc1cc(Cc2[nH+]cc(-c3cccs3)s2)cc(OCC)c1OC (protonated)
CCOc1cc(Cc2[nH+]cc(-c3cccs3)s2)cc(OCC)c1OC (3D coordinates assigned)
CCOc1cc(Cc2[nH+]cc(-c3cccs3)s2)cc(OCC)c1OC (optimized conformer: 99.75224412021409 kcal/mol)

>  <smiles>  (48) 
CCOc1cc(Cc2ncc(-c3cccs3)s2)cc(OCC)c1OC

>  <score_type>  (48) 
oracle

>  <origin>  (48) 
adg

>  <m_score__min__energy>  (48) 
-6.3300000000000001

>  <m_primary>  (48) 
energy

$$$$
