0:0
     RDKit          3D

 45 48  0  0  0  0  0  0  0  0999 V2000
   58.8950   30.4240   47.5500 O   0  0  0  0  0  0  0  0  0  0  0  0
   59.6410   31.4120   47.3060 C   0  0  0  0  0  0  0  0  0  0  0  0
   59.1480   32.4710   46.4000 C   0  0  0  0  0  0  0  0  0  0  0  0
   59.5000   33.8020   46.6820 C   0  0  0  0  0  0  0  0  0  0  0  0
   58.9780   34.8510   45.9240 C   0  0  0  0  0  0  0  0  0  0  0  0
   58.0870   34.5860   44.8850 C   0  0  0  0  0  0  0  0  0  0  0  0
   57.7260   33.2710   44.5920 C   0  0  0  0  0  0  0  0  0  0  0  0
   58.2590   32.1980   45.3270 C   0  0  0  0  0  0  0  0  0  0  0  0
   57.8810   30.8240   44.9210 C   0  0  0  0  0  0  0  0  0  0  0  0
   58.7300   29.8200   44.4860 C   0  0  0  0  0  0  0  0  0  0  0  0
   57.9200   28.7460   44.1910 C   0  0  0  0  0  0  0  0  0  0  0  0
   56.6290   29.1560   44.4530 C   0  0  0  0  0  0  0  0  0  0  0  0
   56.6380   30.3970   44.8800 O   0  0  0  0  0  0  0  0  0  0  0  0
   60.9450   31.4970   47.9170 N   0  0  0  0  0  0  0  0  0  0  0  0
   62.0180   32.2450   47.2360 C   0  0  0  0  0  0  0  0  0  0  0  0
   63.3920   31.9250   47.8290 C   0  0  0  0  0  0  0  0  0  0  0  0
   63.3300   32.0120   49.2910 N   0  0  0  0  0  0  0  0  0  0  0  0
   64.3450   32.7230   50.0190 C   0  0  0  0  0  0  0  0  0  0  0  0
   65.7000   32.3990   49.8400 C   0  0  0  0  0  0  0  0  0  0  0  0
   66.6890   33.0890   50.5470 C   0  0  0  0  0  0  0  0  0  0  0  0
   66.3330   34.1030   51.4400 C   0  0  0  0  0  0  0  0  0  0  0  0
   64.9870   34.4290   51.6280 C   0  0  0  0  0  0  0  0  0  0  0  0
   63.9930   33.7420   50.9220 C   0  0  0  0  0  0  0  0  0  0  0  0
   62.6900   34.0510   51.1390 F   0  0  0  0  0  0  0  0  0  0  0  0
   62.2300   31.3700   50.0250 C   0  0  0  0  0  0  0  0  0  0  0  0
   61.2600   30.6520   49.0780 C   0  0  0  0  0  0  0  0  0  0  0  0
   60.1934   34.0190   47.5079 H   0  0  0  0  0  0  0  0  0  0  0  0
   59.2698   35.8880   46.1465 H   0  0  0  0  0  0  0  0  0  0  0  0
   57.6682   35.4150   44.2956 H   0  0  0  0  0  0  0  0  0  0  0  0
   57.0158   33.0713   43.7761 H   0  0  0  0  0  0  0  0  0  0  0  0
   59.8251   29.8701   44.3949 H   0  0  0  0  0  0  0  0  0  0  0  0
   58.2382   27.7601   43.8211 H   0  0  0  0  0  0  0  0  0  0  0  0
   55.7290   28.5369   44.3237 H   0  0  0  0  0  0  0  0  0  0  0  0
   62.0184   31.9768   46.1692 H   0  0  0  0  0  0  0  0  0  0  0  0
   61.8270   33.3199   47.3709 H   0  0  0  0  0  0  0  0  0  0  0  0
   63.6893   30.9075   47.5353 H   0  0  0  0  0  0  0  0  0  0  0  0
   64.1298   32.6482   47.4514 H   0  0  0  0  0  0  0  0  0  0  0  0
   65.9841   31.5989   49.1405 H   0  0  0  0  0  0  0  0  0  0  0  0
   67.7488   32.8334   50.4002 H   0  0  0  0  0  0  0  0  0  0  0  0
   67.1126   34.6450   51.9954 H   0  0  0  0  0  0  0  0  0  0  0  0
   64.7085   35.2269   52.3321 H   0  0  0  0  0  0  0  0  0  0  0  0
   62.6509   30.6361   50.7280 H   0  0  0  0  0  0  0  0  0  0  0  0
   61.6716   32.1524   50.5599 H   0  0  0  0  0  0  0  0  0  0  0  0
   61.7222   29.7168   48.7290 H   0  0  0  0  0  0  0  0  0  0  0  0
   60.3284   30.4379   49.6223 H   0  0  0  0  0  0  0  0  0  0  0  0
  1  2  2  0
  2  3  1  0
  3  4  2  0
  4  5  1  0
  5  6  2  0
  6  7  1  0
  7  8  2  0
  8  9  1  0
  9 10  2  0
 10 11  1  0
 11 12  2  0
 12 13  1  0
  2 14  1  0
 14 15  1  0
 15 16  1  0
 16 17  1  0
 17 18  1  0
 18 19  2  0
 19 20  1  0
 20 21  2  0
 21 22  1  0
 22 23  2  0
 23 24  1  0
 17 25  1  0
 25 26  1  0
  8  3  1  0
 13  9  1  0
 26 14  1  0
 23 18  1  0
  4 27  1  0
  5 28  1  0
  6 29  1  0
  7 30  1  0
 10 31  1  0
 11 32  1  0
 12 33  1  0
 15 34  1  0
 15 35  1  0
 16 36  1  0
 16 37  1  0
 19 38  1  0
 20 39  1  0
 21 40  1  0
 22 41  1  0
 25 42  1  0
 25 43  1  0
 26 44  1  0
 26 45  1  0
M  END
>  <UniqueID>  (1) 
1

>  <SMILES>  (1) 
O=C(c1ccccc1-c1ccco1)N1CCN(c2ccccc2F)CC1

>  <Energy>  (1) 
90.29433105177591

>  <Genealogy>  (1) 
O=C(c1ccccc1-c1ccco1)N1CCN(c2ccccc2F)CC1 (3D coordinates assigned)
O=C(c1ccccc1-c1ccco1)N1CCN(c2ccccc2F)CC1 (nonaromatic ring conformer: 90.29433105177591 kcal/mol)

>  <smiles>  (1) 
O=C(c1ccccc1-c1ccco1)N1CCN(c2ccccc2F)CC1

>  <score_type>  (1) 
oracle

>  <origin>  (1) 
adg

>  <m_score__min__energy>  (1) 
-7.9199999999999999

>  <m_primary>  (1) 
energy

$$$$
1:0
     RDKit          3D

 57 59  0  0  1  0  0  0  0  0999 V2000
   56.9150   25.4300   46.7050 C   0  0  0  0  0  0  0  0  0  0  0  0
   58.3850   25.0620   46.4830 C   0  0  0  0  0  0  0  0  0  0  0  0
   59.2870   25.9720   47.2730 C   0  0  0  0  0  0  0  0  0  0  0  0
   59.8600   26.9730   46.5000 O   0  0  0  0  0  0  0  0  0  0  0  0
   59.0920   27.9780   45.9480 C   0  0  0  0  0  0  0  0  0  0  0  0
   58.4120   27.8120   44.7600 C   0  0  0  0  0  0  0  0  0  0  0  0
   57.6860   28.8630   44.2970 C   0  0  0  0  0  0  0  0  0  0  0  0
   57.0190   28.6950   43.1310 N   0  0  0  0  0  0  0  0  0  0  0  0
   56.2790   29.6930   42.6080 C   0  0  0  0  0  0  0  0  0  0  0  0
   56.2480   30.8390   43.3080 N   0  0  0  0  0  0  0  0  0  0  0  0
   56.8890   31.0440   44.4590 C   0  0  0  0  0  0  0  0  0  0  0  0
   56.8010   32.1400   45.0360 N   0  0  0  0  0  0  0  0  0  0  0  0
   57.6790   33.0940   45.4670 C   0  0  0  0  0  0  0  0  0  0  0  0
   58.2410   33.9620   44.4930 C   0  0  0  0  0  0  0  0  0  0  0  0
   59.2120   34.8680   44.8390 C   0  0  0  0  0  0  0  0  0  0  0  0
   59.6390   34.9280   46.1570 C   0  0  0  0  0  0  0  0  0  0  0  0
   59.1030   34.0930   47.1140 C   0  0  0  0  0  0  0  0  0  0  0  0
   59.6800   34.2110   48.7640 Cl  0  0  0  0  0  0  0  0  0  0  0  0
   58.1250   33.1720   46.7930 C   0  0  0  0  0  0  0  0  0  0  0  0
   57.6510   30.0460   45.0150 C   0  0  0  0  0  0  0  0  0  0  0  0
   58.3200   30.2170   46.1870 C   0  0  0  0  0  0  0  0  0  0  0  0
   59.0700   29.1460   46.6740 C   0  0  0  0  0  0  0  0  0  0  0  0
   59.8070   29.2590   47.9110 N   0  0  0  0  0  0  0  0  0  0  0  0
   60.6330   30.4410   47.9950 C   0  0  0  0  0  0  0  0  0  0  0  0
   60.6600   31.2660   47.0220 O   0  0  0  0  0  0  0  0  0  0  0  0
   61.4390   30.7000   49.1820 C   0  0  0  0  0  0  0  0  0  0  0  0
   62.6380   31.2510   49.0850 C   0  0  0  0  0  0  0  0  0  0  0  0
   63.2240   31.6390   47.7670 C   0  0  0  0  0  0  0  0  0  0  0  0
   63.5380   33.0410   47.8340 N   0  0  0  0  0  0  0  0  0  0  0  0
   63.0790   33.7210   48.9950 C   0  0  0  0  0  0  0  0  0  0  0  0
   63.2910   33.7660   46.6310 C   0  0  0  0  0  0  0  0  0  0  0  0
   56.7089   25.4816   47.7843 H   0  0  0  0  0  0  0  0  0  0  0  0
   56.7083   26.4076   46.2451 H   0  0  0  0  0  0  0  0  0  0  0  0
   56.2720   24.6651   46.2451 H   0  0  0  0  0  0  0  0  0  0  0  0
   58.5495   24.0229   46.8043 H   0  0  0  0  0  0  0  0  0  0  0  0
   58.6195   25.1729   45.4140 H   0  0  0  0  0  0  0  0  0  0  0  0
   58.6967   26.4419   48.0735 H   0  0  0  0  0  0  0  0  0  0  0  0
   60.1059   25.3565   47.6737 H   0  0  0  0  0  0  0  0  0  0  0  0
   58.4558   26.8623   44.2067 H   0  0  0  0  0  0  0  0  0  0  0  0
   57.0490   27.7940   42.5900 H   0  0  0  0  0  0  0  0  0  0  0  0
   55.7314   29.5755   41.6613 H   0  0  0  0  0  0  0  0  0  0  0  0
   57.8943   33.9074   43.4505 H   0  0  0  0  0  0  0  0  0  0  0  0
   59.6456   35.5373   44.0814 H   0  0  0  0  0  0  0  0  0  0  0  0
   60.4163   35.6520   46.4428 H   0  0  0  0  0  0  0  0  0  0  0  0
   57.7036   32.5113   47.5649 H   0  0  0  0  0  0  0  0  0  0  0  0
   58.2712   31.1702   46.7339 H   0  0  0  0  0  0  0  0  0  0  0  0
   59.7560   28.5730   48.6670 H   0  0  0  0  0  0  0  0  0  0  0  0
   61.0442   30.4332   50.1734 H   0  0  0  0  0  0  0  0  0  0  0  0
   63.2200   31.4285   50.0014 H   0  0  0  0  0  0  0  0  0  0  0  0
   64.1378   31.0574   47.5756 H   0  0  0  0  0  0  0  0  0  0  0  0
   62.5142   31.4377   46.9511 H   0  0  0  0  0  0  0  0  0  0  0  0
   63.4345   33.1944   49.8929 H   0  0  0  0  0  0  0  0  0  0  0  0
   63.4681   34.7499   48.9952 H   0  0  0  0  0  0  0  0  0  0  0  0
   61.9793   33.7449   48.9952 H   0  0  0  0  0  0  0  0  0  0  0  0
   62.9454   34.7805   46.8787 H   0  0  0  0  0  0  0  0  0  0  0  0
   64.2187   33.8280   46.0432 H   0  0  0  0  0  0  0  0  0  0  0  0
   62.5184   33.2487   46.0432 H   0  0  0  0  0  0  0  0  0  0  0  0
  1  2  1  0
  2  3  1  0
  3  4  1  0
  4  5  1  0
  5  6  2  0
  6  7  1  0
  7  8  1  0
  8  9  1  0
  9 10  2  0
 10 11  1  0
 11 12  2  0
 12 13  1  0
 13 14  2  0
 14 15  1  0
 15 16  2  0
 16 17  1  0
 17 18  1  0
 17 19  2  0
 11 20  1  0
 20 21  1  0
 21 22  2  0
 22 23  1  0
 23 24  1  0
 24 25  2  0
 24 26  1  0
 26 27  2  0
 27 28  1  0
 28 29  1  0
 29 30  1  0
 29 31  1  0
 22  5  1  0
 20  7  2  0
 19 13  1  0
  1 32  1  0
  1 33  1  0
  1 34  1  0
  2 35  1  0
  2 36  1  0
  3 37  1  0
  3 38  1  0
  6 39  1  0
  8 40  1  0
  9 41  1  0
 14 42  1  0
 15 43  1  0
 16 44  1  0
 19 45  1  0
 21 46  1  0
 23 47  1  0
 26 48  1  0
 27 49  1  0
 28 50  1  0
 28 51  1  0
 30 52  1  0
 30 53  1  0
 30 54  1  0
 31 55  1  0
 31 56  1  0
 31 57  1  0
M  END
>  <smiles>  (2) 
CCCOc1cc2[nH]cnc(=Nc3cccc(Cl)c3)c2cc1NC(=O)C=CCN(C)C

>  <score_type>  (2) 
oracle

>  <origin>  (2) 
adg

>  <m_score__min__energy>  (2) 
-8.4700000000000006

>  <m_primary>  (2) 
energy

$$$$
2:0
     RDKit          3D

 45 48  0  0  0  0  0  0  0  0999 V2000
   56.7250   21.5370   46.5720 C   0  0  0  0  0  0  0  0  0  0  0  0
   57.0780   22.5820   47.4720 O   0  0  0  0  0  0  0  0  0  0  0  0
   57.5660   23.8360   47.0770 C   0  0  0  0  0  0  0  0  0  0  0  0
   57.3750   24.9980   47.8490 C   0  0  0  0  0  0  0  0  0  0  0  0
   57.8800   26.2270   47.4120 C   0  0  0  0  0  0  0  0  0  0  0  0
   58.5740   26.3190   46.1950 C   0  0  0  0  0  0  0  0  0  0  0  0
   59.1100   27.5740   45.7370 N   0  0  0  0  0  0  0  0  0  0  0  0
   60.0690   28.2530   46.3430 N   0  0  0  0  0  0  0  0  0  0  0  0
   60.4220   29.2930   45.6060 N   0  0  0  0  0  0  0  0  0  0  0  0
   59.7030   29.3060   44.4920 N   0  0  0  0  0  0  0  0  0  0  0  0
   58.8840   28.2400   44.5840 C   0  0  0  0  0  0  0  0  0  0  0  0
   57.7690   27.7340   43.2670 S   0  0  0  0  0  0  0  0  0  0  0  0
   56.9640   29.3650   43.1110 C   0  0  0  0  0  0  0  0  0  0  0  0
   56.3370   29.7640   44.4180 C   0  0  0  0  0  0  0  0  0  0  0  0
   55.7640   28.8820   45.1110 O   0  0  0  0  0  0  0  0  0  0  0  0
   56.2640   31.1320   44.8430 N   0  0  0  0  0  0  0  0  0  0  0  0
   57.3680   31.9540   45.2410 C   0  0  0  0  0  0  0  0  0  0  0  0
   57.3920   33.3000   44.8480 C   0  0  0  0  0  0  0  0  0  0  0  0
   58.4540   34.1280   45.2240 C   0  0  0  0  0  0  0  0  0  0  0  0
   59.4870   33.6180   46.0150 C   0  0  0  0  0  0  0  0  0  0  0  0
   59.4370   32.2920   46.4650 C   0  0  0  0  0  0  0  0  0  0  0  0
   58.3840   31.4590   46.0770 C   0  0  0  0  0  0  0  0  0  0  0  0
   60.4520   31.8200   47.3030 O   0  0  0  0  0  0  0  0  0  0  0  0
   61.3780   32.7190   47.9200 C   0  0  0  0  0  0  0  0  0  0  0  0
   61.7550   33.8450   46.9480 C   0  0  0  0  0  0  0  0  0  0  0  0
   60.5770   34.4180   46.3750 O   0  0  0  0  0  0  0  0  0  0  0  0
   58.7730   25.1560   45.4340 C   0  0  0  0  0  0  0  0  0  0  0  0
   58.2680   23.9290   45.8710 C   0  0  0  0  0  0  0  0  0  0  0  0
   56.4242   20.6467   47.1437 H   0  0  0  0  0  0  0  0  0  0  0  0
   55.8881   21.8659   45.9384 H   0  0  0  0  0  0  0  0  0  0  0  0
   57.5899   21.2910   45.9384 H   0  0  0  0  0  0  0  0  0  0  0  0
   56.8260   24.9389   48.8004 H   0  0  0  0  0  0  0  0  0  0  0  0
   57.7324   27.1276   48.0261 H   0  0  0  0  0  0  0  0  0  0  0  0
   60.4950   28.0090   47.2650 H   0  0  0  0  0  0  0  0  0  0  0  0
   57.7161   30.1151   42.8252 H   0  0  0  0  0  0  0  0  0  0  0  0
   56.1803   29.3053   42.3414 H   0  0  0  0  0  0  0  0  0  0  0  0
   56.5703   33.7068   44.2402 H   0  0  0  0  0  0  0  0  0  0  0  0
   58.4764   35.1783   44.8980 H   0  0  0  0  0  0  0  0  0  0  0  0
   58.3502   30.4163   46.4257 H   0  0  0  0  0  0  0  0  0  0  0  0
   60.9169   33.1546   48.8187 H   0  0  0  0  0  0  0  0  0  0  0  0
   62.2871   32.1638   48.1944 H   0  0  0  0  0  0  0  0  0  0  0  0
   62.3102   34.6236   47.4917 H   0  0  0  0  0  0  0  0  0  0  0  0
   62.3801   33.4303   46.1435 H   0  0  0  0  0  0  0  0  0  0  0  0
   59.3303   25.2114   44.4873 H   0  0  0  0  0  0  0  0  0  0  0  0
   58.4240   23.0273   45.2606 H   0  0  0  0  0  0  0  0  0  0  0  0
  1  2  1  0
  2  3  1  0
  3  4  2  0
  4  5  1  0
  5  6  2  0
  6  7  1  0
  7  8  1  0
  8  9  2  0
  9 10  1  0
 10 11  2  0
 11 12  1  0
 12 13  1  0
 13 14  1  0
 14 15  2  0
 14 16  1  0
 16 17  1  0
 17 18  2  0
 18 19  1  0
 19 20  2  0
 20 21  1  0
 21 22  2  0
 21 23  1  0
 23 24  1  0
 24 25  1  0
 25 26  1  0
  6 27  1  0
 27 28  2  0
 28  3  1  0
 11  7  1  0
 22 17  1  0
 26 20  1  0
  1 29  1  0
  1 30  1  0
  1 31  1  0
  4 32  1  0
  5 33  1  0
  8 34  1  0
 13 35  1  0
 13 36  1  0
 18 37  1  0
 19 38  1  0
 22 39  1  0
 24 40  1  0
 24 41  1  0
 25 42  1  0
 25 43  1  0
 27 44  1  0
 28 45  1  0
M  CHG  2   8   1  16  -1
M  END
>  <UniqueID>  (3) 
2

>  <SMILES>  (3) 
COc1ccc(-n2[nH+]nnc2SCC(=O)[N-]c2ccc3c(c2)OCCO3)cc1

>  <Energy>  (3) 
94.94277899564722

>  <Genealogy>  (3) 
COc1ccc(-n2[nH+]nnc2SCC(=O)[N-]c2ccc3c(c2)OCCO3)cc1 (protonated)
COc1ccc(-n2[nH+]nnc2SCC(=O)[N-]c2ccc3c(c2)OCCO3)cc1 (3D coordinates assigned)
COc1ccc(-n2[nH+]nnc2SCC(=O)[N-]c2ccc3c(c2)OCCO3)cc1 (nonaromatic ring conformer: 94.94277899564722 kcal/mol)

>  <smiles>  (3) 
COc1ccc(-n2nnnc2SCC(=O)Nc2ccc3c(c2)OCCO3)cc1

>  <score_type>  (3) 
oracle

>  <origin>  (3) 
adg

>  <m_score__min__energy>  (3) 
-9.0500000000000007

>  <m_primary>  (3) 
energy

$$$$
3:0
     RDKit          3D

 51 54  0  0  0  0  0  0  0  0999 V2000
   59.6150   27.8880   45.7780 C   0  0  0  0  0  0  0  0  0  0  0  0
   58.4630   26.9530   46.0430 C   0  0  0  0  0  0  0  0  0  0  0  0
   58.7420   25.6970   46.6130 C   0  0  0  0  0  0  0  0  0  0  0  0
   57.7170   24.7900   46.8790 C   0  0  0  0  0  0  0  0  0  0  0  0
   56.3990   25.1220   46.5800 C   0  0  0  0  0  0  0  0  0  0  0  0
   56.0980   26.3610   46.0150 C   0  0  0  0  0  0  0  0  0  0  0  0
   57.1160   27.2970   45.7360 C   0  0  0  0  0  0  0  0  0  0  0  0
   56.7280   28.6010   45.1330 C   0  0  0  0  0  0  0  0  0  0  0  0
   57.6240   29.5510   44.7810 N   0  0  0  0  0  0  0  0  0  0  0  0
   56.8530   30.5370   44.2840 C   0  0  0  0  0  0  0  0  0  0  0  0
   57.3830   31.8510   43.7950 C   0  0  0  0  0  0  0  0  0  0  0  0
   57.5420   32.8040   44.9130 N   0  0  0  0  0  0  0  0  0  0  0  0
   58.0890   32.1370   46.1210 C   0  0  0  0  0  0  0  0  0  0  0  0
   59.6020   32.3600   46.2800 C   0  0  0  0  0  0  0  0  0  0  0  0
   59.9520   33.8000   46.3800 N   0  0  0  0  0  0  0  0  0  0  0  0
   60.1720   34.2070   47.7850 C   0  0  0  0  0  0  0  0  0  0  0  0
   61.5780   33.8870   48.2240 C   0  0  0  0  0  0  0  0  0  0  0  0
   61.9370   34.0120   49.5760 C   0  0  0  0  0  0  0  0  0  0  0  0
   63.2340   33.6930   49.9920 C   0  0  0  0  0  0  0  0  0  0  0  0
   64.1770   33.2430   49.0630 C   0  0  0  0  0  0  0  0  0  0  0  0
   63.8250   33.1100   47.7190 C   0  0  0  0  0  0  0  0  0  0  0  0
   62.5290   33.4280   47.2970 C   0  0  0  0  0  0  0  0  0  0  0  0
   58.9710   34.6880   45.7060 C   0  0  0  0  0  0  0  0  0  0  0  0
   58.3270   33.9970   44.5000 C   0  0  0  0  0  0  0  0  0  0  0  0
   55.5310   30.1690   44.3570 C   0  0  0  0  0  0  0  0  0  0  0  0
   55.4900   28.9710   44.8800 O   0  0  0  0  0  0  0  0  0  0  0  0
   60.0368   28.2304   46.7345 H   0  0  0  0  0  0  0  0  0  0  0  0
   60.3905   27.3607   45.2031 H   0  0  0  0  0  0  0  0  0  0  0  0
   59.2585   28.7554   45.2031 H   0  0  0  0  0  0  0  0  0  0  0  0
   59.7814   25.4275   46.8516 H   0  0  0  0  0  0  0  0  0  0  0  0
   57.9501   23.8120   47.3252 H   0  0  0  0  0  0  0  0  0  0  0  0
   55.5919   24.4047   46.7900 H   0  0  0  0  0  0  0  0  0  0  0  0
   55.0523   26.6119   45.7837 H   0  0  0  0  0  0  0  0  0  0  0  0
   58.3607   31.6898   43.3173 H   0  0  0  0  0  0  0  0  0  0  0  0
   56.6676   32.2720   43.0732 H   0  0  0  0  0  0  0  0  0  0  0  0
   57.5777   32.5387   47.0083 H   0  0  0  0  0  0  0  0  0  0  0  0
   57.9192   31.0556   46.0126 H   0  0  0  0  0  0  0  0  0  0  0  0
   59.9408   31.8493   47.1935 H   0  0  0  0  0  0  0  0  0  0  0  0
   60.0978   31.9545   45.3857 H   0  0  0  0  0  0  0  0  0  0  0  0
   60.0038   35.2902   47.8767 H   0  0  0  0  0  0  0  0  0  0  0  0
   59.4694   33.6535   48.4253 H   0  0  0  0  0  0  0  0  0  0  0  0
   61.1961   34.3618   50.3100 H   0  0  0  0  0  0  0  0  0  0  0  0
   63.5122   33.7963   51.0512 H   0  0  0  0  0  0  0  0  0  0  0  0
   65.1968   32.9937   49.3915 H   0  0  0  0  0  0  0  0  0  0  0  0
   64.5678   32.7544   46.9898 H   0  0  0  0  0  0  0  0  0  0  0  0
   62.2543   33.3184   46.2375 H   0  0  0  0  0  0  0  0  0  0  0  0
   58.1838   34.9617   46.4240 H   0  0  0  0  0  0  0  0  0  0  0  0
   59.5024   35.5826   45.3491 H   0  0  0  0  0  0  0  0  0  0  0  0
   57.6572   34.7088   43.9953 H   0  0  0  0  0  0  0  0  0  0  0  0
   59.1279   33.6665   43.8223 H   0  0  0  0  0  0  0  0  0  0  0  0
   54.6678   30.7702   44.0354 H   0  0  0  0  0  0  0  0  0  0  0  0
  1  2  1  0
  2  3  2  0
  3  4  1  0
  4  5  2  0
  5  6  1  0
  6  7  2  0
  7  8  1  0
  8  9  2  0
  9 10  1  0
 10 11  1  0
 11 12  1  0
 12 13  1  0
 13 14  1  0
 14 15  1  0
 15 16  1  0
 16 17  1  0
 17 18  2  0
 18 19  1  0
 19 20  2  0
 20 21  1  0
 21 22  2  0
 15 23  1  0
 23 24  1  0
 10 25  2  0
 25 26  1  0
  7  2  1  0
 26  8  1  0
 24 12  1  0
 22 17  1  0
  1 27  1  0
  1 28  1  0
  1 29  1  0
  3 30  1  0
  4 31  1  0
  5 32  1  0
  6 33  1  0
 11 34  1  0
 11 35  1  0
 13 36  1  0
 13 37  1  0
 14 38  1  0
 14 39  1  0
 16 40  1  0
 16 41  1  0
 18 42  1  0
 19 43  1  0
 20 44  1  0
 21 45  1  0
 22 46  1  0
 23 47  1  0
 23 48  1  0
 24 49  1  0
 24 50  1  0
 25 51  1  0
M  END
>  <UniqueID>  (4) 
3

>  <SMILES>  (4) 
Cc1ccccc1-c1nc(CN2CCN(Cc3ccccc3)CC2)co1

>  <Energy>  (4) 
99.39028312036618

>  <Genealogy>  (4) 
Cc1ccccc1-c1nc(CN2CCN(Cc3ccccc3)CC2)co1 (3D coordinates assigned)
Cc1ccccc1-c1nc(CN2CCN(Cc3ccccc3)CC2)co1 (nonaromatic ring conformer: 99.39028312036618 kcal/mol)

>  <smiles>  (4) 
Cc1ccccc1-c1nc(CN2CCN(Cc3ccccc3)CC2)co1

>  <score_type>  (4) 
oracle

>  <origin>  (4) 
adg

>  <m_score__min__energy>  (4) 
-9.1600000000000001

>  <m_primary>  (4) 
energy

$$$$
4:0
     RDKit          3D

 45 46  0  0  0  0  0  0  0  0999 V2000
   59.0910   29.1790   47.7310 C   0  0  0  0  0  0  0  0  0  0  0  0
   58.0120   29.1250   46.7410 N   0  0  0  0  0  0  0  0  0  0  0  0
   58.5220   28.9420   45.3730 C   0  0  0  0  0  0  0  0  0  0  0  0
   58.2840   30.1730   44.4800 C   0  0  0  0  0  0  0  0  0  0  0  0
   57.0160   30.8390   44.8600 N   0  0  0  0  0  0  0  0  0  0  0  0
   55.8780   30.2440   44.1380 C   0  0  0  0  0  0  0  0  0  0  0  0
   57.0720   32.2920   44.5960 C   0  0  0  0  0  0  0  0  0  0  0  0
   57.8580   32.9930   45.6750 C   0  0  0  0  0  0  0  0  0  0  0  0
   58.5080   34.2090   45.4110 C   0  0  0  0  0  0  0  0  0  0  0  0
   59.2490   34.8400   46.4120 C   0  0  0  0  0  0  0  0  0  0  0  0
   59.3450   34.2690   47.6830 C   0  0  0  0  0  0  0  0  0  0  0  0
   58.6860   33.0620   47.9670 C   0  0  0  0  0  0  0  0  0  0  0  0
   58.7960   32.4500   49.2640 N   0  0  0  0  0  0  0  0  0  0  0  0
   57.7820   32.3400   50.1100 N   0  0  0  0  0  0  0  0  0  0  0  0
   58.2170   31.7220   51.2240 C   0  0  0  0  0  0  0  0  0  0  0  0
   57.3430   31.3440   52.3740 C   0  0  0  0  0  0  0  0  0  0  0  0
   59.5580   31.4150   51.0850 C   0  0  0  0  0  0  0  0  0  0  0  0
   59.8970   31.9080   49.8380 C   0  0  0  0  0  0  0  0  0  0  0  0
   61.2650   31.8450   49.2320 C   0  0  0  0  0  0  0  0  0  0  0  0
   57.9540   32.4230   46.9540 C   0  0  0  0  0  0  0  0  0  0  0  0
   58.6612   29.1575   48.7433 H   0  0  0  0  0  0  0  0  0  0  0  0
   59.7558   28.3130   47.5964 H   0  0  0  0  0  0  0  0  0  0  0  0
   59.6660   30.1070   47.5964 H   0  0  0  0  0  0  0  0  0  0  0  0
   57.4560   30.0110   46.7980 H   0  0  0  0  0  0  0  0  0  0  0  0
   59.6036   28.7480   45.4238 H   0  0  0  0  0  0  0  0  0  0  0  0
   57.9775   28.0973   44.9259 H   0  0  0  0  0  0  0  0  0  0  0  0
   59.1178   30.8796   44.6044 H   0  0  0  0  0  0  0  0  0  0  0  0
   58.2211   29.8501   43.4303 H   0  0  0  0  0  0  0  0  0  0  0  0
   55.1444   29.8604   44.8623 H   0  0  0  0  0  0  0  0  0  0  0  0
   55.4038   31.0096   43.5063 H   0  0  0  0  0  0  0  0  0  0  0  0
   56.2361   29.4177   43.5063 H   0  0  0  0  0  0  0  0  0  0  0  0
   57.5569   32.4652   43.6239 H   0  0  0  0  0  0  0  0  0  0  0  0
   56.0474   32.6920   44.5843 H   0  0  0  0  0  0  0  0  0  0  0  0
   58.4333   34.6657   44.4131 H   0  0  0  0  0  0  0  0  0  0  0  0
   59.7593   35.7908   46.1988 H   0  0  0  0  0  0  0  0  0  0  0  0
   59.9388   34.7664   48.4641 H   0  0  0  0  0  0  0  0  0  0  0  0
   56.8050   32.6570   49.9200 H   0  0  0  0  0  0  0  0  0  0  0  0
   57.8615   31.5683   53.3178 H   0  0  0  0  0  0  0  0  0  0  0  0
   56.4053   31.9170   52.3257 H   0  0  0  0  0  0  0  0  0  0  0  0
   57.1183   30.2683   52.3257 H   0  0  0  0  0  0  0  0  0  0  0  0
   60.2086   30.8957   51.8041 H   0  0  0  0  0  0  0  0  0  0  0  0
   62.0192   31.8103   50.0320 H   0  0  0  0  0  0  0  0  0  0  0  0
   61.3490   30.9420   48.6094 H   0  0  0  0  0  0  0  0  0  0  0  0
   61.4317   32.7364   48.6094 H   0  0  0  0  0  0  0  0  0  0  0  0
   57.4513   31.4674   47.1643 H   0  0  0  0  0  0  0  0  0  0  0  0
  1  2  1  0
  2  3  1  0
  3  4  1  0
  4  5  1  0
  5  6  1  0
  5  7  1  0
  7  8  1  0
  8  9  2  0
  9 10  1  0
 10 11  2  0
 11 12  1  0
 12 13  1  0
 13 14  1  0
 14 15  2  0
 15 16  1  0
 15 17  1  0
 17 18  2  0
 18 19  1  0
 12 20  2  0
 20  8  1  0
 18 13  1  0
  1 21  1  0
  1 22  1  0
  1 23  1  0
  2 24  1  0
  3 25  1  0
  3 26  1  0
  4 27  1  0
  4 28  1  0
  6 29  1  0
  6 30  1  0
  6 31  1  0
  7 32  1  0
  7 33  1  0
  9 34  1  0
 10 35  1  0
 11 36  1  0
 14 37  1  0
 16 38  1  0
 16 39  1  0
 16 40  1  0
 17 41  1  0
 19 42  1  0
 19 43  1  0
 19 44  1  0
 20 45  1  0
M  CHG  1  14   1
M  END
>  <UniqueID>  (5) 
4

>  <SMILES>  (5) 
CNCCN(C)Cc1cccc(-n2[nH+]c(C)cc2C)c1

>  <Energy>  (5) 
77.2521975998642

>  <Genealogy>  (5) 
CNCCN(C)Cc1cccc(-n2[nH+]c(C)cc2C)c1 (protonated)
CNCCN(C)Cc1cccc(-n2[nH+]c(C)cc2C)c1 (3D coordinates assigned)
CNCCN(C)Cc1cccc(-n2[nH+]c(C)cc2C)c1 (optimized conformer: 77.2521975998642 kcal/mol)

>  <smiles>  (5) 
CNCCN(C)Cc1cccc(-n2nc(C)cc2C)c1

>  <score_type>  (5) 
oracle

>  <origin>  (5) 
adg

>  <m_score__min__energy>  (5) 
-5.7699999999999996

>  <m_primary>  (5) 
energy

$$$$
5:0
     RDKit          3D

 41 43  0  0  0  0  0  0  0  0999 V2000
   58.1540   29.1710   46.5150 C   0  0  0  0  0  0  0  0  0  0  0  0
   57.0750   29.8740   45.9070 O   0  0  0  0  0  0  0  0  0  0  0  0
   57.1240   30.4840   44.6430 C   0  0  0  0  0  0  0  0  0  0  0  0
   56.5890   29.8470   43.5040 C   0  0  0  0  0  0  0  0  0  0  0  0
   56.6440   30.4630   42.2530 C   0  0  0  0  0  0  0  0  0  0  0  0
   57.2320   31.7190   42.1170 C   0  0  0  0  0  0  0  0  0  0  0  0
   57.2830   32.3150   40.9010 F   0  0  0  0  0  0  0  0  0  0  0  0
   57.7670   32.3650   43.2330 C   0  0  0  0  0  0  0  0  0  0  0  0
   57.7230   31.7610   44.5050 C   0  0  0  0  0  0  0  0  0  0  0  0
   58.3050   32.4830   45.6670 C   0  0  0  0  0  0  0  0  0  0  0  0
   57.6600   32.6980   46.8310 N   0  0  0  0  0  0  0  0  0  0  0  0
   58.5020   33.3520   47.5710 O   0  0  0  0  0  0  0  0  0  0  0  0
   59.6160   33.5390   46.9070 C   0  0  0  0  0  0  0  0  0  0  0  0
   60.8210   34.2520   47.4530 C   0  0  0  0  0  0  0  0  0  0  0  0
   60.8300   34.2110   49.0010 C   0  0  0  0  0  0  0  0  0  0  0  0
   61.6420   33.0340   49.5580 C   0  0  0  0  0  0  0  0  0  0  0  0
   63.0090   33.0150   49.0080 N   0  0  0  0  0  0  0  0  0  0  0  0
   64.0620   32.3010   49.6890 C   0  0  0  0  0  0  0  0  0  0  0  0
   63.7650   31.3300   50.7910 C   0  0  0  0  0  0  0  0  0  0  0  0
   65.2680   32.5080   49.3780 O   0  0  0  0  0  0  0  0  0  0  0  0
   63.3060   33.7570   47.7720 C   0  0  0  0  0  0  0  0  0  0  0  0
   62.1120   33.6810   46.8180 C   0  0  0  0  0  0  0  0  0  0  0  0
   59.5540   33.0010   45.6740 N   0  0  0  0  0  0  0  0  0  0  0  0
   58.0608   29.2317   47.6094 H   0  0  0  0  0  0  0  0  0  0  0  0
   58.1270   28.1166   46.2026 H   0  0  0  0  0  0  0  0  0  0  0  0
   59.1076   29.6217   46.2026 H   0  0  0  0  0  0  0  0  0  0  0  0
   56.1239   28.8551   43.6027 H   0  0  0  0  0  0  0  0  0  0  0  0
   56.2224   29.9561   41.3725 H   0  0  0  0  0  0  0  0  0  0  0  0
   58.2282   33.3570   43.1178 H   0  0  0  0  0  0  0  0  0  0  0  0
   60.7745   35.3157   47.1765 H   0  0  0  0  0  0  0  0  0  0  0  0
   61.2672   35.1484   49.3752 H   0  0  0  0  0  0  0  0  0  0  0  0
   59.7898   34.0848   49.3359 H   0  0  0  0  0  0  0  0  0  0  0  0
   61.6981   33.1243   50.6528 H   0  0  0  0  0  0  0  0  0  0  0  0
   61.1396   32.0993   49.2684 H   0  0  0  0  0  0  0  0  0  0  0  0
   63.9154   31.8217   51.7634 H   0  0  0  0  0  0  0  0  0  0  0  0
   62.7219   30.9904   50.7093 H   0  0  0  0  0  0  0  0  0  0  0  0
   64.4397   30.4650   50.7093 H   0  0  0  0  0  0  0  0  0  0  0  0
   63.5092   34.8096   48.0186 H   0  0  0  0  0  0  0  0  0  0  0  0
   64.1865   33.3119   47.2856 H   0  0  0  0  0  0  0  0  0  0  0  0
   62.3458   34.2574   45.9108 H   0  0  0  0  0  0  0  0  0  0  0  0
   61.9335   32.6213   46.5831 H   0  0  0  0  0  0  0  0  0  0  0  0
  1  2  1  0
  2  3  1  0
  3  4  2  0
  4  5  1  0
  5  6  2  0
  6  7  1  0
  6  8  1  0
  8  9  2  0
  9 10  1  0
 10 11  2  0
 11 12  1  0
 12 13  1  0
 13 14  1  0
 14 15  1  0
 15 16  1  0
 16 17  1  0
 17 18  1  0
 18 19  1  0
 18 20  2  0
 17 21  1  0
 21 22  1  0
 13 23  2  0
  9  3  1  0
 23 10  1  0
 22 14  1  0
  1 24  1  0
  1 25  1  0
  1 26  1  0
  4 27  1  0
  5 28  1  0
  8 29  1  0
 14 30  1  0
 15 31  1  0
 15 32  1  0
 16 33  1  0
 16 34  1  0
 19 35  1  0
 19 36  1  0
 19 37  1  0
 21 38  1  0
 21 39  1  0
 22 40  1  0
 22 41  1  0
M  END
>  <UniqueID>  (6) 
5

>  <SMILES>  (6) 
COc1ccc(F)cc1-c1noc(C2CCN(C(C)=O)CC2)n1

>  <Energy>  (6) 
77.37088978674056

>  <Genealogy>  (6) 
COc1ccc(F)cc1-c1noc(C2CCN(C(C)=O)CC2)n1 (3D coordinates assigned)
COc1ccc(F)cc1-c1noc(C2CCN(C(C)=O)CC2)n1 (nonaromatic ring conformer: 77.37088978674056 kcal/mol)

>  <smiles>  (6) 
COc1ccc(F)cc1-c1noc(C2CCN(C(C)=O)CC2)n1

>  <score_type>  (6) 
oracle

>  <origin>  (6) 
adg

>  <m_score__min__energy>  (6) 
-7.5999999999999996

>  <m_primary>  (6) 
energy

$$$$
6:0
     RDKit          3D

 38 39  0  0  0  0  0  0  0  0999 V2000
   56.5880   29.6770   43.3360 C   0  0  0  0  0  0  0  0  0  0  0  0
   57.4030   28.5120   43.8960 C   0  0  0  0  0  0  0  0  0  0  0  0
   57.9380   28.8340   45.2280 N   0  0  0  0  0  0  0  0  0  0  0  0
   58.5660   30.1430   45.4590 C   0  0  0  0  0  0  0  0  0  0  0  0
   59.9790   29.9730   46.0050 C   0  0  0  0  0  0  0  0  0  0  0  0
   57.8140   27.9030   46.3270 C   0  0  0  0  0  0  0  0  0  0  0  0
   57.7900   28.3310   47.5120 O   0  0  0  0  0  0  0  0  0  0  0  0
   57.7080   26.4440   46.0970 C   0  0  0  0  0  0  0  0  0  0  0  0
   58.8590   25.6150   46.0570 C   0  0  0  0  0  0  0  0  0  0  0  0
   60.2310   26.1750   46.3730 C   0  0  0  0  0  0  0  0  0  0  0  0
   58.7170   24.2840   45.7470 N   0  0  0  0  0  0  0  0  0  0  0  0
   59.8230   23.4610   45.6040 O   0  0  0  0  0  0  0  0  0  0  0  0
   57.4740   23.7390   45.5660 C   0  0  0  0  0  0  0  0  0  0  0  0
   57.3170   22.3680   45.2760 C   0  0  0  0  0  0  0  0  0  0  0  0
   56.0440   21.8200   45.0960 C   0  0  0  0  0  0  0  0  0  0  0  0
   55.8650   20.1120   44.7390 Cl  0  0  0  0  0  0  0  0  0  0  0  0
   54.9130   22.6310   45.2020 C   0  0  0  0  0  0  0  0  0  0  0  0
   55.0500   23.9900   45.4850 C   0  0  0  0  0  0  0  0  0  0  0  0
   56.3260   24.5580   45.6680 C   0  0  0  0  0  0  0  0  0  0  0  0
   56.4720   25.8900   45.9290 N   0  0  0  0  0  0  0  0  0  0  0  0
   55.3560   26.6990   45.9970 O   0  0  0  0  0  0  0  0  0  0  0  0
   56.1746   30.2680   44.1666 H   0  0  0  0  0  0  0  0  0  0  0  0
   57.2373   30.3157   42.7192 H   0  0  0  0  0  0  0  0  0  0  0  0
   55.7654   29.2860   42.7192 H   0  0  0  0  0  0  0  0  0  0  0  0
   56.7567   27.6252   43.9728 H   0  0  0  0  0  0  0  0  0  0  0  0
   58.2467   28.3169   43.2176 H   0  0  0  0  0  0  0  0  0  0  0  0
   58.6100   30.6953   44.5087 H   0  0  0  0  0  0  0  0  0  0  0  0
   57.9664   30.6983   46.1953 H   0  0  0  0  0  0  0  0  0  0  0  0
   59.9501   29.9765   47.1046 H   0  0  0  0  0  0  0  0  0  0  0  0
   60.3960   29.0182   45.6522 H   0  0  0  0  0  0  0  0  0  0  0  0
   60.6106   30.8016   45.6522 H   0  0  0  0  0  0  0  0  0  0  0  0
   60.3628   26.2288   47.4638 H   0  0  0  0  0  0  0  0  0  0  0  0
   61.0025   25.5198   45.9423 H   0  0  0  0  0  0  0  0  0  0  0  0
   60.3237   27.1829   45.9423 H   0  0  0  0  0  0  0  0  0  0  0  0
   60.2590   22.9740   46.3750 H   0  0  0  0  0  0  0  0  0  0  0  0
   58.2046   21.7239   45.1907 H   0  0  0  0  0  0  0  0  0  0  0  0
   53.9117   22.1976   45.0621 H   0  0  0  0  0  0  0  0  0  0  0  0
   54.1543   24.6233   45.5659 H   0  0  0  0  0  0  0  0  0  0  0  0
  1  2  1  0
  2  3  1  0
  3  4  1  0
  4  5  1  0
  3  6  1  0
  6  7  2  0
  6  8  1  0
  8  9  2  0
  9 10  1  0
  9 11  1  0
 11 12  1  0
 11 13  2  0
 13 14  1  0
 14 15  2  0
 15 16  1  0
 15 17  1  0
 17 18  2  0
 18 19  1  0
 19 20  2  0
 20 21  1  0
 20  8  1  0
 19 13  1  0
  1 22  1  0
  1 23  1  0
  1 24  1  0
  2 25  1  0
  2 26  1  0
  4 27  1  0
  4 28  1  0
  5 29  1  0
  5 30  1  0
  5 31  1  0
 10 32  1  0
 10 33  1  0
 10 34  1  0
 12 35  1  0
 14 36  1  0
 17 37  1  0
 18 38  1  0
M  CHG  3  11   1  20   1  21  -1
M  END
>  <UniqueID>  (7) 
6

>  <SMILES>  (7) 
CCN(CC)C(=O)c1c(C)[n+](O)c2cc(Cl)ccc2[n+]1[O-]

>  <Energy>  (7) 
48.680945880019095

>  <Genealogy>  (7) 
CCN(CC)C(=O)c1c(C)[n+](O)c2cc(Cl)ccc2[n+]1[O-] (protonated)
CCN(CC)C(=O)c1c(C)[n+](O)c2cc(Cl)ccc2[n+]1[O-] (3D coordinates assigned)
CCN(CC)C(=O)c1c(C)[n+](O)c2cc(Cl)ccc2[n+]1[O-] (optimized conformer: 48.680945880019095 kcal/mol)

>  <smiles>  (7) 
CCN(CC)C(=O)c1c(C)[n+]([O-])c2cc(Cl)ccc2[n+]1[O-]

>  <score_type>  (7) 
oracle

>  <origin>  (7) 
adg

>  <m_score__min__energy>  (7) 
-5.71

>  <m_primary>  (7) 
energy

$$$$
7:0
     RDKit          3D

 46 48  0  0  0  0  0  0  0  0999 V2000
   57.0470   28.3950   45.2500 C   0  0  0  0  0  0  0  0  0  0  0  0
   56.4720   29.6970   45.2720 O   0  0  0  0  0  0  0  0  0  0  0  0
   57.0920   30.8470   44.7580 C   0  0  0  0  0  0  0  0  0  0  0  0
   57.4040   30.8790   43.3940 C   0  0  0  0  0  0  0  0  0  0  0  0
   58.0130   32.0040   42.8330 C   0  0  0  0  0  0  0  0  0  0  0  0
   58.3210   33.1060   43.6310 C   0  0  0  0  0  0  0  0  0  0  0  0
   58.0320   33.0870   45.0040 C   0  0  0  0  0  0  0  0  0  0  0  0
   58.3260   34.2900   45.8560 C   0  0  0  0  0  0  0  0  0  0  0  0
   59.4330   33.9850   46.7710 N   0  0  0  0  0  0  0  0  0  0  0  0
   60.7130   33.8430   46.0600 C   0  0  0  0  0  0  0  0  0  0  0  0
   61.7660   33.1520   46.9040 C   0  0  0  0  0  0  0  0  0  0  0  0
   62.9710   33.8150   47.1820 C   0  0  0  0  0  0  0  0  0  0  0  0
   63.9250   33.2250   48.0120 C   0  0  0  0  0  0  0  0  0  0  0  0
   63.6620   31.9770   48.5720 C   0  0  0  0  0  0  0  0  0  0  0  0
   62.4930   31.3420   48.3020 N   0  0  0  0  0  0  0  0  0  0  0  0
   61.5460   31.8840   47.4870 C   0  0  0  0  0  0  0  0  0  0  0  0
   60.3330   31.1530   47.2470 N   0  0  0  0  0  0  0  0  0  0  0  0
   60.2980   30.0970   46.2360 C   0  0  0  0  0  0  0  0  0  0  0  0
   60.0970   28.7480   46.9350 C   0  0  0  0  0  0  0  0  0  0  0  0
   58.9550   28.7820   47.7750 O   0  0  0  0  0  0  0  0  0  0  0  0
   59.1450   29.7220   48.8200 C   0  0  0  0  0  0  0  0  0  0  0  0
   59.2740   31.1400   48.2550 C   0  0  0  0  0  0  0  0  0  0  0  0
   57.4040   31.9610   45.5620 C   0  0  0  0  0  0  0  0  0  0  0  0
   57.2016   28.0450   46.2813 H   0  0  0  0  0  0  0  0  0  0  0  0
   56.3703   27.7041   44.7258 H   0  0  0  0  0  0  0  0  0  0  0  0
   58.0135   28.4298   44.7258 H   0  0  0  0  0  0  0  0  0  0  0  0
   57.1680   30.0121   42.7593 H   0  0  0  0  0  0  0  0  0  0  0  0
   58.2504   32.0210   41.7590 H   0  0  0  0  0  0  0  0  0  0  0  0
   58.7921   33.9930   43.1823 H   0  0  0  0  0  0  0  0  0  0  0  0
   58.6062   35.1360   45.2112 H   0  0  0  0  0  0  0  0  0  0  0  0
   57.4311   34.5530   46.4391 H   0  0  0  0  0  0  0  0  0  0  0  0
   59.5110   34.7540   47.4770 H   0  0  0  0  0  0  0  0  0  0  0  0
   60.5471   33.2518   45.1474 H   0  0  0  0  0  0  0  0  0  0  0  0
   61.0804   34.8524   45.8232 H   0  0  0  0  0  0  0  0  0  0  0  0
   63.1646   34.8050   46.7434 H   0  0  0  0  0  0  0  0  0  0  0  0
   64.8742   33.7397   48.2217 H   0  0  0  0  0  0  0  0  0  0  0  0
   64.4029   31.5052   49.2342 H   0  0  0  0  0  0  0  0  0  0  0  0
   59.4663   30.2797   45.5396 H   0  0  0  0  0  0  0  0  0  0  0  0
   61.2429   30.0882   45.6730 H   0  0  0  0  0  0  0  0  0  0  0  0
   59.9625   27.9643   46.1749 H   0  0  0  0  0  0  0  0  0  0  0  0
   60.9825   28.5348   47.5518 H   0  0  0  0  0  0  0  0  0  0  0  0
   58.2834   29.6822   49.5027 H   0  0  0  0  0  0  0  0  0  0  0  0
   60.0704   29.4701   49.3587 H   0  0  0  0  0  0  0  0  0  0  0  0
   58.3219   31.4421   47.7943 H   0  0  0  0  0  0  0  0  0  0  0  0
   59.5208   31.8429   49.0643 H   0  0  0  0  0  0  0  0  0  0  0  0
   57.1544   31.9491   46.6332 H   0  0  0  0  0  0  0  0  0  0  0  0
  1  2  1  0
  2  3  1  0
  3  4  2  0
  4  5  1  0
  5  6  2  0
  6  7  1  0
  7  8  1  0
  8  9  1  0
  9 10  1  0
 10 11  1  0
 11 12  2  0
 12 13  1  0
 13 14  2  0
 14 15  1  0
 15 16  2  0
 16 17  1  0
 17 18  1  0
 18 19  1  0
 19 20  1  0
 20 21  1  0
 21 22  1  0
  7 23  2  0
 23  3  1  0
 16 11  1  0
 22 17  1  0
  1 24  1  0
  1 25  1  0
  1 26  1  0
  4 27  1  0
  5 28  1  0
  6 29  1  0
  8 30  1  0
  8 31  1  0
  9 32  1  0
 10 33  1  0
 10 34  1  0
 12 35  1  0
 13 36  1  0
 14 37  1  0
 18 38  1  0
 18 39  1  0
 19 40  1  0
 19 41  1  0
 21 42  1  0
 21 43  1  0
 22 44  1  0
 22 45  1  0
 23 46  1  0
M  END
>  <UniqueID>  (8) 
7

>  <SMILES>  (8) 
COc1cccc(CNCc2cccnc2N2CCOCC2)c1

>  <Energy>  (8) 
53.6902977158269

>  <Genealogy>  (8) 
COc1cccc(CNCc2cccnc2N2CCOCC2)c1 (3D coordinates assigned)
COc1cccc(CNCc2cccnc2N2CCOCC2)c1 (nonaromatic ring conformer: 53.6902977158269 kcal/mol)

>  <smiles>  (8) 
COc1cccc(CNCc2cccnc2N2CCOCC2)c1

>  <score_type>  (8) 
oracle

>  <origin>  (8) 
adg

>  <m_score__min__energy>  (8) 
-7.3499999999999996

>  <m_primary>  (8) 
energy

$$$$
8:0
     RDKit          3D

 66 70  0  0  0  0  0  0  0  0999 V2000
   60.0570   32.3470   53.5280 C   0  0  0  0  0  0  0  0  0  0  0  0
   60.8910   31.5420   52.7220 O   0  0  0  0  0  0  0  0  0  0  0  0
   60.6300   31.7680   51.3440 C   0  0  1  0  0  0  0  0  0  0  0  0
   60.8360   33.2600   51.0310 C   0  0  0  0  0  0  0  0  0  0  0  0
   60.6820   33.5710   49.5910 N   0  0  2  0  0  0  0  0  0  0  0  0
   59.2930   33.4370   49.0790 C   0  0  0  0  0  0  0  0  0  0  0  0
   59.1880   33.7960   47.6140 C   0  0  0  0  0  0  0  0  0  0  0  0
   59.7340   34.9940   47.1360 C   0  0  0  0  0  0  0  0  0  0  0  0
   59.6600   35.2870   45.7740 C   0  0  0  0  0  0  0  0  0  0  0  0
   59.0580   34.4170   44.9220 N   0  0  0  0  0  0  0  0  0  0  0  0
   58.5070   33.2450   45.3470 C   0  0  0  0  0  0  0  0  0  0  0  0
   57.8730   32.3390   44.3550 C   0  0  0  0  0  0  0  0  0  0  0  0
   57.1180   31.2360   44.7980 C   0  0  0  0  0  0  0  0  0  0  0  0
   56.5200   30.3690   43.8790 C   0  0  0  0  0  0  0  0  0  0  0  0
   56.6720   30.5880   42.5080 C   0  0  0  0  0  0  0  0  0  0  0  0
   57.4270   31.6710   42.0540 C   0  0  0  0  0  0  0  0  0  0  0  0
   58.0280   32.5420   42.9680 C   0  0  0  0  0  0  0  0  0  0  0  0
   58.5770   32.9130   46.7130 C   0  0  0  0  0  0  0  0  0  0  0  0
   61.6520   32.8030   48.7790 C   0  0  0  0  0  0  0  0  0  0  0  0
   61.6400   31.2770   49.0380 C   0  0  1  0  0  0  0  0  0  0  0  0
   61.6120   30.9040   50.5180 C   0  0  2  0  0  0  0  0  0  0  0  0
   61.1430   29.4550   50.4730 C   0  0  0  0  0  0  0  0  0  0  0  0
   60.2680   29.3640   49.2210 C   0  0  0  0  0  0  0  0  0  0  0  0
   60.4890   30.5880   48.4350 N   0  0  0  0  0  0  0  0  0  0  0  0
   60.5300   30.3790   46.9670 C   0  0  0  0  0  0  0  0  0  0  0  0
   59.7140   29.2030   46.4640 C   0  0  0  0  0  0  0  0  0  0  0  0
   60.3160   28.2120   45.6700 C   0  0  0  0  0  0  0  0  0  0  0  0
   59.5670   27.1320   45.1950 C   0  0  0  0  0  0  0  0  0  0  0  0
   58.2030   27.0280   45.5020 C   0  0  0  0  0  0  0  0  0  0  0  0
   57.3910   25.8900   44.9590 C   0  0  0  0  0  0  0  0  0  0  0  0
   57.5880   28.0390   46.2560 C   0  0  0  0  0  0  0  0  0  0  0  0
   58.3370   29.1190   46.7300 C   0  0  0  0  0  0  0  0  0  0  0  0
   60.2664   32.1449   54.5888 H   0  0  0  0  0  0  0  0  0  0  0  0
   60.2511   33.4079   53.3116 H   0  0  0  0  0  0  0  0  0  0  0  0
   59.0036   32.1154   53.3116 H   0  0  0  0  0  0  0  0  0  0  0  0
   59.5951   31.4939   51.0913 H   0  0  0  0  0  0  0  0  0  0  0  0
   60.0955   33.8435   51.5977 H   0  0  0  0  0  0  0  0  0  0  0  0
   61.8659   33.5194   51.3175 H   0  0  0  0  0  0  0  0  0  0  0  0
   60.9480   34.5780   49.4760 H   0  0  0  0  0  0  0  0  0  0  0  0
   58.9648   32.3957   49.2131 H   0  0  0  0  0  0  0  0  0  0  0  0
   58.6558   34.1331   49.6441 H   0  0  0  0  0  0  0  0  0  0  0  0
   60.2174   35.6983   47.8290 H   0  0  0  0  0  0  0  0  0  0  0  0
   60.0897   36.2238   45.3895 H   0  0  0  0  0  0  0  0  0  0  0  0
   56.9978   31.0551   45.8764 H   0  0  0  0  0  0  0  0  0  0  0  0
   55.9288   29.5129   44.2361 H   0  0  0  0  0  0  0  0  0  0  0  0
   56.1970   29.9074   41.7861 H   0  0  0  0  0  0  0  0  0  0  0  0
   57.5495   31.8397   40.9739 H   0  0  0  0  0  0  0  0  0  0  0  0
   58.6252   33.3906   42.6030 H   0  0  0  0  0  0  0  0  0  0  0  0
   58.1535   31.9635   47.0724 H   0  0  0  0  0  0  0  0  0  0  0  0
   61.4217   32.9730   47.7169 H   0  0  0  0  0  0  0  0  0  0  0  0
   62.6520   33.1610   49.0650 H   0  0  0  0  0  0  0  0  0  0  0  0
   62.5822   30.9526   48.5721 H   0  0  0  0  0  0  0  0  0  0  0  0
   62.5847   31.0599   51.0075 H   0  0  0  0  0  0  0  0  0  0  0  0
   62.0020   28.7723   50.3955 H   0  0  0  0  0  0  0  0  0  0  0  0
   60.5956   29.1681   51.3830 H   0  0  0  0  0  0  0  0  0  0  0  0
   60.5511   28.4814   48.6286 H   0  0  0  0  0  0  0  0  0  0  0  0
   59.2075   29.2676   49.4966 H   0  0  0  0  0  0  0  0  0  0  0  0
   60.1503   31.2903   46.4818 H   0  0  0  0  0  0  0  0  0  0  0  0
   61.5777   30.1556   46.7173 H   0  0  0  0  0  0  0  0  0  0  0  0
   61.3847   28.2869   45.4205 H   0  0  0  0  0  0  0  0  0  0  0  0
   60.0497   26.3602   44.5776 H   0  0  0  0  0  0  0  0  0  0  0  0
   56.9744   25.3061   45.7930 H   0  0  0  0  0  0  0  0  0  0  0  0
   56.5704   26.2863   44.3429 H   0  0  0  0  0  0  0  0  0  0  0  0
   58.0326   25.2429   44.3429 H   0  0  0  0  0  0  0  0  0  0  0  0
   56.5116   27.9810   46.4749 H   0  0  0  0  0  0  0  0  0  0  0  0
   57.8449   29.9094   47.3158 H   0  0  0  0  0  0  0  0  0  0  0  0
  1  2  1  0
  2  3  1  0
  3  4  1  0
  4  5  1  0
  5  6  1  0
  6  7  1  0
  7  8  2  0
  8  9  1  0
  9 10  2  0
 10 11  1  0
 11 12  1  0
 12 13  2  0
 13 14  1  0
 14 15  2  0
 15 16  1  0
 16 17  2  0
 11 18  2  0
  5 19  1  0
 19 20  1  0
 20 21  1  0
 21 22  1  0
 22 23  1  0
 23 24  1  0
 24 25  1  0
 25 26  1  0
 26 27  2  0
 27 28  1  0
 28 29  2  0
 29 30  1  0
 29 31  1  0
 31 32  2  0
 21  3  1  0
 32 26  1  0
 18  7  1  0
 24 20  1  0
 17 12  1  0
  1 33  1  0
  1 34  1  0
  1 35  1  0
  3 36  1  1
  4 37  1  0
  4 38  1  0
  5 39  1  1
  6 40  1  0
  6 41  1  0
  8 42  1  0
  9 43  1  0
 13 44  1  0
 14 45  1  0
 15 46  1  0
 16 47  1  0
 17 48  1  0
 18 49  1  0
 19 50  1  0
 19 51  1  0
 20 52  1  6
 21 53  1  1
 22 54  1  0
 22 55  1  0
 23 56  1  0
 23 57  1  0
 25 58  1  0
 25 59  1  0
 27 60  1  0
 28 61  1  0
 30 62  1  0
 30 63  1  0
 30 64  1  0
 31 65  1  0
 32 66  1  0
M  CHG  1   5   1
M  END
>  <UniqueID>  (9) 
8

>  <SMILES>  (9) 
CO[C@H]1C[N@H+](Cc2ccnc(-c3ccccc3)c2)CC2C1CCN2Cc1ccc(C)cc1

>  <Energy>  (9) 
90.31775375841161

>  <Genealogy>  (9) 
COC1C[NH+](Cc2ccnc(-c3ccccc3)c2)CC2C1CCN2Cc1ccc(C)cc1 (protonated)
CO[C@H]1C[N@H+](Cc2ccnc(-c3ccccc3)c2)CC2C1CCN2Cc1ccc(C)cc1 (chirality)
CO[C@H]1C[N@H+](Cc2ccnc(-c3ccccc3)c2)CC2C1CCN2Cc1ccc(C)cc1 (3D coordinates assigned)
CO[C@H]1C[N@H+](Cc2ccnc(-c3ccccc3)c2)CC2C1CCN2Cc1ccc(C)cc1 (nonaromatic ring conformer: 90.31775375841161 kcal/mol)

>  <smiles>  (9) 
COC1CN(Cc2ccnc(-c3ccccc3)c2)CC2C1CCN2Cc1ccc(C)cc1

>  <score_type>  (9) 
oracle

>  <origin>  (9) 
adg

>  <m_score__min__energy>  (9) 
-7.6299999999999999

>  <m_primary>  (9) 
energy

$$$$
9:0
     RDKit          3D

 39 39  0  0  0  0  0  0  0  0999 V2000
   59.3500   30.3450   46.8540 C   0  0  0  0  0  0  0  0  0  0  0  0
   59.0710   31.8270   46.8220 C   0  0  0  0  0  0  0  0  0  0  0  0
   59.6880   32.6480   47.7790 C   0  0  0  0  0  0  0  0  0  0  0  0
   59.4370   34.0170   47.8050 C   0  0  0  0  0  0  0  0  0  0  0  0
   58.5810   34.5910   46.8690 C   0  0  0  0  0  0  0  0  0  0  0  0
   57.9730   33.8050   45.8790 C   0  0  0  0  0  0  0  0  0  0  0  0
   57.0770   34.4800   44.8720 C   0  0  0  0  0  0  0  0  0  0  0  0
   58.2070   32.4030   45.8550 C   0  0  0  0  0  0  0  0  0  0  0  0
   57.5570   31.5510   44.8320 C   0  0  0  0  0  0  0  0  0  0  0  0
   57.7960   31.7430   43.6090 O   0  0  0  0  0  0  0  0  0  0  0  0
   56.6650   30.5060   45.2340 N   0  0  0  0  0  0  0  0  0  0  0  0
   55.9970   29.6090   44.2980 C   0  0  0  0  0  0  0  0  0  0  0  0
   57.0260   29.0130   43.3120 C   0  0  0  0  0  0  0  0  0  0  0  0
   57.9350   27.9760   43.8890 N   0  0  0  0  0  0  0  0  0  0  0  0
   57.4130   27.4530   45.1740 C   0  0  0  0  0  0  0  0  0  0  0  0
   59.2510   28.6120   44.1440 C   0  0  0  0  0  0  0  0  0  0  0  0
   58.1390   26.8530   42.9410 C   0  0  0  0  0  0  0  0  0  0  0  0
   59.4137   30.0064   47.8986 H   0  0  0  0  0  0  0  0  0  0  0  0
   58.5372   29.8078   46.3434 H   0  0  0  0  0  0  0  0  0  0  0  0
   60.3025   30.1401   46.3434 H   0  0  0  0  0  0  0  0  0  0  0  0
   60.3758   32.2057   48.5147 H   0  0  0  0  0  0  0  0  0  0  0  0
   59.9168   34.6476   48.5680 H   0  0  0  0  0  0  0  0  0  0  0  0
   58.3795   35.6717   46.9062 H   0  0  0  0  0  0  0  0  0  0  0  0
   56.3057   35.0610   45.3988 H   0  0  0  0  0  0  0  0  0  0  0  0
   57.6762   35.1531   44.2412 H   0  0  0  0  0  0  0  0  0  0  0  0
   56.5953   33.7184   44.2412 H   0  0  0  0  0  0  0  0  0  0  0  0
   55.5133   28.7941   44.8565 H   0  0  0  0  0  0  0  0  0  0  0  0
   55.2409   30.1741   43.7332 H   0  0  0  0  0  0  0  0  0  0  0  0
   56.4729   28.5549   42.4788 H   0  0  0  0  0  0  0  0  0  0  0  0
   57.6726   29.8481   43.0044 H   0  0  0  0  0  0  0  0  0  0  0  0
   57.9190   27.9600   46.0088 H   0  0  0  0  0  0  0  0  0  0  0  0
   56.3306   27.6399   45.2334 H   0  0  0  0  0  0  0  0  0  0  0  0
   57.6020   26.3710   45.2334 H   0  0  0  0  0  0  0  0  0  0  0  0
   59.4157   28.6916   45.2287 H   0  0  0  0  0  0  0  0  0  0  0  0
   60.0473   27.9993   43.6962 H   0  0  0  0  0  0  0  0  0  0  0  0
   59.2657   29.6166   43.6962 H   0  0  0  0  0  0  0  0  0  0  0  0
   58.3078   25.9235   43.5045 H   0  0  0  0  0  0  0  0  0  0  0  0
   57.2465   26.7409   42.3078 H   0  0  0  0  0  0  0  0  0  0  0  0
   59.0139   27.0620   42.3078 H   0  0  0  0  0  0  0  0  0  0  0  0
  1  2  1  0
  2  3  2  0
  3  4  1  0
  4  5  2  0
  5  6  1  0
  6  7  1  0
  6  8  2  0
  8  9  1  0
  9 10  2  0
  9 11  1  0
 11 12  1  0
 12 13  1  0
 13 14  1  0
 14 15  1  0
 14 16  1  0
 14 17  1  0
  8  2  1  0
  1 18  1  0
  1 19  1  0
  1 20  1  0
  3 21  1  0
  4 22  1  0
  5 23  1  0
  7 24  1  0
  7 25  1  0
  7 26  1  0
 12 27  1  0
 12 28  1  0
 13 29  1  0
 13 30  1  0
 15 31  1  0
 15 32  1  0
 15 33  1  0
 16 34  1  0
 16 35  1  0
 16 36  1  0
 17 37  1  0
 17 38  1  0
 17 39  1  0
M  CHG  2  11  -1  14   1
M  END
>  <UniqueID>  (10) 
9

>  <SMILES>  (10) 
Cc1cccc(C)c1C(=O)[N-]CC[N+](C)(C)C

>  <Energy>  (10) 
46.790211696543416

>  <Genealogy>  (10) 
Cc1cccc(C)c1C(=O)[N-]CC[N+](C)(C)C (protonated)
Cc1cccc(C)c1C(=O)[N-]CC[N+](C)(C)C (3D coordinates assigned)
Cc1cccc(C)c1C(=O)[N-]CC[N+](C)(C)C (optimized conformer: 46.790211696543416 kcal/mol)

>  <smiles>  (10) 
Cc1cccc(C)c1C(=O)NCC[N+](C)(C)C

>  <score_type>  (10) 
oracle

>  <origin>  (10) 
adg

>  <m_score__min__energy>  (10) 
-5.8099999999999996

>  <m_primary>  (10) 
energy

$$$$
10:0
     RDKit          3D

 43 45  0  0  0  0  0  0  0  0999 V2000
   58.0400   26.7480   43.1940 C   0  0  0  0  0  0  0  0  0  0  0  0
   58.1530   26.1050   44.4590 O   0  0  0  0  0  0  0  0  0  0  0  0
   58.7990   26.6520   45.5820 C   0  0  0  0  0  0  0  0  0  0  0  0
   60.0530   26.1740   46.0070 C   0  0  0  0  0  0  0  0  0  0  0  0
   60.6920   26.7460   47.1050 C   0  0  0  0  0  0  0  0  0  0  0  0
   60.0940   27.7960   47.7970 C   0  0  0  0  0  0  0  0  0  0  0  0
   58.8370   28.2890   47.4020 C   0  0  0  0  0  0  0  0  0  0  0  0
   58.2060   29.3270   48.1090 O   0  0  0  0  0  0  0  0  0  0  0  0
   58.8680   30.2370   48.9810 C   0  0  0  0  0  0  0  0  0  0  0  0
   58.1840   27.7160   46.2840 C   0  0  0  0  0  0  0  0  0  0  0  0
   56.8620   28.2290   45.8460 C   0  0  0  0  0  0  0  0  0  0  0  0
   55.9060   27.4310   45.6470 O   0  0  0  0  0  0  0  0  0  0  0  0
   56.6710   29.6340   45.6300 N   0  0  0  0  0  0  0  0  0  0  0  0
   57.3580   30.3990   44.5900 C   0  0  1  0  0  0  0  0  0  0  0  0
   56.4220   30.5460   43.3810 C   0  0  0  0  0  0  0  0  0  0  0  0
   57.0130   31.4180   42.2440 C   0  0  0  0  0  0  0  0  0  0  0  0
   58.2390   32.2670   42.6420 C   0  0  0  0  0  0  0  0  0  0  0  0
   58.1810   32.7060   44.0830 C   0  0  0  0  0  0  0  0  0  0  0  0
   58.6010   33.9910   44.4590 C   0  0  0  0  0  0  0  0  0  0  0  0
   58.5900   34.3660   45.8040 C   0  0  0  0  0  0  0  0  0  0  0  0
   58.1750   33.4590   46.7810 C   0  0  0  0  0  0  0  0  0  0  0  0
   57.7700   32.1710   46.4180 C   0  0  0  0  0  0  0  0  0  0  0  0
   57.7700   31.7830   45.0630 C   0  0  0  0  0  0  0  0  0  0  0  0
   57.8514   27.8213   43.3438 H   0  0  0  0  0  0  0  0  0  0  0  0
   58.9752   26.6152   42.6304 H   0  0  0  0  0  0  0  0  0  0  0  0
   57.2061   26.3043   42.6304 H   0  0  0  0  0  0  0  0  0  0  0  0
   60.5318   25.3430   45.4684 H   0  0  0  0  0  0  0  0  0  0  0  0
   61.6731   26.3665   47.4266 H   0  0  0  0  0  0  0  0  0  0  0  0
   60.6088   28.2438   48.6598 H   0  0  0  0  0  0  0  0  0  0  0  0
   58.6648   29.9577   50.0254 H   0  0  0  0  0  0  0  0  0  0  0  0
   59.9516   30.1999   48.7957 H   0  0  0  0  0  0  0  0  0  0  0  0
   58.4991   31.2566   48.7957 H   0  0  0  0  0  0  0  0  0  0  0  0
   58.2738   29.8511   44.3233 H   0  0  0  0  0  0  0  0  0  0  0  0
   56.2131   29.5438   42.9785 H   0  0  0  0  0  0  0  0  0  0  0  0
   55.5116   31.0510   43.7362 H   0  0  0  0  0  0  0  0  0  0  0  0
   57.3126   30.7503   41.4227 H   0  0  0  0  0  0  0  0  0  0  0  0
   56.2242   32.1310   41.9622 H   0  0  0  0  0  0  0  0  0  0  0  0
   59.1494   31.6686   42.4899 H   0  0  0  0  0  0  0  0  0  0  0  0
   58.2448   33.1693   42.0129 H   0  0  0  0  0  0  0  0  0  0  0  0
   58.9395   34.7041   43.6929 H   0  0  0  0  0  0  0  0  0  0  0  0
   58.9089   35.3779   46.0944 H   0  0  0  0  0  0  0  0  0  0  0  0
   58.1667   33.7586   47.8394 H   0  0  0  0  0  0  0  0  0  0  0  0
   57.4503   31.4582   47.1924 H   0  0  0  0  0  0  0  0  0  0  0  0
  1  2  1  0
  2  3  1  0
  3  4  2  0
  4  5  1  0
  5  6  2  0
  6  7  1  0
  7  8  1  0
  8  9  1  0
  7 10  2  0
 10 11  1  0
 11 12  2  0
 11 13  1  0
 13 14  1  0
 14 15  1  0
 15 16  1  0
 16 17  1  0
 17 18  1  0
 18 19  2  0
 19 20  1  0
 20 21  2  0
 21 22  1  0
 22 23  2  0
 10  3  1  0
 23 14  1  0
 23 18  1  0
  1 24  1  0
  1 25  1  0
  1 26  1  0
  4 27  1  0
  5 28  1  0
  6 29  1  0
  9 30  1  0
  9 31  1  0
  9 32  1  0
 14 33  1  6
 15 34  1  0
 15 35  1  0
 16 36  1  0
 16 37  1  0
 17 38  1  0
 17 39  1  0
 19 40  1  0
 20 41  1  0
 21 42  1  0
 22 43  1  0
M  CHG  1  13  -1
M  END
>  <UniqueID>  (11) 
10

>  <SMILES>  (11) 
COc1cccc(OC)c1C(=O)[N-][C@H]1CCCc2ccccc21

>  <Energy>  (11) 
53.581432598204614

>  <Genealogy>  (11) 
COc1cccc(OC)c1C(=O)[N-]C1CCCc2ccccc21 (protonated)
COc1cccc(OC)c1C(=O)[N-][C@H]1CCCc2ccccc21 (chirality)
COc1cccc(OC)c1C(=O)[N-][C@H]1CCCc2ccccc21 (3D coordinates assigned)
COc1cccc(OC)c1C(=O)[N-][C@H]1CCCc2ccccc21 (nonaromatic ring conformer: 53.581432598204614 kcal/mol)

>  <smiles>  (11) 
COc1cccc(OC)c1C(=O)NC1CCCc2ccccc21

>  <score_type>  (11) 
oracle

>  <origin>  (11) 
adg

>  <m_score__min__energy>  (11) 
-9.6600000000000001

>  <m_primary>  (11) 
energy

$$$$
11:0
     RDKit          3D

 45 47  0  0  0  0  0  0  0  0999 V2000
   62.6980   33.8390   46.4220 C   0  0  0  0  0  0  0  0  0  0  0  0
   63.7040   33.3110   47.4430 C   0  0  0  0  0  0  0  0  0  0  0  0
   63.0580   32.9590   48.7310 N   0  0  0  0  0  0  0  0  0  0  0  0
   63.9570   32.0730   49.5090 C   0  0  0  0  0  0  0  0  0  0  0  0
   65.3190   32.7250   49.7430 C   0  0  0  0  0  0  0  0  0  0  0  0
   62.6810   34.1710   49.5080 C   0  0  0  0  0  0  0  0  0  0  0  0
   61.5610   33.8420   50.5050 C   0  0  0  0  0  0  0  0  0  0  0  0
   60.2790   34.1790   49.9770 O   0  0  0  0  0  0  0  0  0  0  0  0
   59.8020   33.8370   48.7010 C   0  0  0  0  0  0  0  0  0  0  0  0
   59.7100   32.4810   48.3750 C   0  0  0  0  0  0  0  0  0  0  0  0
   59.2270   32.0790   47.1270 C   0  0  0  0  0  0  0  0  0  0  0  0
   58.8240   33.0340   46.1770 C   0  0  0  0  0  0  0  0  0  0  0  0
   58.3260   32.6270   44.8890 N   0  0  0  0  0  0  0  0  0  0  0  0
   58.3530   33.3380   43.7290 C   0  0  0  0  0  0  0  0  0  0  0  0
   57.7840   32.6850   42.6770 N   0  0  0  0  0  0  0  0  0  0  0  0
   57.3920   31.5230   43.2290 C   0  0  0  0  0  0  0  0  0  0  0  0
   56.7150   30.4640   42.6460 C   0  0  0  0  0  0  0  0  0  0  0  0
   56.3880   29.4030   43.4440 N   0  0  0  0  0  0  0  0  0  0  0  0
   56.7100   29.3900   44.7790 C   0  0  0  0  0  0  0  0  0  0  0  0
   57.3740   30.4450   45.3420 N   0  0  0  0  0  0  0  0  0  0  0  0
   57.7130   31.4860   44.5420 C   0  0  0  0  0  0  0  0  0  0  0  0
   58.9300   34.3970   46.4990 C   0  0  0  0  0  0  0  0  0  0  0  0
   59.4130   34.7980   47.7480 C   0  0  0  0  0  0  0  0  0  0  0  0
   61.8427   34.2879   46.9483 H   0  0  0  0  0  0  0  0  0  0  0  0
   63.1808   34.5999   45.7912 H   0  0  0  0  0  0  0  0  0  0  0  0
   62.3460   33.0094   45.7912 H   0  0  0  0  0  0  0  0  0  0  0  0
   64.1886   32.4131   47.0320 H   0  0  0  0  0  0  0  0  0  0  0  0
   64.4383   34.1064   47.6382 H   0  0  0  0  0  0  0  0  0  0  0  0
   63.4919   31.8572   50.4822 H   0  0  0  0  0  0  0  0  0  0  0  0
   64.1111   31.1472   48.9353 H   0  0  0  0  0  0  0  0  0  0  0  0
   65.5026   32.8129   50.8240 H   0  0  0  0  0  0  0  0  0  0  0  0
   66.1053   32.1056   49.2867 H   0  0  0  0  0  0  0  0  0  0  0  0
   65.3296   33.7258   49.2867 H   0  0  0  0  0  0  0  0  0  0  0  0
   63.5604   34.5363   50.0587 H   0  0  0  0  0  0  0  0  0  0  0  0
   62.3226   34.9435   48.8117 H   0  0  0  0  0  0  0  0  0  0  0  0
   61.5847   32.7650   50.7274 H   0  0  0  0  0  0  0  0  0  0  0  0
   61.7257   34.4327   51.4182 H   0  0  0  0  0  0  0  0  0  0  0  0
   60.0210   31.7225   49.1084 H   0  0  0  0  0  0  0  0  0  0  0  0
   59.1616   31.0077   46.8860 H   0  0  0  0  0  0  0  0  0  0  0  0
   58.7920   34.3434   43.6483 H   0  0  0  0  0  0  0  0  0  0  0  0
   56.4499   30.4764   41.5785 H   0  0  0  0  0  0  0  0  0  0  0  0
   55.8770   28.5900   43.0320 H   0  0  0  0  0  0  0  0  0  0  0  0
   56.4321   28.5254   45.3996 H   0  0  0  0  0  0  0  0  0  0  0  0
   58.6301   35.1560   45.7615 H   0  0  0  0  0  0  0  0  0  0  0  0
   59.4895   35.8689   47.9875 H   0  0  0  0  0  0  0  0  0  0  0  0
  1  2  1  0
  2  3  1  0
  3  4  1  0
  4  5  1  0
  3  6  1  0
  6  7  1  0
  7  8  1  0
  8  9  1  0
  9 10  2  0
 10 11  1  0
 11 12  2  0
 12 13  1  0
 13 14  1  0
 14 15  2  0
 15 16  1  0
 16 17  2  0
 17 18  1  0
 18 19  2  0
 19 20  1  0
 20 21  2  0
 12 22  1  0
 22 23  2  0
 23  9  1  0
 21 13  1  0
 21 16  1  0
  1 24  1  0
  1 25  1  0
  1 26  1  0
  2 27  1  0
  2 28  1  0
  4 29  1  0
  4 30  1  0
  5 31  1  0
  5 32  1  0
  5 33  1  0
  6 34  1  0
  6 35  1  0
  7 36  1  0
  7 37  1  0
 10 38  1  0
 11 39  1  0
 14 40  1  0
 17 41  1  0
 18 42  1  0
 19 43  1  0
 22 44  1  0
 23 45  1  0
M  CHG  1  18   1
M  END
>  <UniqueID>  (12) 
11

>  <SMILES>  (12) 
CCN(CC)CCOc1ccc(-n2cnc3c[nH+]cnc32)cc1

>  <Energy>  (12) 
90.02711423281534

>  <Genealogy>  (12) 
CCN(CC)CCOc1ccc(-n2cnc3c[nH+]cnc32)cc1 (protonated)
CCN(CC)CCOc1ccc(-n2cnc3c[nH+]cnc32)cc1 (3D coordinates assigned)
CCN(CC)CCOc1ccc(-n2cnc3c[nH+]cnc32)cc1 (optimized conformer: 90.02711423281534 kcal/mol)

>  <smiles>  (12) 
CCN(CC)CCOc1ccc(-n2cnc3cncnc32)cc1

>  <score_type>  (12) 
oracle

>  <origin>  (12) 
adg

>  <m_score__min__energy>  (12) 
-5.3899999999999997

>  <m_primary>  (12) 
energy

$$$$
12:0
     RDKit          3D

 41 42  0  0  0  0  0  0  0  0999 V2000
   57.7930   31.9520   51.0710 C   0  0  0  0  0  0  0  0  0  0  0  0
   58.9070   32.7410   50.3850 C   0  0  0  0  0  0  0  0  0  0  0  0
   59.0520   32.3050   48.9810 N   0  0  0  0  0  0  0  0  0  0  0  0
   59.9540   31.1400   48.8760 C   0  0  0  0  0  0  0  0  0  0  0  0
   59.4250   30.1640   47.8690 C   0  0  0  0  0  0  0  0  0  0  0  0
   59.2920   28.9530   48.1950 O   0  0  0  0  0  0  0  0  0  0  0  0
   59.0490   30.6090   46.5560 N   0  0  0  0  0  0  0  0  0  0  0  0
   58.6040   29.7150   45.5240 C   0  0  0  0  0  0  0  0  0  0  0  0
   59.2270   28.4650   45.3950 C   0  0  0  0  0  0  0  0  0  0  0  0
   58.8190   27.5710   44.4040 C   0  0  0  0  0  0  0  0  0  0  0  0
   57.7760   27.9120   43.5420 C   0  0  0  0  0  0  0  0  0  0  0  0
   57.1280   29.1420   43.6780 C   0  0  0  0  0  0  0  0  0  0  0  0
   57.5260   30.0520   44.6790 C   0  0  0  0  0  0  0  0  0  0  0  0
   56.8600   31.2730   44.8750 O   0  0  0  0  0  0  0  0  0  0  0  0
   57.3870   32.5470   44.5200 C   0  0  0  0  0  0  0  0  0  0  0  0
   59.6680   33.6300   48.0140 S   0  0  0  0  0  0  0  0  0  0  0  0
   59.3170   34.9490   48.6430 O   0  0  0  0  0  0  0  0  0  0  0  0
   59.0790   33.5660   46.6320 O   0  0  0  0  0  0  0  0  0  0  0  0
   61.4150   33.5140   47.9090 C   0  0  0  0  0  0  0  0  0  0  0  0
   62.1490   33.4490   46.7350 C   0  0  0  0  0  0  0  0  0  0  0  0
   63.5280   33.3690   46.9590 C   0  0  0  0  0  0  0  0  0  0  0  0
   63.8740   33.3670   48.3050 C   0  0  0  0  0  0  0  0  0  0  0  0
   62.4650   33.4690   49.2190 S   0  0  0  0  0  0  0  0  0  0  0  0
   57.9057   32.0318   52.1623 H   0  0  0  0  0  0  0  0  0  0  0  0
   56.8165   32.3610   50.7723 H   0  0  0  0  0  0  0  0  0  0  0  0
   57.8547   30.8951   50.7723 H   0  0  0  0  0  0  0  0  0  0  0  0
   58.6607   33.8128   50.4089 H   0  0  0  0  0  0  0  0  0  0  0  0
   59.8534   32.5608   50.9160 H   0  0  0  0  0  0  0  0  0  0  0  0
   60.9519   31.4804   48.5625 H   0  0  0  0  0  0  0  0  0  0  0  0
   60.0164   30.6453   49.8565 H   0  0  0  0  0  0  0  0  0  0  0  0
   58.9330   31.6360   46.3970 H   0  0  0  0  0  0  0  0  0  0  0  0
   60.0424   28.1875   46.0793 H   0  0  0  0  0  0  0  0  0  0  0  0
   59.3199   26.5970   44.3024 H   0  0  0  0  0  0  0  0  0  0  0  0
   57.4635   27.2110   42.7540 H   0  0  0  0  0  0  0  0  0  0  0  0
   56.3019   29.4024   42.9999 H   0  0  0  0  0  0  0  0  0  0  0  0
   57.6216   33.1141   45.4329 H   0  0  0  0  0  0  0  0  0  0  0  0
   58.3032   32.4123   43.9264 H   0  0  0  0  0  0  0  0  0  0  0  0
   56.6434   33.0990   43.9264 H   0  0  0  0  0  0  0  0  0  0  0  0
   61.6954   33.4592   45.7329 H   0  0  0  0  0  0  0  0  0  0  0  0
   64.2678   33.3130   46.1469 H   0  0  0  0  0  0  0  0  0  0  0  0
   64.8969   33.3086   48.7054 H   0  0  0  0  0  0  0  0  0  0  0  0
  1  2  1  0
  2  3  1  0
  3  4  1  0
  4  5  1  0
  5  6  2  0
  5  7  1  0
  7  8  1  0
  8  9  2  0
  9 10  1  0
 10 11  2  0
 11 12  1  0
 12 13  2  0
 13 14  1  0
 14 15  1  0
  3 16  1  0
 16 17  2  0
 16 18  2  0
 16 19  1  0
 19 20  2  0
 20 21  1  0
 21 22  2  0
 22 23  1  0
 13  8  1  0
 23 19  1  0
  1 24  1  0
  1 25  1  0
  1 26  1  0
  2 27  1  0
  2 28  1  0
  4 29  1  0
  4 30  1  0
  7 31  1  0
  9 32  1  0
 10 33  1  0
 11 34  1  0
 12 35  1  0
 15 36  1  0
 15 37  1  0
 15 38  1  0
 20 39  1  0
 21 40  1  0
 22 41  1  0
M  END
>  <UniqueID>  (13) 
12

>  <SMILES>  (13) 
CCN(CC(=O)Nc1ccccc1OC)S(=O)(=O)c1cccs1

>  <Energy>  (13) 
68.2450890883136

>  <Genealogy>  (13) 
CCN(CC(=O)Nc1ccccc1OC)S(=O)(=O)c1cccs1 (3D coordinates assigned)
CCN(CC(=O)Nc1ccccc1OC)S(=O)(=O)c1cccs1 (optimized conformer: 68.2450890883136 kcal/mol)

>  <smiles>  (13) 
CCN(CC(=O)Nc1ccccc1OC)S(=O)(=O)c1cccs1

>  <score_type>  (13) 
oracle

>  <origin>  (13) 
adg

>  <m_score__min__energy>  (13) 
-6.7000000000000002

>  <m_primary>  (13) 
energy

$$$$
13:0
     RDKit          3D

 47 49  0  0  0  0  0  0  0  0999 V2000
   58.8940   27.7320   44.1300 C   0  0  0  0  0  0  0  0  0  0  0  0
   57.8740   28.7270   44.5110 N   0  0  0  0  0  0  0  0  0  0  0  0
   58.2690   30.0990   44.1300 C   0  0  0  0  0  0  0  0  0  0  0  0
   57.0340   30.9540   43.8240 C   0  0  0  0  0  0  0  0  0  0  0  0
   56.7350   31.8130   44.9230 O   0  0  0  0  0  0  0  0  0  0  0  0
   57.5610   32.8440   45.4030 C   0  0  0  0  0  0  0  0  0  0  0  0
   58.3440   33.5450   44.4760 C   0  0  0  0  0  0  0  0  0  0  0  0
   59.2070   34.5630   44.8980 C   0  0  0  0  0  0  0  0  0  0  0  0
   59.2860   34.8930   46.2540 C   0  0  0  0  0  0  0  0  0  0  0  0
   58.5050   34.2070   47.1860 C   0  0  0  0  0  0  0  0  0  0  0  0
   57.6420   33.1870   46.7680 C   0  0  0  0  0  0  0  0  0  0  0  0
   57.4980   28.6140   45.9410 C   0  0  0  0  0  0  0  0  0  0  0  0
   58.6470   28.8610   46.9030 C   0  0  0  0  0  0  0  0  0  0  0  0
   59.0020   30.1730   47.2580 C   0  0  0  0  0  0  0  0  0  0  0  0
   60.0590   30.4130   48.1520 C   0  0  0  0  0  0  0  0  0  0  0  0
   60.4270   31.8250   48.5200 C   0  0  0  0  0  0  0  0  0  0  0  0
   61.6440   32.2270   47.8230 N   0  0  0  0  0  0  0  0  0  0  0  0
   62.8140   31.5640   47.8000 C   0  0  0  0  0  0  0  0  0  0  0  0
   63.7250   32.2610   47.1020 N   0  0  0  0  0  0  0  0  0  0  0  0
   63.0600   33.3690   46.7150 C   0  0  0  0  0  0  0  0  0  0  0  0
   61.7870   33.3610   47.1570 N   0  0  0  0  0  0  0  0  0  0  0  0
   60.7530   29.3270   48.7050 C   0  0  0  0  0  0  0  0  0  0  0  0
   60.4020   28.0190   48.3650 C   0  0  0  0  0  0  0  0  0  0  0  0
   59.3580   27.7810   47.4670 C   0  0  0  0  0  0  0  0  0  0  0  0
   59.0330   26.4990   47.1620 F   0  0  0  0  0  0  0  0  0  0  0  0
   59.3393   27.2976   45.0372 H   0  0  0  0  0  0  0  0  0  0  0  0
   58.4245   26.9353   43.5343 H   0  0  0  0  0  0  0  0  0  0  0  0
   59.6788   28.2211   43.5343 H   0  0  0  0  0  0  0  0  0  0  0  0
   58.8286   30.5569   44.9590 H   0  0  0  0  0  0  0  0  0  0  0  0
   58.8961   30.0484   43.2277 H   0  0  0  0  0  0  0  0  0  0  0  0
   57.2292   31.5647   42.9301 H   0  0  0  0  0  0  0  0  0  0  0  0
   56.1756   30.2886   43.6493 H   0  0  0  0  0  0  0  0  0  0  0  0
   58.2798   33.2930   43.4072 H   0  0  0  0  0  0  0  0  0  0  0  0
   59.8224   35.1028   44.1633 H   0  0  0  0  0  0  0  0  0  0  0  0
   59.9635   35.6932   46.5868 H   0  0  0  0  0  0  0  0  0  0  0  0
   58.5680   34.4689   48.2525 H   0  0  0  0  0  0  0  0  0  0  0  0
   57.0260   32.6522   47.5060 H   0  0  0  0  0  0  0  0  0  0  0  0
   56.7075   29.3498   46.1500 H   0  0  0  0  0  0  0  0  0  0  0  0
   57.1653   27.5779   46.1018 H   0  0  0  0  0  0  0  0  0  0  0  0
   58.4466   31.0214   46.8316 H   0  0  0  0  0  0  0  0  0  0  0  0
   59.6061   32.5000   48.2363 H   0  0  0  0  0  0  0  0  0  0  0  0
   60.6004   31.8793   49.6049 H   0  0  0  0  0  0  0  0  0  0  0  0
   62.9977   30.5927   48.2825 H   0  0  0  0  0  0  0  0  0  0  0  0
   64.7200   32.0080   46.9120 H   0  0  0  0  0  0  0  0  0  0  0  0
   63.5015   34.1776   46.1140 H   0  0  0  0  0  0  0  0  0  0  0  0
   61.5780   29.5065   49.4101 H   0  0  0  0  0  0  0  0  0  0  0  0
   60.9493   27.1727   48.8057 H   0  0  0  0  0  0  0  0  0  0  0  0
  1  2  1  0
  2  3  1  0
  3  4  1  0
  4  5  1  0
  5  6  1  0
  6  7  2  0
  7  8  1  0
  8  9  2  0
  9 10  1  0
 10 11  2  0
  2 12  1  0
 12 13  1  0
 13 14  2  0
 14 15  1  0
 15 16  1  0
 16 17  1  0
 17 18  1  0
 18 19  2  0
 19 20  1  0
 20 21  2  0
 15 22  2  0
 22 23  1  0
 23 24  2  0
 24 25  1  0
 11  6  1  0
 24 13  1  0
 21 17  1  0
  1 26  1  0
  1 27  1  0
  1 28  1  0
  3 29  1  0
  3 30  1  0
  4 31  1  0
  4 32  1  0
  7 33  1  0
  8 34  1  0
  9 35  1  0
 10 36  1  0
 11 37  1  0
 12 38  1  0
 12 39  1  0
 14 40  1  0
 16 41  1  0
 16 42  1  0
 18 43  1  0
 19 44  1  0
 20 45  1  0
 22 46  1  0
 23 47  1  0
M  CHG  1  19   1
M  END
>  <UniqueID>  (14) 
13

>  <SMILES>  (14) 
CN(CCOc1ccccc1)Cc1cc(Cn2c[nH+]cn2)ccc1F

>  <Energy>  (14) 
84.59790288295822

>  <Genealogy>  (14) 
CN(CCOc1ccccc1)Cc1cc(Cn2c[nH+]cn2)ccc1F (protonated)
CN(CCOc1ccccc1)Cc1cc(Cn2c[nH+]cn2)ccc1F (3D coordinates assigned)
CN(CCOc1ccccc1)Cc1cc(Cn2c[nH+]cn2)ccc1F (optimized conformer: 84.59790288295822 kcal/mol)

>  <smiles>  (14) 
CN(CCOc1ccccc1)Cc1cc(Cn2cncn2)ccc1F

>  <score_type>  (14) 
oracle

>  <origin>  (14) 
adg

>  <m_score__min__energy>  (14) 
-6.75

>  <m_primary>  (14) 
energy

$$$$
14:0
     RDKit          3D

 42 44  0  0  0  0  0  0  0  0999 V2000
   57.5010   31.4460   43.3840 C   0  0  0  0  0  0  0  0  0  0  0  0
   56.9710   30.2720   44.1450 C   0  0  0  0  0  0  0  0  0  0  0  0
   55.6760   30.1570   44.4950 N   0  0  0  0  0  0  0  0  0  0  0  0
   55.5170   29.0210   45.1560 N   0  0  0  0  0  0  0  0  0  0  0  0
   56.7090   28.3990   45.2350 C   0  0  0  0  0  0  0  0  0  0  0  0
   56.8930   27.0850   45.9250 C   0  0  0  0  0  0  0  0  0  0  0  0
   57.6820   29.1800   44.6250 C   0  0  0  0  0  0  0  0  0  0  0  0
   59.1660   28.8900   44.4880 C   0  0  0  0  0  0  0  0  0  0  0  0
   59.9460   29.1210   45.7260 N   0  0  0  0  0  0  0  0  0  0  0  0
   60.0670   27.8990   46.5400 C   0  0  0  0  0  0  0  0  0  0  0  0
   59.4280   30.2570   46.5130 C   0  0  0  0  0  0  0  0  0  0  0  0
   60.5130   31.2840   46.7580 C   0  0  0  0  0  0  0  0  0  0  0  0
   61.7520   30.8340   47.2420 C   0  0  0  0  0  0  0  0  0  0  0  0
   62.7490   31.7550   47.5640 C   0  0  0  0  0  0  0  0  0  0  0  0
   62.5220   33.0860   47.4230 N   0  0  0  0  0  0  0  0  0  0  0  0
   61.3330   33.5590   46.9640 C   0  0  0  0  0  0  0  0  0  0  0  0
   60.3010   32.6770   46.6090 C   0  0  0  0  0  0  0  0  0  0  0  0
   59.0320   33.2410   46.1110 C   0  0  0  0  0  0  0  0  0  0  0  0
   57.7820   32.8910   46.6420 C   0  0  0  0  0  0  0  0  0  0  0  0
   56.7200   33.5540   46.0440 C   0  0  0  0  0  0  0  0  0  0  0  0
   57.3440   34.5830   44.8710 S   0  0  0  0  0  0  0  0  0  0  0  0
   58.9630   34.2020   45.1080 C   0  0  0  0  0  0  0  0  0  0  0  0
   57.8479   32.2145   44.0904 H   0  0  0  0  0  0  0  0  0  0  0  0
   58.3410   31.1238   42.7510 H   0  0  0  0  0  0  0  0  0  0  0  0
   56.7038   31.8629   42.7510 H   0  0  0  0  0  0  0  0  0  0  0  0
   56.8718   27.2367   47.0143 H   0  0  0  0  0  0  0  0  0  0  0  0
   56.0818   26.4013   45.6341 H   0  0  0  0  0  0  0  0  0  0  0  0
   57.8608   26.6505   45.6341 H   0  0  0  0  0  0  0  0  0  0  0  0
   59.2862   27.8363   44.1959 H   0  0  0  0  0  0  0  0  0  0  0  0
   59.5565   29.5883   43.7331 H   0  0  0  0  0  0  0  0  0  0  0  0
   60.0407   28.1651   47.6070 H   0  0  0  0  0  0  0  0  0  0  0  0
   59.2316   27.2213   46.3104 H   0  0  0  0  0  0  0  0  0  0  0  0
   61.0191   27.3983   46.3104 H   0  0  0  0  0  0  0  0  0  0  0  0
   58.6021   30.7302   45.9617 H   0  0  0  0  0  0  0  0  0  0  0  0
   59.0753   29.8798   47.4843 H   0  0  0  0  0  0  0  0  0  0  0  0
   61.9361   29.7568   47.3671 H   0  0  0  0  0  0  0  0  0  0  0  0
   63.7229   31.4014   47.9336 H   0  0  0  0  0  0  0  0  0  0  0  0
   63.2770   33.7610   47.6750 H   0  0  0  0  0  0  0  0  0  0  0  0
   61.1784   34.6440   46.8700 H   0  0  0  0  0  0  0  0  0  0  0  0
   57.6557   32.1607   47.4548 H   0  0  0  0  0  0  0  0  0  0  0  0
   55.6562   33.4282   46.2939 H   0  0  0  0  0  0  0  0  0  0  0  0
   59.8166   34.6355   44.5663 H   0  0  0  0  0  0  0  0  0  0  0  0
  1  2  1  0
  2  3  2  0
  3  4  1  0
  4  5  1  0
  5  6  1  0
  5  7  2  0
  7  8  1  0
  8  9  1  0
  9 10  1  0
  9 11  1  0
 11 12  1  0
 12 13  2  0
 13 14  1  0
 14 15  2  0
 15 16  1  0
 16 17  2  0
 17 18  1  0
 18 19  1  0
 19 20  2  0
 20 21  1  0
 21 22  1  0
  7  2  1  0
 17 12  1  0
 22 18  2  0
  1 23  1  0
  1 24  1  0
  1 25  1  0
  6 26  1  0
  6 27  1  0
  6 28  1  0
  8 29  1  0
  8 30  1  0
 10 31  1  0
 10 32  1  0
 10 33  1  0
 11 34  1  0
 11 35  1  0
 13 36  1  0
 14 37  1  0
 15 38  1  0
 16 39  1  0
 19 40  1  0
 20 41  1  0
 22 42  1  0
M  CHG  2   4  -1  15   1
M  END
>  <UniqueID>  (15) 
14

>  <SMILES>  (15) 
Cc1n[n-]c(C)c1CN(C)Cc1cc[nH+]cc1-c1ccsc1

>  <Energy>  (15) 
106.74004100836787

>  <Genealogy>  (15) 
Cc1n[n-]c(C)c1CN(C)Cc1cc[nH+]cc1-c1ccsc1 (protonated)
Cc1n[n-]c(C)c1CN(C)Cc1cc[nH+]cc1-c1ccsc1 (3D coordinates assigned)
Cc1n[n-]c(C)c1CN(C)Cc1cc[nH+]cc1-c1ccsc1 (optimized conformer: 106.74004100836787 kcal/mol)

>  <smiles>  (15) 
Cc1n[nH]c(C)c1CN(C)Cc1ccncc1-c1ccsc1

>  <score_type>  (15) 
oracle

>  <origin>  (15) 
adg

>  <m_score__min__energy>  (15) 
-8.6199999999999992

>  <m_primary>  (15) 
energy

$$$$
15:0
     RDKit          3D

 48 51  0  0  0  0  0  0  0  0999 V2000
   59.8690   27.5570   49.0410 O   0  0  0  0  0  0  0  0  0  0  0  0
   59.4470   28.8430   48.7190 C   0  0  0  0  0  0  0  0  0  0  0  0
   59.3080   29.7840   49.7410 C   0  0  0  0  0  0  0  0  0  0  0  0
   58.8690   31.0830   49.4600 C   0  0  0  0  0  0  0  0  0  0  0  0
   58.6950   32.0710   50.5470 C   0  0  0  0  0  0  0  0  0  0  0  0
   57.7410   31.8230   51.5510 C   0  0  0  0  0  0  0  0  0  0  0  0
   57.5630   32.7290   52.5990 C   0  0  0  0  0  0  0  0  0  0  0  0
   58.3290   33.8950   52.6540 C   0  0  0  0  0  0  0  0  0  0  0  0
   59.2710   34.1600   51.6570 C   0  0  0  0  0  0  0  0  0  0  0  0
   59.4590   33.2590   50.6020 C   0  0  0  0  0  0  0  0  0  0  0  0
   60.6110   33.6830   49.3400 Cl  0  0  0  0  0  0  0  0  0  0  0  0
   58.5570   31.4290   48.1390 C   0  0  0  0  0  0  0  0  0  0  0  0
   58.7050   30.5020   47.0960 C   0  0  0  0  0  0  0  0  0  0  0  0
   58.3700   30.9400   45.7250 C   0  0  0  0  0  0  0  0  0  0  0  0
   58.7980   32.1940   45.2640 C   0  0  0  0  0  0  0  0  0  0  0  0
   58.4930   32.6050   43.9630 C   0  0  0  0  0  0  0  0  0  0  0  0
   57.7720   31.7610   43.1120 C   0  0  0  0  0  0  0  0  0  0  0  0
   57.3900   32.2800   41.4800 Cl  0  0  0  0  0  0  0  0  0  0  0  0
   57.3590   30.5030   43.5610 C   0  0  0  0  0  0  0  0  0  0  0  0
   57.6620   30.0890   44.8620 C   0  0  0  0  0  0  0  0  0  0  0  0
   59.1540   29.1870   47.3840 C   0  0  0  0  0  0  0  0  0  0  0  0
   59.2470   28.1120   46.3170 C   0  0  0  0  0  0  0  0  0  0  0  0
   58.0550   27.2390   46.3570 N   0  0  0  0  0  0  0  0  0  0  0  0
   57.7520   26.6870   45.0180 C   0  0  0  0  0  0  0  0  0  0  0  0
   56.6780   25.5850   45.1030 C   0  0  0  0  0  0  0  0  0  0  0  0
   56.0540   25.5810   46.3710 O   0  0  0  0  0  0  0  0  0  0  0  0
   57.0010   25.2380   47.3660 C   0  0  0  0  0  0  0  0  0  0  0  0
   58.2530   26.1400   47.3180 C   0  0  0  0  0  0  0  0  0  0  0  0
   59.5458   29.5017   50.7772 H   0  0  0  0  0  0  0  0  0  0  0  0
   57.1308   30.9087   51.5103 H   0  0  0  0  0  0  0  0  0  0  0  0
   56.8183   32.5236   53.3821 H   0  0  0  0  0  0  0  0  0  0  0  0
   58.1907   34.6052   53.4826 H   0  0  0  0  0  0  0  0  0  0  0  0
   59.8688   35.0823   51.7011 H   0  0  0  0  0  0  0  0  0  0  0  0
   58.1907   32.4420   47.9160 H   0  0  0  0  0  0  0  0  0  0  0  0
   59.3747   32.8552   45.9275 H   0  0  0  0  0  0  0  0  0  0  0  0
   58.8205   33.5934   43.6082 H   0  0  0  0  0  0  0  0  0  0  0  0
   56.7951   29.8381   42.8902 H   0  0  0  0  0  0  0  0  0  0  0  0
   57.3449   29.0947   45.2096 H   0  0  0  0  0  0  0  0  0  0  0  0
   59.3138   28.5885   45.3278 H   0  0  0  0  0  0  0  0  0  0  0  0
   60.1422   27.5009   46.5045 H   0  0  0  0  0  0  0  0  0  0  0  0
   57.3855   27.4968   44.3700 H   0  0  0  0  0  0  0  0  0  0  0  0
   58.6718   26.2477   44.6046 H   0  0  0  0  0  0  0  0  0  0  0  0
   55.9175   25.7638   44.3286 H   0  0  0  0  0  0  0  0  0  0  0  0
   57.1639   24.6102   44.9491 H   0  0  0  0  0  0  0  0  0  0  0  0
   56.5288   25.3403   48.3542 H   0  0  0  0  0  0  0  0  0  0  0  0
   57.3242   24.2030   47.1808 H   0  0  0  0  0  0  0  0  0  0  0  0
   58.4356   26.5607   48.3178 H   0  0  0  0  0  0  0  0  0  0  0  0
   59.1162   25.5372   46.9993 H   0  0  0  0  0  0  0  0  0  0  0  0
  1  2  1  0
  2  3  2  0
  3  4  1  0
  4  5  1  0
  5  6  2  0
  6  7  1  0
  7  8  2  0
  8  9  1  0
  9 10  2  0
 10 11  1  0
  4 12  2  0
 12 13  1  0
 13 14  1  0
 14 15  2  0
 15 16  1  0
 16 17  2  0
 17 18  1  0
 17 19  1  0
 19 20  2  0
 13 21  2  0
 21 22  1  0
 22 23  1  0
 23 24  1  0
 24 25  1  0
 25 26  1  0
 26 27  1  0
 27 28  1  0
 21  2  1  0
 28 23  1  0
 10  5  1  0
 20 14  1  0
  3 29  1  0
  6 30  1  0
  7 31  1  0
  8 32  1  0
  9 33  1  0
 12 34  1  0
 15 35  1  0
 16 36  1  0
 19 37  1  0
 20 38  1  0
 22 39  1  0
 22 40  1  0
 24 41  1  0
 24 42  1  0
 25 43  1  0
 25 44  1  0
 27 45  1  0
 27 46  1  0
 28 47  1  0
 28 48  1  0
M  CHG  1   1  -1
M  END
>  <UniqueID>  (16) 
15

>  <SMILES>  (16) 
[O-]c1cc(-c2ccccc2Cl)cc(-c2ccc(Cl)cc2)c1CN1CCOCC1

>  <Energy>  (16) 
76.42946943359445

>  <Genealogy>  (16) 
[O-]c1cc(-c2ccccc2Cl)cc(-c2ccc(Cl)cc2)c1CN1CCOCC1 (protonated)
[O-]c1cc(-c2ccccc2Cl)cc(-c2ccc(Cl)cc2)c1CN1CCOCC1 (3D coordinates assigned)
[O-]c1cc(-c2ccccc2Cl)cc(-c2ccc(Cl)cc2)c1CN1CCOCC1 (nonaromatic ring conformer: 76.42946943359445 kcal/mol)

>  <smiles>  (16) 
Oc1cc(-c2ccccc2Cl)cc(-c2ccc(Cl)cc2)c1CN1CCOCC1

>  <score_type>  (16) 
oracle

>  <origin>  (16) 
adg

>  <m_score__min__energy>  (16) 
-9.2300000000000004

>  <m_primary>  (16) 
energy

$$$$
16:0
     RDKit          3D

 55 57  0  0  0  0  0  0  0  0999 V2000
   58.9080   34.5280   46.4280 C   0  0  0  0  0  0  0  0  0  0  0  0
   58.1610   33.4100   47.1520 C   0  0  0  0  0  0  0  0  0  0  0  0
   58.7930   33.1130   48.4560 N   0  0  0  0  0  0  0  0  0  0  0  0
   59.9030   34.0390   48.7770 C   0  0  0  0  0  0  0  0  0  0  0  0
   61.2930   33.3900   48.6890 C   0  0  0  0  0  0  0  0  0  0  0  0
   59.1600   31.6860   48.6260 C   0  0  0  0  0  0  0  0  0  0  0  0
   59.3610   31.0380   47.2540 C   0  0  0  0  0  0  0  0  0  0  0  0
   58.2230   30.2580   46.8910 O   0  0  0  0  0  0  0  0  0  0  0  0
   58.2390   28.9110   46.4860 C   0  0  0  0  0  0  0  0  0  0  0  0
   59.0730   27.9600   47.1010 C   0  0  0  0  0  0  0  0  0  0  0  0
   59.0370   26.6220   46.7060 C   0  0  0  0  0  0  0  0  0  0  0  0
   58.1680   26.2010   45.6880 C   0  0  0  0  0  0  0  0  0  0  0  0
   58.1270   24.7750   45.2750 C   0  0  0  0  0  0  0  0  0  0  0  0
   57.0380   24.2770   44.5340 C   0  0  0  0  0  0  0  0  0  0  0  0
   57.0010   22.9340   44.1460 C   0  0  0  0  0  0  0  0  0  0  0  0
   58.0470   22.0750   44.4920 C   0  0  0  0  0  0  0  0  0  0  0  0
   59.1330   22.5580   45.2280 C   0  0  0  0  0  0  0  0  0  0  0  0
   59.1740   23.9000   45.6180 C   0  0  0  0  0  0  0  0  0  0  0  0
   57.3380   27.1500   45.0670 C   0  0  0  0  0  0  0  0  0  0  0  0
   57.3780   28.5020   45.4450 C   0  0  0  0  0  0  0  0  0  0  0  0
   56.4610   29.4610   44.7840 C   0  0  0  0  0  0  0  0  0  0  0  0
   55.2190   29.3360   44.9680 O   0  0  0  0  0  0  0  0  0  0  0  0
   56.9520   30.5540   43.9110 C   0  0  0  0  0  0  0  0  0  0  0  0
   57.6880   31.6190   44.4600 C   0  0  0  0  0  0  0  0  0  0  0  0
   58.1560   32.6520   43.6420 C   0  0  0  0  0  0  0  0  0  0  0  0
   57.8860   32.6370   42.2700 C   0  0  0  0  0  0  0  0  0  0  0  0
   57.1430   31.5920   41.7170 C   0  0  0  0  0  0  0  0  0  0  0  0
   56.6730   30.5570   42.5310 C   0  0  0  0  0  0  0  0  0  0  0  0
   59.3605   35.2053   47.1673 H   0  0  0  0  0  0  0  0  0  0  0  0
   59.6976   34.0931   45.7976 H   0  0  0  0  0  0  0  0  0  0  0  0
   58.2040   35.0910   45.7976 H   0  0  0  0  0  0  0  0  0  0  0  0
   57.1194   33.7218   47.3190 H   0  0  0  0  0  0  0  0  0  0  0  0
   58.1949   32.5035   46.5298 H   0  0  0  0  0  0  0  0  0  0  0  0
   59.8677   34.8816   48.0708 H   0  0  0  0  0  0  0  0  0  0  0  0
   59.7631   34.3597   49.8199 H   0  0  0  0  0  0  0  0  0  0  0  0
   61.6785   33.2100   49.7034 H   0  0  0  0  0  0  0  0  0  0  0  0
   61.2178   32.4339   48.1503 H   0  0  0  0  0  0  0  0  0  0  0  0
   61.9778   34.0615   48.1503 H   0  0  0  0  0  0  0  0  0  0  0  0
   60.0931   31.6148   49.2042 H   0  0  0  0  0  0  0  0  0  0  0  0
   58.3532   31.1636   49.1609 H   0  0  0  0  0  0  0  0  0  0  0  0
   59.5131   31.8260   46.5017 H   0  0  0  0  0  0  0  0  0  0  0  0
   60.2403   30.3787   47.3007 H   0  0  0  0  0  0  0  0  0  0  0  0
   59.7600   28.2738   47.9007 H   0  0  0  0  0  0  0  0  0  0  0  0
   59.6959   25.8908   47.1972 H   0  0  0  0  0  0  0  0  0  0  0  0
   56.2114   24.9485   44.2587 H   0  0  0  0  0  0  0  0  0  0  0  0
   56.1466   22.5532   43.5672 H   0  0  0  0  0  0  0  0  0  0  0  0
   58.0161   21.0190   44.1854 H   0  0  0  0  0  0  0  0  0  0  0  0
   59.9563   21.8813   45.5006 H   0  0  0  0  0  0  0  0  0  0  0  0
   60.0310   24.2744   46.1972 H   0  0  0  0  0  0  0  0  0  0  0  0
   56.6471   26.8292   44.2734 H   0  0  0  0  0  0  0  0  0  0  0  0
   57.8969   31.6396   45.5398 H   0  0  0  0  0  0  0  0  0  0  0  0
   58.7374   33.4776   44.0784 H   0  0  0  0  0  0  0  0  0  0  0  0
   58.2587   33.4478   41.6268 H   0  0  0  0  0  0  0  0  0  0  0  0
   56.9270   31.5831   40.6385 H   0  0  0  0  0  0  0  0  0  0  0  0
   56.0819   29.7404   42.0908 H   0  0  0  0  0  0  0  0  0  0  0  0
  1  2  1  0
  2  3  1  0
  3  4  1  0
  4  5  1  0
  3  6  1  0
  6  7  1  0
  7  8  1  0
  8  9  1  0
  9 10  2  0
 10 11  1  0
 11 12  2  0
 12 13  1  0
 13 14  2  0
 14 15  1  0
 15 16  2  0
 16 17  1  0
 17 18  2  0
 12 19  1  0
 19 20  2  0
 20 21  1  0
 21 22  2  0
 21 23  1  0
 23 24  2  0
 24 25  1  0
 25 26  2  0
 26 27  1  0
 27 28  2  0
 20  9  1  0
 28 23  1  0
 18 13  1  0
  1 29  1  0
  1 30  1  0
  1 31  1  0
  2 32  1  0
  2 33  1  0
  4 34  1  0
  4 35  1  0
  5 36  1  0
  5 37  1  0
  5 38  1  0
  6 39  1  0
  6 40  1  0
  7 41  1  0
  7 42  1  0
 10 43  1  0
 11 44  1  0
 14 45  1  0
 15 46  1  0
 16 47  1  0
 17 48  1  0
 18 49  1  0
 19 50  1  0
 24 51  1  0
 25 52  1  0
 26 53  1  0
 27 54  1  0
 28 55  1  0
M  END
>  <UniqueID>  (17) 
16

>  <SMILES>  (17) 
CCN(CC)CCOc1ccc(-c2ccccc2)cc1C(=O)c1ccccc1

>  <Energy>  (17) 
68.44101190803974

>  <Genealogy>  (17) 
CCN(CC)CCOc1ccc(-c2ccccc2)cc1C(=O)c1ccccc1 (3D coordinates assigned)
CCN(CC)CCOc1ccc(-c2ccccc2)cc1C(=O)c1ccccc1 (optimized conformer: 68.44101190803974 kcal/mol)

>  <smiles>  (17) 
CCN(CC)CCOc1ccc(-c2ccccc2)cc1C(=O)c1ccccc1

>  <score_type>  (17) 
oracle

>  <origin>  (17) 
adg

>  <m_score__min__energy>  (17) 
-8.4700000000000006

>  <m_primary>  (17) 
energy

$$$$
17:0
     RDKit          3D

 57 59  0  0  0  0  0  0  0  0999 V2000
   59.9750   29.0550   48.2940 C   0  0  0  0  0  0  0  0  0  0  0  0
   60.7430   30.0300   48.9920 O   0  0  0  0  0  0  0  0  0  0  0  0
   60.2060   30.9880   49.8660 C   0  0  0  0  0  0  0  0  0  0  0  0
   58.8500   31.3650   49.8180 C   0  0  0  0  0  0  0  0  0  0  0  0
   58.3540   32.3260   50.7020 C   0  0  0  0  0  0  0  0  0  0  0  0
   59.2010   32.9170   51.6400 C   0  0  0  0  0  0  0  0  0  0  0  0
   60.5470   32.5490   51.6990 C   0  0  0  0  0  0  0  0  0  0  0  0
   61.0590   31.5820   50.8110 C   0  0  0  0  0  0  0  0  0  0  0  0
   62.4040   31.1830   50.8390 O   0  0  0  0  0  0  0  0  0  0  0  0
   63.5110   32.0790   50.9120 C   0  0  0  0  0  0  0  0  0  0  0  0
   63.8400   32.5840   49.5430 C   0  0  0  0  0  0  0  0  0  0  0  0
   64.8120   33.3740   49.3900 O   0  0  0  0  0  0  0  0  0  0  0  0
   63.0200   32.2210   48.4230 N   0  0  0  0  0  0  0  0  0  0  0  0
   63.2970   32.6790   47.0620 C   0  0  0  0  0  0  0  0  0  0  0  0
   62.3470   33.8080   46.6470 C   0  0  0  0  0  0  0  0  0  0  0  0
   60.7410   33.6560   47.4290 S   0  0  0  0  0  0  0  0  0  0  0  0
   60.8440   34.1220   48.8560 O   0  0  0  0  0  0  0  0  0  0  0  0
   60.3310   32.2090   47.4220 O   0  0  0  0  0  0  0  0  0  0  0  0
   59.5190   34.5800   46.5750 N   0  0  0  0  0  0  0  0  0  0  0  0
   58.1560   34.3240   47.0810 C   0  0  0  0  0  0  0  0  0  0  0  0
   57.6770   32.9020   46.7530 C   0  0  0  0  0  0  0  0  0  0  0  0
   58.1010   32.5090   45.4050 N   0  0  0  0  0  0  0  0  0  0  0  0
   58.0010   31.1350   44.9890 C   0  0  0  0  0  0  0  0  0  0  0  0
   56.8030   30.6490   44.4320 C   0  0  0  0  0  0  0  0  0  0  0  0
   56.6990   29.3130   44.0350 C   0  0  0  0  0  0  0  0  0  0  0  0
   57.7850   28.4480   44.1920 C   0  0  0  0  0  0  0  0  0  0  0  0
   58.9770   28.9180   44.7520 C   0  0  0  0  0  0  0  0  0  0  0  0
   59.0880   30.2540   45.1510 C   0  0  0  0  0  0  0  0  0  0  0  0
   60.2430   30.6770   45.7250 F   0  0  0  0  0  0  0  0  0  0  0  0
   58.5380   33.5490   44.4710 C   0  0  0  0  0  0  0  0  0  0  0  0
   59.6450   34.4140   45.1050 C   0  0  0  0  0  0  0  0  0  0  0  0
   59.4627   28.4046   49.0182 H   0  0  0  0  0  0  0  0  0  0  0  0
   59.2290   29.5594   47.6623 H   0  0  0  0  0  0  0  0  0  0  0  0
   60.6401   28.4479   47.6623 H   0  0  0  0  0  0  0  0  0  0  0  0
   58.1784   30.9006   49.0810 H   0  0  0  0  0  0  0  0  0  0  0  0
   57.2941   32.6172   50.6586 H   0  0  0  0  0  0  0  0  0  0  0  0
   58.8080   33.6742   52.3344 H   0  0  0  0  0  0  0  0  0  0  0  0
   61.2103   33.0160   52.4419 H   0  0  0  0  0  0  0  0  0  0  0  0
   63.2528   32.9274   51.5627 H   0  0  0  0  0  0  0  0  0  0  0  0
   64.3824   31.5496   51.3249 H   0  0  0  0  0  0  0  0  0  0  0  0
   62.1530   31.6610   48.5890 H   0  0  0  0  0  0  0  0  0  0  0  0
   64.3327   33.0463   47.0119 H   0  0  0  0  0  0  0  0  0  0  0  0
   63.1491   31.8325   46.3753 H   0  0  0  0  0  0  0  0  0  0  0  0
   62.7928   34.7713   46.9356 H   0  0  0  0  0  0  0  0  0  0  0  0
   62.2019   33.7469   45.5583 H   0  0  0  0  0  0  0  0  0  0  0  0
   58.1520   34.4569   48.1729 H   0  0  0  0  0  0  0  0  0  0  0  0
   57.4732   35.0336   46.5908 H   0  0  0  0  0  0  0  0  0  0  0  0
   58.1034   32.1998   47.4845 H   0  0  0  0  0  0  0  0  0  0  0  0
   56.5781   32.8803   46.7980 H   0  0  0  0  0  0  0  0  0  0  0  0
   55.9438   31.3246   44.3085 H   0  0  0  0  0  0  0  0  0  0  0  0
   55.7603   28.9417   43.5980 H   0  0  0  0  0  0  0  0  0  0  0  0
   57.7023   27.3978   43.8753 H   0  0  0  0  0  0  0  0  0  0  0  0
   59.8299   28.2350   44.8791 H   0  0  0  0  0  0  0  0  0  0  0  0
   58.9274   33.0750   43.5579 H   0  0  0  0  0  0  0  0  0  0  0  0
   57.6794   34.1923   44.2280 H   0  0  0  0  0  0  0  0  0  0  0  0
   60.6158   33.9423   44.8928 H   0  0  0  0  0  0  0  0  0  0  0  0
   59.5542   35.4177   44.6640 H   0  0  0  0  0  0  0  0  0  0  0  0
  1  2  1  0
  2  3  1  0
  3  4  2  0
  4  5  1  0
  5  6  2  0
  6  7  1  0
  7  8  2  0
  8  9  1  0
  9 10  1  0
 10 11  1  0
 11 12  2  0
 11 13  1  0
 13 14  1  0
 14 15  1  0
 15 16  1  0
 16 17  2  0
 16 18  2  0
 16 19  1  0
 19 20  1  0
 20 21  1  0
 21 22  1  0
 22 23  1  0
 23 24  2  0
 24 25  1  0
 25 26  2  0
 26 27  1  0
 27 28  2  0
 28 29  1  0
 22 30  1  0
 30 31  1  0
  8  3  1  0
 31 19  1  0
 28 23  1  0
  1 32  1  0
  1 33  1  0
  1 34  1  0
  4 35  1  0
  5 36  1  0
  6 37  1  0
  7 38  1  0
 10 39  1  0
 10 40  1  0
 13 41  1  0
 14 42  1  0
 14 43  1  0
 15 44  1  0
 15 45  1  0
 20 46  1  0
 20 47  1  0
 21 48  1  0
 21 49  1  0
 24 50  1  0
 25 51  1  0
 26 52  1  0
 27 53  1  0
 30 54  1  0
 30 55  1  0
 31 56  1  0
 31 57  1  0
M  END
>  <UniqueID>  (18) 
17

>  <SMILES>  (18) 
COc1ccccc1OCC(=O)NCCS(=O)(=O)N1CCN(c2ccccc2F)CC1

>  <Energy>  (18) 
59.75972838276783

>  <Genealogy>  (18) 
COc1ccccc1OCC(=O)NCCS(=O)(=O)N1CCN(c2ccccc2F)CC1 (3D coordinates assigned)
COc1ccccc1OCC(=O)NCCS(=O)(=O)N1CCN(c2ccccc2F)CC1 (nonaromatic ring conformer: 59.75972838276783 kcal/mol)

>  <smiles>  (18) 
COc1ccccc1OCC(=O)NCCS(=O)(=O)N1CCN(c2ccccc2F)CC1

>  <score_type>  (18) 
oracle

>  <origin>  (18) 
adg

>  <m_score__min__energy>  (18) 
-8.3900000000000006

>  <m_primary>  (18) 
energy

$$$$
18:0
     RDKit          3D

 49 51  0  0  0  0  0  0  0  0999 V2000
   59.5946   33.5037   49.4942 H   0  0  0  0  0  0  0  0  0  0  0  0
   59.6270   33.5890   48.3980 C   0  0  0  0  0  0  0  0  0  0  0  0
   60.8130   33.7990   47.7700 N   0  0  0  0  0  0  0  0  0  0  0  0
   60.8920   33.9090   46.4180 C   0  0  0  0  0  0  0  0  0  0  0  0
   61.8669   34.0780   45.9373 H   0  0  0  0  0  0  0  0  0  0  0  0
   59.7380   33.8080   45.6370 C   0  0  0  0  0  0  0  0  0  0  0  0
   59.8023   33.8980   44.5426 H   0  0  0  0  0  0  0  0  0  0  0  0
   58.4950   33.5910   46.2550 C   0  0  0  0  0  0  0  0  0  0  0  0
   57.2570   33.4800   45.4490 C   0  0  0  0  0  0  0  0  0  0  0  0
   56.7690   34.5010   44.8930 O   0  0  0  0  0  0  0  0  0  0  0  0
   56.6120   32.2130   45.2960 N   0  0  0  0  0  0  0  0  0  0  0  0
   57.2050   31.2310   44.7470 N   0  0  0  0  0  0  0  0  0  0  0  0
   57.2310   29.9410   45.3620 C   0  0  0  0  0  0  0  0  0  0  0  0
   56.3000   28.9170   45.2390 C   0  0  0  0  0  0  0  0  0  0  0  0
   55.1460   28.9660   44.4660 O   0  0  0  0  0  0  0  0  0  0  0  0
   56.6580   27.8530   45.9970 N   0  0  0  0  0  0  0  0  0  0  0  0
   55.8810   26.6250   46.1840 C   0  0  0  0  0  0  0  0  0  0  0  0
   54.8321   26.8198   45.9161 H   0  0  0  0  0  0  0  0  0  0  0  0
   55.9619   26.3187   47.2374 H   0  0  0  0  0  0  0  0  0  0  0  0
   56.4180   25.4910   45.3070 C   0  0  0  0  0  0  0  0  0  0  0  0
   57.1740   25.8937   44.6168 H   0  0  0  0  0  0  0  0  0  0  0  0
   55.5833   25.0529   44.7402 H   0  0  0  0  0  0  0  0  0  0  0  0
   57.0370   24.4330   46.1480 N   0  0  0  0  0  0  0  0  0  0  0  0
   56.0960   23.3130   46.3860 C   0  0  0  0  0  0  0  0  0  0  0  0
   56.6295   22.3608   46.2489 H   0  0  0  0  0  0  0  0  0  0  0  0
   55.2648   23.3984   45.6706 H   0  0  0  0  0  0  0  0  0  0  0  0
   55.5230   23.3640   47.8020 C   0  0  0  0  0  0  0  0  0  0  0  0
   56.3426   23.2911   48.5320 H   0  0  0  0  0  0  0  0  0  0  0  0
   54.9866   24.3134   47.9465 H   0  0  0  0  0  0  0  0  0  0  0  0
   54.8274   22.5242   47.9465 H   0  0  0  0  0  0  0  0  0  0  0  0
   58.3120   23.9540   45.5690 C   0  0  0  0  0  0  0  0  0  0  0  0
   58.5021   22.9264   45.9123 H   0  0  0  0  0  0  0  0  0  0  0  0
   58.2364   23.9792   44.4719 H   0  0  0  0  0  0  0  0  0  0  0  0
   59.4670   24.8510   46.0050 C   0  0  0  0  0  0  0  0  0  0  0  0
   59.5105   24.8848   47.1036 H   0  0  0  0  0  0  0  0  0  0  0  0
   60.4124   24.4481   45.6128 H   0  0  0  0  0  0  0  0  0  0  0  0
   59.3106   25.8668   45.6128 H   0  0  0  0  0  0  0  0  0  0  0  0
   57.8110   28.2090   46.6100 C   0  0  0  0  0  0  0  0  0  0  0  0
   58.5660   27.4720   47.5300 C   0  0  0  0  0  0  0  0  0  0  0  0
   58.2635   26.4568   47.8266 H   0  0  0  0  0  0  0  0  0  0  0  0
   59.7230   28.0680   48.0640 C   0  0  0  0  0  0  0  0  0  0  0  0
   60.7790   27.1110   49.3340 Br  0  0  0  0  0  0  0  0  0  0  0  0
   60.1030   29.3730   47.6760 C   0  0  0  0  0  0  0  0  0  0  0  0
   61.0113   29.8265   48.0995 H   0  0  0  0  0  0  0  0  0  0  0  0
   59.3270   30.0950   46.7520 C   0  0  0  0  0  0  0  0  0  0  0  0
   59.6116   31.1117   46.4434 H   0  0  0  0  0  0  0  0  0  0  0  0
   58.1860   29.4810   46.2400 C   0  0  0  0  0  0  0  0  0  0  0  0
   58.4480   33.4810   47.6560 C   0  0  0  0  0  0  0  0  0  0  0  0
   57.4880   33.3108   48.1653 H   0  0  0  0  0  0  0  0  0  0  0  0
  1  2  1  0
  2  3  2  0
  3  4  1  0
  4  5  1  0
  4  6  2  0
  6  7  1  0
  6  8  1  0
  8  9  1  0
  9 10  2  0
  9 11  1  0
 11 12  2  0
 12 13  1  0
 13 14  2  0
 14 15  1  0
 14 16  1  0
 16 17  1  0
 17 18  1  0
 17 19  1  0
 17 20  1  0
 20 21  1  0
 20 22  1  0
 20 23  1  0
 23 24  1  0
 24 25  1  0
 24 26  1  0
 24 27  1  0
 27 28  1  0
 27 29  1  0
 27 30  1  0
 23 31  1  0
 31 32  1  0
 31 33  1  0
 31 34  1  0
 34 35  1  0
 34 36  1  0
 34 37  1  0
 16 38  1  0
 38 39  2  0
 39 40  1  0
 39 41  1  0
 41 42  1  0
 41 43  2  0
 43 44  1  0
 43 45  1  0
 45 46  1  0
 45 47  2  0
  8 48  2  0
 48 49  1  0
 48  2  1  0
 47 13  1  0
 47 38  1  0
M  CHG  1  15  -1
M  END
>  <UniqueID>  (19) 
18

>  <SMILES>  (19) 
CCN(CC)CCn1c([O-])c(/N=N/C(=O)c2ccncc2)c2ccc(Br)cc21

>  <Energy>  (19) 
82.54863867538326

>  <Genealogy>  (19) 
CCN(CC)CCn1c([O-])c(N=NC(=O)c2ccncc2)c2ccc(Br)cc21 (protonated)
CCN(CC)CCn1c([O-])c(/N=N/C(=O)c2ccncc2)c2ccc(Br)cc21 (cis-trans isomerization)
CCN(CC)CCn1c([O-])c(/N=N/C(=O)c2ccncc2)c2ccc(Br)cc21 (3D coordinates assigned)
CCN(CC)CCn1c([O-])c(/N=N/C(=O)c2ccncc2)c2ccc(Br)cc21 (optimized conformer: 82.54863867538326 kcal/mol)

>  <smiles>  (19) 
CCN(CC)CCn1c(O)c(N=NC(=O)c2ccncc2)c2ccc(Br)cc21

>  <score_type>  (19) 
oracle

>  <origin>  (19) 
adg

>  <m_score__min__energy>  (19) 
-11.56

>  <m_primary>  (19) 
energy

$$$$
19:0
     RDKit          3D

 38 41  0  0  0  0  0  0  0  0999 V2000
   55.1410   29.4760   44.8830 O   0  0  0  0  0  0  0  0  0  0  0  0
   56.0870   28.6530   44.9960 C   0  0  0  0  0  0  0  0  0  0  0  0
   55.8530   27.4320   45.6220 O   0  0  0  0  0  0  0  0  0  0  0  0
   57.4540   29.0080   44.4650 C   0  0  2  0  0  0  0  0  0  0  0  0
   58.4780   27.8520   44.6670 C   0  0  0  0  0  0  0  0  0  0  0  0
   59.3140   27.9150   45.9940 C   0  0  0  0  0  0  0  0  0  0  0  0
   58.4530   27.6190   47.2350 C   0  0  0  0  0  0  0  0  0  0  0  0
   58.3910   26.1020   47.3490 C   0  0  0  0  0  0  0  0  0  0  0  0
   59.6100   25.5600   46.6060 C   0  0  0  0  0  0  0  0  0  0  0  0
   60.3360   26.7670   46.0170 C   0  0  0  0  0  0  0  0  0  0  0  0
   60.0400   29.2830   46.1080 C   0  0  0  0  0  0  0  0  0  0  0  0
   59.0900   30.4050   45.8360 C   0  0  0  0  0  0  0  0  0  0  0  0
   57.9590   30.3000   45.0460 C   0  0  0  0  0  0  0  0  0  0  0  0
   57.3800   31.5110   44.8670 N   0  0  0  0  0  0  0  0  0  0  0  0
   58.1600   32.3860   45.5330 C   0  0  0  0  0  0  0  0  0  0  0  0
   57.9990   33.7710   45.6290 C   0  0  0  0  0  0  0  0  0  0  0  0
   56.6490   34.5950   44.8680 Cl  0  0  0  0  0  0  0  0  0  0  0  0
   58.9620   34.4960   46.3560 C   0  0  0  0  0  0  0  0  0  0  0  0
   60.0540   33.8340   46.9600 C   0  0  0  0  0  0  0  0  0  0  0  0
   60.1940   32.4390   46.8450 C   0  0  0  0  0  0  0  0  0  0  0  0
   59.2220   31.7450   46.1280 C   0  0  0  0  0  0  0  0  0  0  0  0
   57.3449   29.1560   43.3805 H   0  0  0  0  0  0  0  0  0  0  0  0
   57.9229   26.9024   44.6608 H   0  0  0  0  0  0  0  0  0  0  0  0
   59.2051   27.9455   43.8469 H   0  0  0  0  0  0  0  0  0  0  0  0
   58.9164   28.0514   48.1340 H   0  0  0  0  0  0  0  0  0  0  0  0
   57.4486   28.0581   47.1433 H   0  0  0  0  0  0  0  0  0  0  0  0
   58.4246   25.7989   48.4059 H   0  0  0  0  0  0  0  0  0  0  0  0
   57.4573   25.7092   46.9202 H   0  0  0  0  0  0  0  0  0  0  0  0
   60.2706   25.0227   47.3023 H   0  0  0  0  0  0  0  0  0  0  0  0
   59.3114   24.8538   45.8173 H   0  0  0  0  0  0  0  0  0  0  0  0
   61.1980   27.0368   46.6448 H   0  0  0  0  0  0  0  0  0  0  0  0
   60.7181   26.5511   45.0083 H   0  0  0  0  0  0  0  0  0  0  0  0
   60.4481   29.3926   47.1236 H   0  0  0  0  0  0  0  0  0  0  0  0
   60.8521   29.3173   45.3669 H   0  0  0  0  0  0  0  0  0  0  0  0
   56.5200   31.7190   44.3140 H   0  0  0  0  0  0  0  0  0  0  0  0
   58.8634   35.5871   46.4546 H   0  0  0  0  0  0  0  0  0  0  0  0
   60.7999   34.4132   47.5240 H   0  0  0  0  0  0  0  0  0  0  0  0
   61.0432   31.9134   47.3061 H   0  0  0  0  0  0  0  0  0  0  0  0
  1  2  2  0
  2  3  1  0
  2  4  1  0
  4  5  1  0
  5  6  1  0
  6  7  1  0
  7  8  1  0
  8  9  1  0
  9 10  1  0
  6 11  1  0
 11 12  1  0
 12 13  2  0
 13 14  1  0
 14 15  1  0
 15 16  2  0
 16 17  1  0
 16 18  1  0
 18 19  2  0
 19 20  1  0
 20 21  2  0
 13  4  1  0
 21 15  1  0
 10  6  1  0
 21 12  1  0
  4 22  1  6
  5 23  1  0
  5 24  1  0
  7 25  1  0
  7 26  1  0
  8 27  1  0
  8 28  1  0
  9 29  1  0
  9 30  1  0
 10 31  1  0
 10 32  1  0
 11 33  1  0
 11 34  1  0
 14 35  1  0
 18 36  1  0
 19 37  1  0
 20 38  1  0
M  CHG  1   3  -1
M  END
>  <UniqueID>  (20) 
19

>  <SMILES>  (20) 
O=C([O-])[C@@H]1CC2(CCCC2)Cc2c1[nH]c1c(Cl)cccc21

>  <Energy>  (20) 
80.1890933468431

>  <Genealogy>  (20) 
O=C([O-])C1CC2(CCCC2)Cc2c1[nH]c1c(Cl)cccc21 (protonated)
O=C([O-])[C@@H]1CC2(CCCC2)Cc2c1[nH]c1c(Cl)cccc21 (chirality)
O=C([O-])[C@@H]1CC2(CCCC2)Cc2c1[nH]c1c(Cl)cccc21 (3D coordinates assigned)
O=C([O-])[C@@H]1CC2(CCCC2)Cc2c1[nH]c1c(Cl)cccc21 (nonaromatic ring conformer: 80.1890933468431 kcal/mol)

>  <smiles>  (20) 
O=C(O)C1CC2(CCCC2)Cc2c1[nH]c1c(Cl)cccc21

>  <score_type>  (20) 
oracle

>  <origin>  (20) 
adg

>  <m_score__min__energy>  (20) 
-11.15

>  <m_primary>  (20) 
energy

$$$$
20:0
     RDKit          3D

 42 44  0  0  0  0  0  0  0  0999 V2000
   63.3610   31.6730   47.4920 C   0  0  0  0  0  0  0  0  0  0  0  0
   62.7720   33.0200   47.5800 N   0  0  0  0  0  0  0  0  0  0  0  0
   63.1410   33.7980   46.3810 C   0  0  0  0  0  0  0  0  0  0  0  0
   63.2240   33.6860   48.8250 C   0  0  0  0  0  0  0  0  0  0  0  0
   62.0690   33.9540   49.8070 C   0  0  0  0  0  0  0  0  0  0  0  0
   60.8690   33.3900   49.3110 O   0  0  0  0  0  0  0  0  0  0  0  0
   60.0090   34.3970   48.8220 C   0  0  0  0  0  0  0  0  0  0  0  0
   59.5180   33.9970   47.4610 C   0  0  0  0  0  0  0  0  0  0  0  0
   59.4110   34.9550   46.4410 C   0  0  0  0  0  0  0  0  0  0  0  0
   58.9200   34.6020   45.1820 C   0  0  0  0  0  0  0  0  0  0  0  0
   58.5140   33.2840   44.9260 C   0  0  0  0  0  0  0  0  0  0  0  0
   58.0150   32.9190   43.6560 C   0  0  0  0  0  0  0  0  0  0  0  0
   57.6050   31.6000   43.4090 C   0  0  0  0  0  0  0  0  0  0  0  0
   57.7020   30.6690   44.4410 C   0  0  0  0  0  0  0  0  0  0  0  0
   58.1820   31.0050   45.6760 C   0  0  0  0  0  0  0  0  0  0  0  0
   58.6020   32.3130   45.9600 C   0  0  0  0  0  0  0  0  0  0  0  0
   59.0980   32.6780   47.2210 C   0  0  0  0  0  0  0  0  0  0  0  0
   58.1630   29.8030   46.5580 C   0  0  0  0  0  0  0  0  0  0  0  0
   57.5900   28.7040   45.6310 C   0  0  0  0  0  0  0  0  0  0  0  0
   57.3480   29.3400   44.3780 O   0  0  0  0  0  0  0  0  0  0  0  0
   63.5325   31.2809   48.5053 H   0  0  0  0  0  0  0  0  0  0  0  0
   62.6723   31.0062   46.9525 H   0  0  0  0  0  0  0  0  0  0  0  0
   64.3181   31.7259   46.9525 H   0  0  0  0  0  0  0  0  0  0  0  0
   61.7300   32.9100   47.6010 H   0  0  0  0  0  0  0  0  0  0  0  0
   63.5936   34.7524   46.6881 H   0  0  0  0  0  0  0  0  0  0  0  0
   63.8637   33.2258   45.7807 H   0  0  0  0  0  0  0  0  0  0  0  0
   62.2407   33.9956   45.7807 H   0  0  0  0  0  0  0  0  0  0  0  0
   63.9649   33.0412   49.3203 H   0  0  0  0  0  0  0  0  0  0  0  0
   63.6548   34.6585   48.5446 H   0  0  0  0  0  0  0  0  0  0  0  0
   62.3077   33.5029   50.7814 H   0  0  0  0  0  0  0  0  0  0  0  0
   61.9369   35.0402   49.9202 H   0  0  0  0  0  0  0  0  0  0  0  0
   59.1535   34.5152   49.5033 H   0  0  0  0  0  0  0  0  0  0  0  0
   60.5514   35.3518   48.7572 H   0  0  0  0  0  0  0  0  0  0  0  0
   59.7167   35.9937   46.6349 H   0  0  0  0  0  0  0  0  0  0  0  0
   58.8514   35.3604   44.3882 H   0  0  0  0  0  0  0  0  0  0  0  0
   57.9475   33.6721   42.8571 H   0  0  0  0  0  0  0  0  0  0  0  0
   57.2157   31.3075   42.4226 H   0  0  0  0  0  0  0  0  0  0  0  0
   59.1581   31.9289   48.0242 H   0  0  0  0  0  0  0  0  0  0  0  0
   59.1769   29.5452   46.8978 H   0  0  0  0  0  0  0  0  0  0  0  0
   57.5751   29.9470   47.4765 H   0  0  0  0  0  0  0  0  0  0  0  0
   58.3163   27.8865   45.5117 H   0  0  0  0  0  0  0  0  0  0  0  0
   56.6713   28.2632   46.0454 H   0  0  0  0  0  0  0  0  0  0  0  0
  1  2  1  0
  2  3  1  0
  2  4  1  0
  4  5  1  0
  5  6  1  0
  6  7  1  0
  7  8  1  0
  8  9  2  0
  9 10  1  0
 10 11  2  0
 11 12  1  0
 12 13  2  0
 13 14  1  0
 14 15  2  0
 15 16  1  0
 16 17  2  0
 15 18  1  0
 18 19  1  0
 19 20  1  0
 17  8  1  0
 16 11  1  0
 20 14  1  0
  1 21  1  0
  1 22  1  0
  1 23  1  0
  2 24  1  0
  3 25  1  0
  3 26  1  0
  3 27  1  0
  4 28  1  0
  4 29  1  0
  5 30  1  0
  5 31  1  0
  7 32  1  0
  7 33  1  0
  9 34  1  0
 10 35  1  0
 12 36  1  0
 13 37  1  0
 17 38  1  0
 18 39  1  0
 18 40  1  0
 19 41  1  0
 19 42  1  0
M  CHG  1   2   1
M  END
>  <UniqueID>  (21) 
20

>  <SMILES>  (21) 
C[NH+](C)CCOCc1ccc2ccc3c(c2c1)CCO3

>  <Energy>  (21) 
63.08041912694179

>  <Genealogy>  (21) 
C[NH+](C)CCOCc1ccc2ccc3c(c2c1)CCO3 (protonated)
C[NH+](C)CCOCc1ccc2ccc3c(c2c1)CCO3 (3D coordinates assigned)
C[NH+](C)CCOCc1ccc2ccc3c(c2c1)CCO3 (nonaromatic ring conformer: 63.08041912694179 kcal/mol)

>  <smiles>  (21) 
CN(C)CCOCc1ccc2ccc3c(c2c1)CCO3

>  <score_type>  (21) 
oracle

>  <origin>  (21) 
adg

>  <m_score__min__energy>  (21) 
-5.7599999999999998

>  <m_primary>  (21) 
energy

$$$$
21:0
     RDKit          3D

 40 42  0  0  0  0  0  0  0  0999 V2000
   64.1070   33.0870   48.4510 C   0  0  0  0  0  0  0  0  0  0  0  0
   63.3000   33.8290   46.9990 S   0  0  0  0  0  0  0  0  0  0  0  0
   61.9060   32.7010   47.0490 C   0  0  0  0  0  0  0  0  0  0  0  0
   60.6190   33.1630   46.7510 C   0  0  0  0  0  0  0  0  0  0  0  0
   59.5330   32.2840   46.7870 C   0  0  0  0  0  0  0  0  0  0  0  0
   59.7250   30.9300   47.1110 C   0  0  0  0  0  0  0  0  0  0  0  0
   58.5520   29.9780   47.1440 C   0  0  0  0  0  0  0  0  0  0  0  0
   58.3050   29.2380   45.8020 C   0  0  2  0  0  0  0  0  0  0  0  0
   59.3600   29.5590   44.7290 C   0  0  0  0  0  0  0  0  0  0  0  0
   56.9080   29.4700   45.2680 C   0  0  0  0  0  0  0  0  0  0  0  0
   56.4850   30.5730   44.8300 O   0  0  0  0  0  0  0  0  0  0  0  0
   56.1170   28.2880   45.2470 N   0  0  0  0  0  0  0  0  0  0  0  0
   56.9740   27.2680   45.7220 C   0  0  0  0  0  0  0  0  0  0  0  0
   56.6470   25.9190   45.8490 C   0  0  0  0  0  0  0  0  0  0  0  0
   57.6260   25.0320   46.3350 C   0  0  0  0  0  0  0  0  0  0  0  0
   57.3240   23.5670   46.4490 C   0  0  0  0  0  0  0  0  0  0  0  0
   58.9160   25.5160   46.6490 C   0  0  0  0  0  0  0  0  0  0  0  0
   59.2220   26.8800   46.5080 C   0  0  0  0  0  0  0  0  0  0  0  0
   60.4610   27.3350   46.8150 F   0  0  0  0  0  0  0  0  0  0  0  0
   58.2270   27.7480   46.0410 C   0  0  0  0  0  0  0  0  0  0  0  0
   61.0200   30.4740   47.4130 C   0  0  0  0  0  0  0  0  0  0  0  0
   62.1040   31.3550   47.3770 C   0  0  0  0  0  0  0  0  0  0  0  0
   63.6604   33.4977   49.3685 H   0  0  0  0  0  0  0  0  0  0  0  0
   63.9664   31.9962   48.4312 H   0  0  0  0  0  0  0  0  0  0  0  0
   65.1822   33.3185   48.4312 H   0  0  0  0  0  0  0  0  0  0  0  0
   60.4619   34.2195   46.4881 H   0  0  0  0  0  0  0  0  0  0  0  0
   58.5222   32.6541   46.5604 H   0  0  0  0  0  0  0  0  0  0  0  0
   58.7380   29.2261   47.9251 H   0  0  0  0  0  0  0  0  0  0  0  0
   57.6554   30.5827   47.3451 H   0  0  0  0  0  0  0  0  0  0  0  0
   60.3033   29.8460   45.2166 H   0  0  0  0  0  0  0  0  0  0  0  0
   59.5269   28.6710   44.1016 H   0  0  0  0  0  0  0  0  0  0  0  0
   59.0040   30.3895   44.1016 H   0  0  0  0  0  0  0  0  0  0  0  0
   55.1370   28.1860   44.9020 H   0  0  0  0  0  0  0  0  0  0  0  0
   55.6455   25.5554   45.5753 H   0  0  0  0  0  0  0  0  0  0  0  0
   57.2661   23.2861   47.5110 H   0  0  0  0  0  0  0  0  0  0  0  0
   56.3626   23.3517   45.9598 H   0  0  0  0  0  0  0  0  0  0  0  0
   58.1219   22.9890   45.9598 H   0  0  0  0  0  0  0  0  0  0  0  0
   59.6876   24.8185   47.0071 H   0  0  0  0  0  0  0  0  0  0  0  0
   61.1807   29.4188   47.6789 H   0  0  0  0  0  0  0  0  0  0  0  0
   63.1157   30.9896   47.6071 H   0  0  0  0  0  0  0  0  0  0  0  0
  1  2  1  0
  2  3  1  0
  3  4  2  0
  4  5  1  0
  5  6  2  0
  6  7  1  0
  8  7  1  1
  8  9  1  0
  8 10  1  0
 10 11  2  0
 10 12  1  0
 12 13  1  0
 13 14  2  0
 14 15  1  0
 15 16  1  0
 15 17  2  0
 17 18  1  0
 18 19  1  0
 18 20  2  0
  6 21  1  0
 21 22  2  0
 22  3  1  0
 20  8  1  0
 20 13  1  0
  1 23  1  0
  1 24  1  0
  1 25  1  0
  4 26  1  0
  5 27  1  0
  7 28  1  0
  7 29  1  0
  9 30  1  0
  9 31  1  0
  9 32  1  0
 12 33  1  0
 14 34  1  0
 16 35  1  0
 16 36  1  0
 16 37  1  0
 17 38  1  0
 21 39  1  0
 22 40  1  0
M  END
>  <UniqueID>  (22) 
21

>  <SMILES>  (22) 
CSc1ccc(C[C@]2(C)C(=O)Nc3cc(C)cc(F)c32)cc1

>  <Energy>  (22) 
54.73527401631592

>  <Genealogy>  (22) 
CSc1ccc(C[C@]2(C)C(=O)Nc3cc(C)cc(F)c32)cc1 (chirality)
CSc1ccc(C[C@]2(C)C(=O)Nc3cc(C)cc(F)c32)cc1 (3D coordinates assigned)
CSc1ccc(C[C@]2(C)C(=O)Nc3cc(C)cc(F)c32)cc1 (nonaromatic ring conformer: 54.73527401631592 kcal/mol)

>  <smiles>  (22) 
CSc1ccc(CC2(C)C(=O)Nc3cc(C)cc(F)c32)cc1

>  <score_type>  (22) 
oracle

>  <origin>  (22) 
adg

>  <m_score__min__energy>  (22) 
-8

>  <m_primary>  (22) 
energy

$$$$
22:0
     RDKit          3D

 49 50  0  0  0  0  0  0  0  0999 V2000
   55.8960   29.9130   43.7410 C   0  0  0  0  0  0  0  0  0  0  0  0
   57.0230   30.0490   44.7660 C   0  0  0  0  0  0  0  0  0  0  0  0
   58.2020   30.8900   44.2350 C   0  0  0  0  0  0  0  0  0  0  0  0
   57.7670   32.1770   43.5130 C   0  0  0  0  0  0  0  0  0  0  0  0
   58.3440   33.4470   44.1600 C   0  0  0  0  0  0  0  0  0  0  0  0
   57.5230   33.9540   45.3580 C   0  0  0  0  0  0  0  0  0  0  0  0
   58.3140   34.2430   46.6500 C   0  0  0  0  0  0  0  0  0  0  0  0
   59.7940   34.6270   46.4310 C   0  0  0  0  0  0  0  0  0  0  0  0
   60.7170   33.5400   46.8010 N   0  0  0  0  0  0  0  0  0  0  0  0
   61.9980   33.8370   47.1820 C   0  0  0  0  0  0  0  0  0  0  0  0
   62.8970   32.8210   47.5070 C   0  0  0  0  0  0  0  0  0  0  0  0
   62.4760   31.4950   47.4670 C   0  0  0  0  0  0  0  0  0  0  0  0
   61.1500   31.1930   47.1370 C   0  0  0  0  0  0  0  0  0  0  0  0
   60.6880   29.7870   47.0650 C   0  0  0  0  0  0  0  0  0  0  0  0
   60.5890   29.1880   45.7980 C   0  0  0  0  0  0  0  0  0  0  0  0
   60.2090   27.8550   45.6890 C   0  0  0  0  0  0  0  0  0  0  0  0
   59.9290   27.1220   46.8370 C   0  0  0  0  0  0  0  0  0  0  0  0
   60.0140   27.7410   48.0840 C   0  0  0  0  0  0  0  0  0  0  0  0
   60.3660   29.0600   48.1920 N   0  0  0  0  0  0  0  0  0  0  0  0
   60.3990   29.6620   49.5330 C   0  0  0  0  0  0  0  0  0  0  0  0
   60.2780   32.2440   46.8130 C   0  0  0  0  0  0  0  0  0  0  0  0
   54.9358   29.7971   44.2650 H   0  0  0  0  0  0  0  0  0  0  0  0
   55.8632   30.8137   43.1104 H   0  0  0  0  0  0  0  0  0  0  0  0
   56.0784   29.0304   43.1104 H   0  0  0  0  0  0  0  0  0  0  0  0
   56.6226   30.5326   45.6693 H   0  0  0  0  0  0  0  0  0  0  0  0
   57.4021   29.0396   44.9838 H   0  0  0  0  0  0  0  0  0  0  0  0
   58.8413   31.1681   45.0858 H   0  0  0  0  0  0  0  0  0  0  0  0
   58.7324   30.2705   43.4968 H   0  0  0  0  0  0  0  0  0  0  0  0
   58.1100   32.1274   42.4690 H   0  0  0  0  0  0  0  0  0  0  0  0
   56.6708   32.2399   43.5797 H   0  0  0  0  0  0  0  0  0  0  0  0
   59.3652   33.2283   44.5056 H   0  0  0  0  0  0  0  0  0  0  0  0
   58.3220   34.2376   43.3955 H   0  0  0  0  0  0  0  0  0  0  0  0
   57.0249   34.8863   45.0534 H   0  0  0  0  0  0  0  0  0  0  0  0
   56.8336   33.1351   45.6110 H   0  0  0  0  0  0  0  0  0  0  0  0
   57.8193   35.0730   47.1757 H   0  0  0  0  0  0  0  0  0  0  0  0
   58.3191   33.3060   47.2262 H   0  0  0  0  0  0  0  0  0  0  0  0
   59.9424   34.8701   45.3685 H   0  0  0  0  0  0  0  0  0  0  0  0
   60.0157   35.4895   47.0766 H   0  0  0  0  0  0  0  0  0  0  0  0
   62.3216   34.8871   47.2323 H   0  0  0  0  0  0  0  0  0  0  0  0
   63.9306   33.0660   47.7927 H   0  0  0  0  0  0  0  0  0  0  0  0
   63.1848   30.6852   47.6945 H   0  0  0  0  0  0  0  0  0  0  0  0
   60.8118   29.7729   44.8934 H   0  0  0  0  0  0  0  0  0  0  0  0
   60.1302   27.3823   44.6989 H   0  0  0  0  0  0  0  0  0  0  0  0
   59.6428   26.0625   46.7623 H   0  0  0  0  0  0  0  0  0  0  0  0
   59.7953   27.1617   48.9932 H   0  0  0  0  0  0  0  0  0  0  0  0
   60.3555   28.8677   50.2927 H   0  0  0  0  0  0  0  0  0  0  0  0
   61.3299   30.2352   49.6548 H   0  0  0  0  0  0  0  0  0  0  0  0
   59.5363   30.3335   49.6548 H   0  0  0  0  0  0  0  0  0  0  0  0
   59.2291   32.0232   46.5658 H   0  0  0  0  0  0  0  0  0  0  0  0
  1  2  1  0
  2  3  1  0
  3  4  1  0
  4  5  1  0
  5  6  1  0
  6  7  1  0
  7  8  1  0
  8  9  1  0
  9 10  2  0
 10 11  1  0
 11 12  2  0
 12 13  1  0
 13 14  1  0
 14 15  2  0
 15 16  1  0
 16 17  2  0
 17 18  1  0
 18 19  2  0
 19 20  1  0
 13 21  2  0
 21  9  1  0
 19 14  1  0
  1 22  1  0
  1 23  1  0
  1 24  1  0
  2 25  1  0
  2 26  1  0
  3 27  1  0
  3 28  1  0
  4 29  1  0
  4 30  1  0
  5 31  1  0
  5 32  1  0
  6 33  1  0
  6 34  1  0
  7 35  1  0
  7 36  1  0
  8 37  1  0
  8 38  1  0
 10 39  1  0
 11 40  1  0
 12 41  1  0
 15 42  1  0
 16 43  1  0
 17 44  1  0
 18 45  1  0
 20 46  1  0
 20 47  1  0
 20 48  1  0
 21 49  1  0
M  CHG  2   9   1  19   1
M  END
>  <UniqueID>  (23) 
22

>  <SMILES>  (23) 
CCCCCCCC[n+]1cccc(-c2cccc[n+]2C)c1

>  <Energy>  (23) 
48.19530623339094

>  <Genealogy>  (23) 
CCCCCCCC[n+]1cccc(-c2cccc[n+]2C)c1 (3D coordinates assigned)
CCCCCCCC[n+]1cccc(-c2cccc[n+]2C)c1 (optimized conformer: 48.19530623339094 kcal/mol)

>  <smiles>  (23) 
CCCCCCCC[n+]1cccc(-c2cccc[n+]2C)c1

>  <score_type>  (23) 
oracle

>  <origin>  (23) 
adg

>  <m_score__min__energy>  (23) 
-3.8900000000000001

>  <m_primary>  (23) 
energy

$$$$
23:0
     RDKit          3D

 37 38  0  0  0  0  0  0  0  0999 V2000
   55.1690   29.7250   43.7480 C   0  0  0  0  0  0  0  0  0  0  0  0
   55.8050   29.0720   44.8420 O   0  0  0  0  0  0  0  0  0  0  0  0
   57.0130   29.4860   45.4280 C   0  0  0  0  0  0  0  0  0  0  0  0
   57.4010   30.8410   45.4500 C   0  0  0  0  0  0  0  0  0  0  0  0
   58.6410   31.2260   45.9890 C   0  0  0  0  0  0  0  0  0  0  0  0
   59.0470   32.6550   46.0050 C   0  0  0  0  0  0  0  0  0  0  0  0
   59.9600   33.1280   46.9660 C   0  0  0  0  0  0  0  0  0  0  0  0
   60.3410   34.4740   46.9790 C   0  0  0  0  0  0  0  0  0  0  0  0
   59.8160   35.3600   46.0350 C   0  0  0  0  0  0  0  0  0  0  0  0
   58.9100   34.9020   45.0760 C   0  0  0  0  0  0  0  0  0  0  0  0
   58.5250   33.5570   45.0590 C   0  0  0  0  0  0  0  0  0  0  0  0
   59.4950   30.2380   46.5040 C   0  0  0  0  0  0  0  0  0  0  0  0
   59.1140   28.8970   46.4930 C   0  0  0  0  0  0  0  0  0  0  0  0
   57.8710   28.5130   45.9820 C   0  0  0  0  0  0  0  0  0  0  0  0
   57.5360   27.1540   46.0040 O   0  0  0  0  0  0  0  0  0  0  0  0
   57.5680   26.3130   44.8850 C   0  0  0  0  0  0  0  0  0  0  0  0
   58.1080   26.6900   43.8090 O   0  0  0  0  0  0  0  0  0  0  0  0
   56.8690   24.9920   44.9390 C   0  0  0  0  0  0  0  0  0  0  0  0
   55.6590   25.0420   45.8770 C   0  0  0  0  0  0  0  0  0  0  0  0
   55.1490   26.4060   45.9950 N   0  0  0  0  0  0  0  0  0  0  0  0
   54.4493   30.4639   44.1302 H   0  0  0  0  0  0  0  0  0  0  0  0
   55.9266   30.2344   43.1344 H   0  0  0  0  0  0  0  0  0  0  0  0
   54.6398   28.9811   43.1344 H   0  0  0  0  0  0  0  0  0  0  0  0
   56.7254   31.6064   45.0405 H   0  0  0  0  0  0  0  0  0  0  0  0
   60.3767   32.4349   47.7116 H   0  0  0  0  0  0  0  0  0  0  0  0
   61.0551   34.8353   47.7337 H   0  0  0  0  0  0  0  0  0  0  0  0
   60.1162   36.4182   46.0471 H   0  0  0  0  0  0  0  0  0  0  0  0
   58.4982   35.6002   44.3324 H   0  0  0  0  0  0  0  0  0  0  0  0
   57.8102   33.2024   44.3019 H   0  0  0  0  0  0  0  0  0  0  0  0
   60.4725   30.5242   46.9195 H   0  0  0  0  0  0  0  0  0  0  0  0
   59.7986   28.1333   46.8905 H   0  0  0  0  0  0  0  0  0  0  0  0
   56.5280   24.7252   43.9278 H   0  0  0  0  0  0  0  0  0  0  0  0
   57.5750   24.2404   45.3219 H   0  0  0  0  0  0  0  0  0  0  0  0
   54.8655   24.3938   45.4766 H   0  0  0  0  0  0  0  0  0  0  0  0
   55.9710   24.6952   46.8732 H   0  0  0  0  0  0  0  0  0  0  0  0
   55.5550   26.8230   46.8640 H   0  0  0  0  0  0  0  0  0  0  0  0
   55.5220   26.9650   45.1940 H   0  0  0  0  0  0  0  0  0  0  0  0
  1  2  1  0
  2  3  1  0
  3  4  2  0
  4  5  1  0
  5  6  1  0
  6  7  2  0
  7  8  1  0
  8  9  2  0
  9 10  1  0
 10 11  2  0
  5 12  2  0
 12 13  1  0
 13 14  2  0
 14 15  1  0
 15 16  1  0
 16 17  2  0
 16 18  1  0
 18 19  1  0
 19 20  1  0
 14  3  1  0
 11  6  1  0
  1 21  1  0
  1 22  1  0
  1 23  1  0
  4 24  1  0
  7 25  1  0
  8 26  1  0
  9 27  1  0
 10 28  1  0
 11 29  1  0
 12 30  1  0
 13 31  1  0
 18 32  1  0
 18 33  1  0
 19 34  1  0
 19 35  1  0
 20 36  1  0
 20 37  1  0
M  END
>  <UniqueID>  (24) 
23

>  <SMILES>  (24) 
COc1cc(-c2ccccc2)ccc1OC(=O)CCN

>  <Energy>  (24) 
43.30624533979041

>  <Genealogy>  (24) 
COc1cc(-c2ccccc2)ccc1OC(=O)CCN (3D coordinates assigned)
COc1cc(-c2ccccc2)ccc1OC(=O)CCN (optimized conformer: 43.30624533979041 kcal/mol)

>  <smiles>  (24) 
COc1cc(-c2ccccc2)ccc1OC(=O)CCN

>  <score_type>  (24) 
oracle

>  <origin>  (24) 
adg

>  <m_score__min__energy>  (24) 
-6.6799999999999997

>  <m_primary>  (24) 
energy

$$$$
24:0
     RDKit          3D

 30 31  0  0  0  0  0  0  0  0999 V2000
   58.3060   30.3350   44.1600 C   0  0  0  0  0  0  0  0  0  0  0  0
   57.1510   30.8950   44.8840 N   0  0  0  0  0  0  0  0  0  0  0  0
   55.9230   30.2060   44.4570 C   0  0  0  0  0  0  0  0  0  0  0  0
   57.0280   32.3460   44.6350 C   0  0  0  0  0  0  0  0  0  0  0  0
   58.1580   33.0890   45.2790 C   0  0  0  0  0  0  0  0  0  0  0  0
   58.3310   34.4550   45.2990 C   0  0  0  0  0  0  0  0  0  0  0  0
   59.4080   34.7080   46.0050 O   0  0  0  0  0  0  0  0  0  0  0  0
   59.8940   33.5560   46.4200 C   0  0  0  0  0  0  0  0  0  0  0  0
   61.1130   33.4420   47.2560 C   0  0  0  0  0  0  0  0  0  0  0  0
   60.9860   33.2990   48.6500 C   0  0  0  0  0  0  0  0  0  0  0  0
   62.1210   33.1890   49.4590 C   0  0  0  0  0  0  0  0  0  0  0  0
   63.3950   33.2190   48.8860 C   0  0  0  0  0  0  0  0  0  0  0  0
   64.9450   33.0680   49.9940 Br  0  0  0  0  0  0  0  0  0  0  0  0
   63.5340   33.3600   47.5030 C   0  0  0  0  0  0  0  0  0  0  0  0
   62.4020   33.4710   46.6910 C   0  0  0  0  0  0  0  0  0  0  0  0
   59.1420   32.5180   45.9930 N   0  0  0  0  0  0  0  0  0  0  0  0
   59.0518   29.9734   44.8832 H   0  0  0  0  0  0  0  0  0  0  0  0
   57.9723   29.4986   43.5282 H   0  0  0  0  0  0  0  0  0  0  0  0
   58.7560   31.1150   43.5282 H   0  0  0  0  0  0  0  0  0  0  0  0
   55.3545   29.8870   45.3431 H   0  0  0  0  0  0  0  0  0  0  0  0
   55.3087   30.8912   43.8544 H   0  0  0  0  0  0  0  0  0  0  0  0
   56.1877   29.3247   43.8544 H   0  0  0  0  0  0  0  0  0  0  0  0
   57.0461   32.5295   43.5506 H   0  0  0  0  0  0  0  0  0  0  0  0
   56.0797   32.7005   45.0651 H   0  0  0  0  0  0  0  0  0  0  0  0
   57.6839   35.1991   44.8116 H   0  0  0  0  0  0  0  0  0  0  0  0
   59.9857   33.2735   49.1070 H   0  0  0  0  0  0  0  0  0  0  0  0
   62.0109   33.0787   50.5479 H   0  0  0  0  0  0  0  0  0  0  0  0
   64.5370   33.3837   47.0521 H   0  0  0  0  0  0  0  0  0  0  0  0
   62.5191   33.5818   45.6029 H   0  0  0  0  0  0  0  0  0  0  0  0
   59.2700   31.4980   46.1740 H   0  0  0  0  0  0  0  0  0  0  0  0
  1  2  1  0
  2  3  1  0
  2  4  1  0
  4  5  1  0
  5  6  2  0
  6  7  1  0
  7  8  1  0
  8  9  1  0
  9 10  2  0
 10 11  1  0
 11 12  2  0
 12 13  1  0
 12 14  1  0
 14 15  2  0
  8 16  2  0
 16  5  1  0
 15  9  1  0
  1 17  1  0
  1 18  1  0
  1 19  1  0
  3 20  1  0
  3 21  1  0
  3 22  1  0
  4 23  1  0
  4 24  1  0
  6 25  1  0
 10 26  1  0
 11 27  1  0
 14 28  1  0
 15 29  1  0
 16 30  1  0
M  CHG  1  16   1
M  END
>  <UniqueID>  (25) 
24

>  <SMILES>  (25) 
CN(C)Cc1coc(-c2ccc(Br)cc2)[nH+]1

>  <Energy>  (25) 
60.78835285439456

>  <Genealogy>  (25) 
CN(C)Cc1coc(-c2ccc(Br)cc2)[nH+]1 (protonated)
CN(C)Cc1coc(-c2ccc(Br)cc2)[nH+]1 (3D coordinates assigned)
CN(C)Cc1coc(-c2ccc(Br)cc2)[nH+]1 (optimized conformer: 60.78835285439456 kcal/mol)

>  <smiles>  (25) 
CN(C)Cc1coc(-c2ccc(Br)cc2)n1

>  <score_type>  (25) 
oracle

>  <origin>  (25) 
adg

>  <m_score__min__energy>  (25) 
-4.4199999999999999

>  <m_primary>  (25) 
energy

$$$$
25:0
     RDKit          3D

 43 45  0  0  0  0  0  0  0  0999 V2000
   58.2900   27.8980   45.8600 C   0  0  0  0  0  0  0  0  0  0  0  0
   58.7530   28.1580   47.1810 O   0  0  0  0  0  0  0  0  0  0  0  0
   59.7030   29.1370   47.5090 C   0  0  0  0  0  0  0  0  0  0  0  0
   60.2020   29.9490   46.4860 C   0  0  0  0  0  0  0  0  0  0  0  0
   61.1500   30.9390   46.7600 C   0  0  0  0  0  0  0  0  0  0  0  0
   61.6100   31.1410   48.0710 C   0  0  0  0  0  0  0  0  0  0  0  0
   62.5880   32.1540   48.3730 N   0  0  0  0  0  0  0  0  0  0  0  0
   63.7930   32.2240   47.8320 N   0  0  0  0  0  0  0  0  0  0  0  0
   64.5070   33.1580   48.4370 N   0  0  0  0  0  0  0  0  0  0  0  0
   63.7820   33.7120   49.3990 N   0  0  0  0  0  0  0  0  0  0  0  0
   62.5870   33.0890   49.3490 C   0  0  0  0  0  0  0  0  0  0  0  0
   61.2620   33.4020   50.5220 S   0  0  0  0  0  0  0  0  0  0  0  0
   60.1880   34.2790   49.3300 C   0  0  0  0  0  0  0  0  0  0  0  0
   59.2460   33.3360   48.6300 C   0  0  0  0  0  0  0  0  0  0  0  0
   58.6790   32.4470   49.3220 O   0  0  0  0  0  0  0  0  0  0  0  0
   58.9590   33.4450   47.2150 N   0  0  0  0  0  0  0  0  0  0  0  0
   58.0260   32.5010   46.5730 C   0  0  0  0  0  0  0  0  0  0  0  0
   57.0440   33.2340   45.6450 C   0  0  0  0  0  0  0  0  0  0  0  0
   57.6750   34.4110   44.8710 C   0  0  0  0  0  0  0  0  0  0  0  0
   59.2040   34.3970   44.9240 C   0  0  0  0  0  0  0  0  0  0  0  0
   59.6820   34.4200   46.3800 C   0  0  0  0  0  0  0  0  0  0  0  0
   61.1150   30.3200   49.0980 C   0  0  0  0  0  0  0  0  0  0  0  0
   60.1680   29.3280   48.8240 C   0  0  0  0  0  0  0  0  0  0  0  0
   57.3317   27.3599   45.9066 H   0  0  0  0  0  0  0  0  0  0  0  0
   58.1505   28.8497   45.3264 H   0  0  0  0  0  0  0  0  0  0  0  0
   59.0300   27.2835   45.3264 H   0  0  0  0  0  0  0  0  0  0  0  0
   59.8450   29.8073   45.4552 H   0  0  0  0  0  0  0  0  0  0  0  0
   61.5384   31.5643   45.9426 H   0  0  0  0  0  0  0  0  0  0  0  0
   64.1430   31.6280   47.0500 H   0  0  0  0  0  0  0  0  0  0  0  0
   59.5993   35.0352   49.8701 H   0  0  0  0  0  0  0  0  0  0  0  0
   60.8306   34.7480   48.5704 H   0  0  0  0  0  0  0  0  0  0  0  0
   58.6018   31.7729   45.9828 H   0  0  0  0  0  0  0  0  0  0  0  0
   57.4486   31.9930   47.3595 H   0  0  0  0  0  0  0  0  0  0  0  0
   56.6513   32.5105   44.9154 H   0  0  0  0  0  0  0  0  0  0  0  0
   56.2563   33.6583   46.2849 H   0  0  0  0  0  0  0  0  0  0  0  0
   57.3583   34.3513   43.8193 H   0  0  0  0  0  0  0  0  0  0  0  0
   57.3335   35.3430   45.3450 H   0  0  0  0  0  0  0  0  0  0  0  0
   59.5765   33.4857   44.4334 H   0  0  0  0  0  0  0  0  0  0  0  0
   59.5899   35.2867   44.4048 H   0  0  0  0  0  0  0  0  0  0  0  0
   60.7555   34.1815   46.4049 H   0  0  0  0  0  0  0  0  0  0  0  0
   59.4873   35.4240   46.7851 H   0  0  0  0  0  0  0  0  0  0  0  0
   61.4759   30.4588   50.1278 H   0  0  0  0  0  0  0  0  0  0  0  0
   59.7854   28.6952   49.6383 H   0  0  0  0  0  0  0  0  0  0  0  0
  1  2  1  0
  2  3  1  0
  3  4  2  0
  4  5  1  0
  5  6  2  0
  6  7  1  0
  7  8  1  0
  8  9  2  0
  9 10  1  0
 10 11  2  0
 11 12  1  0
 12 13  1  0
 13 14  1  0
 14 15  2  0
 14 16  1  0
 16 17  1  0
 17 18  1  0
 18 19  1  0
 19 20  1  0
 20 21  1  0
  6 22  1  0
 22 23  2  0
 23  3  1  0
 11  7  1  0
 21 16  1  0
  1 24  1  0
  1 25  1  0
  1 26  1  0
  4 27  1  0
  5 28  1  0
  8 29  1  0
 13 30  1  0
 13 31  1  0
 17 32  1  0
 17 33  1  0
 18 34  1  0
 18 35  1  0
 19 36  1  0
 19 37  1  0
 20 38  1  0
 20 39  1  0
 21 40  1  0
 21 41  1  0
 22 42  1  0
 23 43  1  0
M  CHG  1   8   1
M  END
>  <UniqueID>  (26) 
25

>  <SMILES>  (26) 
COc1ccc(-n2[nH+]nnc2SCC(=O)N2CCCCC2)cc1

>  <Energy>  (26) 
85.89262041545524

>  <Genealogy>  (26) 
COc1ccc(-n2[nH+]nnc2SCC(=O)N2CCCCC2)cc1 (protonated)
COc1ccc(-n2[nH+]nnc2SCC(=O)N2CCCCC2)cc1 (3D coordinates assigned)
COc1ccc(-n2[nH+]nnc2SCC(=O)N2CCCCC2)cc1 (nonaromatic ring conformer: 85.89262041545524 kcal/mol)

>  <smiles>  (26) 
COc1ccc(-n2nnnc2SCC(=O)N2CCCCC2)cc1

>  <score_type>  (26) 
oracle

>  <origin>  (26) 
adg

>  <m_score__min__energy>  (26) 
-6.4100000000000001

>  <m_primary>  (26) 
energy

$$$$
26:0
     RDKit          3D

 61 64  0  0  0  0  0  0  0  0999 V2000
   53.8070   23.6820   45.7710 C   0  0  0  0  0  0  0  0  0  0  0  0
   55.2250   24.0590   45.6420 N   0  0  0  0  0  0  0  0  0  0  0  0
   55.5880   25.3820   45.7580 C   0  0  0  0  0  0  0  0  0  0  0  0
   54.7290   26.2740   45.9910 O   0  0  0  0  0  0  0  0  0  0  0  0
   56.9320   25.7120   45.6390 C   0  0  0  0  0  0  0  0  0  0  0  0
   57.6210   26.9120   45.7270 C   0  0  0  0  0  0  0  0  0  0  0  0
   57.0780   28.2660   45.9250 C   0  0  0  0  0  0  0  0  0  0  0  0
   57.6650   29.0530   46.7120 O   0  0  0  0  0  0  0  0  0  0  0  0
   55.8970   28.7120   45.2490 N   0  0  0  0  0  0  0  0  0  0  0  0
   55.8950   29.3490   43.9350 C   0  0  0  0  0  0  0  0  0  0  0  0
   56.1440   30.8510   44.0730 C   0  0  0  0  0  0  0  0  0  0  0  0
   57.5020   31.2730   43.4880 C   0  0  0  0  0  0  0  0  0  0  0  0
   57.7690   32.7730   43.6950 C   0  0  0  0  0  0  0  0  0  0  0  0
   58.6560   33.0150   44.8530 N   0  0  0  0  0  0  0  0  0  0  0  0
   58.0490   32.5230   46.1020 C   0  0  0  0  0  0  0  0  0  0  0  0
   59.1350   32.4550   47.1800 C   0  0  0  0  0  0  0  0  0  0  0  0
   60.0270   33.6160   47.0810 N   0  0  0  0  0  0  0  0  0  0  0  0
   61.3450   33.5540   47.6450 C   0  0  0  0  0  0  0  0  0  0  0  0
   62.4480   33.3850   46.7950 C   0  0  0  0  0  0  0  0  0  0  0  0
   63.7410   33.3430   47.3190 C   0  0  0  0  0  0  0  0  0  0  0  0
   63.9430   33.4710   48.6940 C   0  0  0  0  0  0  0  0  0  0  0  0
   62.8530   33.6380   49.5550 C   0  0  0  0  0  0  0  0  0  0  0  0
   63.1530   33.7880   51.2810 Cl  0  0  0  0  0  0  0  0  0  0  0  0
   61.5460   33.6810   49.0340 C   0  0  0  0  0  0  0  0  0  0  0  0
   60.1640   33.8600   50.1140 Cl  0  0  0  0  0  0  0  0  0  0  0  0
   59.5870   34.8150   46.3620 C   0  0  0  0  0  0  0  0  0  0  0  0
   59.0410   34.4450   44.9660 C   0  0  0  0  0  0  0  0  0  0  0  0
   58.9680   26.5780   45.6480 C   0  0  0  0  0  0  0  0  0  0  0  0
   59.1130   25.2440   45.4880 N   0  0  0  0  0  0  0  0  0  0  0  0
   57.8650   24.7330   45.4820 C   0  0  0  0  0  0  0  0  0  0  0  0
   57.5260   23.4160   45.3920 N   0  0  0  0  0  0  0  0  0  0  0  0
   58.5750   22.3950   45.2440 C   0  0  0  0  0  0  0  0  0  0  0  0
   56.1910   23.0810   45.4880 C   0  0  0  0  0  0  0  0  0  0  0  0
   55.8470   21.8660   45.4450 O   0  0  0  0  0  0  0  0  0  0  0  0
   53.5418   23.6115   46.8362 H   0  0  0  0  0  0  0  0  0  0  0  0
   53.1793   24.4445   45.2866 H   0  0  0  0  0  0  0  0  0  0  0  0
   53.6409   22.7085   45.2866 H   0  0  0  0  0  0  0  0  0  0  0  0
   56.6881   28.9051   43.3154 H   0  0  0  0  0  0  0  0  0  0  0  0
   54.9144   29.1909   43.4622 H   0  0  0  0  0  0  0  0  0  0  0  0
   55.3466   31.3921   43.5425 H   0  0  0  0  0  0  0  0  0  0  0  0
   56.1492   31.0943   45.1457 H   0  0  0  0  0  0  0  0  0  0  0  0
   58.2979   30.6976   43.9834 H   0  0  0  0  0  0  0  0  0  0  0  0
   57.4863   31.0736   42.4063 H   0  0  0  0  0  0  0  0  0  0  0  0
   58.2451   33.1787   42.7902 H   0  0  0  0  0  0  0  0  0  0  0  0
   56.8069   33.2693   43.8899 H   0  0  0  0  0  0  0  0  0  0  0  0
   57.2517   33.2099   46.4221 H   0  0  0  0  0  0  0  0  0  0  0  0
   57.6162   31.5246   45.9414 H   0  0  0  0  0  0  0  0  0  0  0  0
   58.6606   32.4459   48.1724 H   0  0  0  0  0  0  0  0  0  0  0  0
   59.7251   31.5381   47.0349 H   0  0  0  0  0  0  0  0  0  0  0  0
   62.2932   33.2851   45.7105 H   0  0  0  0  0  0  0  0  0  0  0  0
   64.6018   33.2089   46.6474 H   0  0  0  0  0  0  0  0  0  0  0  0
   64.9638   33.4404   49.1026 H   0  0  0  0  0  0  0  0  0  0  0  0
   58.7937   35.3118   46.9399 H   0  0  0  0  0  0  0  0  0  0  0  0
   60.4478   35.4885   46.2378 H   0  0  0  0  0  0  0  0  0  0  0  0
   58.1549   35.0637   44.7611 H   0  0  0  0  0  0  0  0  0  0  0  0
   59.8464   34.6270   44.2392 H   0  0  0  0  0  0  0  0  0  0  0  0
   59.7980   27.2974   45.7073 H   0  0  0  0  0  0  0  0  0  0  0  0
   60.0170   24.7290   45.4090 H   0  0  0  0  0  0  0  0  0  0  0  0
   58.9112   22.0678   46.2389 H   0  0  0  0  0  0  0  0  0  0  0  0
   58.1726   21.5333   44.6912 H   0  0  0  0  0  0  0  0  0  0  0  0
   59.4255   22.8206   44.6912 H   0  0  0  0  0  0  0  0  0  0  0  0
  1  2  1  0
  2  3  1  0
  3  4  2  0
  3  5  1  0
  5  6  1  0
  6  7  1  0
  7  8  2  0
  7  9  1  0
  9 10  1  0
 10 11  1  0
 11 12  1  0
 12 13  1  0
 13 14  1  0
 14 15  1  0
 15 16  1  0
 16 17  1  0
 17 18  1  0
 18 19  2  0
 19 20  1  0
 20 21  2  0
 21 22  1  0
 22 23  1  0
 22 24  2  0
 24 25  1  0
 17 26  1  0
 26 27  1  0
  6 28  2  0
 28 29  1  0
 29 30  1  0
 30 31  1  0
 31 32  1  0
 31 33  1  0
 33 34  2  0
 33  2  1  0
 30  5  2  0
 27 14  1  0
 24 18  1  0
  1 35  1  0
  1 36  1  0
  1 37  1  0
 10 38  1  0
 10 39  1  0
 11 40  1  0
 11 41  1  0
 12 42  1  0
 12 43  1  0
 13 44  1  0
 13 45  1  0
 15 46  1  0
 15 47  1  0
 16 48  1  0
 16 49  1  0
 19 50  1  0
 20 51  1  0
 21 52  1  0
 26 53  1  0
 26 54  1  0
 27 55  1  0
 27 56  1  0
 28 57  1  0
 29 58  1  0
 32 59  1  0
 32 60  1  0
 32 61  1  0
M  CHG  1   9  -1
M  END
>  <UniqueID>  (27) 
26

>  <SMILES>  (27) 
Cn1c(=O)c2c(C(=O)[N-]CCCCN3CCN(c4cccc(Cl)c4Cl)CC3)c[nH]c2n(C)c1=O

>  <Energy>  (27) 
116.66345654370514

>  <Genealogy>  (27) 
Cn1c(=O)c2c(C(=O)[N-]CCCCN3CCN(c4cccc(Cl)c4Cl)CC3)c[nH]c2n(C)c1=O (protonated)
Cn1c(=O)c2c(C(=O)[N-]CCCCN3CCN(c4cccc(Cl)c4Cl)CC3)c[nH]c2n(C)c1=O (3D coordinates assigned)
Cn1c(=O)c2c(C(=O)[N-]CCCCN3CCN(c4cccc(Cl)c4Cl)CC3)c[nH]c2n(C)c1=O (nonaromatic ring conformer: 116.66345654370514 kcal/mol)

>  <smiles>  (27) 
Cn1c(=O)c2c(C(=O)NCCCCN3CCN(c4cccc(Cl)c4Cl)CC3)c[nH]c2n(C)c1=O

>  <score_type>  (27) 
oracle

>  <origin>  (27) 
adg

>  <m_score__min__energy>  (27) 
-11.91

>  <m_primary>  (27) 
energy

$$$$
27:0
     RDKit          3D

 61 65  0  0  0  0  0  0  0  0999 V2000
   66.8480   32.7870   50.6820 C   0  0  0  0  0  0  0  0  0  0  0  0
   65.6230   33.4570   50.9570 O   0  0  0  0  0  0  0  0  0  0  0  0
   64.4940   33.4160   50.1250 C   0  0  0  0  0  0  0  0  0  0  0  0
   63.3890   34.2070   50.4620 C   0  0  0  0  0  0  0  0  0  0  0  0
   62.2440   34.2050   49.6630 C   0  0  0  0  0  0  0  0  0  0  0  0
   62.1910   33.4160   48.5030 C   0  0  0  0  0  0  0  0  0  0  0  0
   60.9770   33.4120   47.6650 C   0  0  0  0  0  0  0  0  0  0  0  0
   60.3740   34.7920   46.8990 S   0  0  0  0  0  0  0  0  0  0  0  0
   59.0750   34.0170   46.1810 C   0  0  0  0  0  0  0  0  0  0  0  0
   58.0950   34.5750   45.3650 C   0  0  0  0  0  0  0  0  0  0  0  0
   57.0830   33.7400   44.8750 C   0  0  0  0  0  0  0  0  0  0  0  0
   57.0680   32.3730   45.2090 C   0  0  0  0  0  0  0  0  0  0  0  0
   58.0670   31.8310   46.0340 C   0  0  0  0  0  0  0  0  0  0  0  0
   59.0800   32.6710   46.5240 C   0  0  0  0  0  0  0  0  0  0  0  0
   60.1530   32.3100   47.3690 C   0  0  0  0  0  0  0  0  0  0  0  0
   60.3020   30.9430   47.9990 C   0  0  0  0  0  0  0  0  0  0  0  0
   59.8060   30.9560   49.4230 C   0  0  0  0  0  0  0  0  0  0  0  0
   59.3890   29.7740   50.0430 C   0  0  0  0  0  0  0  0  0  0  0  0
   58.9030   29.7960   51.3490 C   0  0  0  0  0  0  0  0  0  0  0  0
   58.8260   31.0000   52.0720 C   0  0  0  0  0  0  0  0  0  0  0  0
   58.3000   30.9430   53.4930 C   0  0  0  0  0  0  0  0  0  0  0  0
   56.9170   31.4690   53.5770 N   0  0  0  0  0  0  0  0  0  0  0  0
   56.0330   30.6380   54.4220 C   0  0  0  0  0  0  0  0  0  0  0  0
   55.6760   29.2950   53.7430 C   0  0  0  0  0  0  0  0  0  0  0  0
   55.9570   29.2820   52.3530 O   0  0  0  0  0  0  0  0  0  0  0  0
   55.4920   30.4710   51.7550 C   0  0  0  0  0  0  0  0  0  0  0  0
   56.3130   31.6830   52.2400 C   0  0  0  0  0  0  0  0  0  0  0  0
   59.2610   32.2090   51.4600 C   0  0  0  0  0  0  0  0  0  0  0  0
   59.1640   33.5500   52.1680 C   0  0  0  0  0  0  0  0  0  0  0  0
   59.3420   34.5840   51.2690 F   0  0  0  0  0  0  0  0  0  0  0  0
   57.9300   33.7270   52.7710 F   0  0  0  0  0  0  0  0  0  0  0  0
   60.1330   33.6260   53.1520 F   0  0  0  0  0  0  0  0  0  0  0  0
   59.7440   32.1620   50.1360 C   0  0  0  0  0  0  0  0  0  0  0  0
   63.2880   32.6050   48.1720 C   0  0  0  0  0  0  0  0  0  0  0  0
   63.2630   31.8360   47.0530 F   0  0  0  0  0  0  0  0  0  0  0  0
   64.4350   32.6110   48.9710 C   0  0  0  0  0  0  0  0  0  0  0  0
   67.3395   32.5182   51.6287 H   0  0  0  0  0  0  0  0  0  0  0  0
   66.6447   31.8745   50.1024 H   0  0  0  0  0  0  0  0  0  0  0  0
   67.5067   33.4504   50.1024 H   0  0  0  0  0  0  0  0  0  0  0  0
   63.4232   34.8355   51.3641 H   0  0  0  0  0  0  0  0  0  0  0  0
   61.3795   34.8245   49.9437 H   0  0  0  0  0  0  0  0  0  0  0  0
   58.1149   35.6452   45.1113 H   0  0  0  0  0  0  0  0  0  0  0  0
   56.2969   34.1543   44.2266 H   0  0  0  0  0  0  0  0  0  0  0  0
   56.2684   31.7246   44.8213 H   0  0  0  0  0  0  0  0  0  0  0  0
   58.0561   30.7620   46.2931 H   0  0  0  0  0  0  0  0  0  0  0  0
   59.7179   30.2127   47.4197 H   0  0  0  0  0  0  0  0  0  0  0  0
   61.3668   30.6669   47.9977 H   0  0  0  0  0  0  0  0  0  0  0  0
   59.4449   28.8210   49.4965 H   0  0  0  0  0  0  0  0  0  0  0  0
   58.5749   28.8582   51.8212 H   0  0  0  0  0  0  0  0  0  0  0  0
   58.3073   29.8979   53.8361 H   0  0  0  0  0  0  0  0  0  0  0  0
   58.9473   31.5657   54.1280 H   0  0  0  0  0  0  0  0  0  0  0  0
   56.5444   30.4299   55.3734 H   0  0  0  0  0  0  0  0  0  0  0  0
   55.0984   31.1946   54.5856 H   0  0  0  0  0  0  0  0  0  0  0  0
   56.2560   28.4941   54.2249 H   0  0  0  0  0  0  0  0  0  0  0  0
   54.5924   29.1465   53.8598 H   0  0  0  0  0  0  0  0  0  0  0  0
   55.5851   30.3859   50.6623 H   0  0  0  0  0  0  0  0  0  0  0  0
   54.4397   30.6209   52.0381 H   0  0  0  0  0  0  0  0  0  0  0  0
   57.1193   31.8738   51.5164 H   0  0  0  0  0  0  0  0  0  0  0  0
   55.6259   32.5383   52.3197 H   0  0  0  0  0  0  0  0  0  0  0  0
   60.0793   33.0912   49.6521 H   0  0  0  0  0  0  0  0  0  0  0  0
   65.2960   31.9837   48.6969 H   0  0  0  0  0  0  0  0  0  0  0  0
  1  2  1  0
  2  3  1  0
  3  4  2  0
  4  5  1  0
  5  6  2  0
  6  7  1  0
  7  8  1  0
  8  9  1  0
  9 10  2  0
 10 11  1  0
 11 12  2  0
 12 13  1  0
 13 14  2  0
 14 15  1  0
 15 16  1  0
 16 17  1  0
 17 18  2  0
 18 19  1  0
 19 20  2  0
 20 21  1  0
 21 22  1  0
 22 23  1  0
 23 24  1  0
 24 25  1  0
 25 26  1  0
 26 27  1  0
 20 28  1  0
 28 29  1  0
 29 30  1  0
 29 31  1  0
 29 32  1  0
 28 33  2  0
  6 34  1  0
 34 35  1  0
 34 36  2  0
 36  3  1  0
 15  7  2  0
 33 17  1  0
 14  9  1  0
 27 22  1  0
  1 37  1  0
  1 38  1  0
  1 39  1  0
  4 40  1  0
  5 41  1  0
 10 42  1  0
 11 43  1  0
 12 44  1  0
 13 45  1  0
 16 46  1  0
 16 47  1  0
 18 48  1  0
 19 49  1  0
 21 50  1  0
 21 51  1  0
 23 52  1  0
 23 53  1  0
 24 54  1  0
 24 55  1  0
 26 56  1  0
 26 57  1  0
 27 58  1  0
 27 59  1  0
 33 60  1  0
 36 61  1  0
M  END
>  <UniqueID>  (28) 
27

>  <SMILES>  (28) 
COc1ccc(-c2sc3ccccc3c2Cc2ccc(CN3CCOCC3)c(C(F)(F)F)c2)c(F)c1

>  <Energy>  (28) 
116.93293273090357

>  <Genealogy>  (28) 
COc1ccc(-c2sc3ccccc3c2Cc2ccc(CN3CCOCC3)c(C(F)(F)F)c2)c(F)c1 (3D coordinates assigned)
COc1ccc(-c2sc3ccccc3c2Cc2ccc(CN3CCOCC3)c(C(F)(F)F)c2)c(F)c1 (nonaromatic ring conformer: 116.93293273090357 kcal/mol)

>  <smiles>  (28) 
COc1ccc(-c2sc3ccccc3c2Cc2ccc(CN3CCOCC3)c(C(F)(F)F)c2)c(F)c1

>  <score_type>  (28) 
oracle

>  <origin>  (28) 
adg

>  <m_score__min__energy>  (28) 
-8.9000000000000004

>  <m_primary>  (28) 
energy

$$$$
28:0
     RDKit          3D

 51 52  0  0  0  0  0  0  0  0999 V2000
   63.6570   34.3350   50.9800 C   0  0  0  0  0  0  0  0  0  0  0  0
   63.0090   34.0120   49.6370 C   0  0  0  0  0  0  0  0  0  0  0  0
   63.8600   33.0940   48.8470 N   0  0  0  0  0  0  0  0  0  0  0  0
   63.3480   32.6880   47.5130 C   0  0  0  0  0  0  0  0  0  0  0  0
   63.0170   33.8440   46.5560 C   0  0  0  0  0  0  0  0  0  0  0  0
   64.4670   32.0000   49.6400 C   0  0  0  0  0  0  0  0  0  0  0  0
   63.4320   31.1890   50.4480 C   0  0  0  0  0  0  0  0  0  0  0  0
   62.0630   31.3340   49.9160 N   0  0  0  0  0  0  0  0  0  0  0  0
   61.3560   30.0430   49.7520 C   0  0  0  0  0  0  0  0  0  0  0  0
   59.8370   30.2040   49.5280 C   0  0  0  0  0  0  0  0  0  0  0  0
   59.5230   30.8820   48.2150 C   0  0  0  0  0  0  0  0  0  0  0  0
   58.8970   30.1410   47.2050 C   0  0  0  0  0  0  0  0  0  0  0  0
   58.4520   30.7520   46.0310 C   0  0  0  0  0  0  0  0  0  0  0  0
   57.5680   29.6350   44.7410 Br  0  0  0  0  0  0  0  0  0  0  0  0
   58.6220   32.1400   45.8530 C   0  0  0  0  0  0  0  0  0  0  0  0
   58.1510   32.7960   44.6980 C   0  0  0  0  0  0  0  0  0  0  0  0
   58.3090   34.1740   44.5500 C   0  0  0  0  0  0  0  0  0  0  0  0
   58.9370   34.9200   45.5450 C   0  0  0  0  0  0  0  0  0  0  0  0
   59.4140   34.2920   46.6960 C   0  0  0  0  0  0  0  0  0  0  0  0
   59.2700   32.9010   46.8640 C   0  0  0  0  0  0  0  0  0  0  0  0
   59.7350   32.2630   48.0340 C   0  0  0  0  0  0  0  0  0  0  0  0
   60.3740   33.0050   49.0330 O   0  0  0  0  0  0  0  0  0  0  0  0
   59.6330   33.8000   49.9500 C   0  0  0  0  0  0  0  0  0  0  0  0
   62.9957   34.0054   51.7949 H   0  0  0  0  0  0  0  0  0  0  0  0
   64.6219   33.8124   51.0567 H   0  0  0  0  0  0  0  0  0  0  0  0
   63.8206   35.4201   51.0567 H   0  0  0  0  0  0  0  0  0  0  0  0
   62.0330   33.5362   49.8132 H   0  0  0  0  0  0  0  0  0  0  0  0
   62.8839   34.9481   49.0730 H   0  0  0  0  0  0  0  0  0  0  0  0
   64.1116   32.0580   47.0334 H   0  0  0  0  0  0  0  0  0  0  0  0
   62.3979   32.1655   47.6984 H   0  0  0  0  0  0  0  0  0  0  0  0
   62.7602   34.7407   47.1391 H   0  0  0  0  0  0  0  0  0  0  0  0
   63.8904   34.0566   45.9219 H   0  0  0  0  0  0  0  0  0  0  0  0
   62.1635   33.5621   45.9219 H   0  0  0  0  0  0  0  0  0  0  0  0
   64.9871   31.3168   48.9525 H   0  0  0  0  0  0  0  0  0  0  0  0
   65.1559   32.4627   50.3620 H   0  0  0  0  0  0  0  0  0  0  0  0
   63.7128   30.1260   50.4152 H   0  0  0  0  0  0  0  0  0  0  0  0
   63.4339   31.5752   51.4780 H   0  0  0  0  0  0  0  0  0  0  0  0
   62.1080   31.8190   48.9890 H   0  0  0  0  0  0  0  0  0  0  0  0
   61.5190   31.9620   50.5540 H   0  0  0  0  0  0  0  0  0  0  0  0
   61.7833   29.5184   48.8847 H   0  0  0  0  0  0  0  0  0  0  0  0
   61.4899   29.4768   50.6855 H   0  0  0  0  0  0  0  0  0  0  0  0
   59.3706   29.2078   49.5328 H   0  0  0  0  0  0  0  0  0  0  0  0
   59.4411   30.8351   50.3373 H   0  0  0  0  0  0  0  0  0  0  0  0
   58.7533   29.0587   47.3389 H   0  0  0  0  0  0  0  0  0  0  0  0
   57.6543   32.2161   43.9061 H   0  0  0  0  0  0  0  0  0  0  0  0
   57.9362   34.6738   43.6438 H   0  0  0  0  0  0  0  0  0  0  0  0
   59.0571   36.0066   45.4229 H   0  0  0  0  0  0  0  0  0  0  0  0
   59.9065   34.8880   47.4785 H   0  0  0  0  0  0  0  0  0  0  0  0
   59.8979   33.5158   50.9791 H   0  0  0  0  0  0  0  0  0  0  0  0
   59.8709   34.8620   49.7901 H   0  0  0  0  0  0  0  0  0  0  0  0
   58.5569   33.6372   49.7901 H   0  0  0  0  0  0  0  0  0  0  0  0
  1  2  1  0
  2  3  1  0
  3  4  1  0
  4  5  1  0
  3  6  1  0
  6  7  1  0
  7  8  1  0
  8  9  1  0
  9 10  1  0
 10 11  1  0
 11 12  2  0
 12 13  1  0
 13 14  1  0
 13 15  2  0
 15 16  1  0
 16 17  2  0
 17 18  1  0
 18 19  2  0
 19 20  1  0
 20 21  2  0
 21 22  1  0
 22 23  1  0
 21 11  1  0
 20 15  1  0
  1 24  1  0
  1 25  1  0
  1 26  1  0
  2 27  1  0
  2 28  1  0
  4 29  1  0
  4 30  1  0
  5 31  1  0
  5 32  1  0
  5 33  1  0
  6 34  1  0
  6 35  1  0
  7 36  1  0
  7 37  1  0
  8 38  1  0
  8 39  1  0
  9 40  1  0
  9 41  1  0
 10 42  1  0
 10 43  1  0
 12 44  1  0
 16 45  1  0
 17 46  1  0
 18 47  1  0
 19 48  1  0
 23 49  1  0
 23 50  1  0
 23 51  1  0
M  CHG  1   8   1
M  END
>  <UniqueID>  (29) 
28

>  <SMILES>  (29) 
CCN(CC)CC[NH2+]CCc1cc(Br)c2ccccc2c1OC

>  <Energy>  (29) 
64.82109061892085

>  <Genealogy>  (29) 
CCN(CC)CC[NH2+]CCc1cc(Br)c2ccccc2c1OC (protonated)
CCN(CC)CC[NH2+]CCc1cc(Br)c2ccccc2c1OC (3D coordinates assigned)
CCN(CC)CC[NH2+]CCc1cc(Br)c2ccccc2c1OC (optimized conformer: 64.82109061892085 kcal/mol)

>  <smiles>  (29) 
CCN(CC)CCNCCc1cc(Br)c2ccccc2c1OC

>  <score_type>  (29) 
oracle

>  <origin>  (29) 
adg

>  <m_score__min__energy>  (29) 
-4.46

>  <m_primary>  (29) 
energy

$$$$
29:0
     RDKit          3D

 56 58  0  0  0  0  0  0  0  0999 V2000
   62.8760   33.4530   48.1980 C   0  0  0  0  0  0  0  0  0  0  0  0
   61.8610   33.4900   49.3480 C   0  0  0  0  0  0  0  0  0  0  0  0
   60.4600   33.2350   48.9380 N   0  0  0  0  0  0  0  0  0  0  0  0
   59.7330   32.2590   49.7900 C   0  0  0  0  0  0  0  0  0  0  0  0
   59.5670   30.8880   49.1610 C   0  0  0  0  0  0  0  0  0  0  0  0
   58.6870   30.1470   49.5820 O   0  0  0  0  0  0  0  0  0  0  0  0
   60.3640   30.4970   48.0040 N   0  0  1  0  0  0  0  0  0  0  0  0
   60.9240   29.1340   48.1240 C   0  0  0  0  0  0  0  0  0  0  0  0
   59.8510   28.0320   48.1040 C   0  0  0  0  0  0  0  0  0  0  0  0
   58.7350   28.3080   47.1300 C   0  0  0  0  0  0  0  0  0  0  0  0
   57.7590   27.3240   46.9190 C   0  0  0  0  0  0  0  0  0  0  0  0
   56.6730   27.5590   46.0580 C   0  0  0  0  0  0  0  0  0  0  0  0
   55.6730   26.6000   45.8330 O   0  0  0  0  0  0  0  0  0  0  0  0
   55.9150   25.2080   45.6530 C   0  0  0  0  0  0  0  0  0  0  0  0
   56.5790   28.7860   45.3850 C   0  0  0  0  0  0  0  0  0  0  0  0
   55.4920   28.9950   44.5250 O   0  0  0  0  0  0  0  0  0  0  0  0
   55.5630   29.7540   43.3220 C   0  0  0  0  0  0  0  0  0  0  0  0
   57.5470   29.7810   45.6050 C   0  0  0  0  0  0  0  0  0  0  0  0
   58.5980   29.5650   46.5070 C   0  0  0  0  0  0  0  0  0  0  0  0
   59.6120   30.6620   46.7390 C   0  0  0  0  0  0  0  0  0  0  0  0
   59.6960   34.4260   48.5050 C   0  0  0  0  0  0  0  0  0  0  0  0
   59.0020   34.1910   47.1870 C   0  0  0  0  0  0  0  0  0  0  0  0
   59.5420   34.7070   45.9950 C   0  0  0  0  0  0  0  0  0  0  0  0
   58.8880   34.4980   44.7770 C   0  0  0  0  0  0  0  0  0  0  0  0
   57.6890   33.7770   44.7420 C   0  0  0  0  0  0  0  0  0  0  0  0
   57.1450   33.2650   45.9230 C   0  0  0  0  0  0  0  0  0  0  0  0
   57.8010   33.4650   47.1430 C   0  0  0  0  0  0  0  0  0  0  0  0
   63.8954   33.4158   48.6097 H   0  0  0  0  0  0  0  0  0  0  0  0
   62.6974   32.5608   47.5799 H   0  0  0  0  0  0  0  0  0  0  0  0
   62.7629   34.3559   47.5799 H   0  0  0  0  0  0  0  0  0  0  0  0
   62.1482   32.7254   50.0848 H   0  0  0  0  0  0  0  0  0  0  0  0
   61.8871   34.5111   49.7563 H   0  0  0  0  0  0  0  0  0  0  0  0
   60.2891   32.1416   50.7318 H   0  0  0  0  0  0  0  0  0  0  0  0
   58.7209   32.6627   49.9407 H   0  0  0  0  0  0  0  0  0  0  0  0
   61.1850   31.1460   47.9410 H   0  0  0  0  0  0  0  0  0  0  0  0
   61.6141   28.9648   47.2843 H   0  0  0  0  0  0  0  0  0  0  0  0
   61.4335   29.0754   49.0971 H   0  0  0  0  0  0  0  0  0  0  0  0
   60.3307   27.0819   47.8260 H   0  0  0  0  0  0  0  0  0  0  0  0
   59.4054   27.9913   49.1089 H   0  0  0  0  0  0  0  0  0  0  0  0
   57.8441   26.3556   47.4338 H   0  0  0  0  0  0  0  0  0  0  0  0
   55.9997   24.7205   46.6354 H   0  0  0  0  0  0  0  0  0  0  0  0
   55.0812   24.7604   45.0923 H   0  0  0  0  0  0  0  0  0  0  0  0
   56.8509   25.0680   45.0923 H   0  0  0  0  0  0  0  0  0  0  0  0
   55.6629   30.8216   43.5674 H   0  0  0  0  0  0  0  0  0  0  0  0
   56.4347   29.4297   42.7347 H   0  0  0  0  0  0  0  0  0  0  0  0
   54.6462   29.5970   42.7347 H   0  0  0  0  0  0  0  0  0  0  0  0
   57.4793   30.7369   45.0650 H   0  0  0  0  0  0  0  0  0  0  0  0
   60.3273   30.6606   45.9033 H   0  0  0  0  0  0  0  0  0  0  0  0
   59.0602   31.6113   46.8057 H   0  0  0  0  0  0  0  0  0  0  0  0
   58.9408   34.6629   49.2689 H   0  0  0  0  0  0  0  0  0  0  0  0
   60.4017   35.2603   48.3785 H   0  0  0  0  0  0  0  0  0  0  0  0
   60.4824   35.2771   46.0212 H   0  0  0  0  0  0  0  0  0  0  0  0
   59.3157   34.9001   43.8467 H   0  0  0  0  0  0  0  0  0  0  0  0
   57.1742   33.6131   43.7838 H   0  0  0  0  0  0  0  0  0  0  0  0
   56.1994   32.7037   45.8937 H   0  0  0  0  0  0  0  0  0  0  0  0
   57.3748   33.0525   48.0694 H   0  0  0  0  0  0  0  0  0  0  0  0
  1  2  1  0
  2  3  1  0
  3  4  1  0
  4  5  1  0
  5  6  2  0
  5  7  1  0
  7  8  1  0
  8  9  1  0
  9 10  1  0
 10 11  2  0
 11 12  1  0
 12 13  1  0
 13 14  1  0
 12 15  2  0
 15 16  1  0
 16 17  1  0
 15 18  1  0
 18 19  2  0
 19 20  1  0
  3 21  1  0
 21 22  1  0
 22 23  2  0
 23 24  1  0
 24 25  2  0
 25 26  1  0
 26 27  2  0
 20  7  1  0
 27 22  1  0
 19 10  1  0
  1 28  1  0
  1 29  1  0
  1 30  1  0
  2 31  1  0
  2 32  1  0
  4 33  1  0
  4 34  1  0
  7 35  1  6
  8 36  1  0
  8 37  1  0
  9 38  1  0
  9 39  1  0
 11 40  1  0
 14 41  1  0
 14 42  1  0
 14 43  1  0
 17 44  1  0
 17 45  1  0
 17 46  1  0
 18 47  1  0
 20 48  1  0
 20 49  1  0
 21 50  1  0
 21 51  1  0
 23 52  1  0
 24 53  1  0
 25 54  1  0
 26 55  1  0
 27 56  1  0
M  CHG  1   7   1
M  END
>  <UniqueID>  (30) 
29

>  <SMILES>  (30) 
CCN(CC(=O)[N@H+]1CCc2cc(OC)c(OC)cc2C1)Cc1ccccc1

>  <Energy>  (30) 
71.23952819045448

>  <Genealogy>  (30) 
CCN(CC(=O)[NH+]1CCc2cc(OC)c(OC)cc2C1)Cc1ccccc1 (protonated)
CCN(CC(=O)[N@H+]1CCc2cc(OC)c(OC)cc2C1)Cc1ccccc1 (chirality)
CCN(CC(=O)[N@H+]1CCc2cc(OC)c(OC)cc2C1)Cc1ccccc1 (3D coordinates assigned)
CCN(CC(=O)[N@H+]1CCc2cc(OC)c(OC)cc2C1)Cc1ccccc1 (nonaromatic ring conformer: 71.23952819045448 kcal/mol)

>  <smiles>  (30) 
CCN(CC(=O)N1CCc2cc(OC)c(OC)cc2C1)Cc1ccccc1

>  <score_type>  (30) 
oracle

>  <origin>  (30) 
adg

>  <m_score__min__energy>  (30) 
-6.9000000000000004

>  <m_primary>  (30) 
energy

$$$$
30:0
     RDKit          3D

 55 57  0  0  0  0  0  0  0  0999 V2000
   55.9720   28.8510   45.2460 F   0  0  0  0  0  0  0  0  0  0  0  0
   57.0740   28.0160   45.2380 C   0  0  0  0  0  0  0  0  0  0  0  0
   56.7340   26.7990   45.7980 F   0  0  0  0  0  0  0  0  0  0  0  0
   57.4260   27.7850   43.9180 F   0  0  0  0  0  0  0  0  0  0  0  0
   58.2080   28.6600   46.0190 C   0  0  0  0  0  0  0  0  0  0  0  0
   58.7850   27.9640   47.1010 C   0  0  0  0  0  0  0  0  0  0  0  0
   59.8490   28.5100   47.8190 C   0  0  0  0  0  0  0  0  0  0  0  0
   60.3650   29.7530   47.4710 C   0  0  0  0  0  0  0  0  0  0  0  0
   59.8200   30.4580   46.4000 C   0  0  0  0  0  0  0  0  0  0  0  0
   58.7450   29.9300   45.6600 C   0  0  0  0  0  0  0  0  0  0  0  0
   58.1910   30.7620   44.5210 C   0  0  0  0  0  0  0  0  0  0  0  0
   56.8980   31.3570   44.8850 N   0  0  0  0  0  0  0  0  0  0  0  0
   56.9920   32.8150   45.0490 C   0  0  0  0  0  0  0  0  0  0  0  0
   58.3260   33.1880   45.7220 C   0  0  2  0  0  0  0  0  0  0  0  0
   58.1520   33.3020   47.2430 C   0  0  0  0  0  0  0  0  0  0  0  0
   59.4980   33.6110   47.9340 C   0  0  0  0  0  0  0  0  0  0  0  0
   60.3830   34.5480   47.1770 N   0  0  1  0  0  0  0  0  0  0  0  0
   61.5360   33.8520   46.5420 C   0  0  0  0  0  0  0  0  0  0  0  0
   62.7870   33.8230   47.4550 C   0  0  0  0  0  0  0  0  0  0  0  0
   63.4510   32.4480   47.5320 C   0  0  0  0  0  0  0  0  0  0  0  0
   64.0950   32.3650   48.9130 C   0  0  0  0  0  0  0  0  0  0  0  0
   63.5360   33.5240   49.7370 C   0  0  0  0  0  0  0  0  0  0  0  0
   62.4400   34.1630   48.8990 C   0  0  0  0  0  0  0  0  0  0  0  0
   59.6330   35.3600   46.1890 C   0  0  0  0  0  0  0  0  0  0  0  0
   58.9100   34.4980   45.1350 C   0  0  0  0  0  0  0  0  0  0  0  0
   58.3906   26.9766   47.3829 H   0  0  0  0  0  0  0  0  0  0  0  0
   60.2816   27.9546   48.6642 H   0  0  0  0  0  0  0  0  0  0  0  0
   61.2034   30.1798   48.0410 H   0  0  0  0  0  0  0  0  0  0  0  0
   60.2351   31.4400   46.1291 H   0  0  0  0  0  0  0  0  0  0  0  0
   58.9030   31.5661   44.2833 H   0  0  0  0  0  0  0  0  0  0  0  0
   58.0432   30.1083   43.6487 H   0  0  0  0  0  0  0  0  0  0  0  0
   56.2320   31.1680   44.0990 H   0  0  0  0  0  0  0  0  0  0  0  0
   56.9358   33.2964   44.0615 H   0  0  0  0  0  0  0  0  0  0  0  0
   56.1611   33.1600   45.6820 H   0  0  0  0  0  0  0  0  0  0  0  0
   59.0440   32.3811   45.5135 H   0  0  0  0  0  0  0  0  0  0  0  0
   57.4405   34.1114   47.4637 H   0  0  0  0  0  0  0  0  0  0  0  0
   57.7751   32.3417   47.6249 H   0  0  0  0  0  0  0  0  0  0  0  0
   59.2852   34.0577   48.9164 H   0  0  0  0  0  0  0  0  0  0  0  0
   60.0401   32.6564   48.0037 H   0  0  0  0  0  0  0  0  0  0  0  0
   60.7650   35.2380   47.8660 H   0  0  0  0  0  0  0  0  0  0  0  0
   61.2414   32.8170   46.3142 H   0  0  0  0  0  0  0  0  0  0  0  0
   61.8005   34.4071   45.6299 H   0  0  0  0  0  0  0  0  0  0  0  0
   63.4616   34.5609   46.9963 H   0  0  0  0  0  0  0  0  0  0  0  0
   62.6991   31.6539   47.4132 H   0  0  0  0  0  0  0  0  0  0  0  0
   64.1956   32.3163   46.7331 H   0  0  0  0  0  0  0  0  0  0  0  0
   63.8434   31.4064   49.3902 H   0  0  0  0  0  0  0  0  0  0  0  0
   65.1907   32.4282   48.8396 H   0  0  0  0  0  0  0  0  0  0  0  0
   63.1204   33.1504   50.6845 H   0  0  0  0  0  0  0  0  0  0  0  0
   64.3230   34.2520   49.9830 H   0  0  0  0  0  0  0  0  0  0  0  0
   61.4578   33.7467   49.1674 H   0  0  0  0  0  0  0  0  0  0  0  0
   62.3808   35.2493   49.0613 H   0  0  0  0  0  0  0  0  0  0  0  0
   58.8843   35.9622   46.7245 H   0  0  0  0  0  0  0  0  0  0  0  0
   60.3604   35.9920   45.6584 H   0  0  0  0  0  0  0  0  0  0  0  0
   58.0866   35.0872   44.7051 H   0  0  0  0  0  0  0  0  0  0  0  0
   59.6531   34.2156   44.3747 H   0  0  0  0  0  0  0  0  0  0  0  0
  1  2  1  0
  2  3  1  0
  2  4  1  0
  2  5  1  0
  5  6  2  0
  6  7  1  0
  7  8  2  0
  8  9  1  0
  9 10  2  0
 10 11  1  0
 11 12  1  0
 12 13  1  0
 13 14  1  0
 14 15  1  0
 15 16  1  0
 16 17  1  0
 17 18  1  0
 18 19  1  0
 19 20  1  0
 20 21  1  0
 21 22  1  0
 22 23  1  0
 17 24  1  0
 24 25  1  0
 10  5  1  0
 25 14  1  0
 23 19  1  0
  6 26  1  0
  7 27  1  0
  8 28  1  0
  9 29  1  0
 11 30  1  0
 11 31  1  0
 12 32  1  0
 13 33  1  0
 13 34  1  0
 14 35  1  1
 15 36  1  0
 15 37  1  0
 16 38  1  0
 16 39  1  0
 17 40  1  1
 18 41  1  0
 18 42  1  0
 19 43  1  0
 20 44  1  0
 20 45  1  0
 21 46  1  0
 21 47  1  0
 22 48  1  0
 22 49  1  0
 23 50  1  0
 23 51  1  0
 24 52  1  0
 24 53  1  0
 25 54  1  0
 25 55  1  0
M  CHG  1  17   1
M  END
>  <UniqueID>  (31) 
30

>  <SMILES>  (31) 
FC(F)(F)c1ccccc1CNCC1CC[NH+](CC2CCCC2)CC1

>  <Energy>  (31) 
65.00565768736585

>  <Genealogy>  (31) 
FC(F)(F)c1ccccc1CNCC1CC[NH+](CC2CCCC2)CC1 (protonated)
FC(F)(F)c1ccccc1CNCC1CC[NH+](CC2CCCC2)CC1 (3D coordinates assigned)
FC(F)(F)c1ccccc1CNCC1CC[NH+](CC2CCCC2)CC1 (nonaromatic ring conformer: 65.00565768736585 kcal/mol)

>  <smiles>  (31) 
FC(F)(F)c1ccccc1CNCC1CCN(CC2CCCC2)CC1

>  <score_type>  (31) 
oracle

>  <origin>  (31) 
adg

>  <m_score__min__energy>  (31) 
-6.9400000000000004

>  <m_primary>  (31) 
energy

$$$$
31:0
     RDKit          3D

 42 44  0  0  0  0  0  0  0  0999 V2000
   57.0280   30.5760   43.6310 C   0  0  0  0  0  0  0  0  0  0  0  0
   56.8720   31.2380   44.8810 O   0  0  0  0  0  0  0  0  0  0  0  0
   57.6010   32.3690   45.2760 C   0  0  0  0  0  0  0  0  0  0  0  0
   57.7720   33.4860   44.4380 C   0  0  0  0  0  0  0  0  0  0  0  0
   58.5190   34.5830   44.8720 C   0  0  0  0  0  0  0  0  0  0  0  0
   59.0950   34.5830   46.1440 C   0  0  0  0  0  0  0  0  0  0  0  0
   58.9200   33.4860   47.0060 C   0  0  0  0  0  0  0  0  0  0  0  0
   59.5800   33.4820   48.3810 C   0  0  1  0  0  0  0  0  0  0  0  0
   58.9260   32.4980   49.2730 N   0  0  0  0  0  0  0  0  0  0  0  0
   59.2360   32.1860   50.5150 C   0  0  0  0  0  0  0  0  0  0  0  0
   58.3310   31.2260   51.2520 C   0  0  0  0  0  0  0  0  0  0  0  0
   60.4600   32.6220   51.1690 N   0  0  0  0  0  0  0  0  0  0  0  0
   61.0650   31.7720   52.2040 C   0  0  0  0  0  0  0  0  0  0  0  0
   61.1700   33.8380   50.7710 C   0  0  0  0  0  0  0  0  0  0  0  0
   61.8640   33.5730   49.4690 C   0  0  0  0  0  0  0  0  0  0  0  0
   63.2640   33.4610   49.4340 C   0  0  0  0  0  0  0  0  0  0  0  0
   63.9120   33.1030   48.2530 C   0  0  0  0  0  0  0  0  0  0  0  0
   63.1700   32.8400   47.1040 C   0  0  0  0  0  0  0  0  0  0  0  0
   61.7770   32.9390   47.1290 C   0  0  0  0  0  0  0  0  0  0  0  0
   61.0990   33.3070   48.3150 C   0  0  0  0  0  0  0  0  0  0  0  0
   58.1790   32.3750   46.5510 C   0  0  0  0  0  0  0  0  0  0  0  0
   57.2771   29.5187   43.8046 H   0  0  0  0  0  0  0  0  0  0  0  0
   56.0895   30.6428   43.0611 H   0  0  0  0  0  0  0  0  0  0  0  0
   57.8379   31.0548   43.0611 H   0  0  0  0  0  0  0  0  0  0  0  0
   57.3156   33.4952   43.4372 H   0  0  0  0  0  0  0  0  0  0  0  0
   58.6542   35.4505   44.2093 H   0  0  0  0  0  0  0  0  0  0  0  0
   59.6899   35.4474   46.4741 H   0  0  0  0  0  0  0  0  0  0  0  0
   59.4285   34.4790   48.8203 H   0  0  0  0  0  0  0  0  0  0  0  0
   58.0360   32.0870   48.9060 H   0  0  0  0  0  0  0  0  0  0  0  0
   58.4584   31.3611   52.3362 H   0  0  0  0  0  0  0  0  0  0  0  0
   57.2844   31.4251   50.9781 H   0  0  0  0  0  0  0  0  0  0  0  0
   58.5915   30.1930   50.9781 H   0  0  0  0  0  0  0  0  0  0  0  0
   60.7924   32.1550   53.1985 H   0  0  0  0  0  0  0  0  0  0  0  0
   60.6960   30.7416   52.0941 H   0  0  0  0  0  0  0  0  0  0  0  0
   62.1594   31.7832   52.0941 H   0  0  0  0  0  0  0  0  0  0  0  0
   60.4538   34.6640   50.6494 H   0  0  0  0  0  0  0  0  0  0  0  0
   61.9036   34.1179   51.5414 H   0  0  0  0  0  0  0  0  0  0  0  0
   63.8516   33.6568   50.3430 H   0  0  0  0  0  0  0  0  0  0  0  0
   65.0092   33.0282   48.2284 H   0  0  0  0  0  0  0  0  0  0  0  0
   63.6827   32.5534   46.1739 H   0  0  0  0  0  0  0  0  0  0  0  0
   61.2005   32.7284   46.2162 H   0  0  0  0  0  0  0  0  0  0  0  0
   58.0537   31.5012   47.2073 H   0  0  0  0  0  0  0  0  0  0  0  0
  1  2  1  0
  2  3  1  0
  3  4  2  0
  4  5  1  0
  5  6  2  0
  6  7  1  0
  7  8  1  0
  8  9  1  0
  9 10  2  0
 10 11  1  0
 10 12  1  0
 12 13  1  0
 12 14  1  0
 14 15  1  0
 15 16  2  0
 16 17  1  0
 17 18  2  0
 18 19  1  0
 19 20  2  0
  7 21  2  0
 21  3  1  0
 20  8  1  0
 20 15  1  0
  1 22  1  0
  1 23  1  0
  1 24  1  0
  4 25  1  0
  5 26  1  0
  6 27  1  0
  8 28  1  1
  9 29  1  0
 11 30  1  0
 11 31  1  0
 11 32  1  0
 13 33  1  0
 13 34  1  0
 13 35  1  0
 14 36  1  0
 14 37  1  0
 16 38  1  0
 17 39  1  0
 18 40  1  0
 19 41  1  0
 21 42  1  0
M  CHG  1   9   1
M  END
>  <UniqueID>  (32) 
31

>  <SMILES>  (32) 
COc1cccc([C@H]2[NH+]=C(C)N(C)Cc3ccccc32)c1

>  <Energy>  (32) 
58.47335110354186

>  <Genealogy>  (32) 
COc1cccc(C2[NH+]=C(C)N(C)Cc3ccccc32)c1 (protonated)
COc1cccc([C@H]2[NH+]=C(C)N(C)Cc3ccccc32)c1 (chirality)
COc1cccc([C@H]2[NH+]=C(C)N(C)Cc3ccccc32)c1 (3D coordinates assigned)
COc1cccc([C@H]2[NH+]=C(C)N(C)Cc3ccccc32)c1 (nonaromatic ring conformer: 58.47335110354186 kcal/mol)

>  <smiles>  (32) 
COc1cccc(C2N=C(C)N(C)Cc3ccccc32)c1

>  <score_type>  (32) 
oracle

>  <origin>  (32) 
adg

>  <m_score__min__energy>  (32) 
-6.2599999999999998

>  <m_primary>  (32) 
energy

$$$$
32:0
     RDKit          3D

 52 55  0  0  0  0  0  0  0  0999 V2000
   58.8730   33.8960   52.3420 C   0  0  0  0  0  0  0  0  0  0  0  0
   59.8810   33.2990   51.3690 C   0  0  0  0  0  0  0  0  0  0  0  0
   59.3090   33.2210   50.0180 N   0  0  0  0  0  0  0  0  0  0  0  0
   58.1830   32.3070   49.7790 C   0  0  0  0  0  0  0  0  0  0  0  0
   58.5480   30.8860   50.1930 C   0  0  0  0  0  0  0  0  0  0  0  0
   59.8730   34.0280   48.9570 C   0  0  0  0  0  0  0  0  0  0  0  0
   60.9750   34.6120   49.1430 O   0  0  0  0  0  0  0  0  0  0  0  0
   59.1450   34.2180   47.6460 C   0  0  0  0  0  0  0  0  0  0  0  0
   60.1520   33.6610   46.2160 S   0  0  0  0  0  0  0  0  0  0  0  0
   59.7290   31.9120   46.3690 C   0  0  0  0  0  0  0  0  0  0  0  0
   58.6010   31.4660   45.7410 N   0  0  0  0  0  0  0  0  0  0  0  0
   58.2640   30.1600   45.8310 C   0  0  0  0  0  0  0  0  0  0  0  0
   56.9240   29.4000   45.1160 S   0  0  0  0  0  0  0  0  0  0  0  0
   57.3660   27.8980   45.7480 C   0  0  0  0  0  0  0  0  0  0  0  0
   58.5030   27.9730   46.4750 C   0  0  0  0  0  0  0  0  0  0  0  0
   59.0350   29.2590   46.5400 C   0  0  0  0  0  0  0  0  0  0  0  0
   60.1800   29.7100   47.1890 C   0  0  0  0  0  0  0  0  0  0  0  0
   60.8980   28.9030   47.8430 O   0  0  0  0  0  0  0  0  0  0  0  0
   60.5150   31.0410   47.1020 N   0  0  0  0  0  0  0  0  0  0  0  0
   61.6670   31.5250   47.8130 C   0  0  0  0  0  0  0  0  0  0  0  0
   62.6780   32.2240   47.1400 C   0  0  0  0  0  0  0  0  0  0  0  0
   63.7880   32.7020   47.8410 C   0  0  0  0  0  0  0  0  0  0  0  0
   63.8980   32.4800   49.2180 C   0  0  0  0  0  0  0  0  0  0  0  0
   65.2870   33.0850   50.0980 Cl  0  0  0  0  0  0  0  0  0  0  0  0
   62.8960   31.7760   49.8930 C   0  0  0  0  0  0  0  0  0  0  0  0
   61.7850   31.2970   49.1940 C   0  0  0  0  0  0  0  0  0  0  0  0
   58.9320   26.6580   46.9920 C   0  0  0  0  0  0  0  0  0  0  0  0
   57.8410   25.6970   46.4460 C   0  0  0  0  0  0  0  0  0  0  0  0
   56.8140   26.5370   45.6430 C   0  0  0  0  0  0  0  0  0  0  0  0
   59.2004   33.7021   53.3741 H   0  0  0  0  0  0  0  0  0  0  0  0
   58.8029   34.9814   52.1774 H   0  0  0  0  0  0  0  0  0  0  0  0
   57.8876   33.4358   52.1774 H   0  0  0  0  0  0  0  0  0  0  0  0
   60.7800   33.9324   51.3453 H   0  0  0  0  0  0  0  0  0  0  0  0
   60.1406   32.2840   51.7043 H   0  0  0  0  0  0  0  0  0  0  0  0
   57.3145   32.6424   50.3649 H   0  0  0  0  0  0  0  0  0  0  0  0
   57.9432   32.3130   48.7055 H   0  0  0  0  0  0  0  0  0  0  0  0
   58.5657   30.8170   51.2907 H   0  0  0  0  0  0  0  0  0  0  0  0
   57.8009   30.1844   49.7935 H   0  0  0  0  0  0  0  0  0  0  0  0
   59.5407   30.6313   49.7935 H   0  0  0  0  0  0  0  0  0  0  0  0
   58.2110   33.6375   47.6707 H   0  0  0  0  0  0  0  0  0  0  0  0
   58.9417   35.2919   47.5218 H   0  0  0  0  0  0  0  0  0  0  0  0
   58.0020   32.1240   45.1920 H   0  0  0  0  0  0  0  0  0  0  0  0
   62.5975   32.3969   46.0567 H   0  0  0  0  0  0  0  0  0  0  0  0
   64.5770   33.2540   47.3092 H   0  0  0  0  0  0  0  0  0  0  0  0
   62.9825   31.5991   50.9752 H   0  0  0  0  0  0  0  0  0  0  0  0
   61.0004   30.7397   49.7268 H   0  0  0  0  0  0  0  0  0  0  0  0
   59.9263   26.3870   46.6075 H   0  0  0  0  0  0  0  0  0  0  0  0
   59.0248   26.6316   48.0878 H   0  0  0  0  0  0  0  0  0  0  0  0
   58.3021   24.9449   45.7889 H   0  0  0  0  0  0  0  0  0  0  0  0
   57.3409   25.1781   47.2771 H   0  0  0  0  0  0  0  0  0  0  0  0
   56.7639   26.2079   44.5946 H   0  0  0  0  0  0  0  0  0  0  0  0
   55.7846   26.4503   46.0209 H   0  0  0  0  0  0  0  0  0  0  0  0
  1  2  1  0
  2  3  1  0
  3  4  1  0
  4  5  1  0
  3  6  1  0
  6  7  2  0
  6  8  1  0
  8  9  1  0
  9 10  1  0
 10 11  2  0
 11 12  1  0
 12 13  1  0
 13 14  1  0
 14 15  2  0
 15 16  1  0
 16 17  1  0
 17 18  2  0
 17 19  1  0
 19 20  1  0
 20 21  2  0
 21 22  1  0
 22 23  2  0
 23 24  1  0
 23 25  1  0
 25 26  2  0
 15 27  1  0
 27 28  1  0
 28 29  1  0
 19 10  1  0
 26 20  1  0
 16 12  2  0
 29 14  1  0
  1 30  1  0
  1 31  1  0
  1 32  1  0
  2 33  1  0
  2 34  1  0
  4 35  1  0
  4 36  1  0
  5 37  1  0
  5 38  1  0
  5 39  1  0
  8 40  1  0
  8 41  1  0
 11 42  1  0
 21 43  1  0
 22 44  1  0
 25 45  1  0
 26 46  1  0
 27 47  1  0
 27 48  1  0
 28 49  1  0
 28 50  1  0
 29 51  1  0
 29 52  1  0
M  CHG  1  11   1
M  END
>  <UniqueID>  (33) 
32

>  <SMILES>  (33) 
CCN(CC)C(=O)CSc1[nH+]c2sc3c(c2c(=O)n1-c1ccc(Cl)cc1)CCC3

>  <Energy>  (33) 
103.74340001348898

>  <Genealogy>  (33) 
CCN(CC)C(=O)CSc1[nH+]c2sc3c(c2c(=O)n1-c1ccc(Cl)cc1)CCC3 (protonated)
CCN(CC)C(=O)CSc1[nH+]c2sc3c(c2c(=O)n1-c1ccc(Cl)cc1)CCC3 (3D coordinates assigned)
CCN(CC)C(=O)CSc1[nH+]c2sc3c(c2c(=O)n1-c1ccc(Cl)cc1)CCC3 (nonaromatic ring conformer: 103.74340001348898 kcal/mol)

>  <smiles>  (33) 
CCN(CC)C(=O)CSc1nc2sc3c(c2c(=O)n1-c1ccc(Cl)cc1)CCC3

>  <score_type>  (33) 
oracle

>  <origin>  (33) 
adg

>  <m_score__min__energy>  (33) 
-6.1600000000000001

>  <m_primary>  (33) 
energy

$$$$
33:0
     RDKit          3D

 42 43  0  0  0  0  0  0  0  0999 V2000
   63.4040   31.5790   47.4770 C   0  0  0  0  0  0  0  0  0  0  0  0
   63.6890   33.0380   47.1220 C   0  0  0  0  0  0  0  0  0  0  0  0
   62.4070   33.8330   46.8520 C   0  0  0  0  0  0  0  0  0  0  0  0
   61.5080   33.8590   48.0540 C   0  0  0  0  0  0  0  0  0  0  0  0
   61.8520   33.4290   49.2420 O   0  0  0  0  0  0  0  0  0  0  0  0
   60.8140   33.6000   50.0310 C   0  0  0  0  0  0  0  0  0  0  0  0
   59.7570   34.1430   49.3910 N   0  0  0  0  0  0  0  0  0  0  0  0
   60.2030   34.3000   48.1300 C   0  0  0  0  0  0  0  0  0  0  0  0
   59.3850   34.9050   47.0270 C   0  0  0  0  0  0  0  0  0  0  0  0
   58.7610   33.8510   46.2010 N   0  0  0  0  0  0  0  0  0  0  0  0
   58.0810   34.3180   44.9720 C   0  0  0  0  0  0  0  0  0  0  0  0
   57.4650   33.2020   44.1120 C   0  0  0  0  0  0  0  0  0  0  0  0
   58.3180   31.9320   44.0850 C   0  0  0  0  0  0  0  0  0  0  0  0
   57.9370   31.0390   45.1880 N   0  0  0  0  0  0  0  0  0  0  0  0
   57.2860   29.7710   44.9290 C   0  0  0  0  0  0  0  0  0  0  0  0
   58.0630   28.5010   44.7430 C   0  0  0  0  0  0  0  0  0  0  0  0
   56.0270   29.7090   44.8800 O   0  0  0  0  0  0  0  0  0  0  0  0
   58.3050   31.3750   46.5730 C   0  0  0  0  0  0  0  0  0  0  0  0
   58.0010   32.8370   46.9660 C   0  0  0  0  0  0  0  0  0  0  0  0
   63.3818   31.4654   48.5709 H   0  0  0  0  0  0  0  0  0  0  0  0
   62.4310   31.2830   47.0578 H   0  0  0  0  0  0  0  0  0  0  0  0
   64.1940   30.9386   47.0578 H   0  0  0  0  0  0  0  0  0  0  0  0
   64.2262   33.5072   47.9594 H   0  0  0  0  0  0  0  0  0  0  0  0
   64.2911   33.0485   46.2015 H   0  0  0  0  0  0  0  0  0  0  0  0
   62.6769   34.8657   46.5860 H   0  0  0  0  0  0  0  0  0  0  0  0
   61.8660   33.3433   46.0289 H   0  0  0  0  0  0  0  0  0  0  0  0
   60.8078   33.3297   51.0973 H   0  0  0  0  0  0  0  0  0  0  0  0
   58.5965   35.5341   47.4657 H   0  0  0  0  0  0  0  0  0  0  0  0
   60.0452   35.5102   46.3884 H   0  0  0  0  0  0  0  0  0  0  0  0
   57.2756   35.0066   45.2672 H   0  0  0  0  0  0  0  0  0  0  0  0
   58.8546   34.7951   44.3524 H   0  0  0  0  0  0  0  0  0  0  0  0
   56.4745   32.9510   44.5194 H   0  0  0  0  0  0  0  0  0  0  0  0
   57.3998   33.5780   43.0803 H   0  0  0  0  0  0  0  0  0  0  0  0
   58.1649   31.4122   43.1277 H   0  0  0  0  0  0  0  0  0  0  0  0
   59.3765   32.2091   44.1979 H   0  0  0  0  0  0  0  0  0  0  0  0
   58.3200   28.0810   45.7266 H   0  0  0  0  0  0  0  0  0  0  0  0
   57.4532   27.7767   44.1830 H   0  0  0  0  0  0  0  0  0  0  0  0
   58.9855   28.7142   44.1830 H   0  0  0  0  0  0  0  0  0  0  0  0
   57.7468   30.7115   47.2500 H   0  0  0  0  0  0  0  0  0  0  0  0
   59.3941   31.2433   46.6540 H   0  0  0  0  0  0  0  0  0  0  0  0
   56.9281   33.0194   46.8059 H   0  0  0  0  0  0  0  0  0  0  0  0
   58.3049   32.9470   48.0174 H   0  0  0  0  0  0  0  0  0  0  0  0
  1  2  1  0
  2  3  1  0
  3  4  1  0
  4  5  1  0
  5  6  1  0
  6  7  2  0
  7  8  1  0
  8  9  1  0
  9 10  1  0
 10 11  1  0
 11 12  1  0
 12 13  1  0
 13 14  1  0
 14 15  1  0
 15 16  1  0
 15 17  2  0
 14 18  1  0
 18 19  1  0
  8  4  2  0
 19 10  1  0
  1 20  1  0
  1 21  1  0
  1 22  1  0
  2 23  1  0
  2 24  1  0
  3 25  1  0
  3 26  1  0
  6 27  1  0
  9 28  1  0
  9 29  1  0
 11 30  1  0
 11 31  1  0
 12 32  1  0
 12 33  1  0
 13 34  1  0
 13 35  1  0
 16 36  1  0
 16 37  1  0
 16 38  1  0
 18 39  1  0
 18 40  1  0
 19 41  1  0
 19 42  1  0
M  END
>  <UniqueID>  (34) 
33

>  <SMILES>  (34) 
CCCc1ocnc1CN1CCCN(C(C)=O)CC1

>  <Energy>  (34) 
71.44312293924044

>  <Genealogy>  (34) 
CCCc1ocnc1CN1CCCN(C(C)=O)CC1 (3D coordinates assigned)
CCCc1ocnc1CN1CCCN(C(C)=O)CC1 (nonaromatic ring conformer: 71.44312293924044 kcal/mol)

>  <smiles>  (34) 
CCCc1ocnc1CN1CCCN(C(C)=O)CC1

>  <score_type>  (34) 
oracle

>  <origin>  (34) 
adg

>  <m_score__min__energy>  (34) 
-4.9500000000000002

>  <m_primary>  (34) 
energy

$$$$
34:0
     RDKit          3D

 64 67  0  0  0  0  0  0  0  0999 V2000
   58.6160   32.2460   49.8830 C   0  0  0  0  0  0  0  0  0  0  0  0
   59.6260   33.3590   50.1540 C   0  0  0  0  0  0  0  0  0  0  0  0
   60.6830   33.3770   49.1180 N   0  0  0  0  0  0  0  0  0  0  0  0
   61.9920   32.8590   49.5750 C   0  0  0  0  0  0  0  0  0  0  0  0
   63.0850   32.9170   48.5080 C   0  0  0  0  0  0  0  0  0  0  0  0
   60.7550   34.5780   48.2480 C   0  0  0  0  0  0  0  0  0  0  0  0
   59.4360   34.9470   47.5400 C   0  0  0  0  0  0  0  0  0  0  0  0
   59.4270   34.3350   45.8190 S   0  0  0  0  0  0  0  0  0  0  0  0
   59.3840   32.5920   46.2510 C   0  0  0  0  0  0  0  0  0  0  0  0
   60.5790   31.8810   46.4230 C   0  0  0  0  0  0  0  0  0  0  0  0
   60.5450   30.5160   46.7200 C   0  0  0  0  0  0  0  0  0  0  0  0
   59.3170   29.8480   46.8290 C   0  0  0  0  0  0  0  0  0  0  0  0
   59.2850   28.3960   47.0710 C   0  0  0  0  0  0  0  0  0  0  0  0
   59.9330   27.7690   48.1170 C   0  0  0  0  0  0  0  0  0  0  0  0
   59.6170   26.4300   48.0230 C   0  0  0  0  0  0  0  0  0  0  0  0
   58.8070   26.2890   46.9100 C   0  0  0  0  0  0  0  0  0  0  0  0
   58.2350   25.0020   46.4610 C   0  0  0  0  0  0  0  0  0  0  0  0
   58.9580   24.1440   45.6150 C   0  0  0  0  0  0  0  0  0  0  0  0
   58.4090   22.9220   45.2130 C   0  0  0  0  0  0  0  0  0  0  0  0
   57.1410   22.5440   45.6600 C   0  0  0  0  0  0  0  0  0  0  0  0
   56.4210   23.3830   46.5140 C   0  0  0  0  0  0  0  0  0  0  0  0
   56.9670   24.6040   46.9200 C   0  0  0  0  0  0  0  0  0  0  0  0
   58.5930   27.4960   46.3330 N   0  0  0  0  0  0  0  0  0  0  0  0
   57.8260   27.7820   45.1120 C   0  0  0  0  0  0  0  0  0  0  0  0
   56.3620   27.9260   45.4080 C   0  0  0  0  0  0  0  0  0  0  0  0
   55.6860   26.9390   45.8080 O   0  0  0  0  0  0  0  0  0  0  0  0
   55.7390   29.2010   45.2420 N   0  0  0  0  0  0  0  0  0  0  0  0
   55.5420   29.8050   43.9300 C   0  0  0  0  0  0  0  0  0  0  0  0
   56.6310   30.7970   43.5650 C   0  0  0  0  0  0  0  0  0  0  0  0
   56.6060   29.4210   42.9190 C   0  0  0  0  0  0  0  0  0  0  0  0
   58.1220   30.5590   46.6440 C   0  0  0  0  0  0  0  0  0  0  0  0
   58.1560   31.9290   46.3650 C   0  0  0  0  0  0  0  0  0  0  0  0
   58.2498   31.8425   50.8386 H   0  0  0  0  0  0  0  0  0  0  0  0
   57.7702   32.6505   49.3076 H   0  0  0  0  0  0  0  0  0  0  0  0
   59.1005   31.4434   49.3076 H   0  0  0  0  0  0  0  0  0  0  0  0
   59.1039   34.3272   50.1527 H   0  0  0  0  0  0  0  0  0  0  0  0
   60.0956   33.1769   51.1319 H   0  0  0  0  0  0  0  0  0  0  0  0
   62.3188   33.4562   50.4391 H   0  0  0  0  0  0  0  0  0  0  0  0
   61.8464   31.7982   49.8272 H   0  0  0  0  0  0  0  0  0  0  0  0
   64.0701   32.9693   48.9947 H   0  0  0  0  0  0  0  0  0  0  0  0
   63.0333   32.0148   47.8807 H   0  0  0  0  0  0  0  0  0  0  0  0
   62.9381   33.8086   47.8807 H   0  0  0  0  0  0  0  0  0  0  0  0
   61.0596   35.4326   48.8699 H   0  0  0  0  0  0  0  0  0  0  0  0
   61.4760   34.3396   47.4522 H   0  0  0  0  0  0  0  0  0  0  0  0
   58.5951   34.4959   48.0871 H   0  0  0  0  0  0  0  0  0  0  0  0
   59.3402   36.0427   47.5240 H   0  0  0  0  0  0  0  0  0  0  0  0
   61.5450   32.3979   46.3241 H   0  0  0  0  0  0  0  0  0  0  0  0
   61.4846   29.9637   46.8688 H   0  0  0  0  0  0  0  0  0  0  0  0
   60.5739   28.2435   48.8747 H   0  0  0  0  0  0  0  0  0  0  0  0
   59.9453   25.6289   48.7016 H   0  0  0  0  0  0  0  0  0  0  0  0
   59.9603   24.4347   45.2673 H   0  0  0  0  0  0  0  0  0  0  0  0
   58.9764   22.2581   44.5442 H   0  0  0  0  0  0  0  0  0  0  0  0
   56.7088   21.5847   45.3393 H   0  0  0  0  0  0  0  0  0  0  0  0
   55.4235   23.0825   46.8672 H   0  0  0  0  0  0  0  0  0  0  0  0
   56.4020   25.2566   47.6018 H   0  0  0  0  0  0  0  0  0  0  0  0
   58.1954   28.7182   44.6680 H   0  0  0  0  0  0  0  0  0  0  0  0
   57.9578   26.9415   44.4147 H   0  0  0  0  0  0  0  0  0  0  0  0
   54.4421   29.8148   43.9349 H   0  0  0  0  0  0  0  0  0  0  0  0
   56.3858   31.6889   42.9697 H   0  0  0  0  0  0  0  0  0  0  0  0
   57.3750   31.3785   44.1292 H   0  0  0  0  0  0  0  0  0  0  0  0
   56.3428   29.3170   41.8560 H   0  0  0  0  0  0  0  0  0  0  0  0
   57.3246   28.5939   42.8218 H   0  0  0  0  0  0  0  0  0  0  0  0
   57.1561   30.0379   46.7185 H   0  0  0  0  0  0  0  0  0  0  0  0
   57.2167   32.4865   46.2349 H   0  0  0  0  0  0  0  0  0  0  0  0
  1  2  1  0
  2  3  1  0
  3  4  1  0
  4  5  1  0
  3  6  1  0
  6  7  1  0
  7  8  1  0
  8  9  1  0
  9 10  2  0
 10 11  1  0
 11 12  2  0
 12 13  1  0
 13 14  2  0
 14 15  1  0
 15 16  2  0
 16 17  1  0
 17 18  2  0
 18 19  1  0
 19 20  2  0
 20 21  1  0
 21 22  2  0
 16 23  1  0
 23 24  1  0
 24 25  1  0
 25 26  2  0
 25 27  1  0
 27 28  1  0
 28 29  1  0
 29 30  1  0
 12 31  1  0
 31 32  2  0
 32  9  1  0
 23 13  1  0
 30 28  1  0
 22 17  1  0
  1 33  1  0
  1 34  1  0
  1 35  1  0
  2 36  1  0
  2 37  1  0
  4 38  1  0
  4 39  1  0
  5 40  1  0
  5 41  1  0
  5 42  1  0
  6 43  1  0
  6 44  1  0
  7 45  1  0
  7 46  1  0
 10 47  1  0
 11 48  1  0
 14 49  1  0
 15 50  1  0
 18 51  1  0
 19 52  1  0
 20 53  1  0
 21 54  1  0
 22 55  1  0
 24 56  1  0
 24 57  1  0
 28 58  1  0
 29 59  1  0
 29 60  1  0
 30 61  1  0
 30 62  1  0
 31 63  1  0
 32 64  1  0
M  CHG  1  27  -1
M  END
>  <UniqueID>  (35) 
34

>  <SMILES>  (35) 
CCN(CC)CCSc1ccc(-c2ccc(-c3ccccc3)n2CC(=O)[N-]C2CC2)cc1

>  <Energy>  (35) 
365.12304110630146

>  <Genealogy>  (35) 
CCN(CC)CCSc1ccc(-c2ccc(-c3ccccc3)n2CC(=O)[N-]C2CC2)cc1 (protonated)
CCN(CC)CCSc1ccc(-c2ccc(-c3ccccc3)n2CC(=O)[N-]C2CC2)cc1 (3D coordinates assigned)
CCN(CC)CCSc1ccc(-c2ccc(-c3ccccc3)n2CC(=O)[N-]C2CC2)cc1 (nonaromatic ring conformer: 365.12304110630146 kcal/mol)

>  <smiles>  (35) 
CCN(CC)CCSc1ccc(-c2ccc(-c3ccccc3)n2CC(=O)NC2CC2)cc1

>  <score_type>  (35) 
oracle

>  <origin>  (35) 
adg

>  <m_score__min__energy>  (35) 
-10.710000000000001

>  <m_primary>  (35) 
energy

$$$$
35:0
     RDKit          3D

 42 44  0  0  0  0  0  0  0  0999 V2000
   59.7400   33.1500   49.3600 C   0  0  0  0  0  0  0  0  0  0  0  0
   61.1060   33.0320   48.7340 C   0  0  0  0  0  0  0  0  0  0  0  0
   62.1180   33.9050   49.1710 C   0  0  0  0  0  0  0  0  0  0  0  0
   63.3860   33.8750   48.5880 C   0  0  0  0  0  0  0  0  0  0  0  0
   63.6620   32.9720   47.5640 C   0  0  0  0  0  0  0  0  0  0  0  0
   62.6770   32.0830   47.1300 C   0  0  0  0  0  0  0  0  0  0  0  0
   61.4010   32.0800   47.7220 C   0  0  0  0  0  0  0  0  0  0  0  0
   60.4180   31.0860   47.2400 C   0  0  0  0  0  0  0  0  0  0  0  0
   59.8530   31.0920   46.0150 N   0  0  0  0  0  0  0  0  0  0  0  0
   59.0120   30.0430   46.0310 C   0  0  0  0  0  0  0  0  0  0  0  0
   58.1160   29.6560   44.8940 C   0  0  0  0  0  0  0  0  0  0  0  0
   56.9020   30.4990   44.8800 N   0  0  0  0  0  0  0  0  0  0  0  0
   55.7410   29.7170   44.4090 C   0  0  0  0  0  0  0  0  0  0  0  0
   57.1100   31.6810   44.0160 C   0  0  0  0  0  0  0  0  0  0  0  0
   57.8130   32.7720   44.7740 C   0  0  0  0  0  0  0  0  0  0  0  0
   57.3710   33.1680   46.0450 C   0  0  0  0  0  0  0  0  0  0  0  0
   58.0600   34.1740   46.7260 C   0  0  0  0  0  0  0  0  0  0  0  0
   59.1750   34.7730   46.1390 C   0  0  0  0  0  0  0  0  0  0  0  0
   59.5890   34.3530   44.8720 C   0  0  0  0  0  0  0  0  0  0  0  0
   58.9060   33.3700   44.2240 N   0  0  0  0  0  0  0  0  0  0  0  0
   59.0830   29.4380   47.2670 C   0  0  0  0  0  0  0  0  0  0  0  0
   59.9540   30.1060   47.9880 O   0  0  0  0  0  0  0  0  0  0  0  0
   59.8368   33.1416   50.4557 H   0  0  0  0  0  0  0  0  0  0  0  0
   59.2704   34.0921   49.0406 H   0  0  0  0  0  0  0  0  0  0  0  0
   59.1158   32.3024   49.0406 H   0  0  0  0  0  0  0  0  0  0  0  0
   61.9082   34.6192   49.9809 H   0  0  0  0  0  0  0  0  0  0  0  0
   64.1680   34.5651   48.9376 H   0  0  0  0  0  0  0  0  0  0  0  0
   64.6577   32.9593   47.0966 H   0  0  0  0  0  0  0  0  0  0  0  0
   62.9011   31.3774   46.3164 H   0  0  0  0  0  0  0  0  0  0  0  0
   59.9850   31.7800   45.2420 H   0  0  0  0  0  0  0  0  0  0  0  0
   58.6580   29.7864   43.9457 H   0  0  0  0  0  0  0  0  0  0  0  0
   57.8171   28.6048   45.0191 H   0  0  0  0  0  0  0  0  0  0  0  0
   55.1785   29.3381   45.2750 H   0  0  0  0  0  0  0  0  0  0  0  0
   55.0882   30.3602   43.8006 H   0  0  0  0  0  0  0  0  0  0  0  0
   56.0917   28.8703   43.8006 H   0  0  0  0  0  0  0  0  0  0  0  0
   57.7212   31.3917   43.1483 H   0  0  0  0  0  0  0  0  0  0  0  0
   56.1303   32.0544   43.6832 H   0  0  0  0  0  0  0  0  0  0  0  0
   56.4907   32.6911   46.5007 H   0  0  0  0  0  0  0  0  0  0  0  0
   57.7241   34.4936   47.7235 H   0  0  0  0  0  0  0  0  0  0  0  0
   59.7223   35.5673   46.6678 H   0  0  0  0  0  0  0  0  0  0  0  0
   60.4668   34.8168   44.3984 H   0  0  0  0  0  0  0  0  0  0  0  0
   58.5130   28.5549   47.5913 H   0  0  0  0  0  0  0  0  0  0  0  0
  1  2  1  0
  2  3  2  0
  3  4  1  0
  4  5  2  0
  5  6  1  0
  6  7  2  0
  7  8  1  0
  8  9  2  0
  9 10  1  0
 10 11  1  0
 11 12  1  0
 12 13  1  0
 12 14  1  0
 14 15  1  0
 15 16  2  0
 16 17  1  0
 17 18  2  0
 18 19  1  0
 19 20  2  0
 10 21  2  0
 21 22  1  0
  7  2  1  0
 22  8  1  0
 20 15  1  0
  1 23  1  0
  1 24  1  0
  1 25  1  0
  3 26  1  0
  4 27  1  0
  5 28  1  0
  6 29  1  0
  9 30  1  0
 11 31  1  0
 11 32  1  0
 13 33  1  0
 13 34  1  0
 13 35  1  0
 14 36  1  0
 14 37  1  0
 16 38  1  0
 17 39  1  0
 18 40  1  0
 19 41  1  0
 21 42  1  0
M  CHG  1   9   1
M  END
>  <UniqueID>  (36) 
35

>  <SMILES>  (36) 
Cc1ccccc1-c1[nH+]c(CN(C)Cc2ccccn2)co1

>  <Energy>  (36) 
80.98590499468342

>  <Genealogy>  (36) 
Cc1ccccc1-c1[nH+]c(CN(C)Cc2ccccn2)co1 (protonated)
Cc1ccccc1-c1[nH+]c(CN(C)Cc2ccccn2)co1 (3D coordinates assigned)
Cc1ccccc1-c1[nH+]c(CN(C)Cc2ccccn2)co1 (optimized conformer: 80.98590499468342 kcal/mol)

>  <smiles>  (36) 
Cc1ccccc1-c1nc(CN(C)Cc2ccccn2)co1

>  <score_type>  (36) 
oracle

>  <origin>  (36) 
adg

>  <m_score__min__energy>  (36) 
-5.4000000000000004

>  <m_primary>  (36) 
energy

$$$$
36:0
     RDKit          3D

 60 63  0  0  0  0  0  0  0  0999 V2000
   63.1530   31.5750   51.5630 C   0  0  0  0  0  0  0  0  0  0  0  0
   63.3310   33.0060   51.1860 N   0  0  0  0  0  0  0  0  0  0  0  0
   63.4000   33.8050   52.4380 C   0  0  0  0  0  0  0  0  0  0  0  0
   62.1510   33.4480   50.3660 C   0  0  0  0  0  0  0  0  0  0  0  0
   62.5370   34.4440   49.2570 C   0  0  0  0  0  0  0  0  0  0  0  0
   63.5180   33.8630   48.3030 N   0  0  0  0  0  0  0  0  0  0  0  0
   62.8600   33.2210   47.1410 C   0  0  0  0  0  0  0  0  0  0  0  0
   62.8540   31.6870   47.2710 C   0  0  0  0  0  0  0  0  0  0  0  0
   61.7090   31.1780   48.1650 C   0  0  0  0  0  0  0  0  0  0  0  0
   61.1300   29.8380   47.6830 C   0  0  0  0  0  0  0  0  0  0  0  0
   59.6990   29.6340   48.1970 C   0  0  0  0  0  0  0  0  0  0  0  0
   58.9060   30.9110   48.1410 C   0  0  0  0  0  0  0  0  0  0  0  0
   58.4610   31.4180   49.2060 O   0  0  0  0  0  0  0  0  0  0  0  0
   58.5990   31.5320   46.8810 N   0  0  0  0  0  0  0  0  0  0  0  0
   58.8890   32.8060   46.5130 C   0  0  0  0  0  0  0  0  0  0  0  0
   59.4940   33.8050   47.2810 C   0  0  0  0  0  0  0  0  0  0  0  0
   59.6910   35.0680   46.6880 C   0  0  0  0  0  0  0  0  0  0  0  0
   59.2800   35.3090   45.3610 C   0  0  0  0  0  0  0  0  0  0  0  0
   58.6700   34.2930   44.6060 C   0  0  0  0  0  0  0  0  0  0  0  0
   58.4880   33.0520   45.2140 C   0  0  0  0  0  0  0  0  0  0  0  0
   57.9370   31.8790   44.7490 C   0  0  0  0  0  0  0  0  0  0  0  0
   57.4080   31.5390   43.5040 C   0  0  0  0  0  0  0  0  0  0  0  0
   56.9590   30.2200   43.3240 C   0  0  0  0  0  0  0  0  0  0  0  0
   57.0510   29.2820   44.3760 C   0  0  0  0  0  0  0  0  0  0  0  0
   57.5850   29.6530   45.6250 C   0  0  0  0  0  0  0  0  0  0  0  0
   58.0190   30.9710   45.7890 C   0  0  0  0  0  0  0  0  0  0  0  0
   64.4680   32.9190   48.9420 C   0  0  0  0  0  0  0  0  0  0  0  0
   64.6240   33.1750   50.4500 C   0  0  0  0  0  0  0  0  0  0  0  0
   63.1416   31.4833   52.6591 H   0  0  0  0  0  0  0  0  0  0  0  0
   62.2017   31.2037   51.1541 H   0  0  0  0  0  0  0  0  0  0  0  0
   63.9843   30.9819   51.1541 H   0  0  0  0  0  0  0  0  0  0  0  0
   63.3419   33.1320   53.3061 H   0  0  0  0  0  0  0  0  0  0  0  0
   64.3494   34.3598   52.4671 H   0  0  0  0  0  0  0  0  0  0  0  0
   62.5598   34.5143   52.4671 H   0  0  0  0  0  0  0  0  0  0  0  0
   61.6947   32.5622   49.9001 H   0  0  0  0  0  0  0  0  0  0  0  0
   61.4497   33.9591   51.0420 H   0  0  0  0  0  0  0  0  0  0  0  0
   61.6298   34.7288   48.7040 H   0  0  0  0  0  0  0  0  0  0  0  0
   63.0037   35.3187   49.7335 H   0  0  0  0  0  0  0  0  0  0  0  0
   61.8216   33.5781   47.0762 H   0  0  0  0  0  0  0  0  0  0  0  0
   63.4237   33.4879   46.2349 H   0  0  0  0  0  0  0  0  0  0  0  0
   62.7414   31.2480   46.2687 H   0  0  0  0  0  0  0  0  0  0  0  0
   63.8033   31.3865   47.7385 H   0  0  0  0  0  0  0  0  0  0  0  0
   62.0924   31.0480   49.1878 H   0  0  0  0  0  0  0  0  0  0  0  0
   60.9004   31.9227   48.1249 H   0  0  0  0  0  0  0  0  0  0  0  0
   61.1211   29.8260   46.5831 H   0  0  0  0  0  0  0  0  0  0  0  0
   61.7597   29.0257   48.0751 H   0  0  0  0  0  0  0  0  0  0  0  0
   59.2004   28.8760   47.5750 H   0  0  0  0  0  0  0  0  0  0  0  0
   59.7523   29.3065   49.2458 H   0  0  0  0  0  0  0  0  0  0  0  0
   59.8070   33.6110   48.3175 H   0  0  0  0  0  0  0  0  0  0  0  0
   60.1695   35.8728   47.2653 H   0  0  0  0  0  0  0  0  0  0  0  0
   59.4383   36.3010   44.9129 H   0  0  0  0  0  0  0  0  0  0  0  0
   58.3469   34.4710   43.5697 H   0  0  0  0  0  0  0  0  0  0  0  0
   57.3446   32.2778   42.6915 H   0  0  0  0  0  0  0  0  0  0  0  0
   56.5327   29.9156   42.3567 H   0  0  0  0  0  0  0  0  0  0  0  0
   56.7019   28.2509   44.2179 H   0  0  0  0  0  0  0  0  0  0  0  0
   57.6583   28.9264   46.4476 H   0  0  0  0  0  0  0  0  0  0  0  0
   64.0997   31.8931   48.7941 H   0  0  0  0  0  0  0  0  0  0  0  0
   65.4524   33.0655   48.4735 H   0  0  0  0  0  0  0  0  0  0  0  0
   65.3590   32.4646   50.8563 H   0  0  0  0  0  0  0  0  0  0  0  0
   64.9575   34.2145   50.5847 H   0  0  0  0  0  0  0  0  0  0  0  0
  1  2  1  0
  2  3  1  0
  2  4  1  0
  4  5  1  0
  5  6  1  0
  6  7  1  0
  7  8  1  0
  8  9  1  0
  9 10  1  0
 10 11  1  0
 11 12  1  0
 12 13  2  0
 12 14  1  0
 14 15  1  0
 15 16  2  0
 16 17  1  0
 17 18  2  0
 18 19  1  0
 19 20  2  0
 20 21  1  0
 21 22  2  0
 22 23  1  0
 23 24  2  0
 24 25  1  0
 25 26  2  0
  6 27  1  0
 27 28  1  0
 28  2  1  0
 26 14  1  0
 20 15  1  0
 26 21  1  0
  1 29  1  0
  1 30  1  0
  1 31  1  0
  3 32  1  0
  3 33  1  0
  3 34  1  0
  4 35  1  0
  4 36  1  0
  5 37  1  0
  5 38  1  0
  7 39  1  0
  7 40  1  0
  8 41  1  0
  8 42  1  0
  9 43  1  0
  9 44  1  0
 10 45  1  0
 10 46  1  0
 11 47  1  0
 11 48  1  0
 16 49  1  0
 17 50  1  0
 18 51  1  0
 19 52  1  0
 22 53  1  0
 23 54  1  0
 24 55  1  0
 25 56  1  0
 27 57  1  0
 27 58  1  0
 28 59  1  0
 28 60  1  0
M  CHG  1   2   1
M  END
>  <UniqueID>  (37) 
36

>  <SMILES>  (37) 
C[N+]1(C)CCN(CCCCCC(=O)n2c3ccccc3c3ccccc32)CC1

>  <Energy>  (37) 
121.34634541820486

>  <Genealogy>  (37) 
C[N+]1(C)CCN(CCCCCC(=O)n2c3ccccc3c3ccccc32)CC1 (3D coordinates assigned)
C[N+]1(C)CCN(CCCCCC(=O)n2c3ccccc3c3ccccc32)CC1 (nonaromatic ring conformer: 121.34634541820486 kcal/mol)

>  <smiles>  (37) 
C[N+]1(C)CCN(CCCCCC(=O)n2c3ccccc3c3ccccc32)CC1

>  <score_type>  (37) 
oracle

>  <origin>  (37) 
adg

>  <m_score__min__energy>  (37) 
-7.2400000000000002

>  <m_primary>  (37) 
energy

$$$$
37:0
     RDKit          3D

 44 45  0  0  0  0  0  0  0  0999 V2000
   60.4130   29.2910   45.6700 C   0  0  0  0  0  0  0  0  0  0  0  0
   59.4720   28.8880   44.5340 C   0  0  0  0  0  0  0  0  0  0  0  0
   58.0470   28.9720   44.9330 N   0  0  0  0  0  0  0  0  0  0  0  0
   57.6400   27.9700   45.9490 C   0  0  0  0  0  0  0  0  0  0  0  0
   57.4290   26.5580   45.3860 C   0  0  0  0  0  0  0  0  0  0  0  0
   57.1530   28.9710   43.7540 C   0  0  0  0  0  0  0  0  0  0  0  0
   56.5460   30.3590   43.5260 C   0  0  0  0  0  0  0  0  0  0  0  0
   56.4990   31.0980   44.7490 O   0  0  0  0  0  0  0  0  0  0  0  0
   57.4720   32.0050   45.2020 C   0  0  0  0  0  0  0  0  0  0  0  0
   58.1370   31.7120   46.3980 C   0  0  0  0  0  0  0  0  0  0  0  0
   59.1210   32.5730   46.8940 C   0  0  0  0  0  0  0  0  0  0  0  0
   59.4400   33.7510   46.2120 C   0  0  0  0  0  0  0  0  0  0  0  0
   60.4470   34.5800   46.7300 O   0  0  0  0  0  0  0  0  0  0  0  0
   61.5590   34.1450   47.4660 C   0  0  0  0  0  0  0  0  0  0  0  0
   62.6580   33.6200   46.7750 C   0  0  0  0  0  0  0  0  0  0  0  0
   63.7790   33.1620   47.4730 C   0  0  0  0  0  0  0  0  0  0  0  0
   63.8050   33.2140   48.8710 C   0  0  0  0  0  0  0  0  0  0  0  0
   65.2110   32.6370   49.7470 Cl  0  0  0  0  0  0  0  0  0  0  0  0
   62.7030   33.7190   49.5700 C   0  0  0  0  0  0  0  0  0  0  0  0
   61.5810   34.1780   48.8720 C   0  0  0  0  0  0  0  0  0  0  0  0
   58.7780   34.0490   45.0070 C   0  0  0  0  0  0  0  0  0  0  0  0
   57.7940   33.1890   44.5120 C   0  0  0  0  0  0  0  0  0  0  0  0
   59.9304   29.0843   46.6366 H   0  0  0  0  0  0  0  0  0  0  0  0
   61.3463   28.7137   45.5953 H   0  0  0  0  0  0  0  0  0  0  0  0
   60.6392   30.3649   45.5953 H   0  0  0  0  0  0  0  0  0  0  0  0
   59.6409   29.5590   43.6788 H   0  0  0  0  0  0  0  0  0  0  0  0
   59.6884   27.8423   44.2702 H   0  0  0  0  0  0  0  0  0  0  0  0
   58.4235   27.9213   46.7196 H   0  0  0  0  0  0  0  0  0  0  0  0
   56.6703   28.3002   46.3499 H   0  0  0  0  0  0  0  0  0  0  0  0
   57.3224   25.8444   46.2163 H   0  0  0  0  0  0  0  0  0  0  0  0
   56.5184   26.5415   44.7691 H   0  0  0  0  0  0  0  0  0  0  0  0
   58.2950   26.2760   44.7691 H   0  0  0  0  0  0  0  0  0  0  0  0
   57.7308   28.6802   42.8643 H   0  0  0  0  0  0  0  0  0  0  0  0
   56.3366   28.2559   43.9330 H   0  0  0  0  0  0  0  0  0  0  0  0
   57.1611   30.9066   42.7968 H   0  0  0  0  0  0  0  0  0  0  0  0
   55.5206   30.2382   43.1466 H   0  0  0  0  0  0  0  0  0  0  0  0
   57.8835   30.7965   46.9527 H   0  0  0  0  0  0  0  0  0  0  0  0
   59.6474   32.3218   47.8267 H   0  0  0  0  0  0  0  0  0  0  0  0
   62.6390   33.5677   45.6764 H   0  0  0  0  0  0  0  0  0  0  0  0
   64.6422   32.7600   46.9223 H   0  0  0  0  0  0  0  0  0  0  0  0
   62.7190   33.7551   50.6693 H   0  0  0  0  0  0  0  0  0  0  0  0
   60.7127   34.5662   49.4247 H   0  0  0  0  0  0  0  0  0  0  0  0
   59.0361   34.9630   44.4520 H   0  0  0  0  0  0  0  0  0  0  0  0
   57.2684   33.4385   43.5785 H   0  0  0  0  0  0  0  0  0  0  0  0
  1  2  1  0
  2  3  1  0
  3  4  1  0
  4  5  1  0
  3  6  1  0
  6  7  1  0
  7  8  1  0
  8  9  1  0
  9 10  2  0
 10 11  1  0
 11 12  2  0
 12 13  1  0
 13 14  1  0
 14 15  2  0
 15 16  1  0
 16 17  2  0
 17 18  1  0
 17 19  1  0
 19 20  2  0
 12 21  1  0
 21 22  2  0
 22  9  1  0
 20 14  1  0
  1 23  1  0
  1 24  1  0
  1 25  1  0
  2 26  1  0
  2 27  1  0
  4 28  1  0
  4 29  1  0
  5 30  1  0
  5 31  1  0
  5 32  1  0
  6 33  1  0
  6 34  1  0
  7 35  1  0
  7 36  1  0
 10 37  1  0
 11 38  1  0
 15 39  1  0
 16 40  1  0
 19 41  1  0
 20 42  1  0
 21 43  1  0
 22 44  1  0
M  END
>  <UniqueID>  (38) 
37

>  <SMILES>  (38) 
CCN(CC)CCOc1ccc(Oc2ccc(Cl)cc2)cc1

>  <Energy>  (38) 
50.5586171564121

>  <Genealogy>  (38) 
CCN(CC)CCOc1ccc(Oc2ccc(Cl)cc2)cc1 (3D coordinates assigned)
CCN(CC)CCOc1ccc(Oc2ccc(Cl)cc2)cc1 (optimized conformer: 50.5586171564121 kcal/mol)

>  <smiles>  (38) 
CCN(CC)CCOc1ccc(Oc2ccc(Cl)cc2)cc1

>  <score_type>  (38) 
oracle

>  <origin>  (38) 
adg

>  <m_score__min__energy>  (38) 
-6.9100000000000001

>  <m_primary>  (38) 
energy

$$$$
38:0
     RDKit          3D

 39 41  0  0  0  0  0  0  0  0999 V2000
   56.6750   30.4670   43.5060 C   0  0  0  0  0  0  0  0  0  0  0  0
   56.6300   31.2070   44.7210 O   0  0  0  0  0  0  0  0  0  0  0  0
   57.7620   31.6570   45.4170 C   0  0  0  0  0  0  0  0  0  0  0  0
   58.0710   33.0230   45.5550 C   0  0  0  0  0  0  0  0  0  0  0  0
   59.2150   33.4200   46.2520 C   0  0  0  0  0  0  0  0  0  0  0  0
   60.0740   32.4620   46.8110 C   0  0  0  0  0  0  0  0  0  0  0  0
   61.2750   32.8780   47.5640 C   0  0  0  0  0  0  0  0  0  0  0  0
   62.5320   32.4080   47.1440 C   0  0  0  0  0  0  0  0  0  0  0  0
   63.6890   32.7430   47.8510 C   0  0  0  0  0  0  0  0  0  0  0  0
   63.6050   33.5490   48.9870 C   0  0  0  0  0  0  0  0  0  0  0  0
   62.3660   34.0340   49.4090 C   0  0  0  0  0  0  0  0  0  0  0  0
   61.1980   33.7220   48.6990 C   0  0  0  0  0  0  0  0  0  0  0  0
   59.6440   34.4480   49.2600 S   0  0  0  0  0  0  0  0  0  0  0  0
   59.2490   33.0670   50.3480 C   0  0  0  0  0  0  0  0  0  0  0  0
   59.3570   31.7620   49.8450 C   0  0  0  0  0  0  0  0  0  0  0  0
   59.1090   30.6630   50.6710 C   0  0  0  0  0  0  0  0  0  0  0  0
   58.7410   30.8580   52.0020 C   0  0  0  0  0  0  0  0  0  0  0  0
   58.6000   32.1540   52.5060 C   0  0  0  0  0  0  0  0  0  0  0  0
   58.8350   33.2670   51.6840 C   0  0  0  0  0  0  0  0  0  0  0  0
   58.6060   34.5800   52.2090 N   0  0  0  0  0  0  0  0  0  0  0  0
   59.7560   31.1000   46.6890 C   0  0  0  0  0  0  0  0  0  0  0  0
   58.6110   30.7040   45.9920 C   0  0  0  0  0  0  0  0  0  0  0  0
   56.7403   29.3927   43.7332 H   0  0  0  0  0  0  0  0  0  0  0  0
   55.7632   30.6637   42.9229 H   0  0  0  0  0  0  0  0  0  0  0  0
   57.5562   30.7727   42.9229 H   0  0  0  0  0  0  0  0  0  0  0  0
   57.4089   33.7816   45.1121 H   0  0  0  0  0  0  0  0  0  0  0  0
   59.4435   34.4902   46.3631 H   0  0  0  0  0  0  0  0  0  0  0  0
   62.6047   31.7706   46.2504 H   0  0  0  0  0  0  0  0  0  0  0  0
   64.6672   32.3712   47.5121 H   0  0  0  0  0  0  0  0  0  0  0  0
   64.5154   33.8022   49.5501 H   0  0  0  0  0  0  0  0  0  0  0  0
   62.3055   34.6667   50.3068 H   0  0  0  0  0  0  0  0  0  0  0  0
   59.6387   31.6030   48.7936 H   0  0  0  0  0  0  0  0  0  0  0  0
   59.2041   29.6427   50.2711 H   0  0  0  0  0  0  0  0  0  0  0  0
   58.5616   29.9915   52.6554 H   0  0  0  0  0  0  0  0  0  0  0  0
   58.3027   32.3027   53.5546 H   0  0  0  0  0  0  0  0  0  0  0  0
   58.4500   35.4020   51.5860 H   0  0  0  0  0  0  0  0  0  0  0  0
   58.5230   34.7350   53.2380 H   0  0  0  0  0  0  0  0  0  0  0  0
   60.4104   30.3417   47.1436 H   0  0  0  0  0  0  0  0  0  0  0  0
   58.3749   29.6341   45.8944 H   0  0  0  0  0  0  0  0  0  0  0  0
  1  2  1  0
  2  3  1  0
  3  4  2  0
  4  5  1  0
  5  6  2  0
  6  7  1  0
  7  8  2  0
  8  9  1  0
  9 10  2  0
 10 11  1  0
 11 12  2  0
 12 13  1  0
 13 14  1  0
 14 15  2  0
 15 16  1  0
 16 17  2  0
 17 18  1  0
 18 19  2  0
 19 20  1  0
  6 21  1  0
 21 22  2  0
 22  3  1  0
 12  7  1  0
 19 14  1  0
  1 23  1  0
  1 24  1  0
  1 25  1  0
  4 26  1  0
  5 27  1  0
  8 28  1  0
  9 29  1  0
 10 30  1  0
 11 31  1  0
 15 32  1  0
 16 33  1  0
 17 34  1  0
 18 35  1  0
 20 36  1  0
 20 37  1  0
 21 38  1  0
 22 39  1  0
M  END
>  <UniqueID>  (39) 
38

>  <SMILES>  (39) 
COc1ccc(-c2ccccc2Sc2ccccc2N)cc1

>  <Energy>  (39) 
43.57880960100767

>  <Genealogy>  (39) 
COc1ccc(-c2ccccc2Sc2ccccc2N)cc1 (3D coordinates assigned)
COc1ccc(-c2ccccc2Sc2ccccc2N)cc1 (optimized conformer: 43.57880960100767 kcal/mol)

>  <smiles>  (39) 
COc1ccc(-c2ccccc2Sc2ccccc2N)cc1

>  <score_type>  (39) 
oracle

>  <origin>  (39) 
adg

>  <m_score__min__energy>  (39) 
-7.0899999999999999

>  <m_primary>  (39) 
energy

$$$$
39:0
     RDKit          3D

 61 65  0  0  0  0  0  0  0  0999 V2000
   58.1260   27.1040   43.1220 C   0  0  0  0  0  0  0  0  0  0  0  0
   59.0210   27.8410   44.1220 C   0  0  0  0  0  0  0  0  0  0  0  0
   58.7770   27.4050   45.5790 C   0  0  0  0  0  0  0  0  0  0  0  0
   58.5210   28.5720   46.5450 C   0  0  0  0  0  0  0  0  0  0  0  0
   57.8870   29.7130   45.8790 N   0  0  0  0  0  0  0  0  0  0  0  0
   56.7210   29.7280   45.1810 C   0  0  0  0  0  0  0  0  0  0  0  0
   56.0060   28.7090   44.9930 O   0  0  0  0  0  0  0  0  0  0  0  0
   56.4060   30.9270   44.7240 O   0  0  0  0  0  0  0  0  0  0  0  0
   57.3630   31.7240   45.1340 C   0  0  0  0  0  0  0  0  0  0  0  0
   57.4930   33.0930   44.9300 C   0  0  0  0  0  0  0  0  0  0  0  0
   58.5970   33.7390   45.5170 C   0  0  0  0  0  0  0  0  0  0  0  0
   59.5330   33.0080   46.2940 C   0  0  0  0  0  0  0  0  0  0  0  0
   60.6770   33.7220   46.9630 C   0  0  0  0  0  0  0  0  0  0  0  0
   60.4630   33.8750   48.4750 C   0  0  0  0  0  0  0  0  0  0  0  0
   61.5380   33.2190   49.2580 N   0  0  0  0  0  0  0  0  0  0  0  0
   61.2390   32.3500   50.2870 C   0  0  0  0  0  0  0  0  0  0  0  0
   59.8550   32.0540   50.7050 C   0  0  0  0  0  0  0  0  0  0  0  0
   59.1230   32.9840   51.4580 C   0  0  0  0  0  0  0  0  0  0  0  0
   57.8250   32.6830   51.8820 C   0  0  0  0  0  0  0  0  0  0  0  0
   57.2520   31.4400   51.5730 C   0  0  0  0  0  0  0  0  0  0  0  0
   55.8570   31.1050   52.0130 C   0  0  0  0  0  0  0  0  0  0  0  0
   57.9930   30.5010   50.8400 C   0  0  0  0  0  0  0  0  0  0  0  0
   59.2920   30.8030   50.4180 C   0  0  0  0  0  0  0  0  0  0  0  0
   62.2330   31.7170   50.9600 N   0  0  0  0  0  0  0  0  0  0  0  0
   63.5370   31.9310   50.6750 C   0  0  0  0  0  0  0  0  0  0  0  0
   64.5310   31.2710   51.4080 C   0  0  0  0  0  0  0  0  0  0  0  0
   65.8800   31.5100   51.1290 C   0  0  0  0  0  0  0  0  0  0  0  0
   66.2370   32.4070   50.1200 C   0  0  0  0  0  0  0  0  0  0  0  0
   65.2490   33.0590   49.3750 C   0  0  0  0  0  0  0  0  0  0  0  0
   63.8870   32.8230   49.6480 C   0  0  0  0  0  0  0  0  0  0  0  0
   62.8560   33.4490   48.9300 C   0  0  0  0  0  0  0  0  0  0  0  0
   63.1500   34.2220   47.9750 O   0  0  0  0  0  0  0  0  0  0  0  0
   59.3850   31.6100   46.4470 C   0  0  0  0  0  0  0  0  0  0  0  0
   58.2790   31.0030   45.8510 C   0  0  0  0  0  0  0  0  0  0  0  0
   57.3888   26.4969   43.6678 H   0  0  0  0  0  0  0  0  0  0  0  0
   57.6022   27.8361   42.4899 H   0  0  0  0  0  0  0  0  0  0  0  0
   58.7440   26.4495   42.4899 H   0  0  0  0  0  0  0  0  0  0  0  0
   60.0720   27.6402   43.8668 H   0  0  0  0  0  0  0  0  0  0  0  0
   58.7807   28.9122   44.0532 H   0  0  0  0  0  0  0  0  0  0  0  0
   57.9007   26.7404   45.5992 H   0  0  0  0  0  0  0  0  0  0  0  0
   59.6954   26.9047   45.9200 H   0  0  0  0  0  0  0  0  0  0  0  0
   57.8627   28.2238   47.3546 H   0  0  0  0  0  0  0  0  0  0  0  0
   59.4934   28.9066   46.9356 H   0  0  0  0  0  0  0  0  0  0  0  0
   56.7588   33.6516   44.3309 H   0  0  0  0  0  0  0  0  0  0  0  0
   58.7357   34.8206   45.3722 H   0  0  0  0  0  0  0  0  0  0  0  0
   61.6001   33.1487   46.7925 H   0  0  0  0  0  0  0  0  0  0  0  0
   60.7447   34.7304   46.5287 H   0  0  0  0  0  0  0  0  0  0  0  0
   60.4453   34.9462   48.7244 H   0  0  0  0  0  0  0  0  0  0  0  0
   59.5102   33.3900   48.7338 H   0  0  0  0  0  0  0  0  0  0  0  0
   59.5721   33.9544   51.7161 H   0  0  0  0  0  0  0  0  0  0  0  0
   57.2514   33.4229   52.4595 H   0  0  0  0  0  0  0  0  0  0  0  0
   55.8118   31.0942   53.1120 H   0  0  0  0  0  0  0  0  0  0  0  0
   55.1586   31.8610   51.6248 H   0  0  0  0  0  0  0  0  0  0  0  0
   55.5780   30.1143   51.6248 H   0  0  0  0  0  0  0  0  0  0  0  0
   57.5509   29.5237   50.5962 H   0  0  0  0  0  0  0  0  0  0  0  0
   59.8739   30.0557   49.8587 H   0  0  0  0  0  0  0  0  0  0  0  0
   64.2505   30.5646   52.2032 H   0  0  0  0  0  0  0  0  0  0  0  0
   66.6606   30.9911   51.7047 H   0  0  0  0  0  0  0  0  0  0  0  0
   67.2992   32.6015   49.9103 H   0  0  0  0  0  0  0  0  0  0  0  0
   65.5357   33.7571   48.5747 H   0  0  0  0  0  0  0  0  0  0  0  0
   60.1179   31.0203   47.0173 H   0  0  0  0  0  0  0  0  0  0  0  0
  1  2  1  0
  2  3  1  0
  3  4  1  0
  4  5  1  0
  5  6  1  0
  6  7  2  0
  6  8  1  0
  8  9  1  0
  9 10  2  0
 10 11  1  0
 11 12  2  0
 12 13  1  0
 13 14  1  0
 14 15  1  0
 15 16  1  0
 16 17  1  0
 17 18  2  0
 18 19  1  0
 19 20  2  0
 20 21  1  0
 20 22  1  0
 22 23  2  0
 16 24  2  0
 24 25  1  0
 25 26  2  0
 26 27  1  0
 27 28  2  0
 28 29  1  0
 29 30  2  0
 30 31  1  0
 31 32  2  0
 12 33  1  0
 33 34  2  0
 34  5  1  0
 34  9  1  0
 31 15  1  0
 23 17  1  0
 30 25  1  0
  1 35  1  0
  1 36  1  0
  1 37  1  0
  2 38  1  0
  2 39  1  0
  3 40  1  0
  3 41  1  0
  4 42  1  0
  4 43  1  0
 10 44  1  0
 11 45  1  0
 13 46  1  0
 13 47  1  0
 14 48  1  0
 14 49  1  0
 18 50  1  0
 19 51  1  0
 21 52  1  0
 21 53  1  0
 21 54  1  0
 22 55  1  0
 23 56  1  0
 26 57  1  0
 27 58  1  0
 28 59  1  0
 29 60  1  0
 33 61  1  0
M  END
>  <UniqueID>  (40) 
39

>  <SMILES>  (40) 
CCCCn1c(=O)oc2ccc(CCn3c(-c4ccc(C)cc4)nc4ccccc4c3=O)cc21

>  <Energy>  (40) 
111.27443151862855

>  <Genealogy>  (40) 
CCCCn1c(=O)oc2ccc(CCn3c(-c4ccc(C)cc4)nc4ccccc4c3=O)cc21 (3D coordinates assigned)
CCCCn1c(=O)oc2ccc(CCn3c(-c4ccc(C)cc4)nc4ccccc4c3=O)cc21 (optimized conformer: 111.27443151862855 kcal/mol)

>  <smiles>  (40) 
CCCCn1c(=O)oc2ccc(CCn3c(-c4ccc(C)cc4)nc4ccccc4c3=O)cc21

>  <score_type>  (40) 
oracle

>  <origin>  (40) 
adg

>  <m_score__min__energy>  (40) 
-9.3499999999999996

>  <m_primary>  (40) 
energy

$$$$
40:0
     RDKit          3D

 42 44  0  0  0  0  0  0  0  0999 V2000
   55.6930   28.5790   45.2370 O   0  0  0  0  0  0  0  0  0  0  0  0
   56.6890   29.2710   44.8910 C   0  0  0  0  0  0  0  0  0  0  0  0
   56.4770   30.3800   43.8940 C   0  0  0  0  0  0  0  0  0  0  0  0
   56.5990   31.6420   44.5210 O   0  0  0  0  0  0  0  0  0  0  0  0
   57.7400   32.3300   44.0490 C   0  0  0  0  0  0  0  0  0  0  0  0
   58.3360   33.1040   45.1880 C   0  0  0  0  0  0  0  0  0  0  0  0
   58.0280   32.7680   46.5170 C   0  0  0  0  0  0  0  0  0  0  0  0
   58.5430   33.5300   47.5710 C   0  0  0  0  0  0  0  0  0  0  0  0
   59.3560   34.6360   47.3060 C   0  0  0  0  0  0  0  0  0  0  0  0
   59.6540   34.9830   45.9850 C   0  0  0  0  0  0  0  0  0  0  0  0
   59.1430   34.2240   44.9290 C   0  0  0  0  0  0  0  0  0  0  0  0
   57.9810   29.0100   45.4820 N   0  0  0  0  0  0  0  0  0  0  0  0
   58.1200   28.2970   46.7620 C   0  0  0  0  0  0  0  0  0  0  0  0
   59.1970   27.2030   46.6710 C   0  0  0  0  0  0  0  0  0  0  0  0
   60.4060   27.5890   45.7920 C   0  0  0  0  0  0  0  0  0  0  0  0
   60.4880   29.0990   45.4990 C   0  0  2  0  0  0  0  0  0  0  0  0
   60.7740   29.8620   46.7230 N   0  0  0  0  0  0  0  0  0  0  0  0
   61.0750   31.1540   46.7240 N   0  0  0  0  0  0  0  0  0  0  0  0
   61.1820   31.5140   48.0160 C   0  0  0  0  0  0  0  0  0  0  0  0
   60.9140   30.4040   48.7850 C   0  0  0  0  0  0  0  0  0  0  0  0
   60.6490   29.3830   47.9540 N   0  0  0  0  0  0  0  0  0  0  0  0
   59.1780   29.5510   44.8140 C   0  0  0  0  0  0  0  0  0  0  0  0
   57.2301   30.2981   43.0964 H   0  0  0  0  0  0  0  0  0  0  0  0
   55.4652   30.2895   43.4721 H   0  0  0  0  0  0  0  0  0  0  0  0
   58.4762   31.6080   43.6659 H   0  0  0  0  0  0  0  0  0  0  0  0
   57.4570   33.0148   43.2360 H   0  0  0  0  0  0  0  0  0  0  0  0
   57.3808   31.9042   46.7290 H   0  0  0  0  0  0  0  0  0  0  0  0
   58.3078   33.2584   48.6106 H   0  0  0  0  0  0  0  0  0  0  0  0
   59.7610   35.2329   48.1365 H   0  0  0  0  0  0  0  0  0  0  0  0
   60.2916   35.8548   45.7766 H   0  0  0  0  0  0  0  0  0  0  0  0
   59.3736   34.5047   43.8907 H   0  0  0  0  0  0  0  0  0  0  0  0
   58.4031   29.0159   47.5450 H   0  0  0  0  0  0  0  0  0  0  0  0
   57.1580   27.8216   47.0039 H   0  0  0  0  0  0  0  0  0  0  0  0
   59.5611   26.9897   47.6868 H   0  0  0  0  0  0  0  0  0  0  0  0
   58.7253   26.3281   46.1998 H   0  0  0  0  0  0  0  0  0  0  0  0
   61.3266   27.2834   46.3106 H   0  0  0  0  0  0  0  0  0  0  0  0
   60.2845   27.0756   44.8267 H   0  0  0  0  0  0  0  0  0  0  0  0
   61.3241   29.2991   44.8128 H   0  0  0  0  0  0  0  0  0  0  0  0
   61.4379   32.5160   48.3908 H   0  0  0  0  0  0  0  0  0  0  0  0
   60.9165   30.3611   49.8842 H   0  0  0  0  0  0  0  0  0  0  0  0
   59.1287   30.6497   44.8354 H   0  0  0  0  0  0  0  0  0  0  0  0
   59.1889   29.1689   43.7826 H   0  0  0  0  0  0  0  0  0  0  0  0
  1  2  2  0
  2  3  1  0
  3  4  1  0
  4  5  1  0
  5  6  1  0
  6  7  2  0
  7  8  1  0
  8  9  2  0
  9 10  1  0
 10 11  2  0
  2 12  1  0
 12 13  1  0
 13 14  1  0
 14 15  1  0
 15 16  1  0
 16 17  1  0
 17 18  1  0
 18 19  2  0
 19 20  1  0
 20 21  2  0
 16 22  1  0
 11  6  1  0
 22 12  1  0
 21 17  1  0
  3 23  1  0
  3 24  1  0
  5 25  1  0
  5 26  1  0
  7 27  1  0
  8 28  1  0
  9 29  1  0
 10 30  1  0
 11 31  1  0
 13 32  1  0
 13 33  1  0
 14 34  1  0
 14 35  1  0
 15 36  1  0
 15 37  1  0
 16 38  1  6
 19 39  1  0
 20 40  1  0
 22 41  1  0
 22 42  1  0
M  END
>  <UniqueID>  (41) 
40

>  <SMILES>  (41) 
O=C(COCc1ccccc1)N1CCC[C@H](n2nccn2)C1

>  <Energy>  (41) 
80.46597004217394

>  <Genealogy>  (41) 
O=C(COCc1ccccc1)N1CCC[C@H](n2nccn2)C1 (chirality)
O=C(COCc1ccccc1)N1CCC[C@H](n2nccn2)C1 (3D coordinates assigned)
O=C(COCc1ccccc1)N1CCC[C@H](n2nccn2)C1 (nonaromatic ring conformer: 80.46597004217394 kcal/mol)

>  <smiles>  (41) 
O=C(COCc1ccccc1)N1CCCC(n2nccn2)C1

>  <score_type>  (41) 
oracle

>  <origin>  (41) 
adg

>  <m_score__min__energy>  (41) 
-7.6200000000000001

>  <m_primary>  (41) 
energy

$$$$
41:0
     RDKit          3D

 40 42  0  0  0  0  0  0  0  0999 V2000
   57.0330   31.2420   42.5050 C   0  0  0  0  0  0  0  0  0  0  0  0
   56.5030   30.0550   42.8130 C   0  0  0  0  0  0  0  0  0  0  0  0
   55.5420   29.8970   43.9570 C   0  0  0  0  0  0  0  0  0  0  0  0
   56.2520   30.0400   45.2340 N   0  0  0  0  0  0  0  0  0  0  0  0
   57.4450   29.1870   45.2540 C   0  0  0  0  0  0  0  0  0  0  0  0
   58.6190   29.9710   45.7720 C   0  0  0  0  0  0  0  0  0  0  0  0
   59.7710   29.3090   46.2220 C   0  0  0  0  0  0  0  0  0  0  0  0
   60.8460   30.0360   46.7380 C   0  0  0  0  0  0  0  0  0  0  0  0
   60.7910   31.4410   46.8200 C   0  0  0  0  0  0  0  0  0  0  0  0
   61.9480   32.1940   47.3740 C   0  0  0  0  0  0  0  0  0  0  0  0
   62.3590   33.4520   46.9250 C   0  0  0  0  0  0  0  0  0  0  0  0
   63.7030   33.9090   47.8240 S   0  0  0  0  0  0  0  0  0  0  0  0
   63.7180   32.5030   48.7480 C   0  0  0  0  0  0  0  0  0  0  0  0
   64.6880   32.1780   49.8180 C   0  0  0  0  0  0  0  0  0  0  0  0
   65.9520   32.7900   49.8630 C   0  0  0  0  0  0  0  0  0  0  0  0
   66.8450   32.4620   50.8860 C   0  0  0  0  0  0  0  0  0  0  0  0
   66.4950   31.5540   51.8360 N   0  0  0  0  0  0  0  0  0  0  0  0
   65.2790   30.9450   51.8190 C   0  0  0  0  0  0  0  0  0  0  0  0
   64.3560   31.2450   50.8140 C   0  0  0  0  0  0  0  0  0  0  0  0
   62.7100   31.6810   48.3810 N   0  0  0  0  0  0  0  0  0  0  0  0
   59.6230   32.0970   46.3880 C   0  0  0  0  0  0  0  0  0  0  0  0
   58.5470   31.3670   45.8720 C   0  0  0  0  0  0  0  0  0  0  0  0
   57.7342   31.3292   41.6620 H   0  0  0  0  0  0  0  0  0  0  0  0
   56.7682   32.1322   43.0944 H   0  0  0  0  0  0  0  0  0  0  0  0
   56.7765   29.1730   42.2153 H   0  0  0  0  0  0  0  0  0  0  0  0
   54.7614   30.6688   43.8860 H   0  0  0  0  0  0  0  0  0  0  0  0
   55.0848   28.8977   43.9085 H   0  0  0  0  0  0  0  0  0  0  0  0
   55.6100   29.7100   45.9950 H   0  0  0  0  0  0  0  0  0  0  0  0
   57.2652   28.3219   45.9091 H   0  0  0  0  0  0  0  0  0  0  0  0
   57.6611   28.8384   44.2333 H   0  0  0  0  0  0  0  0  0  0  0  0
   59.8279   28.2118   46.1682 H   0  0  0  0  0  0  0  0  0  0  0  0
   61.7454   29.5056   47.0841 H   0  0  0  0  0  0  0  0  0  0  0  0
   61.8860   34.0394   46.1242 H   0  0  0  0  0  0  0  0  0  0  0  0
   66.2373   33.5246   49.0956 H   0  0  0  0  0  0  0  0  0  0  0  0
   67.8350   32.9400   50.9233 H   0  0  0  0  0  0  0  0  0  0  0  0
   67.1740   31.3200   52.5940 H   0  0  0  0  0  0  0  0  0  0  0  0
   65.0213   30.2137   52.5993 H   0  0  0  0  0  0  0  0  0  0  0  0
   63.3726   30.7522   50.8028 H   0  0  0  0  0  0  0  0  0  0  0  0
   59.5557   33.1928   46.4567 H   0  0  0  0  0  0  0  0  0  0  0  0
   57.6384   31.8922   45.5426 H   0  0  0  0  0  0  0  0  0  0  0  0
  1  2  2  0
  2  3  1  0
  3  4  1  0
  4  5  1  0
  5  6  1  0
  6  7  2  0
  7  8  1  0
  8  9  2  0
  9 10  1  0
 10 11  2  0
 11 12  1  0
 12 13  1  0
 13 14  1  0
 14 15  2  0
 15 16  1  0
 16 17  2  0
 17 18  1  0
 18 19  2  0
 13 20  2  0
  9 21  1  0
 21 22  2  0
 22  6  1  0
 20 10  1  0
 19 14  1  0
  1 23  1  0
  1 24  1  0
  2 25  1  0
  3 26  1  0
  3 27  1  0
  4 28  1  0
  5 29  1  0
  5 30  1  0
  7 31  1  0
  8 32  1  0
 11 33  1  0
 15 34  1  0
 16 35  1  0
 17 36  1  0
 18 37  1  0
 19 38  1  0
 21 39  1  0
 22 40  1  0
M  CHG  1  17   1
M  END
>  <UniqueID>  (42) 
41

>  <SMILES>  (42) 
C=CCNCc1ccc(-c2csc(-c3cc[nH+]cc3)n2)cc1

>  <Energy>  (42) 
69.71226010710315

>  <Genealogy>  (42) 
C=CCNCc1ccc(-c2csc(-c3cc[nH+]cc3)n2)cc1 (protonated)
C=CCNCc1ccc(-c2csc(-c3cc[nH+]cc3)n2)cc1 (3D coordinates assigned)
C=CCNCc1ccc(-c2csc(-c3cc[nH+]cc3)n2)cc1 (optimized conformer: 69.71226010710315 kcal/mol)

>  <smiles>  (42) 
C=CCNCc1ccc(-c2csc(-c3ccncc3)n2)cc1

>  <score_type>  (42) 
oracle

>  <origin>  (42) 
adg

>  <m_score__min__energy>  (42) 
-6.1299999999999999

>  <m_primary>  (42) 
energy

$$$$
42:0
     RDKit          3D

 56 58  0  0  0  0  0  0  0  0999 V2000
   56.3450   29.7400   43.0270 C   0  0  0  0  0  0  0  0  0  0  0  0
   56.6580   30.7720   44.1090 C   0  0  0  0  0  0  0  0  0  0  0  0
   57.4680   31.9640   43.5760 C   0  0  0  0  0  0  0  0  0  0  0  0
   57.3930   33.1880   44.5000 C   0  0  0  0  0  0  0  0  0  0  0  0
   58.5640   33.2050   45.4480 C   0  0  0  0  0  0  0  0  0  0  0  0
   59.2970   34.3860   45.6460 C   0  0  0  0  0  0  0  0  0  0  0  0
   60.4030   34.3930   46.4990 C   0  0  0  0  0  0  0  0  0  0  0  0
   60.7930   33.2200   47.1660 C   0  0  0  0  0  0  0  0  0  0  0  0
   61.9780   33.2210   48.0500 C   0  0  0  0  0  0  0  0  0  0  0  0
   63.2430   33.1310   47.4570 C   0  0  0  0  0  0  0  0  0  0  0  0
   64.3990   33.1890   48.2290 C   0  0  0  0  0  0  0  0  0  0  0  0
   64.3310   33.3360   49.6230 C   0  0  0  0  0  0  0  0  0  0  0  0
   65.5470   33.4660   50.3860 N   0  0  0  0  0  0  0  0  0  0  0  0
   66.4250   32.3270   50.6600 C   0  0  0  0  0  0  0  0  0  0  0  0
   67.8750   32.8030   50.8870 C   0  0  0  0  0  0  0  0  0  0  0  0
   68.0520   34.2720   50.8410 N   0  0  0  0  0  0  0  0  0  0  0  0
   67.9860   34.9000   52.1710 C   0  0  0  0  0  0  0  0  0  0  0  0
   69.2650   34.6830   50.1180 C   0  0  0  0  0  0  0  0  0  0  0  0
   63.0580   33.3840   50.2490 C   0  0  0  0  0  0  0  0  0  0  0  0
   62.9230   33.4480   51.6500 C   0  0  0  0  0  0  0  0  0  0  0  0
   61.6600   33.4760   52.2350 C   0  0  0  0  0  0  0  0  0  0  0  0
   60.5290   33.4210   51.4300 C   0  0  0  0  0  0  0  0  0  0  0  0
   60.6500   33.3380   50.0790 N   0  0  0  0  0  0  0  0  0  0  0  0
   61.8740   33.3260   49.4590 C   0  0  0  0  0  0  0  0  0  0  0  0
   60.0750   32.0330   46.9460 C   0  0  0  0  0  0  0  0  0  0  0  0
   58.9690   32.0260   46.0930 C   0  0  0  0  0  0  0  0  0  0  0  0
   56.0567   28.7894   43.4994 H   0  0  0  0  0  0  0  0  0  0  0  0
   55.5170   30.1044   42.4012 H   0  0  0  0  0  0  0  0  0  0  0  0
   57.2360   29.5831   42.4012 H   0  0  0  0  0  0  0  0  0  0  0  0
   55.7100   31.1473   44.5219 H   0  0  0  0  0  0  0  0  0  0  0  0
   57.2675   30.2733   44.8770 H   0  0  0  0  0  0  0  0  0  0  0  0
   58.5206   31.6597   43.4788 H   0  0  0  0  0  0  0  0  0  0  0  0
   57.0382   32.2520   42.6053 H   0  0  0  0  0  0  0  0  0  0  0  0
   57.4073   34.1034   43.8903 H   0  0  0  0  0  0  0  0  0  0  0  0
   56.4625   33.1366   45.0843 H   0  0  0  0  0  0  0  0  0  0  0  0
   58.9991   35.3092   45.1274 H   0  0  0  0  0  0  0  0  0  0  0  0
   60.9718   35.3224   46.6493 H   0  0  0  0  0  0  0  0  0  0  0  0
   63.3240   33.0129   46.3664 H   0  0  0  0  0  0  0  0  0  0  0  0
   65.3814   33.1185   47.7392 H   0  0  0  0  0  0  0  0  0  0  0  0
   65.8150   34.4050   50.7580 H   0  0  0  0  0  0  0  0  0  0  0  0
   66.0703   31.8054   51.5611 H   0  0  0  0  0  0  0  0  0  0  0  0
   66.4055   31.6474   49.7952 H   0  0  0  0  0  0  0  0  0  0  0  0
   68.2026   32.4480   51.8753 H   0  0  0  0  0  0  0  0  0  0  0  0
   68.4734   32.3893   50.0619 H   0  0  0  0  0  0  0  0  0  0  0  0
   68.0675   34.1247   52.9470 H   0  0  0  0  0  0  0  0  0  0  0  0
   68.8138   35.6161   52.2798 H   0  0  0  0  0  0  0  0  0  0  0  0
   67.0274   35.4284   52.2798 H   0  0  0  0  0  0  0  0  0  0  0  0
   70.0503   34.9491   50.8409 H   0  0  0  0  0  0  0  0  0  0  0  0
   69.6142   33.8530   49.4862 H   0  0  0  0  0  0  0  0  0  0  0  0
   69.0378   35.5543   49.4862 H   0  0  0  0  0  0  0  0  0  0  0  0
   63.8206   33.4760   52.2852 H   0  0  0  0  0  0  0  0  0  0  0  0
   61.5581   33.5413   53.3283 H   0  0  0  0  0  0  0  0  0  0  0  0
   59.5296   33.4448   51.8890 H   0  0  0  0  0  0  0  0  0  0  0  0
   59.7650   33.2610   49.5310 H   0  0  0  0  0  0  0  0  0  0  0  0
   60.3852   31.1046   47.4478 H   0  0  0  0  0  0  0  0  0  0  0  0
   58.4126   31.0919   45.9259 H   0  0  0  0  0  0  0  0  0  0  0  0
  1  2  1  0
  2  3  1  0
  3  4  1  0
  4  5  1  0
  5  6  2  0
  6  7  1  0
  7  8  2  0
  8  9  1  0
  9 10  2  0
 10 11  1  0
 11 12  2  0
 12 13  1  0
 13 14  1  0
 14 15  1  0
 15 16  1  0
 16 17  1  0
 16 18  1  0
 12 19  1  0
 19 20  2  0
 20 21  1  0
 21 22  2  0
 22 23  1  0
 23 24  2  0
  8 25  1  0
 25 26  2  0
 26  5  1  0
 24  9  1  0
 24 19  1  0
  1 27  1  0
  1 28  1  0
  1 29  1  0
  2 30  1  0
  2 31  1  0
  3 32  1  0
  3 33  1  0
  4 34  1  0
  4 35  1  0
  6 36  1  0
  7 37  1  0
 10 38  1  0
 11 39  1  0
 13 40  1  0
 14 41  1  0
 14 42  1  0
 15 43  1  0
 15 44  1  0
 17 45  1  0
 17 46  1  0
 17 47  1  0
 18 48  1  0
 18 49  1  0
 18 50  1  0
 20 51  1  0
 21 52  1  0
 22 53  1  0
 23 54  1  0
 25 55  1  0
 26 56  1  0
M  CHG  1  23   1
M  END
>  <UniqueID>  (43) 
42

>  <SMILES>  (43) 
CCCCc1ccc(-c2ccc(NCCN(C)C)c3ccc[nH+]c23)cc1

>  <Energy>  (43) 
67.91276623644555

>  <Genealogy>  (43) 
CCCCc1ccc(-c2ccc(NCCN(C)C)c3ccc[nH+]c23)cc1 (protonated)
CCCCc1ccc(-c2ccc(NCCN(C)C)c3ccc[nH+]c23)cc1 (3D coordinates assigned)
CCCCc1ccc(-c2ccc(NCCN(C)C)c3ccc[nH+]c23)cc1 (optimized conformer: 67.91276623644555 kcal/mol)

>  <smiles>  (43) 
CCCCc1ccc(-c2ccc(NCCN(C)C)c3cccnc23)cc1

>  <score_type>  (43) 
oracle

>  <origin>  (43) 
adg

>  <m_score__min__energy>  (43) 
-6.1500000000000004

>  <m_primary>  (43) 
energy

$$$$
43:0
     RDKit          3D

 54 56  0  0  0  0  0  0  0  0999 V2000
   56.8950   30.4370   43.5850 C   0  0  0  0  0  0  0  0  0  0  0  0
   56.8410   31.0940   44.8470 O   0  0  0  0  0  0  0  0  0  0  0  0
   57.6930   32.1380   45.2400 C   0  0  0  0  0  0  0  0  0  0  0  0
   57.4050   33.4870   44.9470 C   0  0  0  0  0  0  0  0  0  0  0  0
   58.2900   34.4970   45.3310 C   0  0  0  0  0  0  0  0  0  0  0  0
   59.4700   34.1770   46.0060 C   0  0  0  0  0  0  0  0  0  0  0  0
   59.7640   32.8450   46.3040 C   0  0  0  0  0  0  0  0  0  0  0  0
   58.8770   31.8230   45.9320 C   0  0  0  0  0  0  0  0  0  0  0  0
   59.1870   30.4560   46.2510 N   0  0  0  0  0  0  0  0  0  0  0  0
   60.1070   29.7020   45.3950 C   0  0  0  0  0  0  0  0  0  0  0  0
   59.6930   28.2180   45.2900 C   0  0  0  0  0  0  0  0  0  0  0  0
   58.7300   27.7850   46.3320 N   0  0  0  0  0  0  0  0  0  0  0  0
   57.3130   27.9370   45.9170 C   0  0  0  0  0  0  0  0  0  0  0  0
   56.6070   26.5690   45.8400 C   0  0  2  0  0  0  0  0  0  0  0  0
   55.2100   26.7220   45.8990 O   0  0  0  0  0  0  0  0  0  0  0  0
   57.1010   25.5820   46.9150 C   0  0  0  0  0  0  0  0  0  0  0  0
   56.1260   24.5670   47.1560 O   0  0  0  0  0  0  0  0  0  0  0  0
   56.0410   23.3390   46.4790 C   0  0  0  0  0  0  0  0  0  0  0  0
   55.6550   22.1420   47.1140 C   0  0  0  0  0  0  0  0  0  0  0  0
   55.5950   20.9490   46.3900 C   0  0  0  0  0  0  0  0  0  0  0  0
   55.9090   20.9360   45.0290 C   0  0  0  0  0  0  0  0  0  0  0  0
   56.2720   22.1240   44.3780 C   0  0  0  0  0  0  0  0  0  0  0  0
   56.6470   22.1050   42.9250 C   0  0  0  0  0  0  0  0  0  0  0  0
   56.3480   23.3170   45.1120 C   0  0  0  0  0  0  0  0  0  0  0  0
   59.0200   28.4130   47.6370 C   0  0  0  0  0  0  0  0  0  0  0  0
   58.8510   29.9400   47.5810 C   0  0  0  0  0  0  0  0  0  0  0  0
   56.9842   29.3517   43.7402 H   0  0  0  0  0  0  0  0  0  0  0  0
   55.9761   30.6523   43.0199 H   0  0  0  0  0  0  0  0  0  0  0  0
   57.7664   30.7995   43.0199 H   0  0  0  0  0  0  0  0  0  0  0  0
   56.4785   33.7452   44.4132 H   0  0  0  0  0  0  0  0  0  0  0  0
   58.0570   35.5472   45.1012 H   0  0  0  0  0  0  0  0  0  0  0  0
   60.1676   34.9741   46.3028 H   0  0  0  0  0  0  0  0  0  0  0  0
   60.6956   32.5954   46.8330 H   0  0  0  0  0  0  0  0  0  0  0  0
   60.1043   30.1461   44.3886 H   0  0  0  0  0  0  0  0  0  0  0  0
   61.1115   29.7498   45.8409 H   0  0  0  0  0  0  0  0  0  0  0  0
   59.2320   28.0564   44.3044 H   0  0  0  0  0  0  0  0  0  0  0  0
   60.6063   27.6219   45.4333 H   0  0  0  0  0  0  0  0  0  0  0  0
   56.7903   28.5702   46.6490 H   0  0  0  0  0  0  0  0  0  0  0  0
   57.2891   28.3989   44.9190 H   0  0  0  0  0  0  0  0  0  0  0  0
   56.8715   26.1305   44.8665 H   0  0  0  0  0  0  0  0  0  0  0  0
   54.8990   26.3370   46.7600 H   0  0  0  0  0  0  0  0  0  0  0  0
   58.0342   25.1117   46.5716 H   0  0  0  0  0  0  0  0  0  0  0  0
   57.2734   26.1353   47.8500 H   0  0  0  0  0  0  0  0  0  0  0  0
   55.3999   22.1470   48.1840 H   0  0  0  0  0  0  0  0  0  0  0  0
   55.2995   20.0166   46.8933 H   0  0  0  0  0  0  0  0  0  0  0  0
   55.8715   19.9915   44.4663 H   0  0  0  0  0  0  0  0  0  0  0  0
   57.7414   22.0495   42.8295 H   0  0  0  0  0  0  0  0  0  0  0  0
   56.1918   21.2288   42.4403 H   0  0  0  0  0  0  0  0  0  0  0  0
   56.2827   23.0228   42.4403 H   0  0  0  0  0  0  0  0  0  0  0  0
   56.6523   24.2464   44.6084 H   0  0  0  0  0  0  0  0  0  0  0  0
   58.3302   28.0050   48.3905 H   0  0  0  0  0  0  0  0  0  0  0  0
   60.0650   28.1922   47.9001 H   0  0  0  0  0  0  0  0  0  0  0  0
   57.8064   30.1953   47.8128 H   0  0  0  0  0  0  0  0  0  0  0  0
   59.5307   30.3955   48.3162 H   0  0  0  0  0  0  0  0  0  0  0  0
  1  2  1  0
  2  3  1  0
  3  4  2  0
  4  5  1  0
  5  6  2  0
  6  7  1  0
  7  8  2  0
  8  9  1  0
  9 10  1  0
 10 11  1  0
 11 12  1  0
 12 13  1  0
 13 14  1  0
 14 15  1  0
 14 16  1  0
 16 17  1  0
 17 18  1  0
 18 19  2  0
 19 20  1  0
 20 21  2  0
 21 22  1  0
 22 23  1  0
 22 24  2  0
 12 25  1  0
 25 26  1  0
  8  3  1  0
 26  9  1  0
 24 18  1  0
  1 27  1  0
  1 28  1  0
  1 29  1  0
  4 30  1  0
  5 31  1  0
  6 32  1  0
  7 33  1  0
 10 34  1  0
 10 35  1  0
 11 36  1  0
 11 37  1  0
 13 38  1  0
 13 39  1  0
 14 40  1  6
 15 41  1  0
 16 42  1  0
 16 43  1  0
 19 44  1  0
 20 45  1  0
 21 46  1  0
 23 47  1  0
 23 48  1  0
 23 49  1  0
 24 50  1  0
 25 51  1  0
 25 52  1  0
 26 53  1  0
 26 54  1  0
M  END
>  <UniqueID>  (44) 
43

>  <SMILES>  (44) 
COc1ccccc1N1CCN(C[C@H](O)COc2cccc(C)c2)CC1

>  <Energy>  (44) 
66.40287671948184

>  <Genealogy>  (44) 
COc1ccccc1N1CCN(C[C@H](O)COc2cccc(C)c2)CC1 (chirality)
COc1ccccc1N1CCN(C[C@H](O)COc2cccc(C)c2)CC1 (3D coordinates assigned)
COc1ccccc1N1CCN(C[C@H](O)COc2cccc(C)c2)CC1 (nonaromatic ring conformer: 66.40287671948184 kcal/mol)

>  <smiles>  (44) 
COc1ccccc1N1CCN(CC(O)COc2cccc(C)c2)CC1

>  <score_type>  (44) 
oracle

>  <origin>  (44) 
adg

>  <m_score__min__energy>  (44) 
-7.9699999999999998

>  <m_primary>  (44) 
energy

$$$$
44:0
     RDKit          3D

 73 75  0  0  0  0  0  0  0  0999 V2000
   63.3300   33.8190   46.6440 C   0  0  0  0  0  0  0  0  0  0  0  0
   63.4180   32.5610   47.4980 C   0  0  0  0  0  0  0  0  0  0  0  0
   63.4780   32.9310   48.9370 N   0  0  0  0  0  0  0  0  0  0  0  0
   64.8740   33.1010   49.4020 C   0  0  0  0  0  0  0  0  0  0  0  0
   65.2660   31.9980   50.3850 C   0  0  0  0  0  0  0  0  0  0  0  0
   62.6720   34.1420   49.2320 C   0  0  0  0  0  0  0  0  0  0  0  0
   61.2480   33.7670   49.6960 C   0  0  0  0  0  0  0  0  0  0  0  0
   61.2250   32.7190   50.8150 C   0  0  0  0  0  0  0  0  0  0  0  0
   61.8160   31.4590   50.3600 N   0  0  0  0  0  0  0  0  0  0  0  0
   61.0790   30.4570   49.6390 C   0  0  0  0  0  0  0  0  0  0  0  0
   61.0010   29.1530   50.1560 C   0  0  0  0  0  0  0  0  0  0  0  0
   60.2960   28.1580   49.4710 C   0  0  0  0  0  0  0  0  0  0  0  0
   59.6490   28.4630   48.2700 C   0  0  0  0  0  0  0  0  0  0  0  0
   58.9700   27.5090   47.5850 N   0  0  0  0  0  0  0  0  0  0  0  0
   58.3200   27.7860   46.4210 C   0  0  0  0  0  0  0  0  0  0  0  0
   57.6090   26.6850   45.7470 C   0  0  0  0  0  0  0  0  0  0  0  0
   58.0550   26.2270   44.4980 C   0  0  0  0  0  0  0  0  0  0  0  0
   57.4150   25.1510   43.8750 C   0  0  0  0  0  0  0  0  0  0  0  0
   56.3360   24.5180   44.5000 C   0  0  0  0  0  0  0  0  0  0  0  0
   55.9000   24.9570   45.7530 C   0  0  0  0  0  0  0  0  0  0  0  0
   56.5380   26.0310   46.3810 C   0  0  0  0  0  0  0  0  0  0  0  0
   58.3590   29.1090   45.9110 C   0  0  0  0  0  0  0  0  0  0  0  0
   57.7700   29.5040   44.5820 C   0  0  0  0  0  0  0  0  0  0  0  0
   58.4360   30.7160   44.0860 N   0  0  0  0  0  0  0  0  0  0  0  0
   57.4600   31.6050   43.4400 C   0  0  0  0  0  0  0  0  0  0  0  0
   57.7830   33.0790   43.7220 C   0  0  0  0  0  0  0  0  0  0  0  0
   57.5190   33.4670   45.1940 C   0  0  0  0  0  0  0  0  0  0  0  0
   58.5690   33.0220   46.1390 N   0  0  0  0  0  0  0  0  0  0  0  0
   58.1140   32.9950   47.5380 C   0  0  0  0  0  0  0  0  0  0  0  0
   59.8240   33.7750   46.0000 C   0  0  0  0  0  0  0  0  0  0  0  0
   59.0520   30.0550   46.6010 N   0  0  0  0  0  0  0  0  0  0  0  0
   59.6940   29.7720   47.7630 C   0  0  0  0  0  0  0  0  0  0  0  0
   60.4040   30.7640   48.4430 C   0  0  0  0  0  0  0  0  0  0  0  0
   63.2682   34.7020   47.2971 H   0  0  0  0  0  0  0  0  0  0  0  0
   64.2251   33.8945   46.0090 H   0  0  0  0  0  0  0  0  0  0  0  0
   62.4332   33.7691   46.0090 H   0  0  0  0  0  0  0  0  0  0  0  0
   62.5312   31.9354   47.3187 H   0  0  0  0  0  0  0  0  0  0  0  0
   64.3267   32.0027   47.2288 H   0  0  0  0  0  0  0  0  0  0  0  0
   65.5486   33.0646   48.5339 H   0  0  0  0  0  0  0  0  0  0  0  0
   64.9552   34.0706   49.9151 H   0  0  0  0  0  0  0  0  0  0  0  0
   65.1367   32.3618   51.4150 H   0  0  0  0  0  0  0  0  0  0  0  0
   64.6254   31.1184   50.2237 H   0  0  0  0  0  0  0  0  0  0  0  0
   66.3180   31.7200   50.2237 H   0  0  0  0  0  0  0  0  0  0  0  0
   63.1681   34.7181   50.0270 H   0  0  0  0  0  0  0  0  0  0  0  0
   62.5920   34.7392   48.3117 H   0  0  0  0  0  0  0  0  0  0  0  0
   60.7499   34.6772   50.0613 H   0  0  0  0  0  0  0  0  0  0  0  0
   60.7312   33.3271   48.8303 H   0  0  0  0  0  0  0  0  0  0  0  0
   61.7984   33.0966   51.6745 H   0  0  0  0  0  0  0  0  0  0  0  0
   60.1797   32.5341   51.1033 H   0  0  0  0  0  0  0  0  0  0  0  0
   62.8600   31.4040   50.3480 H   0  0  0  0  0  0  0  0  0  0  0  0
   61.4984   28.9126   51.1072 H   0  0  0  0  0  0  0  0  0  0  0  0
   60.2507   27.1366   49.8769 H   0  0  0  0  0  0  0  0  0  0  0  0
   58.9100   26.7154   44.0078 H   0  0  0  0  0  0  0  0  0  0  0  0
   57.7611   24.8017   42.8910 H   0  0  0  0  0  0  0  0  0  0  0  0
   55.8308   23.6751   44.0057 H   0  0  0  0  0  0  0  0  0  0  0  0
   55.0534   24.4568   46.2461 H   0  0  0  0  0  0  0  0  0  0  0  0
   56.2012   26.3651   47.3735 H   0  0  0  0  0  0  0  0  0  0  0  0
   57.9142   28.6862   43.8606 H   0  0  0  0  0  0  0  0  0  0  0  0
   56.6951   29.7031   44.7046 H   0  0  0  0  0  0  0  0  0  0  0  0
   58.8200   31.2190   44.9190 H   0  0  0  0  0  0  0  0  0  0  0  0
   57.4823   31.4339   42.3536 H   0  0  0  0  0  0  0  0  0  0  0  0
   56.4624   31.3822   43.8463 H   0  0  0  0  0  0  0  0  0  0  0  0
   58.8441   33.2583   43.4940 H   0  0  0  0  0  0  0  0  0  0  0  0
   57.1261   33.6940   43.0894 H   0  0  0  0  0  0  0  0  0  0  0  0
   57.4440   34.5628   45.2533 H   0  0  0  0  0  0  0  0  0  0  0  0
   56.5904   32.9583   45.4923 H   0  0  0  0  0  0  0  0  0  0  0  0
   58.9850   33.0467   48.2079 H   0  0  0  0  0  0  0  0  0  0  0  0
   57.4552   33.8556   47.7260 H   0  0  0  0  0  0  0  0  0  0  0  0
   57.5616   32.0625   47.7260 H   0  0  0  0  0  0  0  0  0  0  0  0
   60.2211   34.0133   46.9978 H   0  0  0  0  0  0  0  0  0  0  0  0
   60.5571   33.1674   45.4491 H   0  0  0  0  0  0  0  0  0  0  0  0
   59.6329   34.7077   45.4491 H   0  0  0  0  0  0  0  0  0  0  0  0
   60.4357   31.7881   48.0426 H   0  0  0  0  0  0  0  0  0  0  0  0
  1  2  1  0
  2  3  1  0
  3  4  1  0
  4  5  1  0
  3  6  1  0
  6  7  1  0
  7  8  1  0
  8  9  1  0
  9 10  1  0
 10 11  2  0
 11 12  1  0
 12 13  2  0
 13 14  1  0
 14 15  2  0
 15 16  1  0
 16 17  2  0
 17 18  1  0
 18 19  2  0
 19 20  1  0
 20 21  2  0
 15 22  1  0
 22 23  1  0
 23 24  1  0
 24 25  1  0
 25 26  1  0
 26 27  1  0
 27 28  1  0
 28 29  1  0
 28 30  1  0
 22 31  2  0
 31 32  1  0
 32 33  2  0
 33 10  1  0
 32 13  1  0
 21 16  1  0
  1 34  1  0
  1 35  1  0
  1 36  1  0
  2 37  1  0
  2 38  1  0
  4 39  1  0
  4 40  1  0
  5 41  1  0
  5 42  1  0
  5 43  1  0
  6 44  1  0
  6 45  1  0
  7 46  1  0
  7 47  1  0
  8 48  1  0
  8 49  1  0
  9 50  1  0
 11 51  1  0
 12 52  1  0
 17 53  1  0
 18 54  1  0
 19 55  1  0
 20 56  1  0
 21 57  1  0
 23 58  1  0
 23 59  1  0
 24 60  1  0
 25 61  1  0
 25 62  1  0
 26 63  1  0
 26 64  1  0
 27 65  1  0
 27 66  1  0
 29 67  1  0
 29 68  1  0
 29 69  1  0
 30 70  1  0
 30 71  1  0
 30 72  1  0
 33 73  1  0
M  END
>  <UniqueID>  (45) 
44

>  <SMILES>  (45) 
CCN(CC)CCCNc1ccc2nc(-c3ccccc3)c(CNCCCN(C)C)nc2c1

>  <Energy>  (45) 
85.59767455602476

>  <Genealogy>  (45) 
CCN(CC)CCCNc1ccc2nc(-c3ccccc3)c(CNCCCN(C)C)nc2c1 (3D coordinates assigned)
CCN(CC)CCCNc1ccc2nc(-c3ccccc3)c(CNCCCN(C)C)nc2c1 (optimized conformer: 85.59767455602476 kcal/mol)

>  <smiles>  (45) 
CCN(CC)CCCNc1ccc2nc(-c3ccccc3)c(CNCCCN(C)C)nc2c1

>  <score_type>  (45) 
oracle

>  <origin>  (45) 
adg

>  <m_score__min__energy>  (45) 
-7.8700000000000001

>  <m_primary>  (45) 
energy

$$$$
45:0
     RDKit          3D

 60 63  0  0  0  0  0  0  0  0999 V2000
   58.9101   34.4726   49.5565 H   0  0  0  0  0  0  0  0  0  0  0  0
   59.6860   34.4020   48.7800 C   0  0  0  0  0  0  0  0  0  0  0  0
   60.9910   33.8190   49.1700 C   0  0  0  0  0  0  0  0  0  0  0  0
   62.0300   34.5320   49.1120 O   0  0  0  0  0  0  0  0  0  0  0  0
   61.1020   32.4260   49.5400 N   0  0  0  0  0  0  0  0  0  0  0  0
   60.4440   31.4060   48.7650 C   0  0  0  0  0  0  0  0  0  0  0  0
   60.7110   31.1900   47.4520 N   0  0  0  0  0  0  0  0  0  0  0  0
   59.9650   30.1660   46.9690 C   0  0  0  0  0  0  0  0  0  0  0  0
   60.0150   29.7060   45.6480 C   0  0  0  0  0  0  0  0  0  0  0  0
   60.6715   30.1793   44.9030 H   0  0  0  0  0  0  0  0  0  0  0  0
   59.1950   28.6170   45.3100 C   0  0  0  0  0  0  0  0  0  0  0  0
   58.3750   28.0090   46.2450 C   0  0  0  0  0  0  0  0  0  0  0  0
   58.3040   28.4740   47.5660 C   0  0  0  0  0  0  0  0  0  0  0  0
   57.6434   28.0016   48.3079 H   0  0  0  0  0  0  0  0  0  0  0  0
   59.1120   29.5660   47.8960 C   0  0  0  0  0  0  0  0  0  0  0  0
   59.2720   30.3410   49.3750 S   0  0  0  0  0  0  0  0  0  0  0  0
   57.6270   26.8670   45.6690 C   0  0  0  0  0  0  0  0  0  0  0  0
   57.8410   25.9404   46.2219 H   0  0  0  0  0  0  0  0  0  0  0  0
   56.5369   27.0056   45.7194 H   0  0  0  0  0  0  0  0  0  0  0  0
   58.1480   26.7740   44.2200 C   0  0  0  0  0  0  0  0  0  0  0  0
   58.7131   25.8401   44.0840 H   0  0  0  0  0  0  0  0  0  0  0  0
   57.3099   26.7768   43.5076 H   0  0  0  0  0  0  0  0  0  0  0  0
   59.0700   27.9870   43.9760 C   0  0  0  0  0  0  0  0  0  0  0  0
   60.0527   27.6623   43.6035 H   0  0  0  0  0  0  0  0  0  0  0  0
   58.6700   28.6768   43.2182 H   0  0  0  0  0  0  0  0  0  0  0  0
   61.8510   32.0410   50.7460 C   0  0  0  0  0  0  0  0  0  0  0  0
   61.3290   31.2044   51.2335 H   0  0  0  0  0  0  0  0  0  0  0  0
   61.9037   32.9220   51.4025 H   0  0  0  0  0  0  0  0  0  0  0  0
   63.3000   31.6040   50.4280 C   0  0  0  0  0  0  0  0  0  0  0  0
   63.2756   30.5745   50.0414 H   0  0  0  0  0  0  0  0  0  0  0  0
   63.8740   31.6869   51.3627 H   0  0  0  0  0  0  0  0  0  0  0  0
   63.9800   32.4720   49.4180 N   0  0  0  0  0  0  0  0  0  0  0  0
   63.5210   33.4120   49.4680 H   0  0  0  0  0  0  0  0  0  0  0  0
   63.7600   32.0330   48.0110 C   0  0  0  0  0  0  0  0  0  0  0  0
   62.7928   31.5108   47.9672 H   0  0  0  0  0  0  0  0  0  0  0  0
   64.6216   31.3981   47.7567 H   0  0  0  0  0  0  0  0  0  0  0  0
   63.7400   33.1520   46.9600 C   0  0  0  0  0  0  0  0  0  0  0  0
   63.7225   34.1291   47.4650 H   0  0  0  0  0  0  0  0  0  0  0  0
   64.6396   33.0804   46.3310 H   0  0  0  0  0  0  0  0  0  0  0  0
   62.8436   33.0483   46.3310 H   0  0  0  0  0  0  0  0  0  0  0  0
   65.4130   32.7600   49.7190 C   0  0  0  0  0  0  0  0  0  0  0  0
   65.9571   31.8040   49.7189 H   0  0  0  0  0  0  0  0  0  0  0  0
   65.7469   33.4636   48.9421 H   0  0  0  0  0  0  0  0  0  0  0  0
   65.6860   33.4600   51.0650 C   0  0  0  0  0  0  0  0  0  0  0  0
   65.4219   32.7828   51.8907 H   0  0  0  0  0  0  0  0  0  0  0  0
   66.7522   33.7220   51.1324 H   0  0  0  0  0  0  0  0  0  0  0  0
   65.0787   34.3747   51.1324 H   0  0  0  0  0  0  0  0  0  0  0  0
   59.3760   34.8510   47.5530 C   0  0  0  0  0  0  0  0  0  0  0  0
   59.5355   35.9207   47.3523 H   0  0  0  0  0  0  0  0  0  0  0  0
   58.8380   34.0270   46.4490 C   0  0  0  0  0  0  0  0  0  0  0  0
   57.9870   32.9340   46.7000 C   0  0  0  0  0  0  0  0  0  0  0  0
   57.6747   32.7095   47.7306 H   0  0  0  0  0  0  0  0  0  0  0  0
   57.5370   32.1330   45.6480 C   0  0  0  0  0  0  0  0  0  0  0  0
   56.8522   31.2959   45.8485 H   0  0  0  0  0  0  0  0  0  0  0  0
   57.9570   32.3950   44.3390 C   0  0  0  0  0  0  0  0  0  0  0  0
   57.4030   31.3810   43.0190 Cl  0  0  0  0  0  0  0  0  0  0  0  0
   58.8290   33.4590   44.0860 C   0  0  0  0  0  0  0  0  0  0  0  0
   59.1673   33.6585   43.0585 H   0  0  0  0  0  0  0  0  0  0  0  0
   59.2720   34.2700   45.1360 C   0  0  0  0  0  0  0  0  0  0  0  0
   59.9630   35.1013   44.9323 H   0  0  0  0  0  0  0  0  0  0  0  0
  1  2  1  0
  2  3  1  0
  3  4  2  0
  3  5  1  0
  5  6  1  0
  6  7  2  0
  7  8  1  0
  8  9  2  0
  9 10  1  0
  9 11  1  0
 11 12  2  0
 12 13  1  0
 13 14  1  0
 13 15  2  0
 15 16  1  0
 12 17  1  0
 17 18  1  0
 17 19  1  0
 17 20  1  0
 20 21  1  0
 20 22  1  0
 20 23  1  0
 23 24  1  0
 23 25  1  0
  5 26  1  0
 26 27  1  0
 26 28  1  0
 26 29  1  0
 29 30  1  0
 29 31  1  0
 29 32  1  0
 32 33  1  0
 32 34  1  0
 34 35  1  0
 34 36  1  0
 34 37  1  0
 37 38  1  0
 37 39  1  0
 37 40  1  0
 32 41  1  0
 41 42  1  0
 41 43  1  0
 41 44  1  0
 44 45  1  0
 44 46  1  0
 44 47  1  0
  2 48  2  0
 48 49  1  0
 48 50  1  0
 50 51  2  0
 51 52  1  0
 51 53  1  0
 53 54  1  0
 53 55  2  0
 55 56  1  0
 55 57  1  0
 57 58  1  0
 57 59  2  0
 59 60  1  0
 16  6  1  0
 59 50  1  0
 15  8  1  0
 23 11  1  0
M  CHG  1  32   1
M  END
>  <UniqueID>  (46) 
45

>  <SMILES>  (46) 
CC[NH+](CC)CCN(C(=O)/C=C\c1ccc(Cl)cc1)c1nc2cc3c(cc2s1)CCC3

>  <Energy>  (46) 
124.55878188309697

>  <Genealogy>  (46) 
CC[NH+](CC)CCN(C(=O)C=Cc1ccc(Cl)cc1)c1nc2cc3c(cc2s1)CCC3 (protonated)
CC[NH+](CC)CCN(C(=O)/C=C\c1ccc(Cl)cc1)c1nc2cc3c(cc2s1)CCC3 (cis-trans isomerization)
CC[NH+](CC)CCN(C(=O)/C=C\c1ccc(Cl)cc1)c1nc2cc3c(cc2s1)CCC3 (3D coordinates assigned)
CC[NH+](CC)CCN(C(=O)/C=C\c1ccc(Cl)cc1)c1nc2cc3c(cc2s1)CCC3 (nonaromatic ring conformer: 124.55878188309697 kcal/mol)

>  <smiles>  (46) 
CCN(CC)CCN(C(=O)C=Cc1ccc(Cl)cc1)c1nc2cc3c(cc2s1)CCC3

>  <score_type>  (46) 
oracle

>  <origin>  (46) 
adg

>  <m_score__min__energy>  (46) 
-7.2400000000000002

>  <m_primary>  (46) 
energy

$$$$
46:0
     RDKit          3D

 48 50  0  0  0  0  0  0  0  0999 V2000
   58.5270   27.1630   44.6880 C   0  0  0  0  0  0  0  0  0  0  0  0
   57.9020   28.3610   44.1410 N   0  0  0  0  0  0  0  0  0  0  0  0
   58.1610   29.6300   44.5080 C   0  0  0  0  0  0  0  0  0  0  0  0
   57.4100   30.4670   43.7040 C   0  0  0  0  0  0  0  0  0  0  0  0
   57.2890   31.9530   43.8130 C   0  0  0  0  0  0  0  0  0  0  0  0
   57.0600   32.3200   45.2160 N   0  0  0  0  0  0  0  0  0  0  0  0
   58.2290   32.9790   45.8280 C   0  0  0  0  0  0  0  0  0  0  0  0
   58.8620   33.9380   44.7960 C   0  0  0  0  0  0  0  0  0  0  0  0
   59.6110   35.1200   45.4470 C   0  0  0  0  0  0  0  0  0  0  0  0
   60.1490   34.7820   46.7800 N   0  0  0  0  0  0  0  0  0  0  0  0
   61.2700   33.8110   46.7330 C   0  0  0  0  0  0  0  0  0  0  0  0
   61.2870   32.9610   48.0060 C   0  0  0  0  0  0  0  0  0  0  0  0
   60.6630   31.6070   47.7810 C   0  0  0  0  0  0  0  0  0  0  0  0
   59.6230   31.1580   48.6090 C   0  0  0  0  0  0  0  0  0  0  0  0
   59.0710   29.8900   48.3970 C   0  0  0  0  0  0  0  0  0  0  0  0
   59.5520   29.0950   47.4030 N   0  0  0  0  0  0  0  0  0  0  0  0
   60.5690   29.5000   46.5960 C   0  0  0  0  0  0  0  0  0  0  0  0
   61.1440   30.7620   46.7690 C   0  0  0  0  0  0  0  0  0  0  0  0
   59.0860   34.4240   47.7530 C   0  0  0  0  0  0  0  0  0  0  0  0
   57.8540   33.7450   47.1140 C   0  0  0  0  0  0  0  0  0  0  0  0
   56.6970   29.6330   42.8610 C   0  0  0  0  0  0  0  0  0  0  0  0
   57.0310   28.3600   43.1440 N   0  0  0  0  0  0  0  0  0  0  0  0
   58.5042   27.2067   45.7869 H   0  0  0  0  0  0  0  0  0  0  0  0
   57.9779   26.2737   44.3449 H   0  0  0  0  0  0  0  0  0  0  0  0
   59.5705   27.1046   44.3449 H   0  0  0  0  0  0  0  0  0  0  0  0
   58.8487   29.9452   45.3066 H   0  0  0  0  0  0  0  0  0  0  0  0
   58.2169   32.4243   43.4567 H   0  0  0  0  0  0  0  0  0  0  0  0
   56.4447   32.2998   43.1991 H   0  0  0  0  0  0  0  0  0  0  0  0
   56.8180   31.4550   45.7580 H   0  0  0  0  0  0  0  0  0  0  0  0
   58.9531   32.2031   46.1170 H   0  0  0  0  0  0  0  0  0  0  0  0
   59.5740   33.3690   44.1802 H   0  0  0  0  0  0  0  0  0  0  0  0
   58.0429   34.3600   44.1952 H   0  0  0  0  0  0  0  0  0  0  0  0
   60.4459   35.4119   44.7931 H   0  0  0  0  0  0  0  0  0  0  0  0
   58.8917   35.9423   45.5751 H   0  0  0  0  0  0  0  0  0  0  0  0
   61.1455   33.1544   45.8593 H   0  0  0  0  0  0  0  0  0  0  0  0
   62.2190   34.3619   46.6566 H   0  0  0  0  0  0  0  0  0  0  0  0
   62.3295   32.8238   48.3291 H   0  0  0  0  0  0  0  0  0  0  0  0
   60.7013   33.4848   48.7758 H   0  0  0  0  0  0  0  0  0  0  0  0
   59.2443   31.7985   49.4192 H   0  0  0  0  0  0  0  0  0  0  0  0
   58.2475   29.5355   49.0344 H   0  0  0  0  0  0  0  0  0  0  0  0
   60.9402   28.8322   45.8046 H   0  0  0  0  0  0  0  0  0  0  0  0
   61.9670   31.0903   46.1172 H   0  0  0  0  0  0  0  0  0  0  0  0
   59.5144   33.7352   48.4959 H   0  0  0  0  0  0  0  0  0  0  0  0
   58.7346   35.3648   48.2019 H   0  0  0  0  0  0  0  0  0  0  0  0
   57.4213   33.0379   47.8370 H   0  0  0  0  0  0  0  0  0  0  0  0
   57.1293   34.5287   46.8480 H   0  0  0  0  0  0  0  0  0  0  0  0
   55.9801   29.9550   42.0914 H   0  0  0  0  0  0  0  0  0  0  0  0
   56.6650   27.5050   42.6670 H   0  0  0  0  0  0  0  0  0  0  0  0
  1  2  1  0
  2  3  1  0
  3  4  2  0
  4  5  1  0
  5  6  1  0
  6  7  1  0
  7  8  1  0
  8  9  1  0
  9 10  1  0
 10 11  1  0
 11 12  1  0
 12 13  1  0
 13 14  2  0
 14 15  1  0
 15 16  2  0
 16 17  1  0
 17 18  2  0
 10 19  1  0
 19 20  1  0
  4 21  1  0
 21 22  2  0
 22  2  1  0
 20  7  1  0
 18 13  1  0
  1 23  1  0
  1 24  1  0
  1 25  1  0
  3 26  1  0
  5 27  1  0
  5 28  1  0
  6 29  1  0
  7 30  1  0
  8 31  1  0
  8 32  1  0
  9 33  1  0
  9 34  1  0
 11 35  1  0
 11 36  1  0
 12 37  1  0
 12 38  1  0
 14 39  1  0
 15 40  1  0
 17 41  1  0
 18 42  1  0
 19 43  1  0
 19 44  1  0
 20 45  1  0
 20 46  1  0
 21 47  1  0
 22 48  1  0
M  CHG  1  22   1
M  END
>  <UniqueID>  (47) 
46

>  <SMILES>  (47) 
Cn1cc(CNC2CCN(CCc3ccncc3)CC2)c[nH+]1

>  <Energy>  (47) 
86.15447967844989

>  <Genealogy>  (47) 
Cn1cc(CNC2CCN(CCc3ccncc3)CC2)c[nH+]1 (protonated)
Cn1cc(CNC2CCN(CCc3ccncc3)CC2)c[nH+]1 (3D coordinates assigned)
Cn1cc(CNC2CCN(CCc3ccncc3)CC2)c[nH+]1 (nonaromatic ring conformer: 86.15447967844989 kcal/mol)

>  <smiles>  (47) 
Cn1cc(CNC2CCN(CCc3ccncc3)CC2)cn1

>  <score_type>  (47) 
oracle

>  <origin>  (47) 
adg

>  <m_score__min__energy>  (47) 
-6.5099999999999998

>  <m_primary>  (47) 
energy

$$$$
47:0
     RDKit          3D

 67 70  0  0  1  0  0  0  0  0999 V2000
   60.5310   28.6660   45.0540 C   0  0  0  0  0  0  0  0  0  0  0  0
   59.1440   28.4210   45.2510 N   0  0  0  0  0  0  0  0  0  0  0  0
   58.8680   27.2230   46.0090 C   0  0  0  0  0  0  0  0  0  0  0  0
   58.3420   28.3550   44.0570 C   0  0  0  0  0  0  0  0  0  0  0  0
   57.0040   29.0030   44.1590 C   0  0  0  0  0  0  0  0  0  0  0  0
   56.8240   30.0270   45.0240 O   0  0  0  0  0  0  0  0  0  0  0  0
   57.5510   31.0860   45.4510 C   0  0  0  0  0  0  0  0  0  0  0  0
   58.1830   30.9190   46.6800 C   0  0  0  0  0  0  0  0  0  0  0  0
   58.9450   31.9670   47.1910 C   0  0  0  0  0  0  0  0  0  0  0  0
   59.0270   33.1080   46.4580 C   0  0  0  0  0  0  0  0  0  0  0  0
   59.7730   34.1490   46.9360 C   0  0  0  0  0  0  0  0  0  0  0  0
   60.1890   34.2600   48.1060 N   0  0  0  0  0  0  0  0  0  0  0  0
   61.3990   33.8630   48.6300 C   0  0  0  0  0  0  0  0  0  0  0  0
   62.1780   32.9790   47.8410 C   0  0  0  0  0  0  0  0  0  0  0  0
   63.3570   32.4770   48.3400 C   0  0  0  0  0  0  0  0  0  0  0  0
   63.8290   32.8060   49.6170 C   0  0  0  0  0  0  0  0  0  0  0  0
   65.0730   32.2590   50.0950 N   0  0  0  0  0  0  0  0  0  0  0  0
   66.1890   33.1590   50.1440 C   0  0  0  0  0  0  0  0  0  0  0  0
   67.4850   32.4760   50.4880 C   0  0  0  0  0  0  0  0  0  0  0  0
   67.5060   31.8920   51.8760 C   0  0  0  0  0  0  0  0  0  0  0  0
   66.5660   30.8640   52.0840 N   0  0  0  0  0  0  0  0  0  0  0  0
   66.7120   29.6450   51.3930 C   0  0  0  0  0  0  0  0  0  0  0  0
   65.4260   28.8400   51.6070 C   0  0  0  0  0  0  0  0  0  0  0  0
   64.3870   29.7370   51.3710 O   0  0  0  0  0  0  0  0  0  0  0  0
   64.2220   30.5850   52.4600 C   0  0  0  0  0  0  0  0  0  0  0  0
   65.5620   31.0010   53.0520 C   0  0  0  0  0  0  0  0  0  0  0  0
   63.0680   33.6660   50.3820 C   0  0  0  0  0  0  0  0  0  0  0  0
   63.6500   34.0870   51.9840 Cl  0  0  0  0  0  0  0  0  0  0  0  0
   61.8630   34.2050   49.9210 C   0  0  0  0  0  0  0  0  0  0  0  0
   59.8750   35.2870   46.1670 N   0  0  0  0  0  0  0  0  0  0  0  0
   59.2640   35.4060   44.9840 C   0  0  0  0  0  0  0  0  0  0  0  0
   58.5210   34.3940   44.5120 N   0  0  0  0  0  0  0  0  0  0  0  0
   58.4120   33.2720   45.2500 C   0  0  0  0  0  0  0  0  0  0  0  0
   57.6630   32.2500   44.7370 C   0  0  0  0  0  0  0  0  0  0  0  0
   61.0301   28.7542   46.0303 H   0  0  0  0  0  0  0  0  0  0  0  0
   60.9741   27.8322   44.4897 H   0  0  0  0  0  0  0  0  0  0  0  0
   60.6616   29.6011   44.4897 H   0  0  0  0  0  0  0  0  0  0  0  0
   58.9201   27.4493   47.0842 H   0  0  0  0  0  0  0  0  0  0  0  0
   57.8616   26.8553   45.7600 H   0  0  0  0  0  0  0  0  0  0  0  0
   59.6120   26.4520   45.7600 H   0  0  0  0  0  0  0  0  0  0  0  0
   58.8980   28.8467   43.2451 H   0  0  0  0  0  0  0  0  0  0  0  0
   58.1526   27.2871   43.8732 H   0  0  0  0  0  0  0  0  0  0  0  0
   56.7554   29.3831   43.1571 H   0  0  0  0  0  0  0  0  0  0  0  0
   56.3618   28.2070   44.5639 H   0  0  0  0  0  0  0  0  0  0  0  0
   58.0824   29.9762   47.2377 H   0  0  0  0  0  0  0  0  0  0  0  0
   59.4635   31.8739   48.1566 H   0  0  0  0  0  0  0  0  0  0  0  0
   61.8403   32.6958   46.8332 H   0  0  0  0  0  0  0  0  0  0  0  0
   63.9499   31.7934   47.7146 H   0  0  0  0  0  0  0  0  0  0  0  0
   65.0810   31.2580   50.3720 H   0  0  0  0  0  0  0  0  0  0  0  0
   66.2962   33.6373   49.1593 H   0  0  0  0  0  0  0  0  0  0  0  0
   65.9841   33.8918   50.9384 H   0  0  0  0  0  0  0  0  0  0  0  0
   67.6528   31.6635   49.7658 H   0  0  0  0  0  0  0  0  0  0  0  0
   68.2748   33.2406   50.4465 H   0  0  0  0  0  0  0  0  0  0  0  0
   68.5103   31.4843   52.0636 H   0  0  0  0  0  0  0  0  0  0  0  0
   67.2412   32.7068   52.5659 H   0  0  0  0  0  0  0  0  0  0  0  0
   66.8615   29.8365   50.3202 H   0  0  0  0  0  0  0  0  0  0  0  0
   67.5848   29.0891   51.7663 H   0  0  0  0  0  0  0  0  0  0  0  0
   65.3763   27.9984   50.9005 H   0  0  0  0  0  0  0  0  0  0  0  0
   65.3748   28.4103   52.6183 H   0  0  0  0  0  0  0  0  0  0  0  0
   63.6808   31.4852   52.1332 H   0  0  0  0  0  0  0  0  0  0  0  0
   63.6553   30.0464   53.2338 H   0  0  0  0  0  0  0  0  0  0  0  0
   65.5084   32.0502   53.3780 H   0  0  0  0  0  0  0  0  0  0  0  0
   65.7956   30.3592   53.9143 H   0  0  0  0  0  0  0  0  0  0  0  0
   61.2814   34.8887   50.5568 H   0  0  0  0  0  0  0  0  0  0  0  0
   60.4420   36.1080   46.4840 H   0  0  0  0  0  0  0  0  0  0  0  0
   59.3703   36.3315   44.3991 H   0  0  0  0  0  0  0  0  0  0  0  0
   57.1580   32.3604   43.7660 H   0  0  0  0  0  0  0  0  0  0  0  0
  1  2  1  0
  2  3  1  0
  2  4  1  0
  4  5  1  0
  5  6  1  0
  6  7  1  0
  7  8  2  0
  8  9  1  0
  9 10  2  0
 10 11  1  0
 11 12  2  0
 12 13  1  0
 13 14  2  0
 14 15  1  0
 15 16  2  0
 16 17  1  0
 17 18  1  0
 18 19  1  0
 19 20  1  0
 20 21  1  0
 21 22  1  0
 22 23  1  0
 23 24  1  0
 24 25  1  0
 25 26  1  0
 16 27  1  0
 27 28  1  0
 27 29  2  0
 11 30  1  0
 30 31  1  0
 31 32  2  0
 32 33  1  0
 33 34  2  0
 34  7  1  0
 33 10  1  0
 29 13  1  0
 26 21  1  0
  1 35  1  0
  1 36  1  0
  1 37  1  0
  3 38  1  0
  3 39  1  0
  3 40  1  0
  4 41  1  0
  4 42  1  0
  5 43  1  0
  5 44  1  0
  8 45  1  0
  9 46  1  0
 14 47  1  0
 15 48  1  0
 17 49  1  0
 18 50  1  0
 18 51  1  0
 19 52  1  0
 19 53  1  0
 20 54  1  0
 20 55  1  0
 22 56  1  0
 22 57  1  0
 23 58  1  0
 23 59  1  0
 25 60  1  0
 25 61  1  0
 26 62  1  0
 26 63  1  0
 29 64  1  0
 30 65  1  0
 31 66  1  0
 34 67  1  0
M  END
>  <smiles>  (48) 
CN(C)CCOc1ccc2c(=Nc3ccc(NCCCN4CCOCC4)c(Cl)c3)[nH]cnc2c1

>  <score_type>  (48) 
oracle

>  <origin>  (48) 
adg

>  <m_score__min__energy>  (48) 
-8.5500000000000007

>  <m_primary>  (48) 
energy

$$$$
