0:0
     RDKit          3D

 49 52  0  0  0  0  0  0  0  0999 V2000
   63.4940   32.0080   47.4330 C   0  0  0  0  0  0  0  0  0  0  0  0
   62.0290   31.5890   47.5680 C   0  0  0  0  0  0  0  0  0  0  0  0
   61.0540   32.6290   46.9500 C   0  0  1  0  0  0  0  0  0  0  0  0
   59.7630   32.0450   46.3770 C   0  0  0  0  0  0  0  0  0  0  0  0
   59.7240   30.7650   45.7910 C   0  0  0  0  0  0  0  0  0  0  0  0
   58.5510   30.2810   45.2090 C   0  0  0  0  0  0  0  0  0  0  0  0
   57.3980   31.0640   45.1710 C   0  0  0  0  0  0  0  0  0  0  0  0
   56.2450   30.5240   44.5810 O   0  0  0  0  0  0  0  0  0  0  0  0
   56.2020   29.9440   43.2810 C   0  0  0  0  0  0  0  0  0  0  0  0
   57.4300   32.3570   45.7180 C   0  0  0  0  0  0  0  0  0  0  0  0
   58.6040   32.8650   46.2990 C   0  0  0  0  0  0  0  0  0  0  0  0
   58.5520   34.2580   46.8990 C   0  0  0  0  0  0  0  0  0  0  0  0
   59.9310   34.7930   47.2990 C   0  0  0  0  0  0  0  0  0  0  0  0
   60.7070   33.7060   47.8950 N   0  0  0  0  0  0  0  0  0  0  0  0
   60.4590   33.4250   49.2880 C   0  0  0  0  0  0  0  0  0  0  0  0
   59.2250   33.0060   49.6730 N   0  0  0  0  0  0  0  0  0  0  0  0
   58.9260   32.7570   50.9730 C   0  0  0  0  0  0  0  0  0  0  0  0
   57.5470   32.3130   51.3420 C   0  0  0  0  0  0  0  0  0  0  0  0
   59.8680   32.9450   51.9360 N   0  0  0  0  0  0  0  0  0  0  0  0
   61.1240   33.3650   51.6130 C   0  0  0  0  0  0  0  0  0  0  0  0
   62.0930   33.5450   52.6130 C   0  0  0  0  0  0  0  0  0  0  0  0
   63.3830   33.9630   52.2750 C   0  0  0  0  0  0  0  0  0  0  0  0
   63.7160   34.2010   50.9410 C   0  0  0  0  0  0  0  0  0  0  0  0
   62.7620   34.0280   49.9350 C   0  0  0  0  0  0  0  0  0  0  0  0
   61.4560   33.6170   50.2620 C   0  0  0  0  0  0  0  0  0  0  0  0
   63.9332   32.1336   48.4337 H   0  0  0  0  0  0  0  0  0  0  0  0
   64.0481   31.2323   46.8841 H   0  0  0  0  0  0  0  0  0  0  0  0
   63.5542   32.9594   46.8841 H   0  0  0  0  0  0  0  0  0  0  0  0
   61.8888   30.6258   47.0555 H   0  0  0  0  0  0  0  0  0  0  0  0
   61.8004   31.5127   48.6413 H   0  0  0  0  0  0  0  0  0  0  0  0
   61.6294   33.0370   46.1059 H   0  0  0  0  0  0  0  0  0  0  0  0
   60.6286   30.1391   45.7919 H   0  0  0  0  0  0  0  0  0  0  0  0
   58.5362   29.2702   44.7754 H   0  0  0  0  0  0  0  0  0  0  0  0
   56.1209   28.8506   43.3698 H   0  0  0  0  0  0  0  0  0  0  0  0
   55.3302   30.3331   42.7345 H   0  0  0  0  0  0  0  0  0  0  0  0
   57.1216   30.2003   42.7345 H   0  0  0  0  0  0  0  0  0  0  0  0
   56.5240   32.9803   45.6912 H   0  0  0  0  0  0  0  0  0  0  0  0
   58.1128   34.9420   46.1579 H   0  0  0  0  0  0  0  0  0  0  0  0
   57.9457   34.1978   47.8148 H   0  0  0  0  0  0  0  0  0  0  0  0
   60.4521   35.1731   46.4080 H   0  0  0  0  0  0  0  0  0  0  0  0
   59.8167   35.6109   48.0257 H   0  0  0  0  0  0  0  0  0  0  0  0
   57.4524   32.2826   52.4375 H   0  0  0  0  0  0  0  0  0  0  0  0
   56.8117   33.0198   50.9300 H   0  0  0  0  0  0  0  0  0  0  0  0
   57.3622   31.3099   50.9300 H   0  0  0  0  0  0  0  0  0  0  0  0
   59.6200   32.7610   52.9360 H   0  0  0  0  0  0  0  0  0  0  0  0
   61.8360   33.3564   53.6658 H   0  0  0  0  0  0  0  0  0  0  0  0
   64.1378   34.1048   53.0626 H   0  0  0  0  0  0  0  0  0  0  0  0
   64.7340   34.5262   50.6803 H   0  0  0  0  0  0  0  0  0  0  0  0
   63.0321   34.2134   48.8849 H   0  0  0  0  0  0  0  0  0  0  0  0
  1  2  1  0
  2  3  1  0
  3  4  1  0
  4  5  2  0
  5  6  1  0
  6  7  2  0
  7  8  1  0
  8  9  1  0
  7 10  1  0
 10 11  2  0
 11 12  1  0
 12 13  1  0
 13 14  1  0
 14 15  1  0
 15 16  2  0
 16 17  1  0
 17 18  1  0
 17 19  2  0
 19 20  1  0
 20 21  2  0
 21 22  1  0
 22 23  2  0
 23 24  1  0
 24 25  2  0
 14  3  1  0
 25 15  1  0
 11  4  1  0
 25 20  1  0
  1 26  1  0
  1 27  1  0
  1 28  1  0
  2 29  1  0
  2 30  1  0
  3 31  1  6
  5 32  1  0
  6 33  1  0
  9 34  1  0
  9 35  1  0
  9 36  1  0
 10 37  1  0
 12 38  1  0
 12 39  1  0
 13 40  1  0
 13 41  1  0
 18 42  1  0
 18 43  1  0
 18 44  1  0
 19 45  1  0
 21 46  1  0
 22 47  1  0
 23 48  1  0
 24 49  1  0
M  CHG  1  19   1
M  END
>  <UniqueID>  (1) 
1

>  <SMILES>  (1) 
CC[C@H]1c2ccc(OC)cc2CCN1c1nc(C)[nH+]c2ccccc12

>  <Energy>  (1) 
64.26611903679539

>  <Genealogy>  (1) 
CCC1c2ccc(OC)cc2CCN1c1nc(C)[nH+]c2ccccc12 (protonated)
CC[C@H]1c2ccc(OC)cc2CCN1c1nc(C)[nH+]c2ccccc12 (chirality)
CC[C@H]1c2ccc(OC)cc2CCN1c1nc(C)[nH+]c2ccccc12 (3D coordinates assigned)
CC[C@H]1c2ccc(OC)cc2CCN1c1nc(C)[nH+]c2ccccc12 (nonaromatic ring conformer: 64.26611903679539 kcal/mol)

>  <smiles>  (1) 
CCC1c2ccc(OC)cc2CCN1c1nc(C)nc2ccccc12

>  <score_type>  (1) 
oracle

>  <origin>  (1) 
adg

>  <m_score__min__energy>  (1) 
-6.2599999999999998

>  <m_primary>  (1) 
energy

$$$$
1:0
     RDKit          3D

 32 34  0  0  0  0  0  0  0  0999 V2000
   57.1419   29.5159   42.4890 H   0  0  0  0  0  0  0  0  0  0  0  0
   56.9140   30.0920   43.3980 C   0  0  0  0  0  0  0  0  0  0  0  0
   56.4880   29.3340   44.5920 C   0  0  0  0  0  0  0  0  0  0  0  0
   55.4920   29.7500   45.2410 O   0  0  0  0  0  0  0  0  0  0  0  0
   57.1570   28.0900   45.0240 C   0  0  0  0  0  0  0  0  0  0  0  0
   58.3010   27.5610   44.4560 C   0  0  0  0  0  0  0  0  0  0  0  0
   58.8795   27.9834   43.6212 H   0  0  0  0  0  0  0  0  0  0  0  0
   58.5720   26.3970   45.1460 C   0  0  0  0  0  0  0  0  0  0  0  0
   59.4067   25.7042   44.9633 H   0  0  0  0  0  0  0  0  0  0  0  0
   57.5920   26.2710   46.1100 C   0  0  0  0  0  0  0  0  0  0  0  0
   57.5214   25.4450   46.8330 H   0  0  0  0  0  0  0  0  0  0  0  0
   56.7360   27.3060   46.0360 N   0  0  0  0  0  0  0  0  0  0  0  0
   55.9120   27.4650   46.6570 H   0  0  0  0  0  0  0  0  0  0  0  0
   57.0460   31.4270   43.3310 C   0  0  0  0  0  0  0  0  0  0  0  0
   56.6199   31.9363   42.4540 H   0  0  0  0  0  0  0  0  0  0  0  0
   57.7210   32.2650   44.3470 C   0  0  0  0  0  0  0  0  0  0  0  0
   58.4540   33.3820   43.9270 C   0  0  0  0  0  0  0  0  0  0  0  0
   58.4981   33.6435   42.8594 H   0  0  0  0  0  0  0  0  0  0  0  0
   59.1280   34.1620   44.8670 C   0  0  0  0  0  0  0  0  0  0  0  0
   59.7144   35.0339   44.5416 H   0  0  0  0  0  0  0  0  0  0  0  0
   59.0560   33.8320   46.2250 C   0  0  0  0  0  0  0  0  0  0  0  0
   59.7350   34.5890   47.1900 C   0  0  0  0  0  0  0  0  0  0  0  0
   60.3387   35.4561   46.8839 H   0  0  0  0  0  0  0  0  0  0  0  0
   59.6450   34.2420   48.5420 C   0  0  0  0  0  0  0  0  0  0  0  0
   60.1798   34.8360   49.2978 H   0  0  0  0  0  0  0  0  0  0  0  0
   58.8770   33.1420   48.9350 C   0  0  0  0  0  0  0  0  0  0  0  0
   58.8092   32.8729   49.9994 H   0  0  0  0  0  0  0  0  0  0  0  0
   58.1950   32.3830   47.9800 C   0  0  0  0  0  0  0  0  0  0  0  0
   57.5906   31.5197   48.2953 H   0  0  0  0  0  0  0  0  0  0  0  0
   58.2790   32.7190   46.6200 C   0  0  0  0  0  0  0  0  0  0  0  0
   57.6210   31.9790   45.6800 N   0  0  0  0  0  0  0  0  0  0  0  0
   57.0220   31.1800   45.9900 H   0  0  0  0  0  0  0  0  0  0  0  0
  1  2  1  0
  2  3  1  0
  3  4  2  0
  3  5  1  0
  5  6  2  0
  6  7  1  0
  6  8  1  0
  8  9  1  0
  8 10  2  0
 10 11  1  0
 10 12  1  0
 12 13  1  0
  2 14  2  0
 14 15  1  0
 14 16  1  0
 16 17  2  0
 17 18  1  0
 17 19  1  0
 19 20  1  0
 19 21  2  0
 21 22  1  0
 22 23  1  0
 22 24  2  0
 24 25  1  0
 24 26  1  0
 26 27  1  0
 26 28  2  0
 28 29  1  0
 28 30  1  0
 30 31  2  0
 31 32  1  0
 12  5  1  0
 31 16  1  0
 30 21  1  0
M  CHG  1  31   1
M  END
>  <UniqueID>  (2) 
2

>  <SMILES>  (2) 
O=C(/C=C\c1ccc2ccccc2[nH+]1)c1ccc[nH]1

>  <Energy>  (2) 
69.99109722366208

>  <Genealogy>  (2) 
O=C(C=Cc1ccc2ccccc2[nH+]1)c1ccc[nH]1 (protonated)
O=C(/C=C\c1ccc2ccccc2[nH+]1)c1ccc[nH]1 (cis-trans isomerization)
O=C(/C=C\c1ccc2ccccc2[nH+]1)c1ccc[nH]1 (3D coordinates assigned)
O=C(/C=C\c1ccc2ccccc2[nH+]1)c1ccc[nH]1 (optimized conformer: 69.99109722366208 kcal/mol)

>  <smiles>  (2) 
O=C(C=Cc1ccc2ccccc2n1)c1ccc[nH]1

>  <score_type>  (2) 
oracle

>  <origin>  (2) 
adg

>  <m_score__min__energy>  (2) 
-6.3099999999999996

>  <m_primary>  (2) 
energy

$$$$
2:0
     RDKit          3D

 54 57  0  0  0  0  0  0  0  0999 V2000
   61.2577   27.6330   46.3708 H   0  0  0  0  0  0  0  0  0  0  0  0
   60.4310   28.2330   46.7790 C   0  0  0  0  0  0  0  0  0  0  0  0
   60.7520   29.3560   47.4410 C   0  0  0  0  0  0  0  0  0  0  0  0
   61.3911   29.2560   48.3307 H   0  0  0  0  0  0  0  0  0  0  0  0
   60.3100   30.7240   47.0640 C   0  0  0  0  0  0  0  0  0  0  0  0
   59.3180   30.8650   46.1450 N   0  0  0  0  0  0  0  0  0  0  0  0
   58.8570   32.0810   45.7690 C   0  0  0  0  0  0  0  0  0  0  0  0
   57.8500   32.1780   44.8010 C   0  0  0  0  0  0  0  0  0  0  0  0
   57.4307   31.2668   44.3495 H   0  0  0  0  0  0  0  0  0  0  0  0
   57.3780   33.4340   44.4090 C   0  0  0  0  0  0  0  0  0  0  0  0
   56.5876   33.5102   43.6478 H   0  0  0  0  0  0  0  0  0  0  0  0
   57.9080   34.5930   44.9820 C   0  0  0  0  0  0  0  0  0  0  0  0
   57.5323   35.5792   44.6718 H   0  0  0  0  0  0  0  0  0  0  0  0
   58.9150   34.5030   45.9490 C   0  0  0  0  0  0  0  0  0  0  0  0
   59.3300   35.4177   46.3975 H   0  0  0  0  0  0  0  0  0  0  0  0
   59.3970   33.2430   46.3480 C   0  0  0  0  0  0  0  0  0  0  0  0
   60.4060   33.0920   47.3140 C   0  0  0  0  0  0  0  0  0  0  0  0
   60.9140   34.1160   47.8560 O   0  0  0  0  0  0  0  0  0  0  0  0
   60.8430   31.8400   47.6670 N   0  0  0  0  0  0  0  0  0  0  0  0
   61.8840   31.7120   48.6590 C   0  0  0  0  0  0  0  0  0  0  0  0
   61.5870   31.1900   49.9390 C   0  0  0  0  0  0  0  0  0  0  0  0
   60.1830   30.7970   50.3120 C   0  0  0  0  0  0  0  0  0  0  0  0
   60.0885   30.7705   51.4076 H   0  0  0  0  0  0  0  0  0  0  0  0
   59.4751   31.5315   49.9005 H   0  0  0  0  0  0  0  0  0  0  0  0
   59.9593   29.8017   49.9005 H   0  0  0  0  0  0  0  0  0  0  0  0
   62.6040   31.0950   50.9010 C   0  0  0  0  0  0  0  0  0  0  0  0
   62.3709   30.7053   51.9029 H   0  0  0  0  0  0  0  0  0  0  0  0
   63.9120   31.4910   50.5990 C   0  0  0  0  0  0  0  0  0  0  0  0
   65.0020   31.3350   51.6190 C   0  0  0  0  0  0  0  0  0  0  0  0
   64.5706   31.3967   52.6290 H   0  0  0  0  0  0  0  0  0  0  0  0
   65.4899   30.3579   51.4878 H   0  0  0  0  0  0  0  0  0  0  0  0
   65.7444   32.1361   51.4878 H   0  0  0  0  0  0  0  0  0  0  0  0
   64.2120   31.9740   49.3200 C   0  0  0  0  0  0  0  0  0  0  0  0
   65.2469   32.2520   49.0714 H   0  0  0  0  0  0  0  0  0  0  0  0
   63.2040   32.1070   48.3510 C   0  0  0  0  0  0  0  0  0  0  0  0
   63.5470   32.6450   46.9880 C   0  0  0  0  0  0  0  0  0  0  0  0
   64.1355   33.5681   47.0956 H   0  0  0  0  0  0  0  0  0  0  0  0
   64.1354   31.8972   46.4361 H   0  0  0  0  0  0  0  0  0  0  0  0
   62.6208   32.8629   46.4361 H   0  0  0  0  0  0  0  0  0  0  0  0
   59.0550   27.7370   46.5540 C   0  0  0  0  0  0  0  0  0  0  0  0
   58.2200   28.3030   45.5750 C   0  0  0  0  0  0  0  0  0  0  0  0
   58.5840   29.1434   44.9657 H   0  0  0  0  0  0  0  0  0  0  0  0
   56.9310   27.8050   45.3710 C   0  0  0  0  0  0  0  0  0  0  0  0
   56.2776   28.2684   44.6171 H   0  0  0  0  0  0  0  0  0  0  0  0
   56.4650   26.7130   46.1260 C   0  0  0  0  0  0  0  0  0  0  0  0
   55.1770   26.1790   45.9620 O   0  0  0  0  0  0  0  0  0  0  0  0
   54.9080   24.8320   45.5900 C   0  0  0  0  0  0  0  0  0  0  0  0
   54.7856   24.2191   46.4952 H   0  0  0  0  0  0  0  0  0  0  0  0
   53.9845   24.7937   44.9936 H   0  0  0  0  0  0  0  0  0  0  0  0
   55.7460   24.4420   44.9936 H   0  0  0  0  0  0  0  0  0  0  0  0
   57.3110   26.1270   47.0750 C   0  0  0  0  0  0  0  0  0  0  0  0
   56.9590   25.2662   47.6624 H   0  0  0  0  0  0  0  0  0  0  0  0
   58.6010   26.6280   47.2820 C   0  0  0  0  0  0  0  0  0  0  0  0
   59.2622   26.1495   48.0195 H   0  0  0  0  0  0  0  0  0  0  0  0
  1  2  1  0
  2  3  2  0
  3  4  1  0
  3  5  1  0
  5  6  2  0
  6  7  1  0
  7  8  2  0
  8  9  1  0
  8 10  1  0
 10 11  1  0
 10 12  2  0
 12 13  1  0
 12 14  1  0
 14 15  1  0
 14 16  2  0
 16 17  1  0
 17 18  2  0
 17 19  1  0
 19 20  1  0
 20 21  2  0
 21 22  1  0
 22 23  1  0
 22 24  1  0
 22 25  1  0
 21 26  1  0
 26 27  1  0
 26 28  2  0
 28 29  1  0
 29 30  1  0
 29 31  1  0
 29 32  1  0
 28 33  1  0
 33 34  1  0
 33 35  2  0
 35 36  1  0
 36 37  1  0
 36 38  1  0
 36 39  1  0
  2 40  1  0
 40 41  2  0
 41 42  1  0
 41 43  1  0
 43 44  1  0
 43 45  2  0
 45 46  1  0
 46 47  1  0
 47 48  1  0
 47 49  1  0
 47 50  1  0
 45 51  1  0
 51 52  1  0
 51 53  2  0
 53 54  1  0
 19  5  1  0
 35 20  1  0
 53 40  1  0
 16  7  1  0
M  END
>  <UniqueID>  (3) 
3

>  <SMILES>  (3) 
COc1ccc(/C=C\c2nc3ccccc3c(=O)n2-c2c(C)cc(C)cc2C)cc1

>  <Energy>  (3) 
77.42449611124948

>  <Genealogy>  (3) 
COc1ccc(/C=C\c2nc3ccccc3c(=O)n2-c2c(C)cc(C)cc2C)cc1 (cis-trans isomerization)
COc1ccc(/C=C\c2nc3ccccc3c(=O)n2-c2c(C)cc(C)cc2C)cc1 (3D coordinates assigned)
COc1ccc(/C=C\c2nc3ccccc3c(=O)n2-c2c(C)cc(C)cc2C)cc1 (optimized conformer: 77.42449611124948 kcal/mol)

>  <smiles>  (3) 
COc1ccc(C=Cc2nc3ccccc3c(=O)n2-c2c(C)cc(C)cc2C)cc1

>  <score_type>  (3) 
oracle

>  <origin>  (3) 
adg

>  <m_score__min__energy>  (3) 
-8.8900000000000006

>  <m_primary>  (3) 
energy

$$$$
3:0
     RDKit          3D

 65 68  0  0  0  0  0  0  0  0999 V2000
   56.9790   30.4190   43.5920 C   0  0  0  0  0  0  0  0  0  0  0  0
   57.6910   31.4910   44.4220 C   0  0  2  0  0  0  0  0  0  0  0  0
   58.0900   32.7320   43.6040 C   0  0  0  0  0  0  0  0  0  0  0  0
   57.6160   33.5610   44.8000 C   0  0  2  0  0  0  0  0  0  0  0  0
   58.7950   33.6450   45.8120 C   0  0  0  0  0  0  0  0  0  0  0  0
   59.4110   32.2520   46.0150 C   0  0  0  0  0  0  0  0  0  0  0  0
   58.8930   31.1590   45.3640 C   0  0  0  0  0  0  0  0  0  0  0  0
   59.5770   29.8030   45.6200 C   0  0  2  0  0  0  0  0  0  0  0  0
   59.0140   28.5400   44.9470 C   0  0  0  0  0  0  0  0  0  0  0  0
   59.7100   27.3810   45.6470 C   0  0  0  0  0  0  0  0  0  0  0  0
   59.9990   27.9290   46.9990 C   0  0  0  0  0  0  0  0  0  0  0  0
   60.3980   27.2290   47.9180 O   0  0  0  0  0  0  0  0  0  0  0  0
   59.7740   29.4130   47.1180 C   0  0  1  0  0  0  0  0  0  0  0  0
   61.0220   30.0910   47.7260 C   0  0  0  0  0  0  0  0  0  0  0  0
   58.5000   29.7240   47.9580 C   0  0  0  0  0  0  0  0  0  0  0  0
   58.7830   30.3000   49.3240 C   0  0  0  0  0  0  0  0  0  0  0  0
   58.3360   29.7060   50.3410 O   0  0  0  0  0  0  0  0  0  0  0  0
   59.5310   31.5110   49.5110 N   0  0  0  0  0  0  0  0  0  0  0  0
   59.2260   32.5640   50.4750 C   0  0  0  0  0  0  0  0  0  0  0  0
   60.0210   33.8410   50.1650 C   0  0  0  0  0  0  0  0  0  0  0  0
   61.2560   33.5190   49.4150 N   0  0  0  0  0  0  0  0  0  0  0  0
   61.1420   33.9610   48.0030 C   0  0  0  0  0  0  0  0  0  0  0  0
   62.2810   33.4560   47.0990 C   0  0  0  0  0  0  0  0  0  0  0  0
   63.6870   33.8740   47.5640 C   0  0  0  0  0  0  0  0  0  0  0  0
   64.3190   32.9760   48.6520 C   0  0  0  0  0  0  0  0  0  0  0  0
   63.6570   33.0970   50.0370 C   0  0  0  0  0  0  0  0  0  0  0  0
   62.4570   34.0780   50.0820 C   0  0  0  0  0  0  0  0  0  0  0  0
   56.7280   32.3860   45.2210 C   0  0  0  0  0  0  0  0  0  0  0  0
   56.4975   29.6941   44.2648 H   0  0  0  0  0  0  0  0  0  0  0  0
   56.2159   30.8934   42.9575 H   0  0  0  0  0  0  0  0  0  0  0  0
   57.7122   29.8995   42.9575 H   0  0  0  0  0  0  0  0  0  0  0  0
   57.5123   32.8817   42.6800 H   0  0  0  0  0  0  0  0  0  0  0  0
   59.0939   32.8500   43.1701 H   0  0  0  0  0  0  0  0  0  0  0  0
   57.2198   34.5805   44.6832 H   0  0  0  0  0  0  0  0  0  0  0  0
   58.4223   34.0228   46.7755 H   0  0  0  0  0  0  0  0  0  0  0  0
   59.5630   34.3263   45.4171 H   0  0  0  0  0  0  0  0  0  0  0  0
   60.2734   32.1292   46.6868 H   0  0  0  0  0  0  0  0  0  0  0  0
   60.5241   30.0672   45.1268 H   0  0  0  0  0  0  0  0  0  0  0  0
   59.2457   28.5383   43.8717 H   0  0  0  0  0  0  0  0  0  0  0  0
   57.9190   28.4782   45.0319 H   0  0  0  0  0  0  0  0  0  0  0  0
   60.6386   27.1050   45.1259 H   0  0  0  0  0  0  0  0  0  0  0  0
   59.1033   26.4638   45.6725 H   0  0  0  0  0  0  0  0  0  0  0  0
   60.9596   30.0571   48.8237 H   0  0  0  0  0  0  0  0  0  0  0  0
   61.9263   29.5601   47.3936 H   0  0  0  0  0  0  0  0  0  0  0  0
   61.0688   31.1385   47.3936 H   0  0  0  0  0  0  0  0  0  0  0  0
   57.8869   30.4466   47.3995 H   0  0  0  0  0  0  0  0  0  0  0  0
   57.9873   28.7644   48.1204 H   0  0  0  0  0  0  0  0  0  0  0  0
   58.1504   32.7905   50.4320 H   0  0  0  0  0  0  0  0  0  0  0  0
   59.5058   32.2119   51.4789 H   0  0  0  0  0  0  0  0  0  0  0  0
   59.3976   34.5169   49.5612 H   0  0  0  0  0  0  0  0  0  0  0  0
   60.2988   34.3238   51.1135 H   0  0  0  0  0  0  0  0  0  0  0  0
   60.1885   33.5895   47.5994 H   0  0  0  0  0  0  0  0  0  0  0  0
   61.1990   35.0595   48.0060 H   0  0  0  0  0  0  0  0  0  0  0  0
   62.2389   32.3571   47.0722 H   0  0  0  0  0  0  0  0  0  0  0  0
   62.1261   33.9124   46.1102 H   0  0  0  0  0  0  0  0  0  0  0  0
   64.3514   33.8640   46.6874 H   0  0  0  0  0  0  0  0  0  0  0  0
   63.5726   34.8684   48.0201 H   0  0  0  0  0  0  0  0  0  0  0  0
   64.2406   31.9293   48.3230 H   0  0  0  0  0  0  0  0  0  0  0  0
   65.3603   33.3102   48.7704 H   0  0  0  0  0  0  0  0  0  0  0  0
   63.3002   32.1008   50.3375 H   0  0  0  0  0  0  0  0  0  0  0  0
   64.4206   33.4986   50.7194 H   0  0  0  0  0  0  0  0  0  0  0  0
   62.2123   34.2916   51.1330 H   0  0  0  0  0  0  0  0  0  0  0  0
   62.7472   34.9940   49.5465 H   0  0  0  0  0  0  0  0  0  0  0  0
   55.6997   32.4212   44.8321 H   0  0  0  0  0  0  0  0  0  0  0  0
   56.4796   32.1866   46.2739 H   0  0  0  0  0  0  0  0  0  0  0  0
  2  1  1  6
  2  3  1  0
  3  4  1  0
  4  5  1  0
  5  6  1  0
  6  7  2  0
  7  8  1  0
  8  9  1  0
  9 10  1  0
 10 11  1  0
 11 12  2  0
 11 13  1  0
 13 14  1  1
 13 15  1  0
 15 16  1  0
 16 17  2  0
 16 18  1  0
 18 19  1  0
 19 20  1  0
 20 21  1  0
 21 22  1  0
 22 23  1  0
 23 24  1  0
 24 25  1  0
 25 26  1  0
 26 27  1  0
  4 28  1  0
  7  2  1  0
 13  8  1  0
 27 21  1  0
 28  2  1  0
  1 29  1  0
  1 30  1  0
  1 31  1  0
  3 32  1  0
  3 33  1  0
  4 34  1  6
  5 35  1  0
  5 36  1  0
  6 37  1  0
  8 38  1  6
  9 39  1  0
  9 40  1  0
 10 41  1  0
 10 42  1  0
 14 43  1  0
 14 44  1  0
 14 45  1  0
 15 46  1  0
 15 47  1  0
 19 48  1  0
 19 49  1  0
 20 50  1  0
 20 51  1  0
 22 52  1  0
 22 53  1  0
 23 54  1  0
 23 55  1  0
 24 56  1  0
 24 57  1  0
 25 58  1  0
 25 59  1  0
 26 60  1  0
 26 61  1  0
 27 62  1  0
 27 63  1  0
 28 64  1  0
 28 65  1  0
M  CHG  1  18  -1
M  END
>  <UniqueID>  (4) 
4

>  <SMILES>  (4) 
CC12CC(CC=C1[C@@H]1CCC(=O)[C@]1(C)CC(=O)[N-]CCN1CCCCCC1)C2

>  <Energy>  (4) 
171.53535920131793

>  <Genealogy>  (4) 
CC12CC(CC=C1C1CCC(=O)C1(C)CC(=O)[N-]CCN1CCCCCC1)C2 (protonated)
CC12CC(CC=C1[C@@H]1CCC(=O)[C@]1(C)CC(=O)[N-]CCN1CCCCCC1)C2 (chirality)
CC12CC(CC=C1[C@@H]1CCC(=O)[C@]1(C)CC(=O)[N-]CCN1CCCCCC1)C2 (3D coordinates assigned)
CC12CC(CC=C1[C@@H]1CCC(=O)[C@]1(C)CC(=O)[N-]CCN1CCCCCC1)C2 (nonaromatic ring conformer: 171.53535920131793 kcal/mol)

>  <smiles>  (4) 
CC12CC(CC=C1C1CCC(=O)C1(C)CC(=O)NCCN1CCCCCC1)C2

>  <score_type>  (4) 
oracle

>  <origin>  (4) 
adg

>  <m_score__min__energy>  (4) 
-8.2400000000000002

>  <m_primary>  (4) 
energy

$$$$
4:0
     RDKit          3D

 45 47  0  0  0  0  0  0  0  0999 V2000
   59.4030   30.7800   45.4380 H   0  0  0  0  0  0  0  0  0  0  0  0
   58.9000   29.9130   45.1520 N   0  0  0  0  0  0  0  0  0  0  0  0
   57.6200   29.8760   44.9520 C   0  0  0  0  0  0  0  0  0  0  0  0
   56.7970   28.7740   45.0880 C   0  0  0  0  0  0  0  0  0  0  0  0
   57.1440   27.4120   45.5560 C   0  0  0  0  0  0  0  0  0  0  0  0
   58.4830   26.9910   45.5270 C   0  0  0  0  0  0  0  0  0  0  0  0
   59.2668   27.6920   45.2040 H   0  0  0  0  0  0  0  0  0  0  0  0
   58.8310   25.6910   45.9040 C   0  0  0  0  0  0  0  0  0  0  0  0
   59.8839   25.3741   45.8715 H   0  0  0  0  0  0  0  0  0  0  0  0
   57.8390   24.7860   46.3250 C   0  0  0  0  0  0  0  0  0  0  0  0
   58.1260   23.4630   46.6980 O   0  0  0  0  0  0  0  0  0  0  0  0
   57.7590   22.2940   45.9650 C   0  0  0  0  0  0  0  0  0  0  0  0
   58.0975   21.4029   46.5140 H   0  0  0  0  0  0  0  0  0  0  0  0
   56.6652   22.2793   45.8489 H   0  0  0  0  0  0  0  0  0  0  0  0
   58.3980   22.3010   44.5800 C   0  0  0  0  0  0  0  0  0  0  0  0
   59.4932   22.3130   44.6816 H   0  0  0  0  0  0  0  0  0  0  0  0
   58.0906   21.3994   44.0298 H   0  0  0  0  0  0  0  0  0  0  0  0
   58.0710   23.1956   44.0298 H   0  0  0  0  0  0  0  0  0  0  0  0
   56.5090   25.2150   46.3850 C   0  0  0  0  0  0  0  0  0  0  0  0
   55.7292   24.5222   46.7343 H   0  0  0  0  0  0  0  0  0  0  0  0
   56.1600   26.5140   46.0060 C   0  0  0  0  0  0  0  0  0  0  0  0
   55.1095   26.8358   46.0600 H   0  0  0  0  0  0  0  0  0  0  0  0
   55.5310   29.2060   44.8980 N   0  0  0  0  0  0  0  0  0  0  0  0
   55.5850   30.5120   44.6590 N   0  0  0  0  0  0  0  0  0  0  0  0
   56.8370   30.9420   44.6870 N   0  0  0  0  0  0  0  0  0  0  0  0
   57.2030   32.3570   44.6410 C   0  0  0  0  0  0  0  0  0  0  0  0
   57.8061   32.5431   43.7401 H   0  0  0  0  0  0  0  0  0  0  0  0
   56.2807   32.9561   44.6192 H   0  0  0  0  0  0  0  0  0  0  0  0
   58.0000   32.7500   45.8560 C   0  0  0  0  0  0  0  0  0  0  0  0
   57.4040   33.0220   46.9310 O   0  0  0  0  0  0  0  0  0  0  0  0
   59.4180   32.9220   45.7780 N   0  0  0  0  0  0  0  0  0  0  0  0
   60.2490   33.2560   46.8970 C   0  0  0  0  0  0  0  0  0  0  0  0
   61.3850   32.4820   47.1570 C   0  0  0  0  0  0  0  0  0  0  0  0
   61.6709   31.6801   46.4605 H   0  0  0  0  0  0  0  0  0  0  0  0
   62.1590   32.7210   48.2960 C   0  0  0  0  0  0  0  0  0  0  0  0
   63.0462   32.1020   48.4952 H   0  0  0  0  0  0  0  0  0  0  0  0
   61.8090   33.7470   49.1860 C   0  0  0  0  0  0  0  0  0  0  0  0
   62.6400   33.9970   50.4100 C   0  0  0  0  0  0  0  0  0  0  0  0
   62.0329   33.8144   51.3089 H   0  0  0  0  0  0  0  0  0  0  0  0
   63.5069   33.3199   50.4092 H   0  0  0  0  0  0  0  0  0  0  0  0
   62.9894   35.0400   50.4092 H   0  0  0  0  0  0  0  0  0  0  0  0
   60.7070   34.5660   48.8930 C   0  0  0  0  0  0  0  0  0  0  0  0
   60.4535   35.4029   49.5603 H   0  0  0  0  0  0  0  0  0  0  0  0
   59.9310   34.3220   47.7570 C   0  0  0  0  0  0  0  0  0  0  0  0
   59.0678   34.9665   47.5345 H   0  0  0  0  0  0  0  0  0  0  0  0
  1  2  1  0
  2  3  2  0
  3  4  1  0
  4  5  1  0
  5  6  2  0
  6  7  1  0
  6  8  1  0
  8  9  1  0
  8 10  2  0
 10 11  1  0
 11 12  1  0
 12 13  1  0
 12 14  1  0
 12 15  1  0
 15 16  1  0
 15 17  1  0
 15 18  1  0
 10 19  1  0
 19 20  1  0
 19 21  2  0
 21 22  1  0
  4 23  2  0
 23 24  1  0
 24 25  1  0
 25 26  1  0
 26 27  1  0
 26 28  1  0
 26 29  1  0
 29 30  2  0
 29 31  1  0
 31 32  1  0
 32 33  2  0
 33 34  1  0
 33 35  1  0
 35 36  1  0
 35 37  2  0
 37 38  1  0
 38 39  1  0
 38 40  1  0
 38 41  1  0
 37 42  1  0
 42 43  1  0
 42 44  2  0
 44 45  1  0
 25  3  1  0
 44 32  1  0
 21  5  1  0
M  CHG  2  24  -1  31  -1
M  END
>  <UniqueID>  (5) 
5

>  <SMILES>  (5) 
[H]/N=c1/c(-c2ccc(OCC)cc2)n[n-]n1CC(=O)[N-]c1ccc(C)cc1

>  <Energy>  (5) 
88.97348377481795

>  <Genealogy>  (5) 
CCOc1ccc(-c2n[n-]n(CC(=O)[N-]c3ccc(C)cc3)c2=N)cc1 (protonated)
[H]/N=c1/c(-c2ccc(OCC)cc2)n[n-]n1CC(=O)[N-]c1ccc(C)cc1 (cis-trans isomerization)
[H]/N=c1/c(-c2ccc(OCC)cc2)n[n-]n1CC(=O)[N-]c1ccc(C)cc1 (3D coordinates assigned)
[H]/N=c1/c(-c2ccc(OCC)cc2)n[n-]n1CC(=O)[N-]c1ccc(C)cc1 (optimized conformer: 88.97348377481795 kcal/mol)

>  <smiles>  (5) 
CCOc1ccc(-c2n[nH]n(CC(=O)Nc3ccc(C)cc3)c2=N)cc1

>  <score_type>  (5) 
oracle

>  <origin>  (5) 
adg

>  <m_score__min__energy>  (5) 
-9.6699999999999999

>  <m_primary>  (5) 
energy

$$$$
5:0
     RDKit          3D

 36 38  0  0  0  0  0  0  0  0999 V2000
   57.7890   26.5800   43.1160 N   0  0  0  0  0  0  0  0  0  0  0  0
   58.1300   26.1600   44.4120 N   0  0  0  0  0  0  0  0  0  0  0  0
   58.6900   26.9020   45.3810 C   0  0  0  0  0  0  0  0  0  0  0  0
   58.9960   28.6650   45.2810 S   0  0  0  0  0  0  0  0  0  0  0  0
   57.2610   29.0980   45.6270 C   0  0  0  0  0  0  0  0  0  0  0  0
   56.7150   29.8970   44.4920 C   0  0  0  0  0  0  0  0  0  0  0  0
   56.4670   29.3280   43.3950 O   0  0  0  0  0  0  0  0  0  0  0  0
   56.3840   31.2760   44.6970 N   0  0  0  0  0  0  0  0  0  0  0  0
   57.2810   32.3190   45.1030 C   0  0  0  0  0  0  0  0  0  0  0  0
   58.0230   32.9880   44.1210 C   0  0  0  0  0  0  0  0  0  0  0  0
   58.8930   34.0240   44.4730 C   0  0  0  0  0  0  0  0  0  0  0  0
   59.0160   34.4110   45.8100 C   0  0  0  0  0  0  0  0  0  0  0  0
   59.8580   35.4170   46.1510 F   0  0  0  0  0  0  0  0  0  0  0  0
   58.2620   33.7670   46.7940 C   0  0  0  0  0  0  0  0  0  0  0  0
   57.3910   32.7290   46.4450 C   0  0  0  0  0  0  0  0  0  0  0  0
   59.0370   26.1420   46.4370 N   0  0  0  0  0  0  0  0  0  0  0  0
   58.6980   24.8930   46.1420 N   0  0  0  0  0  0  0  0  0  0  0  0
   58.1450   24.9080   44.9110 C   0  0  0  0  0  0  0  0  0  0  0  0
   57.6210   23.6990   44.2430 C   0  0  0  0  0  0  0  0  0  0  0  0
   58.3290   22.4910   44.3220 C   0  0  0  0  0  0  0  0  0  0  0  0
   57.8230   21.3420   43.7120 C   0  0  0  0  0  0  0  0  0  0  0  0
   56.6020   21.4070   43.0390 C   0  0  0  0  0  0  0  0  0  0  0  0
   55.9130   22.5780   42.9920 N   0  0  0  0  0  0  0  0  0  0  0  0
   56.3870   23.7110   43.5760 C   0  0  0  0  0  0  0  0  0  0  0  0
   58.3400   26.2700   42.2860 H   0  0  0  0  0  0  0  0  0  0  0  0
   57.0260   27.2770   42.9680 H   0  0  0  0  0  0  0  0  0  0  0  0
   56.6698   28.1781   45.7464 H   0  0  0  0  0  0  0  0  0  0  0  0
   57.2071   29.6896   46.5528 H   0  0  0  0  0  0  0  0  0  0  0  0
   57.9203   32.6960   43.0654 H   0  0  0  0  0  0  0  0  0  0  0  0
   59.4814   34.5351   43.6967 H   0  0  0  0  0  0  0  0  0  0  0  0
   58.3532   34.0766   47.8456 H   0  0  0  0  0  0  0  0  0  0  0  0
   56.7907   32.2321   47.2214 H   0  0  0  0  0  0  0  0  0  0  0  0
   59.2844   22.4489   44.8655 H   0  0  0  0  0  0  0  0  0  0  0  0
   58.3807   20.3952   43.7612 H   0  0  0  0  0  0  0  0  0  0  0  0
   56.1971   20.5106   42.5465 H   0  0  0  0  0  0  0  0  0  0  0  0
   55.8006   24.6403   43.5252 H   0  0  0  0  0  0  0  0  0  0  0  0
  1  2  1  0
  2  3  1  0
  3  4  1  0
  4  5  1  0
  5  6  1  0
  6  7  2  0
  6  8  1  0
  8  9  1  0
  9 10  2  0
 10 11  1  0
 11 12  2  0
 12 13  1  0
 12 14  1  0
 14 15  2  0
  3 16  2  0
 16 17  1  0
 17 18  2  0
 18 19  1  0
 19 20  2  0
 20 21  1  0
 21 22  2  0
 22 23  1  0
 23 24  2  0
 18  2  1  0
 24 19  1  0
 15  9  1  0
  1 25  1  0
  1 26  1  0
  5 27  1  0
  5 28  1  0
 10 29  1  0
 11 30  1  0
 14 31  1  0
 15 32  1  0
 20 33  1  0
 21 34  1  0
 22 35  1  0
 24 36  1  0
M  CHG  1   8  -1
M  END
>  <UniqueID>  (6) 
6

>  <SMILES>  (6) 
Nn1c(SCC(=O)[N-]c2ccc(F)cc2)nnc1-c1cccnc1

>  <Energy>  (6) 
78.35787826271843

>  <Genealogy>  (6) 
Nn1c(SCC(=O)[N-]c2ccc(F)cc2)nnc1-c1cccnc1 (protonated)
Nn1c(SCC(=O)[N-]c2ccc(F)cc2)nnc1-c1cccnc1 (3D coordinates assigned)
Nn1c(SCC(=O)[N-]c2ccc(F)cc2)nnc1-c1cccnc1 (optimized conformer: 78.35787826271843 kcal/mol)

>  <smiles>  (6) 
Nn1c(SCC(=O)Nc2ccc(F)cc2)nnc1-c1cccnc1

>  <score_type>  (6) 
oracle

>  <origin>  (6) 
adg

>  <m_score__min__energy>  (6) 
-9.75

>  <m_primary>  (6) 
energy

$$$$
6:0
     RDKit          3D

 43 45  0  0  0  0  0  0  0  0999 V2000
   56.2710   22.2110   42.6650 C   0  0  0  0  0  0  0  0  0  0  0  0
   55.5590   23.0810   43.5400 O   0  0  0  0  0  0  0  0  0  0  0  0
   56.1240   24.1930   44.1830 C   0  0  0  0  0  0  0  0  0  0  0  0
   57.1930   24.8470   43.5620 C   0  0  0  0  0  0  0  0  0  0  0  0
   57.7910   25.9610   44.1600 C   0  0  0  0  0  0  0  0  0  0  0  0
   57.3140   26.4470   45.3870 C   0  0  0  0  0  0  0  0  0  0  0  0
   57.9740   27.6120   46.0200 C   0  0  0  0  0  0  0  0  0  0  0  0
   58.8910   27.3780   46.9980 N   0  0  0  0  0  0  0  0  0  0  0  0
   59.5230   28.3940   47.6390 C   0  0  0  0  0  0  0  0  0  0  0  0
   60.5400   28.0950   48.6880 C   0  0  0  0  0  0  0  0  0  0  0  0
   59.2710   29.6780   47.2840 N   0  0  0  0  0  0  0  0  0  0  0  0
   58.3840   29.9800   46.3010 C   0  0  0  0  0  0  0  0  0  0  0  0
   58.1620   31.3540   45.9590 N   0  0  0  0  0  0  0  0  0  0  0  0
   58.2840   31.7660   44.5520 C   0  0  0  0  0  0  0  0  0  0  0  0
   58.1910   33.2880   44.4020 C   0  0  0  0  0  0  0  0  0  0  0  0
   57.0180   33.8320   45.2250 C   0  0  0  0  0  0  0  0  0  0  0  0
   57.1130   33.4610   46.7220 C   0  0  0  0  0  0  0  0  0  0  0  0
   58.1420   32.3600   47.0260 C   0  0  0  0  0  0  0  0  0  0  0  0
   57.6990   28.9440   45.6380 C   0  0  0  0  0  0  0  0  0  0  0  0
   56.7620   29.2520   44.5810 C   0  0  0  0  0  0  0  0  0  0  0  0
   56.0110   29.4990   43.7350 N   0  0  0  0  0  0  0  0  0  0  0  0
   56.2540   25.7800   46.0230 C   0  0  0  0  0  0  0  0  0  0  0  0
   55.6580   24.6660   45.4240 C   0  0  0  0  0  0  0  0  0  0  0  0
   56.8577   21.4941   43.2582 H   0  0  0  0  0  0  0  0  0  0  0  0
   55.5575   21.6647   42.0306 H   0  0  0  0  0  0  0  0  0  0  0  0
   56.9476   22.8024   42.0306 H   0  0  0  0  0  0  0  0  0  0  0  0
   57.5670   24.4818   42.5941 H   0  0  0  0  0  0  0  0  0  0  0  0
   58.6389   26.4583   43.6664 H   0  0  0  0  0  0  0  0  0  0  0  0
   60.0902   28.2272   49.6831 H   0  0  0  0  0  0  0  0  0  0  0  0
   60.8866   27.0569   48.5773 H   0  0  0  0  0  0  0  0  0  0  0  0
   61.3933   28.7803   48.5773 H   0  0  0  0  0  0  0  0  0  0  0  0
   59.2558   31.4273   44.1635 H   0  0  0  0  0  0  0  0  0  0  0  0
   57.4564   31.3125   43.9868 H   0  0  0  0  0  0  0  0  0  0  0  0
   59.1264   33.7456   44.7566 H   0  0  0  0  0  0  0  0  0  0  0  0
   58.0297   33.5343   43.3421 H   0  0  0  0  0  0  0  0  0  0  0  0
   57.0041   34.9282   45.1349 H   0  0  0  0  0  0  0  0  0  0  0  0
   56.0975   33.3780   44.8293 H   0  0  0  0  0  0  0  0  0  0  0  0
   57.3940   34.3630   47.2854 H   0  0  0  0  0  0  0  0  0  0  0  0
   56.1286   33.0688   47.0172 H   0  0  0  0  0  0  0  0  0  0  0  0
   59.1403   32.8138   47.1120 H   0  0  0  0  0  0  0  0  0  0  0  0
   57.8617   31.8673   47.9687 H   0  0  0  0  0  0  0  0  0  0  0  0
   55.8906   26.1362   46.9982 H   0  0  0  0  0  0  0  0  0  0  0  0
   54.8213   24.1570   45.9248 H   0  0  0  0  0  0  0  0  0  0  0  0
  1  2  1  0
  2  3  1  0
  3  4  2  0
  4  5  1  0
  5  6  2  0
  6  7  1  0
  7  8  2  0
  8  9  1  0
  9 10  1  0
  9 11  2  0
 11 12  1  0
 12 13  1  0
 13 14  1  0
 14 15  1  0
 15 16  1  0
 16 17  1  0
 17 18  1  0
 12 19  2  0
 19 20  1  0
 20 21  3  0
  6 22  1  0
 22 23  2  0
 23  3  1  0
 19  7  1  0
 18 13  1  0
  1 24  1  0
  1 25  1  0
  1 26  1  0
  4 27  1  0
  5 28  1  0
 10 29  1  0
 10 30  1  0
 10 31  1  0
 14 32  1  0
 14 33  1  0
 15 34  1  0
 15 35  1  0
 16 36  1  0
 16 37  1  0
 17 38  1  0
 17 39  1  0
 18 40  1  0
 18 41  1  0
 22 42  1  0
 23 43  1  0
M  END
>  <UniqueID>  (7) 
7

>  <SMILES>  (7) 
COc1ccc(-c2nc(C)nc(N3CCCCC3)c2C#N)cc1

>  <Energy>  (7) 
55.42836633741338

>  <Genealogy>  (7) 
COc1ccc(-c2nc(C)nc(N3CCCCC3)c2C#N)cc1 (3D coordinates assigned)
COc1ccc(-c2nc(C)nc(N3CCCCC3)c2C#N)cc1 (nonaromatic ring conformer: 55.42836633741338 kcal/mol)

>  <smiles>  (7) 
COc1ccc(-c2nc(C)nc(N3CCCCC3)c2C#N)cc1

>  <score_type>  (7) 
oracle

>  <origin>  (7) 
adg

>  <m_score__min__energy>  (7) 
-6.6900000000000004

>  <m_primary>  (7) 
energy

$$$$
7:0
     RDKit          3D

 44 46  0  0  0  0  0  0  0  0999 V2000
   59.9790   34.8690   47.0870 C   0  0  0  0  0  0  0  0  0  0  0  0
   59.1040   33.9020   46.3470 C   0  0  0  0  0  0  0  0  0  0  0  0
   58.4660   34.3230   45.2230 N   0  0  0  0  0  0  0  0  0  0  0  0
   57.6740   33.4920   44.4990 C   0  0  0  0  0  0  0  0  0  0  0  0
   57.5030   32.1660   44.9140 C   0  0  0  0  0  0  0  0  0  0  0  0
   56.6510   31.2160   44.1180 C   0  0  0  0  0  0  0  0  0  0  0  0
   56.3590   30.0580   44.8780 O   0  0  0  0  0  0  0  0  0  0  0  0
   57.0100   28.9200   44.3410 C   0  0  0  0  0  0  0  0  0  0  0  0
   58.1680   28.5140   45.2110 C   0  0  0  0  0  0  0  0  0  0  0  0
   59.4830   28.7910   44.8070 C   0  0  0  0  0  0  0  0  0  0  0  0
   60.5620   28.4300   45.6210 C   0  0  0  0  0  0  0  0  0  0  0  0
   60.3340   27.7940   46.8430 C   0  0  0  0  0  0  0  0  0  0  0  0
   59.0270   27.5210   47.2560 C   0  0  0  0  0  0  0  0  0  0  0  0
   57.9460   27.8790   46.4460 C   0  0  0  0  0  0  0  0  0  0  0  0
   58.1360   31.7380   46.0410 N   0  0  0  0  0  0  0  0  0  0  0  0
   58.9220   32.5720   46.7800 C   0  0  0  0  0  0  0  0  0  0  0  0
   59.5580   32.0720   47.9670 N   0  0  0  0  0  0  0  0  0  0  0  0
   58.8400   32.0030   49.2410 C   0  0  0  0  0  0  0  0  0  0  0  0
   59.1890   30.6880   49.9440 C   0  0  0  0  0  0  0  0  0  0  0  0
   60.5930   30.5260   50.0410 O   0  0  0  0  0  0  0  0  0  0  0  0
   61.1550   30.3970   48.7480 C   0  0  0  0  0  0  0  0  0  0  0  0
   60.9680   31.6860   47.9410 C   0  0  0  0  0  0  0  0  0  0  0  0
   59.8496   34.7259   48.1700 H   0  0  0  0  0  0  0  0  0  0  0  0
   61.0306   34.6926   46.8170 H   0  0  0  0  0  0  0  0  0  0  0  0
   59.6987   35.8978   46.8170 H   0  0  0  0  0  0  0  0  0  0  0  0
   57.1699   33.8579   43.5923 H   0  0  0  0  0  0  0  0  0  0  0  0
   55.7104   31.7160   43.8437 H   0  0  0  0  0  0  0  0  0  0  0  0
   57.1998   30.9187   43.2122 H   0  0  0  0  0  0  0  0  0  0  0  0
   56.2932   28.0878   44.2814 H   0  0  0  0  0  0  0  0  0  0  0  0
   57.3889   29.1678   43.3385 H   0  0  0  0  0  0  0  0  0  0  0  0
   59.6662   29.2942   43.8461 H   0  0  0  0  0  0  0  0  0  0  0  0
   61.5908   28.6473   45.2981 H   0  0  0  0  0  0  0  0  0  0  0  0
   61.1833   27.5078   47.4808 H   0  0  0  0  0  0  0  0  0  0  0  0
   58.8489   27.0233   48.2207 H   0  0  0  0  0  0  0  0  0  0  0  0
   56.9188   27.6636   46.7753 H   0  0  0  0  0  0  0  0  0  0  0  0
   58.0080   30.7490   46.3570 H   0  0  0  0  0  0  0  0  0  0  0  0
   59.1363   32.8503   49.8769 H   0  0  0  0  0  0  0  0  0  0  0  0
   57.7563   32.0483   49.0579 H   0  0  0  0  0  0  0  0  0  0  0  0
   58.7560   30.6938   50.9552 H   0  0  0  0  0  0  0  0  0  0  0  0
   58.7779   29.8542   49.3559 H   0  0  0  0  0  0  0  0  0  0  0  0
   62.2300   30.1833   48.8419 H   0  0  0  0  0  0  0  0  0  0  0  0
   60.6452   29.5758   48.2229 H   0  0  0  0  0  0  0  0  0  0  0  0
   61.5768   32.4882   48.3835 H   0  0  0  0  0  0  0  0  0  0  0  0
   61.2853   31.5190   46.9011 H   0  0  0  0  0  0  0  0  0  0  0  0
  1  2  1  0
  2  3  2  0
  3  4  1  0
  4  5  2  0
  5  6  1  0
  6  7  1  0
  7  8  1  0
  8  9  1  0
  9 10  2  0
 10 11  1  0
 11 12  2  0
 12 13  1  0
 13 14  2  0
  5 15  1  0
 15 16  2  0
 16 17  1  0
 17 18  1  0
 18 19  1  0
 19 20  1  0
 20 21  1  0
 21 22  1  0
 16  2  1  0
 22 17  1  0
 14  9  1  0
  1 23  1  0
  1 24  1  0
  1 25  1  0
  4 26  1  0
  6 27  1  0
  6 28  1  0
  8 29  1  0
  8 30  1  0
 10 31  1  0
 11 32  1  0
 12 33  1  0
 13 34  1  0
 14 35  1  0
 15 36  1  0
 18 37  1  0
 18 38  1  0
 19 39  1  0
 19 40  1  0
 21 41  1  0
 21 42  1  0
 22 43  1  0
 22 44  1  0
M  CHG  1  15   1
M  END
>  <UniqueID>  (8) 
8

>  <SMILES>  (8) 
Cc1ncc(COCc2ccccc2)[nH+]c1N1CCOCC1

>  <Energy>  (8) 
54.110675582686795

>  <Genealogy>  (8) 
Cc1ncc(COCc2ccccc2)[nH+]c1N1CCOCC1 (protonated)
Cc1ncc(COCc2ccccc2)[nH+]c1N1CCOCC1 (3D coordinates assigned)
Cc1ncc(COCc2ccccc2)[nH+]c1N1CCOCC1 (nonaromatic ring conformer: 54.110675582686795 kcal/mol)

>  <smiles>  (8) 
Cc1ncc(COCc2ccccc2)nc1N1CCOCC1

>  <score_type>  (8) 
oracle

>  <origin>  (8) 
adg

>  <m_score__min__energy>  (8) 
-5.25

>  <m_primary>  (8) 
energy

$$$$
8:0
     RDKit          3D

 50 54  0  0  1  0  0  0  0  0999 V2000
   57.0360   29.7200   51.9710 O   0  0  0  0  0  0  0  0  0  0  0  0
   56.1170   30.5790   51.9150 C   0  0  0  0  0  0  0  0  0  0  0  0
   56.5130   31.9300   51.7380 N   0  0  0  0  0  0  0  0  0  0  0  0
   57.8830   32.3230   51.6250 C   0  0  0  0  0  0  0  0  0  0  0  0
   58.3260   33.4150   52.3610 C   0  0  0  0  0  0  0  0  0  0  0  0
   59.6530   33.8300   52.2780 C   0  0  0  0  0  0  0  0  0  0  0  0
   60.5380   33.1510   51.4600 C   0  0  0  0  0  0  0  0  0  0  0  0
   60.1060   32.0550   50.7180 C   0  0  0  0  0  0  0  0  0  0  0  0
   61.0530   31.3910   49.8910 N   0  0  0  0  0  0  0  0  0  0  0  0
   62.1790   31.9210   49.6170 C   0  0  0  0  0  0  0  0  0  0  0  0
   63.2880   31.6890   50.3320 N   0  0  0  0  0  0  0  0  0  0  0  0
   64.4850   32.2330   50.0650 C   0  0  0  0  0  0  0  0  0  0  0  0
   64.6100   33.0970   48.9850 C   0  0  0  0  0  0  0  0  0  0  0  0
   63.4770   33.3480   48.2390 C   0  0  0  0  0  0  0  0  0  0  0  0
   62.2530   32.7780   48.5270 C   0  0  0  0  0  0  0  0  0  0  0  0
   61.0830   33.0770   47.7040 C   0  0  0  0  0  0  0  0  0  0  0  0
   61.0110   34.0810   46.8130 N   0  0  0  0  0  0  0  0  0  0  0  0
   59.7930   34.0860   46.2180 C   0  0  0  0  0  0  0  0  0  0  0  0
   59.1910   34.8790   45.2490 C   0  0  0  0  0  0  0  0  0  0  0  0
   57.8880   34.5880   44.8660 C   0  0  0  0  0  0  0  0  0  0  0  0
   57.1880   33.5200   45.4360 C   0  0  0  0  0  0  0  0  0  0  0  0
   57.8150   32.7480   46.3980 C   0  0  0  0  0  0  0  0  0  0  0  0
   59.1090   33.0160   46.7980 C   0  0  0  0  0  0  0  0  0  0  0  0
   59.9090   32.4140   47.7000 N   0  0  0  0  0  0  0  0  0  0  0  0
   58.7850   31.6660   50.8180 C   0  0  0  0  0  0  0  0  0  0  0  0
   54.7170   30.1890   52.0290 C   0  0  0  0  0  0  0  0  0  0  0  0
   54.2680   29.1870   52.8540 C   0  0  0  0  0  0  0  0  0  0  0  0
   52.9290   28.8540   52.9270 C   0  0  0  0  0  0  0  0  0  0  0  0
   51.9860   29.5190   52.1690 C   0  0  0  0  0  0  0  0  0  0  0  0
   52.4190   30.5300   51.3320 C   0  0  0  0  0  0  0  0  0  0  0  0
   53.7770   30.8520   51.2740 C   0  0  0  0  0  0  0  0  0  0  0  0
   55.8100   32.7000   51.6820 H   0  0  0  0  0  0  0  0  0  0  0  0
   57.6242   33.9553   53.0134 H   0  0  0  0  0  0  0  0  0  0  0  0
   59.9967   34.6964   52.8621 H   0  0  0  0  0  0  0  0  0  0  0  0
   61.5863   33.4780   51.3955 H   0  0  0  0  0  0  0  0  0  0  0  0
   63.2240   31.0440   51.1470 H   0  0  0  0  0  0  0  0  0  0  0  0
   65.3564   31.9976   50.6937 H   0  0  0  0  0  0  0  0  0  0  0  0
   65.5744   33.5629   48.7342 H   0  0  0  0  0  0  0  0  0  0  0  0
   63.5519   34.0303   47.3794 H   0  0  0  0  0  0  0  0  0  0  0  0
   59.7351   35.7200   44.7945 H   0  0  0  0  0  0  0  0  0  0  0  0
   57.3982   35.2084   44.1010 H   0  0  0  0  0  0  0  0  0  0  0  0
   56.1566   33.2974   45.1249 H   0  0  0  0  0  0  0  0  0  0  0  0
   57.2728   31.9056   46.8523 H   0  0  0  0  0  0  0  0  0  0  0  0
   59.6420   31.5860   48.2750 H   0  0  0  0  0  0  0  0  0  0  0  0
   58.4409   30.8007   50.2324 H   0  0  0  0  0  0  0  0  0  0  0  0
   54.9923   28.6360   53.4719 H   0  0  0  0  0  0  0  0  0  0  0  0
   52.6089   28.0453   53.6005 H   0  0  0  0  0  0  0  0  0  0  0  0
   50.9206   29.2519   52.2295 H   0  0  0  0  0  0  0  0  0  0  0  0
   51.6954   31.0802   50.7125 H   0  0  0  0  0  0  0  0  0  0  0  0
   54.1050   31.6605   50.6041 H   0  0  0  0  0  0  0  0  0  0  0  0
  1  2  2  0
  2  3  1  0
  3  4  1  0
  4  5  2  0
  5  6  1  0
  6  7  2  0
  7  8  1  0
  8  9  1  0
  9 10  2  0
 10 11  1  0
 11 12  1  0
 12 13  2  0
 13 14  1  0
 14 15  2  0
 15 16  1  0
 16 17  2  0
 17 18  1  0
 18 19  2  0
 19 20  1  0
 20 21  2  0
 21 22  1  0
 22 23  2  0
 23 24  1  0
  8 25  2  0
  2 26  1  0
 26 27  2  0
 27 28  1  0
 28 29  2  0
 29 30  1  0
 30 31  2  0
 25  4  1  0
 31 26  1  0
 15 10  1  0
 24 16  1  0
 23 18  1  0
  3 32  1  0
  5 33  1  0
  6 34  1  0
  7 35  1  0
 11 36  1  0
 12 37  1  0
 13 38  1  0
 14 39  1  0
 19 40  1  0
 20 41  1  0
 21 42  1  0
 22 43  1  0
 24 44  1  0
 25 45  1  0
 27 46  1  0
 28 47  1  0
 29 48  1  0
 30 49  1  0
 31 50  1  0
M  END
>  <smiles>  (9) 
O=C(Nc1cccc(N=c2[nH]cccc2-c2nc3ccccc3[nH]2)c1)c1ccccc1

>  <score_type>  (9) 
oracle

>  <origin>  (9) 
adg

>  <m_score__min__energy>  (9) 
-8.8399999999999999

>  <m_primary>  (9) 
energy

$$$$
9:0
     RDKit          3D

 41 43  0  0  0  0  0  0  0  0999 V2000
   67.2540   32.8940   50.4740 C   0  0  0  0  0  0  0  0  0  0  0  0
   66.0060   32.7280   49.8130 O   0  0  0  0  0  0  0  0  0  0  0  0
   64.8610   33.4510   50.1670 C   0  0  0  0  0  0  0  0  0  0  0  0
   64.8330   34.0960   51.2510 O   0  0  0  0  0  0  0  0  0  0  0  0
   63.6860   33.4590   49.2660 C   0  0  0  0  0  0  0  0  0  0  0  0
   62.4710   34.0190   49.6920 C   0  0  0  0  0  0  0  0  0  0  0  0
   61.3590   34.0280   48.8450 C   0  0  0  0  0  0  0  0  0  0  0  0
   61.4390   33.4780   47.5540 C   0  0  0  0  0  0  0  0  0  0  0  0
   60.2600   33.4880   46.6510 C   0  0  0  0  0  0  0  0  0  0  0  0
   59.6290   32.2880   46.2920 C   0  0  0  0  0  0  0  0  0  0  0  0
   58.5200   32.3310   45.4350 C   0  0  0  0  0  0  0  0  0  0  0  0
   57.8510   31.1240   45.0210 N   0  0  0  0  0  0  0  0  0  0  0  0
   57.0520   31.0730   43.7900 C   0  0  0  0  0  0  0  0  0  0  0  0
   55.7380   30.2990   44.0250 C   0  0  0  0  0  0  0  0  0  0  0  0
   55.8230   29.2840   45.0960 N   0  0  0  0  0  0  0  0  0  0  0  0
   57.1820   28.7580   45.2680 C   0  0  0  0  0  0  0  0  0  0  0  0
   58.1320   29.8710   45.7310 C   0  0  0  0  0  0  0  0  0  0  0  0
   58.1030   33.5320   44.9530 N   0  0  0  0  0  0  0  0  0  0  0  0
   58.7210   34.6870   45.3040 C   0  0  0  0  0  0  0  0  0  0  0  0
   59.7850   34.6650   46.1480 N   0  0  0  0  0  0  0  0  0  0  0  0
   62.6560   32.9190   47.1290 C   0  0  0  0  0  0  0  0  0  0  0  0
   63.7680   32.9090   47.9760 C   0  0  0  0  0  0  0  0  0  0  0  0
   67.0979   32.8732   51.5627 H   0  0  0  0  0  0  0  0  0  0  0  0
   67.9332   32.0783   50.1853 H   0  0  0  0  0  0  0  0  0  0  0  0
   67.6963   33.8589   50.1853 H   0  0  0  0  0  0  0  0  0  0  0  0
   62.3936   34.4538   50.6995 H   0  0  0  0  0  0  0  0  0  0  0  0
   60.4130   34.4694   49.1919 H   0  0  0  0  0  0  0  0  0  0  0  0
   59.9990   31.3264   46.6774 H   0  0  0  0  0  0  0  0  0  0  0  0
   56.8149   32.0985   43.4705 H   0  0  0  0  0  0  0  0  0  0  0  0
   57.6330   30.5559   43.0121 H   0  0  0  0  0  0  0  0  0  0  0  0
   54.9539   31.0219   44.2946 H   0  0  0  0  0  0  0  0  0  0  0  0
   55.5140   29.7604   43.0924 H   0  0  0  0  0  0  0  0  0  0  0  0
   55.5180   29.7180   45.9990 H   0  0  0  0  0  0  0  0  0  0  0  0
   57.1678   27.9568   46.0216 H   0  0  0  0  0  0  0  0  0  0  0  0
   57.5368   28.3642   44.3041 H   0  0  0  0  0  0  0  0  0  0  0  0
   58.0006   30.0312   46.8113 H   0  0  0  0  0  0  0  0  0  0  0  0
   59.1660   29.5659   45.5125 H   0  0  0  0  0  0  0  0  0  0  0  0
   58.3591   35.6455   44.9036 H   0  0  0  0  0  0  0  0  0  0  0  0
   60.2250   35.5730   46.4180 H   0  0  0  0  0  0  0  0  0  0  0  0
   62.7344   32.4855   46.1211 H   0  0  0  0  0  0  0  0  0  0  0  0
   64.7141   32.4673   47.6299 H   0  0  0  0  0  0  0  0  0  0  0  0
  1  2  1  0
  2  3  1  0
  3  4  2  0
  3  5  1  0
  5  6  2  0
  6  7  1  0
  7  8  2  0
  8  9  1  0
  9 10  2  0
 10 11  1  0
 11 12  1  0
 12 13  1  0
 13 14  1  0
 14 15  1  0
 15 16  1  0
 16 17  1  0
 11 18  2  0
 18 19  1  0
 19 20  2  0
  8 21  1  0
 21 22  2  0
 22  5  1  0
 20  9  1  0
 17 12  1  0
  1 23  1  0
  1 24  1  0
  1 25  1  0
  6 26  1  0
  7 27  1  0
 10 28  1  0
 13 29  1  0
 13 30  1  0
 14 31  1  0
 14 32  1  0
 15 33  1  0
 16 34  1  0
 16 35  1  0
 17 36  1  0
 17 37  1  0
 19 38  1  0
 20 39  1  0
 21 40  1  0
 22 41  1  0
M  CHG  1  20   1
M  END
>  <UniqueID>  (10) 
9

>  <SMILES>  (10) 
COC(=O)c1ccc(-c2cc(N3CCNCC3)nc[nH+]2)cc1

>  <Energy>  (10) 
53.327535629337234

>  <Genealogy>  (10) 
COC(=O)c1ccc(-c2cc(N3CCNCC3)nc[nH+]2)cc1 (protonated)
COC(=O)c1ccc(-c2cc(N3CCNCC3)nc[nH+]2)cc1 (3D coordinates assigned)
COC(=O)c1ccc(-c2cc(N3CCNCC3)nc[nH+]2)cc1 (nonaromatic ring conformer: 53.327535629337234 kcal/mol)

>  <smiles>  (10) 
COC(=O)c1ccc(-c2cc(N3CCNCC3)ncn2)cc1

>  <score_type>  (10) 
oracle

>  <origin>  (10) 
adg

>  <m_score__min__energy>  (10) 
-6.29

>  <m_primary>  (10) 
energy

$$$$
10:0
     RDKit          3D

 48 50  0  0  0  0  0  0  0  0999 V2000
   63.3295   34.5517   46.0244 H   0  0  0  0  0  0  0  0  0  0  0  0
   62.9730   33.7680   46.7090 C   0  0  0  0  0  0  0  0  0  0  0  0
   61.5960   33.3640   46.6440 N   0  0  0  0  0  0  0  0  0  0  0  0
   60.5850   34.3790   46.2960 C   0  0  0  0  0  0  0  0  0  0  0  0
   60.7983   35.2971   46.8630 H   0  0  0  0  0  0  0  0  0  0  0  0
   60.6439   34.5485   45.2107 H   0  0  0  0  0  0  0  0  0  0  0  0
   59.1570   33.9250   46.6170 C   0  0  0  0  0  0  0  0  0  0  0  0
   58.9929   33.9932   47.7025 H   0  0  0  0  0  0  0  0  0  0  0  0
   58.4520   34.5767   46.0801 H   0  0  0  0  0  0  0  0  0  0  0  0
   58.9330   32.5080   46.1740 C   0  0  0  0  0  0  0  0  0  0  0  0
   57.7040   32.1140   45.6290 C   0  0  0  0  0  0  0  0  0  0  0  0
   56.9066   32.8581   45.4860 H   0  0  0  0  0  0  0  0  0  0  0  0
   57.4820   30.7730   45.2630 C   0  0  0  0  0  0  0  0  0  0  0  0
   56.2680   30.3450   44.7030 O   0  0  0  0  0  0  0  0  0  0  0  0
   56.1100   29.9050   43.3580 C   0  0  0  0  0  0  0  0  0  0  0  0
   55.7382   28.8697   43.3522 H   0  0  0  0  0  0  0  0  0  0  0  0
   55.3896   30.5562   42.8414 H   0  0  0  0  0  0  0  0  0  0  0  0
   57.0801   29.9491   42.8414 H   0  0  0  0  0  0  0  0  0  0  0  0
   58.4950   29.8220   45.4600 C   0  0  0  0  0  0  0  0  0  0  0  0
   58.2420   28.4920   45.0890 O   0  0  0  0  0  0  0  0  0  0  0  0
   58.8910   27.8170   44.0160 C   0  0  0  0  0  0  0  0  0  0  0  0
   59.5997   27.0799   44.4216 H   0  0  0  0  0  0  0  0  0  0  0  0
   58.1399   27.3024   43.3988 H   0  0  0  0  0  0  0  0  0  0  0  0
   59.4347   28.5473   43.3988 H   0  0  0  0  0  0  0  0  0  0  0  0
   59.7230   30.2200   46.0240 C   0  0  0  0  0  0  0  0  0  0  0  0
   60.5140   29.4738   46.1899 H   0  0  0  0  0  0  0  0  0  0  0  0
   59.9460   31.5600   46.3760 C   0  0  0  0  0  0  0  0  0  0  0  0
   61.2530   31.9780   47.0090 C   0  0  2  0  0  0  0  0  0  0  0  0
   62.0439   31.3167   46.6253 H   0  0  0  0  0  0  0  0  0  0  0  0
   61.1870   31.8260   48.5310 C   0  0  0  0  0  0  0  0  0  0  0  0
   61.5818   32.7353   49.0078 H   0  0  0  0  0  0  0  0  0  0  0  0
   60.1420   31.6745   48.8394 H   0  0  0  0  0  0  0  0  0  0  0  0
   61.7897   30.9590   48.8394 H   0  0  0  0  0  0  0  0  0  0  0  0
   63.8140   33.2380   47.5510 N   0  0  0  0  0  0  0  0  0  0  0  0
   64.5920   32.6630   47.1590 H   0  0  0  0  0  0  0  0  0  0  0  0
   63.7770   33.4410   48.9760 C   0  0  0  0  0  0  0  0  0  0  0  0
   63.3390   34.5280   49.4460 O   0  0  0  0  0  0  0  0  0  0  0  0
   64.2990   32.4060   49.9010 C   0  0  0  0  0  0  0  0  0  0  0  0
   65.6820   32.2630   50.1210 C   0  0  0  0  0  0  0  0  0  0  0  0
   66.3891   32.9301   49.6062 H   0  0  0  0  0  0  0  0  0  0  0  0
   66.1630   31.2780   50.9900 C   0  0  0  0  0  0  0  0  0  0  0  0
   67.2451   31.1775   51.1602 H   0  0  0  0  0  0  0  0  0  0  0  0
   65.2730   30.4220   51.6420 C   0  0  0  0  0  0  0  0  0  0  0  0
   65.6539   29.6496   52.3263 H   0  0  0  0  0  0  0  0  0  0  0  0
   63.9000   30.5470   51.4250 C   0  0  0  0  0  0  0  0  0  0  0  0
   63.1999   29.8706   51.9372 H   0  0  0  0  0  0  0  0  0  0  0  0
   63.4120   31.5300   50.5580 C   0  0  0  0  0  0  0  0  0  0  0  0
   62.3290   31.6199   50.3879 H   0  0  0  0  0  0  0  0  0  0  0  0
  1  2  1  0
  2  3  1  0
  3  4  1  0
  4  5  1  0
  4  6  1  0
  4  7  1  0
  7  8  1  0
  7  9  1  0
  7 10  1  0
 10 11  2  0
 11 12  1  0
 11 13  1  0
 13 14  1  0
 14 15  1  0
 15 16  1  0
 15 17  1  0
 15 18  1  0
 13 19  2  0
 19 20  1  0
 20 21  1  0
 21 22  1  0
 21 23  1  0
 21 24  1  0
 19 25  1  0
 25 26  1  0
 25 27  2  0
 27 28  1  0
 28 29  1  6
 28 30  1  0
 30 31  1  0
 30 32  1  0
 30 33  1  0
  2 34  2  0
 34 35  1  0
 34 36  1  0
 36 37  2  0
 36 38  1  0
 38 39  2  0
 39 40  1  0
 39 41  1  0
 41 42  1  0
 41 43  2  0
 43 44  1  0
 43 45  1  0
 45 46  1  0
 45 47  2  0
 47 48  1  0
 28  3  1  0
 47 38  1  0
 27 10  1  0
M  CHG  1  34   1
M  END
>  <UniqueID>  (11) 
10

>  <SMILES>  (11) 
COc1cc2c(cc1OC)[C@H](C)N(/C=[NH+]\C(=O)c1ccccc1)CC2

>  <Energy>  (11) 
58.24745444514846

>  <Genealogy>  (11) 
COc1cc2c(cc1OC)C(C)N(C=[NH+]C(=O)c1ccccc1)CC2 (protonated)
COc1cc2c(cc1OC)[C@H](C)N(C=[NH+]C(=O)c1ccccc1)CC2 (chirality)
COc1cc2c(cc1OC)[C@H](C)N(/C=[NH+]\C(=O)c1ccccc1)CC2 (cis-trans isomerization)
COc1cc2c(cc1OC)[C@H](C)N(/C=[NH+]\C(=O)c1ccccc1)CC2 (3D coordinates assigned)
COc1cc2c(cc1OC)[C@H](C)N(/C=[NH+]\C(=O)c1ccccc1)CC2 (nonaromatic ring conformer: 58.24745444514846 kcal/mol)

>  <smiles>  (11) 
COc1cc2c(cc1OC)C(C)N(C=NC(=O)c1ccccc1)CC2

>  <score_type>  (11) 
oracle

>  <origin>  (11) 
adg

>  <m_score__min__energy>  (11) 
-6.4100000000000001

>  <m_primary>  (11) 
energy

$$$$
11:0
     RDKit          3D

 37 38  0  0  0  0  0  0  0  0999 V2000
   59.5356   34.9806   48.6514 H   0  0  0  0  0  0  0  0  0  0  0  0
   60.0810   34.1650   48.1540 C   0  0  0  0  0  0  0  0  0  0  0  0
   59.4730   33.5310   47.1380 C   0  0  0  0  0  0  0  0  0  0  0  0
   59.1830   34.2390   45.5250 S   0  0  0  0  0  0  0  0  0  0  0  0
   57.9330   32.9690   45.3210 C   0  0  0  0  0  0  0  0  0  0  0  0
   57.0290   33.1060   44.5120 O   0  0  0  0  0  0  0  0  0  0  0  0
   57.9890   31.8160   46.1840 N   0  0  1  0  0  0  0  0  0  0  0  0
   57.0260   31.5900   46.5270 H   0  0  0  0  0  0  0  0  0  0  0  0
   58.6000   30.6810   45.4640 C   0  0  0  0  0  0  0  0  0  0  0  0
   59.4641   30.3166   46.0390 H   0  0  0  0  0  0  0  0  0  0  0  0
   58.9110   31.0312   44.4687 H   0  0  0  0  0  0  0  0  0  0  0  0
   57.6200   29.5490   45.2820 C   0  0  0  0  0  0  0  0  0  0  0  0
   58.0540   28.3680   45.2290 O   0  0  0  0  0  0  0  0  0  0  0  0
   56.2040   29.7660   45.2250 N   0  0  0  0  0  0  0  0  0  0  0  0
   55.3950   29.8010   44.0080 C   0  0  0  0  0  0  0  0  0  0  0  0
   54.8116   30.7334   43.9903 H   0  0  0  0  0  0  0  0  0  0  0  0
   54.7256   28.9282   44.0064 H   0  0  0  0  0  0  0  0  0  0  0  0
   56.2810   29.7400   42.7590 C   0  0  0  0  0  0  0  0  0  0  0  0
   55.6538   29.4901   41.8906 H   0  0  0  0  0  0  0  0  0  0  0  0
   57.0522   28.9738   42.9267 H   0  0  0  0  0  0  0  0  0  0  0  0
   56.9860   31.0680   42.4920 C   0  0  0  0  0  0  0  0  0  0  0  0
   57.2403   31.5470   43.4490 H   0  0  0  0  0  0  0  0  0  0  0  0
   57.9061   30.8857   41.9173 H   0  0  0  0  0  0  0  0  0  0  0  0
   56.3195   31.7279   41.9173 H   0  0  0  0  0  0  0  0  0  0  0  0
   58.8020   32.2410   47.2900 C   0  0  0  0  0  0  0  0  0  0  0  0
   58.8830   31.5560   48.3470 O   0  0  0  0  0  0  0  0  0  0  0  0
   61.4350   33.8380   48.6470 C   0  0  0  0  0  0  0  0  0  0  0  0
   61.7990   34.0360   49.9920 C   0  0  0  0  0  0  0  0  0  0  0  0
   61.0574   34.4175   50.7093 H   0  0  0  0  0  0  0  0  0  0  0  0
   63.0990   33.7500   50.4210 C   0  0  0  0  0  0  0  0  0  0  0  0
   63.3728   33.8927   51.4768 H   0  0  0  0  0  0  0  0  0  0  0  0
   64.0510   33.2830   49.5100 C   0  0  0  0  0  0  0  0  0  0  0  0
   65.6820   32.9280   50.0500 Cl  0  0  0  0  0  0  0  0  0  0  0  0
   63.7050   33.1110   48.1650 C   0  0  0  0  0  0  0  0  0  0  0  0
   64.4559   32.7514   47.4461 H   0  0  0  0  0  0  0  0  0  0  0  0
   62.4050   33.3960   47.7340 C   0  0  0  0  0  0  0  0  0  0  0  0
   62.1414   33.2729   46.6732 H   0  0  0  0  0  0  0  0  0  0  0  0
  1  2  1  0
  2  3  2  0
  3  4  1  0
  4  5  1  0
  5  6  2  0
  5  7  1  0
  7  8  1  1
  7  9  1  0
  9 10  1  0
  9 11  1  0
  9 12  1  0
 12 13  2  0
 12 14  1  0
 14 15  1  0
 15 16  1  0
 15 17  1  0
 15 18  1  0
 18 19  1  0
 18 20  1  0
 18 21  1  0
 21 22  1  0
 21 23  1  0
 21 24  1  0
  7 25  1  0
 25 26  2  0
  2 27  1  0
 27 28  2  0
 28 29  1  0
 28 30  1  0
 30 31  1  0
 30 32  2  0
 32 33  1  0
 32 34  1  0
 34 35  1  0
 34 36  2  0
 36 37  1  0
 25  3  1  0
 36 27  1  0
M  CHG  2   7   1  14  -1
M  END
>  <UniqueID>  (12) 
11

>  <SMILES>  (12) 
CCC[N-]C(=O)C[N@@H+]1C(=O)S/C(=C\c2ccc(Cl)cc2)C1=O

>  <Energy>  (12) 
53.525214382828565

>  <Genealogy>  (12) 
CCC[N-]C(=O)C[NH+]1C(=O)SC(=Cc2ccc(Cl)cc2)C1=O (protonated)
CCC[N-]C(=O)C[N@@H+]1C(=O)SC(=Cc2ccc(Cl)cc2)C1=O (chirality)
CCC[N-]C(=O)C[N@@H+]1C(=O)S/C(=C\c2ccc(Cl)cc2)C1=O (cis-trans isomerization)
CCC[N-]C(=O)C[N@@H+]1C(=O)S/C(=C\c2ccc(Cl)cc2)C1=O (3D coordinates assigned)
CCC[N-]C(=O)C[N@@H+]1C(=O)S/C(=C\c2ccc(Cl)cc2)C1=O (nonaromatic ring conformer: 53.525214382828565 kcal/mol)

>  <smiles>  (12) 
CCCNC(=O)CN1C(=O)SC(=Cc2ccc(Cl)cc2)C1=O

>  <score_type>  (12) 
oracle

>  <origin>  (12) 
adg

>  <m_score__min__energy>  (12) 
-8.3200000000000003

>  <m_primary>  (12) 
energy

$$$$
12:0
     RDKit          3D

 31 32  0  0  0  0  0  0  0  0999 V2000
   58.1520   34.2100   46.7740 C   0  0  0  0  0  0  0  0  0  0  0  0
   59.2600   33.6540   45.9700 N   0  0  0  0  0  0  0  0  0  0  0  0
   58.8970   33.6390   44.5370 C   0  0  0  0  0  0  0  0  0  0  0  0
   58.0630   32.4280   44.2110 C   0  0  0  0  0  0  0  0  0  0  0  0
   57.7900   32.0970   42.8760 C   0  0  0  0  0  0  0  0  0  0  0  0
   57.0270   30.9650   42.5790 C   0  0  0  0  0  0  0  0  0  0  0  0
   56.5450   30.1730   43.6230 C   0  0  0  0  0  0  0  0  0  0  0  0
   56.8210   30.5040   44.9130 N   0  0  0  0  0  0  0  0  0  0  0  0
   57.5600   31.6010   45.2270 C   0  0  0  0  0  0  0  0  0  0  0  0
   60.4930   34.4430   46.1790 C   0  0  0  0  0  0  0  0  0  0  0  0
   61.5670   33.5940   46.8070 C   0  0  0  0  0  0  0  0  0  0  0  0
   61.2430   32.6280   47.7660 C   0  0  0  0  0  0  0  0  0  0  0  0
   62.2230   31.8790   48.3350 N   0  0  0  0  0  0  0  0  0  0  0  0
   63.5240   32.0510   47.9890 C   0  0  0  0  0  0  0  0  0  0  0  0
   63.8650   32.9860   47.0620 N   0  0  0  0  0  0  0  0  0  0  0  0
   62.9150   33.7580   46.4690 C   0  0  0  0  0  0  0  0  0  0  0  0
   58.3814   34.0949   47.8436 H   0  0  0  0  0  0  0  0  0  0  0  0
   58.0277   35.2773   46.5385 H   0  0  0  0  0  0  0  0  0  0  0  0
   57.2220   33.6718   46.5385 H   0  0  0  0  0  0  0  0  0  0  0  0
   58.3228   34.5470   44.3006 H   0  0  0  0  0  0  0  0  0  0  0  0
   59.8197   33.6040   43.9391 H   0  0  0  0  0  0  0  0  0  0  0  0
   58.1766   32.7286   42.0626 H   0  0  0  0  0  0  0  0  0  0  0  0
   56.8083   30.7005   41.5339 H   0  0  0  0  0  0  0  0  0  0  0  0
   55.9414   29.2804   43.4019 H   0  0  0  0  0  0  0  0  0  0  0  0
   57.7643   31.8411   46.2808 H   0  0  0  0  0  0  0  0  0  0  0  0
   60.8504   34.8185   45.2088 H   0  0  0  0  0  0  0  0  0  0  0  0
   60.2662   35.2826   46.8525 H   0  0  0  0  0  0  0  0  0  0  0  0
   60.1939   32.4750   48.0594 H   0  0  0  0  0  0  0  0  0  0  0  0
   64.3036   31.4334   48.4589 H   0  0  0  0  0  0  0  0  0  0  0  0
   64.8690   33.1140   46.8030 H   0  0  0  0  0  0  0  0  0  0  0  0
   63.2066   34.5120   45.7230 H   0  0  0  0  0  0  0  0  0  0  0  0
  1  2  1  0
  2  3  1  0
  3  4  1  0
  4  5  2  0
  5  6  1  0
  6  7  2  0
  7  8  1  0
  8  9  2  0
  2 10  1  0
 10 11  1  0
 11 12  2  0
 12 13  1  0
 13 14  2  0
 14 15  1  0
 15 16  2  0
  9  4  1  0
 16 11  1  0
  1 17  1  0
  1 18  1  0
  1 19  1  0
  3 20  1  0
  3 21  1  0
  5 22  1  0
  6 23  1  0
  7 24  1  0
  9 25  1  0
 10 26  1  0
 10 27  1  0
 12 28  1  0
 14 29  1  0
 15 30  1  0
 16 31  1  0
M  CHG  1  15   1
M  END
>  <UniqueID>  (13) 
12

>  <SMILES>  (13) 
CN(Cc1cccnc1)Cc1cnc[nH+]c1

>  <Energy>  (13) 
33.45259259644069

>  <Genealogy>  (13) 
CN(Cc1cccnc1)Cc1cnc[nH+]c1 (protonated)
CN(Cc1cccnc1)Cc1cnc[nH+]c1 (3D coordinates assigned)
CN(Cc1cccnc1)Cc1cnc[nH+]c1 (optimized conformer: 33.45259259644069 kcal/mol)

>  <smiles>  (13) 
CN(Cc1cccnc1)Cc1cncnc1

>  <score_type>  (13) 
oracle

>  <origin>  (13) 
adg

>  <m_score__min__energy>  (13) 
-5.2199999999999998

>  <m_primary>  (13) 
energy

$$$$
13:0
     RDKit          3D

 41 43  0  0  0  0  0  0  0  0999 V2000
   51.0200   32.3350   50.3500 O   0  0  0  0  0  0  0  0  0  0  0  0
   51.0260   32.2720   51.6070 C   0  0  0  0  0  0  0  0  0  0  0  0
   50.2560   33.1620   52.3440 O   0  0  0  0  0  0  0  0  0  0  0  0
   51.8310   31.2200   52.3060 C   0  0  0  0  0  0  0  0  0  0  0  0
   52.9340   30.6590   51.4030 C   0  0  0  0  0  0  0  0  0  0  0  0
   54.2500   30.5690   52.1290 C   0  0  0  0  0  0  0  0  0  0  0  0
   54.6940   31.5890   52.7190 O   0  0  0  0  0  0  0  0  0  0  0  0
   55.0600   29.3900   52.0810 N   0  0  0  0  0  0  0  0  0  0  0  0
   56.3830   29.3420   52.5510 N   0  0  0  0  0  0  0  0  0  0  0  0
   57.4390   30.1070   52.1660 C   0  0  0  0  0  0  0  0  0  0  0  0
   57.3710   31.2330   51.1730 C   0  0  0  0  0  0  0  0  0  0  0  0
   58.5450   31.2570   50.3640 O   0  0  0  0  0  0  0  0  0  0  0  0
   58.7920   32.1620   49.3170 C   0  0  0  0  0  0  0  0  0  0  0  0
   58.4870   31.8610   47.9740 C   0  0  0  0  0  0  0  0  0  0  0  0
   58.7550   32.7890   46.9640 C   0  0  0  0  0  0  0  0  0  0  0  0
   59.3260   34.0250   47.2800 C   0  0  0  0  0  0  0  0  0  0  0  0
   59.6620   35.1870   46.0090 Cl  0  0  0  0  0  0  0  0  0  0  0  0
   59.6280   34.3340   48.6090 C   0  0  0  0  0  0  0  0  0  0  0  0
   59.3620   33.4090   49.6250 C   0  0  0  0  0  0  0  0  0  0  0  0
   59.7570   33.8210   51.2860 Cl  0  0  0  0  0  0  0  0  0  0  0  0
   58.6010   29.6900   52.7310 N   0  0  0  0  0  0  0  0  0  0  0  0
   58.2530   28.6070   53.4510 C   0  0  0  0  0  0  0  0  0  0  0  0
   59.0740   27.7640   54.1970 C   0  0  0  0  0  0  0  0  0  0  0  0
   58.4700   26.6640   54.8360 C   0  0  0  0  0  0  0  0  0  0  0  0
   57.0790   26.4340   54.7070 C   0  0  0  0  0  0  0  0  0  0  0  0
   56.2800   27.3010   53.9380 C   0  0  0  0  0  0  0  0  0  0  0  0
   56.9100   28.3830   53.3270 C   0  0  0  0  0  0  0  0  0  0  0  0
   52.2931   31.6608   53.2016 H   0  0  0  0  0  0  0  0  0  0  0  0
   51.1561   30.3947   52.5770 H   0  0  0  0  0  0  0  0  0  0  0  0
   52.6426   29.6534   51.0656 H   0  0  0  0  0  0  0  0  0  0  0  0
   53.0581   31.3389   50.5472 H   0  0  0  0  0  0  0  0  0  0  0  0
   56.4902   31.0948   50.5287 H   0  0  0  0  0  0  0  0  0  0  0  0
   57.2958   32.1849   51.7191 H   0  0  0  0  0  0  0  0  0  0  0  0
   58.0357   30.8906   47.7197 H   0  0  0  0  0  0  0  0  0  0  0  0
   58.5161   32.5462   45.9181 H   0  0  0  0  0  0  0  0  0  0  0  0
   60.0762   35.3074   48.8573 H   0  0  0  0  0  0  0  0  0  0  0  0
   59.5580   30.0850   52.5960 H   0  0  0  0  0  0  0  0  0  0  0  0
   60.1545   27.9509   54.2837 H   0  0  0  0  0  0  0  0  0  0  0  0
   59.0832   25.9787   55.4396 H   0  0  0  0  0  0  0  0  0  0  0  0
   56.6192   25.5714   55.2115 H   0  0  0  0  0  0  0  0  0  0  0  0
   55.1993   27.1307   53.8238 H   0  0  0  0  0  0  0  0  0  0  0  0
  1  2  2  0
  2  3  1  0
  2  4  1  0
  4  5  1  0
  5  6  1  0
  6  7  2  0
  6  8  1  0
  8  9  1  0
  9 10  1  0
 10 11  1  0
 11 12  1  0
 12 13  1  0
 13 14  2  0
 14 15  1  0
 15 16  2  0
 16 17  1  0
 16 18  1  0
 18 19  2  0
 19 20  1  0
 10 21  2  0
 21 22  1  0
 22 23  2  0
 23 24  1  0
 24 25  2  0
 25 26  1  0
 26 27  2  0
 27  9  1  0
 19 13  1  0
 27 22  1  0
  4 28  1  0
  4 29  1  0
  5 30  1  0
  5 31  1  0
 11 32  1  0
 11 33  1  0
 14 34  1  0
 15 35  1  0
 18 36  1  0
 21 37  1  0
 23 38  1  0
 24 39  1  0
 25 40  1  0
 26 41  1  0
M  CHG  3   3  -1   8  -1  21   1
M  END
>  <UniqueID>  (14) 
13

>  <SMILES>  (14) 
O=C([O-])CCC(=O)[N-]n1c(COc2ccc(Cl)cc2Cl)[nH+]c2ccccc21

>  <Energy>  (14) 
83.84464004405632

>  <Genealogy>  (14) 
O=C([O-])CCC(=O)[N-]n1c(COc2ccc(Cl)cc2Cl)[nH+]c2ccccc21 (protonated)
O=C([O-])CCC(=O)[N-]n1c(COc2ccc(Cl)cc2Cl)[nH+]c2ccccc21 (3D coordinates assigned)
O=C([O-])CCC(=O)[N-]n1c(COc2ccc(Cl)cc2Cl)[nH+]c2ccccc21 (optimized conformer: 83.84464004405632 kcal/mol)

>  <smiles>  (14) 
O=C(O)CCC(=O)Nn1c(COc2ccc(Cl)cc2Cl)nc2ccccc21

>  <score_type>  (14) 
oracle

>  <origin>  (14) 
adg

>  <m_score__min__energy>  (14) 
-10.42

>  <m_primary>  (14) 
energy

$$$$
14:0
     RDKit          3D

 50 52  0  0  0  0  0  0  0  0999 V2000
   64.9339   32.2949   48.6066 H   0  0  0  0  0  0  0  0  0  0  0  0
   63.9160   32.5190   48.2550 C   0  0  0  0  0  0  0  0  0  0  0  0
   63.6580   33.7180   47.5870 C   0  0  0  0  0  0  0  0  0  0  0  0
   64.4663   34.4481   47.4333 H   0  0  0  0  0  0  0  0  0  0  0  0
   62.3730   33.9880   47.1150 C   0  0  0  0  0  0  0  0  0  0  0  0
   62.1844   34.9145   46.5528 H   0  0  0  0  0  0  0  0  0  0  0  0
   61.3120   33.0870   47.3500 C   0  0  0  0  0  0  0  0  0  0  0  0
   59.9850   33.4030   46.8680 N   0  0  0  0  0  0  0  0  0  0  0  0
   59.8260   33.6430   45.4210 C   0  0  0  0  0  0  0  0  0  0  0  0
   60.5445   34.4165   45.1119 H   0  0  0  0  0  0  0  0  0  0  0  0
   60.0071   32.6886   44.9049 H   0  0  0  0  0  0  0  0  0  0  0  0
   58.4200   34.1070   45.0500 C   0  0  0  0  0  0  0  0  0  0  0  0
   58.3010   35.1584   45.3505 H   0  0  0  0  0  0  0  0  0  0  0  0
   58.2968   33.9905   43.9631 H   0  0  0  0  0  0  0  0  0  0  0  0
   57.3870   33.3020   45.7160 N   0  0  0  0  0  0  0  0  0  0  0  0
   57.4040   31.8640   45.3470 C   0  0  0  0  0  0  0  0  0  0  0  0
   58.2751   31.3765   45.8091 H   0  0  0  0  0  0  0  0  0  0  0  0
   56.4828   31.3811   45.7052 H   0  0  0  0  0  0  0  0  0  0  0  0
   57.4930   31.7320   43.8190 C   0  0  0  0  0  0  0  0  0  0  0  0
   57.2727   32.7098   43.3658 H   0  0  0  0  0  0  0  0  0  0  0  0
   58.5093   31.3938   43.5684 H   0  0  0  0  0  0  0  0  0  0  0  0
   56.5020   30.6960   43.2660 C   0  0  0  0  0  0  0  0  0  0  0  0
   55.6071   31.2192   42.8981 H   0  0  0  0  0  0  0  0  0  0  0  0
   56.9981   30.1458   42.4529 H   0  0  0  0  0  0  0  0  0  0  0  0
   56.0990   29.7290   44.2950 N   0  0  0  0  0  0  0  0  0  0  0  0
   56.7840   28.7140   44.7540 C   0  0  0  0  0  0  0  0  0  0  0  0
   58.1410   28.5080   44.4300 C   0  0  0  0  0  0  0  0  0  0  0  0
   58.6684   29.2180   43.7760 H   0  0  0  0  0  0  0  0  0  0  0  0
   58.8110   27.3950   44.9460 C   0  0  0  0  0  0  0  0  0  0  0  0
   59.8692   27.2251   44.6981 H   0  0  0  0  0  0  0  0  0  0  0  0
   58.1360   26.5010   45.7750 C   0  0  0  0  0  0  0  0  0  0  0  0
   58.6553   25.6223   46.1851 H   0  0  0  0  0  0  0  0  0  0  0  0
   56.7940   26.7330   46.0790 C   0  0  0  0  0  0  0  0  0  0  0  0
   56.2513   26.0337   46.7321 H   0  0  0  0  0  0  0  0  0  0  0  0
   56.1560   27.8180   45.5720 N   0  0  0  0  0  0  0  0  0  0  0  0
   55.1500   27.9700   45.8170 H   0  0  0  0  0  0  0  0  0  0  0  0
   57.4480   33.5060   47.1780 C   0  0  0  0  0  0  0  0  0  0  0  0
   57.1341   34.5382   47.3923 H   0  0  0  0  0  0  0  0  0  0  0  0
   56.7863   32.7483   47.6230 H   0  0  0  0  0  0  0  0  0  0  0  0
   58.8400   33.2880   47.8070 C   0  0  0  0  0  0  0  0  0  0  0  0
   58.9752   34.0368   48.6013 H   0  0  0  0  0  0  0  0  0  0  0  0
   58.8496   32.2508   48.1734 H   0  0  0  0  0  0  0  0  0  0  0  0
   61.5710   31.8800   48.0460 C   0  0  0  0  0  0  0  0  0  0  0  0
   60.5110   30.9850   48.3020 O   0  0  0  0  0  0  0  0  0  0  0  0
   60.0130   30.0270   47.3670 C   0  0  0  0  0  0  0  0  0  0  0  0
   59.5720   29.1787   47.9110 H   0  0  0  0  0  0  0  0  0  0  0  0
   59.2448   30.4965   46.7350 H   0  0  0  0  0  0  0  0  0  0  0  0
   60.8386   29.6680   46.7350 H   0  0  0  0  0  0  0  0  0  0  0  0
   62.8840   31.6030   48.4780 C   0  0  0  0  0  0  0  0  0  0  0  0
   63.0985   30.6565   48.9958 H   0  0  0  0  0  0  0  0  0  0  0  0
  1  2  1  0
  2  3  2  0
  3  4  1  0
  3  5  1  0
  5  6  1  0
  5  7  2  0
  7  8  1  0
  8  9  1  0
  9 10  1  0
  9 11  1  0
  9 12  1  0
 12 13  1  0
 12 14  1  0
 12 15  1  0
 15 16  1  0
 16 17  1  0
 16 18  1  0
 16 19  1  0
 19 20  1  0
 19 21  1  0
 19 22  1  0
 22 23  1  0
 22 24  1  0
 22 25  1  0
 25 26  2  0
 26 27  1  0
 27 28  1  0
 27 29  2  0
 29 30  1  0
 29 31  1  0
 31 32  1  0
 31 33  2  0
 33 34  1  0
 33 35  1  0
 35 36  1  0
 15 37  1  0
 37 38  1  0
 37 39  1  0
 37 40  1  0
 40 41  1  0
 40 42  1  0
  7 43  1  0
 43 44  1  0
 44 45  1  0
 45 46  1  0
 45 47  1  0
 45 48  1  0
 43 49  2  0
 49 50  1  0
 49  2  1  0
 40  8  1  0
 35 26  1  0
M  END
>  <UniqueID>  (15) 
14

>  <SMILES>  (15) 
COc1ccccc1N1CCN(CCC/N=c2\cccc[nH]2)CC1

>  <Energy>  (15) 
65.20345906270892

>  <Genealogy>  (15) 
COc1ccccc1N1CCN(CCC/N=c2\cccc[nH]2)CC1 (cis-trans isomerization)
COc1ccccc1N1CCN(CCC/N=c2\cccc[nH]2)CC1 (3D coordinates assigned)
COc1ccccc1N1CCN(CCC/N=c2\cccc[nH]2)CC1 (nonaromatic ring conformer: 65.20345906270892 kcal/mol)

>  <smiles>  (15) 
COc1ccccc1N1CCN(CCCN=c2cccc[nH]2)CC1

>  <score_type>  (15) 
oracle

>  <origin>  (15) 
adg

>  <m_score__min__energy>  (15) 
-8.1799999999999997

>  <m_primary>  (15) 
energy

$$$$
15:0
     RDKit          3D

 37 39  0  0  0  0  0  0  0  0999 V2000
   58.1360   31.4170   51.5450 C   0  0  0  0  0  0  0  0  0  0  0  0
   59.3210   31.6800   50.8010 O   0  0  0  0  0  0  0  0  0  0  0  0
   59.3840   32.5180   49.6770 C   0  0  0  0  0  0  0  0  0  0  0  0
   59.9500   33.7980   49.7270 C   0  0  0  0  0  0  0  0  0  0  0  0
   59.9830   34.6010   48.5900 C   0  0  0  0  0  0  0  0  0  0  0  0
   59.4540   34.1470   47.3640 C   0  0  0  0  0  0  0  0  0  0  0  0
   59.4570   34.9620   46.2030 C   0  0  0  0  0  0  0  0  0  0  0  0
   59.9790   36.2590   46.1730 O   0  0  0  0  0  0  0  0  0  0  0  0
   58.9100   34.4780   45.0180 C   0  0  0  0  0  0  0  0  0  0  0  0
   58.3800   33.1870   44.9340 C   0  0  0  0  0  0  0  0  0  0  0  0
   58.3700   32.3480   46.0650 C   0  0  0  0  0  0  0  0  0  0  0  0
   58.8920   32.8370   47.2970 C   0  0  0  0  0  0  0  0  0  0  0  0
   58.8600   32.0500   48.4720 C   0  0  0  0  0  0  0  0  0  0  0  0
   57.7760   30.9470   45.9690 C   0  0  0  0  0  0  0  0  0  0  0  0
   57.4410   30.5120   44.6000 N   0  0  0  0  0  0  0  0  0  0  0  0
   56.8050   29.2230   44.4380 C   0  0  0  0  0  0  0  0  0  0  0  0
   57.5040   28.0670   43.7830 C   0  0  0  0  0  0  0  0  0  0  0  0
   55.6240   29.0510   44.8460 O   0  0  0  0  0  0  0  0  0  0  0  0
   57.9610   31.2510   43.4430 C   0  0  0  0  0  0  0  0  0  0  0  0
   57.7550   32.7430   43.6430 C   0  0  0  0  0  0  0  0  0  0  0  0
   58.3599   31.4667   52.6208 H   0  0  0  0  0  0  0  0  0  0  0  0
   57.3717   32.1674   51.2945 H   0  0  0  0  0  0  0  0  0  0  0  0
   57.7609   30.4137   51.2945 H   0  0  0  0  0  0  0  0  0  0  0  0
   60.3717   34.1718   50.6717 H   0  0  0  0  0  0  0  0  0  0  0  0
   60.4286   35.6050   48.6489 H   0  0  0  0  0  0  0  0  0  0  0  0
   59.6570   37.0280   46.7410 H   0  0  0  0  0  0  0  0  0  0  0  0
   58.8944   35.1251   44.1286 H   0  0  0  0  0  0  0  0  0  0  0  0
   58.4117   31.0462   48.4346 H   0  0  0  0  0  0  0  0  0  0  0  0
   58.5051   30.2364   46.3855 H   0  0  0  0  0  0  0  0  0  0  0  0
   56.8287   30.9723   46.5275 H   0  0  0  0  0  0  0  0  0  0  0  0
   57.9088   27.3975   44.5562 H   0  0  0  0  0  0  0  0  0  0  0  0
   56.7891   27.5135   43.1564 H   0  0  0  0  0  0  0  0  0  0  0  0
   58.3262   28.4430   43.1564 H   0  0  0  0  0  0  0  0  0  0  0  0
   59.0355   31.0435   43.3314 H   0  0  0  0  0  0  0  0  0  0  0  0
   57.4228   30.9306   42.5387 H   0  0  0  0  0  0  0  0  0  0  0  0
   58.2196   33.2885   42.8084 H   0  0  0  0  0  0  0  0  0  0  0  0
   56.6759   32.9538   43.6768 H   0  0  0  0  0  0  0  0  0  0  0  0
  1  2  1  0
  2  3  1  0
  3  4  2  0
  4  5  1  0
  5  6  2  0
  6  7  1  0
  7  8  1  0
  7  9  2  0
  9 10  1  0
 10 11  2  0
 11 12  1  0
 12 13  2  0
 11 14  1  0
 14 15  1  0
 15 16  1  0
 16 17  1  0
 16 18  2  0
 15 19  1  0
 19 20  1  0
 13  3  1  0
 12  6  1  0
 20 10  1  0
  1 21  1  0
  1 22  1  0
  1 23  1  0
  4 24  1  0
  5 25  1  0
  8 26  1  0
  9 27  1  0
 13 28  1  0
 14 29  1  0
 14 30  1  0
 17 31  1  0
 17 32  1  0
 17 33  1  0
 19 34  1  0
 19 35  1  0
 20 36  1  0
 20 37  1  0
M  END
>  <UniqueID>  (16) 
15

>  <SMILES>  (16) 
COc1ccc2c(O)cc3c(c2c1)CN(C(C)=O)CC3

>  <Energy>  (16) 
49.338210464665856

>  <Genealogy>  (16) 
COc1ccc2c(O)cc3c(c2c1)CN(C(C)=O)CC3 (3D coordinates assigned)
COc1ccc2c(O)cc3c(c2c1)CN(C(C)=O)CC3 (nonaromatic ring conformer: 49.338210464665856 kcal/mol)

>  <smiles>  (16) 
COc1ccc2c(O)cc3c(c2c1)CN(C(C)=O)CC3

>  <score_type>  (16) 
oracle

>  <origin>  (16) 
adg

>  <m_score__min__energy>  (16) 
-6.9100000000000001

>  <m_primary>  (16) 
energy

$$$$
16:0
     RDKit          3D

 42 43  0  0  0  0  0  0  0  0999 V2000
   56.4456   33.4870   44.8788 H   0  0  0  0  0  0  0  0  0  0  0  0
   57.3810   32.9410   45.0710 C   0  0  0  0  0  0  0  0  0  0  0  0
   58.4280   33.6430   45.5420 C   0  0  0  0  0  0  0  0  0  0  0  0
   59.1570   33.2630   46.7720 C   0  0  0  0  0  0  0  0  0  0  0  0
   58.4600   32.8980   47.9350 C   0  0  0  0  0  0  0  0  0  0  0  0
   57.3600   32.9046   47.9393 H   0  0  0  0  0  0  0  0  0  0  0  0
   59.1590   32.5260   49.0880 C   0  0  0  0  0  0  0  0  0  0  0  0
   58.6087   32.2476   49.9989 H   0  0  0  0  0  0  0  0  0  0  0  0
   60.5580   32.5080   49.0830 C   0  0  0  0  0  0  0  0  0  0  0  0
   61.1073   32.2182   49.9909 H   0  0  0  0  0  0  0  0  0  0  0  0
   61.2580   32.8580   47.9250 C   0  0  0  0  0  0  0  0  0  0  0  0
   62.3579   32.8440   47.9222 H   0  0  0  0  0  0  0  0  0  0  0  0
   60.5610   33.2260   46.7700 C   0  0  0  0  0  0  0  0  0  0  0  0
   61.1146   33.4876   45.8561 H   0  0  0  0  0  0  0  0  0  0  0  0
   58.8010   34.9310   44.8630 C   0  0  0  0  0  0  0  0  0  0  0  0
   59.0223   35.6952   45.6226 H   0  0  0  0  0  0  0  0  0  0  0  0
   59.6895   34.7704   44.2347 H   0  0  0  0  0  0  0  0  0  0  0  0
   57.9641   35.2700   44.2347 H   0  0  0  0  0  0  0  0  0  0  0  0
   57.4000   31.2060   44.7390 S   0  0  0  0  0  0  0  0  0  0  0  0
   56.1350   30.8240   44.0240 O   0  0  0  0  0  0  0  0  0  0  0  0
   58.5710   30.8870   43.8540 O   0  0  0  0  0  0  0  0  0  0  0  0
   57.5180   30.2780   46.2000 N   0  0  0  0  0  0  0  0  0  0  0  0
   58.5060   29.2750   46.4770 C   0  0  0  0  0  0  0  0  0  0  0  0
   59.1300   29.1900   47.7360 C   0  0  0  0  0  0  0  0  0  0  0  0
   58.8426   29.8882   48.5359 H   0  0  0  0  0  0  0  0  0  0  0  0
   60.1110   28.2260   47.9770 C   0  0  0  0  0  0  0  0  0  0  0  0
   60.5936   28.1686   48.9638 H   0  0  0  0  0  0  0  0  0  0  0  0
   60.4800   27.3360   46.9690 C   0  0  0  0  0  0  0  0  0  0  0  0
   61.4320   26.4000   47.2070 F   0  0  0  0  0  0  0  0  0  0  0  0
   59.8660   27.4030   45.7170 C   0  0  0  0  0  0  0  0  0  0  0  0
   60.1596   26.6961   44.9270 H   0  0  0  0  0  0  0  0  0  0  0  0
   58.8740   28.3680   45.4570 C   0  0  0  0  0  0  0  0  0  0  0  0
   58.2430   28.4150   44.1550 N   0  0  0  0  0  0  0  0  0  0  0  0
   58.9010   28.8030   43.4390 H   0  0  0  0  0  0  0  0  0  0  0  0
   57.4250   29.0660   44.1900 H   0  0  0  0  0  0  0  0  0  0  0  0
   57.7700   27.0860   43.7320 C   0  0  0  0  0  0  0  0  0  0  0  0
   56.6748   27.0528   43.8296 H   0  0  0  0  0  0  0  0  0  0  0  0
   58.2537   26.3363   44.3754 H   0  0  0  0  0  0  0  0  0  0  0  0
   58.1450   26.7700   42.2810 C   0  0  0  0  0  0  0  0  0  0  0  0
   58.9861   26.0612   42.2657 H   0  0  0  0  0  0  0  0  0  0  0  0
   57.2804   26.3241   41.7676 H   0  0  0  0  0  0  0  0  0  0  0  0
   58.4379   27.6977   41.7676 H   0  0  0  0  0  0  0  0  0  0  0  0
  1  2  1  0
  2  3  2  0
  3  4  1  0
  4  5  2  0
  5  6  1  0
  5  7  1  0
  7  8  1  0
  7  9  2  0
  9 10  1  0
  9 11  1  0
 11 12  1  0
 11 13  2  0
 13 14  1  0
  3 15  1  0
 15 16  1  0
 15 17  1  0
 15 18  1  0
  2 19  1  0
 19 20  2  0
 19 21  2  0
 19 22  1  0
 22 23  1  0
 23 24  2  0
 24 25  1  0
 24 26  1  0
 26 27  1  0
 26 28  2  0
 28 29  1  0
 28 30  1  0
 30 31  1  0
 30 32  2  0
 32 33  1  0
 33 34  1  0
 33 35  1  0
 33 36  1  0
 36 37  1  0
 36 38  1  0
 36 39  1  0
 39 40  1  0
 39 41  1  0
 39 42  1  0
 13  4  1  0
 32 23  1  0
M  CHG  2  22  -1  33   1
M  END
>  <UniqueID>  (17) 
16

>  <SMILES>  (17) 
CC[NH2+]c1cc(F)ccc1[N-]S(=O)(=O)/C=C(/C)c1ccccc1

>  <Energy>  (17) 
47.59957275383567

>  <Genealogy>  (17) 
CC[NH2+]c1cc(F)ccc1[N-]S(=O)(=O)C=C(C)c1ccccc1 (protonated)
CC[NH2+]c1cc(F)ccc1[N-]S(=O)(=O)/C=C(/C)c1ccccc1 (cis-trans isomerization)
CC[NH2+]c1cc(F)ccc1[N-]S(=O)(=O)/C=C(/C)c1ccccc1 (3D coordinates assigned)
CC[NH2+]c1cc(F)ccc1[N-]S(=O)(=O)/C=C(/C)c1ccccc1 (optimized conformer: 47.59957275383567 kcal/mol)

>  <smiles>  (17) 
CCNc1cc(F)ccc1NS(=O)(=O)C=C(C)c1ccccc1

>  <score_type>  (17) 
oracle

>  <origin>  (17) 
adg

>  <m_score__min__energy>  (17) 
-7.0499999999999998

>  <m_primary>  (17) 
energy

$$$$
17:0
     RDKit          3D

 51 53  0  0  0  0  0  0  0  0999 V2000
   56.2980   24.7830   46.9540 C   0  0  0  0  0  0  0  0  0  0  0  0
   55.9560   25.9560   46.0850 C   0  0  0  0  0  0  0  0  0  0  0  0
   54.7530   26.3150   45.9930 O   0  0  0  0  0  0  0  0  0  0  0  0
   56.9610   26.7070   45.3910 N   0  0  0  0  0  0  0  0  0  0  0  0
   57.7190   27.8090   45.9080 C   0  0  0  0  0  0  0  0  0  0  0  0
   58.2670   27.7110   47.1920 C   0  0  0  0  0  0  0  0  0  0  0  0
   58.9910   28.7760   47.7360 C   0  0  0  0  0  0  0  0  0  0  0  0
   59.1460   29.9700   47.0180 C   0  0  0  0  0  0  0  0  0  0  0  0
   59.9170   31.0410   47.5900 N   0  0  0  0  0  0  0  0  0  0  0  0
   61.3170   31.2480   47.3410 C   0  0  0  0  0  0  0  0  0  0  0  0
   61.9040   30.6030   46.4300 O   0  0  0  0  0  0  0  0  0  0  0  0
   62.0960   32.2470   48.1720 C   0  0  2  0  0  0  0  0  0  0  0  0
   62.5790   33.4150   47.2810 C   0  0  0  0  0  0  0  0  0  0  0  0
   63.2200   31.5760   48.9680 C   0  0  0  0  0  0  0  0  0  0  0  0
   62.3830   31.8940   50.1970 C   0  0  0  0  0  0  0  0  0  0  0  0
   61.3480   32.5830   49.4080 N   0  0  0  0  0  0  0  0  0  0  0  0
   61.0860   34.0170   49.7170 C   0  0  0  0  0  0  0  0  0  0  0  0
   59.6840   34.5770   49.3770 C   0  0  0  0  0  0  0  0  0  0  0  0
   58.9430   33.6310   48.6060 O   0  0  0  0  0  0  0  0  0  0  0  0
   58.6220   33.7540   47.2450 C   0  0  0  0  0  0  0  0  0  0  0  0
   57.4390   33.1550   46.7890 C   0  0  0  0  0  0  0  0  0  0  0  0
   57.0690   33.2460   45.4450 C   0  0  0  0  0  0  0  0  0  0  0  0
   57.8800   33.9360   44.5410 C   0  0  0  0  0  0  0  0  0  0  0  0
   59.0650   34.5320   44.9810 C   0  0  0  0  0  0  0  0  0  0  0  0
   59.4380   34.4430   46.3260 C   0  0  0  0  0  0  0  0  0  0  0  0
   58.5890   30.0730   45.7310 C   0  0  0  0  0  0  0  0  0  0  0  0
   57.8670   29.0050   45.1870 C   0  0  0  0  0  0  0  0  0  0  0  0
   56.2134   25.0732   48.0116 H   0  0  0  0  0  0  0  0  0  0  0  0
   55.6035   23.9562   46.7439 H   0  0  0  0  0  0  0  0  0  0  0  0
   57.3280   24.4590   46.7439 H   0  0  0  0  0  0  0  0  0  0  0  0
   58.1271   26.7900   47.7770 H   0  0  0  0  0  0  0  0  0  0  0  0
   59.4421   28.6764   48.7343 H   0  0  0  0  0  0  0  0  0  0  0  0
   59.4090   31.7530   48.1610 H   0  0  0  0  0  0  0  0  0  0  0  0
   62.9219   34.2441   47.9174 H   0  0  0  0  0  0  0  0  0  0  0  0
   63.4093   33.0726   46.6459 H   0  0  0  0  0  0  0  0  0  0  0  0
   61.7494   33.7591   46.6459 H   0  0  0  0  0  0  0  0  0  0  0  0
   63.3593   30.5041   48.7640 H   0  0  0  0  0  0  0  0  0  0  0  0
   64.2746   31.8743   48.8739 H   0  0  0  0  0  0  0  0  0  0  0  0
   62.0124   30.9985   50.7174 H   0  0  0  0  0  0  0  0  0  0  0  0
   62.8539   32.4284   51.0352 H   0  0  0  0  0  0  0  0  0  0  0  0
   61.2429   34.1553   50.7969 H   0  0  0  0  0  0  0  0  0  0  0  0
   61.7756   34.5743   49.0659 H   0  0  0  0  0  0  0  0  0  0  0  0
   59.1418   34.7876   50.3106 H   0  0  0  0  0  0  0  0  0  0  0  0
   59.8015   35.5005   48.7911 H   0  0  0  0  0  0  0  0  0  0  0  0
   56.7968   32.6088   47.4956 H   0  0  0  0  0  0  0  0  0  0  0  0
   56.1380   32.7738   45.0983 H   0  0  0  0  0  0  0  0  0  0  0  0
   57.5862   34.0102   43.4836 H   0  0  0  0  0  0  0  0  0  0  0  0
   59.7055   35.0721   44.2682 H   0  0  0  0  0  0  0  0  0  0  0  0
   60.3721   34.9128   46.6677 H   0  0  0  0  0  0  0  0  0  0  0  0
   58.7214   30.9972   45.1493 H   0  0  0  0  0  0  0  0  0  0  0  0
   57.4131   29.1027   44.1898 H   0  0  0  0  0  0  0  0  0  0  0  0
  1  2  1  0
  2  3  2  0
  2  4  1  0
  4  5  1  0
  5  6  2  0
  6  7  1  0
  7  8  2  0
  8  9  1  0
  9 10  1  0
 10 11  2  0
 10 12  1  0
 12 13  1  6
 12 14  1  0
 14 15  1  0
 15 16  1  0
 16 17  1  0
 17 18  1  0
 18 19  1  0
 19 20  1  0
 20 21  2  0
 21 22  1  0
 22 23  2  0
 23 24  1  0
 24 25  2  0
  8 26  1  0
 26 27  2  0
 27  5  1  0
 16 12  1  0
 25 20  1  0
  1 28  1  0
  1 29  1  0
  1 30  1  0
  6 31  1  0
  7 32  1  0
  9 33  1  0
 13 34  1  0
 13 35  1  0
 13 36  1  0
 14 37  1  0
 14 38  1  0
 15 39  1  0
 15 40  1  0
 17 41  1  0
 17 42  1  0
 18 43  1  0
 18 44  1  0
 21 45  1  0
 22 46  1  0
 23 47  1  0
 24 48  1  0
 25 49  1  0
 26 50  1  0
 27 51  1  0
M  CHG  1   4  -1
M  END
>  <UniqueID>  (18) 
17

>  <SMILES>  (18) 
CC(=O)[N-]c1ccc(NC(=O)[C@]2(C)CCN2CCOc2ccccc2)cc1

>  <Energy>  (18) 
143.90326084247883

>  <Genealogy>  (18) 
CC(=O)[N-]c1ccc(NC(=O)C2(C)CCN2CCOc2ccccc2)cc1 (protonated)
CC(=O)[N-]c1ccc(NC(=O)[C@]2(C)CCN2CCOc2ccccc2)cc1 (chirality)
CC(=O)[N-]c1ccc(NC(=O)[C@]2(C)CCN2CCOc2ccccc2)cc1 (3D coordinates assigned)
CC(=O)[N-]c1ccc(NC(=O)[C@]2(C)CCN2CCOc2ccccc2)cc1 (nonaromatic ring conformer: 143.90326084247883 kcal/mol)

>  <smiles>  (18) 
CC(=O)Nc1ccc(NC(=O)C2(C)CCN2CCOc2ccccc2)cc1

>  <score_type>  (18) 
oracle

>  <origin>  (18) 
adg

>  <m_score__min__energy>  (18) 
-8.8200000000000003

>  <m_primary>  (18) 
energy

$$$$
18:0
     RDKit          3D

 28 30  0  0  0  0  0  0  0  0999 V2000
   55.5870   29.7210   45.9590 H   0  0  0  0  0  0  0  0  0  0  0  0
   55.6130   29.6370   44.9180 N   0  0  0  0  0  0  0  0  0  0  0  0
   56.3360   30.4240   44.1850 C   0  0  0  0  0  0  0  0  0  0  0  0
   57.2170   31.3270   44.7730 C   0  0  0  0  0  0  0  0  0  0  0  0
   57.4530   31.5280   46.0460 O   0  0  0  0  0  0  0  0  0  0  0  0
   58.3650   32.4820   46.1390 C   0  0  0  0  0  0  0  0  0  0  0  0
   58.8850   32.9820   47.4330 C   0  0  0  0  0  0  0  0  0  0  0  0
   59.7460   34.0910   47.4550 C   0  0  0  0  0  0  0  0  0  0  0  0
   60.0325   34.5855   46.5151 H   0  0  0  0  0  0  0  0  0  0  0  0
   60.2370   34.5640   48.6720 C   0  0  0  0  0  0  0  0  0  0  0  0
   60.9118   35.4325   48.6909 H   0  0  0  0  0  0  0  0  0  0  0  0
   59.8840   33.9550   49.8340 N   0  0  0  0  0  0  0  0  0  0  0  0
   59.0520   32.8790   49.8530 C   0  0  0  0  0  0  0  0  0  0  0  0
   58.6910   32.2420   51.1580 C   0  0  0  0  0  0  0  0  0  0  0  0
   59.0485   32.8728   51.9852 H   0  0  0  0  0  0  0  0  0  0  0  0
   57.5982   32.1353   51.2240 H   0  0  0  0  0  0  0  0  0  0  0  0
   59.1610   31.2496   51.2240 H   0  0  0  0  0  0  0  0  0  0  0  0
   58.5370   32.3730   48.6520 C   0  0  0  0  0  0  0  0  0  0  0  0
   57.8635   31.5033   48.6626 H   0  0  0  0  0  0  0  0  0  0  0  0
   58.7370   32.9200   44.8640 C   0  0  0  0  0  0  0  0  0  0  0  0
   59.4693   33.6993   44.6062 H   0  0  0  0  0  0  0  0  0  0  0  0
   57.9810   32.1570   44.0050 C   0  0  0  0  0  0  0  0  0  0  0  0
   57.9130   32.1370   42.6180 C   0  0  0  0  0  0  0  0  0  0  0  0
   58.5305   32.8090   42.0039 H   0  0  0  0  0  0  0  0  0  0  0  0
   57.0210   31.2210   42.0320 C   0  0  0  0  0  0  0  0  0  0  0  0
   56.9338   31.1690   40.9367 H   0  0  0  0  0  0  0  0  0  0  0  0
   56.2580   30.3910   42.8160 N   0  0  0  0  0  0  0  0  0  0  0  0
   55.6060   29.7240   42.3450 H   0  0  0  0  0  0  0  0  0  0  0  0
  1  2  1  0
  2  3  2  0
  3  4  1  0
  4  5  1  0
  5  6  1  0
  6  7  1  0
  7  8  2  0
  8  9  1  0
  8 10  1  0
 10 11  1  0
 10 12  2  0
 12 13  1  0
 13 14  1  0
 14 15  1  0
 14 16  1  0
 14 17  1  0
 13 18  2  0
 18 19  1  0
  6 20  2  0
 20 21  1  0
 20 22  1  0
 22 23  1  0
 23 24  1  0
 23 25  2  0
 25 26  1  0
 25 27  1  0
 27 28  1  0
 27  3  1  0
 22  4  2  0
 18  7  1  0
M  END
>  <UniqueID>  (19) 
18

>  <SMILES>  (19) 
[H]/N=c1\[nH]ccc2cc(-c3ccnc(C)c3)oc12

>  <Energy>  (19) 
65.87201621240486

>  <Genealogy>  (19) 
[H]/N=c1\[nH]ccc2cc(-c3ccnc(C)c3)oc12 (cis-trans isomerization)
[H]/N=c1\[nH]ccc2cc(-c3ccnc(C)c3)oc12 (3D coordinates assigned)
[H]/N=c1\[nH]ccc2cc(-c3ccnc(C)c3)oc12 (optimized conformer: 65.87201621240486 kcal/mol)

>  <smiles>  (19) 
Cc1cc(-c2cc3cc[nH]c(=N)c3o2)ccn1

>  <score_type>  (19) 
oracle

>  <origin>  (19) 
adg

>  <m_score__min__energy>  (19) 
-7

>  <m_primary>  (19) 
energy

$$$$
19:0
     RDKit          3D

 23 24  0  0  0  0  0  0  0  0999 V2000
   57.7461   35.2899   44.7803 H   0  0  0  0  0  0  0  0  0  0  0  0
   58.2630   34.5830   45.4460 C   0  0  0  0  0  0  0  0  0  0  0  0
   57.5250   33.6800   46.2110 C   0  0  0  0  0  0  0  0  0  0  0  0
   56.4268   33.6774   46.1487 H   0  0  0  0  0  0  0  0  0  0  0  0
   58.1770   32.7790   47.0560 C   0  0  0  0  0  0  0  0  0  0  0  0
   57.5886   32.0769   47.6649 H   0  0  0  0  0  0  0  0  0  0  0  0
   59.5800   32.7640   47.1330 C   0  0  0  0  0  0  0  0  0  0  0  0
   60.3280   33.6880   46.3620 C   0  0  0  0  0  0  0  0  0  0  0  0
   59.6580   34.5910   45.5240 C   0  0  0  0  0  0  0  0  0  0  0  0
   60.2346   35.3104   44.9240 H   0  0  0  0  0  0  0  0  0  0  0  0
   61.7650   33.7250   46.4340 N   0  0  0  0  0  0  0  0  0  0  0  0
   62.2700   34.5260   45.9930 H   0  0  0  0  0  0  0  0  0  0  0  0
   62.5010   32.7010   47.1210 C   0  0  0  0  0  0  0  0  0  0  0  0
   63.6700   32.9300   47.6520 N   0  0  0  0  0  0  0  0  0  0  0  0
   64.5270   32.7060   47.0970 H   0  0  0  0  0  0  0  0  0  0  0  0
   63.8570   33.4630   48.9990 C   0  0  0  0  0  0  0  0  0  0  0  0
   63.5873   32.6943   49.7382 H   0  0  0  0  0  0  0  0  0  0  0  0
   64.9098   33.7507   49.1366 H   0  0  0  0  0  0  0  0  0  0  0  0
   63.2148   34.3454   49.1366 H   0  0  0  0  0  0  0  0  0  0  0  0
   61.7380   31.0920   47.3180 S   0  0  0  0  0  0  0  0  0  0  0  0
   60.2630   31.8230   48.0940 C   0  0  0  0  0  0  0  0  0  0  0  0
   60.5639   32.3787   48.9944 H   0  0  0  0  0  0  0  0  0  0  0  0
   59.5642   31.0179   48.3651 H   0  0  0  0  0  0  0  0  0  0  0  0
  1  2  1  0
  2  3  2  0
  3  4  1  0
  3  5  1  0
  5  6  1  0
  5  7  2  0
  7  8  1  0
  8  9  2  0
  9 10  1  0
  8 11  1  0
 11 12  1  0
 11 13  1  0
 13 14  2  0
 14 15  1  0
 14 16  1  0
 16 17  1  0
 16 18  1  0
 16 19  1  0
 13 20  1  0
 20 21  1  0
 21 22  1  0
 21 23  1  0
  9  2  1  0
 21  7  1  0
M  CHG  1  14   1
M  END
>  <UniqueID>  (20) 
19

>  <SMILES>  (20) 
C/[NH+]=C1\Nc2ccccc2CS1

>  <Energy>  (20) 
24.878991265150265

>  <Genealogy>  (20) 
C[NH+]=C1Nc2ccccc2CS1 (protonated)
C/[NH+]=C1\Nc2ccccc2CS1 (cis-trans isomerization)
C/[NH+]=C1\Nc2ccccc2CS1 (3D coordinates assigned)
C/[NH+]=C1\Nc2ccccc2CS1 (nonaromatic ring conformer: 24.878991265150265 kcal/mol)

>  <smiles>  (20) 
CN=C1Nc2ccccc2CS1

>  <score_type>  (20) 
oracle

>  <origin>  (20) 
adg

>  <m_score__min__energy>  (20) 
-3.8999999999999999

>  <m_primary>  (20) 
energy

$$$$
20:0
     RDKit          3D

 35 36  0  0  0  0  0  0  0  0999 V2000
   63.9744   34.5416   48.4000 H   0  0  0  0  0  0  0  0  0  0  0  0
   63.7880   33.4620   48.3010 C   0  0  0  0  0  0  0  0  0  0  0  0
   63.2010   32.9920   47.1930 C   0  0  0  0  0  0  0  0  0  0  0  0
   63.4261   31.9677   46.8611 H   0  0  0  0  0  0  0  0  0  0  0  0
   62.2370   33.8320   46.3860 C   0  0  0  0  0  0  0  0  0  0  0  0
   62.7275   34.7824   46.1289 H   0  0  0  0  0  0  0  0  0  0  0  0
   61.9673   33.2589   45.4867 H   0  0  0  0  0  0  0  0  0  0  0  0
   60.9880   34.1270   47.1210 N   0  0  0  0  0  0  0  0  0  0  0  0
   60.4040   32.9330   47.7830 C   0  0  0  0  0  0  0  0  0  0  0  0
   59.9288   33.2439   48.7251 H   0  0  0  0  0  0  0  0  0  0  0  0
   61.2142   32.2129   47.9703 H   0  0  0  0  0  0  0  0  0  0  0  0
   59.3740   32.2660   46.9140 C   0  0  0  0  0  0  0  0  0  0  0  0
   59.2910   30.8730   46.7970 C   0  0  0  0  0  0  0  0  0  0  0  0
   59.9985   30.2314   47.3427 H   0  0  0  0  0  0  0  0  0  0  0  0
   58.3080   30.2990   45.9860 C   0  0  0  0  0  0  0  0  0  0  0  0
   58.2539   29.2048   45.8871 H   0  0  0  0  0  0  0  0  0  0  0  0
   57.3910   31.1040   45.2980 C   0  0  0  0  0  0  0  0  0  0  0  0
   56.4230   30.4770   44.5010 O   0  0  0  0  0  0  0  0  0  0  0  0
   56.6420   30.0430   43.1620 C   0  0  0  0  0  0  0  0  0  0  0  0
   57.1375   29.0610   43.1713 H   0  0  0  0  0  0  0  0  0  0  0  0
   55.6769   29.9618   42.6404 H   0  0  0  0  0  0  0  0  0  0  0  0
   57.2806   30.7711   42.6404 H   0  0  0  0  0  0  0  0  0  0  0  0
   57.4680   32.5050   45.4330 C   0  0  0  0  0  0  0  0  0  0  0  0
   56.7460   33.1481   44.9085 H   0  0  0  0  0  0  0  0  0  0  0  0
   58.4650   33.0800   46.2360 C   0  0  0  0  0  0  0  0  0  0  0  0
   58.5730   34.5630   46.4290 C   0  0  0  0  0  0  0  0  0  0  0  0
   58.1647   34.8334   47.4140 H   0  0  0  0  0  0  0  0  0  0  0  0
   58.0043   35.0737   45.6380 H   0  0  0  0  0  0  0  0  0  0  0  0
   60.0490   34.9950   46.3520 C   0  0  0  0  0  0  0  0  0  0  0  0
   60.1282   36.0195   46.7447 H   0  0  0  0  0  0  0  0  0  0  0  0
   60.3437   34.9159   45.2952 H   0  0  0  0  0  0  0  0  0  0  0  0
   64.1940   32.5380   49.4070 C   0  0  0  0  0  0  0  0  0  0  0  0
   63.9853   33.0131   50.3769 H   0  0  0  0  0  0  0  0  0  0  0  0
   63.6252   31.5997   49.3283 H   0  0  0  0  0  0  0  0  0  0  0  0
   65.2698   32.3223   49.3283 H   0  0  0  0  0  0  0  0  0  0  0  0
  1  2  1  0
  2  3  2  0
  3  4  1  0
  3  5  1  0
  5  6  1  0
  5  7  1  0
  5  8  1  0
  8  9  1  0
  9 10  1  0
  9 11  1  0
  9 12  1  0
 12 13  2  0
 13 14  1  0
 13 15  1  0
 15 16  1  0
 15 17  2  0
 17 18  1  0
 18 19  1  0
 19 20  1  0
 19 21  1  0
 19 22  1  0
 17 23  1  0
 23 24  1  0
 23 25  2  0
 25 26  1  0
 26 27  1  0
 26 28  1  0
 26 29  1  0
 29 30  1  0
 29 31  1  0
  2 32  1  0
 32 33  1  0
 32 34  1  0
 32 35  1  0
 29  8  1  0
 25 12  1  0
M  END
>  <UniqueID>  (21) 
20

>  <SMILES>  (21) 
C/C=C/CN1CCc2cc(OC)ccc2C1

>  <Energy>  (21) 
40.64760773247183

>  <Genealogy>  (21) 
C/C=C/CN1CCc2cc(OC)ccc2C1 (cis-trans isomerization)
C/C=C/CN1CCc2cc(OC)ccc2C1 (3D coordinates assigned)
C/C=C/CN1CCc2cc(OC)ccc2C1 (nonaromatic ring conformer: 40.64760773247183 kcal/mol)

>  <smiles>  (21) 
CC=CCN1CCc2cc(OC)ccc2C1

>  <score_type>  (21) 
oracle

>  <origin>  (21) 
adg

>  <m_score__min__energy>  (21) 
-5.9699999999999998

>  <m_primary>  (21) 
energy

$$$$
21:0
     RDKit          3D

 49 51  0  0  0  0  0  0  0  0999 V2000
   63.3360   34.1430   46.3750 C   0  0  0  0  0  0  0  0  0  0  0  0
   63.3690   33.2800   47.5840 C   0  0  0  0  0  0  0  0  0  0  0  0
   64.5010   33.0810   48.1440 O   0  0  0  0  0  0  0  0  0  0  0  0
   62.1820   32.6740   48.1240 N   0  0  0  0  0  0  0  0  0  0  0  0
   60.9550   32.9710   47.4380 C   0  0  0  0  0  0  0  0  0  0  0  0
   59.8000   32.2710   48.0120 C   0  0  0  0  0  0  0  0  0  0  0  0
   59.9850   31.1800   48.8910 N   0  0  0  0  0  0  0  0  0  0  0  0
   59.1270   30.0890   48.4620 C   0  0  0  0  0  0  0  0  0  0  0  0
   59.9040   29.1880   47.4800 C   0  0  0  0  0  0  0  0  0  0  0  0
   59.9750   29.7940   46.2010 N   0  0  0  0  0  0  0  0  0  0  0  0
   59.2830   29.2020   45.1290 C   0  0  0  0  0  0  0  0  0  0  0  0
   57.8730   29.5130   44.9450 C   0  0  0  0  0  0  0  0  0  0  0  0
   56.8900   28.5230   44.8010 C   0  0  0  0  0  0  0  0  0  0  0  0
   55.6850   29.1000   44.6450 N   0  0  0  0  0  0  0  0  0  0  0  0
   55.8710   30.4040   44.6840 N   0  0  0  0  0  0  0  0  0  0  0  0
   57.1750   30.6910   44.8630 C   0  0  0  0  0  0  0  0  0  0  0  0
   57.6980   32.0300   44.9260 C   0  0  0  0  0  0  0  0  0  0  0  0
   57.3850   32.7700   46.0760 C   0  0  0  0  0  0  0  0  0  0  0  0
   57.8330   34.0550   46.2590 C   0  0  0  0  0  0  0  0  0  0  0  0
   58.6210   34.6750   45.3030 C   0  0  0  0  0  0  0  0  0  0  0  0
   58.9380   33.9600   44.1680 C   0  0  0  0  0  0  0  0  0  0  0  0
   58.4720   32.6520   43.9990 C   0  0  0  0  0  0  0  0  0  0  0  0
   61.2890   30.7030   49.1260 C   0  0  0  0  0  0  0  0  0  0  0  0
   62.3010   31.8230   49.2850 C   0  0  0  0  0  0  0  0  0  0  0  0
   63.2956   35.1993   46.6795 H   0  0  0  0  0  0  0  0  0  0  0  0
   64.2415   33.9687   45.7752 H   0  0  0  0  0  0  0  0  0  0  0  0
   62.4465   33.9000   45.7752 H   0  0  0  0  0  0  0  0  0  0  0  0
   60.7736   34.0544   47.4951 H   0  0  0  0  0  0  0  0  0  0  0  0
   61.0658   32.6306   46.3979 H   0  0  0  0  0  0  0  0  0  0  0  0
   59.2175   33.0240   48.5631 H   0  0  0  0  0  0  0  0  0  0  0  0
   59.3333   31.8029   47.1327 H   0  0  0  0  0  0  0  0  0  0  0  0
   58.8177   29.4984   49.3370 H   0  0  0  0  0  0  0  0  0  0  0  0
   58.2345   30.4951   47.9635 H   0  0  0  0  0  0  0  0  0  0  0  0
   60.9231   29.0298   47.8627 H   0  0  0  0  0  0  0  0  0  0  0  0
   59.3795   28.2254   47.3891 H   0  0  0  0  0  0  0  0  0  0  0  0
   60.7610   30.4110   46.0040 H   0  0  0  0  0  0  0  0  0  0  0  0
   59.8023   29.4992   44.2060 H   0  0  0  0  0  0  0  0  0  0  0  0
   59.2885   28.1288   45.3703 H   0  0  0  0  0  0  0  0  0  0  0  0
   57.0762   27.4390   44.8137 H   0  0  0  0  0  0  0  0  0  0  0  0
   54.7780   28.5790   44.5170 H   0  0  0  0  0  0  0  0  0  0  0  0
   56.7616   32.3067   46.8549 H   0  0  0  0  0  0  0  0  0  0  0  0
   57.5628   34.5989   47.1761 H   0  0  0  0  0  0  0  0  0  0  0  0
   58.9819   35.7043   45.4451 H   0  0  0  0  0  0  0  0  0  0  0  0
   59.5624   34.4217   43.3889 H   0  0  0  0  0  0  0  0  0  0  0  0
   58.7421   32.1073   43.0823 H   0  0  0  0  0  0  0  0  0  0  0  0
   61.2831   30.1004   50.0462 H   0  0  0  0  0  0  0  0  0  0  0  0
   61.5877   30.1060   48.2517 H   0  0  0  0  0  0  0  0  0  0  0  0
   62.0862   32.3983   50.1976 H   0  0  0  0  0  0  0  0  0  0  0  0
   63.3205   31.4189   49.3702 H   0  0  0  0  0  0  0  0  0  0  0  0
  1  2  1  0
  2  3  2  0
  2  4  1  0
  4  5  1  0
  5  6  1  0
  6  7  1  0
  7  8  1  0
  8  9  1  0
  9 10  1  0
 10 11  1  0
 11 12  1  0
 12 13  2  0
 13 14  1  0
 14 15  1  0
 15 16  2  0
 16 17  1  0
 17 18  2  0
 18 19  1  0
 19 20  2  0
 20 21  1  0
 21 22  2  0
  7 23  1  0
 23 24  1  0
 24  4  1  0
 16 12  1  0
 22 17  1  0
  1 25  1  0
  1 26  1  0
  1 27  1  0
  5 28  1  0
  5 29  1  0
  6 30  1  0
  6 31  1  0
  8 32  1  0
  8 33  1  0
  9 34  1  0
  9 35  1  0
 10 36  1  0
 11 37  1  0
 11 38  1  0
 13 39  1  0
 14 40  1  0
 18 41  1  0
 19 42  1  0
 20 43  1  0
 21 44  1  0
 22 45  1  0
 23 46  1  0
 23 47  1  0
 24 48  1  0
 24 49  1  0
M  END
>  <smiles>  (22) 
CC(=O)N1CCN(CCNCc2c[nH]nc2-c2ccccc2)CC1

>  <score_type>  (22) 
oracle

>  <origin>  (22) 
adg

>  <m_score__min__energy>  (22) 
-7.8899999999999997

>  <m_primary>  (22) 
energy

$$$$
22:0
     RDKit          3D

 42 44  0  0  0  0  0  0  0  0999 V2000
   59.6520   35.3150   46.3840 C   0  0  0  0  0  0  0  0  0  0  0  0
   58.8970   34.3720   47.2250 N   0  0  0  0  0  0  0  0  0  0  0  0
   59.6380   34.0920   48.4710 C   0  0  0  0  0  0  0  0  0  0  0  0
   58.4680   33.1720   46.4570 C   0  0  0  0  0  0  0  0  0  0  0  0
   57.6740   33.4880   45.1540 C   0  0  0  0  0  0  0  0  0  0  0  0
   57.8290   32.3910   44.0850 C   0  0  0  0  0  0  0  0  0  0  0  0
   58.0090   31.0740   44.7090 N   0  0  0  0  0  0  0  0  0  0  0  0
   56.9680   30.0810   44.6010 C   0  0  0  0  0  0  0  0  0  0  0  0
   55.7660   30.4520   44.5180 O   0  0  0  0  0  0  0  0  0  0  0  0
   57.2670   28.6360   44.5820 C   0  0  0  0  0  0  0  0  0  0  0  0
   58.1920   28.0130   43.7480 C   0  0  0  0  0  0  0  0  0  0  0  0
   58.3360   26.6750   43.9460 N   0  0  0  0  0  0  0  0  0  0  0  0
   57.5420   26.2120   44.9390 C   0  0  0  0  0  0  0  0  0  0  0  0
   57.5050   24.7930   45.3590 C   0  0  0  0  0  0  0  0  0  0  0  0
   57.5510   23.7650   44.4030 C   0  0  0  0  0  0  0  0  0  0  0  0
   57.5160   22.4290   44.8050 C   0  0  0  0  0  0  0  0  0  0  0  0
   57.4330   22.1260   46.1640 C   0  0  0  0  0  0  0  0  0  0  0  0
   57.3890   23.1270   47.0830 N   0  0  0  0  0  0  0  0  0  0  0  0
   57.4230   24.4370   46.7180 C   0  0  0  0  0  0  0  0  0  0  0  0
   56.6330   27.4640   45.6090 S   0  0  0  0  0  0  0  0  0  0  0  0
   59.1330   30.8780   45.6410 C   0  0  0  0  0  0  0  0  0  0  0  0
   59.6510   32.2200   46.1870 C   0  0  0  0  0  0  0  0  0  0  0  0
   60.2104   36.0125   47.0256 H   0  0  0  0  0  0  0  0  0  0  0  0
   60.3560   34.7573   45.7489 H   0  0  0  0  0  0  0  0  0  0  0  0
   58.9538   35.8800   45.7489 H   0  0  0  0  0  0  0  0  0  0  0  0
   59.0033   34.3318   49.3368 H   0  0  0  0  0  0  0  0  0  0  0  0
   59.9139   33.0276   48.5022 H   0  0  0  0  0  0  0  0  0  0  0  0
   60.5488   34.7079   48.5022 H   0  0  0  0  0  0  0  0  0  0  0  0
   57.7487   32.6554   47.1095 H   0  0  0  0  0  0  0  0  0  0  0  0
   56.6078   33.5859   45.4062 H   0  0  0  0  0  0  0  0  0  0  0  0
   58.0793   34.4208   44.7350 H   0  0  0  0  0  0  0  0  0  0  0  0
   56.9271   32.3712   43.4556 H   0  0  0  0  0  0  0  0  0  0  0  0
   58.7170   32.6161   43.4761 H   0  0  0  0  0  0  0  0  0  0  0  0
   58.7639   28.5623   42.9856 H   0  0  0  0  0  0  0  0  0  0  0  0
   57.6148   24.0139   43.3334 H   0  0  0  0  0  0  0  0  0  0  0  0
   57.5535   21.6229   44.0575 H   0  0  0  0  0  0  0  0  0  0  0  0
   57.4031   21.0766   46.4924 H   0  0  0  0  0  0  0  0  0  0  0  0
   57.3862   25.2213   47.4884 H   0  0  0  0  0  0  0  0  0  0  0  0
   58.7954   30.2556   46.4828 H   0  0  0  0  0  0  0  0  0  0  0  0
   59.9526   30.3868   45.0960 H   0  0  0  0  0  0  0  0  0  0  0  0
   60.1987   32.0447   47.1247 H   0  0  0  0  0  0  0  0  0  0  0  0
   60.3203   32.6778   45.4438 H   0  0  0  0  0  0  0  0  0  0  0  0
  1  2  1  0
  2  3  1  0
  2  4  1  0
  4  5  1  0
  5  6  1  0
  6  7  1  0
  7  8  1  0
  8  9  2  0
  8 10  1  0
 10 11  2  0
 11 12  1  0
 12 13  2  0
 13 14  1  0
 14 15  2  0
 15 16  1  0
 16 17  2  0
 17 18  1  0
 18 19  2  0
 13 20  1  0
  7 21  1  0
 21 22  1  0
 22  4  1  0
 20 10  1  0
 19 14  1  0
  1 23  1  0
  1 24  1  0
  1 25  1  0
  3 26  1  0
  3 27  1  0
  3 28  1  0
  4 29  1  0
  5 30  1  0
  5 31  1  0
  6 32  1  0
  6 33  1  0
 11 34  1  0
 15 35  1  0
 16 36  1  0
 17 37  1  0
 19 38  1  0
 21 39  1  0
 21 40  1  0
 22 41  1  0
 22 42  1  0
M  END
>  <UniqueID>  (23) 
21

>  <SMILES>  (23) 
CN(C)C1CCN(C(=O)c2cnc(-c3cccnc3)s2)CC1

>  <Energy>  (23) 
86.72323840847491

>  <Genealogy>  (23) 
CN(C)C1CCN(C(=O)c2cnc(-c3cccnc3)s2)CC1 (3D coordinates assigned)
CN(C)C1CCN(C(=O)c2cnc(-c3cccnc3)s2)CC1 (nonaromatic ring conformer: 86.72323840847491 kcal/mol)

>  <smiles>  (23) 
CN(C)C1CCN(C(=O)c2cnc(-c3cccnc3)s2)CC1

>  <score_type>  (23) 
oracle

>  <origin>  (23) 
adg

>  <m_score__min__energy>  (23) 
-7.5700000000000003

>  <m_primary>  (23) 
energy

$$$$
23:0
     RDKit          3D

 37 40  0  0  0  0  0  0  0  0999 V2000
   63.3960   33.8800   46.3940 C   0  0  0  0  0  0  0  0  0  0  0  0
   63.5610   32.5790   46.9490 O   0  0  0  0  0  0  0  0  0  0  0  0
   62.5860   31.9110   47.7050 C   0  0  0  0  0  0  0  0  0  0  0  0
   62.6690   31.9700   49.1000 C   0  0  0  0  0  0  0  0  0  0  0  0
   61.7190   31.3240   49.8930 C   0  0  0  0  0  0  0  0  0  0  0  0
   60.6670   30.6210   49.2990 C   0  0  0  0  0  0  0  0  0  0  0  0
   60.5550   30.5650   47.9010 C   0  0  0  0  0  0  0  0  0  0  0  0
   59.4320   29.8220   47.2850 C   0  0  0  0  0  0  0  0  0  0  0  0
   59.1740   28.5210   47.5960 N   0  0  0  0  0  0  0  0  0  0  0  0
   58.1080   28.2400   46.8290 C   0  0  0  0  0  0  0  0  0  0  0  0
   57.4320   27.0660   46.7950 N   0  0  0  0  0  0  0  0  0  0  0  0
   56.3310   26.9750   45.9910 C   0  0  0  0  0  0  0  0  0  0  0  0
   55.6880   25.8950   45.9310 O   0  0  0  0  0  0  0  0  0  0  0  0
   55.9180   28.0560   45.2550 N   0  0  0  0  0  0  0  0  0  0  0  0
   56.5910   29.2410   45.2950 C   0  0  0  0  0  0  0  0  0  0  0  0
   56.1780   30.2280   44.6320 O   0  0  0  0  0  0  0  0  0  0  0  0
   57.7300   29.3160   46.0960 C   0  0  0  0  0  0  0  0  0  0  0  0
   58.5610   30.3390   46.3670 N   0  0  0  0  0  0  0  0  0  0  0  0
   58.4660   31.6940   45.8990 C   0  0  0  0  0  0  0  0  0  0  0  0
   58.3130   32.7470   46.8130 C   0  0  0  0  0  0  0  0  0  0  0  0
   58.1720   34.0600   46.3540 C   0  0  0  0  0  0  0  0  0  0  0  0
   58.1800   34.3280   44.9810 C   0  0  0  0  0  0  0  0  0  0  0  0
   58.3280   33.2820   44.0660 C   0  0  0  0  0  0  0  0  0  0  0  0
   58.4710   31.9670   44.5220 C   0  0  0  0  0  0  0  0  0  0  0  0
   61.5340   31.1900   47.1080 C   0  0  0  0  0  0  0  0  0  0  0  0
   63.3027   34.6160   47.2062 H   0  0  0  0  0  0  0  0  0  0  0  0
   64.2699   34.1275   45.7736 H   0  0  0  0  0  0  0  0  0  0  0  0
   62.4879   33.9015   45.7736 H   0  0  0  0  0  0  0  0  0  0  0  0
   63.4883   32.5292   49.5754 H   0  0  0  0  0  0  0  0  0  0  0  0
   61.7986   31.3683   50.9892 H   0  0  0  0  0  0  0  0  0  0  0  0
   59.9244   30.1099   49.9293 H   0  0  0  0  0  0  0  0  0  0  0  0
   58.3039   32.5392   47.8932 H   0  0  0  0  0  0  0  0  0  0  0  0
   58.0546   34.8837   47.0736 H   0  0  0  0  0  0  0  0  0  0  0  0
   58.0698   35.3618   44.6216 H   0  0  0  0  0  0  0  0  0  0  0  0
   58.3321   33.4928   42.9864 H   0  0  0  0  0  0  0  0  0  0  0  0
   58.5876   31.1453   43.8000 H   0  0  0  0  0  0  0  0  0  0  0  0
   61.4775   31.1150   46.0120 H   0  0  0  0  0  0  0  0  0  0  0  0
  1  2  1  0
  2  3  1  0
  3  4  2  0
  4  5  1  0
  5  6  2  0
  6  7  1  0
  7  8  1  0
  8  9  2  0
  9 10  1  0
 10 11  1  0
 11 12  1  0
 12 13  2  0
 12 14  1  0
 14 15  1  0
 15 16  2  0
 15 17  1  0
 17 18  1  0
 18 19  1  0
 19 20  2  0
 20 21  1  0
 21 22  2  0
 22 23  1  0
 23 24  2  0
  7 25  2  0
 25  3  1  0
 18  8  1  0
 24 19  1  0
 17 10  2  0
  1 26  1  0
  1 27  1  0
  1 28  1  0
  4 29  1  0
  5 30  1  0
  6 31  1  0
 20 32  1  0
 21 33  1  0
 22 34  1  0
 23 35  1  0
 24 36  1  0
 25 37  1  0
M  CHG  2  11  -1  14  -1
M  END
>  <UniqueID>  (24) 
22

>  <SMILES>  (24) 
COc1cccc(-c2nc3[n-]c(=O)[n-]c(=O)c3n2-c2ccccc2)c1

>  <Energy>  (24) 
92.60790044441846

>  <Genealogy>  (24) 
COc1cccc(-c2nc3[n-]c(=O)[n-]c(=O)c3n2-c2ccccc2)c1 (protonated)
COc1cccc(-c2nc3[n-]c(=O)[n-]c(=O)c3n2-c2ccccc2)c1 (3D coordinates assigned)
COc1cccc(-c2nc3[n-]c(=O)[n-]c(=O)c3n2-c2ccccc2)c1 (optimized conformer: 92.60790044441846 kcal/mol)

>  <smiles>  (24) 
COc1cccc(-c2nc3[nH]c(=O)[nH]c(=O)c3n2-c2ccccc2)c1

>  <score_type>  (24) 
oracle

>  <origin>  (24) 
adg

>  <m_score__min__energy>  (24) 
-10.99

>  <m_primary>  (24) 
energy

$$$$
24:0
     RDKit          3D

 54 56  0  0  0  0  0  0  0  0999 V2000
   56.2720   25.8390   45.6160 C   0  0  0  0  0  0  0  0  0  0  0  0
   57.6230   26.4800   45.6610 C   0  0  0  0  0  0  0  0  0  0  0  0
   58.6380   26.0350   46.4300 N   0  0  0  0  0  0  0  0  0  0  0  0
   59.7190   26.7400   46.1190 N   0  0  0  0  0  0  0  0  0  0  0  0
   61.0220   26.5320   46.7430 C   0  0  0  0  0  0  0  0  0  0  0  0
   59.4240   27.6360   45.1500 C   0  0  0  0  0  0  0  0  0  0  0  0
   60.3970   28.5910   44.5270 C   0  0  0  0  0  0  0  0  0  0  0  0
   58.0910   27.4790   44.8260 C   0  0  0  0  0  0  0  0  0  0  0  0
   57.3830   28.0730   43.7320 N   0  0  0  0  0  0  0  0  0  0  0  0
   56.5860   29.5960   43.9470 S   0  0  0  0  0  0  0  0  0  0  0  0
   56.4640   30.2890   42.6190 O   0  0  0  0  0  0  0  0  0  0  0  0
   55.2070   29.3840   44.5070 O   0  0  0  0  0  0  0  0  0  0  0  0
   57.5540   30.5930   45.0260 C   0  0  0  0  0  0  0  0  0  0  0  0
   57.9110   30.1310   46.3000 C   0  0  0  0  0  0  0  0  0  0  0  0
   58.7610   30.8890   47.1110 C   0  0  0  0  0  0  0  0  0  0  0  0
   59.2680   32.1230   46.6570 C   0  0  0  0  0  0  0  0  0  0  0  0
   60.1980   32.9150   47.5020 C   0  0  0  0  0  0  0  0  0  0  0  0
   59.7020   33.8280   48.4510 C   0  0  0  0  0  0  0  0  0  0  0  0
   60.5800   34.5710   49.2420 C   0  0  0  0  0  0  0  0  0  0  0  0
   61.9630   34.4100   49.1020 C   0  0  0  0  0  0  0  0  0  0  0  0
   62.4790   33.4960   48.1680 C   0  0  0  0  0  0  0  0  0  0  0  0
   63.9750   33.3080   48.0230 C   0  0  0  0  0  0  0  0  0  0  0  0
   64.5700   32.4070   49.0390 N   0  0  0  0  0  0  0  0  0  0  0  0
   65.4100   33.1270   50.0130 C   0  0  0  0  0  0  0  0  0  0  0  0
   63.5650   31.5750   49.7240 C   0  0  0  0  0  0  0  0  0  0  0  0
   61.5910   32.7570   47.3670 C   0  0  0  0  0  0  0  0  0  0  0  0
   58.8950   32.5850   45.3800 C   0  0  0  0  0  0  0  0  0  0  0  0
   58.0480   31.8230   44.5720 C   0  0  0  0  0  0  0  0  0  0  0  0
   55.9127   25.6685   46.6416 H   0  0  0  0  0  0  0  0  0  0  0  0
   55.5700   26.5000   45.0867 H   0  0  0  0  0  0  0  0  0  0  0  0
   56.3400   24.8771   45.0867 H   0  0  0  0  0  0  0  0  0  0  0  0
   60.9115   26.5496   47.8373 H   0  0  0  0  0  0  0  0  0  0  0  0
   61.4267   25.5579   46.4310 H   0  0  0  0  0  0  0  0  0  0  0  0
   61.7098   27.3317   46.4310 H   0  0  0  0  0  0  0  0  0  0  0  0
   60.9426   29.1265   45.3179 H   0  0  0  0  0  0  0  0  0  0  0  0
   61.1103   28.0327   43.9030 H   0  0  0  0  0  0  0  0  0  0  0  0
   59.8521   29.3146   43.9030 H   0  0  0  0  0  0  0  0  0  0  0  0
   57.6780   27.8270   42.7610 H   0  0  0  0  0  0  0  0  0  0  0  0
   57.5211   29.1687   46.6632 H   0  0  0  0  0  0  0  0  0  0  0  0
   59.0358   30.5197   48.1100 H   0  0  0  0  0  0  0  0  0  0  0  0
   58.6161   33.9569   48.5702 H   0  0  0  0  0  0  0  0  0  0  0  0
   60.1833   35.2857   49.9781 H   0  0  0  0  0  0  0  0  0  0  0  0
   62.6491   35.0016   49.7259 H   0  0  0  0  0  0  0  0  0  0  0  0
   64.1759   32.8868   47.0269 H   0  0  0  0  0  0  0  0  0  0  0  0
   64.4356   34.2967   48.1651 H   0  0  0  0  0  0  0  0  0  0  0  0
   65.0986   32.8601   51.0337 H   0  0  0  0  0  0  0  0  0  0  0  0
   66.4636   32.8472   49.8661 H   0  0  0  0  0  0  0  0  0  0  0  0
   65.2946   34.2110   49.8661 H   0  0  0  0  0  0  0  0  0  0  0  0
   63.6863   31.6754   50.8127 H   0  0  0  0  0  0  0  0  0  0  0  0
   62.5565   31.9061   49.4353 H   0  0  0  0  0  0  0  0  0  0  0  0
   63.7020   30.5224   49.4353 H   0  0  0  0  0  0  0  0  0  0  0  0
   61.9886   32.0474   46.6265 H   0  0  0  0  0  0  0  0  0  0  0  0
   59.2731   33.5520   45.0166 H   0  0  0  0  0  0  0  0  0  0  0  0
   57.7673   32.1905   43.5739 H   0  0  0  0  0  0  0  0  0  0  0  0
  1  2  1  0
  2  3  2  0
  3  4  1  0
  4  5  1  0
  4  6  1  0
  6  7  1  0
  6  8  2  0
  8  9  1  0
  9 10  1  0
 10 11  2  0
 10 12  2  0
 10 13  1  0
 13 14  2  0
 14 15  1  0
 15 16  2  0
 16 17  1  0
 17 18  2  0
 18 19  1  0
 19 20  2  0
 20 21  1  0
 21 22  1  0
 22 23  1  0
 23 24  1  0
 23 25  1  0
 21 26  2  0
 16 27  1  0
 27 28  2  0
  8  2  1  0
 28 13  1  0
 26 17  1  0
  1 29  1  0
  1 30  1  0
  1 31  1  0
  5 32  1  0
  5 33  1  0
  5 34  1  0
  7 35  1  0
  7 36  1  0
  7 37  1  0
  9 38  1  0
 14 39  1  0
 15 40  1  0
 18 41  1  0
 19 42  1  0
 20 43  1  0
 22 44  1  0
 22 45  1  0
 24 46  1  0
 24 47  1  0
 24 48  1  0
 25 49  1  0
 25 50  1  0
 25 51  1  0
 26 52  1  0
 27 53  1  0
 28 54  1  0
M  END
>  <UniqueID>  (25) 
23

>  <SMILES>  (25) 
Cc1nn(C)c(C)c1NS(=O)(=O)c1ccc(-c2cccc(CN(C)C)c2)cc1

>  <Energy>  (25) 
96.19856272044112

>  <Genealogy>  (25) 
Cc1nn(C)c(C)c1NS(=O)(=O)c1ccc(-c2cccc(CN(C)C)c2)cc1 (3D coordinates assigned)
Cc1nn(C)c(C)c1NS(=O)(=O)c1ccc(-c2cccc(CN(C)C)c2)cc1 (optimized conformer: 96.19856272044112 kcal/mol)

>  <smiles>  (25) 
Cc1nn(C)c(C)c1NS(=O)(=O)c1ccc(-c2cccc(CN(C)C)c2)cc1

>  <score_type>  (25) 
oracle

>  <origin>  (25) 
adg

>  <m_score__min__energy>  (25) 
-8.6799999999999997

>  <m_primary>  (25) 
energy

$$$$
25:0
     RDKit          3D

 53 55  0  0  0  0  0  0  0  0999 V2000
   56.2680   23.2380   46.6380 C   0  0  0  0  0  0  0  0  0  0  0  0
   55.9000   24.5340   47.1050 O   0  0  0  0  0  0  0  0  0  0  0  0
   55.9440   25.6720   46.2910 C   0  0  0  0  0  0  0  0  0  0  0  0
   54.8830   26.2910   45.9940 O   0  0  0  0  0  0  0  0  0  0  0  0
   57.2660   26.1700   45.7880 C   0  0  0  0  0  0  0  0  0  0  0  0
   58.3340   26.1240   46.8870 C   0  0  0  0  0  0  0  0  0  0  0  0
   58.8780   27.4860   47.1290 N   0  0  0  0  0  0  0  0  0  0  0  0
   59.9850   27.4640   48.1120 C   0  0  0  0  0  0  0  0  0  0  0  0
   59.9210   28.6810   48.9940 C   0  0  0  0  0  0  0  0  0  0  0  0
   61.0620   29.1330   49.6780 C   0  0  0  0  0  0  0  0  0  0  0  0
   60.9850   30.2510   50.5110 C   0  0  0  0  0  0  0  0  0  0  0  0
   59.7710   30.9260   50.6680 C   0  0  0  0  0  0  0  0  0  0  0  0
   58.6310   30.4820   49.9930 C   0  0  0  0  0  0  0  0  0  0  0  0
   58.7030   29.3640   49.1570 C   0  0  0  0  0  0  0  0  0  0  0  0
   59.2880   28.1320   45.8620 C   0  0  0  0  0  0  0  0  0  0  0  0
   58.9550   29.6170   45.8700 C   0  0  0  0  0  0  0  0  0  0  0  0
   57.7130   30.1090   45.3950 C   0  0  0  0  0  0  0  0  0  0  0  0
   56.6180   29.2030   44.9070 C   0  0  0  0  0  0  0  0  0  0  0  0
   57.4810   31.4490   45.3820 N   0  0  0  0  0  0  0  0  0  0  0  0
   58.3950   32.3630   45.8110 C   0  0  0  0  0  0  0  0  0  0  0  0
   58.0970   33.7400   45.7610 C   0  0  0  0  0  0  0  0  0  0  0  0
   56.7660   34.2210   45.2510 C   0  0  0  0  0  0  0  0  0  0  0  0
   59.0460   34.6660   46.2270 C   0  0  0  0  0  0  0  0  0  0  0  0
   60.2810   34.2340   46.7170 C   0  0  0  0  0  0  0  0  0  0  0  0
   60.5820   32.8710   46.7580 C   0  0  0  0  0  0  0  0  0  0  0  0
   59.6440   31.9230   46.3050 C   0  0  0  0  0  0  0  0  0  0  0  0
   59.9160   30.5430   46.3340 C   0  0  0  0  0  0  0  0  0  0  0  0
   61.0240   30.1280   46.7760 O   0  0  0  0  0  0  0  0  0  0  0  0
   56.4554   22.5780   47.4978 H   0  0  0  0  0  0  0  0  0  0  0  0
   55.4523   22.8228   46.0280 H   0  0  0  0  0  0  0  0  0  0  0  0
   57.1802   23.3134   46.0280 H   0  0  0  0  0  0  0  0  0  0  0  0
   57.5900   25.5393   44.9470 H   0  0  0  0  0  0  0  0  0  0  0  0
   57.1437   27.2149   45.4666 H   0  0  0  0  0  0  0  0  0  0  0  0
   57.8844   25.7417   47.8153 H   0  0  0  0  0  0  0  0  0  0  0  0
   59.1517   25.4618   46.5664 H   0  0  0  0  0  0  0  0  0  0  0  0
   59.9012   26.5602   48.7333 H   0  0  0  0  0  0  0  0  0  0  0  0
   60.9438   27.4616   47.5728 H   0  0  0  0  0  0  0  0  0  0  0  0
   62.0191   28.6044   49.5569 H   0  0  0  0  0  0  0  0  0  0  0  0
   61.8810   30.6011   51.0445 H   0  0  0  0  0  0  0  0  0  0  0  0
   59.7131   31.8075   51.3235 H   0  0  0  0  0  0  0  0  0  0  0  0
   57.6759   31.0128   50.1196 H   0  0  0  0  0  0  0  0  0  0  0  0
   57.8044   29.0177   48.6253 H   0  0  0  0  0  0  0  0  0  0  0  0
   60.3731   28.0081   45.7305 H   0  0  0  0  0  0  0  0  0  0  0  0
   58.7409   27.6562   45.0348 H   0  0  0  0  0  0  0  0  0  0  0  0
   56.0913   28.7672   45.7688 H   0  0  0  0  0  0  0  0  0  0  0  0
   55.9080   29.7813   44.2975 H   0  0  0  0  0  0  0  0  0  0  0  0
   57.0531   28.3973   44.2975 H   0  0  0  0  0  0  0  0  0  0  0  0
   56.1109   34.4577   46.1024 H   0  0  0  0  0  0  0  0  0  0  0  0
   56.9122   35.1232   44.6389 H   0  0  0  0  0  0  0  0  0  0  0  0
   56.3017   33.4338   44.6389 H   0  0  0  0  0  0  0  0  0  0  0  0
   58.8142   35.7411   46.2057 H   0  0  0  0  0  0  0  0  0  0  0  0
   61.0182   34.9695   47.0714 H   0  0  0  0  0  0  0  0  0  0  0  0
   61.5555   32.5364   47.1456 H   0  0  0  0  0  0  0  0  0  0  0  0
  1  2  1  0
  2  3  1  0
  3  4  2  0
  3  5  1  0
  5  6  1  0
  6  7  1  0
  7  8  1  0
  8  9  1  0
  9 10  2  0
 10 11  1  0
 11 12  2  0
 12 13  1  0
 13 14  2  0
  7 15  1  0
 15 16  1  0
 16 17  2  0
 17 18  1  0
 17 19  1  0
 19 20  1  0
 20 21  2  0
 21 22  1  0
 21 23  1  0
 23 24  2  0
 24 25  1  0
 25 26  2  0
 26 27  1  0
 27 28  2  0
 14  9  1  0
 27 16  1  0
 26 20  1  0
  1 29  1  0
  1 30  1  0
  1 31  1  0
  5 32  1  0
  5 33  1  0
  6 34  1  0
  6 35  1  0
  8 36  1  0
  8 37  1  0
 10 38  1  0
 11 39  1  0
 12 40  1  0
 13 41  1  0
 14 42  1  0
 15 43  1  0
 15 44  1  0
 18 45  1  0
 18 46  1  0
 18 47  1  0
 22 48  1  0
 22 49  1  0
 22 50  1  0
 23 51  1  0
 24 52  1  0
 25 53  1  0
M  CHG  1  19  -1
M  END
>  <UniqueID>  (26) 
24

>  <SMILES>  (26) 
COC(=O)CCN(Cc1ccccc1)Cc1c(C)[n-]c2c(C)cccc2c1=O

>  <Energy>  (26) 
57.82258256093977

>  <Genealogy>  (26) 
COC(=O)CCN(Cc1ccccc1)Cc1c(C)[n-]c2c(C)cccc2c1=O (protonated)
COC(=O)CCN(Cc1ccccc1)Cc1c(C)[n-]c2c(C)cccc2c1=O (3D coordinates assigned)
COC(=O)CCN(Cc1ccccc1)Cc1c(C)[n-]c2c(C)cccc2c1=O (optimized conformer: 57.82258256093977 kcal/mol)

>  <smiles>  (26) 
COC(=O)CCN(Cc1ccccc1)Cc1c(C)[nH]c2c(C)cccc2c1=O

>  <score_type>  (26) 
oracle

>  <origin>  (26) 
adg

>  <m_score__min__energy>  (26) 
-8.9100000000000001

>  <m_primary>  (26) 
energy

$$$$
26:0
     RDKit          3D

 47 48  0  0  0  0  0  0  0  0999 V2000
   64.8650   32.9340   49.3270 C   0  0  0  0  0  0  0  0  0  0  0  0
   63.9390   33.7400   48.5110 N   0  0  0  0  0  0  0  0  0  0  0  0
   63.7320   33.0760   47.2130 C   0  0  0  0  0  0  0  0  0  0  0  0
   62.6460   33.9210   49.2050 C   0  0  0  0  0  0  0  0  0  0  0  0
   61.6980   32.7550   48.8930 C   0  0  0  0  0  0  0  0  0  0  0  0
   60.3310   33.2510   48.6710 N   0  0  0  0  0  0  0  0  0  0  0  0
   59.4510   33.4490   49.8280 C   0  0  0  0  0  0  0  0  0  0  0  0
   59.8200   33.5460   47.3470 C   0  0  0  0  0  0  0  0  0  0  0  0
   59.0960   32.6010   46.5980 C   0  0  0  0  0  0  0  0  0  0  0  0
   58.6330   32.9460   45.3200 C   0  0  0  0  0  0  0  0  0  0  0  0
   57.8810   31.9600   44.5000 C   0  0  0  0  0  0  0  0  0  0  0  0
   57.8010   32.1120   43.1050 C   0  0  0  0  0  0  0  0  0  0  0  0
   57.1010   31.1850   42.3320 C   0  0  0  0  0  0  0  0  0  0  0  0
   56.4760   30.0930   42.9390 C   0  0  0  0  0  0  0  0  0  0  0  0
   56.5430   29.9200   44.3260 C   0  0  0  0  0  0  0  0  0  0  0  0
   55.8890   28.7840   44.9070 N   0  0  0  0  0  0  0  0  0  0  0  0
   56.6930   27.4240   45.6200 S   0  0  0  0  0  0  0  0  0  0  0  0
   57.7710   26.6940   44.4110 C   0  0  0  0  0  0  0  0  0  0  0  0
   55.6810   26.4020   46.0560 O   0  0  0  0  0  0  0  0  0  0  0  0
   57.5100   27.8740   46.7980 O   0  0  0  0  0  0  0  0  0  0  0  0
   57.2440   30.8600   45.1040 C   0  0  0  0  0  0  0  0  0  0  0  0
   58.8960   34.1920   44.8310 N   0  0  0  0  0  0  0  0  0  0  0  0
   59.5990   35.0950   45.5620 C   0  0  0  0  0  0  0  0  0  0  0  0
   60.0520   34.7690   46.7980 N   0  0  0  0  0  0  0  0  0  0  0  0
   64.6623   33.1104   50.3937 H   0  0  0  0  0  0  0  0  0  0  0  0
   64.7222   31.8676   49.0981 H   0  0  0  0  0  0  0  0  0  0  0  0
   65.9015   33.2225   49.0981 H   0  0  0  0  0  0  0  0  0  0  0  0
   63.4084   32.0380   47.3796 H   0  0  0  0  0  0  0  0  0  0  0  0
   62.9590   33.6143   46.6449 H   0  0  0  0  0  0  0  0  0  0  0  0
   64.6739   33.0797   46.6449 H   0  0  0  0  0  0  0  0  0  0  0  0
   62.8210   33.9643   50.2901 H   0  0  0  0  0  0  0  0  0  0  0  0
   62.1843   34.8566   48.8566 H   0  0  0  0  0  0  0  0  0  0  0  0
   62.0469   32.2364   47.9878 H   0  0  0  0  0  0  0  0  0  0  0  0
   61.6918   32.0618   49.7470 H   0  0  0  0  0  0  0  0  0  0  0  0
   60.0290   33.3189   50.7548 H   0  0  0  0  0  0  0  0  0  0  0  0
   59.0292   34.4645   49.7984 H   0  0  0  0  0  0  0  0  0  0  0  0
   58.6349   32.7120   49.7984 H   0  0  0  0  0  0  0  0  0  0  0  0
   58.8949   31.6013   47.0105 H   0  0  0  0  0  0  0  0  0  0  0  0
   58.2935   32.9674   42.6195 H   0  0  0  0  0  0  0  0  0  0  0  0
   57.0411   31.3144   41.2413 H   0  0  0  0  0  0  0  0  0  0  0  0
   55.9280   29.3648   42.3230 H   0  0  0  0  0  0  0  0  0  0  0  0
   58.5778   26.1476   44.9214 H   0  0  0  0  0  0  0  0  0  0  0  0
   57.1977   25.9975   43.7815 H   0  0  0  0  0  0  0  0  0  0  0  0
   58.2049   27.4849   43.7815 H   0  0  0  0  0  0  0  0  0  0  0  0
   57.2946   30.7337   46.1956 H   0  0  0  0  0  0  0  0  0  0  0  0
   58.5430   34.4800   43.8900 H   0  0  0  0  0  0  0  0  0  0  0  0
   59.8018   36.0946   45.1501 H   0  0  0  0  0  0  0  0  0  0  0  0
  1  2  1  0
  2  3  1  0
  2  4  1  0
  4  5  1  0
  5  6  1  0
  6  7  1  0
  6  8  1  0
  8  9  2  0
  9 10  1  0
 10 11  1  0
 11 12  2  0
 12 13  1  0
 13 14  2  0
 14 15  1  0
 15 16  1  0
 16 17  1  0
 17 18  1  0
 17 19  2  0
 17 20  2  0
 15 21  2  0
 10 22  2  0
 22 23  1  0
 23 24  2  0
 24  8  1  0
 21 11  1  0
  1 25  1  0
  1 26  1  0
  1 27  1  0
  3 28  1  0
  3 29  1  0
  3 30  1  0
  4 31  1  0
  4 32  1  0
  5 33  1  0
  5 34  1  0
  7 35  1  0
  7 36  1  0
  7 37  1  0
  9 38  1  0
 12 39  1  0
 13 40  1  0
 14 41  1  0
 18 42  1  0
 18 43  1  0
 18 44  1  0
 21 45  1  0
 22 46  1  0
 23 47  1  0
M  CHG  2  16  -1  22   1
M  END
>  <UniqueID>  (27) 
25

>  <SMILES>  (27) 
CN(C)CCN(C)c1cc(-c2cccc([N-]S(C)(=O)=O)c2)[nH+]cn1

>  <Energy>  (27) 
48.56638831297884

>  <Genealogy>  (27) 
CN(C)CCN(C)c1cc(-c2cccc([N-]S(C)(=O)=O)c2)[nH+]cn1 (protonated)
CN(C)CCN(C)c1cc(-c2cccc([N-]S(C)(=O)=O)c2)[nH+]cn1 (3D coordinates assigned)
CN(C)CCN(C)c1cc(-c2cccc([N-]S(C)(=O)=O)c2)[nH+]cn1 (optimized conformer: 48.56638831297884 kcal/mol)

>  <smiles>  (27) 
CN(C)CCN(C)c1cc(-c2cccc(NS(C)(=O)=O)c2)ncn1

>  <score_type>  (27) 
oracle

>  <origin>  (27) 
adg

>  <m_score__min__energy>  (27) 
-8.6999999999999993

>  <m_primary>  (27) 
energy

$$$$
27:0
     RDKit          3D

 54 57  0  0  0  0  0  0  0  0999 V2000
   57.1240   24.4470   43.7150 C   0  0  0  0  0  0  0  0  0  0  0  0
   57.7210   25.8040   43.8640 C   0  0  0  0  0  0  0  0  0  0  0  0
   58.2270   26.2830   45.0200 N   0  0  0  0  0  0  0  0  0  0  0  0
   58.6110   27.5270   44.6590 C   0  0  0  0  0  0  0  0  0  0  0  0
   59.2210   28.5010   45.5950 C   0  0  0  0  0  0  0  0  0  0  0  0
   60.2720   29.3410   45.1880 C   0  0  0  0  0  0  0  0  0  0  0  0
   60.7990   30.2920   46.0640 C   0  0  0  0  0  0  0  0  0  0  0  0
   60.2820   30.4320   47.3600 C   0  0  0  0  0  0  0  0  0  0  0  0
   60.8210   31.4910   48.2980 C   0  0  0  0  0  0  0  0  0  0  0  0
   60.1860   32.8160   48.1240 N   0  0  0  0  0  0  0  0  0  0  0  0
   58.7770   32.9260   48.5570 C   0  0  0  0  0  0  0  0  0  0  0  0
   57.7680   32.7150   47.4110 C   0  0  0  0  0  0  0  0  0  0  0  0
   58.1640   33.3610   46.0470 C   0  0  0  0  0  0  0  0  0  0  0  0
   58.3720   32.3050   45.0070 N   0  0  0  0  0  0  0  0  0  0  0  0
   57.5610   31.0790   45.2940 C   0  0  0  0  0  0  0  0  0  0  0  0
   56.3820   30.8770   44.3320 C   0  0  0  0  0  0  0  0  0  0  0  0
   56.8650   30.7690   42.8800 C   0  0  0  0  0  0  0  0  0  0  0  0
   58.1010   31.6400   42.6110 C   0  0  0  0  0  0  0  0  0  0  0  0
   58.2010   32.7950   43.6130 C   0  0  0  0  0  0  0  0  0  0  0  0
   59.3840   34.2940   46.2550 C   0  0  0  0  0  0  0  0  0  0  0  0
   60.5600   33.5430   46.8900 C   0  0  0  0  0  0  0  0  0  0  0  0
   59.2760   29.5520   47.7890 C   0  0  0  0  0  0  0  0  0  0  0  0
   58.7430   28.6030   46.9120 C   0  0  0  0  0  0  0  0  0  0  0  0
   58.3350   27.7710   43.3620 N   0  0  0  0  0  0  0  0  0  0  0  0
   57.7840   26.6920   42.9010 O   0  0  0  0  0  0  0  0  0  0  0  0
   56.9353   24.0181   44.7102 H   0  0  0  0  0  0  0  0  0  0  0  0
   56.1759   24.5222   43.1624 H   0  0  0  0  0  0  0  0  0  0  0  0
   57.8201   23.7988   43.1624 H   0  0  0  0  0  0  0  0  0  0  0  0
   60.6824   29.2484   44.1716 H   0  0  0  0  0  0  0  0  0  0  0  0
   61.6269   30.9370   45.7347 H   0  0  0  0  0  0  0  0  0  0  0  0
   60.6519   31.1577   49.3326 H   0  0  0  0  0  0  0  0  0  0  0  0
   61.8895   31.6128   48.0666 H   0  0  0  0  0  0  0  0  0  0  0  0
   58.5895   32.1673   49.3311 H   0  0  0  0  0  0  0  0  0  0  0  0
   58.6314   33.9488   48.9346 H   0  0  0  0  0  0  0  0  0  0  0  0
   57.6537   31.6323   47.2539 H   0  0  0  0  0  0  0  0  0  0  0  0
   56.8403   33.2148   47.7265 H   0  0  0  0  0  0  0  0  0  0  0  0
   57.3464   33.9904   45.6658 H   0  0  0  0  0  0  0  0  0  0  0  0
   58.2211   30.2020   45.2226 H   0  0  0  0  0  0  0  0  0  0  0  0
   57.1354   31.2047   46.3005 H   0  0  0  0  0  0  0  0  0  0  0  0
   55.8513   29.9526   44.6036 H   0  0  0  0  0  0  0  0  0  0  0  0
   55.7124   31.7459   44.4133 H   0  0  0  0  0  0  0  0  0  0  0  0
   57.1188   29.7197   42.6687 H   0  0  0  0  0  0  0  0  0  0  0  0
   56.0538   31.1251   42.2280 H   0  0  0  0  0  0  0  0  0  0  0  0
   59.0031   31.0160   42.6932 H   0  0  0  0  0  0  0  0  0  0  0  0
   58.0109   32.0655   41.6007 H   0  0  0  0  0  0  0  0  0  0  0  0
   59.0648   33.4224   43.3478 H   0  0  0  0  0  0  0  0  0  0  0  0
   57.2646   33.3702   43.5657 H   0  0  0  0  0  0  0  0  0  0  0  0
   59.6992   34.6939   45.2799 H   0  0  0  0  0  0  0  0  0  0  0  0
   59.0862   35.1078   46.9326 H   0  0  0  0  0  0  0  0  0  0  0  0
   60.9473   32.8172   46.1598 H   0  0  0  0  0  0  0  0  0  0  0  0
   61.3165   34.2920   47.1669 H   0  0  0  0  0  0  0  0  0  0  0  0
   58.9045   29.6096   48.8227 H   0  0  0  0  0  0  0  0  0  0  0  0
   57.9430   27.9308   47.2558 H   0  0  0  0  0  0  0  0  0  0  0  0
   58.4870   28.6440   42.8130 H   0  0  0  0  0  0  0  0  0  0  0  0
  1  2  1  0
  2  3  2  0
  3  4  1  0
  4  5  1  0
  5  6  2  0
  6  7  1  0
  7  8  2  0
  8  9  1  0
  9 10  1  0
 10 11  1  0
 11 12  1  0
 12 13  1  0
 13 14  1  0
 14 15  1  0
 15 16  1  0
 16 17  1  0
 17 18  1  0
 18 19  1  0
 13 20  1  0
 20 21  1  0
  8 22  1  0
 22 23  2  0
  4 24  2  0
 24 25  1  0
 25  2  1  0
 23  5  1  0
 21 10  1  0
 19 14  1  0
  1 26  1  0
  1 27  1  0
  1 28  1  0
  6 29  1  0
  7 30  1  0
  9 31  1  0
  9 32  1  0
 11 33  1  0
 11 34  1  0
 12 35  1  0
 12 36  1  0
 13 37  1  0
 15 38  1  0
 15 39  1  0
 16 40  1  0
 16 41  1  0
 17 42  1  0
 17 43  1  0
 18 44  1  0
 18 45  1  0
 19 46  1  0
 19 47  1  0
 20 48  1  0
 20 49  1  0
 21 50  1  0
 21 51  1  0
 22 52  1  0
 23 53  1  0
 24 54  1  0
M  CHG  1  24   1
M  END
>  <UniqueID>  (28) 
26

>  <SMILES>  (28) 
Cc1nc(-c2ccc(CN3CCC(N4CCCCC4)CC3)cc2)[nH+]o1

>  <Energy>  (28) 
113.11620465102784

>  <Genealogy>  (28) 
Cc1nc(-c2ccc(CN3CCC(N4CCCCC4)CC3)cc2)[nH+]o1 (protonated)
Cc1nc(-c2ccc(CN3CCC(N4CCCCC4)CC3)cc2)[nH+]o1 (3D coordinates assigned)
Cc1nc(-c2ccc(CN3CCC(N4CCCCC4)CC3)cc2)[nH+]o1 (nonaromatic ring conformer: 113.11620465102784 kcal/mol)

>  <smiles>  (28) 
Cc1nc(-c2ccc(CN3CCC(N4CCCCC4)CC3)cc2)no1

>  <score_type>  (28) 
oracle

>  <origin>  (28) 
adg

>  <m_score__min__energy>  (28) 
-7.5499999999999998

>  <m_primary>  (28) 
energy

$$$$
28:0
     RDKit          3D

 54 55  0  0  0  0  0  0  0  0999 V2000
   63.0680   33.5830   46.8620 C   0  0  0  0  0  0  0  0  0  0  0  0
   63.2860   32.1020   47.1870 C   0  0  0  0  0  0  0  0  0  0  0  0
   62.4050   31.5990   48.3490 C   0  0  0  0  0  0  0  0  0  0  0  0
   60.9920   31.3110   47.9750 N   0  0  2  0  0  0  0  0  0  0  0  0
   59.9980   31.7540   48.9990 C   0  0  0  0  0  0  0  0  0  0  0  0
   58.6010   32.1730   48.4710 C   0  0  0  0  0  0  0  0  0  0  0  0
   58.6410   32.9900   47.2050 C   0  0  0  0  0  0  0  0  0  0  0  0
   59.5380   34.0660   47.0790 C   0  0  0  0  0  0  0  0  0  0  0  0
   59.5470   34.8490   45.9200 C   0  0  0  0  0  0  0  0  0  0  0  0
   58.6790   34.5500   44.8660 C   0  0  0  0  0  0  0  0  0  0  0  0
   57.8040   33.4630   44.9700 C   0  0  0  0  0  0  0  0  0  0  0  0
   57.7860   32.6820   46.1320 C   0  0  0  0  0  0  0  0  0  0  0  0
   60.8080   29.8750   47.6180 C   0  0  0  0  0  0  0  0  0  0  0  0
   60.2750   29.6500   46.1830 C   0  0  0  0  0  0  0  0  0  0  0  0
   59.0290   28.8010   46.1380 C   0  0  0  0  0  0  0  0  0  0  0  0
   59.0200   27.5170   46.7050 C   0  0  0  0  0  0  0  0  0  0  0  0
   57.8610   26.7350   46.6650 C   0  0  0  0  0  0  0  0  0  0  0  0
   56.6930   27.2240   46.0480 C   0  0  0  0  0  0  0  0  0  0  0  0
   55.5080   26.4680   45.9900 O   0  0  0  0  0  0  0  0  0  0  0  0
   55.4510   25.0750   45.6870 C   0  0  0  0  0  0  0  0  0  0  0  0
   56.6970   28.5030   45.4680 C   0  0  0  0  0  0  0  0  0  0  0  0
   55.5160   28.9660   44.8610 O   0  0  0  0  0  0  0  0  0  0  0  0
   55.4750   29.7330   43.6600 C   0  0  0  0  0  0  0  0  0  0  0  0
   57.8690   29.2840   45.5110 C   0  0  0  0  0  0  0  0  0  0  0  0
   62.9838   34.1552   47.7977 H   0  0  0  0  0  0  0  0  0  0  0  0
   63.9204   33.9595   46.2775 H   0  0  0  0  0  0  0  0  0  0  0  0
   62.1433   33.6979   46.2775 H   0  0  0  0  0  0  0  0  0  0  0  0
   63.0535   31.5093   46.2900 H   0  0  0  0  0  0  0  0  0  0  0  0
   64.3348   31.9865   47.4981 H   0  0  0  0  0  0  0  0  0  0  0  0
   62.8513   30.6739   48.7426 H   0  0  0  0  0  0  0  0  0  0  0  0
   62.3724   32.4111   49.0903 H   0  0  0  0  0  0  0  0  0  0  0  0
   60.7740   31.8710   47.1170 H   0  0  0  0  0  0  0  0  0  0  0  0
   59.8530   30.9234   49.7054 H   0  0  0  0  0  0  0  0  0  0  0  0
   60.4256   32.6639   49.4455 H   0  0  0  0  0  0  0  0  0  0  0  0
   58.0180   31.2610   48.2753 H   0  0  0  0  0  0  0  0  0  0  0  0
   58.1473   32.8095   49.2450 H   0  0  0  0  0  0  0  0  0  0  0  0
   60.2371   34.2933   47.8973 H   0  0  0  0  0  0  0  0  0  0  0  0
   60.2379   35.7010   45.8379 H   0  0  0  0  0  0  0  0  0  0  0  0
   58.6838   35.1682   43.9562 H   0  0  0  0  0  0  0  0  0  0  0  0
   57.1283   33.2213   44.1364 H   0  0  0  0  0  0  0  0  0  0  0  0
   57.1008   31.8247   46.2057 H   0  0  0  0  0  0  0  0  0  0  0  0
   61.7797   29.3678   47.7102 H   0  0  0  0  0  0  0  0  0  0  0  0
   60.0529   29.4685   48.3069 H   0  0  0  0  0  0  0  0  0  0  0  0
   60.0469   30.6294   45.7372 H   0  0  0  0  0  0  0  0  0  0  0  0
   61.0563   29.1136   45.6246 H   0  0  0  0  0  0  0  0  0  0  0  0
   59.9292   27.1237   47.1833 H   0  0  0  0  0  0  0  0  0  0  0  0
   57.8617   25.7326   47.1179 H   0  0  0  0  0  0  0  0  0  0  0  0
   55.4273   24.4969   46.6226 H   0  0  0  0  0  0  0  0  0  0  0  0
   54.5435   24.8638   45.1024 H   0  0  0  0  0  0  0  0  0  0  0  0
   56.3382   24.7903   45.1024 H   0  0  0  0  0  0  0  0  0  0  0  0
   55.4178   30.8027   43.9099 H   0  0  0  0  0  0  0  0  0  0  0  0
   56.3846   29.5420   43.0717 H   0  0  0  0  0  0  0  0  0  0  0  0
   54.5909   29.4461   43.0717 H   0  0  0  0  0  0  0  0  0  0  0  0
   57.8754   30.2821   45.0488 H   0  0  0  0  0  0  0  0  0  0  0  0
  1  2  1  0
  2  3  1  0
  3  4  1  0
  4  5  1  0
  5  6  1  0
  6  7  1  0
  7  8  2  0
  8  9  1  0
  9 10  2  0
 10 11  1  0
 11 12  2  0
  4 13  1  0
 13 14  1  0
 14 15  1  0
 15 16  2  0
 16 17  1  0
 17 18  2  0
 18 19  1  0
 19 20  1  0
 18 21  1  0
 21 22  1  0
 22 23  1  0
 21 24  2  0
 12  7  1  0
 24 15  1  0
  1 25  1  0
  1 26  1  0
  1 27  1  0
  2 28  1  0
  2 29  1  0
  3 30  1  0
  3 31  1  0
  4 32  1  6
  5 33  1  0
  5 34  1  0
  6 35  1  0
  6 36  1  0
  8 37  1  0
  9 38  1  0
 10 39  1  0
 11 40  1  0
 12 41  1  0
 13 42  1  0
 13 43  1  0
 14 44  1  0
 14 45  1  0
 16 46  1  0
 17 47  1  0
 20 48  1  0
 20 49  1  0
 20 50  1  0
 23 51  1  0
 23 52  1  0
 23 53  1  0
 24 54  1  0
M  CHG  1   4   1
M  END
>  <UniqueID>  (29) 
27

>  <SMILES>  (29) 
CCC[N@H+](CCc1ccccc1)CCc1ccc(OC)c(OC)c1

>  <Energy>  (29) 
55.700099915666016

>  <Genealogy>  (29) 
CCC[NH+](CCc1ccccc1)CCc1ccc(OC)c(OC)c1 (protonated)
CCC[N@H+](CCc1ccccc1)CCc1ccc(OC)c(OC)c1 (chirality)
CCC[N@H+](CCc1ccccc1)CCc1ccc(OC)c(OC)c1 (3D coordinates assigned)
CCC[N@H+](CCc1ccccc1)CCc1ccc(OC)c(OC)c1 (optimized conformer: 55.700099915666016 kcal/mol)

>  <smiles>  (29) 
CCCN(CCc1ccccc1)CCc1ccc(OC)c(OC)c1

>  <score_type>  (29) 
oracle

>  <origin>  (29) 
adg

>  <m_score__min__energy>  (29) 
-6.8899999999999997

>  <m_primary>  (29) 
energy

$$$$
29:0
     RDKit          3D

 40 42  0  0  0  0  0  0  0  0999 V2000
   57.2450   31.1330   43.2830 C   0  0  0  0  0  0  0  0  0  0  0  0
   56.2160   30.1150   43.7810 C   0  0  2  0  0  0  0  0  0  0  0  0
   55.4540   30.6610   44.8280 O   0  0  0  0  0  0  0  0  0  0  0  0
   56.8940   28.8060   44.2240 C   0  0  0  0  0  0  0  0  0  0  0  0
   56.1270   28.1690   45.2900 N   0  0  0  0  0  0  0  0  0  0  0  0
   56.6070   27.0460   46.0380 C   0  0  0  0  0  0  0  0  0  0  0  0
   55.8030   26.1490   46.4100 O   0  0  0  0  0  0  0  0  0  0  0  0
   58.0450   26.9340   46.3610 C   0  0  0  0  0  0  0  0  0  0  0  0
   58.7600   25.7990   45.9470 C   0  0  0  0  0  0  0  0  0  0  0  0
   60.0940   25.6340   46.3190 C   0  0  0  0  0  0  0  0  0  0  0  0
   60.7100   26.6060   47.1040 C   0  0  0  0  0  0  0  0  0  0  0  0
   60.0210   27.7150   47.4780 N   0  0  0  0  0  0  0  0  0  0  0  0
   58.7260   27.9210   47.1150 C   0  0  0  0  0  0  0  0  0  0  0  0
   58.1090   29.1190   47.5010 O   0  0  0  0  0  0  0  0  0  0  0  0
   58.6690   30.3930   47.3190 C   0  0  0  0  0  0  0  0  0  0  0  0
   59.7930   30.7440   48.0750 C   0  0  0  0  0  0  0  0  0  0  0  0
   60.3650   32.0140   47.9540 C   0  0  0  0  0  0  0  0  0  0  0  0
   59.8240   32.9470   47.0580 C   0  0  0  0  0  0  0  0  0  0  0  0
   60.3770   34.2290   46.9320 C   0  0  0  0  0  0  0  0  0  0  0  0
   59.8140   35.1310   46.0270 C   0  0  0  0  0  0  0  0  0  0  0  0
   58.7430   34.7660   45.2730 N   0  0  0  0  0  0  0  0  0  0  0  0
   58.1840   33.5310   45.3700 C   0  0  0  0  0  0  0  0  0  0  0  0
   58.7080   32.5920   46.2690 C   0  0  0  0  0  0  0  0  0  0  0  0
   58.1370   31.3170   46.4000 C   0  0  0  0  0  0  0  0  0  0  0  0
   57.7313   31.6141   44.1444 H   0  0  0  0  0  0  0  0  0  0  0  0
   58.0032   30.6197   42.6734 H   0  0  0  0  0  0  0  0  0  0  0  0
   56.7399   31.8967   42.6734 H   0  0  0  0  0  0  0  0  0  0  0  0
   55.5422   29.8750   42.9453 H   0  0  0  0  0  0  0  0  0  0  0  0
   55.5680   30.0750   45.6210 H   0  0  0  0  0  0  0  0  0  0  0  0
   56.9570   28.1220   43.3648 H   0  0  0  0  0  0  0  0  0  0  0  0
   57.9019   29.0365   44.5995 H   0  0  0  0  0  0  0  0  0  0  0  0
   58.2661   25.0366   45.3266 H   0  0  0  0  0  0  0  0  0  0  0  0
   60.6545   24.7445   45.9955 H   0  0  0  0  0  0  0  0  0  0  0  0
   61.7551   26.4752   47.4212 H   0  0  0  0  0  0  0  0  0  0  0  0
   60.2308   30.0136   48.7713 H   0  0  0  0  0  0  0  0  0  0  0  0
   61.2411   32.2818   48.5629 H   0  0  0  0  0  0  0  0  0  0  0  0
   61.2458   34.5214   47.5400 H   0  0  0  0  0  0  0  0  0  0  0  0
   60.2384   36.1405   45.9237 H   0  0  0  0  0  0  0  0  0  0  0  0
   57.3196   33.2682   44.7425 H   0  0  0  0  0  0  0  0  0  0  0  0
   57.2705   31.0385   45.7823 H   0  0  0  0  0  0  0  0  0  0  0  0
  1  2  1  0
  2  3  1  0
  2  4  1  0
  4  5  1  0
  5  6  1  0
  6  7  2  0
  6  8  1  0
  8  9  2  0
  9 10  1  0
 10 11  2  0
 11 12  1  0
 12 13  2  0
 13 14  1  0
 14 15  1  0
 15 16  2  0
 16 17  1  0
 17 18  2  0
 18 19  1  0
 19 20  2  0
 20 21  1  0
 21 22  2  0
 22 23  1  0
 23 24  2  0
 13  8  1  0
 24 15  1  0
 23 18  1  0
  1 25  1  0
  1 26  1  0
  1 27  1  0
  2 28  1  6
  3 29  1  0
  4 30  1  0
  4 31  1  0
  9 32  1  0
 10 33  1  0
 11 34  1  0
 16 35  1  0
 17 36  1  0
 19 37  1  0
 20 38  1  0
 22 39  1  0
 24 40  1  0
M  CHG  1   5  -1
M  END
>  <UniqueID>  (30) 
28

>  <SMILES>  (30) 
C[C@H](O)C[N-]C(=O)c1cccnc1Oc1ccc2ccncc2c1

>  <Energy>  (30) 
50.60217148932561

>  <Genealogy>  (30) 
CC(O)C[N-]C(=O)c1cccnc1Oc1ccc2ccncc2c1 (protonated)
C[C@H](O)C[N-]C(=O)c1cccnc1Oc1ccc2ccncc2c1 (chirality)
C[C@H](O)C[N-]C(=O)c1cccnc1Oc1ccc2ccncc2c1 (3D coordinates assigned)
C[C@H](O)C[N-]C(=O)c1cccnc1Oc1ccc2ccncc2c1 (optimized conformer: 50.60217148932561 kcal/mol)

>  <smiles>  (30) 
CC(O)CNC(=O)c1cccnc1Oc1ccc2ccncc2c1

>  <score_type>  (30) 
oracle

>  <origin>  (30) 
adg

>  <m_score__min__energy>  (30) 
-10.92

>  <m_primary>  (30) 
energy

$$$$
30:0
     RDKit          3D

 45 47  0  0  0  0  0  0  0  0999 V2000
   56.3050   29.8160   43.4110 C   0  0  0  0  0  0  0  0  0  0  0  0
   56.3660   30.5160   44.6350 O   0  0  0  0  0  0  0  0  0  0  0  0
   57.4540   31.4190   44.6340 C   0  0  0  0  0  0  0  0  0  0  0  0
   57.0430   32.7820   45.1990 C   0  0  0  0  0  0  0  0  0  0  0  0
   58.0370   33.2430   46.1960 N   0  0  0  0  0  0  0  0  0  0  0  0
   58.6050   34.5830   45.8600 C   0  0  0  0  0  0  0  0  0  0  0  0
   60.1240   34.5560   46.2000 C   0  0  0  0  0  0  0  0  0  0  0  0
   60.1970   33.2720   46.9850 C   0  0  1  0  0  0  0  0  0  0  0  0
   59.2510   32.4370   46.2080 C   0  0  1  0  0  0  0  0  0  0  0  0
   59.3630   31.1080   46.9240 C   0  0  0  0  0  0  0  0  0  0  0  0
   60.8990   31.0430   47.1470 C   0  0  0  0  0  0  0  0  0  0  0  0
   61.3760   32.4320   47.0510 N   0  0  0  0  0  0  0  0  0  0  0  0
   62.6960   32.8430   47.4400 C   0  0  0  0  0  0  0  0  0  0  0  0
   63.6920   32.3250   46.8650 O   0  0  0  0  0  0  0  0  0  0  0  0
   62.9020   33.9190   48.4740 C   0  0  0  0  0  0  0  0  0  0  0  0
   63.9010   33.5090   49.5240 C   0  0  0  0  0  0  0  0  0  0  0  0
   63.7260   33.9070   50.8580 C   0  0  0  0  0  0  0  0  0  0  0  0
   64.6430   33.4920   51.8240 C   0  0  0  0  0  0  0  0  0  0  0  0
   65.7150   32.6800   51.4590 C   0  0  0  0  0  0  0  0  0  0  0  0
   65.8540   32.2890   50.1250 C   0  0  0  0  0  0  0  0  0  0  0  0
   64.9520   32.7010   49.1920 N   0  0  0  0  0  0  0  0  0  0  0  0
   56.2111   28.7381   43.6093 H   0  0  0  0  0  0  0  0  0  0  0  0
   55.4334   30.1601   42.8348 H   0  0  0  0  0  0  0  0  0  0  0  0
   57.2229   30.0042   42.8348 H   0  0  0  0  0  0  0  0  0  0  0  0
   58.2649   31.0045   45.2510 H   0  0  0  0  0  0  0  0  0  0  0  0
   57.7895   31.5591   43.5958 H   0  0  0  0  0  0  0  0  0  0  0  0
   56.9850   33.5128   44.3789 H   0  0  0  0  0  0  0  0  0  0  0  0
   56.0620   32.6872   45.6874 H   0  0  0  0  0  0  0  0  0  0  0  0
   58.4651   34.7906   44.7889 H   0  0  0  0  0  0  0  0  0  0  0  0
   58.0968   35.3706   46.4357 H   0  0  0  0  0  0  0  0  0  0  0  0
   60.7442   34.5148   45.2925 H   0  0  0  0  0  0  0  0  0  0  0  0
   60.4942   35.4446   46.7322 H   0  0  0  0  0  0  0  0  0  0  0  0
   60.0641   33.5771   48.0334 H   0  0  0  0  0  0  0  0  0  0  0  0
   59.3806   32.1808   45.1461 H   0  0  0  0  0  0  0  0  0  0  0  0
   58.8130   31.1111   47.8766 H   0  0  0  0  0  0  0  0  0  0  0  0
   58.9401   30.2526   46.3769 H   0  0  0  0  0  0  0  0  0  0  0  0
   61.1248   30.6280   48.1404 H   0  0  0  0  0  0  0  0  0  0  0  0
   61.3891   30.3940   46.4063 H   0  0  0  0  0  0  0  0  0  0  0  0
   63.2663   34.8279   47.9729 H   0  0  0  0  0  0  0  0  0  0  0  0
   61.9386   34.0989   48.9736 H   0  0  0  0  0  0  0  0  0  0  0  0
   62.8726   34.5412   51.1399 H   0  0  0  0  0  0  0  0  0  0  0  0
   64.5201   33.8050   52.8713 H   0  0  0  0  0  0  0  0  0  0  0  0
   66.4443   32.3502   52.2135 H   0  0  0  0  0  0  0  0  0  0  0  0
   66.6953   31.6459   49.8273 H   0  0  0  0  0  0  0  0  0  0  0  0
   65.0760   32.3850   48.2040 H   0  0  0  0  0  0  0  0  0  0  0  0
  1  2  1  0
  2  3  1  0
  3  4  1  0
  4  5  1  0
  5  6  1  0
  6  7  1  0
  7  8  1  0
  8  9  1  0
  9 10  1  0
 10 11  1  0
 11 12  1  0
 12 13  1  0
 13 14  2  0
 13 15  1  0
 15 16  1  0
 16 17  2  0
 17 18  1  0
 18 19  2  0
 19 20  1  0
 20 21  2  0
  9  5  1  0
 21 16  1  0
 12  8  1  0
  1 22  1  0
  1 23  1  0
  1 24  1  0
  3 25  1  0
  3 26  1  0
  4 27  1  0
  4 28  1  0
  6 29  1  0
  6 30  1  0
  7 31  1  0
  7 32  1  0
  8 33  1  1
  9 34  1  6
 10 35  1  0
 10 36  1  0
 11 37  1  0
 11 38  1  0
 15 39  1  0
 15 40  1  0
 17 41  1  0
 18 42  1  0
 19 43  1  0
 20 44  1  0
 21 45  1  0
M  CHG  1  21   1
M  END
>  <UniqueID>  (31) 
29

>  <SMILES>  (31) 
COCCN1CC[C@H]2[C@H]1CCN2C(=O)Cc1cccc[nH+]1

>  <Energy>  (31) 
85.08778956767152

>  <Genealogy>  (31) 
COCCN1CCC2C1CCN2C(=O)Cc1cccc[nH+]1 (protonated)
COCCN1CC[C@H]2[C@H]1CCN2C(=O)Cc1cccc[nH+]1 (chirality)
COCCN1CC[C@H]2[C@H]1CCN2C(=O)Cc1cccc[nH+]1 (3D coordinates assigned)
COCCN1CC[C@H]2[C@H]1CCN2C(=O)Cc1cccc[nH+]1 (nonaromatic ring conformer: 85.08778956767152 kcal/mol)

>  <smiles>  (31) 
COCCN1CCC2C1CCN2C(=O)Cc1ccccn1

>  <score_type>  (31) 
oracle

>  <origin>  (31) 
adg

>  <m_score__min__energy>  (31) 
-6.2400000000000002

>  <m_primary>  (31) 
energy

$$$$
31:0
     RDKit          3D

 34 36  0  0  0  0  0  0  0  0999 V2000
   58.1280   33.8640   46.8590 C   0  0  0  0  0  0  0  0  0  0  0  0
   57.7690   32.3850   46.7690 C   0  0  0  0  0  0  0  0  0  0  0  0
   58.5150   31.7350   45.6870 N   0  0  0  0  0  0  0  0  0  0  0  0
   59.5830   30.7890   45.9780 C   0  0  0  0  0  0  0  0  0  0  0  0
   59.0610   29.4150   46.3390 C   0  0  0  0  0  0  0  0  0  0  0  0
   59.8700   28.6650   47.2070 C   0  0  0  0  0  0  0  0  0  0  0  0
   59.5330   27.3660   47.5510 C   0  0  0  0  0  0  0  0  0  0  0  0
   58.3960   26.7940   47.0050 C   0  0  0  0  0  0  0  0  0  0  0  0
   57.6040   27.4950   46.1460 N   0  0  0  0  0  0  0  0  0  0  0  0
   56.5170   26.8460   45.5900 O   0  0  0  0  0  0  0  0  0  0  0  0
   57.8840   28.8000   45.7980 C   0  0  0  0  0  0  0  0  0  0  0  0
   56.9090   29.5140   44.9020 C   0  0  0  0  0  0  0  0  0  0  0  0
   55.6920   29.1830   44.9460 O   0  0  0  0  0  0  0  0  0  0  0  0
   57.2710   30.5780   43.9430 C   0  0  0  0  0  0  0  0  0  0  0  0
   56.7730   30.5340   42.6290 C   0  0  0  0  0  0  0  0  0  0  0  0
   57.0280   31.5840   41.7410 C   0  0  0  0  0  0  0  0  0  0  0  0
   57.7680   32.6920   42.1630 C   0  0  0  0  0  0  0  0  0  0  0  0
   58.2490   32.7520   43.4720 C   0  0  0  0  0  0  0  0  0  0  0  0
   57.9860   31.7040   44.3650 C   0  0  0  0  0  0  0  0  0  0  0  0
   58.1999   34.1602   47.9159 H   0  0  0  0  0  0  0  0  0  0  0  0
   59.0944   34.0376   46.3630 H   0  0  0  0  0  0  0  0  0  0  0  0
   57.3488   34.4613   46.3630 H   0  0  0  0  0  0  0  0  0  0  0  0
   58.0155   31.8950   47.7225 H   0  0  0  0  0  0  0  0  0  0  0  0
   56.6928   32.2946   46.5602 H   0  0  0  0  0  0  0  0  0  0  0  0
   60.2260   30.6995   45.0900 H   0  0  0  0  0  0  0  0  0  0  0  0
   60.1403   31.1722   46.8455 H   0  0  0  0  0  0  0  0  0  0  0  0
   60.7847   29.1152   47.6200 H   0  0  0  0  0  0  0  0  0  0  0  0
   60.1617   26.7951   48.2502 H   0  0  0  0  0  0  0  0  0  0  0  0
   58.1288   25.7600   47.2683 H   0  0  0  0  0  0  0  0  0  0  0  0
   56.2030   27.0380   44.6460 H   0  0  0  0  0  0  0  0  0  0  0  0
   56.1796   29.6691   42.2975 H   0  0  0  0  0  0  0  0  0  0  0  0
   56.6461   31.5378   40.7104 H   0  0  0  0  0  0  0  0  0  0  0  0
   57.9713   33.5165   41.4638 H   0  0  0  0  0  0  0  0  0  0  0  0
   58.8348   33.6222   43.8030 H   0  0  0  0  0  0  0  0  0  0  0  0
  1  2  1  0
  2  3  1  0
  3  4  1  0
  4  5  1  0
  5  6  2  0
  6  7  1  0
  7  8  2  0
  8  9  1  0
  9 10  1  0
  9 11  2  0
 11 12  1  0
 12 13  2  0
 12 14  1  0
 14 15  2  0
 15 16  1  0
 16 17  2  0
 17 18  1  0
 18 19  2  0
 19  3  1  0
 11  5  1  0
 19 14  1  0
  1 20  1  0
  1 21  1  0
  1 22  1  0
  2 23  1  0
  2 24  1  0
  4 25  1  0
  4 26  1  0
  6 27  1  0
  7 28  1  0
  8 29  1  0
 10 30  1  0
 15 31  1  0
 16 32  1  0
 17 33  1  0
 18 34  1  0
M  CHG  1   9   1
M  END
>  <UniqueID>  (32) 
30

>  <SMILES>  (32) 
CCN1Cc2ccc[n+](O)c2C(=O)c2ccccc21

>  <Energy>  (32) 
57.57108961190977

>  <Genealogy>  (32) 
CCN1Cc2ccc[n+](O)c2C(=O)c2ccccc21 (protonated)
CCN1Cc2ccc[n+](O)c2C(=O)c2ccccc21 (3D coordinates assigned)
CCN1Cc2ccc[n+](O)c2C(=O)c2ccccc21 (nonaromatic ring conformer: 57.57108961190977 kcal/mol)

>  <smiles>  (32) 
CCN1Cc2ccc[n+]([O-])c2C(=O)c2ccccc21

>  <score_type>  (32) 
oracle

>  <origin>  (32) 
adg

>  <m_score__min__energy>  (32) 
-6.54

>  <m_primary>  (32) 
energy

$$$$
32:0
     RDKit          3D

 27 29  0  0  0  0  0  0  0  0999 V2000
   60.0000   34.7610   45.7710 O   0  0  0  0  0  0  0  0  0  0  0  0
   60.1890   33.6310   46.2970 C   0  0  0  0  0  0  0  0  0  0  0  0
   61.5150   33.2230   46.7460 C   0  0  0  0  0  0  0  0  0  0  0  0
   62.6460   33.9420   46.7190 N   0  0  0  0  0  0  0  0  0  0  0  0
   63.5660   33.0720   47.1970 C   0  0  0  0  0  0  0  0  0  0  0  0
   63.0180   31.8700   47.4940 N   0  0  0  0  0  0  0  0  0  0  0  0
   61.7300   31.9960   47.2240 N   0  0  0  0  0  0  0  0  0  0  0  0
   60.7280   30.9330   47.2480 C   0  0  0  0  0  0  0  0  0  0  0  0
   59.3100   31.5360   47.3720 C   0  0  0  0  0  0  0  0  0  0  0  0
   59.1140   32.6830   46.4600 N   0  0  0  0  0  0  0  0  0  0  0  0
   57.7740   32.9770   45.9440 C   0  0  0  0  0  0  0  0  0  0  0  0
   57.4620   32.0810   44.7880 C   0  0  0  0  0  0  0  0  0  0  0  0
   57.8670   32.2730   43.4830 C   0  0  0  0  0  0  0  0  0  0  0  0
   57.3230   31.2250   42.7700 C   0  0  0  0  0  0  0  0  0  0  0  0
   56.6180   30.4660   43.6820 C   0  0  0  0  0  0  0  0  0  0  0  0
   56.7190   31.0020   44.8770 O   0  0  0  0  0  0  0  0  0  0  0  0
   62.7910   34.9240   46.3940 H   0  0  0  0  0  0  0  0  0  0  0  0
   64.6313   33.3126   47.3285 H   0  0  0  0  0  0  0  0  0  0  0  0
   60.7946   30.3503   46.3174 H   0  0  0  0  0  0  0  0  0  0  0  0
   60.9173   30.2819   48.1142 H   0  0  0  0  0  0  0  0  0  0  0  0
   58.5710   30.7585   47.1286 H   0  0  0  0  0  0  0  0  0  0  0  0
   59.1833   31.8966   48.4034 H   0  0  0  0  0  0  0  0  0  0  0  0
   57.0333   32.8146   46.7408 H   0  0  0  0  0  0  0  0  0  0  0  0
   57.7384   34.0240   45.6086 H   0  0  0  0  0  0  0  0  0  0  0  0
   58.4921   33.0899   43.0933 H   0  0  0  0  0  0  0  0  0  0  0  0
   57.4296   31.0329   41.6921 H   0  0  0  0  0  0  0  0  0  0  0  0
   56.0564   29.5506   43.4441 H   0  0  0  0  0  0  0  0  0  0  0  0
  1  2  2  0
  2  3  1  0
  3  4  2  0
  4  5  1  0
  5  6  2  0
  6  7  1  0
  7  8  1  0
  8  9  1  0
  9 10  1  0
 10 11  1  0
 11 12  1  0
 12 13  2  0
 13 14  1  0
 14 15  2  0
 15 16  1  0
 10  2  1  0
 16 12  1  0
  7  3  1  0
  4 17  1  0
  5 18  1  0
  8 19  1  0
  8 20  1  0
  9 21  1  0
  9 22  1  0
 11 23  1  0
 11 24  1  0
 13 25  1  0
 14 26  1  0
 15 27  1  0
M  CHG  1   4   1
M  END
>  <UniqueID>  (33) 
31

>  <SMILES>  (33) 
O=C1c2[nH+]cnn2CCN1Cc1ccco1

>  <Energy>  (33) 
89.45528919796755

>  <Genealogy>  (33) 
O=C1c2[nH+]cnn2CCN1Cc1ccco1 (protonated)
O=C1c2[nH+]cnn2CCN1Cc1ccco1 (3D coordinates assigned)
O=C1c2[nH+]cnn2CCN1Cc1ccco1 (nonaromatic ring conformer: 89.45528919796755 kcal/mol)

>  <smiles>  (33) 
O=C1c2ncnn2CCN1Cc1ccco1

>  <score_type>  (33) 
oracle

>  <origin>  (33) 
adg

>  <m_score__min__energy>  (33) 
-4.4500000000000002

>  <m_primary>  (33) 
energy

$$$$
33:0
     RDKit          3D

 34 35  0  0  0  0  0  0  0  0999 V2000
   59.6540   35.3920   45.9790 C   0  0  0  0  0  0  0  0  0  0  0  0
   59.0000   34.7310   44.9010 O   0  0  0  0  0  0  0  0  0  0  0  0
   58.5140   33.4160   44.9570 C   0  0  0  0  0  0  0  0  0  0  0  0
   58.6610   32.7040   46.1530 C   0  0  0  0  0  0  0  0  0  0  0  0
   58.1920   31.3920   46.2610 C   0  0  0  0  0  0  0  0  0  0  0  0
   57.5570   30.7730   45.1730 C   0  0  0  0  0  0  0  0  0  0  0  0
   57.0670   29.3800   45.2770 C   0  0  0  0  0  0  0  0  0  0  0  0
   55.8550   29.1340   45.0300 O   0  0  0  0  0  0  0  0  0  0  0  0
   57.9430   28.3080   45.6690 N   0  0  0  0  0  0  0  0  0  0  0  0
   59.3910   28.4140   45.5580 C   0  0  0  0  0  0  0  0  0  0  0  0
   59.9550   27.4880   46.6230 C   0  0  0  0  0  0  0  0  0  0  0  0
   58.8300   26.5180   46.9630 C   0  0  0  0  0  0  0  0  0  0  0  0
   57.5330   27.2300   46.5620 C   0  0  2  0  0  0  0  0  0  0  0  0
   56.5590   26.2680   45.8610 C   0  0  0  0  0  0  0  0  0  0  0  0
   55.2340   26.7050   45.9980 O   0  0  0  0  0  0  0  0  0  0  0  0
   57.4230   31.4800   43.9680 C   0  0  0  0  0  0  0  0  0  0  0  0
   57.8910   32.7930   43.8600 C   0  0  0  0  0  0  0  0  0  0  0  0
   59.2701   35.0040   46.9340 H   0  0  0  0  0  0  0  0  0  0  0  0
   60.7371   35.2097   45.9180 H   0  0  0  0  0  0  0  0  0  0  0  0
   59.4602   36.4731   45.9180 H   0  0  0  0  0  0  0  0  0  0  0  0
   59.1498   33.1811   47.0152 H   0  0  0  0  0  0  0  0  0  0  0  0
   58.3213   30.8411   47.2043 H   0  0  0  0  0  0  0  0  0  0  0  0
   59.7232   28.0962   44.5587 H   0  0  0  0  0  0  0  0  0  0  0  0
   59.7338   29.4498   45.6983 H   0  0  0  0  0  0  0  0  0  0  0  0
   60.8275   26.9425   46.2341 H   0  0  0  0  0  0  0  0  0  0  0  0
   60.2921   28.0458   47.5091 H   0  0  0  0  0  0  0  0  0  0  0  0
   58.9454   25.5828   46.3955 H   0  0  0  0  0  0  0  0  0  0  0  0
   58.8331   26.2506   48.0300 H   0  0  0  0  0  0  0  0  0  0  0  0
   56.9944   27.6127   47.4415 H   0  0  0  0  0  0  0  0  0  0  0  0
   56.8118   26.2164   44.7917 H   0  0  0  0  0  0  0  0  0  0  0  0
   56.6504   25.2760   46.3274 H   0  0  0  0  0  0  0  0  0  0  0  0
   55.1430   27.5160   45.4330 H   0  0  0  0  0  0  0  0  0  0  0  0
   56.9462   30.9975   43.1021 H   0  0  0  0  0  0  0  0  0  0  0  0
   57.7717   33.3411   42.9138 H   0  0  0  0  0  0  0  0  0  0  0  0
  1  2  1  0
  2  3  1  0
  3  4  2  0
  4  5  1  0
  5  6  2  0
  6  7  1  0
  7  8  2  0
  7  9  1  0
  9 10  1  0
 10 11  1  0
 11 12  1  0
 12 13  1  0
 13 14  1  0
 14 15  1  0
  6 16  1  0
 16 17  2  0
 17  3  1  0
 13  9  1  0
  1 18  1  0
  1 19  1  0
  1 20  1  0
  4 21  1  0
  5 22  1  0
 10 23  1  0
 10 24  1  0
 11 25  1  0
 11 26  1  0
 12 27  1  0
 12 28  1  0
 13 29  1  1
 14 30  1  0
 14 31  1  0
 15 32  1  0
 16 33  1  0
 17 34  1  0
M  END
>  <UniqueID>  (34) 
32

>  <SMILES>  (34) 
COc1ccc(C(=O)N2CCC[C@@H]2CO)cc1

>  <Energy>  (34) 
35.839647240068324

>  <Genealogy>  (34) 
COc1ccc(C(=O)N2CCC[C@@H]2CO)cc1 (chirality)
COc1ccc(C(=O)N2CCC[C@@H]2CO)cc1 (3D coordinates assigned)
COc1ccc(C(=O)N2CCC[C@@H]2CO)cc1 (nonaromatic ring conformer: 35.839647240068324 kcal/mol)

>  <smiles>  (34) 
COc1ccc(C(=O)N2CCCC2CO)cc1

>  <score_type>  (34) 
oracle

>  <origin>  (34) 
adg

>  <m_score__min__energy>  (34) 
-7.2599999999999998

>  <m_primary>  (34) 
energy

$$$$
34:0
     RDKit          3D

 39 42  0  0  0  0  0  0  0  0999 V2000
   59.3277   23.0844   45.3858 H   0  0  0  0  0  0  0  0  0  0  0  0
   58.6670   23.9600   45.4680 C   0  0  0  0  0  0  0  0  0  0  0  0
   58.9770   24.9890   46.3620 C   0  0  0  0  0  0  0  0  0  0  0  0
   59.8864   24.9261   46.9776 H   0  0  0  0  0  0  0  0  0  0  0  0
   58.1330   26.0980   46.4750 C   0  0  0  0  0  0  0  0  0  0  0  0
   58.3885   26.9126   47.1687 H   0  0  0  0  0  0  0  0  0  0  0  0
   56.9570   26.1760   45.7040 C   0  0  0  0  0  0  0  0  0  0  0  0
   56.0770   27.3110   45.7620 N   0  0  0  0  0  0  0  0  0  0  0  0
   56.2880   28.4840   45.2420 C   0  0  0  0  0  0  0  0  0  0  0  0
   55.3210   29.3460   44.8460 N   0  0  0  0  0  0  0  0  0  0  0  0
   55.9230   30.4750   44.4890 N   0  0  0  0  0  0  0  0  0  0  0  0
   55.4230   31.3710   44.2960 H   0  0  0  0  0  0  0  0  0  0  0  0
   57.2500   30.3060   44.6140 C   0  0  0  0  0  0  0  0  0  0  0  0
   57.5300   29.0590   45.0770 C   0  0  0  0  0  0  0  0  0  0  0  0
   58.7460   29.0400   45.9570 C   0  0  0  0  0  0  0  0  0  0  0  0
   58.5074   28.7082   46.9783 H   0  0  0  0  0  0  0  0  0  0  0  0
   59.5410   28.3493   45.6392 H   0  0  0  0  0  0  0  0  0  0  0  0
   59.1140   30.5030   45.9130 C   0  0  0  0  0  0  0  0  0  0  0  0
   60.1550   31.1390   46.5850 C   0  0  0  0  0  0  0  0  0  0  0  0
   60.8620   30.5598   47.1971 H   0  0  0  0  0  0  0  0  0  0  0  0
   60.2880   32.5440   46.4670 C   0  0  0  0  0  0  0  0  0  0  0  0
   61.3190   33.2450   47.1130 O   0  0  0  0  0  0  0  0  0  0  0  0
   62.6290   32.7330   47.3300 C   0  0  0  0  0  0  0  0  0  0  0  0
   62.8192   32.6587   48.4109 H   0  0  0  0  0  0  0  0  0  0  0  0
   62.7132   31.7358   46.8734 H   0  0  0  0  0  0  0  0  0  0  0  0
   63.3671   33.4088   46.8734 H   0  0  0  0  0  0  0  0  0  0  0  0
   59.3640   33.2800   45.6870 C   0  0  0  0  0  0  0  0  0  0  0  0
   59.5270   34.6720   45.6030 O   0  0  0  0  0  0  0  0  0  0  0  0
   59.6080   35.5430   46.7270 C   0  0  0  0  0  0  0  0  0  0  0  0
   59.5531   34.9523   47.6533 H   0  0  0  0  0  0  0  0  0  0  0  0
   60.5610   36.0915   46.6979 H   0  0  0  0  0  0  0  0  0  0  0  0
   58.7725   36.2579   46.6979 H   0  0  0  0  0  0  0  0  0  0  0  0
   58.3110   32.6110   45.0210 C   0  0  0  0  0  0  0  0  0  0  0  0
   57.5778   33.1708   44.4218 H   0  0  0  0  0  0  0  0  0  0  0  0
   58.2250   31.2290   45.1420 C   0  0  0  0  0  0  0  0  0  0  0  0
   56.6710   25.1530   44.7890 C   0  0  0  0  0  0  0  0  0  0  0  0
   55.7757   25.2223   44.1537 H   0  0  0  0  0  0  0  0  0  0  0  0
   57.5170   24.0450   44.6790 C   0  0  0  0  0  0  0  0  0  0  0  0
   57.2767   23.2390   43.9701 H   0  0  0  0  0  0  0  0  0  0  0  0
  1  2  1  0
  2  3  2  0
  3  4  1  0
  3  5  1  0
  5  6  1  0
  5  7  2  0
  7  8  1  0
  8  9  2  0
  9 10  1  0
 10 11  1  0
 11 12  1  0
 11 13  1  0
 13 14  2  0
 14 15  1  0
 15 16  1  0
 15 17  1  0
 15 18  1  0
 18 19  2  0
 19 20  1  0
 19 21  1  0
 21 22  1  0
 22 23  1  0
 23 24  1  0
 23 25  1  0
 23 26  1  0
 21 27  2  0
 27 28  1  0
 28 29  1  0
 29 30  1  0
 29 31  1  0
 29 32  1  0
 27 33  1  0
 33 34  1  0
 33 35  2  0
  7 36  1  0
 36 37  1  0
 36 38  2  0
 38 39  1  0
 38  2  1  0
 14  9  1  0
 35 18  1  0
 35 13  1  0
M  CHG  1  10  -1
M  END
>  <UniqueID>  (35) 
33

>  <SMILES>  (35) 
COc1cc2c(cc1OC)-c1[nH][n-]/c(=N\c3ccccc3)c1C2

>  <Energy>  (35) 
120.00986374624513

>  <Genealogy>  (35) 
COc1cc2c(cc1OC)-c1[nH][n-]c(=Nc3ccccc3)c1C2 (protonated)
COc1cc2c(cc1OC)-c1[nH][n-]/c(=N\c3ccccc3)c1C2 (cis-trans isomerization)
COc1cc2c(cc1OC)-c1[nH][n-]/c(=N\c3ccccc3)c1C2 (3D coordinates assigned)
COc1cc2c(cc1OC)-c1[nH][n-]/c(=N\c3ccccc3)c1C2 (nonaromatic ring conformer: 120.00986374624513 kcal/mol)

>  <smiles>  (35) 
COc1cc2c(cc1OC)-c1[nH][nH]c(=Nc3ccccc3)c1C2

>  <score_type>  (35) 
oracle

>  <origin>  (35) 
adg

>  <m_score__min__energy>  (35) 
-9

>  <m_primary>  (35) 
energy

$$$$
35:0
     RDKit          3D

 45 46  0  0  0  0  0  0  0  0999 V2000
   59.6840   26.7430   46.7890 C   0  0  0  0  0  0  0  0  0  0  0  0
   58.2810   26.6010   46.8670 O   0  0  0  0  0  0  0  0  0  0  0  0
   57.7030   26.7550   45.5860 C   0  0  0  0  0  0  0  0  0  0  0  0
   56.2700   27.1760   45.7020 C   0  0  0  0  0  0  0  0  0  0  0  0
   55.4200   26.3810   46.1850 O   0  0  0  0  0  0  0  0  0  0  0  0
   55.8760   28.4720   45.2440 N   0  0  0  0  0  0  0  0  0  0  0  0
   56.6380   29.2420   44.2680 C   0  0  0  0  0  0  0  0  0  0  0  0
   57.5220   30.2330   44.9740 C   0  0  0  0  0  0  0  0  0  0  0  0
   58.4650   29.7850   45.9120 C   0  0  0  0  0  0  0  0  0  0  0  0
   59.3300   30.6920   46.5300 C   0  0  0  0  0  0  0  0  0  0  0  0
   59.2780   32.0520   46.2050 C   0  0  0  0  0  0  0  0  0  0  0  0
   60.1760   32.9290   46.8210 O   0  0  0  0  0  0  0  0  0  0  0  0
   60.9270   32.5770   47.9850 C   0  0  1  0  0  0  0  0  0  0  0  0
   61.9430   31.4800   47.6050 C   0  0  0  0  0  0  0  0  0  0  0  0
   63.2080   31.5750   48.4660 C   0  0  0  0  0  0  0  0  0  0  0  0
   63.9210   32.8630   48.2560 N   0  0  2  0  0  0  0  0  0  0  0  0
   64.8050   33.1400   49.4020 C   0  0  0  0  0  0  0  0  0  0  0  0
   63.0190   34.0190   47.9860 C   0  0  0  0  0  0  0  0  0  0  0  0
   61.6170   33.8250   48.5820 C   0  0  0  0  0  0  0  0  0  0  0  0
   58.3170   32.5120   45.2850 C   0  0  0  0  0  0  0  0  0  0  0  0
   58.1390   34.2250   44.9340 Cl  0  0  0  0  0  0  0  0  0  0  0  0
   57.4510   31.6020   44.6690 C   0  0  0  0  0  0  0  0  0  0  0  0
   60.1052   26.7856   47.8043 H   0  0  0  0  0  0  0  0  0  0  0  0
   60.1102   25.8834   46.2510 H   0  0  0  0  0  0  0  0  0  0  0  0
   59.9293   27.6706   46.2510 H   0  0  0  0  0  0  0  0  0  0  0  0
   58.2608   27.5209   45.0273 H   0  0  0  0  0  0  0  0  0  0  0  0
   57.7481   25.7910   45.0581 H   0  0  0  0  0  0  0  0  0  0  0  0
   57.2601   28.5594   43.6705 H   0  0  0  0  0  0  0  0  0  0  0  0
   55.9415   29.7827   43.6103 H   0  0  0  0  0  0  0  0  0  0  0  0
   58.5234   28.7153   46.1618 H   0  0  0  0  0  0  0  0  0  0  0  0
   60.0555   30.3350   47.2758 H   0  0  0  0  0  0  0  0  0  0  0  0
   60.2581   32.1817   48.7637 H   0  0  0  0  0  0  0  0  0  0  0  0
   62.2193   31.5976   46.5468 H   0  0  0  0  0  0  0  0  0  0  0  0
   61.4771   30.4985   47.7769 H   0  0  0  0  0  0  0  0  0  0  0  0
   63.8822   30.7471   48.2015 H   0  0  0  0  0  0  0  0  0  0  0  0
   62.9085   31.5173   49.5229 H   0  0  0  0  0  0  0  0  0  0  0  0
   64.5410   32.7470   47.4180 H   0  0  0  0  0  0  0  0  0  0  0  0
   64.2553   32.9678   50.3391 H   0  0  0  0  0  0  0  0  0  0  0  0
   65.6783   32.4725   49.3612 H   0  0  0  0  0  0  0  0  0  0  0  0
   65.1412   34.1866   49.3612 H   0  0  0  0  0  0  0  0  0  0  0  0
   62.9247   34.1457   46.8974 H   0  0  0  0  0  0  0  0  0  0  0  0
   63.4632   34.9065   48.4604 H   0  0  0  0  0  0  0  0  0  0  0  0
   61.0067   34.7132   48.3614 H   0  0  0  0  0  0  0  0  0  0  0  0
   61.7154   33.6840   49.6685 H   0  0  0  0  0  0  0  0  0  0  0  0
   56.7092   31.9614   43.9406 H   0  0  0  0  0  0  0  0  0  0  0  0
  1  2  1  0
  2  3  1  0
  3  4  1  0
  4  5  2  0
  4  6  1  0
  6  7  1  0
  7  8  1  0
  8  9  2  0
  9 10  1  0
 10 11  2  0
 11 12  1  0
 12 13  1  0
 13 14  1  0
 14 15  1  0
 15 16  1  0
 16 17  1  0
 16 18  1  0
 18 19  1  0
 11 20  1  0
 20 21  1  0
 20 22  2  0
 22  8  1  0
 19 13  1  0
  1 23  1  0
  1 24  1  0
  1 25  1  0
  3 26  1  0
  3 27  1  0
  7 28  1  0
  7 29  1  0
  9 30  1  0
 10 31  1  0
 13 32  1  1
 14 33  1  0
 14 34  1  0
 15 35  1  0
 15 36  1  0
 16 37  1  6
 17 38  1  0
 17 39  1  0
 17 40  1  0
 18 41  1  0
 18 42  1  0
 19 43  1  0
 19 44  1  0
 22 45  1  0
M  CHG  2   6  -1  16   1
M  END
>  <UniqueID>  (36) 
34

>  <SMILES>  (36) 
COCC(=O)[N-]Cc1ccc(OC2CC[NH+](C)CC2)c(Cl)c1

>  <Energy>  (36) 
55.23322098327865

>  <Genealogy>  (36) 
COCC(=O)[N-]Cc1ccc(OC2CC[NH+](C)CC2)c(Cl)c1 (protonated)
COCC(=O)[N-]Cc1ccc(OC2CC[NH+](C)CC2)c(Cl)c1 (3D coordinates assigned)
COCC(=O)[N-]Cc1ccc(OC2CC[NH+](C)CC2)c(Cl)c1 (nonaromatic ring conformer: 55.23322098327865 kcal/mol)

>  <smiles>  (36) 
COCC(=O)NCc1ccc(OC2CCN(C)CC2)c(Cl)c1

>  <score_type>  (36) 
oracle

>  <origin>  (36) 
adg

>  <m_score__min__energy>  (36) 
-8.0999999999999996

>  <m_primary>  (36) 
energy

$$$$
36:0
     RDKit          3D

 61 65  0  0  0  0  0  0  0  0999 V2000
   58.7950   28.1820   48.2550 H   0  0  0  0  0  0  0  0  0  0  0  0
   58.5020   29.0060   47.7810 O   0  0  0  0  0  0  0  0  0  0  0  0
   59.6580   29.6830   47.3630 C   0  0  1  0  0  0  0  0  0  0  0  0
   60.5207   29.0015   47.3263 H   0  0  0  0  0  0  0  0  0  0  0  0
   59.4540   30.2000   46.0050 N   0  0  0  0  0  0  0  0  0  0  0  0
   58.3370   30.3690   45.3470 C   0  0  0  0  0  0  0  0  0  0  0  0
   57.4230   29.4070   44.9130 C   0  0  0  0  0  0  0  0  0  0  0  0
   57.5440   27.9500   44.7490 C   0  0  0  0  0  0  0  0  0  0  0  0
   57.8520   27.4710   43.6270 O   0  0  0  0  0  0  0  0  0  0  0  0
   57.2640   27.0850   45.8630 N   0  0  0  0  0  0  0  0  0  0  0  0
   57.2530   27.5190   46.8150 H   0  0  0  0  0  0  0  0  0  0  0  0
   57.1210   25.6560   45.7730 C   0  0  0  0  0  0  0  0  0  0  0  0
   58.2380   24.8040   45.7060 C   0  0  0  0  0  0  0  0  0  0  0  0
   59.2528   25.2266   45.7450 H   0  0  0  0  0  0  0  0  0  0  0  0
   58.0630   23.4220   45.5900 C   0  0  0  0  0  0  0  0  0  0  0  0
   58.9436   22.7634   45.5620 H   0  0  0  0  0  0  0  0  0  0  0  0
   56.7810   22.8660   45.5090 C   0  0  0  0  0  0  0  0  0  0  0  0
   56.6700   21.4720   45.3810 O   0  0  0  0  0  0  0  0  0  0  0  0
   57.0300   20.7090   44.2290 C   0  0  0  0  0  0  0  0  0  0  0  0
   56.2966   19.9015   44.0873 H   0  0  0  0  0  0  0  0  0  0  0  0
   58.0352   20.2896   44.3830 H   0  0  0  0  0  0  0  0  0  0  0  0
   57.0520   21.5890   42.9840 C   0  0  0  0  0  0  0  0  0  0  0  0
   57.0785   22.6472   43.2833 H   0  0  0  0  0  0  0  0  0  0  0  0
   57.9446   21.3549   42.3852 H   0  0  0  0  0  0  0  0  0  0  0  0
   56.1488   21.3998   42.3852 H   0  0  0  0  0  0  0  0  0  0  0  0
   55.6630   23.7190   45.5570 C   0  0  0  0  0  0  0  0  0  0  0  0
   54.6489   23.2970   45.4967 H   0  0  0  0  0  0  0  0  0  0  0  0
   55.8360   25.1010   45.6810 C   0  0  0  0  0  0  0  0  0  0  0  0
   54.9554   25.7597   45.7067 H   0  0  0  0  0  0  0  0  0  0  0  0
   56.3150   30.1390   44.5260 C   0  0  0  0  0  0  0  0  0  0  0  0
   55.3831   29.7121   44.1269 H   0  0  0  0  0  0  0  0  0  0  0  0
   56.5480   31.4530   44.7110 N   0  0  0  0  0  0  0  0  0  0  0  0
   57.7750   31.5870   45.1870 N   0  0  0  0  0  0  0  0  0  0  0  0
   58.3130   32.8440   45.6130 C   0  0  0  0  0  0  0  0  0  0  0  0
   58.8000   33.7690   44.6690 C   0  0  0  0  0  0  0  0  0  0  0  0
   58.7720   33.5260   43.5965 H   0  0  0  0  0  0  0  0  0  0  0  0
   59.3190   34.9960   45.0940 C   0  0  0  0  0  0  0  0  0  0  0  0
   59.6974   35.7186   44.3559 H   0  0  0  0  0  0  0  0  0  0  0  0
   59.3570   35.3050   46.4610 C   0  0  0  0  0  0  0  0  0  0  0  0
   59.7622   36.2718   46.7942 H   0  0  0  0  0  0  0  0  0  0  0  0
   58.8800   34.3850   47.4030 C   0  0  0  0  0  0  0  0  0  0  0  0
   58.9217   34.6250   48.4757 H   0  0  0  0  0  0  0  0  0  0  0  0
   58.3510   33.1620   46.9810 C   0  0  0  0  0  0  0  0  0  0  0  0
   57.9636   32.4469   47.7216 H   0  0  0  0  0  0  0  0  0  0  0  0
   59.9850   30.7740   48.3620 C   0  0  0  0  0  0  0  0  0  0  0  0
   59.5150   30.9230   49.6660 C   0  0  0  0  0  0  0  0  0  0  0  0
   58.4750   30.0960   50.3480 C   0  0  0  0  0  0  0  0  0  0  0  0
   58.5903   30.1877   51.4381 H   0  0  0  0  0  0  0  0  0  0  0  0
   57.4753   30.4486   50.0541 H   0  0  0  0  0  0  0  0  0  0  0  0
   58.5933   29.0426   50.0541 H   0  0  0  0  0  0  0  0  0  0  0  0
   60.1290   31.9680   50.2690 N   0  0  0  0  0  0  0  0  0  0  0  0
   60.9850   32.4180   49.3290 C   0  0  0  0  0  0  0  0  0  0  0  0
   61.8680   33.4850   49.4810 C   0  0  0  0  0  0  0  0  0  0  0  0
   61.9044   34.0648   50.4151 H   0  0  0  0  0  0  0  0  0  0  0  0
   62.7080   33.7940   48.4030 C   0  0  0  0  0  0  0  0  0  0  0  0
   63.4199   34.6284   48.4860 H   0  0  0  0  0  0  0  0  0  0  0  0
   62.6460   33.0430   47.2150 C   0  0  0  0  0  0  0  0  0  0  0  0
   63.3044   33.2889   46.3688 H   0  0  0  0  0  0  0  0  0  0  0  0
   61.7370   31.9770   47.1180 C   0  0  0  0  0  0  0  0  0  0  0  0
   61.6749   31.3706   46.2023 H   0  0  0  0  0  0  0  0  0  0  0  0
   60.9350   31.7130   48.1850 N   0  0  0  0  0  0  0  0  0  0  0  0
  1  2  1  0
  2  3  1  0
  3  4  1  6
  3  5  1  0
  5  6  2  0
  6  7  1  0
  7  8  1  0
  8  9  2  0
  8 10  1  0
 10 11  1  0
 10 12  1  0
 12 13  2  0
 13 14  1  0
 13 15  1  0
 15 16  1  0
 15 17  2  0
 17 18  1  0
 18 19  1  0
 19 20  1  0
 19 21  1  0
 19 22  1  0
 22 23  1  0
 22 24  1  0
 22 25  1  0
 17 26  1  0
 26 27  1  0
 26 28  2  0
 28 29  1  0
  7 30  2  0
 30 31  1  0
 30 32  1  0
 32 33  1  0
 33 34  1  0
 34 35  2  0
 35 36  1  0
 35 37  1  0
 37 38  1  0
 37 39  2  0
 39 40  1  0
 39 41  1  0
 41 42  1  0
 41 43  2  0
 43 44  1  0
  3 45  1  0
 45 46  2  0
 46 47  1  0
 47 48  1  0
 47 49  1  0
 47 50  1  0
 46 51  1  0
 51 52  2  0
 52 53  1  0
 53 54  1  0
 53 55  2  0
 55 56  1  0
 55 57  1  0
 57 58  1  0
 57 59  2  0
 59 60  1  0
 59 61  1  0
 33  6  1  0
 43 34  1  0
 61 45  1  0
 28 12  1  0
 61 52  1  0
M  CHG  1  32  -1
M  END
>  <UniqueID>  (37) 
35

>  <SMILES>  (37) 
CCOc1ccc(NC(=O)c2c[n-]n(-c3ccccc3)/c2=N/[C@H](O)c2c(C)nc3ccccn23)cc1

>  <Energy>  (37) 
150.30573597838736

>  <Genealogy>  (37) 
CCOc1ccc(NC(=O)c2c[n-]n(-c3ccccc3)c2=NC(O)c2c(C)nc3ccccn23)cc1 (protonated)
CCOc1ccc(NC(=O)c2c[n-]n(-c3ccccc3)c2=N[C@H](O)c2c(C)nc3ccccn23)cc1 (chirality)
CCOc1ccc(NC(=O)c2c[n-]n(-c3ccccc3)/c2=N/[C@H](O)c2c(C)nc3ccccn23)cc1 (cis-trans isomerization)
CCOc1ccc(NC(=O)c2c[n-]n(-c3ccccc3)/c2=N/[C@H](O)c2c(C)nc3ccccn23)cc1 (3D coordinates assigned)
CCOc1ccc(NC(=O)c2c[n-]n(-c3ccccc3)/c2=N/[C@H](O)c2c(C)nc3ccccn23)cc1 (optimized conformer: 150.30573597838736 kcal/mol)

>  <smiles>  (37) 
CCOc1ccc(NC(=O)c2c[nH]n(-c3ccccc3)c2=NC(O)c2c(C)nc3ccccn23)cc1

>  <score_type>  (37) 
oracle

>  <origin>  (37) 
adg

>  <m_score__min__energy>  (37) 
-9.9000000000000004

>  <m_primary>  (37) 
energy

$$$$
37:0
     RDKit          3D

 29 31  0  0  0  0  0  0  0  0999 V2000
   56.7670   30.4540   43.3640 C   0  0  0  0  0  0  0  0  0  0  0  0
   56.4500   31.2590   44.4960 O   0  0  0  0  0  0  0  0  0  0  0  0
   57.3950   31.7430   45.4120 C   0  0  0  0  0  0  0  0  0  0  0  0
   57.4820   33.1040   45.7620 C   0  0  0  0  0  0  0  0  0  0  0  0
   58.4430   33.5360   46.6800 C   0  0  0  0  0  0  0  0  0  0  0  0
   59.3420   32.6220   47.2540 C   0  0  0  0  0  0  0  0  0  0  0  0
   60.3380   33.0930   48.2400 C   0  0  0  0  0  0  0  0  0  0  0  0
   59.9360   33.4070   49.5070 N   0  0  0  0  0  0  0  0  0  0  0  0
   60.8220   33.8390   50.4530 C   0  0  0  0  0  0  0  0  0  0  0  0
   62.1400   33.9680   50.1360 N   0  0  0  0  0  0  0  0  0  0  0  0
   62.5330   33.6760   48.8990 N   0  0  0  0  0  0  0  0  0  0  0  0
   63.7660   33.7860   48.3780 C   0  0  0  0  0  0  0  0  0  0  0  0
   63.7090   33.4270   47.0380 C   0  0  0  0  0  0  0  0  0  0  0  0
   62.3880   33.0930   46.7540 C   0  0  0  0  0  0  0  0  0  0  0  0
   61.6980   33.2520   47.9430 C   0  0  0  0  0  0  0  0  0  0  0  0
   59.2390   31.2620   46.9190 C   0  0  0  0  0  0  0  0  0  0  0  0
   58.2780   30.8300   46.0000 C   0  0  0  0  0  0  0  0  0  0  0  0
   57.1505   29.4801   43.7024 H   0  0  0  0  0  0  0  0  0  0  0  0
   55.8619   30.3011   42.7578 H   0  0  0  0  0  0  0  0  0  0  0  0
   57.5333   30.9593   42.7578 H   0  0  0  0  0  0  0  0  0  0  0  0
   56.7903   33.8306   45.3108 H   0  0  0  0  0  0  0  0  0  0  0  0
   58.4958   34.5997   46.9551 H   0  0  0  0  0  0  0  0  0  0  0  0
   60.4719   34.0818   51.4672 H   0  0  0  0  0  0  0  0  0  0  0  0
   62.8250   34.3060   50.8510 H   0  0  0  0  0  0  0  0  0  0  0  0
   64.6677   34.1061   48.9207 H   0  0  0  0  0  0  0  0  0  0  0  0
   64.5519   33.4097   46.3315 H   0  0  0  0  0  0  0  0  0  0  0  0
   61.9778   32.7699   45.7859 H   0  0  0  0  0  0  0  0  0  0  0  0
   59.9188   30.5320   47.3826 H   0  0  0  0  0  0  0  0  0  0  0  0
   58.2154   29.7638   45.7369 H   0  0  0  0  0  0  0  0  0  0  0  0
  1  2  1  0
  2  3  1  0
  3  4  2  0
  4  5  1  0
  5  6  2  0
  6  7  1  0
  7  8  2  0
  8  9  1  0
  9 10  2  0
 10 11  1  0
 11 12  1  0
 12 13  2  0
 13 14  1  0
 14 15  2  0
  6 16  1  0
 16 17  2  0
 17  3  1  0
 15  7  1  0
 15 11  1  0
  1 18  1  0
  1 19  1  0
  1 20  1  0
  4 21  1  0
  5 22  1  0
  9 23  1  0
 10 24  1  0
 12 25  1  0
 13 26  1  0
 14 27  1  0
 16 28  1  0
 17 29  1  0
M  CHG  1  10   1
M  END
>  <UniqueID>  (38) 
36

>  <SMILES>  (38) 
COc1ccc(-c2nc[nH+]n3cccc23)cc1

>  <Energy>  (38) 
69.57571438707718

>  <Genealogy>  (38) 
COc1ccc(-c2nc[nH+]n3cccc23)cc1 (protonated)
COc1ccc(-c2nc[nH+]n3cccc23)cc1 (3D coordinates assigned)
COc1ccc(-c2nc[nH+]n3cccc23)cc1 (optimized conformer: 69.57571438707718 kcal/mol)

>  <smiles>  (38) 
COc1ccc(-c2ncnn3cccc23)cc1

>  <score_type>  (38) 
oracle

>  <origin>  (38) 
adg

>  <m_score__min__energy>  (38) 
-4.6500000000000004

>  <m_primary>  (38) 
energy

$$$$
38:0
     RDKit          3D

 48 50  0  0  0  0  0  0  0  0999 V2000
   64.3280   31.9790   50.0150 C   0  0  0  0  0  0  0  0  0  0  0  0
   64.1740   32.9610   48.9960 O   0  0  0  0  0  0  0  0  0  0  0  0
   62.9370   33.4290   48.5270 C   0  0  0  0  0  0  0  0  0  0  0  0
   61.9160   33.8570   49.3960 C   0  0  0  0  0  0  0  0  0  0  0  0
   60.6960   34.3080   48.8820 C   0  0  0  0  0  0  0  0  0  0  0  0
   60.4630   34.3080   47.4970 C   0  0  0  0  0  0  0  0  0  0  0  0
   59.1580   34.8280   46.9420 C   0  0  0  0  0  0  0  0  0  0  0  0
   58.0570   33.8310   46.8520 N   0  0  0  0  0  0  0  0  0  0  0  0
   57.7020   33.4110   45.4720 C   0  0  0  0  0  0  0  0  0  0  0  0
   58.4660   32.1790   44.9720 C   0  0  0  0  0  0  0  0  0  0  0  0
   58.4630   31.1300   45.9840 N   0  0  0  0  0  0  0  0  0  0  0  0
   58.5900   29.7670   45.5610 C   0  0  0  0  0  0  0  0  0  0  0  0
   59.8330   29.1300   45.6610 C   0  0  0  0  0  0  0  0  0  0  0  0
   59.9780   27.8030   45.2530 C   0  0  0  0  0  0  0  0  0  0  0  0
   58.8830   27.1050   44.7430 C   0  0  0  0  0  0  0  0  0  0  0  0
   57.6380   27.7320   44.6380 C   0  0  0  0  0  0  0  0  0  0  0  0
   57.4790   29.0710   45.0480 C   0  0  0  0  0  0  0  0  0  0  0  0
   56.2460   29.7380   44.9600 O   0  0  0  0  0  0  0  0  0  0  0  0
   55.5930   30.0680   43.7400 C   0  0  0  0  0  0  0  0  0  0  0  0
   58.8970   31.4850   47.3290 C   0  0  0  0  0  0  0  0  0  0  0  0
   58.1350   32.7180   47.8330 C   0  0  0  0  0  0  0  0  0  0  0  0
   61.5000   33.9230   46.6330 C   0  0  0  0  0  0  0  0  0  0  0  0
   62.7200   33.4730   47.1450 C   0  0  0  0  0  0  0  0  0  0  0  0
   63.6980   33.0790   46.2920 F   0  0  0  0  0  0  0  0  0  0  0  0
   64.2527   32.4595   51.0016 H   0  0  0  0  0  0  0  0  0  0  0  0
   63.5379   31.2202   49.9154 H   0  0  0  0  0  0  0  0  0  0  0  0
   65.3125   31.4985   49.9154 H   0  0  0  0  0  0  0  0  0  0  0  0
   62.0782   33.8367   50.4838 H   0  0  0  0  0  0  0  0  0  0  0  0
   59.9133   34.6653   49.5674 H   0  0  0  0  0  0  0  0  0  0  0  0
   58.8184   35.6503   47.5889 H   0  0  0  0  0  0  0  0  0  0  0  0
   59.3713   35.1362   45.9078 H   0  0  0  0  0  0  0  0  0  0  0  0
   57.2240   34.3860   47.1680 H   0  0  0  0  0  0  0  0  0  0  0  0
   56.6262   33.1829   45.4471 H   0  0  0  0  0  0  0  0  0  0  0  0
   57.9775   34.2438   44.8082 H   0  0  0  0  0  0  0  0  0  0  0  0
   57.9848   31.8012   44.0578 H   0  0  0  0  0  0  0  0  0  0  0  0
   59.5066   32.4672   44.7619 H   0  0  0  0  0  0  0  0  0  0  0  0
   60.6985   29.6774   46.0626 H   0  0  0  0  0  0  0  0  0  0  0  0
   60.9566   27.3071   45.3337 H   0  0  0  0  0  0  0  0  0  0  0  0
   58.9995   26.0591   44.4228 H   0  0  0  0  0  0  0  0  0  0  0  0
   56.7783   27.1777   44.2334 H   0  0  0  0  0  0  0  0  0  0  0  0
   54.6309   30.5542   43.9589 H   0  0  0  0  0  0  0  0  0  0  0  0
   56.2267   30.7541   43.1589 H   0  0  0  0  0  0  0  0  0  0  0  0
   55.4165   29.1509   43.1589 H   0  0  0  0  0  0  0  0  0  0  0  0
   58.7052   30.6395   48.0060 H   0  0  0  0  0  0  0  0  0  0  0  0
   59.9721   31.7167   47.3058 H   0  0  0  0  0  0  0  0  0  0  0  0
   57.1100   32.4097   48.0867 H   0  0  0  0  0  0  0  0  0  0  0  0
   58.6930   33.1007   48.7003 H   0  0  0  0  0  0  0  0  0  0  0  0
   61.3513   33.9759   45.5444 H   0  0  0  0  0  0  0  0  0  0  0  0
  1  2  1  0
  2  3  1  0
  3  4  2  0
  4  5  1  0
  5  6  2  0
  6  7  1  0
  7  8  1  0
  8  9  1  0
  9 10  1  0
 10 11  1  0
 11 12  1  0
 12 13  2  0
 13 14  1  0
 14 15  2  0
 15 16  1  0
 16 17  2  0
 17 18  1  0
 18 19  1  0
 11 20  1  0
 20 21  1  0
  6 22  1  0
 22 23  2  0
 23 24  1  0
 23  3  1  0
 21  8  1  0
 17 12  1  0
  1 25  1  0
  1 26  1  0
  1 27  1  0
  4 28  1  0
  5 29  1  0
  7 30  1  0
  7 31  1  0
  8 32  1  0
  9 33  1  0
  9 34  1  0
 10 35  1  0
 10 36  1  0
 13 37  1  0
 14 38  1  0
 15 39  1  0
 16 40  1  0
 19 41  1  0
 19 42  1  0
 19 43  1  0
 20 44  1  0
 20 45  1  0
 21 46  1  0
 21 47  1  0
 22 48  1  0
M  CHG  1   8   1
M  END
>  <UniqueID>  (39) 
37

>  <SMILES>  (39) 
COc1ccc(C[NH+]2CCN(c3ccccc3OC)CC2)cc1F

>  <Energy>  (39) 
62.381785645189076

>  <Genealogy>  (39) 
COc1ccc(C[NH+]2CCN(c3ccccc3OC)CC2)cc1F (protonated)
COc1ccc(C[NH+]2CCN(c3ccccc3OC)CC2)cc1F (3D coordinates assigned)
COc1ccc(C[NH+]2CCN(c3ccccc3OC)CC2)cc1F (nonaromatic ring conformer: 62.381785645189076 kcal/mol)

>  <smiles>  (39) 
COc1ccc(CN2CCN(c3ccccc3OC)CC2)cc1F

>  <score_type>  (39) 
oracle

>  <origin>  (39) 
adg

>  <m_score__min__energy>  (39) 
-5.8600000000000003

>  <m_primary>  (39) 
energy

$$$$
39:0
     RDKit          3D

 28 29  0  0  0  0  0  0  0  0999 V2000
   58.0870   27.4430   47.0640 C   0  0  0  0  0  0  0  0  0  0  0  0
   57.0490   27.3190   46.0280 N   0  0  0  0  0  0  0  0  0  0  0  0
   56.7210   25.9060   45.7800 C   0  0  0  0  0  0  0  0  0  0  0  0
   57.4070   28.0390   44.7860 C   0  0  0  0  0  0  0  0  0  0  0  0
   57.2810   29.5320   44.9040 C   0  0  0  0  0  0  0  0  0  0  0  0
   58.2820   30.3460   45.2920 N   0  0  0  0  0  0  0  0  0  0  0  0
   57.6750   31.5520   45.2560 C   0  0  0  0  0  0  0  0  0  0  0  0
   58.3460   32.8220   45.6050 C   0  0  0  0  0  0  0  0  0  0  0  0
   58.7130   33.0920   46.9360 C   0  0  0  0  0  0  0  0  0  0  0  0
   59.3480   34.2950   47.2630 C   0  0  0  0  0  0  0  0  0  0  0  0
   59.6220   35.2370   46.2690 C   0  0  0  0  0  0  0  0  0  0  0  0
   59.2610   34.9780   44.9440 C   0  0  0  0  0  0  0  0  0  0  0  0
   58.6260   33.7780   44.6110 C   0  0  0  0  0  0  0  0  0  0  0  0
   56.3850   31.4650   44.8710 N   0  0  0  0  0  0  0  0  0  0  0  0
   56.1800   30.2010   44.6630 O   0  0  0  0  0  0  0  0  0  0  0  0
   57.6207   27.3873   48.0587 H   0  0  0  0  0  0  0  0  0  0  0  0
   58.8146   26.6254   46.9538 H   0  0  0  0  0  0  0  0  0  0  0  0
   58.6015   28.4090   46.9538 H   0  0  0  0  0  0  0  0  0  0  0  0
   56.5998   25.3837   46.7405 H   0  0  0  0  0  0  0  0  0  0  0  0
   55.7842   25.8421   45.2071 H   0  0  0  0  0  0  0  0  0  0  0  0
   57.5339   25.4360   45.2071 H   0  0  0  0  0  0  0  0  0  0  0  0
   58.4489   27.7962   44.5302 H   0  0  0  0  0  0  0  0  0  0  0  0
   56.7011   27.7141   44.0074 H   0  0  0  0  0  0  0  0  0  0  0  0
   58.4997   32.3539   47.7232 H   0  0  0  0  0  0  0  0  0  0  0  0
   59.6322   34.4994   48.3058 H   0  0  0  0  0  0  0  0  0  0  0  0
   60.1215   36.1820   46.5288 H   0  0  0  0  0  0  0  0  0  0  0  0
   59.4770   35.7201   44.1613 H   0  0  0  0  0  0  0  0  0  0  0  0
   58.3437   33.5799   43.5665 H   0  0  0  0  0  0  0  0  0  0  0  0
  1  2  1  0
  2  3  1  0
  2  4  1  0
  4  5  1  0
  5  6  2  0
  6  7  1  0
  7  8  1  0
  8  9  2  0
  9 10  1  0
 10 11  2  0
 11 12  1  0
 12 13  2  0
  7 14  2  0
 14 15  1  0
 15  5  1  0
 13  8  1  0
  1 16  1  0
  1 17  1  0
  1 18  1  0
  3 19  1  0
  3 20  1  0
  3 21  1  0
  4 22  1  0
  4 23  1  0
  9 24  1  0
 10 25  1  0
 11 26  1  0
 12 27  1  0
 13 28  1  0
M  END
>  <UniqueID>  (40) 
38

>  <SMILES>  (40) 
CN(C)Cc1nc(-c2ccccc2)no1

>  <Energy>  (40) 
62.50095756959133

>  <Genealogy>  (40) 
CN(C)Cc1nc(-c2ccccc2)no1 (3D coordinates assigned)
CN(C)Cc1nc(-c2ccccc2)no1 (optimized conformer: 62.50095756959133 kcal/mol)

>  <smiles>  (40) 
CN(C)Cc1nc(-c2ccccc2)no1

>  <score_type>  (40) 
oracle

>  <origin>  (40) 
adg

>  <m_score__min__energy>  (40) 
-6.29

>  <m_primary>  (40) 
energy

$$$$
40:0
     RDKit          3D

 54 57  0  0  0  0  0  0  0  0999 V2000
   57.7820   32.2850   42.7590 C   0  0  0  0  0  0  0  0  0  0  0  0
   57.4070   33.2420   43.7440 O   0  0  0  0  0  0  0  0  0  0  0  0
   58.1330   33.5030   44.9170 C   0  0  0  0  0  0  0  0  0  0  0  0
   57.6330   33.0220   46.1290 C   0  0  0  0  0  0  0  0  0  0  0  0
   58.3250   33.2390   47.3260 C   0  0  0  0  0  0  0  0  0  0  0  0
   59.5460   33.9430   47.3280 C   0  0  0  0  0  0  0  0  0  0  0  0
   60.3250   34.0850   48.5410 N   0  0  0  0  0  0  0  0  0  0  0  0
   61.7880   33.9900   48.4970 C   0  0  0  0  0  0  0  0  0  0  0  0
   62.3660   33.4880   49.8390 C   0  0  0  0  0  0  0  0  0  0  0  0
   61.4870   32.5210   50.5510 N   0  0  0  0  0  0  0  0  0  0  0  0
   61.6070   31.1640   50.0380 C   0  0  0  0  0  0  0  0  0  0  0  0
   62.3680   30.3440   50.6210 O   0  0  0  0  0  0  0  0  0  0  0  0
   60.8290   30.6850   48.8810 C   0  0  0  0  0  0  0  0  0  0  0  0
   61.3180   30.8460   47.5800 C   0  0  0  0  0  0  0  0  0  0  0  0
   60.6360   30.2870   46.4970 C   0  0  0  0  0  0  0  0  0  0  0  0
   59.4350   29.5790   46.6960 C   0  0  0  0  0  0  0  0  0  0  0  0
   58.7690   28.9200   45.5980 N   0  0  0  0  0  0  0  0  0  0  0  0
   59.2660   27.7120   44.9510 C   0  0  0  0  0  0  0  0  0  0  0  0
   58.4230   27.5160   43.6730 C   0  0  0  0  0  0  0  0  0  0  0  0
   57.3780   28.6400   43.6360 C   0  0  0  0  0  0  0  0  0  0  0  0
   57.6620   29.4160   44.8590 C   0  0  0  0  0  0  0  0  0  0  0  0
   56.9450   30.3830   45.2360 O   0  0  0  0  0  0  0  0  0  0  0  0
   58.9130   29.4800   48.0000 C   0  0  0  0  0  0  0  0  0  0  0  0
   59.5980   30.0420   49.0820 C   0  0  0  0  0  0  0  0  0  0  0  0
   60.0600   32.9430   50.6840 C   0  0  0  0  0  0  0  0  0  0  0  0
   59.7060   34.1900   49.8630 C   0  0  0  0  0  0  0  0  0  0  0  0
   60.0350   34.4430   46.1080 C   0  0  0  0  0  0  0  0  0  0  0  0
   59.3400   34.2250   44.9150 C   0  0  0  0  0  0  0  0  0  0  0  0
   58.1404   31.3704   43.2541 H   0  0  0  0  0  0  0  0  0  0  0  0
   56.9115   32.0449   42.1309 H   0  0  0  0  0  0  0  0  0  0  0  0
   58.5839   32.7002   42.1309 H   0  0  0  0  0  0  0  0  0  0  0  0
   56.6840   32.4660   46.1430 H   0  0  0  0  0  0  0  0  0  0  0  0
   57.9130   32.8574   48.2719 H   0  0  0  0  0  0  0  0  0  0  0  0
   62.0764   33.2892   47.6997 H   0  0  0  0  0  0  0  0  0  0  0  0
   62.1923   34.9944   48.3025 H   0  0  0  0  0  0  0  0  0  0  0  0
   63.3299   32.9972   49.6388 H   0  0  0  0  0  0  0  0  0  0  0  0
   62.4670   34.3676   50.4917 H   0  0  0  0  0  0  0  0  0  0  0  0
   61.8730   32.4850   51.5260 H   0  0  0  0  0  0  0  0  0  0  0  0
   62.2436   31.4153   47.4094 H   0  0  0  0  0  0  0  0  0  0  0  0
   61.0402   30.4007   45.4803 H   0  0  0  0  0  0  0  0  0  0  0  0
   60.3280   27.8308   44.6903 H   0  0  0  0  0  0  0  0  0  0  0  0
   59.1818   26.8418   45.6185 H   0  0  0  0  0  0  0  0  0  0  0  0
   59.0686   27.5733   42.7842 H   0  0  0  0  0  0  0  0  0  0  0  0
   57.9339   26.5307   43.6774 H   0  0  0  0  0  0  0  0  0  0  0  0
   57.5021   29.2627   42.7377 H   0  0  0  0  0  0  0  0  0  0  0  0
   56.3452   28.2633   43.5982 H   0  0  0  0  0  0  0  0  0  0  0  0
   57.9600   28.9571   48.1688 H   0  0  0  0  0  0  0  0  0  0  0  0
   59.1706   29.9798   50.0936 H   0  0  0  0  0  0  0  0  0  0  0  0
   59.4200   32.1135   50.3489 H   0  0  0  0  0  0  0  0  0  0  0  0
   59.8976   33.1979   51.7417 H   0  0  0  0  0  0  0  0  0  0  0  0
   58.6138   34.2611   49.7536 H   0  0  0  0  0  0  0  0  0  0  0  0
   60.0781   35.0891   50.3759 H   0  0  0  0  0  0  0  0  0  0  0  0
   60.9759   35.0126   46.0923 H   0  0  0  0  0  0  0  0  0  0  0  0
   59.7393   34.6203   43.9693 H   0  0  0  0  0  0  0  0  0  0  0  0
  1  2  1  0
  2  3  1  0
  3  4  2  0
  4  5  1  0
  5  6  2  0
  6  7  1  0
  7  8  1  0
  8  9  1  0
  9 10  1  0
 10 11  1  0
 11 12  2  0
 11 13  1  0
 13 14  2  0
 14 15  1  0
 15 16  2  0
 16 17  1  0
 17 18  1  0
 18 19  1  0
 19 20  1  0
 20 21  1  0
 21 22  2  0
 16 23  1  0
 23 24  2  0
 10 25  1  0
 25 26  1  0
  6 27  1  0
 27 28  2  0
 28  3  1  0
 26  7  1  0
 24 13  1  0
 21 17  1  0
  1 29  1  0
  1 30  1  0
  1 31  1  0
  4 32  1  0
  5 33  1  0
  8 34  1  0
  8 35  1  0
  9 36  1  0
  9 37  1  0
 10 38  1  0
 14 39  1  0
 15 40  1  0
 18 41  1  0
 18 42  1  0
 19 43  1  0
 19 44  1  0
 20 45  1  0
 20 46  1  0
 23 47  1  0
 24 48  1  0
 25 49  1  0
 25 50  1  0
 26 51  1  0
 26 52  1  0
 27 53  1  0
 28 54  1  0
M  CHG  1  10   1
M  END
>  <UniqueID>  (41) 
39

>  <SMILES>  (41) 
COc1ccc(N2CC[NH+](C(=O)c3ccc(N4CCCC4=O)cc3)CC2)cc1

>  <Energy>  (41) 
85.96802176079365

>  <Genealogy>  (41) 
COc1ccc(N2CC[NH+](C(=O)c3ccc(N4CCCC4=O)cc3)CC2)cc1 (protonated)
COc1ccc(N2CC[NH+](C(=O)c3ccc(N4CCCC4=O)cc3)CC2)cc1 (3D coordinates assigned)
COc1ccc(N2CC[NH+](C(=O)c3ccc(N4CCCC4=O)cc3)CC2)cc1 (nonaromatic ring conformer: 85.96802176079365 kcal/mol)

>  <smiles>  (41) 
COc1ccc(N2CCN(C(=O)c3ccc(N4CCCC4=O)cc3)CC2)cc1

>  <score_type>  (41) 
oracle

>  <origin>  (41) 
adg

>  <m_score__min__energy>  (41) 
-7.8700000000000001

>  <m_primary>  (41) 
energy

$$$$
41:0
     RDKit          3D

 36 38  0  0  0  0  0  0  0  0999 V2000
   55.0780   29.8550   43.3120 O   0  0  0  0  0  0  0  0  0  0  0  0
   55.9370   29.8900   44.2340 C   0  0  0  0  0  0  0  0  0  0  0  0
   55.9320   28.8880   45.2610 N   0  0  0  0  0  0  0  0  0  0  0  0
   56.8400   27.7830   45.3870 C   0  0  0  0  0  0  0  0  0  0  0  0
   58.2180   27.9310   45.1320 C   0  0  0  0  0  0  0  0  0  0  0  0
   59.0860   26.8460   45.2860 C   0  0  0  0  0  0  0  0  0  0  0  0
   58.5930   25.6100   45.7070 C   0  0  0  0  0  0  0  0  0  0  0  0
   57.2330   25.4580   45.9850 C   0  0  0  0  0  0  0  0  0  0  0  0
   56.3550   26.5380   45.8350 C   0  0  0  0  0  0  0  0  0  0  0  0
   55.0040   26.3500   46.1300 O   0  0  0  0  0  0  0  0  0  0  0  0
   56.9200   30.9980   44.2860 C   0  0  0  0  0  0  0  0  0  0  0  0
   57.3270   31.6500   43.1080 C   0  0  0  0  0  0  0  0  0  0  0  0
   58.2440   32.7030   43.1620 C   0  0  0  0  0  0  0  0  0  0  0  0
   58.7720   33.1130   44.3880 C   0  0  0  0  0  0  0  0  0  0  0  0
   58.3980   32.4570   45.5710 C   0  0  0  0  0  0  0  0  0  0  0  0
   58.9010   32.8720   46.8500 N   0  0  0  0  0  0  0  0  0  0  0  0
   60.0260   32.3120   47.5370 C   0  0  0  0  0  0  0  0  0  0  0  0
   59.8310   31.3950   48.3780 O   0  0  0  0  0  0  0  0  0  0  0  0
   61.4070   32.7290   47.2300 C   0  0  0  0  0  0  0  0  0  0  0  0
   61.7690   33.8270   46.4750 C   0  0  0  0  0  0  0  0  0  0  0  0
   63.1470   33.8330   46.4640 C   0  0  0  0  0  0  0  0  0  0  0  0
   63.5410   32.7440   47.2150 C   0  0  0  0  0  0  0  0  0  0  0  0
   62.4810   32.1070   47.6590 O   0  0  0  0  0  0  0  0  0  0  0  0
   57.4580   31.4190   45.5170 C   0  0  0  0  0  0  0  0  0  0  0  0
   58.6129   28.9058   44.8099 H   0  0  0  0  0  0  0  0  0  0  0  0
   60.1588   26.9666   45.0751 H   0  0  0  0  0  0  0  0  0  0  0  0
   59.2761   24.7552   45.8199 H   0  0  0  0  0  0  0  0  0  0  0  0
   56.8495   24.4843   46.3237 H   0  0  0  0  0  0  0  0  0  0  0  0
   54.3860   27.1190   46.3570 H   0  0  0  0  0  0  0  0  0  0  0  0
   56.9206   31.3288   42.1376 H   0  0  0  0  0  0  0  0  0  0  0  0
   58.5510   33.2106   42.2357 H   0  0  0  0  0  0  0  0  0  0  0  0
   59.4825   33.9519   44.4266 H   0  0  0  0  0  0  0  0  0  0  0  0
   61.0973   34.5469   45.9845 H   0  0  0  0  0  0  0  0  0  0  0  0
   63.8009   34.5590   45.9588 H   0  0  0  0  0  0  0  0  0  0  0  0
   64.5836   32.4536   47.4118 H   0  0  0  0  0  0  0  0  0  0  0  0
   57.1368   30.9275   46.4472 H   0  0  0  0  0  0  0  0  0  0  0  0
  1  2  2  0
  2  3  1  0
  3  4  1  0
  4  5  2  0
  5  6  1  0
  6  7  2  0
  7  8  1  0
  8  9  2  0
  9 10  1  0
  2 11  1  0
 11 12  2  0
 12 13  1  0
 13 14  2  0
 14 15  1  0
 15 16  1  0
 16 17  1  0
 17 18  2  0
 17 19  1  0
 19 20  2  0
 20 21  1  0
 21 22  2  0
 22 23  1  0
 15 24  2  0
  9  4  1  0
 24 11  1  0
 23 19  1  0
  5 25  1  0
  6 26  1  0
  7 27  1  0
  8 28  1  0
 10 29  1  0
 12 30  1  0
 13 31  1  0
 14 32  1  0
 20 33  1  0
 21 34  1  0
 22 35  1  0
 24 36  1  0
M  CHG  2   3  -1  16  -1
M  END
>  <UniqueID>  (42) 
40

>  <SMILES>  (42) 
O=C([N-]c1ccccc1O)c1cccc([N-]C(=O)c2ccco2)c1

>  <Energy>  (42) 
73.82663669230593

>  <Genealogy>  (42) 
O=C([N-]c1ccccc1O)c1cccc([N-]C(=O)c2ccco2)c1 (protonated)
O=C([N-]c1ccccc1O)c1cccc([N-]C(=O)c2ccco2)c1 (3D coordinates assigned)
O=C([N-]c1ccccc1O)c1cccc([N-]C(=O)c2ccco2)c1 (optimized conformer: 73.82663669230593 kcal/mol)

>  <smiles>  (42) 
O=C(Nc1ccccc1O)c1cccc(NC(=O)c2ccco2)c1

>  <score_type>  (42) 
oracle

>  <origin>  (42) 
adg

>  <m_score__min__energy>  (42) 
-11.6

>  <m_primary>  (42) 
energy

$$$$
42:0
     RDKit          3D

 36 38  0  0  0  0  0  0  0  0999 V2000
   56.6530   26.2970   45.9760 C   0  0  0  0  0  0  0  0  0  0  0  0
   55.9330   27.4710   45.6130 O   0  0  0  0  0  0  0  0  0  0  0  0
   56.5100   28.5970   45.0070 C   0  0  0  0  0  0  0  0  0  0  0  0
   55.6720   29.4900   44.3300 C   0  0  0  0  0  0  0  0  0  0  0  0
   56.1980   30.6280   43.7120 C   0  0  0  0  0  0  0  0  0  0  0  0
   57.5750   30.8940   43.7700 C   0  0  0  0  0  0  0  0  0  0  0  0
   58.1370   32.1200   43.0990 C   0  0  0  0  0  0  0  0  0  0  0  0
   57.8100   33.3250   43.8640 N   0  0  0  0  0  0  0  0  0  0  0  0
   58.4140   33.6810   45.1230 C   0  0  0  0  0  0  0  0  0  0  0  0
   59.2420   34.8250   45.2590 C   0  0  0  0  0  0  0  0  0  0  0  0
   59.8260   35.1490   46.4950 C   0  0  0  0  0  0  0  0  0  0  0  0
   59.5740   34.3290   47.5920 C   0  0  0  0  0  0  0  0  0  0  0  0
   60.0830   34.5310   48.8350 N   0  0  0  0  0  0  0  0  0  0  0  0
   59.6540   33.5750   49.6940 C   0  0  0  0  0  0  0  0  0  0  0  0
   60.0970   33.4970   51.1150 C   0  0  0  0  0  0  0  0  0  0  0  0
   58.6570   32.4320   48.9410 S   0  0  0  0  0  0  0  0  0  0  0  0
   58.7620   33.2160   47.4610 C   0  0  0  0  0  0  0  0  0  0  0  0
   58.1720   32.8690   46.2500 C   0  0  0  0  0  0  0  0  0  0  0  0
   58.4200   29.9940   44.4380 C   0  0  0  0  0  0  0  0  0  0  0  0
   57.8930   28.8560   45.0560 C   0  0  0  0  0  0  0  0  0  0  0  0
   56.7002   26.2201   47.0723 H   0  0  0  0  0  0  0  0  0  0  0  0
   56.1418   25.4125   45.5680 H   0  0  0  0  0  0  0  0  0  0  0  0
   57.6731   26.3516   45.5680 H   0  0  0  0  0  0  0  0  0  0  0  0
   54.5904   29.2948   44.2838 H   0  0  0  0  0  0  0  0  0  0  0  0
   55.5294   31.3187   43.1774 H   0  0  0  0  0  0  0  0  0  0  0  0
   59.2304   32.0233   43.0277 H   0  0  0  0  0  0  0  0  0  0  0  0
   57.6951   32.2076   42.0955 H   0  0  0  0  0  0  0  0  0  0  0  0
   57.0530   33.9390   43.4840 H   0  0  0  0  0  0  0  0  0  0  0  0
   59.4292   35.4666   44.3853 H   0  0  0  0  0  0  0  0  0  0  0  0
   60.4708   36.0346   46.5945 H   0  0  0  0  0  0  0  0  0  0  0  0
   59.2322   33.6493   51.7776 H   0  0  0  0  0  0  0  0  0  0  0  0
   60.5371   32.5075   51.3081 H   0  0  0  0  0  0  0  0  0  0  0  0
   60.8486   34.2766   51.3081 H   0  0  0  0  0  0  0  0  0  0  0  0
   57.5298   31.9793   46.1732 H   0  0  0  0  0  0  0  0  0  0  0  0
   59.5026   30.1851   44.4755 H   0  0  0  0  0  0  0  0  0  0  0  0
   58.5620   28.1598   45.5830 H   0  0  0  0  0  0  0  0  0  0  0  0
  1  2  1  0
  2  3  1  0
  3  4  2  0
  4  5  1  0
  5  6  2  0
  6  7  1  0
  7  8  1  0
  8  9  1  0
  9 10  2  0
 10 11  1  0
 11 12  2  0
 12 13  1  0
 13 14  2  0
 14 15  1  0
 14 16  1  0
 16 17  1  0
 17 18  2  0
  6 19  1  0
 19 20  2  0
 20  3  1  0
 18  9  1  0
 17 12  1  0
  1 21  1  0
  1 22  1  0
  1 23  1  0
  4 24  1  0
  5 25  1  0
  7 26  1  0
  7 27  1  0
  8 28  1  0
 10 29  1  0
 11 30  1  0
 15 31  1  0
 15 32  1  0
 15 33  1  0
 18 34  1  0
 19 35  1  0
 20 36  1  0
M  END
>  <UniqueID>  (43) 
41

>  <SMILES>  (43) 
COc1ccc(CNc2ccc3nc(C)sc3c2)cc1

>  <Energy>  (43) 
69.41824709260116

>  <Genealogy>  (43) 
COc1ccc(CNc2ccc3nc(C)sc3c2)cc1 (3D coordinates assigned)
COc1ccc(CNc2ccc3nc(C)sc3c2)cc1 (optimized conformer: 69.41824709260116 kcal/mol)

>  <smiles>  (43) 
COc1ccc(CNc2ccc3nc(C)sc3c2)cc1

>  <score_type>  (43) 
oracle

>  <origin>  (43) 
adg

>  <m_score__min__energy>  (43) 
-7.1799999999999997

>  <m_primary>  (43) 
energy

$$$$
43:0
     RDKit          3D

 52 56  0  0  0  0  0  0  0  0999 V2000
   60.2475   28.6109   49.4932 H   0  0  0  0  0  0  0  0  0  0  0  0
   59.9220   28.8410   48.4680 C   0  0  0  0  0  0  0  0  0  0  0  0
   59.9620   30.1160   48.0650 C   0  0  0  0  0  0  0  0  0  0  0  0
   60.4538   30.3756   47.1159 H   0  0  0  0  0  0  0  0  0  0  0  0
   59.3340   31.2010   48.9090 C   0  0  1  0  0  0  0  0  0  0  0  0
   59.1211   30.4976   49.7275 H   0  0  0  0  0  0  0  0  0  0  0  0
   59.9330   32.6080   48.7880 C   0  0  1  0  0  0  0  0  0  0  0  0
   60.3708   33.3150   49.5080 H   0  0  0  0  0  0  0  0  0  0  0  0
   61.0480   32.8930   47.8070 C   0  0  0  0  0  0  0  0  0  0  0  0
   62.5710   32.1630   47.7860 S   0  0  0  0  0  0  0  0  0  0  0  0
   63.1640   33.2760   46.6740 C   0  0  0  0  0  0  0  0  0  0  0  0
   64.1732   33.2513   46.2371 H   0  0  0  0  0  0  0  0  0  0  0  0
   62.2250   34.2040   46.3940 N   0  0  0  0  0  0  0  0  0  0  0  0
   61.0730   34.0030   47.0330 N   0  0  0  0  0  0  0  0  0  0  0  0
   60.2890   34.6890   46.9780 H   0  0  0  0  0  0  0  0  0  0  0  0
   58.5250   32.3210   48.2300 C   0  0  1  0  0  0  0  0  0  0  0  0
   57.5443   32.7997   48.3685 H   0  0  0  0  0  0  0  0  0  0  0  0
   58.2750   32.1990   46.7400 C   0  0  0  0  0  0  0  0  0  0  0  0
   57.7730   31.0040   46.1980 C   0  0  0  0  0  0  0  0  0  0  0  0
   57.6250   30.1290   46.8480 H   0  0  0  0  0  0  0  0  0  0  0  0
   57.4690   30.9220   44.8760 N   0  0  0  0  0  0  0  0  0  0  0  0
   57.5920   31.9930   44.0430 C   0  0  0  0  0  0  0  0  0  0  0  0
   57.2840   31.8830   42.6840 O   0  0  0  0  0  0  0  0  0  0  0  0
   58.1510   32.3490   41.6570 C   0  0  0  0  0  0  0  0  0  0  0  0
   59.0340   32.8236   42.1099 H   0  0  0  0  0  0  0  0  0  0  0  0
   58.4699   31.5008   41.0335 H   0  0  0  0  0  0  0  0  0  0  0  0
   57.6195   33.0830   41.0335 H   0  0  0  0  0  0  0  0  0  0  0  0
   58.0160   33.2200   44.5550 C   0  0  0  0  0  0  0  0  0  0  0  0
   58.1027   34.0959   43.8952 H   0  0  0  0  0  0  0  0  0  0  0  0
   58.3290   33.3270   45.9100 C   0  0  0  0  0  0  0  0  0  0  0  0
   58.6197   34.3015   46.3292 H   0  0  0  0  0  0  0  0  0  0  0  0
   59.4640   27.7200   47.6120 C   0  0  0  0  0  0  0  0  0  0  0  0
   60.3260   26.6950   47.1770 C   0  0  0  0  0  0  0  0  0  0  0  0
   61.3863   26.7131   47.4692 H   0  0  0  0  0  0  0  0  0  0  0  0
   59.8450   25.6550   46.3770 C   0  0  0  0  0  0  0  0  0  0  0  0
   60.5322   24.8657   46.0383 H   0  0  0  0  0  0  0  0  0  0  0  0
   58.4910   25.6080   46.0010 C   0  0  0  0  0  0  0  0  0  0  0  0
   57.9820   24.5020   45.1510 C   0  0  0  0  0  0  0  0  0  0  0  0
   58.4920   23.1970   45.2950 C   0  0  0  0  0  0  0  0  0  0  0  0
   59.2744   22.9953   46.0414 H   0  0  0  0  0  0  0  0  0  0  0  0
   58.0100   22.1560   44.4950 C   0  0  0  0  0  0  0  0  0  0  0  0
   58.4129   21.1395   44.6150 H   0  0  0  0  0  0  0  0  0  0  0  0
   57.0180   22.4050   43.5440 C   0  0  0  0  0  0  0  0  0  0  0  0
   56.6408   21.5849   42.9153 H   0  0  0  0  0  0  0  0  0  0  0  0
   56.5050   23.6940   43.3910 C   0  0  0  0  0  0  0  0  0  0  0  0
   55.7232   23.8883   42.6420 H   0  0  0  0  0  0  0  0  0  0  0  0
   56.9830   24.7390   44.1880 C   0  0  0  0  0  0  0  0  0  0  0  0
   56.5756   25.7529   44.0615 H   0  0  0  0  0  0  0  0  0  0  0  0
   57.6280   26.6220   46.4500 C   0  0  0  0  0  0  0  0  0  0  0  0
   56.5645   26.5962   46.1702 H   0  0  0  0  0  0  0  0  0  0  0  0
   58.1090   27.6630   47.2490 C   0  0  0  0  0  0  0  0  0  0  0  0
   57.4188   28.4457   47.5970 H   0  0  0  0  0  0  0  0  0  0  0  0
  1  2  1  0
  2  3  2  0
  3  4  1  0
  3  5  1  0
  5  6  1  1
  5  7  1  0
  7  8  1  1
  7  9  1  0
  9 10  1  0
 10 11  1  0
 11 12  1  0
 11 13  2  0
 13 14  1  0
 14 15  1  0
  7 16  1  0
 16 17  1  1
 16 18  1  0
 18 19  2  0
 19 20  1  0
 19 21  1  0
 21 22  2  0
 22 23  1  0
 23 24  1  0
 24 25  1  0
 24 26  1  0
 24 27  1  0
 22 28  1  0
 28 29  1  0
 28 30  2  0
 30 31  1  0
  2 32  1  0
 32 33  2  0
 33 34  1  0
 33 35  1  0
 35 36  1  0
 35 37  2  0
 37 38  1  0
 38 39  2  0
 39 40  1  0
 39 41  1  0
 41 42  1  0
 41 43  2  0
 43 44  1  0
 43 45  1  0
 45 46  1  0
 45 47  2  0
 47 48  1  0
 37 49  1  0
 49 50  1  0
 49 51  2  0
 51 52  1  0
 16  5  1  0
 30 18  1  0
 51 32  1  0
 14  9  2  0
 47 38  1  0
M  CHG  1  14   1
M  END
>  <UniqueID>  (44) 
42

>  <SMILES>  (44) 
COc1ccc([C@@H]2C(c3[nH+]ncs3)[C@@H]2/C=C/c2ccc(-c3ccccc3)cc2)cn1

>  <Energy>  (44) 
373.8039595955237

>  <Genealogy>  (44) 
COc1ccc(C2C(C=Cc3ccc(-c4ccccc4)cc3)C2c2[nH+]ncs2)cn1 (protonated)
COc1ccc([C@@H]2C(c3[nH+]ncs3)[C@@H]2C=Cc2ccc(-c3ccccc3)cc2)cn1 (chirality)
COc1ccc([C@@H]2C(c3[nH+]ncs3)[C@@H]2/C=C/c2ccc(-c3ccccc3)cc2)cn1 (cis-trans isomerization)
COc1ccc([C@@H]2C(c3[nH+]ncs3)[C@@H]2/C=C/c2ccc(-c3ccccc3)cc2)cn1 (3D coordinates assigned)
COc1ccc([C@@H]2C(c3[nH+]ncs3)[C@@H]2/C=C/c2ccc(-c3ccccc3)cc2)cn1 (nonaromatic ring conformer: 373.8039595955237 kcal/mol)

>  <smiles>  (44) 
COc1ccc(C2C(C=Cc3ccc(-c4ccccc4)cc3)C2c2nncs2)cn1

>  <score_type>  (44) 
oracle

>  <origin>  (44) 
adg

>  <m_score__min__energy>  (44) 
-7.2599999999999998

>  <m_primary>  (44) 
energy

$$$$
44:0
     RDKit          3D

 40 43  0  0  0  0  0  0  0  0999 V2000
   55.9020   30.1030   43.3680 C   0  0  0  0  0  0  0  0  0  0  0  0
   56.8880   30.7790   44.1990 N   0  0  0  0  0  0  0  0  0  0  0  0
   57.3250   32.0400   44.0300 C   0  0  0  0  0  0  0  0  0  0  0  0
   58.1730   32.3480   45.0750 C   0  0  0  0  0  0  0  0  0  0  0  0
   58.7780   33.7070   45.3480 C   0  0  0  0  0  0  0  0  0  0  0  0
   59.6890   33.7350   46.5140 N   0  0  0  0  0  0  0  0  0  0  0  0
   59.3770   34.8220   47.4690 C   0  0  0  0  0  0  0  0  0  0  0  0
   60.0910   34.5770   48.8090 C   0  0  0  0  0  0  0  0  0  0  0  0
   61.5110   34.1750   48.5680 C   0  0  0  0  0  0  0  0  0  0  0  0
   62.7400   34.0640   49.7070 S   0  0  0  0  0  0  0  0  0  0  0  0
   63.9040   33.4640   48.6430 C   0  0  0  0  0  0  0  0  0  0  0  0
   63.3300   33.3330   47.3830 C   0  0  0  0  0  0  0  0  0  0  0  0
   61.9820   33.7100   47.3520 C   0  0  0  0  0  0  0  0  0  0  0  0
   61.1190   33.7360   46.1260 C   0  0  0  0  0  0  0  0  0  0  0  0
   58.2020   31.1940   45.8550 C   0  0  0  0  0  0  0  0  0  0  0  0
   58.9360   30.9750   47.1140 C   0  0  0  0  0  0  0  0  0  0  0  0
   58.5180   31.5750   48.3110 C   0  0  0  0  0  0  0  0  0  0  0  0
   59.2410   31.3460   49.4840 C   0  0  0  0  0  0  0  0  0  0  0  0
   60.3500   30.5590   49.4600 N   0  0  0  0  0  0  0  0  0  0  0  0
   60.7880   29.9810   48.3110 C   0  0  0  0  0  0  0  0  0  0  0  0
   60.0950   30.1860   47.1150 C   0  0  0  0  0  0  0  0  0  0  0  0
   57.3940   30.2640   45.3080 N   0  0  0  0  0  0  0  0  0  0  0  0
   55.1655   29.5980   44.0103 H   0  0  0  0  0  0  0  0  0  0  0  0
   55.3899   30.8409   42.7329 H   0  0  0  0  0  0  0  0  0  0  0  0
   56.4057   29.3593   42.7329 H   0  0  0  0  0  0  0  0  0  0  0  0
   57.0533   32.7106   43.2014 H   0  0  0  0  0  0  0  0  0  0  0  0
   59.3447   34.0188   44.4583 H   0  0  0  0  0  0  0  0  0  0  0  0
   57.9445   34.3870   45.5778 H   0  0  0  0  0  0  0  0  0  0  0  0
   59.7130   35.7815   47.0490 H   0  0  0  0  0  0  0  0  0  0  0  0
   58.2909   34.8457   47.6416 H   0  0  0  0  0  0  0  0  0  0  0  0
   60.0706   35.5004   49.4064 H   0  0  0  0  0  0  0  0  0  0  0  0
   59.5750   33.7701   49.3499 H   0  0  0  0  0  0  0  0  0  0  0  0
   64.9441   33.2174   48.9028 H   0  0  0  0  0  0  0  0  0  0  0  0
   63.8788   32.9704   46.5013 H   0  0  0  0  0  0  0  0  0  0  0  0
   61.3384   34.6440   45.5451 H   0  0  0  0  0  0  0  0  0  0  0  0
   61.3290   32.8443   45.5171 H   0  0  0  0  0  0  0  0  0  0  0  0
   57.6277   32.2209   48.3258 H   0  0  0  0  0  0  0  0  0  0  0  0
   58.9127   31.8031   50.4291 H   0  0  0  0  0  0  0  0  0  0  0  0
   61.6895   29.3507   48.3223 H   0  0  0  0  0  0  0  0  0  0  0  0
   60.4563   29.7315   46.1807 H   0  0  0  0  0  0  0  0  0  0  0  0
  1  2  1  0
  2  3  1  0
  3  4  2  0
  4  5  1  0
  5  6  1  0
  6  7  1  0
  7  8  1  0
  8  9  1  0
  9 10  1  0
 10 11  1  0
 11 12  2  0
 12 13  1  0
 13 14  1  0
  4 15  1  0
 15 16  1  0
 16 17  2  0
 17 18  1  0
 18 19  2  0
 19 20  1  0
 20 21  2  0
 15 22  2  0
 22  2  1  0
 14  6  1  0
 21 16  1  0
 13  9  2  0
  1 23  1  0
  1 24  1  0
  1 25  1  0
  3 26  1  0
  5 27  1  0
  5 28  1  0
  7 29  1  0
  7 30  1  0
  8 31  1  0
  8 32  1  0
 11 33  1  0
 12 34  1  0
 14 35  1  0
 14 36  1  0
 17 37  1  0
 18 38  1  0
 20 39  1  0
 21 40  1  0
M  END
>  <UniqueID>  (45) 
43

>  <SMILES>  (45) 
Cn1cc(CN2CCc3sccc3C2)c(-c2ccncc2)n1

>  <Energy>  (45) 
108.26033968124159

>  <Genealogy>  (45) 
Cn1cc(CN2CCc3sccc3C2)c(-c2ccncc2)n1 (3D coordinates assigned)
Cn1cc(CN2CCc3sccc3C2)c(-c2ccncc2)n1 (nonaromatic ring conformer: 108.26033968124159 kcal/mol)

>  <smiles>  (45) 
Cn1cc(CN2CCc3sccc3C2)c(-c2ccncc2)n1

>  <score_type>  (45) 
oracle

>  <origin>  (45) 
adg

>  <m_score__min__energy>  (45) 
-7.1799999999999997

>  <m_primary>  (45) 
energy

$$$$
45:0
     RDKit          3D

 47 49  0  0  0  0  0  0  0  0999 V2000
   55.9520   29.8410   52.7990 C   0  0  0  0  0  0  0  0  0  0  0  0
   57.1420   29.4430   52.1270 O   0  0  0  0  0  0  0  0  0  0  0  0
   57.8120   30.2220   51.1740 C   0  0  0  0  0  0  0  0  0  0  0  0
   58.5700   29.5700   50.1950 C   0  0  0  0  0  0  0  0  0  0  0  0
   59.2500   30.3010   49.2170 C   0  0  0  0  0  0  0  0  0  0  0  0
   59.1800   31.7060   49.1990 C   0  0  0  0  0  0  0  0  0  0  0  0
   59.8860   32.5020   48.1650 C   0  0  0  0  0  0  0  0  0  0  0  0
   61.2870   32.5950   48.1390 C   0  0  0  0  0  0  0  0  0  0  0  0
   61.8980   33.3280   47.1140 C   0  0  0  0  0  0  0  0  0  0  0  0
   63.3930   33.4160   47.0290 C   0  0  0  0  0  0  0  0  0  0  0  0
   63.9200   33.8880   48.2190 F   0  0  0  0  0  0  0  0  0  0  0  0
   63.7490   34.2770   46.0080 F   0  0  0  0  0  0  0  0  0  0  0  0
   63.9210   32.1630   46.7740 F   0  0  0  0  0  0  0  0  0  0  0  0
   61.1260   33.9240   46.1660 N   0  0  0  0  0  0  0  0  0  0  0  0
   59.7730   33.8250   46.1990 C   0  0  0  0  0  0  0  0  0  0  0  0
   58.7900   34.5950   44.9170 S   0  0  0  0  0  0  0  0  0  0  0  0
   57.2990   33.5900   45.2430 C   0  0  0  0  0  0  0  0  0  0  0  0
   57.3570   32.2880   44.4900 C   0  0  0  0  0  0  0  0  0  0  0  0
   58.1460   32.1860   43.5150 O   0  0  0  0  0  0  0  0  0  0  0  0
   56.5680   31.1510   44.8610 N   0  0  0  0  0  0  0  0  0  0  0  0
   56.8260   29.7800   44.4350 C   0  0  0  0  0  0  0  0  0  0  0  0
   57.9780   29.2200   45.2200 C   0  0  0  0  0  0  0  0  0  0  0  0
   57.7670   28.2220   46.1860 C   0  0  0  0  0  0  0  0  0  0  0  0
   58.8440   27.7160   46.9210 C   0  0  0  0  0  0  0  0  0  0  0  0
   60.1350   28.2050   46.7010 C   0  0  0  0  0  0  0  0  0  0  0  0
   60.3500   29.2020   45.7470 C   0  0  0  0  0  0  0  0  0  0  0  0
   59.2770   29.7110   45.0090 C   0  0  0  0  0  0  0  0  0  0  0  0
   59.1670   33.1200   47.1890 N   0  0  0  0  0  0  0  0  0  0  0  0
   58.4300   32.3610   50.1920 C   0  0  0  0  0  0  0  0  0  0  0  0
   57.7490   31.6280   51.1680 C   0  0  0  0  0  0  0  0  0  0  0  0
   56.1098   29.7882   53.8863 H   0  0  0  0  0  0  0  0  0  0  0  0
   55.6982   30.8729   52.5150 H   0  0  0  0  0  0  0  0  0  0  0  0
   55.1284   29.1694   52.5150 H   0  0  0  0  0  0  0  0  0  0  0  0
   58.6312   28.4717   50.1952 H   0  0  0  0  0  0  0  0  0  0  0  0
   59.8442   29.7740   48.4559 H   0  0  0  0  0  0  0  0  0  0  0  0
   61.8945   32.1002   48.9111 H   0  0  0  0  0  0  0  0  0  0  0  0
   57.2338   33.3806   46.3209 H   0  0  0  0  0  0  0  0  0  0  0  0
   56.4147   34.1520   44.9080 H   0  0  0  0  0  0  0  0  0  0  0  0
   55.9299   29.1667   44.6108 H   0  0  0  0  0  0  0  0  0  0  0  0
   57.0731   29.7695   43.3632 H   0  0  0  0  0  0  0  0  0  0  0  0
   56.7520   27.8375   46.3648 H   0  0  0  0  0  0  0  0  0  0  0  0
   58.6749   26.9318   47.6736 H   0  0  0  0  0  0  0  0  0  0  0  0
   60.9810   27.8047   47.2790 H   0  0  0  0  0  0  0  0  0  0  0  0
   61.3658   29.5877   45.5758 H   0  0  0  0  0  0  0  0  0  0  0  0
   59.4507   30.4984   44.2608 H   0  0  0  0  0  0  0  0  0  0  0  0
   58.3788   33.4598   50.2007 H   0  0  0  0  0  0  0  0  0  0  0  0
   57.1608   32.1527   51.9353 H   0  0  0  0  0  0  0  0  0  0  0  0
  1  2  1  0
  2  3  1  0
  3  4  2  0
  4  5  1  0
  5  6  2  0
  6  7  1  0
  7  8  2  0
  8  9  1  0
  9 10  1  0
 10 11  1  0
 10 12  1  0
 10 13  1  0
  9 14  2  0
 14 15  1  0
 15 16  1  0
 16 17  1  0
 17 18  1  0
 18 19  2  0
 18 20  1  0
 20 21  1  0
 21 22  1  0
 22 23  2  0
 23 24  1  0
 24 25  2  0
 25 26  1  0
 26 27  2  0
 15 28  2  0
  6 29  1  0
 29 30  2  0
 30  3  1  0
 28  7  1  0
 27 22  1  0
  1 31  1  0
  1 32  1  0
  1 33  1  0
  4 34  1  0
  5 35  1  0
  8 36  1  0
 17 37  1  0
 17 38  1  0
 21 39  1  0
 21 40  1  0
 23 41  1  0
 24 42  1  0
 25 43  1  0
 26 44  1  0
 27 45  1  0
 29 46  1  0
 30 47  1  0
M  CHG  1  20  -1
M  END
>  <UniqueID>  (46) 
44

>  <SMILES>  (46) 
COc1ccc(-c2cc(C(F)(F)F)nc(SCC(=O)[N-]Cc3ccccc3)n2)cc1

>  <Energy>  (46) 
43.06775372287798

>  <Genealogy>  (46) 
COc1ccc(-c2cc(C(F)(F)F)nc(SCC(=O)[N-]Cc3ccccc3)n2)cc1 (protonated)
COc1ccc(-c2cc(C(F)(F)F)nc(SCC(=O)[N-]Cc3ccccc3)n2)cc1 (3D coordinates assigned)
COc1ccc(-c2cc(C(F)(F)F)nc(SCC(=O)[N-]Cc3ccccc3)n2)cc1 (optimized conformer: 43.06775372287798 kcal/mol)

>  <smiles>  (46) 
COc1ccc(-c2cc(C(F)(F)F)nc(SCC(=O)NCc3ccccc3)n2)cc1

>  <score_type>  (46) 
oracle

>  <origin>  (46) 
adg

>  <m_score__min__energy>  (46) 
-9.5500000000000007

>  <m_primary>  (46) 
energy

$$$$
46:0
     RDKit          3D

 25 26  0  0  0  0  0  0  0  0999 V2000
   63.0780   32.7940   47.2780 C   0  0  0  0  0  0  0  0  0  0  0  0
   61.6920   32.5030   47.4220 O   0  0  0  0  0  0  0  0  0  0  0  0
   60.6480   33.1750   46.7620 C   0  0  0  0  0  0  0  0  0  0  0  0
   60.6640   34.5820   46.6640 C   0  0  0  0  0  0  0  0  0  0  0  0
   59.6430   35.2660   46.0150 C   0  0  0  0  0  0  0  0  0  0  0  0
   58.5820   34.5690   45.4510 C   0  0  0  0  0  0  0  0  0  0  0  0
   58.5320   33.1710   45.5290 C   0  0  0  0  0  0  0  0  0  0  0  0
   57.4530   32.4960   44.9520 C   0  0  0  0  0  0  0  0  0  0  0  0
   57.3900   31.1110   45.0210 C   0  0  0  0  0  0  0  0  0  0  0  0
   56.4160   30.5020   44.5010 O   0  0  0  0  0  0  0  0  0  0  0  0
   58.3710   30.4120   45.6470 N   0  0  0  0  0  0  0  0  0  0  0  0
   59.4500   31.0200   46.2290 C   0  0  0  0  0  0  0  0  0  0  0  0
   60.4750   30.1340   46.8940 C   0  0  0  0  0  0  0  0  0  0  0  0
   59.5650   32.4450   46.1860 C   0  0  0  0  0  0  0  0  0  0  0  0
   63.5377   32.8905   48.2727 H   0  0  0  0  0  0  0  0  0  0  0  0
   63.5682   31.9792   46.7250 H   0  0  0  0  0  0  0  0  0  0  0  0
   63.1991   33.7372   46.7250 H   0  0  0  0  0  0  0  0  0  0  0  0
   61.4972   35.1465   47.1080 H   0  0  0  0  0  0  0  0  0  0  0  0
   59.6752   36.3635   45.9477 H   0  0  0  0  0  0  0  0  0  0  0  0
   57.7768   35.1176   44.9404 H   0  0  0  0  0  0  0  0  0  0  0  0
   56.6564   33.0602   44.4449 H   0  0  0  0  0  0  0  0  0  0  0  0
   58.2850   29.3700   45.6760 H   0  0  0  0  0  0  0  0  0  0  0  0
   60.3783   30.2176   47.9866 H   0  0  0  0  0  0  0  0  0  0  0  0
   60.3095   29.0899   46.5901 H   0  0  0  0  0  0  0  0  0  0  0  0
   61.4842   30.4488   46.5901 H   0  0  0  0  0  0  0  0  0  0  0  0
  1  2  1  0
  2  3  1  0
  3  4  2  0
  4  5  1  0
  5  6  2  0
  6  7  1  0
  7  8  2  0
  8  9  1  0
  9 10  2  0
  9 11  1  0
 11 12  1  0
 12 13  1  0
 12 14  2  0
 14  3  1  0
 14  7  1  0
  1 15  1  0
  1 16  1  0
  1 17  1  0
  4 18  1  0
  5 19  1  0
  6 20  1  0
  8 21  1  0
 11 22  1  0
 13 23  1  0
 13 24  1  0
 13 25  1  0
M  END
>  <UniqueID>  (47) 
45

>  <SMILES>  (47) 
COc1cccc2cc(=O)[nH]c(C)c12

>  <Energy>  (47) 
34.14135433114828

>  <Genealogy>  (47) 
COc1cccc2cc(=O)[nH]c(C)c12 (3D coordinates assigned)
COc1cccc2cc(=O)[nH]c(C)c12 (optimized conformer: 34.14135433114828 kcal/mol)

>  <smiles>  (47) 
COc1cccc2cc(=O)[nH]c(C)c12

>  <score_type>  (47) 
oracle

>  <origin>  (47) 
adg

>  <m_score__min__energy>  (47) 
-5.3499999999999996

>  <m_primary>  (47) 
energy

$$$$
