0:0
     RDKit          3D

 76 80  0  0  0  0  0  0  0  0999 V2000
   65.2050   32.0070   50.2100 C   0  0  0  0  0  0  0  0  0  0  0  0
   63.6990   31.9750   50.4760 C   0  0  0  0  0  0  0  0  0  0  0  0
   62.9490   32.8100   49.5100 N   0  0  0  0  0  0  0  0  0  0  0  0
   62.8550   34.2030   49.9910 C   0  0  0  0  0  0  0  0  0  0  0  0
   63.6060   32.7650   48.1790 C   0  0  0  0  0  0  0  0  0  0  0  0
   62.7070   32.1090   47.1190 C   0  0  0  0  0  0  0  0  0  0  0  0
   61.4240   31.6720   47.6750 N   0  0  0  0  0  0  0  0  0  0  0  0
   60.2430   31.5570   46.8700 C   0  0  0  0  0  0  0  0  0  0  0  0
   59.7050   32.6880   46.2150 C   0  0  0  0  0  0  0  0  0  0  0  0
   60.1950   33.9810   46.4910 C   0  0  0  0  0  0  0  0  0  0  0  0
   59.6530   35.0970   45.8600 C   0  0  0  0  0  0  0  0  0  0  0  0
   58.6060   34.9500   44.9580 C   0  0  0  0  0  0  0  0  0  0  0  0
   58.1140   33.6820   44.6500 C   0  0  0  0  0  0  0  0  0  0  0  0
   58.6660   32.5200   45.2410 C   0  0  0  0  0  0  0  0  0  0  0  0
   58.2380   31.2490   44.8860 N   0  0  0  0  0  0  0  0  0  0  0  0
   57.2670   31.0480   43.7940 C   0  0  0  0  0  0  0  0  0  0  0  0
   58.7270   30.1790   45.5880 C   0  0  0  0  0  0  0  0  0  0  0  0
   58.3460   28.8850   45.4450 N   0  0  0  0  0  0  0  0  0  0  0  0
   59.0450   28.2080   46.3750 C   0  0  0  0  0  0  0  0  0  0  0  0
   58.9460   26.8420   46.6420 C   0  0  0  0  0  0  0  0  0  0  0  0
   59.6890   26.3220   47.7090 C   0  0  0  0  0  0  0  0  0  0  0  0
   60.4610   27.1720   48.5230 C   0  0  0  0  0  0  0  0  0  0  0  0
   60.5100   28.5630   48.2710 C   0  0  0  0  0  0  0  0  0  0  0  0
   61.1550   29.4290   49.1590 O   0  0  0  0  0  0  0  0  0  0  0  0
   61.3320   29.1280   50.5430 C   0  0  0  0  0  0  0  0  0  0  0  0
   60.0730   29.4800   51.3680 C   0  0  0  0  0  0  0  0  0  0  0  0
   59.4670   30.8450   51.1780 N   0  0  0  0  0  0  0  0  0  0  0  0
   58.3950   30.9450   52.2100 C   0  0  0  0  0  0  0  0  0  0  0  0
   60.4840   31.9210   51.4040 C   0  0  0  0  0  0  0  0  0  0  0  0
   59.9430   33.3400   51.1530 C   0  0  0  0  0  0  0  0  0  0  0  0
   59.3540   33.4500   49.7460 C   0  0  0  0  0  0  0  0  0  0  0  0
   58.2980   32.3680   49.5120 C   0  0  0  0  0  0  0  0  0  0  0  0
   58.8690   30.9680   49.8140 C   0  0  0  0  0  0  0  0  0  0  0  0
   59.8510   29.0430   47.1250 C   0  0  0  0  0  0  0  0  0  0  0  0
   59.6720   30.3140   46.5880 C   0  0  0  0  0  0  0  0  0  0  0  0
   65.7463   32.0185   51.1675 H   0  0  0  0  0  0  0  0  0  0  0  0
   65.4949   31.1148   49.6356 H   0  0  0  0  0  0  0  0  0  0  0  0
   65.4568   32.9107   49.6356 H   0  0  0  0  0  0  0  0  0  0  0  0
   63.3461   30.9362   50.3970 H   0  0  0  0  0  0  0  0  0  0  0  0
   63.5225   32.3786   51.4839 H   0  0  0  0  0  0  0  0  0  0  0  0
   62.8544   34.2118   51.0910 H   0  0  0  0  0  0  0  0  0  0  0  0
   63.7164   34.7779   49.6202 H   0  0  0  0  0  0  0  0  0  0  0  0
   61.9242   34.6569   49.6202 H   0  0  0  0  0  0  0  0  0  0  0  0
   63.8383   33.7924   47.8620 H   0  0  0  0  0  0  0  0  0  0  0  0
   64.5215   32.1621   48.2705 H   0  0  0  0  0  0  0  0  0  0  0  0
   62.5159   32.8371   46.3169 H   0  0  0  0  0  0  0  0  0  0  0  0
   63.2296   31.2199   46.7365 H   0  0  0  0  0  0  0  0  0  0  0  0
   61.3370   31.5670   48.7120 H   0  0  0  0  0  0  0  0  0  0  0  0
   61.0148   34.1092   47.2131 H   0  0  0  0  0  0  0  0  0  0  0  0
   60.0545   36.0981   46.0759 H   0  0  0  0  0  0  0  0  0  0  0  0
   58.1630   35.8386   44.4845 H   0  0  0  0  0  0  0  0  0  0  0  0
   57.2831   33.5830   43.9359 H   0  0  0  0  0  0  0  0  0  0  0  0
   56.2738   30.8424   44.2197 H   0  0  0  0  0  0  0  0  0  0  0  0
   57.2195   31.9554   43.1740 H   0  0  0  0  0  0  0  0  0  0  0  0
   57.5836   30.1964   43.1740 H   0  0  0  0  0  0  0  0  0  0  0  0
   57.6290   28.4720   44.8110 H   0  0  0  0  0  0  0  0  0  0  0  0
   58.3023   26.1918   46.0314 H   0  0  0  0  0  0  0  0  0  0  0  0
   59.6692   25.2412   47.9125 H   0  0  0  0  0  0  0  0  0  0  0  0
   61.0319   26.7504   49.3634 H   0  0  0  0  0  0  0  0  0  0  0  0
   61.5403   28.0533   50.6507 H   0  0  0  0  0  0  0  0  0  0  0  0
   62.1707   29.7308   50.9214 H   0  0  0  0  0  0  0  0  0  0  0  0
   59.2990   28.7398   51.1170 H   0  0  0  0  0  0  0  0  0  0  0  0
   60.4163   29.4729   52.4130 H   0  0  0  0  0  0  0  0  0  0  0  0
   58.8460   30.9029   53.2124 H   0  0  0  0  0  0  0  0  0  0  0  0
   57.8576   31.8972   52.0894 H   0  0  0  0  0  0  0  0  0  0  0  0
   57.6907   30.1087   52.0894 H   0  0  0  0  0  0  0  0  0  0  0  0
   60.8300   31.8596   52.4464 H   0  0  0  0  0  0  0  0  0  0  0  0
   61.2981   31.7531   50.6835 H   0  0  0  0  0  0  0  0  0  0  0  0
   59.1593   33.5641   51.8916 H   0  0  0  0  0  0  0  0  0  0  0  0
   60.7714   34.0575   51.2479 H   0  0  0  0  0  0  0  0  0  0  0  0
   58.8888   34.4396   49.6263 H   0  0  0  0  0  0  0  0  0  0  0  0
   60.1638   33.3160   49.0137 H   0  0  0  0  0  0  0  0  0  0  0  0
   57.4375   32.5559   50.1710 H   0  0  0  0  0  0  0  0  0  0  0  0
   57.9882   32.4013   48.4570 H   0  0  0  0  0  0  0  0  0  0  0  0
   58.0547   30.2340   49.7243 H   0  0  0  0  0  0  0  0  0  0  0  0
   59.6779   30.7877   49.0907 H   0  0  0  0  0  0  0  0  0  0  0  0
  1  2  1  0
  2  3  1  0
  3  4  1  0
  3  5  1  0
  5  6  1  0
  6  7  1  0
  7  8  1  0
  8  9  2  0
  9 10  1  0
 10 11  2  0
 11 12  1  0
 12 13  2  0
 13 14  1  0
 14 15  2  0
 15 16  1  0
 15 17  1  0
 17 18  1  0
 18 19  1  0
 19 20  2  0
 20 21  1  0
 21 22  2  0
 22 23  1  0
 23 24  1  0
 24 25  1  0
 25 26  1  0
 26 27  1  0
 27 28  1  0
 27 29  1  0
 29 30  1  0
 30 31  1  0
 31 32  1  0
 32 33  1  0
 23 34  2  0
 34 35  1  0
 35  8  1  0
 14  9  1  0
 35 17  2  0
 34 19  1  0
 33 27  1  0
  1 36  1  0
  1 37  1  0
  1 38  1  0
  2 39  1  0
  2 40  1  0
  4 41  1  0
  4 42  1  0
  4 43  1  0
  5 44  1  0
  5 45  1  0
  6 46  1  0
  6 47  1  0
  7 48  1  0
 10 49  1  0
 11 50  1  0
 12 51  1  0
 13 52  1  0
 16 53  1  0
 16 54  1  0
 16 55  1  0
 18 56  1  0
 20 57  1  0
 21 58  1  0
 22 59  1  0
 25 60  1  0
 25 61  1  0
 26 62  1  0
 26 63  1  0
 28 64  1  0
 28 65  1  0
 28 66  1  0
 29 67  1  0
 29 68  1  0
 30 69  1  0
 30 70  1  0
 31 71  1  0
 31 72  1  0
 32 73  1  0
 32 74  1  0
 33 75  1  0
 33 76  1  0
M  CHG  2  15   1  27   1
M  END
>  <UniqueID>  (1) 
1

>  <SMILES>  (1) 
CCN(C)CCNc1c2ccccc2[n+](C)c2[nH]c3cccc(OCC[N+]4(C)CCCCC4)c3c12

>  <Energy>  (1) 
148.22618315127255

>  <Genealogy>  (1) 
CCN(C)CCNc1c2ccccc2[n+](C)c2[nH]c3cccc(OCC[N+]4(C)CCCCC4)c3c12 (3D coordinates assigned)
CCN(C)CCNc1c2ccccc2[n+](C)c2[nH]c3cccc(OCC[N+]4(C)CCCCC4)c3c12 (nonaromatic ring conformer: 148.22618315127255 kcal/mol)

>  <smiles>  (1) 
CCN(C)CCNc1c2ccccc2[n+](C)c2[nH]c3cccc(OCC[N+]4(C)CCCCC4)c3c12

>  <score_type>  (1) 
oracle

>  <origin>  (1) 
adg

>  <m_score__min__energy>  (1) 
-5.3899999999999997

>  <m_primary>  (1) 
energy

$$$$
1:0
     RDKit          3D

 43 45  0  0  0  0  0  0  0  0999 V2000
   62.9180   33.8400   46.4180 C   0  0  0  0  0  0  0  0  0  0  0  0
   63.6830   32.8840   47.3340 C   0  0  0  0  0  0  0  0  0  0  0  0
   63.6690   33.3300   48.8070 C   0  0  0  0  0  0  0  0  0  0  0  0
   62.2980   33.4790   49.3210 N   0  0  0  0  0  0  0  0  0  0  0  0
   62.1460   32.7760   50.6050 C   0  0  0  0  0  0  0  0  0  0  0  0
   61.0960   33.4500   51.5030 C   0  0  0  0  0  0  0  0  0  0  0  0
   59.7200   32.8880   51.2860 C   0  0  0  0  0  0  0  0  0  0  0  0
   58.9120   32.9150   50.1300 C   0  0  0  0  0  0  0  0  0  0  0  0
   59.2770   33.5070   48.8230 C   0  0  0  0  0  0  0  0  0  0  0  0
   60.0230   34.5220   48.7910 O   0  0  0  0  0  0  0  0  0  0  0  0
   58.7740   32.9490   47.5470 C   0  0  0  0  0  0  0  0  0  0  0  0
   58.0820   33.7560   46.6240 C   0  0  0  0  0  0  0  0  0  0  0  0
   57.5980   33.2120   45.4310 C   0  0  0  0  0  0  0  0  0  0  0  0
   57.7890   31.8570   45.1490 C   0  0  0  0  0  0  0  0  0  0  0  0
   57.1280   31.1160   43.5180 Br  0  0  0  0  0  0  0  0  0  0  0  0
   58.4600   31.0430   46.0660 C   0  0  0  0  0  0  0  0  0  0  0  0
   58.9450   31.5820   47.2610 C   0  0  0  0  0  0  0  0  0  0  0  0
   57.6980   32.3450   50.3790 N   0  0  0  0  0  0  0  0  0  0  0  0
   57.7550   31.9650   51.6640 C   0  0  0  0  0  0  0  0  0  0  0  0
   56.8270   31.3650   52.5060 C   0  0  0  0  0  0  0  0  0  0  0  0
   55.0660   30.8380   51.9950 Br  0  0  0  0  0  0  0  0  0  0  0  0
   57.3640   31.2090   53.7920 C   0  0  0  0  0  0  0  0  0  0  0  0
   58.9600   31.8290   53.8390 S   0  0  0  0  0  0  0  0  0  0  0  0
   58.9290   32.2690   52.2230 C   0  0  0  0  0  0  0  0  0  0  0  0
   62.3464   34.5543   47.0288 H   0  0  0  0  0  0  0  0  0  0  0  0
   63.6299   34.3879   45.7831 H   0  0  0  0  0  0  0  0  0  0  0  0
   62.2274   33.2655   45.7831 H   0  0  0  0  0  0  0  0  0  0  0  0
   63.2232   31.8871   47.2643 H   0  0  0  0  0  0  0  0  0  0  0  0
   64.7313   32.8741   47.0010 H   0  0  0  0  0  0  0  0  0  0  0  0
   64.1959   32.5773   49.4118 H   0  0  0  0  0  0  0  0  0  0  0  0
   64.1663   34.3090   48.8721 H   0  0  0  0  0  0  0  0  0  0  0  0
   61.6310   33.0670   48.6300 H   0  0  0  0  0  0  0  0  0  0  0  0
   62.0860   34.4960   49.4540 H   0  0  0  0  0  0  0  0  0  0  0  0
   61.8344   31.7394   50.4089 H   0  0  0  0  0  0  0  0  0  0  0  0
   63.1133   32.8054   51.1280 H   0  0  0  0  0  0  0  0  0  0  0  0
   61.3791   33.2978   52.5550 H   0  0  0  0  0  0  0  0  0  0  0  0
   61.0686   34.5194   51.2469 H   0  0  0  0  0  0  0  0  0  0  0  0
   57.9212   34.8219   46.8432 H   0  0  0  0  0  0  0  0  0  0  0  0
   57.0654   33.8522   44.7124 H   0  0  0  0  0  0  0  0  0  0  0  0
   58.6068   29.9751   45.8466 H   0  0  0  0  0  0  0  0  0  0  0  0
   59.4636   30.9334   47.9824 H   0  0  0  0  0  0  0  0  0  0  0  0
   56.8830   32.2560   49.7330 H   0  0  0  0  0  0  0  0  0  0  0  0
   56.8378   30.7553   54.6448 H   0  0  0  0  0  0  0  0  0  0  0  0
  1  2  1  0
  2  3  1  0
  3  4  1  0
  4  5  1  0
  5  6  1  0
  6  7  1  0
  7  8  2  0
  8  9  1  0
  9 10  2  0
  9 11  1  0
 11 12  2  0
 12 13  1  0
 13 14  2  0
 14 15  1  0
 14 16  1  0
 16 17  2  0
  8 18  1  0
 18 19  1  0
 19 20  1  0
 20 21  1  0
 20 22  2  0
 22 23  1  0
 23 24  1  0
 24  7  1  0
 17 11  1  0
 24 19  2  0
  1 25  1  0
  1 26  1  0
  1 27  1  0
  2 28  1  0
  2 29  1  0
  3 30  1  0
  3 31  1  0
  4 32  1  0
  4 33  1  0
  5 34  1  0
  5 35  1  0
  6 36  1  0
  6 37  1  0
 12 38  1  0
 13 39  1  0
 16 40  1  0
 17 41  1  0
 18 42  1  0
 22 43  1  0
M  CHG  1   4   1
M  END
>  <UniqueID>  (2) 
2

>  <SMILES>  (2) 
CCC[NH2+]CCc1c(C(=O)c2ccc(Br)cc2)[nH]c2c(Br)csc12

>  <Energy>  (2) 
115.0543738052041

>  <Genealogy>  (2) 
CCC[NH2+]CCc1c(C(=O)c2ccc(Br)cc2)[nH]c2c(Br)csc12 (protonated)
CCC[NH2+]CCc1c(C(=O)c2ccc(Br)cc2)[nH]c2c(Br)csc12 (3D coordinates assigned)
CCC[NH2+]CCc1c(C(=O)c2ccc(Br)cc2)[nH]c2c(Br)csc12 (optimized conformer: 115.0543738052041 kcal/mol)

>  <smiles>  (2) 
CCCNCCc1c(C(=O)c2ccc(Br)cc2)[nH]c2c(Br)csc12

>  <score_type>  (2) 
oracle

>  <origin>  (2) 
adg

>  <m_score__min__energy>  (2) 
-6.5800000000000001

>  <m_primary>  (2) 
energy

$$$$
2:0
     RDKit          3D

 54 56  0  0  0  0  0  0  0  0999 V2000
   58.8505   33.5931   43.9907 H   0  0  0  0  0  0  0  0  0  0  0  0
   58.3720   33.3140   44.9410 C   0  0  0  0  0  0  0  0  0  0  0  0
   58.7600   33.9680   46.0600 C   0  0  0  0  0  0  0  0  0  0  0  0
   58.2760   33.4630   47.3940 C   0  0  0  0  0  0  0  0  0  0  0  0
   58.7937   34.0032   48.2003 H   0  0  0  0  0  0  0  0  0  0  0  0
   57.1920   33.6300   47.4779 H   0  0  0  0  0  0  0  0  0  0  0  0
   58.4888   32.3871   47.4779 H   0  0  0  0  0  0  0  0  0  0  0  0
   59.6730   35.1710   46.0060 C   0  0  0  0  0  0  0  0  0  0  0  0
   59.9169   35.4924   47.0293 H   0  0  0  0  0  0  0  0  0  0  0  0
   60.5988   34.9052   45.4747 H   0  0  0  0  0  0  0  0  0  0  0  0
   59.1679   35.9911   45.4747 H   0  0  0  0  0  0  0  0  0  0  0  0
   57.3260   32.2270   44.9110 C   0  0  0  0  0  0  0  0  0  0  0  0
   57.5005   31.5342   45.7474 H   0  0  0  0  0  0  0  0  0  0  0  0
   56.3317   32.6889   45.0008 H   0  0  0  0  0  0  0  0  0  0  0  0
   57.3930   31.4510   43.5920 C   0  0  0  0  0  0  0  0  0  0  0  0
   56.8708   32.0212   42.8096 H   0  0  0  0  0  0  0  0  0  0  0  0
   58.4483   31.3081   43.3164 H   0  0  0  0  0  0  0  0  0  0  0  0
   56.7390   30.0970   43.7410 C   0  0  0  0  0  0  0  0  0  0  0  0
   56.5370   29.5990   44.9820 C   0  0  0  0  0  0  0  0  0  0  0  0
   55.8696   30.1459   45.6642 H   0  0  0  0  0  0  0  0  0  0  0  0
   57.1890   28.3190   45.4780 C   0  0  0  0  0  0  0  0  0  0  0  0
   56.6225   27.9570   46.3487 H   0  0  0  0  0  0  0  0  0  0  0  0
   57.1748   27.6082   44.6386 H   0  0  0  0  0  0  0  0  0  0  0  0
   58.6000   28.4810   45.8770 N   0  0  0  0  0  0  0  0  0  0  0  0
   59.7080   28.2270   44.4980 S   0  0  0  0  0  0  0  0  0  0  0  0
   60.8730   29.3160   45.2410 N   0  0  0  0  0  0  0  0  0  0  0  0
   60.3020   30.0900   46.0930 C   0  0  0  0  0  0  0  0  0  0  0  0
   60.9980   30.7000   47.1620 N   0  0  0  0  0  0  0  0  0  0  0  0
   62.3860   31.1520   47.1300 C   0  0  0  0  0  0  0  0  0  0  0  0
   63.0496   30.3083   47.3705 H   0  0  0  0  0  0  0  0  0  0  0  0
   62.6184   31.5344   46.1251 H   0  0  0  0  0  0  0  0  0  0  0  0
   62.5920   32.2500   48.1360 C   0  0  0  0  0  0  0  0  0  0  0  0
   63.6380   32.1770   49.0700 C   0  0  0  0  0  0  0  0  0  0  0  0
   64.2983   31.2974   49.0860 H   0  0  0  0  0  0  0  0  0  0  0  0
   63.8430   33.2190   49.9800 C   0  0  0  0  0  0  0  0  0  0  0  0
   64.6582   33.1534   50.7156 H   0  0  0  0  0  0  0  0  0  0  0  0
   63.0140   34.3430   49.9560 C   0  0  0  0  0  0  0  0  0  0  0  0
   63.1743   35.1600   50.6749 H   0  0  0  0  0  0  0  0  0  0  0  0
   61.9790   34.4300   49.0170 C   0  0  0  0  0  0  0  0  0  0  0  0
   61.3309   35.3185   48.9938 H   0  0  0  0  0  0  0  0  0  0  0  0
   61.7690   33.3880   48.1090 C   0  0  0  0  0  0  0  0  0  0  0  0
   60.9565   33.4595   47.3709 H   0  0  0  0  0  0  0  0  0  0  0  0
   60.1390   30.7130   48.3360 C   0  0  0  0  0  0  0  0  0  0  0  0
   59.8500   31.7436   48.5895 H   0  0  0  0  0  0  0  0  0  0  0  0
   60.6472   30.2965   49.2182 H   0  0  0  0  0  0  0  0  0  0  0  0
   58.8940   29.8830   47.9460 C   0  0  0  0  0  0  0  0  0  0  0  0
   57.9777   30.3743   48.3052 H   0  0  0  0  0  0  0  0  0  0  0  0
   58.9189   28.8788   48.3943 H   0  0  0  0  0  0  0  0  0  0  0  0
   58.9010   29.8190   46.4120 C   0  0  2  0  0  0  0  0  0  0  0  0
   58.1489   30.5036   45.9928 H   0  0  0  0  0  0  0  0  0  0  0  0
   56.2780   29.3570   42.5090 C   0  0  0  0  0  0  0  0  0  0  0  0
   55.7184   28.4587   42.8088 H   0  0  0  0  0  0  0  0  0  0  0  0
   55.6275   30.0114   41.9102 H   0  0  0  0  0  0  0  0  0  0  0  0
   57.1521   29.0616   41.9102 H   0  0  0  0  0  0  0  0  0  0  0  0
  1  2  1  0
  2  3  2  3
  3  4  1  0
  4  5  1  0
  4  6  1  0
  4  7  1  0
  3  8  1  0
  8  9  1  0
  8 10  1  0
  8 11  1  0
  2 12  1  0
 12 13  1  0
 12 14  1  0
 12 15  1  0
 15 16  1  0
 15 17  1  0
 15 18  1  0
 18 19  2  0
 19 20  1  0
 19 21  1  0
 21 22  1  0
 21 23  1  0
 21 24  1  0
 24 25  1  0
 25 26  1  0
 26 27  2  0
 27 28  1  0
 28 29  1  0
 29 30  1  0
 29 31  1  0
 29 32  1  0
 32 33  2  0
 33 34  1  0
 33 35  1  0
 35 36  1  0
 35 37  2  0
 37 38  1  0
 37 39  1  0
 39 40  1  0
 39 41  2  0
 41 42  1  0
 28 43  1  0
 43 44  1  0
 43 45  1  0
 43 46  1  0
 46 47  1  0
 46 48  1  0
 46 49  1  0
 49 50  1  6
 18 51  1  0
 51 52  1  0
 51 53  1  0
 51 54  1  0
 49 24  1  0
 49 27  1  0
 41 32  1  0
M  END
>  <UniqueID>  (3) 
3

>  <SMILES>  (3) 
CC(C)=CCC/C(C)=C/CN1SN=C2[C@@H]1CCN2Cc1ccccc1

>  <Energy>  (3) 
66.10874404461609

>  <Genealogy>  (3) 
CC(C)=CCCC(C)=CCN1SN=C2[C@@H]1CCN2Cc1ccccc1 (chirality)
CC(C)=CCC/C(C)=C/CN1SN=C2[C@@H]1CCN2Cc1ccccc1 (cis-trans isomerization)
CC(C)=CCC/C(C)=C/CN1SN=C2[C@@H]1CCN2Cc1ccccc1 (3D coordinates assigned)
CC(C)=CCC/C(C)=C/CN1SN=C2[C@@H]1CCN2Cc1ccccc1 (nonaromatic ring conformer: 66.10874404461609 kcal/mol)

>  <smiles>  (3) 
CC(C)=CCCC(C)=CCN1SN=C2C1CCN2Cc1ccccc1

>  <score_type>  (3) 
oracle

>  <origin>  (3) 
adg

>  <m_score__min__energy>  (3) 
-8.6099999999999994

>  <m_primary>  (3) 
energy

$$$$
3:0
     RDKit          3D

 46 49  0  0  0  0  0  0  0  0999 V2000
   56.7440   30.5570   42.9420 C   0  0  0  0  0  0  0  0  0  0  0  0
   55.6500   29.7110   43.5870 C   0  0  0  0  0  0  0  0  0  0  0  0
   55.9670   29.4070   44.9480 O   0  0  0  0  0  0  0  0  0  0  0  0
   56.7740   28.3420   45.3890 C   0  0  0  0  0  0  0  0  0  0  0  0
   56.2390   27.0610   45.6290 C   0  0  0  0  0  0  0  0  0  0  0  0
   57.0610   26.0170   46.0480 C   0  0  0  0  0  0  0  0  0  0  0  0
   58.4270   26.2220   46.2090 C   0  0  0  0  0  0  0  0  0  0  0  0
   58.9920   27.4770   45.9490 C   0  0  0  0  0  0  0  0  0  0  0  0
   58.1590   28.5660   45.5830 C   0  0  0  0  0  0  0  0  0  0  0  0
   58.7590   29.9420   45.2820 C   0  0  1  0  0  0  0  0  0  0  0  0
   58.0280   31.0370   45.9390 N   0  0  0  0  0  0  0  0  0  0  0  0
   58.5130   32.3840   46.1380 C   0  0  0  0  0  0  0  0  0  0  0  0
   58.5630   33.2930   45.0620 C   0  0  0  0  0  0  0  0  0  0  0  0
   58.9990   34.6040   45.2480 C   0  0  0  0  0  0  0  0  0  0  0  0
   59.3890   35.0430   46.5110 C   0  0  0  0  0  0  0  0  0  0  0  0
   59.3540   34.1650   47.6000 C   0  0  0  0  0  0  0  0  0  0  0  0
   59.7610   34.5990   48.8700 C   0  0  0  0  0  0  0  0  0  0  0  0
   59.7520   33.7390   49.9210 N   0  0  0  0  0  0  0  0  0  0  0  0
   59.3590   32.4470   49.7840 C   0  0  0  0  0  0  0  0  0  0  0  0
   58.9410   31.9650   48.5420 C   0  0  0  0  0  0  0  0  0  0  0  0
   58.9200   32.8260   47.4260 C   0  0  0  0  0  0  0  0  0  0  0  0
   60.2630   30.0740   45.5990 C   0  0  0  0  0  0  0  0  0  0  0  0
   61.0190   28.7930   45.2730 C   0  0  0  0  0  0  0  0  0  0  0  0
   60.4810   27.6460   46.1240 C   0  0  0  0  0  0  0  0  0  0  0  0
   57.3536   31.0284   43.7269 H   0  0  0  0  0  0  0  0  0  0  0  0
   57.3829   29.9157   42.3171 H   0  0  0  0  0  0  0  0  0  0  0  0
   56.2841   31.3367   42.3171 H   0  0  0  0  0  0  0  0  0  0  0  0
   54.7010   30.2663   43.5549 H   0  0  0  0  0  0  0  0  0  0  0  0
   55.5654   28.7666   43.0295 H   0  0  0  0  0  0  0  0  0  0  0  0
   55.1631   26.8835   45.4844 H   0  0  0  0  0  0  0  0  0  0  0  0
   56.6278   25.0267   46.2522 H   0  0  0  0  0  0  0  0  0  0  0  0
   59.0682   25.3929   46.5428 H   0  0  0  0  0  0  0  0  0  0  0  0
   58.6482   30.0307   44.1912 H   0  0  0  0  0  0  0  0  0  0  0  0
   57.0250   30.8400   46.1530 H   0  0  0  0  0  0  0  0  0  0  0  0
   58.2531   32.9627   44.0596 H   0  0  0  0  0  0  0  0  0  0  0  0
   59.0352   35.2952   44.3931 H   0  0  0  0  0  0  0  0  0  0  0  0
   59.7248   36.0809   46.6525 H   0  0  0  0  0  0  0  0  0  0  0  0
   60.0885   35.6390   49.0152 H   0  0  0  0  0  0  0  0  0  0  0  0
   59.3699   31.7763   50.6558 H   0  0  0  0  0  0  0  0  0  0  0  0
   58.6288   30.9157   48.4346 H   0  0  0  0  0  0  0  0  0  0  0  0
   60.6826   30.8977   45.0028 H   0  0  0  0  0  0  0  0  0  0  0  0
   60.3716   30.2732   46.6753 H   0  0  0  0  0  0  0  0  0  0  0  0
   60.8864   28.5513   44.2081 H   0  0  0  0  0  0  0  0  0  0  0  0
   62.0879   28.9363   45.4895 H   0  0  0  0  0  0  0  0  0  0  0  0
   60.9837   26.7140   45.8262 H   0  0  0  0  0  0  0  0  0  0  0  0
   60.6795   27.8785   47.1807 H   0  0  0  0  0  0  0  0  0  0  0  0
  1  2  1  0
  2  3  1  0
  3  4  1  0
  4  5  2  0
  5  6  1  0
  6  7  2  0
  7  8  1  0
  8  9  2  0
  9 10  1  0
 10 11  1  0
 11 12  1  0
 12 13  2  0
 13 14  1  0
 14 15  2  0
 15 16  1  0
 16 17  2  0
 17 18  1  0
 18 19  2  0
 19 20  1  0
 20 21  2  0
 10 22  1  0
 22 23  1  0
 23 24  1  0
  9  4  1  0
 21 12  1  0
 24  8  1  0
 21 16  1  0
  1 25  1  0
  1 26  1  0
  1 27  1  0
  2 28  1  0
  2 29  1  0
  5 30  1  0
  6 31  1  0
  7 32  1  0
 10 33  1  6
 11 34  1  0
 13 35  1  0
 14 36  1  0
 15 37  1  0
 17 38  1  0
 19 39  1  0
 20 40  1  0
 22 41  1  0
 22 42  1  0
 23 43  1  0
 23 44  1  0
 24 45  1  0
 24 46  1  0
M  END
>  <UniqueID>  (4) 
4

>  <SMILES>  (4) 
CCOc1cccc2c1[C@@H](Nc1cccc3cnccc13)CCC2

>  <Energy>  (4) 
56.35450425655474

>  <Genealogy>  (4) 
CCOc1cccc2c1[C@@H](Nc1cccc3cnccc13)CCC2 (chirality)
CCOc1cccc2c1[C@@H](Nc1cccc3cnccc13)CCC2 (3D coordinates assigned)
CCOc1cccc2c1[C@@H](Nc1cccc3cnccc13)CCC2 (nonaromatic ring conformer: 56.35450425655474 kcal/mol)

>  <smiles>  (4) 
CCOc1cccc2c1C(Nc1cccc3cnccc13)CCC2

>  <score_type>  (4) 
oracle

>  <origin>  (4) 
adg

>  <m_score__min__energy>  (4) 
-7.9800000000000004

>  <m_primary>  (4) 
energy

$$$$
4:0
     RDKit          3D

 77 79  0  0  1  0  0  0  0  0999 V2000
   63.6280   33.1290   47.1400 C   0  0  0  0  0  0  0  0  0  0  0  0
   62.2680   33.6550   47.2620 C   0  0  0  0  0  0  0  0  0  0  0  0
   61.1420   34.0870   47.3470 C   0  0  0  0  0  0  0  0  0  0  0  0
   59.7730   34.5900   47.4530 C   0  0  0  0  0  0  0  0  0  0  0  0
   59.0950   34.6140   46.2190 O   0  0  0  0  0  0  0  0  0  0  0  0
   58.5140   33.4550   45.7460 C   0  0  0  0  0  0  0  0  0  0  0  0
   57.2170   33.3120   45.3630 C   0  0  0  0  0  0  0  0  0  0  0  0
   56.6980   32.1240   44.8980 C   0  0  0  0  0  0  0  0  0  0  0  0
   57.4990   30.9770   44.7950 C   0  0  0  0  0  0  0  0  0  0  0  0
   56.7930   29.5090   44.2480 S   0  0  0  0  0  0  0  0  0  0  0  0
   55.4220   29.2770   44.8500 O   0  0  0  0  0  0  0  0  0  0  0  0
   56.6150   29.6580   42.7320 O   0  0  0  0  0  0  0  0  0  0  0  0
   57.8250   28.1340   44.4880 C   0  0  0  0  0  0  0  0  0  0  0  0
   57.8230   27.4490   45.7970 C   0  0  0  0  0  0  0  0  0  0  0  0
   56.6800   26.5570   46.0820 C   0  0  0  0  0  0  0  0  0  0  0  0
   55.3700   27.0670   45.9780 O   0  0  0  0  0  0  0  0  0  0  0  0
   56.7690   25.3230   46.4230 N   0  0  0  0  0  0  0  0  0  0  0  0
   55.6970   24.5310   46.7650 O   0  0  0  0  0  0  0  0  0  0  0  0
   57.8430   28.5660   46.8590 C   0  0  0  0  0  0  0  0  0  0  0  0
   59.2600   28.9610   47.0840 C   0  0  0  0  0  0  0  0  0  0  0  0
   59.8990   28.0030   47.9140 N   0  0  0  0  0  0  0  0  0  0  0  0
   59.9770   28.1950   49.2900 C   0  0  0  0  0  0  0  0  0  0  0  0
   61.0370   29.0220   49.8910 C   0  0  0  0  0  0  0  0  0  0  0  0
   60.5440   30.7470   50.0370 S   0  0  0  0  0  0  0  0  0  0  0  0
   59.8270   31.0810   48.7600 O   0  0  0  0  0  0  0  0  0  0  0  0
   59.5310   30.8100   51.1490 O   0  0  0  0  0  0  0  0  0  0  0  0
   61.8810   31.8060   50.2890 C   0  0  0  0  0  0  0  0  0  0  0  0
   61.7640   33.0880   50.7230 C   0  0  0  0  0  0  0  0  0  0  0  0
   62.8600   33.9000   50.9090 C   0  0  0  0  0  0  0  0  0  0  0  0
   64.1680   33.4450   50.6610 C   0  0  0  0  0  0  0  0  0  0  0  0
   65.1660   34.3260   50.8800 O   0  0  0  0  0  0  0  0  0  0  0  0
   66.1780   34.3300   51.8110 C   0  0  0  0  0  0  0  0  0  0  0  0
   67.5630   34.2000   51.2340 C   0  0  0  0  0  0  0  0  0  0  0  0
   67.7190   33.1520   50.3720 O   0  0  0  0  0  0  0  0  0  0  0  0
   67.3930   31.9250   50.8450 C   0  0  0  0  0  0  0  0  0  0  0  0
   64.2630   32.1510   50.2270 C   0  0  0  0  0  0  0  0  0  0  0  0
   63.1560   31.3260   50.0370 C   0  0  0  0  0  0  0  0  0  0  0  0
   59.5550   26.6980   47.4520 C   0  0  0  0  0  0  0  0  0  0  0  0
   59.1330   26.6920   45.9940 C   0  0  0  0  0  0  0  0  0  0  0  0
   58.8210   31.1110   45.1820 C   0  0  0  0  0  0  0  0  0  0  0  0
   59.3280   32.3220   45.6490 C   0  0  0  0  0  0  0  0  0  0  0  0
   64.0494   32.9660   48.1429 H   0  0  0  0  0  0  0  0  0  0  0  0
   63.6045   32.1751   46.5927 H   0  0  0  0  0  0  0  0  0  0  0  0
   64.2524   33.8505   46.5927 H   0  0  0  0  0  0  0  0  0  0  0  0
   59.2153   33.9430   48.1461 H   0  0  0  0  0  0  0  0  0  0  0  0
   59.8323   35.6273   47.8143 H   0  0  0  0  0  0  0  0  0  0  0  0
   56.5516   34.1856   45.4276 H   0  0  0  0  0  0  0  0  0  0  0  0
   55.6395   32.0739   44.6030 H   0  0  0  0  0  0  0  0  0  0  0  0
   57.5427   27.3851   43.7333 H   0  0  0  0  0  0  0  0  0  0  0  0
   58.8393   28.5532   44.4146 H   0  0  0  0  0  0  0  0  0  0  0  0
   55.1430   27.7490   45.2380 H   0  0  0  0  0  0  0  0  0  0  0  0
   54.7370   24.8370   46.8050 H   0  0  0  0  0  0  0  0  0  0  0  0
   57.2664   29.4317   46.5012 H   0  0  0  0  0  0  0  0  0  0  0  0
   57.3920   28.2098   47.7969 H   0  0  0  0  0  0  0  0  0  0  0  0
   59.7826   29.0136   46.1175 H   0  0  0  0  0  0  0  0  0  0  0  0
   59.2898   29.9450   47.5748 H   0  0  0  0  0  0  0  0  0  0  0  0
   59.0210   28.6451   49.5956 H   0  0  0  0  0  0  0  0  0  0  0  0
   60.2254   27.1880   49.6563 H   0  0  0  0  0  0  0  0  0  0  0  0
   61.2664   28.6320   50.8936 H   0  0  0  0  0  0  0  0  0  0  0  0
   61.9185   28.9746   49.2348 H   0  0  0  0  0  0  0  0  0  0  0  0
   60.7617   33.4900   50.9324 H   0  0  0  0  0  0  0  0  0  0  0  0
   62.7092   34.9313   51.2606 H   0  0  0  0  0  0  0  0  0  0  0  0
   66.1266   35.2765   52.3692 H   0  0  0  0  0  0  0  0  0  0  0  0
   66.0208   33.4451   52.4452 H   0  0  0  0  0  0  0  0  0  0  0  0
   67.7989   35.1284   50.6932 H   0  0  0  0  0  0  0  0  0  0  0  0
   68.2397   34.0133   52.0809 H   0  0  0  0  0  0  0  0  0  0  0  0
   67.3977   31.9429   51.9448 H   0  0  0  0  0  0  0  0  0  0  0  0
   66.3903   31.6486   50.4871 H   0  0  0  0  0  0  0  0  0  0  0  0
   68.1263   31.1873   50.4871 H   0  0  0  0  0  0  0  0  0  0  0  0
   65.2623   31.7417   50.0177 H   0  0  0  0  0  0  0  0  0  0  0  0
   63.2947   30.2926   49.6866 H   0  0  0  0  0  0  0  0  0  0  0  0
   60.4288   26.0402   47.5694 H   0  0  0  0  0  0  0  0  0  0  0  0
   58.7013   26.3454   48.0493 H   0  0  0  0  0  0  0  0  0  0  0  0
   59.9185   27.1707   45.3909 H   0  0  0  0  0  0  0  0  0  0  0  0
   58.9841   25.6489   45.6782 H   0  0  0  0  0  0  0  0  0  0  0  0
   59.4887   30.2391   45.1193 H   0  0  0  0  0  0  0  0  0  0  0  0
   60.3851   32.3878   45.9460 H   0  0  0  0  0  0  0  0  0  0  0  0
  1  2  1  0
  2  3  3  0
  3  4  1  0
  4  5  1  0
  5  6  1  0
  6  7  2  0
  7  8  1  0
  8  9  2  0
  9 10  1  0
 10 11  2  0
 10 12  2  0
 10 13  1  0
 13 14  1  0
 14 15  1  0
 15 16  1  0
 15 17  2  0
 17 18  1  0
 14 19  1  0
 19 20  1  0
 20 21  1  0
 21 22  1  0
 22 23  1  0
 23 24  1  0
 24 25  2  0
 24 26  2  0
 24 27  1  0
 27 28  2  0
 28 29  1  0
 29 30  2  0
 30 31  1  0
 31 32  1  0
 32 33  1  0
 33 34  1  0
 34 35  1  0
 30 36  1  0
 36 37  2  0
 21 38  1  0
 38 39  1  0
  9 40  1  0
 40 41  2  0
 41  6  1  0
 39 14  1  0
 37 27  1  0
  1 42  1  0
  1 43  1  0
  1 44  1  0
  4 45  1  0
  4 46  1  0
  7 47  1  0
  8 48  1  0
 13 49  1  0
 13 50  1  0
 16 51  1  0
 18 52  1  0
 19 53  1  0
 19 54  1  0
 20 55  1  0
 20 56  1  0
 22 57  1  0
 22 58  1  0
 23 59  1  0
 23 60  1  0
 28 61  1  0
 29 62  1  0
 32 63  1  0
 32 64  1  0
 33 65  1  0
 33 66  1  0
 35 67  1  0
 35 68  1  0
 35 69  1  0
 36 70  1  0
 37 71  1  0
 38 72  1  0
 38 73  1  0
 39 74  1  0
 39 75  1  0
 40 76  1  0
 41 77  1  0
M  END
>  <smiles>  (5) 
CC#CCOc1ccc(S(=O)(=O)CC2(C(O)=NO)CCN(CCS(=O)(=O)c3ccc(OCCOC)cc3)CC2)cc1

>  <score_type>  (5) 
oracle

>  <origin>  (5) 
adg

>  <m_score__min__energy>  (5) 
-10.779999999999999

>  <m_primary>  (5) 
energy

$$$$
5:0
     RDKit          3D

 43 44  0  0  0  0  0  0  0  0999 V2000
   63.3190   33.8400   46.3650 C   0  0  0  0  0  0  0  0  0  0  0  0
   63.4710   32.5230   47.1370 C   0  0  0  0  0  0  0  0  0  0  0  0
   63.2460   32.6790   48.5970 N   0  0  1  0  0  0  0  0  0  0  0  0
   64.4580   32.3030   49.3560 C   0  0  0  0  0  0  0  0  0  0  0  0
   62.8550   34.0830   48.8880 C   0  0  0  0  0  0  0  0  0  0  0  0
   61.9230   34.2070   50.1070 C   0  0  0  0  0  0  0  0  0  0  0  0
   61.5740   32.9200   50.5800 O   0  0  0  0  0  0  0  0  0  0  0  0
   60.1730   32.7360   50.5390 C   0  0  0  0  0  0  0  0  0  0  0  0
   59.8210   31.7980   49.3860 C   0  0  0  0  0  0  0  0  0  0  0  0
   60.4400   32.2260   48.1720 O   0  0  0  0  0  0  0  0  0  0  0  0
   59.8090   32.9280   47.1280 C   0  0  0  0  0  0  0  0  0  0  0  0
   59.9490   34.3200   46.9700 C   0  0  0  0  0  0  0  0  0  0  0  0
   59.3000   34.9700   45.9190 C   0  0  0  0  0  0  0  0  0  0  0  0
   58.5310   34.2670   45.0500 N   0  0  0  0  0  0  0  0  0  0  0  0
   58.3650   32.9240   45.1660 C   0  0  0  0  0  0  0  0  0  0  0  0
   57.5610   32.2390   44.2470 C   0  0  0  0  0  0  0  0  0  0  0  0
   57.3870   30.8560   44.3620 C   0  0  0  0  0  0  0  0  0  0  0  0
   56.2890   29.9260   43.1050 Br  0  0  0  0  0  0  0  0  0  0  0  0
   58.0140   30.1540   45.3950 C   0  0  0  0  0  0  0  0  0  0  0  0
   58.8190   30.8280   46.3180 C   0  0  0  0  0  0  0  0  0  0  0  0
   59.0020   32.2180   46.2150 C   0  0  0  0  0  0  0  0  0  0  0  0
   63.2228   34.6732   47.0767 H   0  0  0  0  0  0  0  0  0  0  0  0
   64.2048   33.9985   45.7324 H   0  0  0  0  0  0  0  0  0  0  0  0
   62.4204   33.7926   45.7324 H   0  0  0  0  0  0  0  0  0  0  0  0
   62.7407   31.8000   46.7447 H   0  0  0  0  0  0  0  0  0  0  0  0
   64.5057   32.1765   46.9978 H   0  0  0  0  0  0  0  0  0  0  0  0
   62.4590   32.0480   48.8840 H   0  0  0  0  0  0  0  0  0  0  0  0
   64.2501   32.3675   50.4342 H   0  0  0  0  0  0  0  0  0  0  0  0
   64.7466   31.2731   49.0992 H   0  0  0  0  0  0  0  0  0  0  0  0
   65.2789   32.9887   49.0992 H   0  0  0  0  0  0  0  0  0  0  0  0
   63.7663   34.6676   49.0825 H   0  0  0  0  0  0  0  0  0  0  0  0
   62.3047   34.4596   48.0132 H   0  0  0  0  0  0  0  0  0  0  0  0
   62.4384   34.7614   50.9051 H   0  0  0  0  0  0  0  0  0  0  0  0
   61.0096   34.7438   49.8111 H   0  0  0  0  0  0  0  0  0  0  0  0
   59.8322   32.2961   51.4878 H   0  0  0  0  0  0  0  0  0  0  0  0
   59.6779   33.7067   50.3888 H   0  0  0  0  0  0  0  0  0  0  0  0
   60.1686   30.7830   49.6288 H   0  0  0  0  0  0  0  0  0  0  0  0
   58.7300   31.8080   49.2461 H   0  0  0  0  0  0  0  0  0  0  0  0
   60.5690   34.8946   47.6739 H   0  0  0  0  0  0  0  0  0  0  0  0
   59.4125   36.0572   45.7947 H   0  0  0  0  0  0  0  0  0  0  0  0
   57.0655   32.7892   43.4335 H   0  0  0  0  0  0  0  0  0  0  0  0
   57.8735   29.0665   45.4822 H   0  0  0  0  0  0  0  0  0  0  0  0
   59.3109   30.2688   47.1276 H   0  0  0  0  0  0  0  0  0  0  0  0
  1  2  1  0
  2  3  1  0
  3  4  1  0
  3  5  1  0
  5  6  1  0
  6  7  1  0
  7  8  1  0
  8  9  1  0
  9 10  1  0
 10 11  1  0
 11 12  2  0
 12 13  1  0
 13 14  2  0
 14 15  1  0
 15 16  2  0
 16 17  1  0
 17 18  1  0
 17 19  2  0
 19 20  1  0
 20 21  2  0
 21 11  1  0
 21 15  1  0
  1 22  1  0
  1 23  1  0
  1 24  1  0
  2 25  1  0
  2 26  1  0
  3 27  1  1
  4 28  1  0
  4 29  1  0
  4 30  1  0
  5 31  1  0
  5 32  1  0
  6 33  1  0
  6 34  1  0
  8 35  1  0
  8 36  1  0
  9 37  1  0
  9 38  1  0
 12 39  1  0
 13 40  1  0
 16 41  1  0
 19 42  1  0
 20 43  1  0
M  CHG  1   3   1
M  END
>  <UniqueID>  (6) 
5

>  <SMILES>  (6) 
CC[N@@H+](C)CCOCCOc1ccnc2cc(Br)ccc12

>  <Energy>  (6) 
47.75794945653046

>  <Genealogy>  (6) 
CC[NH+](C)CCOCCOc1ccnc2cc(Br)ccc12 (protonated)
CC[N@@H+](C)CCOCCOc1ccnc2cc(Br)ccc12 (chirality)
CC[N@@H+](C)CCOCCOc1ccnc2cc(Br)ccc12 (3D coordinates assigned)
CC[N@@H+](C)CCOCCOc1ccnc2cc(Br)ccc12 (optimized conformer: 47.75794945653046 kcal/mol)

>  <smiles>  (6) 
CCN(C)CCOCCOc1ccnc2cc(Br)ccc12

>  <score_type>  (6) 
oracle

>  <origin>  (6) 
adg

>  <m_score__min__energy>  (6) 
-4.1399999999999997

>  <m_primary>  (6) 
energy

$$$$
6:0
     RDKit          3D

 54 56  0  0  0  0  0  0  0  0999 V2000
   63.0210   33.8400   46.3840 C   0  0  0  0  0  0  0  0  0  0  0  0
   63.6170   32.7480   47.2790 C   0  0  0  0  0  0  0  0  0  0  0  0
   63.4270   33.0400   48.7250 N   0  0  2  0  0  0  0  0  0  0  0  0
   64.4600   32.3690   49.5370 C   0  0  0  0  0  0  0  0  0  0  0  0
   62.0510   32.7290   49.1980 C   0  0  0  0  0  0  0  0  0  0  0  0
   61.7860   31.2300   49.4840 C   0  0  0  0  0  0  0  0  0  0  0  0
   61.0960   30.5220   48.3050 C   0  0  0  0  0  0  0  0  0  0  0  0
   59.7000   30.9520   48.1310 N   0  0  0  0  0  0  0  0  0  0  0  0
   59.1110   31.2590   46.8520 C   0  0  0  0  0  0  0  0  0  0  0  0
   58.5760   30.2220   46.0640 C   0  0  0  0  0  0  0  0  0  0  0  0
   58.1800   30.4950   44.7280 C   0  0  0  0  0  0  0  0  0  0  0  0
   58.1890   31.7950   44.2510 N   0  0  0  0  0  0  0  0  0  0  0  0
   57.6490   32.1010   42.9070 C   0  0  0  0  0  0  0  0  0  0  0  0
   58.7000   32.8220   45.0250 C   0  0  0  0  0  0  0  0  0  0  0  0
   58.8440   34.1410   44.5180 C   0  0  0  0  0  0  0  0  0  0  0  0
   59.2680   35.1860   45.3380 C   0  0  0  0  0  0  0  0  0  0  0  0
   59.5520   34.9500   46.6780 C   0  0  0  0  0  0  0  0  0  0  0  0
   59.4660   33.6600   47.1900 C   0  0  0  0  0  0  0  0  0  0  0  0
   59.1030   32.5760   46.3630 C   0  0  0  0  0  0  0  0  0  0  0  0
   57.7080   29.3490   43.8340 C   0  0  0  0  0  0  0  0  0  0  0  0
   58.0720   27.9610   44.3530 C   0  0  0  0  0  0  0  0  0  0  0  0
   57.6770   27.8460   45.8150 C   0  0  0  0  0  0  0  0  0  0  0  0
   58.5100   28.8170   46.6460 C   0  0  0  0  0  0  0  0  0  0  0  0
   62.5882   34.6329   47.0117 H   0  0  0  0  0  0  0  0  0  0  0  0
   63.8118   34.2657   45.7489 H   0  0  0  0  0  0  0  0  0  0  0  0
   62.2351   33.4052   45.7489 H   0  0  0  0  0  0  0  0  0  0  0  0
   63.1279   31.7912   47.0437 H   0  0  0  0  0  0  0  0  0  0  0  0
   64.6985   32.7041   47.0829 H   0  0  0  0  0  0  0  0  0  0  0  0
   63.5720   34.0670   48.8720 H   0  0  0  0  0  0  0  0  0  0  0  0
   64.2381   32.5132   50.6047 H   0  0  0  0  0  0  0  0  0  0  0  0
   64.4668   31.2936   49.3059 H   0  0  0  0  0  0  0  0  0  0  0  0
   65.4453   32.8000   49.3059 H   0  0  0  0  0  0  0  0  0  0  0  0
   61.8730   33.2912   50.1266 H   0  0  0  0  0  0  0  0  0  0  0  0
   61.3711   33.0135   48.3814 H   0  0  0  0  0  0  0  0  0  0  0  0
   62.7470   30.7326   49.6815 H   0  0  0  0  0  0  0  0  0  0  0  0
   61.1143   31.1675   50.3529 H   0  0  0  0  0  0  0  0  0  0  0  0
   61.6524   30.7473   47.3832 H   0  0  0  0  0  0  0  0  0  0  0  0
   61.0900   29.4431   48.5191 H   0  0  0  0  0  0  0  0  0  0  0  0
   59.0840   30.9470   48.9740 H   0  0  0  0  0  0  0  0  0  0  0  0
   56.6961   32.6410   43.0089 H   0  0  0  0  0  0  0  0  0  0  0  0
   58.3676   32.7261   42.3567 H   0  0  0  0  0  0  0  0  0  0  0  0
   57.4820   31.1633   42.3567 H   0  0  0  0  0  0  0  0  0  0  0  0
   58.6172   34.3415   43.4605 H   0  0  0  0  0  0  0  0  0  0  0  0
   59.3779   36.1990   44.9237 H   0  0  0  0  0  0  0  0  0  0  0  0
   59.8447   35.7836   47.3334 H   0  0  0  0  0  0  0  0  0  0  0  0
   59.6838   33.4824   48.2535 H   0  0  0  0  0  0  0  0  0  0  0  0
   56.6131   29.4084   43.7461 H   0  0  0  0  0  0  0  0  0  0  0  0
   58.2200   29.4699   42.8679 H   0  0  0  0  0  0  0  0  0  0  0  0
   57.5366   27.1989   43.7677 H   0  0  0  0  0  0  0  0  0  0  0  0
   59.1564   27.8057   44.2535 H   0  0  0  0  0  0  0  0  0  0  0  0
   56.6102   28.0899   45.9266 H   0  0  0  0  0  0  0  0  0  0  0  0
   57.8571   26.8182   46.1632 H   0  0  0  0  0  0  0  0  0  0  0  0
   58.0699   28.8785   47.6523 H   0  0  0  0  0  0  0  0  0  0  0  0
   59.5384   28.4269   46.6600 H   0  0  0  0  0  0  0  0  0  0  0  0
  1  2  1  0
  2  3  1  0
  3  4  1  0
  3  5  1  0
  5  6  1  0
  6  7  1  0
  7  8  1  0
  8  9  1  0
  9 10  2  0
 10 11  1  0
 11 12  2  0
 12 13  1  0
 12 14  1  0
 14 15  2  0
 15 16  1  0
 16 17  2  0
 17 18  1  0
 18 19  2  0
 11 20  1  0
 20 21  1  0
 21 22  1  0
 22 23  1  0
 19  9  1  0
 23 10  1  0
 19 14  1  0
  1 24  1  0
  1 25  1  0
  1 26  1  0
  2 27  1  0
  2 28  1  0
  3 29  1  6
  4 30  1  0
  4 31  1  0
  4 32  1  0
  5 33  1  0
  5 34  1  0
  6 35  1  0
  6 36  1  0
  7 37  1  0
  7 38  1  0
  8 39  1  0
 13 40  1  0
 13 41  1  0
 13 42  1  0
 15 43  1  0
 16 44  1  0
 17 45  1  0
 18 46  1  0
 20 47  1  0
 20 48  1  0
 21 49  1  0
 21 50  1  0
 22 51  1  0
 22 52  1  0
 23 53  1  0
 23 54  1  0
M  CHG  2   3   1  12   1
M  END
>  <UniqueID>  (7) 
6

>  <SMILES>  (7) 
CC[N@H+](C)CCCNc1c2c([n+](C)c3ccccc13)CCCC2

>  <Energy>  (7) 
74.12974342126347

>  <Genealogy>  (7) 
CC[NH+](C)CCCNc1c2c([n+](C)c3ccccc13)CCCC2 (protonated)
CC[N@H+](C)CCCNc1c2c([n+](C)c3ccccc13)CCCC2 (chirality)
CC[N@H+](C)CCCNc1c2c([n+](C)c3ccccc13)CCCC2 (3D coordinates assigned)
CC[N@H+](C)CCCNc1c2c([n+](C)c3ccccc13)CCCC2 (nonaromatic ring conformer: 74.12974342126347 kcal/mol)

>  <smiles>  (7) 
CCN(C)CCCNc1c2c([n+](C)c3ccccc13)CCCC2

>  <score_type>  (7) 
oracle

>  <origin>  (7) 
adg

>  <m_score__min__energy>  (7) 
-5

>  <m_primary>  (7) 
energy

$$$$
7:0
     RDKit          3D

 45 47  0  0  0  0  0  0  0  0999 V2000
   56.9100   30.7730   43.0670 C   0  0  0  0  0  0  0  0  0  0  0  0
   55.8750   30.1250   43.9810 C   0  0  0  0  0  0  0  0  0  0  0  0
   56.4970   29.7040   45.2440 N   0  0  0  0  0  0  0  0  0  0  0  0
   56.9890   28.3210   45.1690 C   0  0  0  0  0  0  0  0  0  0  0  0
   58.4970   28.2860   44.8770 C   0  0  0  0  0  0  0  0  0  0  0  0
   59.3720   28.4630   46.1340 C   0  0  0  0  0  0  0  0  0  0  0  0
   58.5360   28.7140   47.3980 C   0  0  0  0  0  0  0  0  0  0  0  0
   58.4150   30.1150   47.6500 O   0  0  0  0  0  0  0  0  0  0  0  0
   59.4060   31.0910   47.4250 C   0  0  0  0  0  0  0  0  0  0  0  0
   60.7030   30.9540   47.9380 C   0  0  0  0  0  0  0  0  0  0  0  0
   61.6770   31.9310   47.7090 C   0  0  0  0  0  0  0  0  0  0  0  0
   62.9630   31.7540   48.2480 C   0  0  0  0  0  0  0  0  0  0  0  0
   63.9540   32.7100   48.0390 C   0  0  0  0  0  0  0  0  0  0  0  0
   63.6730   33.8490   47.2910 C   0  0  0  0  0  0  0  0  0  0  0  0
   62.4010   34.0430   46.7480 C   0  0  0  0  0  0  0  0  0  0  0  0
   61.3720   33.0880   46.9430 C   0  0  0  0  0  0  0  0  0  0  0  0
   60.0570   33.2380   46.4070 C   0  0  0  0  0  0  0  0  0  0  0  0
   59.6710   34.3590   45.6290 C   0  0  0  0  0  0  0  0  0  0  0  0
   58.3760   34.4720   45.1230 C   0  0  0  0  0  0  0  0  0  0  0  0
   57.4350   33.4810   45.3740 C   0  0  0  0  0  0  0  0  0  0  0  0
   57.7800   32.3670   46.1340 C   0  0  0  0  0  0  0  0  0  0  0  0
   59.0820   32.2270   46.6570 C   0  0  0  0  0  0  0  0  0  0  0  0
   57.6855   31.2586   43.6776 H   0  0  0  0  0  0  0  0  0  0  0  0
   57.3721   30.0026   42.4321 H   0  0  0  0  0  0  0  0  0  0  0  0
   56.4188   31.5251   42.4321 H   0  0  0  0  0  0  0  0  0  0  0  0
   55.0760   30.8502   44.1948 H   0  0  0  0  0  0  0  0  0  0  0  0
   55.4586   29.2405   43.4768 H   0  0  0  0  0  0  0  0  0  0  0  0
   55.7500   29.7280   45.9780 H   0  0  0  0  0  0  0  0  0  0  0  0
   56.7970   27.8188   46.1286 H   0  0  0  0  0  0  0  0  0  0  0  0
   56.4626   27.8065   44.3516 H   0  0  0  0  0  0  0  0  0  0  0  0
   58.7401   27.3166   44.4175 H   0  0  0  0  0  0  0  0  0  0  0  0
   58.7165   29.1317   44.2088 H   0  0  0  0  0  0  0  0  0  0  0  0
   59.9688   27.5507   46.2805 H   0  0  0  0  0  0  0  0  0  0  0  0
   60.0132   29.3426   45.9755 H   0  0  0  0  0  0  0  0  0  0  0  0
   57.5332   28.2835   47.2598 H   0  0  0  0  0  0  0  0  0  0  0  0
   59.0378   28.2412   48.2551 H   0  0  0  0  0  0  0  0  0  0  0  0
   60.9591   30.0633   48.5305 H   0  0  0  0  0  0  0  0  0  0  0  0
   63.1883   30.8541   48.8391 H   0  0  0  0  0  0  0  0  0  0  0  0
   64.9578   32.5647   48.4648 H   0  0  0  0  0  0  0  0  0  0  0  0
   64.4580   34.6018   47.1262 H   0  0  0  0  0  0  0  0  0  0  0  0
   62.1948   34.9499   46.1606 H   0  0  0  0  0  0  0  0  0  0  0  0
   60.4044   35.1520   45.4212 H   0  0  0  0  0  0  0  0  0  0  0  0
   58.0983   35.3504   44.5220 H   0  0  0  0  0  0  0  0  0  0  0  0
   56.4158   33.5769   44.9715 H   0  0  0  0  0  0  0  0  0  0  0  0
   57.0288   31.5874   46.3287 H   0  0  0  0  0  0  0  0  0  0  0  0
  1  2  1  0
  2  3  1  0
  3  4  1  0
  4  5  1  0
  5  6  1  0
  6  7  1  0
  7  8  1  0
  8  9  1  0
  9 10  2  0
 10 11  1  0
 11 12  2  0
 12 13  1  0
 13 14  2  0
 14 15  1  0
 15 16  2  0
 16 17  1  0
 17 18  2  0
 18 19  1  0
 19 20  2  0
 20 21  1  0
 21 22  2  0
 22  9  1  0
 16 11  1  0
 22 17  1  0
  1 23  1  0
  1 24  1  0
  1 25  1  0
  2 26  1  0
  2 27  1  0
  3 28  1  0
  4 29  1  0
  4 30  1  0
  5 31  1  0
  5 32  1  0
  6 33  1  0
  6 34  1  0
  7 35  1  0
  7 36  1  0
 10 37  1  0
 12 38  1  0
 13 39  1  0
 14 40  1  0
 15 41  1  0
 18 42  1  0
 19 43  1  0
 20 44  1  0
 21 45  1  0
M  END
>  <UniqueID>  (8) 
7

>  <SMILES>  (8) 
CCNCCCCOc1cc2ccccc2c2ccccc12

>  <Energy>  (8) 
54.308979375238465

>  <Genealogy>  (8) 
CCNCCCCOc1cc2ccccc2c2ccccc12 (3D coordinates assigned)
CCNCCCCOc1cc2ccccc2c2ccccc12 (optimized conformer: 54.308979375238465 kcal/mol)

>  <smiles>  (8) 
CCNCCCCOc1cc2ccccc2c2ccccc12

>  <score_type>  (8) 
oracle

>  <origin>  (8) 
adg

>  <m_score__min__energy>  (8) 
-7.9100000000000001

>  <m_primary>  (8) 
energy

$$$$
8:0
     RDKit          3D

 52 54  0  0  0  0  0  0  0  0999 V2000
   60.5950   33.5050   50.6860 C   0  0  0  0  0  0  0  0  0  0  0  0
   62.0810   33.3740   50.3170 C   0  0  0  0  0  0  0  0  0  0  0  0
   62.3350   33.1300   48.8740 N   0  0  0  0  0  0  0  0  0  0  0  0
   63.0940   34.1980   48.1850 C   0  0  0  0  0  0  0  0  0  0  0  0
   63.3860   33.8400   46.7270 C   0  0  0  0  0  0  0  0  0  0  0  0
   62.8970   31.7840   48.6180 C   0  0  0  0  0  0  0  0  0  0  0  0
   61.9660   31.0070   47.6860 C   0  0  0  0  0  0  0  0  0  0  0  0
   60.6250   31.5870   47.6860 N   0  0  0  0  0  0  0  0  0  0  0  0
   59.7370   31.3460   46.5890 C   0  0  0  0  0  0  0  0  0  0  0  0
   59.0610   32.3980   45.9840 C   0  0  0  0  0  0  0  0  0  0  0  0
   58.1940   32.1900   44.9430 C   0  0  0  0  0  0  0  0  0  0  0  0
   57.9550   30.9360   44.4370 N   0  0  0  0  0  0  0  0  0  0  0  0
   57.0140   30.7850   43.3050 C   0  0  0  0  0  0  0  0  0  0  0  0
   55.7330   30.0830   43.7540 C   0  0  0  0  0  0  0  0  0  0  0  0
   58.6380   29.8530   44.9790 C   0  0  0  0  0  0  0  0  0  0  0  0
   58.4850   28.5370   44.4740 C   0  0  0  0  0  0  0  0  0  0  0  0
   59.1700   27.4630   45.0450 C   0  0  0  0  0  0  0  0  0  0  0  0
   60.0240   27.6650   46.1250 C   0  0  0  0  0  0  0  0  0  0  0  0
   60.2100   28.9460   46.6390 C   0  0  0  0  0  0  0  0  0  0  0  0
   59.5360   30.0470   46.0780 C   0  0  0  0  0  0  0  0  0  0  0  0
   57.5980   33.4890   44.4630 C   0  0  0  0  0  0  0  0  0  0  0  0
   58.2580   34.5790   45.3330 C   0  0  0  0  0  0  0  0  0  0  0  0
   59.1440   33.8160   46.2550 C   0  0  0  0  0  0  0  0  0  0  0  0
   59.8850   34.3480   47.1240 O   0  0  0  0  0  0  0  0  0  0  0  0
   60.4885   33.5144   51.7808 H   0  0  0  0  0  0  0  0  0  0  0  0
   60.1953   34.4419   50.2707 H   0  0  0  0  0  0  0  0  0  0  0  0
   60.0375   32.6525   50.2707 H   0  0  0  0  0  0  0  0  0  0  0  0
   62.5902   34.3061   50.6033 H   0  0  0  0  0  0  0  0  0  0  0  0
   62.4623   32.4944   50.8563 H   0  0  0  0  0  0  0  0  0  0  0  0
   62.5054   35.1268   48.2121 H   0  0  0  0  0  0  0  0  0  0  0  0
   64.0555   34.3227   48.7047 H   0  0  0  0  0  0  0  0  0  0  0  0
   64.0809   32.9880   46.6907 H   0  0  0  0  0  0  0  0  0  0  0  0
   62.4476   33.5696   46.2208 H   0  0  0  0  0  0  0  0  0  0  0  0
   63.8396   34.7049   46.2208 H   0  0  0  0  0  0  0  0  0  0  0  0
   63.8861   31.8839   48.1471 H   0  0  0  0  0  0  0  0  0  0  0  0
   62.9951   31.2424   49.5704 H   0  0  0  0  0  0  0  0  0  0  0  0
   62.3717   31.0379   46.6640 H   0  0  0  0  0  0  0  0  0  0  0  0
   61.8995   29.9683   48.0419 H   0  0  0  0  0  0  0  0  0  0  0  0
   60.3530   32.3030   48.3970 H   0  0  0  0  0  0  0  0  0  0  0  0
   56.7607   31.7804   42.9114 H   0  0  0  0  0  0  0  0  0  0  0  0
   57.4951   30.1760   42.5255 H   0  0  0  0  0  0  0  0  0  0  0  0
   55.6929   30.0610   44.8530 H   0  0  0  0  0  0  0  0  0  0  0  0
   54.8604   30.6290   43.3661 H   0  0  0  0  0  0  0  0  0  0  0  0
   55.7237   29.0537   43.3661 H   0  0  0  0  0  0  0  0  0  0  0  0
   57.8161   28.3595   43.6190 H   0  0  0  0  0  0  0  0  0  0  0  0
   59.0338   26.4500   44.6384 H   0  0  0  0  0  0  0  0  0  0  0  0
   60.5531   26.8113   46.5736 H   0  0  0  0  0  0  0  0  0  0  0  0
   60.8894   29.0986   47.4906 H   0  0  0  0  0  0  0  0  0  0  0  0
   57.8294   33.6507   43.3998 H   0  0  0  0  0  0  0  0  0  0  0  0
   56.5017   33.4977   44.5524 H   0  0  0  0  0  0  0  0  0  0  0  0
   58.8441   35.2729   44.7125 H   0  0  0  0  0  0  0  0  0  0  0  0
   57.5220   35.1972   45.8679 H   0  0  0  0  0  0  0  0  0  0  0  0
  1  2  1  0
  2  3  1  0
  3  4  1  0
  4  5  1  0
  3  6  1  0
  6  7  1  0
  7  8  1  0
  8  9  1  0
  9 10  2  0
 10 11  1  0
 11 12  2  0
 12 13  1  0
 13 14  1  0
 12 15  1  0
 15 16  2  0
 16 17  1  0
 17 18  2  0
 18 19  1  0
 19 20  2  0
 11 21  1  0
 21 22  1  0
 22 23  1  0
 23 24  2  0
 20  9  1  0
 23 10  1  0
 20 15  1  0
  1 25  1  0
  1 26  1  0
  1 27  1  0
  2 28  1  0
  2 29  1  0
  4 30  1  0
  4 31  1  0
  5 32  1  0
  5 33  1  0
  5 34  1  0
  6 35  1  0
  6 36  1  0
  7 37  1  0
  7 38  1  0
  8 39  1  0
 13 40  1  0
 13 41  1  0
 14 42  1  0
 14 43  1  0
 14 44  1  0
 16 45  1  0
 17 46  1  0
 18 47  1  0
 19 48  1  0
 21 49  1  0
 21 50  1  0
 22 51  1  0
 22 52  1  0
M  CHG  1  12   1
M  END
>  <UniqueID>  (9) 
8

>  <SMILES>  (9) 
CCN(CC)CCNc1c2c([n+](CC)c3ccccc13)CCC2=O

>  <Energy>  (9) 
80.41737122971482

>  <Genealogy>  (9) 
CCN(CC)CCNc1c2c([n+](CC)c3ccccc13)CCC2=O (3D coordinates assigned)
CCN(CC)CCNc1c2c([n+](CC)c3ccccc13)CCC2=O (nonaromatic ring conformer: 80.41737122971482 kcal/mol)

>  <smiles>  (9) 
CCN(CC)CCNc1c2c([n+](CC)c3ccccc13)CCC2=O

>  <score_type>  (9) 
oracle

>  <origin>  (9) 
adg

>  <m_score__min__energy>  (9) 
-5.2199999999999998

>  <m_primary>  (9) 
energy

$$$$
9:0
     RDKit          3D

 58 61  0  0  0  0  0  0  0  0999 V2000
   62.8560   33.7580   46.7120 C   0  0  0  0  0  0  0  0  0  0  0  0
   63.4370   32.4210   47.1720 C   0  0  0  0  0  0  0  0  0  0  0  0
   62.3830   31.5050   47.8170 C   0  0  0  0  0  0  0  0  0  0  0  0
   62.2030   31.7180   49.3340 C   0  0  0  0  0  0  0  0  0  0  0  0
   62.4000   30.4760   50.1200 N   0  0  0  0  0  0  0  0  0  0  0  0
   61.3600   30.2690   51.1550 C   0  0  0  0  0  0  0  0  0  0  0  0
   60.1440   29.4770   50.6380 C   0  0  0  0  0  0  0  0  0  0  0  0
   60.2810   29.0700   49.1660 C   0  0  0  0  0  0  0  0  0  0  0  0
   58.9650   28.8950   48.5530 N   0  0  0  0  0  0  0  0  0  0  0  0
   58.6990   29.4150   47.2450 C   0  0  0  0  0  0  0  0  0  0  0  0
   58.7390   30.7870   47.0130 C   0  0  0  0  0  0  0  0  0  0  0  0
   58.5400   31.2970   45.7450 C   0  0  0  0  0  0  0  0  0  0  0  0
   58.1720   30.4980   44.6910 N   0  0  0  0  0  0  0  0  0  0  0  0
   57.6570   31.1040   43.4510 C   0  0  0  0  0  0  0  0  0  0  0  0
   58.2320   29.1230   44.8510 C   0  0  0  0  0  0  0  0  0  0  0  0
   58.0780   28.2370   43.7580 C   0  0  0  0  0  0  0  0  0  0  0  0
   58.1090   26.8540   43.9440 C   0  0  0  0  0  0  0  0  0  0  0  0
   58.3050   26.3190   45.2140 C   0  0  0  0  0  0  0  0  0  0  0  0
   58.4940   27.1610   46.3070 C   0  0  0  0  0  0  0  0  0  0  0  0
   58.4810   28.5600   46.1440 C   0  0  0  0  0  0  0  0  0  0  0  0
   58.7930   32.7430   45.8000 C   0  0  0  0  0  0  0  0  0  0  0  0
   58.9400   33.7020   44.7850 C   0  0  0  0  0  0  0  0  0  0  0  0
   59.2750   35.0170   45.1440 C   0  0  0  0  0  0  0  0  0  0  0  0
   59.5030   35.3520   46.4900 C   0  0  0  0  0  0  0  0  0  0  0  0
   59.4210   34.3690   47.4860 C   0  0  0  0  0  0  0  0  0  0  0  0
   59.0760   33.0680   47.1170 C   0  0  0  0  0  0  0  0  0  0  0  0
   59.0510   31.8680   48.0080 C   0  0  0  0  0  0  0  0  0  0  0  0
   62.5923   34.3649   47.5907 H   0  0  0  0  0  0  0  0  0  0  0  0
   63.6026   34.2935   46.1072 H   0  0  0  0  0  0  0  0  0  0  0  0
   61.9551   33.5776   46.1072 H   0  0  0  0  0  0  0  0  0  0  0  0
   63.8652   31.9049   46.3000 H   0  0  0  0  0  0  0  0  0  0  0  0
   64.2008   32.6357   47.9339 H   0  0  0  0  0  0  0  0  0  0  0  0
   61.4168   31.6915   47.3255 H   0  0  0  0  0  0  0  0  0  0  0  0
   62.7373   30.4723   47.6828 H   0  0  0  0  0  0  0  0  0  0  0  0
   62.9344   32.4668   49.6722 H   0  0  0  0  0  0  0  0  0  0  0  0
   61.1680   32.0518   49.4993 H   0  0  0  0  0  0  0  0  0  0  0  0
   63.3370   30.4850   50.5860 H   0  0  0  0  0  0  0  0  0  0  0  0
   62.4200   29.6590   49.4650 H   0  0  0  0  0  0  0  0  0  0  0  0
   61.8066   29.7165   51.9948 H   0  0  0  0  0  0  0  0  0  0  0  0
   60.9992   31.2619   51.4615 H   0  0  0  0  0  0  0  0  0  0  0  0
   60.0337   28.5666   51.2454 H   0  0  0  0  0  0  0  0  0  0  0  0
   59.2638   30.1317   50.7196 H   0  0  0  0  0  0  0  0  0  0  0  0
   60.8302   29.8542   48.6243 H   0  0  0  0  0  0  0  0  0  0  0  0
   60.8256   28.1158   49.1124 H   0  0  0  0  0  0  0  0  0  0  0  0
   58.1590   28.5460   49.1190 H   0  0  0  0  0  0  0  0  0  0  0  0
   56.9635   31.9200   43.7022 H   0  0  0  0  0  0  0  0  0  0  0  0
   58.4959   31.5038   42.8624 H   0  0  0  0  0  0  0  0  0  0  0  0
   57.1271   30.3406   42.8624 H   0  0  0  0  0  0  0  0  0  0  0  0
   57.9317   28.6445   42.7468 H   0  0  0  0  0  0  0  0  0  0  0  0
   57.9778   26.1831   43.0822 H   0  0  0  0  0  0  0  0  0  0  0  0
   58.3106   25.2280   45.3547 H   0  0  0  0  0  0  0  0  0  0  0  0
   58.6548   26.7299   47.3061 H   0  0  0  0  0  0  0  0  0  0  0  0
   58.7955   33.4282   43.7295 H   0  0  0  0  0  0  0  0  0  0  0  0
   59.3597   35.7907   44.3667 H   0  0  0  0  0  0  0  0  0  0  0  0
   59.7467   36.3894   46.7628 H   0  0  0  0  0  0  0  0  0  0  0  0
   59.6246   34.6182   48.5379 H   0  0  0  0  0  0  0  0  0  0  0  0
   60.0244   31.7033   48.4931 H   0  0  0  0  0  0  0  0  0  0  0  0
   58.3405   31.9362   48.8450 H   0  0  0  0  0  0  0  0  0  0  0  0
  1  2  1  0
  2  3  1  0
  3  4  1  0
  4  5  1  0
  5  6  1  0
  6  7  1  0
  7  8  1  0
  8  9  1  0
  9 10  1  0
 10 11  2  0
 11 12  1  0
 12 13  2  0
 13 14  1  0
 13 15  1  0
 15 16  2  0
 16 17  1  0
 17 18  2  0
 18 19  1  0
 19 20  2  0
 12 21  1  0
 21 22  2  0
 22 23  1  0
 23 24  2  0
 24 25  1  0
 25 26  2  0
 26 27  1  0
 20 10  1  0
 26 21  1  0
 27 11  1  0
 20 15  1  0
  1 28  1  0
  1 29  1  0
  1 30  1  0
  2 31  1  0
  2 32  1  0
  3 33  1  0
  3 34  1  0
  4 35  1  0
  4 36  1  0
  5 37  1  0
  5 38  1  0
  6 39  1  0
  6 40  1  0
  7 41  1  0
  7 42  1  0
  8 43  1  0
  8 44  1  0
  9 45  1  0
 14 46  1  0
 14 47  1  0
 14 48  1  0
 16 49  1  0
 17 50  1  0
 18 51  1  0
 19 52  1  0
 22 53  1  0
 23 54  1  0
 24 55  1  0
 25 56  1  0
 27 57  1  0
 27 58  1  0
M  CHG  2   5   1  13   1
M  END
>  <UniqueID>  (10) 
9

>  <SMILES>  (10) 
CCCC[NH2+]CCCNc1c2c([n+](C)c3ccccc13)-c1ccccc1C2

>  <Energy>  (10) 
99.697803711658

>  <Genealogy>  (10) 
CCCC[NH2+]CCCNc1c2c([n+](C)c3ccccc13)-c1ccccc1C2 (protonated)
CCCC[NH2+]CCCNc1c2c([n+](C)c3ccccc13)-c1ccccc1C2 (3D coordinates assigned)
CCCC[NH2+]CCCNc1c2c([n+](C)c3ccccc13)-c1ccccc1C2 (nonaromatic ring conformer: 99.697803711658 kcal/mol)

>  <smiles>  (10) 
CCCCNCCCNc1c2c([n+](C)c3ccccc13)-c1ccccc1C2

>  <score_type>  (10) 
oracle

>  <origin>  (10) 
adg

>  <m_score__min__energy>  (10) 
-4.8700000000000001

>  <m_primary>  (10) 
energy

$$$$
10:0
     RDKit          3D

 64 67  0  0  0  0  0  0  0  0999 V2000
   57.3310   25.1020   44.5500 C   0  0  0  0  0  0  0  0  0  0  0  0
   56.2380   25.1470   45.6130 C   0  0  0  0  0  0  0  0  0  0  0  0
   56.0160   26.4870   46.0550 O   0  0  0  0  0  0  0  0  0  0  0  0
   57.0030   27.4760   46.2130 C   0  0  0  0  0  0  0  0  0  0  0  0
   58.1730   27.2610   46.9670 C   0  0  0  0  0  0  0  0  0  0  0  0
   59.1330   28.2730   47.1050 C   0  0  0  0  0  0  0  0  0  0  0  0
   58.9440   29.5040   46.4500 C   0  0  0  0  0  0  0  0  0  0  0  0
   57.7670   29.7290   45.7230 C   0  0  0  0  0  0  0  0  0  0  0  0
   56.7950   28.7180   45.5960 C   0  0  0  0  0  0  0  0  0  0  0  0
   55.6040   28.9050   44.8710 O   0  0  0  0  0  0  0  0  0  0  0  0
   55.4370   29.7700   43.7480 C   0  0  0  0  0  0  0  0  0  0  0  0
   56.5530   29.5620   42.7300 C   0  0  0  0  0  0  0  0  0  0  0  0
   59.9480   30.6230   46.6040 C   0  0  0  0  0  0  0  0  0  0  0  0
   61.2760   30.1140   47.0110 N   0  0  0  0  0  0  0  0  0  0  0  0
   62.2210   31.2350   47.2180 C   0  0  0  0  0  0  0  0  0  0  0  0
   61.4710   32.5730   47.2880 C   0  0  0  0  0  0  0  0  0  0  0  0
   61.6940   33.2410   48.5910 N   0  0  0  0  0  0  0  0  0  0  0  0
   60.6560   34.2410   48.9120 C   0  0  0  0  0  0  0  0  0  0  0  0
   59.2740   33.5990   49.1000 C   0  0  0  0  0  0  0  0  0  0  0  0
   59.3360   32.3570   49.9500 C   0  0  0  0  0  0  0  0  0  0  0  0
   58.1430   31.8030   50.4410 C   0  0  0  0  0  0  0  0  0  0  0  0
   58.1540   30.6190   51.1840 C   0  0  0  0  0  0  0  0  0  0  0  0
   56.9320   30.1160   51.6550 O   0  0  0  0  0  0  0  0  0  0  0  0
   55.9240   30.9090   52.2760 C   0  0  0  0  0  0  0  0  0  0  0  0
   59.3800   29.9730   51.4290 C   0  0  0  0  0  0  0  0  0  0  0  0
   60.5700   30.5080   50.9320 C   0  0  0  0  0  0  0  0  0  0  0  0
   60.5580   31.6910   50.1780 C   0  0  0  0  0  0  0  0  0  0  0  0
   61.8670   32.2800   49.7020 C   0  0  0  0  0  0  0  0  0  0  0  0
   61.1380   29.2900   48.2280 C   0  0  0  0  0  0  0  0  0  0  0  0
   60.3930   27.9980   47.8860 C   0  0  0  0  0  0  0  0  0  0  0  0
   58.3159   25.0615   45.0382 H   0  0  0  0  0  0  0  0  0  0  0  0
   57.1957   24.2087   43.9226 H   0  0  0  0  0  0  0  0  0  0  0  0
   57.2696   26.0034   43.9226 H   0  0  0  0  0  0  0  0  0  0  0  0
   55.3051   24.7480   45.1883 H   0  0  0  0  0  0  0  0  0  0  0  0
   56.5571   24.5400   46.4731 H   0  0  0  0  0  0  0  0  0  0  0  0
   58.3353   26.2877   47.4532 H   0  0  0  0  0  0  0  0  0  0  0  0
   57.6007   30.7063   45.2463 H   0  0  0  0  0  0  0  0  0  0  0  0
   54.4694   29.5570   43.2701 H   0  0  0  0  0  0  0  0  0  0  0  0
   55.4712   30.8120   44.0989 H   0  0  0  0  0  0  0  0  0  0  0  0
   57.5020   29.3851   43.2573 H   0  0  0  0  0  0  0  0  0  0  0  0
   56.3165   28.6925   42.0991 H   0  0  0  0  0  0  0  0  0  0  0  0
   56.6456   30.4584   42.0991 H   0  0  0  0  0  0  0  0  0  0  0  0
   60.0468   31.1482   45.6425 H   0  0  0  0  0  0  0  0  0  0  0  0
   59.5859   31.3031   47.3891 H   0  0  0  0  0  0  0  0  0  0  0  0
   62.7668   31.0776   48.1600 H   0  0  0  0  0  0  0  0  0  0  0  0
   62.9219   31.2670   46.3708 H   0  0  0  0  0  0  0  0  0  0  0  0
   61.8305   33.2291   46.4816 H   0  0  0  0  0  0  0  0  0  0  0  0
   60.3945   32.3768   47.1754 H   0  0  0  0  0  0  0  0  0  0  0  0
   60.9366   34.7575   49.8418 H   0  0  0  0  0  0  0  0  0  0  0  0
   60.5909   34.9443   48.0687 H   0  0  0  0  0  0  0  0  0  0  0  0
   58.6077   34.3276   49.5849 H   0  0  0  0  0  0  0  0  0  0  0  0
   58.8968   33.3113   48.1076 H   0  0  0  0  0  0  0  0  0  0  0  0
   57.1868   32.3075   50.2383 H   0  0  0  0  0  0  0  0  0  0  0  0
   56.0198   30.8336   53.3692 H   0  0  0  0  0  0  0  0  0  0  0  0
   56.0423   31.9587   51.9691 H   0  0  0  0  0  0  0  0  0  0  0  0
   54.9317   30.5469   51.9691 H   0  0  0  0  0  0  0  0  0  0  0  0
   59.4009   29.0422   52.0148 H   0  0  0  0  0  0  0  0  0  0  0  0
   61.5238   29.9983   51.1331 H   0  0  0  0  0  0  0  0  0  0  0  0
   62.3453   32.8001   50.5450 H   0  0  0  0  0  0  0  0  0  0  0  0
   62.4863   31.4511   49.3288 H   0  0  0  0  0  0  0  0  0  0  0  0
   62.1360   29.0451   48.6204 H   0  0  0  0  0  0  0  0  0  0  0  0
   60.5729   29.8495   48.9881 H   0  0  0  0  0  0  0  0  0  0  0  0
   61.0521   27.3545   47.2848 H   0  0  0  0  0  0  0  0  0  0  0  0
   60.1126   27.5034   48.8277 H   0  0  0  0  0  0  0  0  0  0  0  0
  1  2  1  0
  2  3  1  0
  3  4  1  0
  4  5  2  0
  5  6  1  0
  6  7  2  0
  7  8  1  0
  8  9  2  0
  9 10  1  0
 10 11  1  0
 11 12  1  0
  7 13  1  0
 13 14  1  0
 14 15  1  0
 15 16  1  0
 16 17  1  0
 17 18  1  0
 18 19  1  0
 19 20  1  0
 20 21  2  0
 21 22  1  0
 22 23  1  0
 23 24  1  0
 22 25  2  0
 25 26  1  0
 26 27  2  0
 27 28  1  0
 14 29  1  0
 29 30  1  0
  9  4  1  0
 28 17  1  0
 30  6  1  0
 27 20  1  0
  1 31  1  0
  1 32  1  0
  1 33  1  0
  2 34  1  0
  2 35  1  0
  5 36  1  0
  8 37  1  0
 11 38  1  0
 11 39  1  0
 12 40  1  0
 12 41  1  0
 12 42  1  0
 13 43  1  0
 13 44  1  0
 15 45  1  0
 15 46  1  0
 16 47  1  0
 16 48  1  0
 18 49  1  0
 18 50  1  0
 19 51  1  0
 19 52  1  0
 21 53  1  0
 24 54  1  0
 24 55  1  0
 24 56  1  0
 25 57  1  0
 26 58  1  0
 28 59  1  0
 28 60  1  0
 29 61  1  0
 29 62  1  0
 30 63  1  0
 30 64  1  0
M  END
>  <UniqueID>  (11) 
10

>  <SMILES>  (11) 
CCOc1cc2c(cc1OCC)CN(CCN1CCc3cc(OC)ccc3C1)CC2

>  <Energy>  (11) 
71.04652613428246

>  <Genealogy>  (11) 
CCOc1cc2c(cc1OCC)CN(CCN1CCc3cc(OC)ccc3C1)CC2 (3D coordinates assigned)
CCOc1cc2c(cc1OCC)CN(CCN1CCc3cc(OC)ccc3C1)CC2 (nonaromatic ring conformer: 71.04652613428246 kcal/mol)

>  <smiles>  (11) 
CCOc1cc2c(cc1OCC)CN(CCN1CCc3cc(OC)ccc3C1)CC2

>  <score_type>  (11) 
oracle

>  <origin>  (11) 
adg

>  <m_score__min__energy>  (11) 
-8.1199999999999992

>  <m_primary>  (11) 
energy

$$$$
11:0
     RDKit          3D

 40 42  0  0  0  0  0  0  0  0999 V2000
   63.3020   33.9020   46.3810 C   0  0  0  0  0  0  0  0  0  0  0  0
   63.5850   32.9980   47.5720 C   0  0  0  0  0  0  0  0  0  0  0  0
   62.9520   31.7530   47.3680 O   0  0  0  0  0  0  0  0  0  0  0  0
   62.3720   31.3160   48.5780 C   0  0  0  0  0  0  0  0  0  0  0  0
   61.1010   30.5180   48.2640 C   0  0  0  0  0  0  0  0  0  0  0  0
   60.9250   30.2840   46.8210 N   0  0  0  0  0  0  0  0  0  0  0  0
   59.5290   30.2320   46.4540 C   0  0  0  0  0  0  0  0  0  0  0  0
   58.7140   31.3100   46.1100 C   0  0  0  0  0  0  0  0  0  0  0  0
   59.0480   32.7440   46.1780 C   0  0  0  0  0  0  0  0  0  0  0  0
   58.8560   33.5630   45.0560 C   0  0  0  0  0  0  0  0  0  0  0  0
   59.1630   34.9230   45.1220 C   0  0  0  0  0  0  0  0  0  0  0  0
   59.6450   35.4580   46.3170 C   0  0  0  0  0  0  0  0  0  0  0  0
   59.8020   34.6590   47.4050 N   0  0  0  0  0  0  0  0  0  0  0  0
   59.5140   33.3300   47.3650 C   0  0  0  0  0  0  0  0  0  0  0  0
   57.5420   30.8530   45.6060 N   0  0  0  0  0  0  0  0  0  0  0  0
   57.6690   29.5120   45.6650 C   0  0  0  0  0  0  0  0  0  0  0  0
   56.7160   28.5900   45.2370 C   0  0  0  0  0  0  0  0  0  0  0  0
   57.0320   27.2270   45.3370 C   0  0  0  0  0  0  0  0  0  0  0  0
   58.2790   26.8240   45.8510 C   0  0  0  0  0  0  0  0  0  0  0  0
   59.2020   27.7940   46.2660 C   0  0  0  0  0  0  0  0  0  0  0  0
   58.8520   29.1050   46.1620 N   0  0  0  0  0  0  0  0  0  0  0  0
   62.9913   34.8944   46.7396 H   0  0  0  0  0  0  0  0  0  0  0  0
   64.2122   34.0008   45.7712 H   0  0  0  0  0  0  0  0  0  0  0  0
   62.4979   33.4642   45.7712 H   0  0  0  0  0  0  0  0  0  0  0  0
   64.6702   32.8476   47.6706 H   0  0  0  0  0  0  0  0  0  0  0  0
   63.1988   33.4638   48.4906 H   0  0  0  0  0  0  0  0  0  0  0  0
   63.0849   30.6760   49.1185 H   0  0  0  0  0  0  0  0  0  0  0  0
   62.1197   32.1848   49.2037 H   0  0  0  0  0  0  0  0  0  0  0  0
   61.1598   29.5455   48.7746 H   0  0  0  0  0  0  0  0  0  0  0  0
   60.2409   31.1072   48.6147 H   0  0  0  0  0  0  0  0  0  0  0  0
   61.4240   31.0200   46.2730 H   0  0  0  0  0  0  0  0  0  0  0  0
   61.3770   29.3770   46.5760 H   0  0  0  0  0  0  0  0  0  0  0  0
   58.4630   33.1332   44.1228 H   0  0  0  0  0  0  0  0  0  0  0  0
   59.0263   35.5667   44.2405 H   0  0  0  0  0  0  0  0  0  0  0  0
   59.8980   36.5267   46.3785 H   0  0  0  0  0  0  0  0  0  0  0  0
   59.6468   32.7128   48.2658 H   0  0  0  0  0  0  0  0  0  0  0  0
   55.7473   28.9202   44.8338 H   0  0  0  0  0  0  0  0  0  0  0  0
   56.3026   26.4702   45.0125 H   0  0  0  0  0  0  0  0  0  0  0  0
   58.5275   25.7551   45.9265 H   0  0  0  0  0  0  0  0  0  0  0  0
   60.1846   27.5028   46.6657 H   0  0  0  0  0  0  0  0  0  0  0  0
  1  2  1  0
  2  3  1  0
  3  4  1  0
  4  5  1  0
  5  6  1  0
  6  7  1  0
  7  8  2  0
  8  9  1  0
  9 10  2  0
 10 11  1  0
 11 12  2  0
 12 13  1  0
 13 14  2  0
  8 15  1  0
 15 16  2  0
 16 17  1  0
 17 18  2  0
 18 19  1  0
 19 20  2  0
 20 21  1  0
 21  7  1  0
 14  9  1  0
 21 16  1  0
  1 22  1  0
  1 23  1  0
  1 24  1  0
  2 25  1  0
  2 26  1  0
  4 27  1  0
  4 28  1  0
  5 29  1  0
  5 30  1  0
  6 31  1  0
  6 32  1  0
 10 33  1  0
 11 34  1  0
 12 35  1  0
 14 36  1  0
 17 37  1  0
 18 38  1  0
 19 39  1  0
 20 40  1  0
M  CHG  1   6   1
M  END
>  <UniqueID>  (12) 
11

>  <SMILES>  (12) 
CCOCC[NH2+]c1c(-c2cccnc2)nc2ccccn12

>  <Energy>  (12) 
80.47973156266609

>  <Genealogy>  (12) 
CCOCC[NH2+]c1c(-c2cccnc2)nc2ccccn12 (protonated)
CCOCC[NH2+]c1c(-c2cccnc2)nc2ccccn12 (3D coordinates assigned)
CCOCC[NH2+]c1c(-c2cccnc2)nc2ccccn12 (optimized conformer: 80.47973156266609 kcal/mol)

>  <smiles>  (12) 
CCOCCNc1c(-c2cccnc2)nc2ccccn12

>  <score_type>  (12) 
oracle

>  <origin>  (12) 
adg

>  <m_score__min__energy>  (12) 
-4.5099999999999998

>  <m_primary>  (12) 
energy

$$$$
12:0
     RDKit          3D

 56 57  0  0  0  0  0  0  0  0999 V2000
   61.7350   31.2700   47.2420 C   0  0  0  0  0  0  0  0  0  0  0  0
   60.6930   30.2000   46.9130 C   0  0  0  0  0  0  0  0  0  0  0  0
   60.1900   29.4580   48.1610 C   0  0  0  0  0  0  0  0  0  0  0  0
   59.4150   28.1780   47.8140 C   0  0  0  0  0  0  0  0  0  0  0  0
   60.3490   26.9620   47.7790 C   0  0  0  0  0  0  0  0  0  0  0  0
   60.2570   26.2350   46.4340 C   0  0  0  0  0  0  0  0  0  0  0  0
   59.2610   25.2150   46.4790 O   0  0  0  0  0  0  0  0  0  0  0  0
   59.2980   24.0650   45.6830 C   0  0  0  0  0  0  0  0  0  0  0  0
   60.3400   23.3590   45.6160 O   0  0  0  0  0  0  0  0  0  0  0  0
   58.0960   23.6900   44.8750 C   0  0  0  0  0  0  0  0  0  0  0  0
   56.8900   24.5390   45.2780 C   0  0  0  0  0  0  0  0  0  0  0  0
   57.0140   25.8850   44.7250 N   0  0  0  0  0  0  0  0  0  0  0  0
   56.9660   27.0620   45.5510 C   0  0  0  0  0  0  0  0  0  0  0  0
   56.7160   26.9490   46.7820 O   0  0  0  0  0  0  0  0  0  0  0  0
   57.1920   28.4120   44.9770 C   0  0  0  0  0  0  0  0  0  0  0  0
   58.5020   28.8590   44.7250 C   0  0  0  0  0  0  0  0  0  0  0  0
   58.7280   30.1260   44.1790 C   0  0  0  0  0  0  0  0  0  0  0  0
   57.6490   30.9680   43.8620 C   0  0  0  0  0  0  0  0  0  0  0  0
   57.8800   32.3160   43.2920 C   0  0  0  0  0  0  0  0  0  0  0  0
   58.0410   32.4410   42.0480 O   0  0  0  0  0  0  0  0  0  0  0  0
   57.8800   33.4980   44.1040 N   0  0  0  0  0  0  0  0  0  0  0  0
   58.3520   33.5980   45.4560 C   0  0  0  0  0  0  0  0  0  0  0  0
   59.3660   34.5190   45.7510 C   0  0  0  0  0  0  0  0  0  0  0  0
   59.8760   34.6140   47.0500 C   0  0  0  0  0  0  0  0  0  0  0  0
   59.3840   33.7830   48.0610 C   0  0  0  0  0  0  0  0  0  0  0  0
   60.0290   33.9000   49.6880 Cl  0  0  0  0  0  0  0  0  0  0  0  0
   58.3880   32.8450   47.7690 C   0  0  0  0  0  0  0  0  0  0  0  0
   57.8790   32.7440   46.4710 C   0  0  0  0  0  0  0  0  0  0  0  0
   56.3430   30.5260   44.1160 C   0  0  0  0  0  0  0  0  0  0  0  0
   56.1140   29.2580   44.6580 C   0  0  0  0  0  0  0  0  0  0  0  0
   61.8292   31.3667   48.3337 H   0  0  0  0  0  0  0  0  0  0  0  0
   62.7061   30.9798   46.8145 H   0  0  0  0  0  0  0  0  0  0  0  0
   61.4192   32.2331   46.8145 H   0  0  0  0  0  0  0  0  0  0  0  0
   59.8357   30.6831   46.4215 H   0  0  0  0  0  0  0  0  0  0  0  0
   61.1735   29.4590   46.2572 H   0  0  0  0  0  0  0  0  0  0  0  0
   61.0559   29.1880   48.7834 H   0  0  0  0  0  0  0  0  0  0  0  0
   59.5017   30.1304   48.6940 H   0  0  0  0  0  0  0  0  0  0  0  0
   58.6366   28.0119   48.5733 H   0  0  0  0  0  0  0  0  0  0  0  0
   58.9628   28.3012   46.8188 H   0  0  0  0  0  0  0  0  0  0  0  0
   61.3843   27.2995   47.9350 H   0  0  0  0  0  0  0  0  0  0  0  0
   60.0457   26.2653   48.5744 H   0  0  0  0  0  0  0  0  0  0  0  0
   59.9962   26.9599   45.6489 H   0  0  0  0  0  0  0  0  0  0  0  0
   61.2298   25.7699   46.2163 H   0  0  0  0  0  0  0  0  0  0  0  0
   58.3122   23.8523   43.8087 H   0  0  0  0  0  0  0  0  0  0  0  0
   57.8615   22.6312   45.0590 H   0  0  0  0  0  0  0  0  0  0  0  0
   55.9716   24.0713   44.8936 H   0  0  0  0  0  0  0  0  0  0  0  0
   56.8471   24.6041   46.3752 H   0  0  0  0  0  0  0  0  0  0  0  0
   56.9890   25.9790   43.6860 H   0  0  0  0  0  0  0  0  0  0  0  0
   59.3556   28.2061   44.9596 H   0  0  0  0  0  0  0  0  0  0  0  0
   59.7580   30.4661   43.9963 H   0  0  0  0  0  0  0  0  0  0  0  0
   59.7625   35.1699   44.9579 H   0  0  0  0  0  0  0  0  0  0  0  0
   60.6664   35.3446   47.2768 H   0  0  0  0  0  0  0  0  0  0  0  0
   58.0048   32.1860   48.5620 H   0  0  0  0  0  0  0  0  0  0  0  0
   57.1066   31.9951   46.2417 H   0  0  0  0  0  0  0  0  0  0  0  0
   55.4909   31.1828   43.8868 H   0  0  0  0  0  0  0  0  0  0  0  0
   55.0829   28.9190   44.8365 H   0  0  0  0  0  0  0  0  0  0  0  0
  1  2  1  0
  2  3  1  0
  3  4  1  0
  4  5  1  0
  5  6  1  0
  6  7  1  0
  7  8  1  0
  8  9  2  0
  8 10  1  0
 10 11  1  0
 11 12  1  0
 12 13  1  0
 13 14  2  0
 13 15  1  0
 15 16  2  0
 16 17  1  0
 17 18  2  0
 18 19  1  0
 19 20  2  0
 19 21  1  0
 21 22  1  0
 22 23  2  0
 23 24  1  0
 24 25  2  0
 25 26  1  0
 25 27  1  0
 27 28  2  0
 18 29  1  0
 29 30  2  0
 30 15  1  0
 28 22  1  0
  1 31  1  0
  1 32  1  0
  1 33  1  0
  2 34  1  0
  2 35  1  0
  3 36  1  0
  3 37  1  0
  4 38  1  0
  4 39  1  0
  5 40  1  0
  5 41  1  0
  6 42  1  0
  6 43  1  0
 10 44  1  0
 10 45  1  0
 11 46  1  0
 11 47  1  0
 12 48  1  0
 16 49  1  0
 17 50  1  0
 23 51  1  0
 24 52  1  0
 27 53  1  0
 28 54  1  0
 29 55  1  0
 30 56  1  0
M  CHG  1  21  -1
M  END
>  <UniqueID>  (13) 
12

>  <SMILES>  (13) 
CCCCCCOC(=O)CCNC(=O)c1ccc(C(=O)[N-]c2ccc(Cl)cc2)cc1

>  <Energy>  (13) 
48.681532711933606

>  <Genealogy>  (13) 
CCCCCCOC(=O)CCNC(=O)c1ccc(C(=O)[N-]c2ccc(Cl)cc2)cc1 (protonated)
CCCCCCOC(=O)CCNC(=O)c1ccc(C(=O)[N-]c2ccc(Cl)cc2)cc1 (3D coordinates assigned)
CCCCCCOC(=O)CCNC(=O)c1ccc(C(=O)[N-]c2ccc(Cl)cc2)cc1 (optimized conformer: 48.681532711933606 kcal/mol)

>  <smiles>  (13) 
CCCCCCOC(=O)CCNC(=O)c1ccc(C(=O)Nc2ccc(Cl)cc2)cc1

>  <score_type>  (13) 
oracle

>  <origin>  (13) 
adg

>  <m_score__min__energy>  (13) 
-9.4100000000000001

>  <m_primary>  (13) 
energy

$$$$
13:0
     RDKit          3D

 51 53  0  0  0  0  0  0  0  0999 V2000
   59.4600   27.8270   47.6440 C   0  0  0  0  0  0  0  0  0  0  0  0
   58.5690   28.9440   48.1630 C   0  0  0  0  0  0  0  0  0  0  0  0
   58.7530   30.1070   47.3590 O   0  0  0  0  0  0  0  0  0  0  0  0
   59.8770   30.9480   47.4180 C   0  0  0  0  0  0  0  0  0  0  0  0
   61.1890   30.4340   47.4290 C   0  0  0  0  0  0  0  0  0  0  0  0
   62.2860   31.2960   47.4850 C   0  0  0  0  0  0  0  0  0  0  0  0
   62.0900   32.6790   47.5320 C   0  0  0  0  0  0  0  0  0  0  0  0
   63.5920   33.8540   47.6050 Br  0  0  0  0  0  0  0  0  0  0  0  0
   60.7950   33.2010   47.5190 C   0  0  0  0  0  0  0  0  0  0  0  0
   59.6820   32.3440   47.4640 C   0  0  0  0  0  0  0  0  0  0  0  0
   58.2910   32.9280   47.4040 C   0  0  0  0  0  0  0  0  0  0  0  0
   57.5750   32.4570   46.2070 N   0  0  0  0  0  0  0  0  0  0  0  0
   58.2560   32.8180   44.9500 C   0  0  0  0  0  0  0  0  0  0  0  0
   57.4240   32.4160   43.7190 C   0  0  0  0  0  0  0  0  0  0  0  0
   57.0220   30.9270   43.7020 C   0  0  0  0  0  0  0  0  0  0  0  0
   57.3500   30.2620   44.9710 N   0  0  0  0  0  0  0  0  0  0  0  0
   57.3760   28.8340   44.7960 C   0  0  0  0  0  0  0  0  0  0  0  0
   57.7970   28.2660   43.5830 C   0  0  0  0  0  0  0  0  0  0  0  0
   57.8070   26.8760   43.4310 C   0  0  0  0  0  0  0  0  0  0  0  0
   58.1900   26.3740   42.3370 O   0  0  0  0  0  0  0  0  0  0  0  0
   57.3920   26.0550   44.4980 C   0  0  0  0  0  0  0  0  0  0  0  0
   57.3860   24.6510   44.4020 C   0  0  0  0  0  0  0  0  0  0  0  0
   56.9650   23.8750   45.4880 C   0  0  0  0  0  0  0  0  0  0  0  0
   56.5510   24.4890   46.6750 C   0  0  0  0  0  0  0  0  0  0  0  0
   56.5510   25.8810   46.7830 C   0  0  0  0  0  0  0  0  0  0  0  0
   56.9670   26.6690   45.7010 C   0  0  0  0  0  0  0  0  0  0  0  0
   56.9670   28.0240   45.8120 N   0  0  0  0  0  0  0  0  0  0  0  0
   59.8957   27.2808   48.4936 H   0  0  0  0  0  0  0  0  0  0  0  0
   58.8624   27.1359   47.0314 H   0  0  0  0  0  0  0  0  0  0  0  0
   60.2666   28.2560   47.0314 H   0  0  0  0  0  0  0  0  0  0  0  0
   57.5168   28.6269   48.1148 H   0  0  0  0  0  0  0  0  0  0  0  0
   58.8342   29.1719   49.2059 H   0  0  0  0  0  0  0  0  0  0  0  0
   61.3500   29.3464   47.3932 H   0  0  0  0  0  0  0  0  0  0  0  0
   63.3066   30.8857   47.4921 H   0  0  0  0  0  0  0  0  0  0  0  0
   60.6447   34.2902   47.5520 H   0  0  0  0  0  0  0  0  0  0  0  0
   57.7329   32.6221   48.3012 H   0  0  0  0  0  0  0  0  0  0  0  0
   58.3716   34.0240   47.3569 H   0  0  0  0  0  0  0  0  0  0  0  0
   56.6340   32.9220   46.2070 H   0  0  0  0  0  0  0  0  0  0  0  0
   58.4181   33.9058   44.9315 H   0  0  0  0  0  0  0  0  0  0  0  0
   59.2131   32.2774   44.9098 H   0  0  0  0  0  0  0  0  0  0  0  0
   56.5071   33.0235   43.7061 H   0  0  0  0  0  0  0  0  0  0  0  0
   58.0544   32.5890   42.8343 H   0  0  0  0  0  0  0  0  0  0  0  0
   55.9382   30.8521   43.5298 H   0  0  0  0  0  0  0  0  0  0  0  0
   57.5837   30.4288   42.8980 H   0  0  0  0  0  0  0  0  0  0  0  0
   56.6270   30.4890   45.6870 H   0  0  0  0  0  0  0  0  0  0  0  0
   58.2820   30.5900   45.3240 H   0  0  0  0  0  0  0  0  0  0  0  0
   58.1184   28.9133   42.7537 H   0  0  0  0  0  0  0  0  0  0  0  0
   57.7127   24.1627   43.4720 H   0  0  0  0  0  0  0  0  0  0  0  0
   56.9596   22.7779   45.4079 H   0  0  0  0  0  0  0  0  0  0  0  0
   56.2245   23.8731   47.5259 H   0  0  0  0  0  0  0  0  0  0  0  0
   56.2243   26.3597   47.7179 H   0  0  0  0  0  0  0  0  0  0  0  0
  1  2  1  0
  2  3  1  0
  3  4  1  0
  4  5  2  0
  5  6  1  0
  6  7  2  0
  7  8  1  0
  7  9  1  0
  9 10  2  0
 10 11  1  0
 11 12  1  0
 12 13  1  0
 13 14  1  0
 14 15  1  0
 15 16  1  0
 16 17  1  0
 17 18  2  0
 18 19  1  0
 19 20  2  0
 19 21  1  0
 21 22  2  0
 22 23  1  0
 23 24  2  0
 24 25  1  0
 25 26  2  0
 26 27  1  0
 10  4  1  0
 27 17  1  0
 26 21  1  0
  1 28  1  0
  1 29  1  0
  1 30  1  0
  2 31  1  0
  2 32  1  0
  5 33  1  0
  6 34  1  0
  9 35  1  0
 11 36  1  0
 11 37  1  0
 12 38  1  0
 13 39  1  0
 13 40  1  0
 14 41  1  0
 14 42  1  0
 15 43  1  0
 15 44  1  0
 16 45  1  0
 16 46  1  0
 18 47  1  0
 22 48  1  0
 23 49  1  0
 24 50  1  0
 25 51  1  0
M  CHG  2  16   1  27  -1
M  END
>  <UniqueID>  (14) 
13

>  <SMILES>  (14) 
CCOc1ccc(Br)cc1CNCCC[NH2+]c1cc(=O)c2ccccc2[n-]1

>  <Energy>  (14) 
49.56142411064406

>  <Genealogy>  (14) 
CCOc1ccc(Br)cc1CNCCC[NH2+]c1cc(=O)c2ccccc2[n-]1 (protonated)
CCOc1ccc(Br)cc1CNCCC[NH2+]c1cc(=O)c2ccccc2[n-]1 (3D coordinates assigned)
CCOc1ccc(Br)cc1CNCCC[NH2+]c1cc(=O)c2ccccc2[n-]1 (optimized conformer: 49.56142411064406 kcal/mol)

>  <smiles>  (14) 
CCOc1ccc(Br)cc1CNCCCNc1cc(=O)c2ccccc2[nH]1

>  <score_type>  (14) 
oracle

>  <origin>  (14) 
adg

>  <m_score__min__energy>  (14) 
-7.2999999999999998

>  <m_primary>  (14) 
energy

$$$$
14:0
     RDKit          3D

 55 58  0  0  0  0  0  0  0  0999 V2000
   59.5420   34.0260   54.4980 C   0  0  0  0  0  0  0  0  0  0  0  0
   58.8910   35.2580   53.8740 C   0  0  0  0  0  0  0  0  0  0  0  0
   58.3210   34.9360   52.5550 N   0  0  0  0  0  0  0  0  0  0  0  0
   58.1900   33.4870   52.3210 C   0  0  0  0  0  0  0  0  0  0  0  0
   59.2360   32.9110   51.3510 C   0  0  0  0  0  0  0  0  0  0  0  0
   60.4240   33.7640   51.2560 N   0  0  0  0  0  0  0  0  0  0  0  0
   61.3050   33.7180   50.1150 C   0  0  0  0  0  0  0  0  0  0  0  0
   62.6880   33.5070   50.2840 C   0  0  0  0  0  0  0  0  0  0  0  0
   63.2850   33.5330   51.5630 C   0  0  0  0  0  0  0  0  0  0  0  0
   64.6560   33.3430   51.7160 C   0  0  0  0  0  0  0  0  0  0  0  0
   65.4590   33.1370   50.6010 C   0  0  0  0  0  0  0  0  0  0  0  0
   64.8940   33.0990   49.3280 C   0  0  0  0  0  0  0  0  0  0  0  0
   63.4970   33.2550   49.1410 C   0  0  0  0  0  0  0  0  0  0  0  0
   62.9210   33.1760   47.8890 N   0  0  0  0  0  0  0  0  0  0  0  0
   63.6810   32.5970   46.7580 C   0  0  0  0  0  0  0  0  0  0  0  0
   61.6320   33.6290   47.6960 C   0  0  0  0  0  0  0  0  0  0  0  0
   61.1120   33.8610   46.3980 C   0  0  0  0  0  0  0  0  0  0  0  0
   59.8020   34.3090   46.2150 C   0  0  0  0  0  0  0  0  0  0  0  0
   59.1640   34.5620   44.5590 S   0  0  0  0  0  0  0  0  0  0  0  0
   58.4570   32.9160   44.4850 C   0  0  0  0  0  0  0  0  0  0  0  0
   58.4950   32.0840   45.6100 C   0  0  0  0  0  0  0  0  0  0  0  0
   57.9300   30.8050   45.5550 C   0  0  0  0  0  0  0  0  0  0  0  0
   57.3300   30.3560   44.3740 C   0  0  0  0  0  0  0  0  0  0  0  0
   57.2950   31.1840   43.2480 C   0  0  0  0  0  0  0  0  0  0  0  0
   57.8580   32.4630   43.3010 C   0  0  0  0  0  0  0  0  0  0  0  0
   58.9950   34.5710   47.3180 C   0  0  0  0  0  0  0  0  0  0  0  0
   59.4890   34.3790   48.6050 C   0  0  0  0  0  0  0  0  0  0  0  0
   60.7980   33.8970   48.8130 C   0  0  0  0  0  0  0  0  0  0  0  0
   59.5003   34.1049   55.5944 H   0  0  0  0  0  0  0  0  0  0  0  0
   59.0033   33.1231   54.1746 H   0  0  0  0  0  0  0  0  0  0  0  0
   60.5915   33.9624   54.1746 H   0  0  0  0  0  0  0  0  0  0  0  0
   58.0888   35.6164   54.5359 H   0  0  0  0  0  0  0  0  0  0  0  0
   59.6581   36.0360   53.7465 H   0  0  0  0  0  0  0  0  0  0  0  0
   57.3620   35.3510   52.4920 H   0  0  0  0  0  0  0  0  0  0  0  0
   58.9000   35.3660   51.8030 H   0  0  0  0  0  0  0  0  0  0  0  0
   58.2927   32.9703   53.2867 H   0  0  0  0  0  0  0  0  0  0  0  0
   57.2053   33.3280   51.8571 H   0  0  0  0  0  0  0  0  0  0  0  0
   59.5407   31.9158   51.7071 H   0  0  0  0  0  0  0  0  0  0  0  0
   58.7783   32.8529   50.3525 H   0  0  0  0  0  0  0  0  0  0  0  0
   60.6810   34.3400   52.0890 H   0  0  0  0  0  0  0  0  0  0  0  0
   62.6588   33.7057   52.4507 H   0  0  0  0  0  0  0  0  0  0  0  0
   65.1037   33.3560   52.7207 H   0  0  0  0  0  0  0  0  0  0  0  0
   66.5440   33.0035   50.7237 H   0  0  0  0  0  0  0  0  0  0  0  0
   65.5427   32.9454   48.4530 H   0  0  0  0  0  0  0  0  0  0  0  0
   64.4994   31.9735   47.1472 H   0  0  0  0  0  0  0  0  0  0  0  0
   63.0098   31.9792   46.1433 H   0  0  0  0  0  0  0  0  0  0  0  0
   64.0984   33.4081   46.1433 H   0  0  0  0  0  0  0  0  0  0  0  0
   61.7510   33.6852   45.5201 H   0  0  0  0  0  0  0  0  0  0  0  0
   58.9694   32.4358   46.5380 H   0  0  0  0  0  0  0  0  0  0  0  0
   57.9577   30.1528   46.4404 H   0  0  0  0  0  0  0  0  0  0  0  0
   56.8854   29.3508   44.3311 H   0  0  0  0  0  0  0  0  0  0  0  0
   56.8241   30.8290   42.3194 H   0  0  0  0  0  0  0  0  0  0  0  0
   57.8309   33.1133   42.4142 H   0  0  0  0  0  0  0  0  0  0  0  0
   57.9655   34.9302   47.1726 H   0  0  0  0  0  0  0  0  0  0  0  0
   58.8501   34.6062   49.4712 H   0  0  0  0  0  0  0  0  0  0  0  0
  1  2  1  0
  2  3  1  0
  3  4  1  0
  4  5  1  0
  5  6  1  0
  6  7  1  0
  7  8  2  0
  8  9  1  0
  9 10  2  0
 10 11  1  0
 11 12  2  0
 12 13  1  0
 13 14  2  0
 14 15  1  0
 14 16  1  0
 16 17  2  0
 17 18  1  0
 18 19  1  0
 19 20  1  0
 20 21  2  0
 21 22  1  0
 22 23  2  0
 23 24  1  0
 24 25  2  0
 18 26  2  0
 26 27  1  0
 27 28  2  0
 28  7  1  0
 13  8  1  0
 28 16  1  0
 25 20  1  0
  1 29  1  0
  1 30  1  0
  1 31  1  0
  2 32  1  0
  2 33  1  0
  3 34  1  0
  3 35  1  0
  4 36  1  0
  4 37  1  0
  5 38  1  0
  5 39  1  0
  6 40  1  0
  9 41  1  0
 10 42  1  0
 11 43  1  0
 12 44  1  0
 15 45  1  0
 15 46  1  0
 15 47  1  0
 17 48  1  0
 21 49  1  0
 22 50  1  0
 23 51  1  0
 24 52  1  0
 25 53  1  0
 26 54  1  0
 27 55  1  0
M  CHG  2   3   1  14   1
M  END
>  <UniqueID>  (15) 
14

>  <SMILES>  (15) 
CC[NH2+]CCNc1c2ccccc2[n+](C)c2cc(Sc3ccccc3)ccc12

>  <Energy>  (15) 
76.01936220684998

>  <Genealogy>  (15) 
CC[NH2+]CCNc1c2ccccc2[n+](C)c2cc(Sc3ccccc3)ccc12 (protonated)
CC[NH2+]CCNc1c2ccccc2[n+](C)c2cc(Sc3ccccc3)ccc12 (3D coordinates assigned)
CC[NH2+]CCNc1c2ccccc2[n+](C)c2cc(Sc3ccccc3)ccc12 (optimized conformer: 76.01936220684998 kcal/mol)

>  <smiles>  (15) 
CCNCCNc1c2ccccc2[n+](C)c2cc(Sc3ccccc3)ccc12

>  <score_type>  (15) 
oracle

>  <origin>  (15) 
adg

>  <m_score__min__energy>  (15) 
-5.9699999999999998

>  <m_primary>  (15) 
energy

$$$$
15:0
     RDKit          3D

 52 52  0  0  0  0  0  0  0  0999 V2000
   63.2800   32.8400   47.3310 C   0  0  0  0  0  0  0  0  0  0  0  0
   62.4310   31.5810   47.1240 C   0  0  0  0  0  0  0  0  0  0  0  0
   61.2470   31.5540   48.0000 N   0  0  0  0  0  0  0  0  0  0  0  0
   61.1280   30.2960   48.7540 C   0  0  0  0  0  0  0  0  0  0  0  0
   59.6500   29.9460   48.9650 C   0  0  0  0  0  0  0  0  0  0  0  0
   58.8550   31.0990   49.6060 C   0  0  0  0  0  0  0  0  0  0  0  0
   58.7130   32.2680   48.7130 N   0  0  0  0  0  0  0  0  0  0  0  0
   59.3030   33.4790   49.2980 C   0  0  0  0  0  0  0  0  0  0  0  0
   59.6320   34.5010   48.2060 C   0  0  0  0  0  0  0  0  0  0  0  0
   60.1860   33.8280   47.0250 N   0  0  0  0  0  0  0  0  0  0  0  0
   59.7720   34.5240   45.7990 C   0  0  0  0  0  0  0  0  0  0  0  0
   58.2820   34.2740   45.4970 C   0  0  0  0  0  0  0  0  0  0  0  0
   57.6830   33.2030   46.3120 N   0  0  0  0  0  0  0  0  0  0  0  0
   57.8360   31.9170   45.6900 C   0  0  0  0  0  0  0  0  0  0  0  0
   56.8620   31.4350   44.8720 N   0  0  0  0  0  0  0  0  0  0  0  0
   56.9950   30.2340   44.2480 C   0  0  0  0  0  0  0  0  0  0  0  0
   55.9070   29.7340   43.3530 C   0  0  0  0  0  0  0  0  0  0  0  0
   58.1540   29.4780   44.4470 C   0  0  0  0  0  0  0  0  0  0  0  0
   59.1480   29.9830   45.2900 C   0  0  0  0  0  0  0  0  0  0  0  0
   60.4110   29.2170   45.5170 C   0  0  0  0  0  0  0  0  0  0  0  0
   58.9720   31.1920   45.8870 N   0  0  0  0  0  0  0  0  0  0  0  0
   63.4048   33.0251   48.4081 H   0  0  0  0  0  0  0  0  0  0  0  0
   64.2669   32.6971   46.8667 H   0  0  0  0  0  0  0  0  0  0  0  0
   62.7776   33.7014   46.8667 H   0  0  0  0  0  0  0  0  0  0  0  0
   62.0967   31.5482   46.0765 H   0  0  0  0  0  0  0  0  0  0  0  0
   63.0545   30.7101   47.3746 H   0  0  0  0  0  0  0  0  0  0  0  0
   60.3820   31.6940   47.4270 H   0  0  0  0  0  0  0  0  0  0  0  0
   61.6168   29.4870   48.1914 H   0  0  0  0  0  0  0  0  0  0  0  0
   61.6130   30.4163   49.7340 H   0  0  0  0  0  0  0  0  0  0  0  0
   59.2013   29.7082   47.9892 H   0  0  0  0  0  0  0  0  0  0  0  0
   59.6051   29.0877   49.6516 H   0  0  0  0  0  0  0  0  0  0  0  0
   57.8511   30.7314   49.8647 H   0  0  0  0  0  0  0  0  0  0  0  0
   59.4126   31.4293   50.4948 H   0  0  0  0  0  0  0  0  0  0  0  0
   59.1540   32.0840   47.7810 H   0  0  0  0  0  0  0  0  0  0  0  0
   58.5878   33.9238   50.0056 H   0  0  0  0  0  0  0  0  0  0  0  0
   60.2327   33.2045   49.8180 H   0  0  0  0  0  0  0  0  0  0  0  0
   58.7136   35.0353   47.9211 H   0  0  0  0  0  0  0  0  0  0  0  0
   60.3773   35.2106   48.5945 H   0  0  0  0  0  0  0  0  0  0  0  0
   59.7770   32.8650   46.9990 H   0  0  0  0  0  0  0  0  0  0  0  0
   59.9368   35.6042   45.9257 H   0  0  0  0  0  0  0  0  0  0  0  0
   60.3687   34.1384   44.9592 H   0  0  0  0  0  0  0  0  0  0  0  0
   57.7284   35.2054   45.6868 H   0  0  0  0  0  0  0  0  0  0  0  0
   58.2169   33.9528   44.4470 H   0  0  0  0  0  0  0  0  0  0  0  0
   56.6740   33.4000   46.4990 H   0  0  0  0  0  0  0  0  0  0  0  0
   58.1720   33.1800   47.2380 H   0  0  0  0  0  0  0  0  0  0  0  0
   55.0760   29.3521   43.9642 H   0  0  0  0  0  0  0  0  0  0  0  0
   55.5472   30.5571   42.7181 H   0  0  0  0  0  0  0  0  0  0  0  0
   56.2973   28.9249   42.7181 H   0  0  0  0  0  0  0  0  0  0  0  0
   58.2812   28.5050   43.9500 H   0  0  0  0  0  0  0  0  0  0  0  0
   60.5862   29.1108   46.5977 H   0  0  0  0  0  0  0  0  0  0  0  0
   60.3225   28.2203   45.0602 H   0  0  0  0  0  0  0  0  0  0  0  0
   61.2540   29.7562   45.0602 H   0  0  0  0  0  0  0  0  0  0  0  0
  1  2  1  0
  2  3  1  0
  3  4  1  0
  4  5  1  0
  5  6  1  0
  6  7  1  0
  7  8  1  0
  8  9  1  0
  9 10  1  0
 10 11  1  0
 11 12  1  0
 12 13  1  0
 13 14  1  0
 14 15  2  0
 15 16  1  0
 16 17  1  0
 16 18  2  0
 18 19  1  0
 19 20  1  0
 19 21  2  0
 21 14  1  0
  1 22  1  0
  1 23  1  0
  1 24  1  0
  2 25  1  0
  2 26  1  0
  3 27  1  0
  4 28  1  0
  4 29  1  0
  5 30  1  0
  5 31  1  0
  6 32  1  0
  6 33  1  0
  7 34  1  0
  8 35  1  0
  8 36  1  0
  9 37  1  0
  9 38  1  0
 10 39  1  0
 11 40  1  0
 11 41  1  0
 12 42  1  0
 12 43  1  0
 13 44  1  0
 13 45  1  0
 17 46  1  0
 17 47  1  0
 17 48  1  0
 18 49  1  0
 20 50  1  0
 20 51  1  0
 20 52  1  0
M  CHG  1  13   1
M  END
>  <UniqueID>  (16) 
15

>  <SMILES>  (16) 
CCNCCCNCCNCC[NH2+]c1nc(C)cc(C)n1

>  <Energy>  (16) 
40.298888201297345

>  <Genealogy>  (16) 
CCNCCCNCCNCC[NH2+]c1nc(C)cc(C)n1 (protonated)
CCNCCCNCCNCC[NH2+]c1nc(C)cc(C)n1 (3D coordinates assigned)
CCNCCCNCCNCC[NH2+]c1nc(C)cc(C)n1 (optimized conformer: 40.298888201297345 kcal/mol)

>  <smiles>  (16) 
CCNCCCNCCNCCNc1nc(C)cc(C)n1

>  <score_type>  (16) 
oracle

>  <origin>  (16) 
adg

>  <m_score__min__energy>  (16) 
-2.5600000000000001

>  <m_primary>  (16) 
energy

$$$$
16:0
     RDKit          3D

 54 55  0  0  0  0  0  0  0  0999 V2000
   63.0390   33.8200   46.6910 C   0  0  0  0  0  0  0  0  0  0  0  0
   63.0040   32.4320   47.3130 C   0  0  0  0  0  0  0  0  0  0  0  0
   61.6710   32.1160   47.6550 O   0  0  0  0  0  0  0  0  0  0  0  0
   61.2660   30.9100   47.0320 C   0  0  0  0  0  0  0  0  0  0  0  0
   60.2230   30.2160   47.8990 C   0  0  0  0  0  0  0  0  0  0  0  0
   59.3780   29.4380   47.0760 O   0  0  0  0  0  0  0  0  0  0  0  0
   59.7870   28.0880   47.1200 C   0  0  0  0  0  0  0  0  0  0  0  0
   58.6550   27.1870   46.6060 C   0  0  0  0  0  0  0  0  0  0  0  0
   57.5960   27.9340   45.9060 N   0  0  0  0  0  0  0  0  0  0  0  0
   57.7470   27.9030   44.4450 C   0  0  0  0  0  0  0  0  0  0  0  0
   56.9390   29.0460   43.8240 C   0  0  0  0  0  0  0  0  0  0  0  0
   56.6640   30.0600   44.7910 O   0  0  0  0  0  0  0  0  0  0  0  0
   57.3560   31.2770   44.9190 C   0  0  0  0  0  0  0  0  0  0  0  0
   57.6260   32.0050   43.7570 C   0  0  0  0  0  0  0  0  0  0  0  0
   58.2740   33.2380   43.8210 C   0  0  0  0  0  0  0  0  0  0  0  0
   58.6740   33.7630   45.0580 C   0  0  0  0  0  0  0  0  0  0  0  0
   59.3100   35.0100   45.1240 C   0  0  0  0  0  0  0  0  0  0  0  0
   59.7080   35.5270   46.3550 C   0  0  0  0  0  0  0  0  0  0  0  0
   59.4760   34.8120   47.5300 C   0  0  0  0  0  0  0  0  0  0  0  0
   58.8300   33.5600   47.4930 C   0  0  0  0  0  0  0  0  0  0  0  0
   58.5780   32.8170   48.6640 O   0  0  0  0  0  0  0  0  0  0  0  0
   59.2900   32.9270   49.8950 C   0  0  0  0  0  0  0  0  0  0  0  0
   58.4290   32.4530   51.0610 C   0  0  0  0  0  0  0  0  0  0  0  0
   58.4300   33.0300   46.2460 C   0  0  0  0  0  0  0  0  0  0  0  0
   57.7780   31.7850   46.1630 C   0  0  0  0  0  0  0  0  0  0  0  0
   63.0581   34.5784   47.4876 H   0  0  0  0  0  0  0  0  0  0  0  0
   63.9400   33.9199   46.0679 H   0  0  0  0  0  0  0  0  0  0  0  0
   62.1442   33.9652   46.0679 H   0  0  0  0  0  0  0  0  0  0  0  0
   63.3845   31.6944   46.5910 H   0  0  0  0  0  0  0  0  0  0  0  0
   63.6341   32.4123   48.2145 H   0  0  0  0  0  0  0  0  0  0  0  0
   60.8329   31.1341   46.0460 H   0  0  0  0  0  0  0  0  0  0  0  0
   62.1376   30.2505   46.9083 H   0  0  0  0  0  0  0  0  0  0  0  0
   60.7258   29.5653   48.6296 H   0  0  0  0  0  0  0  0  0  0  0  0
   59.6263   30.9696   48.4339 H   0  0  0  0  0  0  0  0  0  0  0  0
   60.6765   27.9547   46.4868 H   0  0  0  0  0  0  0  0  0  0  0  0
   60.0277   27.8141   48.1578 H   0  0  0  0  0  0  0  0  0  0  0  0
   59.0824   26.4501   45.9101 H   0  0  0  0  0  0  0  0  0  0  0  0
   58.1942   26.7067   47.4817 H   0  0  0  0  0  0  0  0  0  0  0  0
   57.5950   28.9310   46.2300 H   0  0  0  0  0  0  0  0  0  0  0  0
   58.8090   28.0205   44.1836 H   0  0  0  0  0  0  0  0  0  0  0  0
   57.3785   26.9413   44.0586 H   0  0  0  0  0  0  0  0  0  0  0  0
   57.5143   29.4850   42.9955 H   0  0  0  0  0  0  0  0  0  0  0  0
   55.9839   28.6421   43.4571 H   0  0  0  0  0  0  0  0  0  0  0  0
   57.3236   31.6003   42.7799 H   0  0  0  0  0  0  0  0  0  0  0  0
   58.4722   33.8012   42.8971 H   0  0  0  0  0  0  0  0  0  0  0  0
   59.4953   35.5815   44.2025 H   0  0  0  0  0  0  0  0  0  0  0  0
   60.2085   36.5055   46.4006 H   0  0  0  0  0  0  0  0  0  0  0  0
   59.8004   35.2293   48.4947 H   0  0  0  0  0  0  0  0  0  0  0  0
   60.1987   32.3093   49.8428 H   0  0  0  0  0  0  0  0  0  0  0  0
   59.5542   33.9824   50.0572 H   0  0  0  0  0  0  0  0  0  0  0  0
   58.9166   32.7215   52.0098 H   0  0  0  0  0  0  0  0  0  0  0  0
   57.4415   32.9346   51.0072 H   0  0  0  0  0  0  0  0  0  0  0  0
   58.3078   31.3610   51.0072 H   0  0  0  0  0  0  0  0  0  0  0  0
   57.5964   31.2033   47.0787 H   0  0  0  0  0  0  0  0  0  0  0  0
  1  2  1  0
  2  3  1  0
  3  4  1  0
  4  5  1  0
  5  6  1  0
  6  7  1  0
  7  8  1  0
  8  9  1  0
  9 10  1  0
 10 11  1  0
 11 12  1  0
 12 13  1  0
 13 14  2  0
 14 15  1  0
 15 16  2  0
 16 17  1  0
 17 18  2  0
 18 19  1  0
 19 20  2  0
 20 21  1  0
 21 22  1  0
 22 23  1  0
 20 24  1  0
 24 25  2  0
 25 13  1  0
 24 16  1  0
  1 26  1  0
  1 27  1  0
  1 28  1  0
  2 29  1  0
  2 30  1  0
  4 31  1  0
  4 32  1  0
  5 33  1  0
  5 34  1  0
  7 35  1  0
  7 36  1  0
  8 37  1  0
  8 38  1  0
  9 39  1  0
 10 40  1  0
 10 41  1  0
 11 42  1  0
 11 43  1  0
 14 44  1  0
 15 45  1  0
 17 46  1  0
 18 47  1  0
 19 48  1  0
 22 49  1  0
 22 50  1  0
 23 51  1  0
 23 52  1  0
 23 53  1  0
 25 54  1  0
M  END
>  <UniqueID>  (17) 
16

>  <SMILES>  (17) 
CCOCCOCCNCCOc1ccc2cccc(OCC)c2c1

>  <Energy>  (17) 
47.58882062730613

>  <Genealogy>  (17) 
CCOCCOCCNCCOc1ccc2cccc(OCC)c2c1 (3D coordinates assigned)
CCOCCOCCNCCOc1ccc2cccc(OCC)c2c1 (optimized conformer: 47.58882062730613 kcal/mol)

>  <smiles>  (17) 
CCOCCOCCNCCOc1ccc2cccc(OCC)c2c1

>  <score_type>  (17) 
oracle

>  <origin>  (17) 
adg

>  <m_score__min__energy>  (17) 
-6.7300000000000004

>  <m_primary>  (17) 
energy

$$$$
17:0
     RDKit          3D

 65 67  0  0  0  0  0  0  0  0999 V2000
   58.4570   34.2030   47.0710 C   0  0  0  0  0  0  0  0  0  0  0  0
   57.4550   33.1140   46.7000 C   0  0  0  0  0  0  0  0  0  0  0  0
   57.9630   32.3300   45.5630 N   0  0  0  0  0  0  0  0  0  0  0  0
   57.9500   33.1220   44.3240 C   0  0  0  0  0  0  0  0  0  0  0  0
   58.1030   32.2110   43.1010 C   0  0  0  0  0  0  0  0  0  0  0  0
   57.7620   30.8780   43.4310 O   0  0  0  0  0  0  0  0  0  0  0  0
   56.6290   30.4310   42.7060 C   0  0  0  0  0  0  0  0  0  0  0  0
   55.5890   29.8780   43.6880 C   0  0  0  0  0  0  0  0  0  0  0  0
   56.1490   29.6690   45.0360 N   0  0  0  0  0  0  0  0  0  0  0  0
   56.7390   28.3340   45.2260 C   0  0  0  0  0  0  0  0  0  0  0  0
   58.1800   28.3990   45.7410 C   0  0  0  0  0  0  0  0  0  0  0  0
   58.6380   29.7300   45.6510 O   0  0  0  0  0  0  0  0  0  0  0  0
   59.9800   29.8050   46.0860 C   0  0  0  0  0  0  0  0  0  0  0  0
   60.0190   29.9260   47.6090 C   0  0  0  0  0  0  0  0  0  0  0  0
   59.5230   31.2330   48.0420 N   0  0  0  0  0  0  0  0  0  0  0  0
   60.2440   32.0340   48.9960 C   0  0  0  0  0  0  0  0  0  0  0  0
   61.5430   32.4880   48.7070 C   0  0  0  0  0  0  0  0  0  0  0  0
   62.0980   32.3130   47.4220 C   0  0  0  0  0  0  0  0  0  0  0  0
   63.3720   32.7910   47.1250 C   0  0  0  0  0  0  0  0  0  0  0  0
   64.1030   33.4700   48.0930 C   0  0  0  0  0  0  0  0  0  0  0  0
   63.5710   33.6640   49.3680 C   0  0  0  0  0  0  0  0  0  0  0  0
   62.2910   33.1560   49.7130 C   0  0  0  0  0  0  0  0  0  0  0  0
   61.7620   33.3140   50.9800 N   0  0  0  0  0  0  0  0  0  0  0  0
   62.6320   33.7390   52.1000 C   0  0  0  0  0  0  0  0  0  0  0  0
   60.4220   33.0540   51.2070 C   0  0  0  0  0  0  0  0  0  0  0  0
   59.7780   33.4440   52.4090 C   0  0  0  0  0  0  0  0  0  0  0  0
   58.4430   33.1170   52.6480 C   0  0  0  0  0  0  0  0  0  0  0  0
   57.7130   32.4110   51.6990 C   0  0  0  0  0  0  0  0  0  0  0  0
   58.3050   32.0500   50.4910 C   0  0  0  0  0  0  0  0  0  0  0  0
   59.6500   32.3810   50.2210 C   0  0  0  0  0  0  0  0  0  0  0  0
   58.5271   34.2791   48.1661 H   0  0  0  0  0  0  0  0  0  0  0  0
   59.4441   33.9494   46.6572 H   0  0  0  0  0  0  0  0  0  0  0  0
   58.1223   35.1657   46.6572 H   0  0  0  0  0  0  0  0  0  0  0  0
   57.3037   32.4487   47.5628 H   0  0  0  0  0  0  0  0  0  0  0  0
   56.5002   33.5821   46.4184 H   0  0  0  0  0  0  0  0  0  0  0  0
   57.3150   31.5180   45.4270 H   0  0  0  0  0  0  0  0  0  0  0  0
   56.9967   33.6663   44.2526 H   0  0  0  0  0  0  0  0  0  0  0  0
   58.7913   33.8304   44.3466 H   0  0  0  0  0  0  0  0  0  0  0  0
   57.4392   32.5667   42.2992 H   0  0  0  0  0  0  0  0  0  0  0  0
   59.1503   32.2380   42.7657 H   0  0  0  0  0  0  0  0  0  0  0  0
   56.1952   31.2723   42.1456 H   0  0  0  0  0  0  0  0  0  0  0  0
   56.9287   29.6415   42.0012 H   0  0  0  0  0  0  0  0  0  0  0  0
   54.7543   30.5910   43.7582 H   0  0  0  0  0  0  0  0  0  0  0  0
   55.2523   28.9021   43.3080 H   0  0  0  0  0  0  0  0  0  0  0  0
   56.8470   30.4060   45.2890 H   0  0  0  0  0  0  0  0  0  0  0  0
   56.1288   27.7787   45.9535 H   0  0  0  0  0  0  0  0  0  0  0  0
   56.7556   27.8328   44.2469 H   0  0  0  0  0  0  0  0  0  0  0  0
   58.2127   28.0674   46.7893 H   0  0  0  0  0  0  0  0  0  0  0  0
   58.8220   27.7423   45.1355 H   0  0  0  0  0  0  0  0  0  0  0  0
   60.5164   28.8957   45.7771 H   0  0  0  0  0  0  0  0  0  0  0  0
   60.4610   30.6865   45.6370 H   0  0  0  0  0  0  0  0  0  0  0  0
   59.3899   29.1382   48.0491 H   0  0  0  0  0  0  0  0  0  0  0  0
   61.0612   29.8172   47.9436 H   0  0  0  0  0  0  0  0  0  0  0  0
   58.5900   31.5620   47.7060 H   0  0  0  0  0  0  0  0  0  0  0  0
   61.5178   31.7930   46.6455 H   0  0  0  0  0  0  0  0  0  0  0  0
   63.7998   32.6312   46.1243 H   0  0  0  0  0  0  0  0  0  0  0  0
   65.1047   33.8558   47.8528 H   0  0  0  0  0  0  0  0  0  0  0  0
   64.1528   34.2196   50.1182 H   0  0  0  0  0  0  0  0  0  0  0  0
   62.1425   33.4999   53.0556 H   0  0  0  0  0  0  0  0  0  0  0  0
   63.5942   33.2094   52.0383 H   0  0  0  0  0  0  0  0  0  0  0  0
   62.8057   34.8234   52.0383 H   0  0  0  0  0  0  0  0  0  0  0  0
   60.3398   34.0130   53.1644 H   0  0  0  0  0  0  0  0  0  0  0  0
   57.9659   33.4193   53.5919 H   0  0  0  0  0  0  0  0  0  0  0  0
   56.6672   32.1372   51.9021 H   0  0  0  0  0  0  0  0  0  0  0  0
   57.7181   31.5013   49.7397 H   0  0  0  0  0  0  0  0  0  0  0  0
  1  2  1  0
  2  3  1  0
  3  4  1  0
  4  5  1  0
  5  6  1  0
  6  7  1  0
  7  8  1  0
  8  9  1  0
  9 10  1  0
 10 11  1  0
 11 12  1  0
 12 13  1  0
 13 14  1  0
 14 15  1  0
 15 16  1  0
 16 17  2  0
 17 18  1  0
 18 19  2  0
 19 20  1  0
 20 21  2  0
 21 22  1  0
 22 23  2  0
 23 24  1  0
 23 25  1  0
 25 26  2  0
 26 27  1  0
 27 28  2  0
 28 29  1  0
 29 30  2  0
 30 16  1  0
 22 17  1  0
 30 25  1  0
  1 31  1  0
  1 32  1  0
  1 33  1  0
  2 34  1  0
  2 35  1  0
  3 36  1  0
  4 37  1  0
  4 38  1  0
  5 39  1  0
  5 40  1  0
  7 41  1  0
  7 42  1  0
  8 43  1  0
  8 44  1  0
  9 45  1  0
 10 46  1  0
 10 47  1  0
 11 48  1  0
 11 49  1  0
 13 50  1  0
 13 51  1  0
 14 52  1  0
 14 53  1  0
 15 54  1  0
 18 55  1  0
 19 56  1  0
 20 57  1  0
 21 58  1  0
 24 59  1  0
 24 60  1  0
 24 61  1  0
 26 62  1  0
 27 63  1  0
 28 64  1  0
 29 65  1  0
M  CHG  1  23   1
M  END
>  <UniqueID>  (18) 
17

>  <SMILES>  (18) 
CCNCCOCCNCCOCCNc1c2ccccc2[n+](C)c2ccccc12

>  <Energy>  (18) 
85.104934569227

>  <Genealogy>  (18) 
CCNCCOCCNCCOCCNc1c2ccccc2[n+](C)c2ccccc12 (3D coordinates assigned)
CCNCCOCCNCCOCCNc1c2ccccc2[n+](C)c2ccccc12 (optimized conformer: 85.104934569227 kcal/mol)

>  <smiles>  (18) 
CCNCCOCCNCCOCCNc1c2ccccc2[n+](C)c2ccccc12

>  <score_type>  (18) 
oracle

>  <origin>  (18) 
adg

>  <m_score__min__energy>  (18) 
-6.6900000000000004

>  <m_primary>  (18) 
energy

$$$$
18:0
     RDKit          3D

 64 68  0  0  0  0  0  0  0  0999 V2000
   57.9050   32.3220   41.5480 C   0  0  0  0  0  0  0  0  0  0  0  0
   57.7490   31.7610   42.8460 O   0  0  0  0  0  0  0  0  0  0  0  0
   58.1130   32.4040   44.0410 C   0  0  0  0  0  0  0  0  0  0  0  0
   58.4190   33.7790   44.0820 C   0  0  0  0  0  0  0  0  0  0  0  0
   58.8180   34.3800   45.2790 C   0  0  0  0  0  0  0  0  0  0  0  0
   58.9210   33.6200   46.4440 C   0  0  0  0  0  0  0  0  0  0  0  0
   58.6180   32.2570   46.4180 C   0  0  0  0  0  0  0  0  0  0  0  0
   58.2000   31.6470   45.2260 C   0  0  0  0  0  0  0  0  0  0  0  0
   57.8780   30.2100   45.2400 C   0  0  0  0  0  0  0  0  0  0  0  0
   56.6180   29.7370   45.1750 N   0  0  0  0  0  0  0  0  0  0  0  0
   56.7030   28.4150   45.1340 N   0  0  0  0  0  0  0  0  0  0  0  0
   58.0130   28.1050   45.1520 C   0  0  0  0  0  0  0  0  0  0  0  0
   58.6340   26.4220   45.0260 S   0  0  0  0  0  0  0  0  0  0  0  0
   58.0520   25.8810   46.6810 C   0  0  0  0  0  0  0  0  0  0  0  0
   58.2380   26.9570   47.7630 C   0  0  0  0  0  0  0  0  0  0  0  0
   59.6760   27.4870   47.9110 C   0  0  0  0  0  0  0  0  0  0  0  0
   59.7080   28.9310   48.2350 N   0  0  0  0  0  0  0  0  0  0  0  0
   61.1210   29.3700   48.5770 C   0  0  0  0  0  0  0  0  0  0  0  0
   61.2510   30.8700   49.1040 C   0  0  2  0  0  0  0  0  0  0  0  0
   61.9280   31.0030   50.5400 C   0  0  0  0  0  0  0  0  0  0  0  0
   61.2480   31.9790   51.5880 C   0  0  0  0  0  0  0  0  0  0  0  0
   59.9110   31.5280   52.2980 C   0  0  0  0  0  0  0  0  0  0  0  0
   58.7190   31.1370   51.3550 C   0  0  0  0  0  0  0  0  0  0  0  0
   57.4280   30.6790   52.0130 C   0  0  0  0  0  0  0  0  0  0  0  0
   57.4900   32.0310   51.3050 C   0  0  0  0  0  0  0  0  0  0  0  0
   59.1410   30.4450   50.0810 C   0  0  2  0  0  0  0  0  0  0  0  0
   59.8580   31.4350   49.1610 C   0  0  0  0  0  0  0  0  0  0  0  0
   58.6210   29.3180   49.2110 C   0  0  0  0  0  0  0  0  0  0  0  0
   58.7820   29.2090   45.2210 N   0  0  0  0  0  0  0  0  0  0  0  0
   60.2370   29.2960   45.3430 C   0  0  0  0  0  0  0  0  0  0  0  0
   58.1987   33.3782   41.6379 H   0  0  0  0  0  0  0  0  0  0  0  0
   58.6838   31.7701   41.0012 H   0  0  0  0  0  0  0  0  0  0  0  0
   56.9531   32.2514   41.0012 H   0  0  0  0  0  0  0  0  0  0  0  0
   58.3433   34.3832   43.1659 H   0  0  0  0  0  0  0  0  0  0  0  0
   59.0513   35.4547   45.3024 H   0  0  0  0  0  0  0  0  0  0  0  0
   59.2410   34.0943   47.3835 H   0  0  0  0  0  0  0  0  0  0  0  0
   58.7076   31.6588   47.3368 H   0  0  0  0  0  0  0  0  0  0  0  0
   56.9824   25.6332   46.6130 H   0  0  0  0  0  0  0  0  0  0  0  0
   58.6567   25.0103   46.9746 H   0  0  0  0  0  0  0  0  0  0  0  0
   57.5846   27.8066   47.5156 H   0  0  0  0  0  0  0  0  0  0  0  0
   57.9862   26.4778   48.7206 H   0  0  0  0  0  0  0  0  0  0  0  0
   60.1772   26.9316   48.7174 H   0  0  0  0  0  0  0  0  0  0  0  0
   60.1895   27.3449   46.9486 H   0  0  0  0  0  0  0  0  0  0  0  0
   61.5073   28.6990   49.3583 H   0  0  0  0  0  0  0  0  0  0  0  0
   61.6936   29.3226   47.6390 H   0  0  0  0  0  0  0  0  0  0  0  0
   61.9113   31.4155   48.4138 H   0  0  0  0  0  0  0  0  0  0  0  0
   61.9453   29.9991   50.9893 H   0  0  0  0  0  0  0  0  0  0  0  0
   62.9133   31.4503   50.3424 H   0  0  0  0  0  0  0  0  0  0  0  0
   61.9870   32.1661   52.3810 H   0  0  0  0  0  0  0  0  0  0  0  0
   60.9461   32.8469   50.9833 H   0  0  0  0  0  0  0  0  0  0  0  0
   60.1429   30.6541   52.9246 H   0  0  0  0  0  0  0  0  0  0  0  0
   59.5647   32.4097   52.8572 H   0  0  0  0  0  0  0  0  0  0  0  0
   56.8489   29.8536   51.5733 H   0  0  0  0  0  0  0  0  0  0  0  0
   57.1453   30.3400   53.0206 H   0  0  0  0  0  0  0  0  0  0  0  0
   56.9559   32.1800   50.3550 H   0  0  0  0  0  0  0  0  0  0  0  0
   57.2708   33.0705   51.5904 H   0  0  0  0  0  0  0  0  0  0  0  0
   59.4701   29.6712   50.7902 H   0  0  0  0  0  0  0  0  0  0  0  0
   59.3962   31.4573   48.1629 H   0  0  0  0  0  0  0  0  0  0  0  0
   59.8191   32.4748   49.5177 H   0  0  0  0  0  0  0  0  0  0  0  0
   58.3601   28.4534   49.8390 H   0  0  0  0  0  0  0  0  0  0  0  0
   57.7219   29.6433   48.6671 H   0  0  0  0  0  0  0  0  0  0  0  0
   60.5154   29.3126   46.4071 H   0  0  0  0  0  0  0  0  0  0  0  0
   60.6985   28.4238   44.8568 H   0  0  0  0  0  0  0  0  0  0  0  0
   60.5913   30.2169   44.8568 H   0  0  0  0  0  0  0  0  0  0  0  0
  1  2  1  0
  2  3  1  0
  3  4  2  0
  4  5  1  0
  5  6  2  0
  6  7  1  0
  7  8  2  0
  8  9  1  0
  9 10  2  0
 10 11  1  0
 11 12  2  0
 12 13  1  0
 13 14  1  0
 14 15  1  0
 15 16  1  0
 16 17  1  0
 17 18  1  0
 18 19  1  0
 19 20  1  0
 20 21  1  0
 21 22  1  0
 22 23  1  0
 23 24  1  0
 24 25  1  0
 23 26  1  0
 26 27  1  0
 26 28  1  0
 12 29  1  0
 29 30  1  0
  8  3  1  0
 29  9  1  0
 28 17  1  0
 27 19  1  0
 25 23  1  0
  1 31  1  0
  1 32  1  0
  1 33  1  0
  4 34  1  0
  5 35  1  0
  6 36  1  0
  7 37  1  0
 14 38  1  0
 14 39  1  0
 15 40  1  0
 15 41  1  0
 16 42  1  0
 16 43  1  0
 18 44  1  0
 18 45  1  0
 19 46  1  6
 20 47  1  0
 20 48  1  0
 21 49  1  0
 21 50  1  0
 22 51  1  0
 22 52  1  0
 24 53  1  0
 24 54  1  0
 25 55  1  0
 25 56  1  0
 26 57  1  1
 27 58  1  0
 27 59  1  0
 28 60  1  0
 28 61  1  0
 30 62  1  0
 30 63  1  0
 30 64  1  0
M  END
>  <UniqueID>  (19) 
18

>  <SMILES>  (19) 
COc1ccccc1-c1nnc(SCCCN2C[C@@H]3CCCC4(CC4)[C@H](C3)C2)n1C

>  <Energy>  (19) 
447.5213527481919

>  <Genealogy>  (19) 
COc1ccccc1-c1nnc(SCCCN2C[C@@H]3CCCC4(CC4)[C@H](C3)C2)n1C (chirality)
COc1ccccc1-c1nnc(SCCCN2C[C@@H]3CCCC4(CC4)[C@H](C3)C2)n1C (3D coordinates assigned)
COc1ccccc1-c1nnc(SCCCN2C[C@@H]3CCCC4(CC4)[C@H](C3)C2)n1C (nonaromatic ring conformer: 447.5213527481919 kcal/mol)

>  <smiles>  (19) 
COc1ccccc1-c1nnc(SCCCN2CC3CCCC4(CC4)C(C3)C2)n1C

>  <score_type>  (19) 
oracle

>  <origin>  (19) 
adg

>  <m_score__min__energy>  (19) 
-8.5600000000000005

>  <m_primary>  (19) 
energy

$$$$
19:0
     RDKit          3D

113118  0  0  0  0  0  0  0  0999 V2000
   52.1520   30.0690   50.2200 C   0  0  0  0  0  0  0  0  0  0  0  0
   52.8150   29.7210   51.5460 C   0  0  0  0  0  0  0  0  0  0  0  0
   53.3460   30.9040   52.1160 O   0  0  0  0  0  0  0  0  0  0  0  0
   54.7510   30.9480   51.9450 C   0  0  0  0  0  0  0  0  0  0  0  0
   55.3920   29.7250   52.5980 C   0  0  0  0  0  0  0  0  0  0  0  0
   56.6570   29.5010   52.0120 O   0  0  0  0  0  0  0  0  0  0  0  0
   57.4840   30.6400   52.1710 C   0  0  0  0  0  0  0  0  0  0  0  0
   58.5070   30.7700   51.0280 C   0  0  0  0  0  0  0  0  0  0  0  0
   58.9900   29.4310   50.6200 N   0  0  0  0  0  0  0  0  0  0  0  0
   59.3650   29.3710   49.1840 C   0  0  0  0  0  0  0  0  0  0  0  0
   59.6710   30.7400   48.5460 C   0  0  0  0  0  0  0  0  0  0  0  0
   60.2190   30.5500   47.2010 N   0  0  0  0  0  0  0  0  0  0  0  0
   59.3560   30.2650   46.0880 C   0  0  0  0  0  0  0  0  0  0  0  0
   58.7860   31.3130   45.3660 C   0  0  0  0  0  0  0  0  0  0  0  0
   57.9210   31.0700   44.3330 C   0  0  0  0  0  0  0  0  0  0  0  0
   57.5670   29.7950   43.9660 N   0  0  0  0  0  0  0  0  0  0  0  0
   56.6040   29.5810   42.8700 C   0  0  0  0  0  0  0  0  0  0  0  0
   58.1580   28.7190   44.6100 C   0  0  0  0  0  0  0  0  0  0  0  0
   57.8930   27.3830   44.2190 C   0  0  0  0  0  0  0  0  0  0  0  0
   58.5070   26.3110   44.8660 C   0  0  0  0  0  0  0  0  0  0  0  0
   59.4080   26.5360   45.9020 C   0  0  0  0  0  0  0  0  0  0  0  0
   59.6900   27.8390   46.3100 C   0  0  0  0  0  0  0  0  0  0  0  0
   59.0690   28.9390   45.6880 C   0  0  0  0  0  0  0  0  0  0  0  0
   57.4090   32.3420   43.7490 C   0  0  0  0  0  0  0  0  0  0  0  0
   58.1660   33.4480   44.4970 C   0  0  0  0  0  0  0  0  0  0  0  0
   58.9790   32.7670   45.6070 C   0  0  0  0  0  0  0  0  0  0  0  0
   59.9810   28.8610   51.5600 C   0  0  0  0  0  0  0  0  0  0  0  0
   61.3870   28.8600   50.9390 C   0  0  0  0  0  0  0  0  0  0  0  0
   62.1260   29.9820   51.3850 O   0  0  0  0  0  0  0  0  0  0  0  0
   62.9690   29.6540   52.4720 C   0  0  0  0  0  0  0  0  0  0  0  0
   63.5190   28.2230   52.3460 C   0  0  0  0  0  0  0  0  0  0  0  0
   64.9350   28.1960   52.3010 O   0  0  0  0  0  0  0  0  0  0  0  0
   65.4810   29.4740   52.5740 C   0  0  0  0  0  0  0  0  0  0  0  0
   66.5590   29.7940   51.5370 C   0  0  0  0  0  0  0  0  0  0  0  0
   66.1450   30.8530   50.6870 O   0  0  0  0  0  0  0  0  0  0  0  0
   66.2670   32.1270   51.2960 C   0  0  0  0  0  0  0  0  0  0  0  0
   64.9920   32.9560   51.1280 C   0  0  0  0  0  0  0  0  0  0  0  0
   63.9050   32.1450   50.5750 N   0  0  0  0  0  0  0  0  0  0  0  0
   62.7220   32.7430   50.0260 C   0  0  0  0  0  0  0  0  0  0  0  0
   62.6890   33.0900   48.6790 C   0  0  0  0  0  0  0  0  0  0  0  0
   61.5770   33.6660   48.1240 C   0  0  0  0  0  0  0  0  0  0  0  0
   60.4480   33.9290   48.8610 N   0  0  0  0  0  0  0  0  0  0  0  0
   59.2700   34.5380   48.2170 C   0  0  0  0  0  0  0  0  0  0  0  0
   60.4360   33.6200   50.2100 C   0  0  0  0  0  0  0  0  0  0  0  0
   59.3130   33.8920   51.0250 C   0  0  0  0  0  0  0  0  0  0  0  0
   59.3280   33.5940   52.3900 C   0  0  0  0  0  0  0  0  0  0  0  0
   60.4590   33.0350   52.9770 C   0  0  0  0  0  0  0  0  0  0  0  0
   61.5810   32.7530   52.2020 C   0  0  0  0  0  0  0  0  0  0  0  0
   61.5860   33.0220   50.8180 C   0  0  0  0  0  0  0  0  0  0  0  0
   61.7790   33.9340   46.6720 C   0  0  0  0  0  0  0  0  0  0  0  0
   63.2200   33.4770   46.3870 C   0  0  0  0  0  0  0  0  0  0  0  0
   63.7780   32.8900   47.6920 C   0  0  0  0  0  0  0  0  0  0  0  0
   51.1928   30.5725   50.4107 H   0  0  0  0  0  0  0  0  0  0  0  0
   52.8096   30.7382   49.6457 H   0  0  0  0  0  0  0  0  0  0  0  0
   51.9747   29.1477   49.6457 H   0  0  0  0  0  0  0  0  0  0  0  0
   52.0706   29.2841   52.2279 H   0  0  0  0  0  0  0  0  0  0  0  0
   53.6216   28.9917   51.3801 H   0  0  0  0  0  0  0  0  0  0  0  0
   54.9878   30.9542   50.8708 H   0  0  0  0  0  0  0  0  0  0  0  0
   55.1453   31.8597   52.4176 H   0  0  0  0  0  0  0  0  0  0  0  0
   55.5117   29.9032   53.6769 H   0  0  0  0  0  0  0  0  0  0  0  0
   54.7510   28.8440   52.4465 H   0  0  0  0  0  0  0  0  0  0  0  0
   56.8513   31.5397   52.1861 H   0  0  0  0  0  0  0  0  0  0  0  0
   58.0388   30.5298   53.1144 H   0  0  0  0  0  0  0  0  0  0  0  0
   58.0300   31.2621   50.1676 H   0  0  0  0  0  0  0  0  0  0  0  0
   59.3611   31.3690   51.3768 H   0  0  0  0  0  0  0  0  0  0  0  0
   60.2607   28.7396   49.0888 H   0  0  0  0  0  0  0  0  0  0  0  0
   58.4937   28.9645   48.6497 H   0  0  0  0  0  0  0  0  0  0  0  0
   58.7439   31.3286   48.4827 H   0  0  0  0  0  0  0  0  0  0  0  0
   60.4071   31.2728   49.1658 H   0  0  0  0  0  0  0  0  0  0  0  0
   61.1370   31.0030   47.0050 H   0  0  0  0  0  0  0  0  0  0  0  0
   55.6121   29.3606   43.2913 H   0  0  0  0  0  0  0  0  0  0  0  0
   56.5459   30.4882   42.2506 H   0  0  0  0  0  0  0  0  0  0  0  0
   56.9356   28.7346   42.2506 H   0  0  0  0  0  0  0  0  0  0  0  0
   57.1928   27.1887   43.3932 H   0  0  0  0  0  0  0  0  0  0  0  0
   58.2775   25.2811   44.5553 H   0  0  0  0  0  0  0  0  0  0  0  0
   59.8979   25.6858   46.3992 H   0  0  0  0  0  0  0  0  0  0  0  0
   60.4060   28.0097   47.1274 H   0  0  0  0  0  0  0  0  0  0  0  0
   57.6223   32.3871   42.6708 H   0  0  0  0  0  0  0  0  0  0  0  0
   56.3185   32.4392   43.8558 H   0  0  0  0  0  0  0  0  0  0  0  0
   58.8393   33.9776   43.8069 H   0  0  0  0  0  0  0  0  0  0  0  0
   57.4666   34.1844   44.9195 H   0  0  0  0  0  0  0  0  0  0  0  0
   60.0428   33.0364   45.5317 H   0  0  0  0  0  0  0  0  0  0  0  0
   58.6545   33.0725   46.6127 H   0  0  0  0  0  0  0  0  0  0  0  0
   59.9937   29.4642   52.4797 H   0  0  0  0  0  0  0  0  0  0  0  0
   59.6953   27.8230   51.7859 H   0  0  0  0  0  0  0  0  0  0  0  0
   61.9125   27.9398   51.2339 H   0  0  0  0  0  0  0  0  0  0  0  0
   61.2927   28.9081   49.8441 H   0  0  0  0  0  0  0  0  0  0  0  0
   63.8120   30.3602   52.4965 H   0  0  0  0  0  0  0  0  0  0  0  0
   62.3788   29.7170   53.3981 H   0  0  0  0  0  0  0  0  0  0  0  0
   63.1808   27.6359   53.2126 H   0  0  0  0  0  0  0  0  0  0  0  0
   63.1430   27.7984   51.4035 H   0  0  0  0  0  0  0  0  0  0  0  0
   64.6856   30.2321   52.5234 H   0  0  0  0  0  0  0  0  0  0  0  0
   65.9245   29.4784   53.5806 H   0  0  0  0  0  0  0  0  0  0  0  0
   67.4825   30.0892   52.0567 H   0  0  0  0  0  0  0  0  0  0  0  0
   66.7335   28.8980   50.9232 H   0  0  0  0  0  0  0  0  0  0  0  0
   66.4662   31.9920   52.3694 H   0  0  0  0  0  0  0  0  0  0  0  0
   67.0935   32.6641   50.8076 H   0  0  0  0  0  0  0  0  0  0  0  0
   64.6854   33.3465   52.1096 H   0  0  0  0  0  0  0  0  0  0  0  0
   65.2011   33.7815   50.4317 H   0  0  0  0  0  0  0  0  0  0  0  0
   63.8760   31.1260   50.8080 H   0  0  0  0  0  0  0  0  0  0  0  0
   58.5746   34.8975   48.9897 H   0  0  0  0  0  0  0  0  0  0  0  0
   59.5907   35.3833   47.5904 H   0  0  0  0  0  0  0  0  0  0  0  0
   58.7658   33.7876   47.5904 H   0  0  0  0  0  0  0  0  0  0  0  0
   58.4153   34.3444   50.5783 H   0  0  0  0  0  0  0  0  0  0  0  0
   58.4399   33.8027   53.0046 H   0  0  0  0  0  0  0  0  0  0  0  0
   60.4668   32.8155   54.0549 H   0  0  0  0  0  0  0  0  0  0  0  0
   62.4729   32.3157   52.6746 H   0  0  0  0  0  0  0  0  0  0  0  0
   61.0627   33.3578   46.0679 H   0  0  0  0  0  0  0  0  0  0  0  0
   61.6203   34.9925   46.4183 H   0  0  0  0  0  0  0  0  0  0  0  0
   63.2230   32.7108   45.5977 H   0  0  0  0  0  0  0  0  0  0  0  0
   63.8363   34.3212   46.0442 H   0  0  0  0  0  0  0  0  0  0  0  0
   64.0041   31.8201   47.5727 H   0  0  0  0  0  0  0  0  0  0  0  0
   64.7183   33.3703   48.0006 H   0  0  0  0  0  0  0  0  0  0  0  0
  1  2  1  0
  2  3  1  0
  3  4  1  0
  4  5  1  0
  5  6  1  0
  6  7  1  0
  7  8  1  0
  8  9  1  0
  9 10  1  0
 10 11  1  0
 11 12  1  0
 12 13  1  0
 13 14  2  0
 14 15  1  0
 15 16  2  0
 16 17  1  0
 16 18  1  0
 18 19  2  0
 19 20  1  0
 20 21  2  0
 21 22  1  0
 22 23  2  0
 15 24  1  0
 24 25  1  0
 25 26  1  0
  9 27  1  0
 27 28  1  0
 28 29  1  0
 29 30  1  0
 30 31  1  0
 31 32  1  0
 32 33  1  0
 33 34  1  0
 34 35  1  0
 35 36  1  0
 36 37  1  0
 37 38  1  0
 38 39  1  0
 39 40  2  0
 40 41  1  0
 41 42  2  0
 42 43  1  0
 42 44  1  0
 44 45  2  0
 45 46  1  0
 46 47  2  0
 47 48  1  0
 48 49  2  0
 41 50  1  0
 50 51  1  0
 51 52  1  0
 23 13  1  0
 49 39  1  0
 26 14  1  0
 52 40  1  0
 23 18  1  0
 49 44  1  0
  1 53  1  0
  1 54  1  0
  1 55  1  0
  2 56  1  0
  2 57  1  0
  4 58  1  0
  4 59  1  0
  5 60  1  0
  5 61  1  0
  7 62  1  0
  7 63  1  0
  8 64  1  0
  8 65  1  0
 10 66  1  0
 10 67  1  0
 11 68  1  0
 11 69  1  0
 12 70  1  0
 17 71  1  0
 17 72  1  0
 17 73  1  0
 19 74  1  0
 20 75  1  0
 21 76  1  0
 22 77  1  0
 24 78  1  0
 24 79  1  0
 25 80  1  0
 25 81  1  0
 26 82  1  0
 26 83  1  0
 27 84  1  0
 27 85  1  0
 28 86  1  0
 28 87  1  0
 30 88  1  0
 30 89  1  0
 31 90  1  0
 31 91  1  0
 33 92  1  0
 33 93  1  0
 34 94  1  0
 34 95  1  0
 36 96  1  0
 36 97  1  0
 37 98  1  0
 37 99  1  0
 38100  1  0
 43101  1  0
 43102  1  0
 43103  1  0
 45104  1  0
 46105  1  0
 47106  1  0
 48107  1  0
 50108  1  0
 50109  1  0
 51110  1  0
 51111  1  0
 52112  1  0
 52113  1  0
M  CHG  2  16   1  42   1
M  END
>  <UniqueID>  (20) 
19

>  <SMILES>  (20) 
CCOCCOCCN(CCNc1c2c([n+](C)c3ccccc13)CCC2)CCOCCOCCOCCNc1c2c([n+](C)c3ccccc13)CCC2

>  <Energy>  (20) 
167.529227319676

>  <Genealogy>  (20) 
CCOCCOCCN(CCNc1c2c([n+](C)c3ccccc13)CCC2)CCOCCOCCOCCNc1c2c([n+](C)c3ccccc13)CCC2 (3D coordinates assigned)
CCOCCOCCN(CCNc1c2c([n+](C)c3ccccc13)CCC2)CCOCCOCCOCCNc1c2c([n+](C)c3ccccc13)CCC2 (nonaromatic ring conformer: 167.529227319676 kcal/mol)

>  <smiles>  (20) 
CCOCCOCCN(CCNc1c2c([n+](C)c3ccccc13)CCC2)CCOCCOCCOCCNc1c2c([n+](C)c3ccccc13)CCC2

>  <score_type>  (20) 
oracle

>  <origin>  (20) 
adg

>  <m_score__min__energy>  (20) 
-7.04

>  <m_primary>  (20) 
energy

$$$$
20:0
     RDKit          3D

 46 46  0  0  0  0  0  0  0  0999 V2000
   57.3930   33.1910   44.9740 C   0  0  0  0  0  0  0  0  0  0  0  0
   58.1100   32.5820   44.0250 C   0  0  0  0  0  0  0  0  0  0  0  0
   57.4910   31.5780   43.0950 C   0  0  0  0  0  0  0  0  0  0  0  0
   57.6440   30.2240   43.6250 N   0  0  0  0  0  0  0  0  0  0  0  0
   56.6530   29.6120   44.4650 C   0  0  0  0  0  0  0  0  0  0  0  0
   55.5980   30.2400   44.7550 O   0  0  0  0  0  0  0  0  0  0  0  0
   56.8530   28.2550   44.9960 C   0  0  0  0  0  0  0  0  0  0  0  0
   55.9220   27.6760   45.6190 O   0  0  0  0  0  0  0  0  0  0  0  0
   58.1100   27.5980   44.8050 N   0  0  0  0  0  0  0  0  0  0  0  0
   59.2060   27.6570   45.7670 C   0  0  0  0  0  0  0  0  0  0  0  0
   60.1740   28.7850   45.4080 C   0  0  0  0  0  0  0  0  0  0  0  0
   60.0310   29.9330   46.3710 C   0  0  0  0  0  0  0  0  0  0  0  0
   58.7610   30.3290   46.8110 C   0  0  0  0  0  0  0  0  0  0  0  0
   58.6210   31.4130   47.6790 C   0  0  0  0  0  0  0  0  0  0  0  0
   59.7530   32.1290   48.1140 C   0  0  0  0  0  0  0  0  0  0  0  0
   59.6600   33.2250   48.9900 O   0  0  0  0  0  0  0  0  0  0  0  0
   59.7430   34.6010   48.6180 C   0  0  0  0  0  0  0  0  0  0  0  0
   59.5880   34.7620   47.1100 C   0  0  0  0  0  0  0  0  0  0  0  0
   61.0290   31.7420   47.6720 C   0  0  0  0  0  0  0  0  0  0  0  0
   62.1360   32.4820   48.1250 O   0  0  0  0  0  0  0  0  0  0  0  0
   63.3870   32.6120   47.4480 C   0  0  0  0  0  0  0  0  0  0  0  0
   63.3600   33.7910   46.4820 C   0  0  0  0  0  0  0  0  0  0  0  0
   61.1600   30.6490   46.7930 C   0  0  0  0  0  0  0  0  0  0  0  0
   57.8724   33.9223   45.6413 H   0  0  0  0  0  0  0  0  0  0  0  0
   56.3234   32.9610   45.0879 H   0  0  0  0  0  0  0  0  0  0  0  0
   59.1787   32.8216   43.9225 H   0  0  0  0  0  0  0  0  0  0  0  0
   56.4203   31.8028   42.9808 H   0  0  0  0  0  0  0  0  0  0  0  0
   57.9979   31.6371   42.1205 H   0  0  0  0  0  0  0  0  0  0  0  0
   58.5020   29.6880   43.3640 H   0  0  0  0  0  0  0  0  0  0  0  0
   58.7963   27.8377   46.7718 H   0  0  0  0  0  0  0  0  0  0  0  0
   59.7500   26.7012   45.7453 H   0  0  0  0  0  0  0  0  0  0  0  0
   61.2050   28.4038   45.4506 H   0  0  0  0  0  0  0  0  0  0  0  0
   59.9417   29.1421   44.3938 H   0  0  0  0  0  0  0  0  0  0  0  0
   57.8692   29.7824   46.4704 H   0  0  0  0  0  0  0  0  0  0  0  0
   57.6201   31.7099   48.0255 H   0  0  0  0  0  0  0  0  0  0  0  0
   58.9433   35.1609   49.1250 H   0  0  0  0  0  0  0  0  0  0  0  0
   60.7284   34.9889   48.9156 H   0  0  0  0  0  0  0  0  0  0  0  0
   58.8392   35.5398   46.8993 H   0  0  0  0  0  0  0  0  0  0  0  0
   60.5535   35.0541   46.6713 H   0  0  0  0  0  0  0  0  0  0  0  0
   59.2594   33.8083   46.6713 H   0  0  0  0  0  0  0  0  0  0  0  0
   64.1835   32.7717   48.1897 H   0  0  0  0  0  0  0  0  0  0  0  0
   63.5754   31.6917   46.8758 H   0  0  0  0  0  0  0  0  0  0  0  0
   63.3385   34.7316   47.0519 H   0  0  0  0  0  0  0  0  0  0  0  0
   64.2589   33.7666   45.8485 H   0  0  0  0  0  0  0  0  0  0  0  0
   62.4631   33.7255   45.8485 H   0  0  0  0  0  0  0  0  0  0  0  0
   62.1574   30.3546   46.4344 H   0  0  0  0  0  0  0  0  0  0  0  0
  1  2  2  0
  2  3  1  0
  3  4  1  0
  4  5  1  0
  5  6  2  0
  5  7  1  0
  7  8  2  0
  7  9  1  0
  9 10  1  0
 10 11  1  0
 11 12  1  0
 12 13  2  0
 13 14  1  0
 14 15  2  0
 15 16  1  0
 16 17  1  0
 17 18  1  0
 15 19  1  0
 19 20  1  0
 20 21  1  0
 21 22  1  0
 19 23  2  0
 23 12  1  0
  1 24  1  0
  1 25  1  0
  2 26  1  0
  3 27  1  0
  3 28  1  0
  4 29  1  0
 10 30  1  0
 10 31  1  0
 11 32  1  0
 11 33  1  0
 13 34  1  0
 14 35  1  0
 17 36  1  0
 17 37  1  0
 18 38  1  0
 18 39  1  0
 18 40  1  0
 21 41  1  0
 21 42  1  0
 22 43  1  0
 22 44  1  0
 22 45  1  0
 23 46  1  0
M  CHG  1   9  -1
M  END
>  <UniqueID>  (21) 
20

>  <SMILES>  (21) 
C=CCNC(=O)C(=O)[N-]CCc1ccc(OCC)c(OCC)c1

>  <Energy>  (21) 
28.72583064729792

>  <Genealogy>  (21) 
C=CCNC(=O)C(=O)[N-]CCc1ccc(OCC)c(OCC)c1 (protonated)
C=CCNC(=O)C(=O)[N-]CCc1ccc(OCC)c(OCC)c1 (3D coordinates assigned)
C=CCNC(=O)C(=O)[N-]CCc1ccc(OCC)c(OCC)c1 (optimized conformer: 28.72583064729792 kcal/mol)

>  <smiles>  (21) 
C=CCNC(=O)C(=O)NCCc1ccc(OCC)c(OCC)c1

>  <score_type>  (21) 
oracle

>  <origin>  (21) 
adg

>  <m_score__min__energy>  (21) 
-7.7599999999999998

>  <m_primary>  (21) 
energy

$$$$
21:0
     RDKit          3D

 45 46  0  0  0  0  0  0  0  0999 V2000
   58.1620   21.6080   45.5990 C   0  0  0  0  0  0  0  0  0  0  0  0
   58.1470   21.9200   44.1050 C   0  0  0  0  0  0  0  0  0  0  0  0
   57.0940   21.0840   43.3720 C   0  0  0  0  0  0  0  0  0  0  0  0
   56.0040   21.9010   42.9910 O   0  0  0  0  0  0  0  0  0  0  0  0
   56.3710   23.2670   43.0190 C   0  0  0  0  0  0  0  0  0  0  0  0
   55.3170   24.0690   43.7870 C   0  0  0  0  0  0  0  0  0  0  0  0
   55.0150   23.4760   45.1710 C   0  0  0  0  0  0  0  0  0  0  0  0
   55.7850   24.1480   46.2130 N   0  0  0  0  0  0  0  0  0  0  0  0
   56.0290   25.5580   46.2920 C   0  0  0  0  0  0  0  0  0  0  0  0
   55.0850   26.3480   46.0240 O   0  0  0  0  0  0  0  0  0  0  0  0
   57.3150   26.0750   46.6840 N   0  0  0  0  0  0  0  0  0  0  0  0
   57.6960   27.4560   46.5500 C   0  0  0  0  0  0  0  0  0  0  0  0
   58.8140   27.9380   47.2780 C   0  0  0  0  0  0  0  0  0  0  0  0
   59.2330   29.2740   47.1530 C   0  0  0  0  0  0  0  0  0  0  0  0
   58.5180   30.1000   46.2860 C   0  0  0  0  0  0  0  0  0  0  0  0
   57.4580   29.6390   45.5620 C   0  0  0  0  0  0  0  0  0  0  0  0
   57.0170   28.3220   45.6590 C   0  0  0  0  0  0  0  0  0  0  0  0
   56.9720   30.6070   44.7640 N   0  0  0  0  0  0  0  0  0  0  0  0
   57.7790   31.6650   45.0420 C   0  0  0  0  0  0  0  0  0  0  0  0
   57.6300   32.9900   44.3640 C   0  0  0  0  0  0  0  0  0  0  0  0
   58.7240   31.3920   45.9810 N   0  0  0  0  0  0  0  0  0  0  0  0
   59.8070   32.2560   46.4480 C   0  0  0  0  0  0  0  0  0  0  0  0
   58.1169   22.5470   46.1701 H   0  0  0  0  0  0  0  0  0  0  0  0
   57.2929   20.9829   45.8518 H   0  0  0  0  0  0  0  0  0  0  0  0
   59.0871   21.0692   45.8518 H   0  0  0  0  0  0  0  0  0  0  0  0
   57.9190   22.9869   43.9641 H   0  0  0  0  0  0  0  0  0  0  0  0
   59.1355   21.6748   43.6894 H   0  0  0  0  0  0  0  0  0  0  0  0
   57.5450   20.6369   42.4738 H   0  0  0  0  0  0  0  0  0  0  0  0
   56.7324   20.2912   44.0433 H   0  0  0  0  0  0  0  0  0  0  0  0
   57.3460   23.3735   43.5170 H   0  0  0  0  0  0  0  0  0  0  0  0
   56.4388   23.6471   41.9890 H   0  0  0  0  0  0  0  0  0  0  0  0
   55.6833   25.0980   43.9171 H   0  0  0  0  0  0  0  0  0  0  0  0
   54.3857   24.0402   43.2023 H   0  0  0  0  0  0  0  0  0  0  0  0
   53.9425   23.5934   45.3853 H   0  0  0  0  0  0  0  0  0  0  0  0
   55.2948   22.4122   45.1626 H   0  0  0  0  0  0  0  0  0  0  0  0
   57.9850   25.4430   47.1720 H   0  0  0  0  0  0  0  0  0  0  0  0
   59.3598   27.2580   47.9486 H   0  0  0  0  0  0  0  0  0  0  0  0
   60.0954   29.6550   47.7197 H   0  0  0  0  0  0  0  0  0  0  0  0
   56.1658   27.9646   45.0608 H   0  0  0  0  0  0  0  0  0  0  0  0
   57.5409   33.7819   45.1222 H   0  0  0  0  0  0  0  0  0  0  0  0
   58.5123   33.1816   43.7356 H   0  0  0  0  0  0  0  0  0  0  0  0
   56.7272   32.9809   43.7356 H   0  0  0  0  0  0  0  0  0  0  0  0
   59.8196   32.2661   47.5479 H   0  0  0  0  0  0  0  0  0  0  0  0
   60.7682   31.8739   46.0737 H   0  0  0  0  0  0  0  0  0  0  0  0
   59.6480   33.2781   46.0737 H   0  0  0  0  0  0  0  0  0  0  0  0
  1  2  1  0
  2  3  1  0
  3  4  1  0
  4  5  1  0
  5  6  1  0
  6  7  1  0
  7  8  1  0
  8  9  1  0
  9 10  2  0
  9 11  1  0
 11 12  1  0
 12 13  2  0
 13 14  1  0
 14 15  2  0
 15 16  1  0
 16 17  2  0
 16 18  1  0
 18 19  2  0
 19 20  1  0
 19 21  1  0
 21 22  1  0
 17 12  1  0
 21 15  1  0
  1 23  1  0
  1 24  1  0
  1 25  1  0
  2 26  1  0
  2 27  1  0
  3 28  1  0
  3 29  1  0
  5 30  1  0
  5 31  1  0
  6 32  1  0
  6 33  1  0
  7 34  1  0
  7 35  1  0
 11 36  1  0
 13 37  1  0
 14 38  1  0
 17 39  1  0
 20 40  1  0
 20 41  1  0
 20 42  1  0
 22 43  1  0
 22 44  1  0
 22 45  1  0
M  CHG  1   8  -1
M  END
>  <UniqueID>  (22) 
21

>  <SMILES>  (22) 
CCCOCCC[N-]C(=O)Nc1ccc2c(c1)nc(C)n2C

>  <Energy>  (22) 
76.2959854860949

>  <Genealogy>  (22) 
CCCOCCC[N-]C(=O)Nc1ccc2c(c1)nc(C)n2C (protonated)
CCCOCCC[N-]C(=O)Nc1ccc2c(c1)nc(C)n2C (3D coordinates assigned)
CCCOCCC[N-]C(=O)Nc1ccc2c(c1)nc(C)n2C (optimized conformer: 76.2959854860949 kcal/mol)

>  <smiles>  (22) 
CCCOCCCNC(=O)Nc1ccc2c(c1)nc(C)n2C

>  <score_type>  (22) 
oracle

>  <origin>  (22) 
adg

>  <m_score__min__energy>  (22) 
-8.9700000000000006

>  <m_primary>  (22) 
energy

$$$$
22:0
     RDKit          3D

 57 59  0  0  0  0  0  0  0  0999 V2000
   58.9580   32.9050   51.0780 C   0  0  0  0  0  0  0  0  0  0  0  0
   60.2270   33.7180   50.8020 C   0  0  0  0  0  0  0  0  0  0  0  0
   60.6600   33.6190   49.3970 N   0  0  0  0  0  0  0  0  0  0  0  0
   61.9890   34.2080   49.1680 C   0  0  0  0  0  0  0  0  0  0  0  0
   63.0520   33.1150   49.0070 C   0  0  0  0  0  0  0  0  0  0  0  0
   63.2220   32.6860   47.5410 C   0  0  0  0  0  0  0  0  0  0  0  0
   62.2430   31.5690   47.1220 C   0  0  0  0  0  0  0  0  0  0  0  0
   60.8750   31.7480   47.6670 N   0  0  0  0  0  0  0  0  0  0  0  0
   59.8990   30.8530   47.0530 C   0  0  0  0  0  0  0  0  0  0  0  0
   59.8760   29.4760   47.3770 C   0  0  0  0  0  0  0  0  0  0  0  0
   60.4040   28.9960   48.5960 C   0  0  0  0  0  0  0  0  0  0  0  0
   60.3670   27.6380   48.9020 C   0  0  0  0  0  0  0  0  0  0  0  0
   59.7960   26.7370   48.0100 C   0  0  0  0  0  0  0  0  0  0  0  0
   59.2710   27.1860   46.7990 C   0  0  0  0  0  0  0  0  0  0  0  0
   59.3160   28.5600   46.4510 C   0  0  0  0  0  0  0  0  0  0  0  0
   58.8380   29.0150   45.2410 N   0  0  0  0  0  0  0  0  0  0  0  0
   58.6210   28.0700   44.1250 C   0  0  0  0  0  0  0  0  0  0  0  0
   58.5370   30.3550   45.0910 C   0  0  0  0  0  0  0  0  0  0  0  0
   57.7490   30.8150   44.0100 C   0  0  0  0  0  0  0  0  0  0  0  0
   57.4160   32.1570   43.8870 C   0  0  0  0  0  0  0  0  0  0  0  0
   57.7850   33.0640   44.8710 C   0  0  0  0  0  0  0  0  0  0  0  0
   58.5180   32.6430   45.9930 C   0  0  0  0  0  0  0  0  0  0  0  0
   58.7130   33.5030   47.0910 O   0  0  0  0  0  0  0  0  0  0  0  0
   58.8950   34.9180   47.0380 C   0  0  0  0  0  0  0  0  0  0  0  0
   59.9510   35.2910   46.0040 C   0  0  0  0  0  0  0  0  0  0  0  0
   59.0000   31.3040   46.0490 C   0  0  0  0  0  0  0  0  0  0  0  0
   58.8116   32.8112   52.1642 H   0  0  0  0  0  0  0  0  0  0  0  0
   58.0912   33.4163   50.6340 H   0  0  0  0  0  0  0  0  0  0  0  0
   59.0602   31.9038   50.6340 H   0  0  0  0  0  0  0  0  0  0  0  0
   60.0288   34.7740   51.0375 H   0  0  0  0  0  0  0  0  0  0  0  0
   61.0315   33.3102   51.4316 H   0  0  0  0  0  0  0  0  0  0  0  0
   59.9620   34.0950   48.7780 H   0  0  0  0  0  0  0  0  0  0  0  0
   61.9594   34.8189   48.2537 H   0  0  0  0  0  0  0  0  0  0  0  0
   62.2525   34.8289   50.0369 H   0  0  0  0  0  0  0  0  0  0  0  0
   64.0139   33.4982   49.3784 H   0  0  0  0  0  0  0  0  0  0  0  0
   62.7242   32.2361   49.5815 H   0  0  0  0  0  0  0  0  0  0  0  0
   63.0509   33.5616   46.8975 H   0  0  0  0  0  0  0  0  0  0  0  0
   64.2416   32.2882   47.4308 H   0  0  0  0  0  0  0  0  0  0  0  0
   62.1813   31.5536   46.0238 H   0  0  0  0  0  0  0  0  0  0  0  0
   62.6338   30.6254   47.5304 H   0  0  0  0  0  0  0  0  0  0  0  0
   60.6370   32.7520   47.5330 H   0  0  0  0  0  0  0  0  0  0  0  0
   60.8790   31.5830   48.7000 H   0  0  0  0  0  0  0  0  0  0  0  0
   60.8494   29.7028   49.3116 H   0  0  0  0  0  0  0  0  0  0  0  0
   60.7903   27.2774   49.8511 H   0  0  0  0  0  0  0  0  0  0  0  0
   59.7584   25.6666   48.2606 H   0  0  0  0  0  0  0  0  0  0  0  0
   58.8158   26.4649   46.1042 H   0  0  0  0  0  0  0  0  0  0  0  0
   58.3920   27.0726   44.5284 H   0  0  0  0  0  0  0  0  0  0  0  0
   57.7794   28.4181   43.5081 H   0  0  0  0  0  0  0  0  0  0  0  0
   59.5301   28.0161   43.5081 H   0  0  0  0  0  0  0  0  0  0  0  0
   57.3945   30.0979   43.2549 H   0  0  0  0  0  0  0  0  0  0  0  0
   56.8569   32.5035   43.0053 H   0  0  0  0  0  0  0  0  0  0  0  0
   57.5008   34.1220   44.7712 H   0  0  0  0  0  0  0  0  0  0  0  0
   57.9412   35.3941   46.7669 H   0  0  0  0  0  0  0  0  0  0  0  0
   59.2308   35.2669   48.0257 H   0  0  0  0  0  0  0  0  0  0  0  0
   60.8684   35.6150   46.5173 H   0  0  0  0  0  0  0  0  0  0  0  0
   60.1725   34.4167   45.3743 H   0  0  0  0  0  0  0  0  0  0  0  0
   59.5742   36.1104   45.3743 H   0  0  0  0  0  0  0  0  0  0  0  0
  1  2  1  0
  2  3  1  0
  3  4  1  0
  4  5  1  0
  5  6  1  0
  6  7  1  0
  7  8  1  0
  8  9  1  0
  9 10  2  0
 10 11  1  0
 11 12  2  0
 12 13  1  0
 13 14  2  0
 14 15  1  0
 15 16  2  0
 16 17  1  0
 16 18  1  0
 18 19  2  0
 19 20  1  0
 20 21  2  0
 21 22  1  0
 22 23  1  0
 23 24  1  0
 24 25  1  0
 22 26  2  0
 26  9  1  0
 15 10  1  0
 26 18  1  0
  1 27  1  0
  1 28  1  0
  1 29  1  0
  2 30  1  0
  2 31  1  0
  3 32  1  0
  4 33  1  0
  4 34  1  0
  5 35  1  0
  5 36  1  0
  6 37  1  0
  6 38  1  0
  7 39  1  0
  7 40  1  0
  8 41  1  0
  8 42  1  0
 11 43  1  0
 12 44  1  0
 13 45  1  0
 14 46  1  0
 17 47  1  0
 17 48  1  0
 17 49  1  0
 19 50  1  0
 20 51  1  0
 21 52  1  0
 24 53  1  0
 24 54  1  0
 25 55  1  0
 25 56  1  0
 25 57  1  0
M  CHG  2   8   1  16   1
M  END
>  <UniqueID>  (23) 
22

>  <SMILES>  (23) 
CCNCCCC[NH2+]c1c2ccccc2[n+](C)c2cccc(OCC)c12

>  <Energy>  (23) 
89.8897110204218

>  <Genealogy>  (23) 
CCNCCCC[NH2+]c1c2ccccc2[n+](C)c2cccc(OCC)c12 (protonated)
CCNCCCC[NH2+]c1c2ccccc2[n+](C)c2cccc(OCC)c12 (3D coordinates assigned)
CCNCCCC[NH2+]c1c2ccccc2[n+](C)c2cccc(OCC)c12 (optimized conformer: 89.8897110204218 kcal/mol)

>  <smiles>  (23) 
CCNCCCCNc1c2ccccc2[n+](C)c2cccc(OCC)c12

>  <score_type>  (23) 
oracle

>  <origin>  (23) 
adg

>  <m_score__min__energy>  (23) 
-4.1699999999999999

>  <m_primary>  (23) 
energy

$$$$
