0:0
     RDKit          3D

 41 44  0  0  0  0  0  0  0  0999 V2000
   57.4460   32.3170   41.0600 C   0  0  0  0  0  0  0  0  0  0  0  0
   57.5050   32.0840   42.5080 N   0  0  0  0  0  0  0  0  0  0  0  0
   58.0070   33.0600   43.3240 C   0  0  0  0  0  0  0  0  0  0  0  0
   58.0860   32.8630   44.7020 C   0  0  0  0  0  0  0  0  0  0  0  0
   58.7260   34.1230   45.7420 Cl  0  0  0  0  0  0  0  0  0  0  0  0
   57.6540   31.6580   45.2470 C   0  0  0  0  0  0  0  0  0  0  0  0
   57.1640   30.6430   44.4160 C   0  0  0  0  0  0  0  0  0  0  0  0
   56.7230   29.3510   45.0050 C   0  0  0  0  0  0  0  0  0  0  0  0
   55.5240   28.9870   44.8720 O   0  0  0  0  0  0  0  0  0  0  0  0
   57.6070   28.5290   45.7790 N   0  0  0  0  0  0  0  0  0  0  0  0
   58.6400   28.9940   46.6600 C   0  0  0  0  0  0  0  0  0  0  0  0
   59.7790   29.5910   46.1110 C   0  0  0  0  0  0  0  0  0  0  0  0
   60.8080   30.0460   46.9410 C   0  0  0  0  0  0  0  0  0  0  0  0
   60.7070   29.9120   48.3340 C   0  0  0  0  0  0  0  0  0  0  0  0
   61.7770   30.3700   49.1760 N   0  0  0  0  0  0  0  0  0  0  0  0
   62.0930   29.9050   50.4110 C   0  0  0  0  0  0  0  0  0  0  0  0
   63.1500   30.5490   50.9710 N   0  0  0  0  0  0  0  0  0  0  0  0
   63.4870   31.4540   50.0340 C   0  0  0  0  0  0  0  0  0  0  0  0
   64.4960   32.4120   50.1060 C   0  0  0  0  0  0  0  0  0  0  0  0
   64.6380   33.2970   49.0200 C   0  0  0  0  0  0  0  0  0  0  0  0
   63.7700   33.2110   47.9080 C   0  0  0  0  0  0  0  0  0  0  0  0
   62.7580   32.2330   47.8680 C   0  0  0  0  0  0  0  0  0  0  0  0
   62.6610   31.3570   48.9520 C   0  0  0  0  0  0  0  0  0  0  0  0
   59.5400   29.3610   48.8890 C   0  0  0  0  0  0  0  0  0  0  0  0
   59.3790   29.2990   50.2350 F   0  0  0  0  0  0  0  0  0  0  0  0
   58.5110   28.9090   48.0570 C   0  0  0  0  0  0  0  0  0  0  0  0
   57.0930   30.8810   43.0260 C   0  0  0  0  0  0  0  0  0  0  0  0
   56.6650   29.9760   42.2570 O   0  0  0  0  0  0  0  0  0  0  0  0
   57.1801   33.3670   40.8681 H   0  0  0  0  0  0  0  0  0  0  0  0
   58.4275   32.0998   40.6134 H   0  0  0  0  0  0  0  0  0  0  0  0
   56.6862   31.6588   40.6134 H   0  0  0  0  0  0  0  0  0  0  0  0
   58.3518   34.0096   42.8889 H   0  0  0  0  0  0  0  0  0  0  0  0
   57.6975   31.5020   46.3350 H   0  0  0  0  0  0  0  0  0  0  0  0
   59.8659   29.7033   45.0202 H   0  0  0  0  0  0  0  0  0  0  0  0
   61.7015   30.5115   46.4996 H   0  0  0  0  0  0  0  0  0  0  0  0
   61.5483   29.0890   50.9085 H   0  0  0  0  0  0  0  0  0  0  0  0
   65.1591   32.4749   50.9814 H   0  0  0  0  0  0  0  0  0  0  0  0
   65.4298   34.0604   49.0373 H   0  0  0  0  0  0  0  0  0  0  0  0
   63.8858   33.9125   47.0686 H   0  0  0  0  0  0  0  0  0  0  0  0
   62.0685   32.1612   47.0139 H   0  0  0  0  0  0  0  0  0  0  0  0
   57.5966   28.4851   48.4977 H   0  0  0  0  0  0  0  0  0  0  0  0
  1  2  1  0
  2  3  1  0
  3  4  2  0
  4  5  1  0
  4  6  1  0
  6  7  2  0
  7  8  1  0
  8  9  2  0
  8 10  1  0
 10 11  1  0
 11 12  2  0
 12 13  1  0
 13 14  2  0
 14 15  1  0
 15 16  1  0
 16 17  2  0
 17 18  1  0
 18 19  2  0
 19 20  1  0
 20 21  2  0
 21 22  1  0
 22 23  2  0
 14 24  1  0
 24 25  1  0
 24 26  2  0
  7 27  1  0
 27 28  2  0
 27  2  1  0
 26 11  1  0
 23 15  1  0
 23 18  1  0
  1 29  1  0
  1 30  1  0
  1 31  1  0
  3 32  1  0
  6 33  1  0
 12 34  1  0
 13 35  1  0
 16 36  1  0
 19 37  1  0
 20 38  1  0
 21 39  1  0
 22 40  1  0
 26 41  1  0
M  CHG  1  10  -1
M  END
>  <UniqueID>  (1) 
1

>  <SMILES>  (1) 
Cn1cc(Cl)cc(C(=O)[N-]c2ccc(-n3cnc4ccccc43)c(F)c2)c1=O

>  <Energy>  (1) 
99.2769862018896

>  <Genealogy>  (1) 
Cn1cc(Cl)cc(C(=O)[N-]c2ccc(-n3cnc4ccccc43)c(F)c2)c1=O (protonated)
Cn1cc(Cl)cc(C(=O)[N-]c2ccc(-n3cnc4ccccc43)c(F)c2)c1=O (3D coordinates assigned)
Cn1cc(Cl)cc(C(=O)[N-]c2ccc(-n3cnc4ccccc43)c(F)c2)c1=O (optimized conformer: 99.2769862018896 kcal/mol)

>  <smiles>  (1) 
Cn1cc(Cl)cc(C(=O)Nc2ccc(-n3cnc4ccccc43)c(F)c2)c1=O

>  <score_type>  (1) 
oracle

>  <origin>  (1) 
adg

>  <m_score__min__energy>  (1) 
-9.8399999999999999

>  <m_primary>  (1) 
energy

$$$$
1:0
     RDKit          3D

 49 50  0  0  0  0  0  0  0  0999 V2000
   56.3420   30.1210   43.6820 C   0  0  0  0  0  0  0  0  0  0  0  0
   57.3470   31.2050   43.3100 C   0  0  0  0  0  0  0  0  0  0  0  0
   57.7670   31.9850   44.5280 C   0  0  0  0  0  0  0  0  0  0  0  0
   57.7410   33.3870   44.5150 C   0  0  0  0  0  0  0  0  0  0  0  0
   58.1000   34.1090   45.6570 C   0  0  0  0  0  0  0  0  0  0  0  0
   58.4750   33.4470   46.8310 C   0  0  0  0  0  0  0  0  0  0  0  0
   58.8240   34.2250   47.9460 O   0  0  0  0  0  0  0  0  0  0  0  0
   60.1530   34.4860   48.3990 C   0  0  0  0  0  0  0  0  0  0  0  0
   60.4710   33.7220   49.7070 C   0  0  0  0  0  0  0  0  0  0  0  0
   59.3950   32.8140   50.1880 N   0  0  2  0  0  0  0  0  0  0  0  0
   58.9660   33.1090   51.5690 C   0  0  0  0  0  0  0  0  0  0  0  0
   57.6550   32.3740   51.9090 C   0  0  0  0  0  0  0  0  0  0  0  0
   57.4810   31.0180   51.1650 C   0  0  2  0  0  0  0  0  0  0  0  0
   56.6320   30.0900   51.9710 N   0  0  0  0  0  0  0  0  0  0  0  0
   57.1510   29.9680   53.3500 C   0  0  0  0  0  0  0  0  0  0  0  0
   55.2250   30.5370   52.0440 C   0  0  0  0  0  0  0  0  0  0  0  0
   58.8810   30.4260   50.8610 C   0  0  0  0  0  0  0  0  0  0  0  0
   59.7510   31.3840   50.0130 C   0  0  0  0  0  0  0  0  0  0  0  0
   58.4930   32.0380   46.8470 C   0  0  0  0  0  0  0  0  0  0  0  0
   58.1350   31.3150   45.7060 C   0  0  0  0  0  0  0  0  0  0  0  0
   56.2723   30.0459   44.7772 H   0  0  0  0  0  0  0  0  0  0  0  0
   55.3556   30.3781   43.2686 H   0  0  0  0  0  0  0  0  0  0  0  0
   56.6728   29.1568   43.2686 H   0  0  0  0  0  0  0  0  0  0  0  0
   58.2336   30.7354   42.8589 H   0  0  0  0  0  0  0  0  0  0  0  0
   56.8738   31.8945   42.5954 H   0  0  0  0  0  0  0  0  0  0  0  0
   57.4369   33.9208   43.6025 H   0  0  0  0  0  0  0  0  0  0  0  0
   58.0875   35.2087   45.6322 H   0  0  0  0  0  0  0  0  0  0  0  0
   60.8635   34.1714   47.6204 H   0  0  0  0  0  0  0  0  0  0  0  0
   60.2417   35.5637   48.6005 H   0  0  0  0  0  0  0  0  0  0  0  0
   61.3749   33.1185   49.5374 H   0  0  0  0  0  0  0  0  0  0  0  0
   60.5942   34.4888   50.4860 H   0  0  0  0  0  0  0  0  0  0  0  0
   58.5740   33.0050   49.5630 H   0  0  0  0  0  0  0  0  0  0  0  0
   59.7518   32.7843   52.2669 H   0  0  0  0  0  0  0  0  0  0  0  0
   58.7941   34.1918   51.6588 H   0  0  0  0  0  0  0  0  0  0  0  0
   57.6375   32.1798   52.9916 H   0  0  0  0  0  0  0  0  0  0  0  0
   56.8303   33.0250   51.5834 H   0  0  0  0  0  0  0  0  0  0  0  0
   56.9607   31.1717   50.2081 H   0  0  0  0  0  0  0  0  0  0  0  0
   56.3381   30.1591   54.0660 H   0  0  0  0  0  0  0  0  0  0  0  0
   57.5450   28.9528   53.5050 H   0  0  0  0  0  0  0  0  0  0  0  0
   57.9561   30.7014   53.5050 H   0  0  0  0  0  0  0  0  0  0  0  0
   54.9248   30.6324   53.0979 H   0  0  0  0  0  0  0  0  0  0  0  0
   55.1235   31.5116   51.5442 H   0  0  0  0  0  0  0  0  0  0  0  0
   54.5796   29.7997   51.5442 H   0  0  0  0  0  0  0  0  0  0  0  0
   59.3962   30.2290   51.8127 H   0  0  0  0  0  0  0  0  0  0  0  0
   58.7375   29.5009   50.2834 H   0  0  0  0  0  0  0  0  0  0  0  0
   60.8033   31.2486   50.3034 H   0  0  0  0  0  0  0  0  0  0  0  0
   59.5756   31.1326   48.9566 H   0  0  0  0  0  0  0  0  0  0  0  0
   58.7903   31.5047   47.7620 H   0  0  0  0  0  0  0  0  0  0  0  0
   58.1415   30.2153   45.7307 H   0  0  0  0  0  0  0  0  0  0  0  0
  1  2  1  0
  2  3  1  0
  3  4  2  0
  4  5  1  0
  5  6  2  0
  6  7  1  0
  7  8  1  0
  8  9  1  0
  9 10  1  0
 10 11  1  0
 11 12  1  0
 12 13  1  0
 13 14  1  0
 14 15  1  0
 14 16  1  0
 13 17  1  0
 17 18  1  0
  6 19  1  0
 19 20  2  0
 20  3  1  0
 18 10  1  0
  1 21  1  0
  1 22  1  0
  1 23  1  0
  2 24  1  0
  2 25  1  0
  4 26  1  0
  5 27  1  0
  8 28  1  0
  8 29  1  0
  9 30  1  0
  9 31  1  0
 10 32  1  6
 11 33  1  0
 11 34  1  0
 12 35  1  0
 12 36  1  0
 13 37  1  6
 15 38  1  0
 15 39  1  0
 15 40  1  0
 16 41  1  0
 16 42  1  0
 16 43  1  0
 17 44  1  0
 17 45  1  0
 18 46  1  0
 18 47  1  0
 19 48  1  0
 20 49  1  0
M  CHG  1  10   1
M  END
>  <UniqueID>  (2) 
2

>  <SMILES>  (2) 
CCc1ccc(OCC[NH+]2CCC(N(C)C)CC2)cc1

>  <Energy>  (2) 
59.64230493356958

>  <Genealogy>  (2) 
CCc1ccc(OCC[NH+]2CCC(N(C)C)CC2)cc1 (protonated)
CCc1ccc(OCC[NH+]2CCC(N(C)C)CC2)cc1 (3D coordinates assigned)
CCc1ccc(OCC[NH+]2CCC(N(C)C)CC2)cc1 (nonaromatic ring conformer: 59.64230493356958 kcal/mol)

>  <smiles>  (2) 
CCc1ccc(OCCN2CCC(N(C)C)CC2)cc1

>  <score_type>  (2) 
oracle

>  <origin>  (2) 
adg

>  <m_score__min__energy>  (2) 
-4.7400000000000002

>  <m_primary>  (2) 
energy

$$$$
2:0
     RDKit          3D

 40 42  0  0  0  0  0  0  0  0999 V2000
   55.3910   25.2170   45.6660 C   0  0  0  0  0  0  0  0  0  0  0  0
   56.5570   26.0360   46.1200 C   0  0  0  0  0  0  0  0  0  0  0  0
   57.4620   25.5220   47.0570 C   0  0  0  0  0  0  0  0  0  0  0  0
   58.5430   26.3050   47.4630 C   0  0  0  0  0  0  0  0  0  0  0  0
   58.7130   27.5870   46.9360 C   0  0  0  0  0  0  0  0  0  0  0  0
   57.7890   28.0750   45.9960 C   0  0  0  0  0  0  0  0  0  0  0  0
   57.9270   29.4230   45.4120 C   0  0  0  0  0  0  0  0  0  0  0  0
   57.4290   29.7020   44.1790 N   0  0  0  0  0  0  0  0  0  0  0  0
   57.5520   30.9390   43.6310 C   0  0  0  0  0  0  0  0  0  0  0  0
   57.0170   31.2020   42.2590 C   0  0  0  0  0  0  0  0  0  0  0  0
   58.2110   31.9480   44.3390 C   0  0  0  0  0  0  0  0  0  0  0  0
   58.7160   31.6580   45.6170 C   0  0  0  0  0  0  0  0  0  0  0  0
   59.4280   32.6780   46.4300 C   0  0  0  0  0  0  0  0  0  0  0  0
   58.8320   33.9130   46.7490 C   0  0  0  0  0  0  0  0  0  0  0  0
   59.5320   34.8390   47.5250 C   0  0  0  0  0  0  0  0  0  0  0  0
   60.7800   34.5490   47.9760 N   0  0  0  0  0  0  0  0  0  0  0  0
   61.3810   33.3630   47.6940 C   0  0  0  0  0  0  0  0  0  0  0  0
   62.9890   33.0400   48.3060 S   0  0  0  0  0  0  0  0  0  0  0  0
   63.2780   33.8720   49.8490 C   0  0  0  0  0  0  0  0  0  0  0  0
   64.1510   33.4480   47.1630 O   0  0  0  0  0  0  0  0  0  0  0  0
   60.7170   32.4070   46.9220 C   0  0  0  0  0  0  0  0  0  0  0  0
   58.5630   30.4000   46.1140 N   0  0  0  0  0  0  0  0  0  0  0  0
   56.7430   27.2880   45.6180 N   0  0  0  0  0  0  0  0  0  0  0  0
   54.8475   24.8352   46.5428 H   0  0  0  0  0  0  0  0  0  0  0  0
   54.7177   25.8416   45.0606 H   0  0  0  0  0  0  0  0  0  0  0  0
   55.7502   24.3717   45.0606 H   0  0  0  0  0  0  0  0  0  0  0  0
   57.3220   24.5115   47.4686 H   0  0  0  0  0  0  0  0  0  0  0  0
   59.2612   25.9126   48.1980 H   0  0  0  0  0  0  0  0  0  0  0  0
   59.5625   28.2094   47.2537 H   0  0  0  0  0  0  0  0  0  0  0  0
   56.0323   31.6861   42.3360 H   0  0  0  0  0  0  0  0  0  0  0  0
   57.7089   31.8627   41.7161 H   0  0  0  0  0  0  0  0  0  0  0  0
   56.9164   30.2506   41.7161 H   0  0  0  0  0  0  0  0  0  0  0  0
   58.3319   32.9507   43.9032 H   0  0  0  0  0  0  0  0  0  0  0  0
   57.8195   34.1473   46.3885 H   0  0  0  0  0  0  0  0  0  0  0  0
   59.0712   35.8068   47.7720 H   0  0  0  0  0  0  0  0  0  0  0  0
   63.0421   33.1929   50.6816 H   0  0  0  0  0  0  0  0  0  0  0  0
   64.3338   34.1744   49.9104 H   0  0  0  0  0  0  0  0  0  0  0  0
   62.6370   34.7638   49.9104 H   0  0  0  0  0  0  0  0  0  0  0  0
   64.7130   32.6360   47.0810 H   0  0  0  0  0  0  0  0  0  0  0  0
   61.2012   31.4447   46.6995 H   0  0  0  0  0  0  0  0  0  0  0  0
  1  2  1  0
  2  3  2  0
  3  4  1  0
  4  5  2  0
  5  6  1  0
  6  7  1  0
  7  8  2  0
  8  9  1  0
  9 10  1  0
  9 11  2  0
 11 12  1  0
 12 13  1  0
 13 14  2  0
 14 15  1  0
 15 16  2  0
 16 17  1  0
 17 18  1  0
 18 19  1  0
 18 20  1  6
 17 21  2  0
 12 22  2  0
  6 23  2  0
 23  2  1  0
 22  7  1  0
 21 13  1  0
  1 24  1  0
  1 25  1  0
  1 26  1  0
  3 27  1  0
  4 28  1  0
  5 29  1  0
 10 30  1  0
 10 31  1  0
 10 32  1  0
 11 33  1  0
 14 34  1  0
 15 35  1  0
 19 36  1  0
 19 37  1  0
 19 38  1  0
 20 39  1  0
 21 40  1  0
M  CHG  1  18   1
M  END
>  <UniqueID>  (3) 
3

>  <SMILES>  (3) 
Cc1cccc(-c2nc(C)cc(-c3ccnc([S@+](C)O)c3)n2)n1

>  <Energy>  (3) 
41.34897432914381

>  <Genealogy>  (3) 
Cc1cccc(-c2nc(C)cc(-c3ccnc([S+](C)O)c3)n2)n1 (protonated)
Cc1cccc(-c2nc(C)cc(-c3ccnc([S@+](C)O)c3)n2)n1 (chirality)
Cc1cccc(-c2nc(C)cc(-c3ccnc([S@+](C)O)c3)n2)n1 (3D coordinates assigned)
Cc1cccc(-c2nc(C)cc(-c3ccnc([S@+](C)O)c3)n2)n1 (optimized conformer: 41.34897432914381 kcal/mol)

>  <smiles>  (3) 
Cc1cccc(-c2nc(C)cc(-c3ccnc([S+](C)[O-])c3)n2)n1

>  <score_type>  (3) 
oracle

>  <origin>  (3) 
adg

>  <m_score__min__energy>  (3) 
-6.5999999999999996

>  <m_primary>  (3) 
energy

$$$$
3:0
     RDKit          3D

 50 52  0  0  0  0  0  0  0  0999 V2000
   55.3680   23.9150   44.8610 C   0  0  0  0  0  0  0  0  0  0  0  0
   54.5230   24.9210   45.6380 C   0  0  0  0  0  0  0  0  0  0  0  0
   55.3130   26.1140   45.9760 N   0  0  0  0  0  0  0  0  0  0  0  0
   56.7510   25.8690   45.8120 C   0  0  0  0  0  0  0  0  0  0  0  0
   57.5490   26.8120   46.7200 C   0  0  0  0  0  0  0  0  0  0  0  0
   58.2510   27.9190   45.9260 C   0  0  0  0  0  0  0  0  0  0  0  0
   57.7430   29.2420   46.2990 N   0  0  0  0  0  0  0  0  0  0  0  0
   58.6180   30.3200   46.6760 C   0  0  0  0  0  0  0  0  0  0  0  0
   59.5600   30.1160   47.7030 C   0  0  0  0  0  0  0  0  0  0  0  0
   59.5420   28.9350   48.4780 C   0  0  0  0  0  0  0  0  0  0  0  0
   60.4540   28.7470   49.5140 C   0  0  0  0  0  0  0  0  0  0  0  0
   61.3820   29.7380   49.8120 C   0  0  0  0  0  0  0  0  0  0  0  0
   61.4110   30.9160   49.0670 C   0  0  0  0  0  0  0  0  0  0  0  0
   60.5180   31.1210   47.9840 C   0  0  0  0  0  0  0  0  0  0  0  0
   60.5530   32.2730   47.2250 N   0  0  0  0  0  0  0  0  0  0  0  0
   61.7320   33.1650   47.2950 C   0  0  0  0  0  0  0  0  0  0  0  0
   59.4950   32.5830   46.3910 C   0  0  0  0  0  0  0  0  0  0  0  0
   59.3550   33.8820   45.8480 C   0  0  0  0  0  0  0  0  0  0  0  0
   58.3320   34.1870   44.9620 C   0  0  0  0  0  0  0  0  0  0  0  0
   57.4110   33.2190   44.5990 C   0  0  0  0  0  0  0  0  0  0  0  0
   57.4750   31.9240   45.1430 C   0  0  0  0  0  0  0  0  0  0  0  0
   56.5200   30.9610   44.7780 O   0  0  0  0  0  0  0  0  0  0  0  0
   56.5250   30.2150   43.5640 C   0  0  0  0  0  0  0  0  0  0  0  0
   58.5140   31.5980   46.0680 C   0  0  0  0  0  0  0  0  0  0  0  0
   55.9105   23.2691   45.5670 H   0  0  0  0  0  0  0  0  0  0  0  0
   54.7135   23.2978   44.2280 H   0  0  0  0  0  0  0  0  0  0  0  0
   56.0889   24.4531   44.2280 H   0  0  0  0  0  0  0  0  0  0  0  0
   53.6621   25.2208   45.0224 H   0  0  0  0  0  0  0  0  0  0  0  0
   54.1803   24.4486   46.5704 H   0  0  0  0  0  0  0  0  0  0  0  0
   55.1440   26.3280   46.9880 H   0  0  0  0  0  0  0  0  0  0  0  0
   56.9762   24.8265   46.0812 H   0  0  0  0  0  0  0  0  0  0  0  0
   57.0319   26.0520   44.7643 H   0  0  0  0  0  0  0  0  0  0  0  0
   56.8610   27.2753   47.4425 H   0  0  0  0  0  0  0  0  0  0  0  0
   58.3220   26.2181   47.2297 H   0  0  0  0  0  0  0  0  0  0  0  0
   59.3309   27.8783   46.1313 H   0  0  0  0  0  0  0  0  0  0  0  0
   58.0535   27.7590   44.8558 H   0  0  0  0  0  0  0  0  0  0  0  0
   56.7100   29.3930   46.3250 H   0  0  0  0  0  0  0  0  0  0  0  0
   58.7985   28.1541   48.2606 H   0  0  0  0  0  0  0  0  0  0  0  0
   60.4398   27.8140   50.0965 H   0  0  0  0  0  0  0  0  0  0  0  0
   62.0948   29.5925   50.6371 H   0  0  0  0  0  0  0  0  0  0  0  0
   62.1388   31.7000   49.3234 H   0  0  0  0  0  0  0  0  0  0  0  0
   61.9850   33.3564   48.3483 H   0  0  0  0  0  0  0  0  0  0  0  0
   62.5855   32.6845   46.7944 H   0  0  0  0  0  0  0  0  0  0  0  0
   61.5017   34.1170   46.7944 H   0  0  0  0  0  0  0  0  0  0  0  0
   60.0717   34.6659   46.1341 H   0  0  0  0  0  0  0  0  0  0  0  0
   58.2522   35.2022   44.5461 H   0  0  0  0  0  0  0  0  0  0  0  0
   56.6195   33.4661   43.8762 H   0  0  0  0  0  0  0  0  0  0  0  0
   56.5322   29.1395   43.7946 H   0  0  0  0  0  0  0  0  0  0  0  0
   55.6252   30.4588   42.9801 H   0  0  0  0  0  0  0  0  0  0  0  0
   57.4215   30.4708   42.9801 H   0  0  0  0  0  0  0  0  0  0  0  0
  1  2  1  0
  2  3  1  0
  3  4  1  0
  4  5  1  0
  5  6  1  0
  6  7  1  0
  7  8  1  0
  8  9  2  0
  9 10  1  0
 10 11  2  0
 11 12  1  0
 12 13  2  0
 13 14  1  0
 14 15  2  0
 15 16  1  0
 15 17  1  0
 17 18  2  0
 18 19  1  0
 19 20  2  0
 20 21  1  0
 21 22  1  0
 22 23  1  0
 21 24  2  0
 24  8  1  0
 14  9  1  0
 24 17  1  0
  1 25  1  0
  1 26  1  0
  1 27  1  0
  2 28  1  0
  2 29  1  0
  3 30  1  0
  4 31  1  0
  4 32  1  0
  5 33  1  0
  5 34  1  0
  6 35  1  0
  6 36  1  0
  7 37  1  0
 10 38  1  0
 11 39  1  0
 12 40  1  0
 13 41  1  0
 16 42  1  0
 16 43  1  0
 16 44  1  0
 18 45  1  0
 19 46  1  0
 20 47  1  0
 23 48  1  0
 23 49  1  0
 23 50  1  0
M  CHG  1  15   1
M  END
>  <UniqueID>  (4) 
4

>  <SMILES>  (4) 
CCNCCCNc1c2ccccc2[n+](C)c2cccc(OC)c12

>  <Energy>  (4) 
72.3025777108065

>  <Genealogy>  (4) 
CCNCCCNc1c2ccccc2[n+](C)c2cccc(OC)c12 (3D coordinates assigned)
CCNCCCNc1c2ccccc2[n+](C)c2cccc(OC)c12 (optimized conformer: 72.3025777108065 kcal/mol)

>  <smiles>  (4) 
CCNCCCNc1c2ccccc2[n+](C)c2cccc(OC)c12

>  <score_type>  (4) 
oracle

>  <origin>  (4) 
adg

>  <m_score__min__energy>  (4) 
-6.3499999999999996

>  <m_primary>  (4) 
energy

$$$$
4:0
     RDKit          3D

 39 39  0  0  0  0  0  0  0  0999 V2000
   59.9140   28.4370   44.5210 C   0  0  0  0  0  0  0  0  0  0  0  0
   58.8310   27.5010   43.9660 C   0  0  0  0  0  0  0  0  0  0  0  0
   57.5480   27.6060   44.7100 N   0  0  0  0  0  0  0  0  0  0  0  0
   57.4830   26.5860   45.7940 C   0  0  0  0  0  0  0  0  0  0  0  0
   58.1450   27.0730   47.0890 C   0  0  0  0  0  0  0  0  0  0  0  0
   57.4070   28.9670   45.2910 C   0  0  0  0  0  0  0  0  0  0  0  0
   56.1600   29.6570   44.8140 C   0  0  0  0  0  0  0  0  0  0  0  0
   55.1460   28.9760   44.5000 O   0  0  0  0  0  0  0  0  0  0  0  0
   56.1430   31.0840   44.6990 N   0  0  0  0  0  0  0  0  0  0  0  0
   57.3050   31.8910   44.3400 C   0  0  0  0  0  0  0  0  0  0  0  0
   57.4430   33.1090   45.2590 C   0  0  0  0  0  0  0  0  0  0  0  0
   58.8080   33.1950   45.8890 C   0  0  0  0  0  0  0  0  0  0  0  0
   59.4210   32.0430   46.4090 C   0  0  0  0  0  0  0  0  0  0  0  0
   60.6990   32.1170   46.9710 C   0  0  0  0  0  0  0  0  0  0  0  0
   61.3720   33.3420   47.0240 C   0  0  0  0  0  0  0  0  0  0  0  0
   63.1200   33.4400   47.7870 Br  0  0  0  0  0  0  0  0  0  0  0  0
   60.7650   34.4930   46.5140 C   0  0  0  0  0  0  0  0  0  0  0  0
   59.4920   34.4210   45.9430 C   0  0  0  0  0  0  0  0  0  0  0  0
   59.8890   28.4154   45.6205 H   0  0  0  0  0  0  0  0  0  0  0  0
   60.9018   28.1036   44.1701 H   0  0  0  0  0  0  0  0  0  0  0  0
   59.7272   29.4626   44.1701 H   0  0  0  0  0  0  0  0  0  0  0  0
   58.6492   27.7585   42.9121 H   0  0  0  0  0  0  0  0  0  0  0  0
   59.1954   26.4688   44.0745 H   0  0  0  0  0  0  0  0  0  0  0  0
   56.7580   27.4430   44.0390 H   0  0  0  0  0  0  0  0  0  0  0  0
   56.4274   26.3557   46.0008 H   0  0  0  0  0  0  0  0  0  0  0  0
   58.0279   25.6941   45.4512 H   0  0  0  0  0  0  0  0  0  0  0  0
   57.5979   26.6705   47.9543 H   0  0  0  0  0  0  0  0  0  0  0  0
   59.1882   26.7254   47.1207 H   0  0  0  0  0  0  0  0  0  0  0  0
   58.1237   28.1723   47.1207 H   0  0  0  0  0  0  0  0  0  0  0  0
   57.3691   28.8829   46.3871 H   0  0  0  0  0  0  0  0  0  0  0  0
   58.2712   29.5656   44.9672 H   0  0  0  0  0  0  0  0  0  0  0  0
   58.2108   31.2729   44.4261 H   0  0  0  0  0  0  0  0  0  0  0  0
   57.1738   32.2482   43.3079 H   0  0  0  0  0  0  0  0  0  0  0  0
   57.2676   34.0201   44.6682 H   0  0  0  0  0  0  0  0  0  0  0  0
   56.7040   33.0073   46.0674 H   0  0  0  0  0  0  0  0  0  0  0  0
   58.8932   31.0785   46.3739 H   0  0  0  0  0  0  0  0  0  0  0  0
   61.1759   31.2105   47.3721 H   0  0  0  0  0  0  0  0  0  0  0  0
   61.2909   35.4579   46.5623 H   0  0  0  0  0  0  0  0  0  0  0  0
   59.0232   35.3281   45.5339 H   0  0  0  0  0  0  0  0  0  0  0  0
  1  2  1  0
  2  3  1  0
  3  4  1  0
  4  5  1  0
  3  6  1  0
  6  7  1  0
  7  8  2  0
  7  9  1  0
  9 10  1  0
 10 11  1  0
 11 12  1  0
 12 13  2  0
 13 14  1  0
 14 15  2  0
 15 16  1  0
 15 17  1  0
 17 18  2  0
 18 12  1  0
  1 19  1  0
  1 20  1  0
  1 21  1  0
  2 22  1  0
  2 23  1  0
  3 24  1  0
  4 25  1  0
  4 26  1  0
  5 27  1  0
  5 28  1  0
  5 29  1  0
  6 30  1  0
  6 31  1  0
 10 32  1  0
 10 33  1  0
 11 34  1  0
 11 35  1  0
 13 36  1  0
 14 37  1  0
 17 38  1  0
 18 39  1  0
M  CHG  2   3   1   9  -1
M  END
>  <UniqueID>  (5) 
5

>  <SMILES>  (5) 
CC[NH+](CC)CC(=O)[N-]CCc1ccc(Br)cc1

>  <Energy>  (5) 
30.939118642935842

>  <Genealogy>  (5) 
CC[NH+](CC)CC(=O)[N-]CCc1ccc(Br)cc1 (protonated)
CC[NH+](CC)CC(=O)[N-]CCc1ccc(Br)cc1 (3D coordinates assigned)
CC[NH+](CC)CC(=O)[N-]CCc1ccc(Br)cc1 (optimized conformer: 30.939118642935842 kcal/mol)

>  <smiles>  (5) 
CCN(CC)CC(=O)NCCc1ccc(Br)cc1

>  <score_type>  (5) 
oracle

>  <origin>  (5) 
adg

>  <m_score__min__energy>  (5) 
-7.1799999999999997

>  <m_primary>  (5) 
energy

$$$$
5:0
     RDKit          3D

 88 91  0  0  0  0  0  0  0  0999 V2000
   57.7290   25.6480   44.7670 C   0  0  0  0  0  0  0  0  0  0  0  0
   58.3350   26.9280   45.3140 C   0  0  0  0  0  0  0  0  0  0  0  0
   58.5970   27.9090   44.2380 N   0  0  0  0  0  0  0  0  0  0  0  0
   59.7830   28.7480   44.5100 C   0  0  0  0  0  0  0  0  0  0  0  0
   60.7650   27.9820   45.3880 C   0  0  0  0  0  0  0  0  0  0  0  0
   57.4070   28.7060   43.8490 C   0  0  0  0  0  0  0  0  0  0  0  0
   57.4140   30.1710   44.3480 C   0  0  0  0  0  0  0  0  0  0  0  0
   57.4410   30.2540   45.8130 N   0  0  0  0  0  0  0  0  0  0  0  0
   58.5130   30.9590   46.4550 C   0  0  0  0  0  0  0  0  0  0  0  0
   59.2590   30.3240   47.4640 C   0  0  0  0  0  0  0  0  0  0  0  0
   60.1920   31.0780   48.2160 C   0  0  0  0  0  0  0  0  0  0  0  0
   60.5960   32.3170   47.7580 N   0  0  0  0  0  0  0  0  0  0  0  0
   61.8560   32.9270   48.2340 C   0  0  0  0  0  0  0  0  0  0  0  0
   59.8380   32.9760   46.8000 C   0  0  0  0  0  0  0  0  0  0  0  0
   60.0890   34.3300   46.4560 C   0  0  0  0  0  0  0  0  0  0  0  0
   59.3090   34.9840   45.5040 C   0  0  0  0  0  0  0  0  0  0  0  0
   58.2770   34.3170   44.8710 C   0  0  0  0  0  0  0  0  0  0  0  0
   58.0070   32.9860   45.1780 C   0  0  0  0  0  0  0  0  0  0  0  0
   58.7760   32.3020   46.1430 C   0  0  0  0  0  0  0  0  0  0  0  0
   60.5930   30.5210   49.5590 C   0  0  0  0  0  0  0  0  0  0  0  0
   60.8370   31.3510   50.6670 C   0  0  0  0  0  0  0  0  0  0  0  0
   60.8840   30.8300   51.9590 C   0  0  0  0  0  0  0  0  0  0  0  0
   60.6230   29.4720   52.1810 C   0  0  0  0  0  0  0  0  0  0  0  0
   60.4610   28.9820   53.4730 O   0  0  0  0  0  0  0  0  0  0  0  0
   59.6590   27.8430   53.7640 C   0  0  0  0  0  0  0  0  0  0  0  0
   58.2890   28.2970   54.3030 C   0  0  0  0  0  0  0  0  0  0  0  0
   57.3210   28.7660   53.1870 C   0  0  0  0  0  0  0  0  0  0  0  0
   57.0190   30.2460   53.0640 N   0  0  0  0  0  0  0  0  0  0  0  0
   55.5430   30.4870   53.2590 C   0  0  0  0  0  0  0  0  0  0  0  0
   54.6610   30.4760   52.0020 C   0  0  0  0  0  0  0  0  0  0  0  0
   57.3750   30.5800   51.6280 C   0  0  0  0  0  0  0  0  0  0  0  0
   57.6950   32.0420   51.2700 C   0  0  0  0  0  0  0  0  0  0  0  0
   57.9020   31.0460   54.0000 C   0  0  0  0  0  0  0  0  0  0  0  0
   57.3890   31.2610   55.4410 C   0  0  0  0  0  0  0  0  0  0  0  0
   60.4340   28.6220   51.0930 C   0  0  0  0  0  0  0  0  0  0  0  0
   60.4220   29.1350   49.7880 C   0  0  0  0  0  0  0  0  0  0  0  0
   60.0960   28.2510   48.6260 C   0  0  0  0  0  0  0  0  0  0  0  0
   58.9450   28.8840   47.8360 C   0  0  0  0  0  0  0  0  0  0  0  0
   57.4227   25.0011   45.6023 H   0  0  0  0  0  0  0  0  0  0  0  0
   56.8508   25.8920   44.1512 H   0  0  0  0  0  0  0  0  0  0  0  0
   58.4744   25.1234   44.1512 H   0  0  0  0  0  0  0  0  0  0  0  0
   57.6374   27.3717   46.0396 H   0  0  0  0  0  0  0  0  0  0  0  0
   59.2932   26.6781   45.7929 H   0  0  0  0  0  0  0  0  0  0  0  0
   60.2706   29.0106   43.5596 H   0  0  0  0  0  0  0  0  0  0  0  0
   59.4685   29.6648   45.0302 H   0  0  0  0  0  0  0  0  0  0  0  0
   60.5301   28.1652   46.4469 H   0  0  0  0  0  0  0  0  0  0  0  0
   60.6845   26.9057   45.1755 H   0  0  0  0  0  0  0  0  0  0  0  0
   61.7893   28.3221   45.1755 H   0  0  0  0  0  0  0  0  0  0  0  0
   57.3484   28.7192   42.7506 H   0  0  0  0  0  0  0  0  0  0  0  0
   56.5416   28.2216   44.3248 H   0  0  0  0  0  0  0  0  0  0  0  0
   58.3041   30.6781   43.9473 H   0  0  0  0  0  0  0  0  0  0  0  0
   56.4893   30.6530   43.9979 H   0  0  0  0  0  0  0  0  0  0  0  0
   56.5740   30.0790   46.3650 H   0  0  0  0  0  0  0  0  0  0  0  0
   61.8679   32.9328   49.3339 H   0  0  0  0  0  0  0  0  0  0  0  0
   62.7101   32.3426   47.8611 H   0  0  0  0  0  0  0  0  0  0  0  0
   61.9273   33.9594   47.8611 H   0  0  0  0  0  0  0  0  0  0  0  0
   60.9109   34.8709   46.9478 H   0  0  0  0  0  0  0  0  0  0  0  0
   59.5155   36.0354   45.2553 H   0  0  0  0  0  0  0  0  0  0  0  0
   57.6659   34.8404   44.1209 H   0  0  0  0  0  0  0  0  0  0  0  0
   57.1871   32.4633   44.6637 H   0  0  0  0  0  0  0  0  0  0  0  0
   60.9933   32.4287   50.5120 H   0  0  0  0  0  0  0  0  0  0  0  0
   61.1268   31.4874   52.8068 H   0  0  0  0  0  0  0  0  0  0  0  0
   59.5140   27.2538   52.8465 H   0  0  0  0  0  0  0  0  0  0  0  0
   60.1631   27.2266   54.5229 H   0  0  0  0  0  0  0  0  0  0  0  0
   57.8259   27.4538   54.8364 H   0  0  0  0  0  0  0  0  0  0  0  0
   58.4661   29.1568   54.9659 H   0  0  0  0  0  0  0  0  0  0  0  0
   57.7506   28.4418   52.2277 H   0  0  0  0  0  0  0  0  0  0  0  0
   56.3555   28.3171   53.4631 H   0  0  0  0  0  0  0  0  0  0  0  0
   55.1660   29.7056   53.9353 H   0  0  0  0  0  0  0  0  0  0  0  0
   55.4709   31.5132   53.6486 H   0  0  0  0  0  0  0  0  0  0  0  0
   53.6015   30.4628   52.2976 H   0  0  0  0  0  0  0  0  0  0  0  0
   54.8636   31.3767   51.4040 H   0  0  0  0  0  0  0  0  0  0  0  0
   54.8860   29.5806   51.4040 H   0  0  0  0  0  0  0  0  0  0  0  0
   58.2592   29.9807   51.3652 H   0  0  0  0  0  0  0  0  0  0  0  0
   56.4554   30.3610   51.0655 H   0  0  0  0  0  0  0  0  0  0  0  0
   57.8228   32.6260   52.1933 H   0  0  0  0  0  0  0  0  0  0  0  0
   58.6228   32.0805   50.6804 H   0  0  0  0  0  0  0  0  0  0  0  0
   56.8681   32.4646   50.6804 H   0  0  0  0  0  0  0  0  0  0  0  0
   58.8695   30.5270   54.0669 H   0  0  0  0  0  0  0  0  0  0  0  0
   57.9433   32.0533   53.5599 H   0  0  0  0  0  0  0  0  0  0  0  0
   58.1595   30.9381   56.1565 H   0  0  0  0  0  0  0  0  0  0  0  0
   57.1682   32.3274   55.5963 H   0  0  0  0  0  0  0  0  0  0  0  0
   56.4739   30.6707   55.5963 H   0  0  0  0  0  0  0  0  0  0  0  0
   60.2936   27.5436   51.2586 H   0  0  0  0  0  0  0  0  0  0  0  0
   60.9790   28.1508   47.9777 H   0  0  0  0  0  0  0  0  0  0  0  0
   59.8012   27.2537   48.9844 H   0  0  0  0  0  0  0  0  0  0  0  0
   58.7797   28.3039   46.9162 H   0  0  0  0  0  0  0  0  0  0  0  0
   58.0441   28.8762   48.4672 H   0  0  0  0  0  0  0  0  0  0  0  0
  1  2  1  0
  2  3  1  0
  3  4  1  0
  4  5  1  0
  3  6  1  0
  6  7  1  0
  7  8  1  0
  8  9  1  0
  9 10  2  0
 10 11  1  0
 11 12  2  0
 12 13  1  0
 12 14  1  0
 14 15  2  0
 15 16  1  0
 16 17  2  0
 17 18  1  0
 18 19  2  0
 11 20  1  0
 20 21  2  0
 21 22  1  0
 22 23  2  0
 23 24  1  0
 24 25  1  0
 25 26  1  0
 26 27  1  0
 27 28  1  0
 28 29  1  0
 29 30  1  0
 28 31  1  0
 31 32  1  0
 28 33  1  0
 33 34  1  0
 23 35  1  0
 35 36  2  0
 36 37  1  0
 37 38  1  0
 19  9  1  0
 36 20  1  0
 38 10  1  0
 19 14  1  0
  1 39  1  0
  1 40  1  0
  1 41  1  0
  2 42  1  0
  2 43  1  0
  4 44  1  0
  4 45  1  0
  5 46  1  0
  5 47  1  0
  5 48  1  0
  6 49  1  0
  6 50  1  0
  7 51  1  0
  7 52  1  0
  8 53  1  0
 13 54  1  0
 13 55  1  0
 13 56  1  0
 15 57  1  0
 16 58  1  0
 17 59  1  0
 18 60  1  0
 21 61  1  0
 22 62  1  0
 25 63  1  0
 25 64  1  0
 26 65  1  0
 26 66  1  0
 27 67  1  0
 27 68  1  0
 29 69  1  0
 29 70  1  0
 30 71  1  0
 30 72  1  0
 30 73  1  0
 31 74  1  0
 31 75  1  0
 32 76  1  0
 32 77  1  0
 32 78  1  0
 33 79  1  0
 33 80  1  0
 34 81  1  0
 34 82  1  0
 34 83  1  0
 35 84  1  0
 37 85  1  0
 37 86  1  0
 38 87  1  0
 38 88  1  0
M  CHG  2  12   1  28   1
M  END
>  <UniqueID>  (6) 
6

>  <SMILES>  (6) 
CCN(CC)CCNc1c2c([n+](C)c3ccccc13)-c1ccc(OCCC[N+](CC)(CC)CC)cc1CC2

>  <Energy>  (6) 
165.20358121228236

>  <Genealogy>  (6) 
CCN(CC)CCNc1c2c([n+](C)c3ccccc13)-c1ccc(OCCC[N+](CC)(CC)CC)cc1CC2 (3D coordinates assigned)
CCN(CC)CCNc1c2c([n+](C)c3ccccc13)-c1ccc(OCCC[N+](CC)(CC)CC)cc1CC2 (nonaromatic ring conformer: 165.20358121228236 kcal/mol)

>  <smiles>  (6) 
CCN(CC)CCNc1c2c([n+](C)c3ccccc13)-c1ccc(OCCC[N+](CC)(CC)CC)cc1CC2

>  <score_type>  (6) 
oracle

>  <origin>  (6) 
adg

>  <m_score__min__energy>  (6) 
-4.8399999999999999

>  <m_primary>  (6) 
energy

$$$$
6:0
     RDKit          3D

 84 87  0  0  0  0  0  0  0  0999 V2000
   56.2680   29.4960   42.6350 C   0  0  0  0  0  0  0  0  0  0  0  0
   55.8620   30.1200   43.9810 C   0  0  0  0  0  0  0  0  0  0  0  0
   57.0070   30.4300   44.8760 N   0  0  0  0  0  0  0  0  0  0  0  0
   58.2030   30.9430   44.1680 C   0  0  0  0  0  0  0  0  0  0  0  0
   57.8610   32.1440   43.2880 C   0  0  0  0  0  0  0  0  0  0  0  0
   57.3330   29.3160   45.7970 C   0  0  0  0  0  0  0  0  0  0  0  0
   58.7870   29.4130   46.2830 C   0  0  0  0  0  0  0  0  0  0  0  0
   58.9470   29.3020   47.8050 C   0  0  0  0  0  0  0  0  0  0  0  0
   58.9240   30.6180   48.4500 N   0  0  0  0  0  0  0  0  0  0  0  0
   59.8640   31.6540   48.1010 C   0  0  0  0  0  0  0  0  0  0  0  0
   59.4800   32.7000   47.2490 C   0  0  0  0  0  0  0  0  0  0  0  0
   58.1290   32.8800   46.8900 C   0  0  0  0  0  0  0  0  0  0  0  0
   57.7480   33.8970   46.0210 C   0  0  0  0  0  0  0  0  0  0  0  0
   58.7060   34.7700   45.5170 C   0  0  0  0  0  0  0  0  0  0  0  0
   60.0470   34.6310   45.8800 C   0  0  0  0  0  0  0  0  0  0  0  0
   60.4700   33.5860   46.7400 C   0  0  0  0  0  0  0  0  0  0  0  0
   61.7960   33.4200   47.0950 N   0  0  0  0  0  0  0  0  0  0  0  0
   62.8520   34.1430   46.3500 C   0  0  0  0  0  0  0  0  0  0  0  0
   62.1300   32.5680   48.1300 C   0  0  0  0  0  0  0  0  0  0  0  0
   63.4160   32.5880   48.7350 C   0  0  0  0  0  0  0  0  0  0  0  0
   63.7610   31.6750   49.7470 C   0  0  0  0  0  0  0  0  0  0  0  0
   65.0300   31.6450   50.3530 O   0  0  0  0  0  0  0  0  0  0  0  0
   65.7520   32.7720   50.8570 C   0  0  0  0  0  0  0  0  0  0  0  0
   67.1670   32.3310   51.3070 C   0  0  0  0  0  0  0  0  0  0  0  0
   67.2440   31.0910   52.1520 N   0  0  0  0  0  0  0  0  0  0  0  0
   68.6080   31.0920   52.7510 C   0  0  0  0  0  0  0  0  0  0  0  0
   67.1060   29.8670   51.2990 C   0  0  0  0  0  0  0  0  0  0  0  0
   66.7260   28.6190   52.1250 C   0  0  0  0  0  0  0  0  0  0  0  0
   65.4060   28.7690   52.8240 N   0  0  0  0  0  0  0  0  0  0  0  0
   65.4720   28.0880   54.1430 C   0  0  0  0  0  0  0  0  0  0  0  0
   64.3470   28.1020   52.0240 C   0  0  0  0  0  0  0  0  0  0  0  0
   65.0230   30.2040   53.0120 C   0  0  0  0  0  0  0  0  0  0  0  0
   66.2440   31.1120   53.2730 C   0  0  0  0  0  0  0  0  0  0  0  0
   62.8150   30.7520   50.1810 C   0  0  0  0  0  0  0  0  0  0  0  0
   61.5290   30.7490   49.6480 C   0  0  0  0  0  0  0  0  0  0  0  0
   61.1690   31.6430   48.6220 C   0  0  0  0  0  0  0  0  0  0  0  0
   56.8597   28.5866   42.8161 H   0  0  0  0  0  0  0  0  0  0  0  0
   55.3645   29.2378   42.0632 H   0  0  0  0  0  0  0  0  0  0  0  0
   56.8701   30.2174   42.0632 H   0  0  0  0  0  0  0  0  0  0  0  0
   55.3189   31.0549   43.7785 H   0  0  0  0  0  0  0  0  0  0  0  0
   55.2443   29.3743   44.5029 H   0  0  0  0  0  0  0  0  0  0  0  0
   58.9551   31.2470   44.9110 H   0  0  0  0  0  0  0  0  0  0  0  0
   58.5917   30.1418   43.5223 H   0  0  0  0  0  0  0  0  0  0  0  0
   57.6153   33.0068   43.9245 H   0  0  0  0  0  0  0  0  0  0  0  0
   58.7245   32.3910   42.6529 H   0  0  0  0  0  0  0  0  0  0  0  0
   56.9969   31.8990   42.6529 H   0  0  0  0  0  0  0  0  0  0  0  0
   56.6595   29.3583   46.6657 H   0  0  0  0  0  0  0  0  0  0  0  0
   57.2058   28.3658   45.2576 H   0  0  0  0  0  0  0  0  0  0  0  0
   59.3627   28.6009   45.8149 H   0  0  0  0  0  0  0  0  0  0  0  0
   59.1512   30.4109   45.9975 H   0  0  0  0  0  0  0  0  0  0  0  0
   58.1232   28.6937   48.2066 H   0  0  0  0  0  0  0  0  0  0  0  0
   59.9205   28.8346   48.0142 H   0  0  0  0  0  0  0  0  0  0  0  0
   58.2620   30.7900   49.2430 H   0  0  0  0  0  0  0  0  0  0  0  0
   57.3643   32.2059   47.3033 H   0  0  0  0  0  0  0  0  0  0  0  0
   56.6923   34.0104   45.7333 H   0  0  0  0  0  0  0  0  0  0  0  0
   58.4058   35.5740   44.8289 H   0  0  0  0  0  0  0  0  0  0  0  0
   60.7885   35.3448   45.4919 H   0  0  0  0  0  0  0  0  0  0  0  0
   63.5440   34.6168   47.0618 H   0  0  0  0  0  0  0  0  0  0  0  0
   63.4056   33.4336   45.7174 H   0  0  0  0  0  0  0  0  0  0  0  0
   62.3908   34.9157   45.7174 H   0  0  0  0  0  0  0  0  0  0  0  0
   64.1557   33.3323   48.4050 H   0  0  0  0  0  0  0  0  0  0  0  0
   65.8406   33.5319   50.0667 H   0  0  0  0  0  0  0  0  0  0  0  0
   65.2123   33.1933   51.7179 H   0  0  0  0  0  0  0  0  0  0  0  0
   67.7667   32.1565   50.4015 H   0  0  0  0  0  0  0  0  0  0  0  0
   67.5360   33.1447   51.9486 H   0  0  0  0  0  0  0  0  0  0  0  0
   68.5267   31.0919   53.8480 H   0  0  0  0  0  0  0  0  0  0  0  0
   69.1529   30.1943   52.4237 H   0  0  0  0  0  0  0  0  0  0  0  0
   69.1516   31.9905   52.4237 H   0  0  0  0  0  0  0  0  0  0  0  0
   66.3232   30.0458   50.5472 H   0  0  0  0  0  0  0  0  0  0  0  0
   68.0800   29.6743   50.8255 H   0  0  0  0  0  0  0  0  0  0  0  0
   66.6703   27.7529   51.4492 H   0  0  0  0  0  0  0  0  0  0  0  0
   67.4979   28.4827   52.8967 H   0  0  0  0  0  0  0  0  0  0  0  0
   65.3995   28.8363   54.9460 H   0  0  0  0  0  0  0  0  0  0  0  0
   64.6387   27.3752   54.2297 H   0  0  0  0  0  0  0  0  0  0  0  0
   66.4266   27.5484   54.2297 H   0  0  0  0  0  0  0  0  0  0  0  0
   63.6130   27.6397   52.7003 H   0  0  0  0  0  0  0  0  0  0  0  0
   63.8432   28.8462   51.3896 H   0  0  0  0  0  0  0  0  0  0  0  0
   64.8006   27.3262   51.3896 H   0  0  0  0  0  0  0  0  0  0  0  0
   64.5105   30.5543   52.1039 H   0  0  0  0  0  0  0  0  0  0  0  0
   64.3681   30.2626   53.8939 H   0  0  0  0  0  0  0  0  0  0  0  0
   65.8900   32.1448   53.4071 H   0  0  0  0  0  0  0  0  0  0  0  0
   66.7505   30.7304   54.1718 H   0  0  0  0  0  0  0  0  0  0  0  0
   63.0859   30.0170   50.9533 H   0  0  0  0  0  0  0  0  0  0  0  0
   60.7837   30.0380   50.0340 H   0  0  0  0  0  0  0  0  0  0  0  0
  1  2  1  0
  2  3  1  0
  3  4  1  0
  4  5  1  0
  3  6  1  0
  6  7  1  0
  7  8  1  0
  8  9  1  0
  9 10  1  0
 10 11  2  0
 11 12  1  0
 12 13  2  0
 13 14  1  0
 14 15  2  0
 15 16  1  0
 16 17  2  0
 17 18  1  0
 17 19  1  0
 19 20  2  0
 20 21  1  0
 21 22  1  0
 22 23  1  0
 23 24  1  0
 24 25  1  0
 25 26  1  0
 25 27  1  0
 27 28  1  0
 28 29  1  0
 29 30  1  0
 29 31  1  0
 29 32  1  0
 32 33  1  0
 21 34  2  0
 34 35  1  0
 35 36  2  0
 36 10  1  0
 16 11  1  0
 36 19  1  0
 33 25  1  0
  1 37  1  0
  1 38  1  0
  1 39  1  0
  2 40  1  0
  2 41  1  0
  4 42  1  0
  4 43  1  0
  5 44  1  0
  5 45  1  0
  5 46  1  0
  6 47  1  0
  6 48  1  0
  7 49  1  0
  7 50  1  0
  8 51  1  0
  8 52  1  0
  9 53  1  0
 12 54  1  0
 13 55  1  0
 14 56  1  0
 15 57  1  0
 18 58  1  0
 18 59  1  0
 18 60  1  0
 20 61  1  0
 23 62  1  0
 23 63  1  0
 24 64  1  0
 24 65  1  0
 26 66  1  0
 26 67  1  0
 26 68  1  0
 27 69  1  0
 27 70  1  0
 28 71  1  0
 28 72  1  0
 30 73  1  0
 30 74  1  0
 30 75  1  0
 31 76  1  0
 31 77  1  0
 31 78  1  0
 32 79  1  0
 32 80  1  0
 33 81  1  0
 33 82  1  0
 34 83  1  0
 35 84  1  0
M  CHG  3  17   1  25   1  29   1
M  END
>  <UniqueID>  (7) 
7

>  <SMILES>  (7) 
CCN(CC)CCCNc1c2ccccc2[n+](C)c2cc(OCC[N+]3(C)CC[N+](C)(C)CC3)ccc12

>  <Energy>  (7) 
139.82415865113694

>  <Genealogy>  (7) 
CCN(CC)CCCNc1c2ccccc2[n+](C)c2cc(OCC[N+]3(C)CC[N+](C)(C)CC3)ccc12 (3D coordinates assigned)
CCN(CC)CCCNc1c2ccccc2[n+](C)c2cc(OCC[N+]3(C)CC[N+](C)(C)CC3)ccc12 (nonaromatic ring conformer: 139.82415865113694 kcal/mol)

>  <smiles>  (7) 
CCN(CC)CCCNc1c2ccccc2[n+](C)c2cc(OCC[N+]3(C)CC[N+](C)(C)CC3)ccc12

>  <score_type>  (7) 
oracle

>  <origin>  (7) 
adg

>  <m_score__min__energy>  (7) 
-4.9199999999999999

>  <m_primary>  (7) 
energy

$$$$
7:0
     RDKit          3D

 66 69  0  0  0  0  0  0  0  0999 V2000
   60.5880   34.2100   49.3810 C   0  0  0  0  0  0  0  0  0  0  0  0
   62.0950   34.0970   49.1710 C   0  0  0  0  0  0  0  0  0  0  0  0
   62.4900   32.7390   49.1890 O   0  0  0  0  0  0  0  0  0  0  0  0
   63.2210   32.4190   48.0220 C   0  0  0  0  0  0  0  0  0  0  0  0
   62.3940   31.4810   47.1470 C   0  0  0  0  0  0  0  0  0  0  0  0
   61.0140   31.3920   47.6260 N   0  0  0  0  0  0  0  0  0  0  0  0
   59.9310   31.2220   46.7020 C   0  0  0  0  0  0  0  0  0  0  0  0
   59.3760   32.3360   46.0520 C   0  0  0  0  0  0  0  0  0  0  0  0
   59.8740   33.6340   46.2970 C   0  0  0  0  0  0  0  0  0  0  0  0
   59.2810   34.7450   45.7020 C   0  0  0  0  0  0  0  0  0  0  0  0
   58.1830   34.5840   44.8670 C   0  0  0  0  0  0  0  0  0  0  0  0
   57.6890   33.3090   44.5920 C   0  0  0  0  0  0  0  0  0  0  0  0
   58.2990   32.1530   45.1450 C   0  0  0  0  0  0  0  0  0  0  0  0
   57.8620   30.8780   44.8360 N   0  0  0  0  0  0  0  0  0  0  0  0
   56.9460   30.6680   43.6920 C   0  0  0  0  0  0  0  0  0  0  0  0
   58.3050   29.7950   45.5730 C   0  0  0  0  0  0  0  0  0  0  0  0
   57.7040   28.5160   45.4600 C   0  0  0  0  0  0  0  0  0  0  0  0
   58.1920   27.4130   46.1650 C   0  0  0  0  0  0  0  0  0  0  0  0
   57.5440   26.1800   45.9960 O   0  0  0  0  0  0  0  0  0  0  0  0
   57.9340   24.9650   46.6280 C   0  0  0  0  0  0  0  0  0  0  0  0
   58.4830   23.9530   45.5980 C   0  0  0  0  0  0  0  0  0  0  0  0
   57.4700   23.0580   44.9430 N   0  0  0  0  0  0  0  0  0  0  0  0
   56.6280   22.4080   45.9870 C   0  0  0  0  0  0  0  0  0  0  0  0
   56.6220   23.8340   43.9800 C   0  0  0  0  0  0  0  0  0  0  0  0
   56.1450   23.0050   42.7700 C   0  0  0  0  0  0  0  0  0  0  0  0
   56.0360   21.6430   43.1080 O   0  0  0  0  0  0  0  0  0  0  0  0
   57.3240   21.0990   43.3320 C   0  0  0  0  0  0  0  0  0  0  0  0
   58.2310   22.0060   44.2060 C   0  0  0  0  0  0  0  0  0  0  0  0
   59.2950   27.5710   47.0130 C   0  0  0  0  0  0  0  0  0  0  0  0
   59.8780   28.8240   47.1760 C   0  0  0  0  0  0  0  0  0  0  0  0
   59.3800   29.9490   46.4870 C   0  0  0  0  0  0  0  0  0  0  0  0
   60.3682   34.2265   50.4587 H   0  0  0  0  0  0  0  0  0  0  0  0
   60.2218   35.1381   48.9179 H   0  0  0  0  0  0  0  0  0  0  0  0
   60.0875   33.3469   48.9179 H   0  0  0  0  0  0  0  0  0  0  0  0
   62.3608   34.5399   48.1998 H   0  0  0  0  0  0  0  0  0  0  0  0
   62.6116   34.6319   49.9816 H   0  0  0  0  0  0  0  0  0  0  0  0
   63.4434   33.3405   47.4640 H   0  0  0  0  0  0  0  0  0  0  0  0
   64.1629   31.9248   48.3024 H   0  0  0  0  0  0  0  0  0  0  0  0
   62.3920   31.8613   46.1148 H   0  0  0  0  0  0  0  0  0  0  0  0
   62.8433   30.4778   47.1891 H   0  0  0  0  0  0  0  0  0  0  0  0
   60.7900   31.4850   48.6420 H   0  0  0  0  0  0  0  0  0  0  0  0
   60.7383   33.7692   46.9639 H   0  0  0  0  0  0  0  0  0  0  0  0
   59.6827   35.7509   45.8936 H   0  0  0  0  0  0  0  0  0  0  0  0
   57.7007   35.4661   44.4205 H   0  0  0  0  0  0  0  0  0  0  0  0
   56.8129   33.1977   43.9362 H   0  0  0  0  0  0  0  0  0  0  0  0
   55.9380   30.4369   44.0670 H   0  0  0  0  0  0  0  0  0  0  0  0
   56.9090   31.5810   43.0795 H   0  0  0  0  0  0  0  0  0  0  0  0
   57.3104   29.8301   43.0795 H   0  0  0  0  0  0  0  0  0  0  0  0
   56.8323   28.3890   44.8012 H   0  0  0  0  0  0  0  0  0  0  0  0
   58.7159   25.1814   47.3708 H   0  0  0  0  0  0  0  0  0  0  0  0
   57.0505   24.5247   47.1134 H   0  0  0  0  0  0  0  0  0  0  0  0
   58.9900   24.5226   44.8052 H   0  0  0  0  0  0  0  0  0  0  0  0
   59.1438   23.2827   46.1672 H   0  0  0  0  0  0  0  0  0  0  0  0
   56.9959   22.6920   46.9840 H   0  0  0  0  0  0  0  0  0  0  0  0
   55.5845   22.7371   45.8738 H   0  0  0  0  0  0  0  0  0  0  0  0
   56.6822   21.3152   45.8738 H   0  0  0  0  0  0  0  0  0  0  0  0
   55.7371   24.2057   44.5174 H   0  0  0  0  0  0  0  0  0  0  0  0
   57.2458   24.6499   43.5861 H   0  0  0  0  0  0  0  0  0  0  0  0
   55.1618   23.3754   42.4443 H   0  0  0  0  0  0  0  0  0  0  0  0
   56.8814   23.1089   41.9595 H   0  0  0  0  0  0  0  0  0  0  0  0
   57.2099   20.1287   43.8375 H   0  0  0  0  0  0  0  0  0  0  0  0
   57.8110   21.0008   42.3506 H   0  0  0  0  0  0  0  0  0  0  0  0
   58.7553   21.3749   44.9387 H   0  0  0  0  0  0  0  0  0  0  0  0
   58.9305   22.5197   43.5301 H   0  0  0  0  0  0  0  0  0  0  0  0
   59.7017   26.7024   47.5517 H   0  0  0  0  0  0  0  0  0  0  0  0
   60.7388   28.9384   47.8513 H   0  0  0  0  0  0  0  0  0  0  0  0
  1  2  1  0
  2  3  1  0
  3  4  1  0
  4  5  1  0
  5  6  1  0
  6  7  1  0
  7  8  2  0
  8  9  1  0
  9 10  2  0
 10 11  1  0
 11 12  2  0
 12 13  1  0
 13 14  2  0
 14 15  1  0
 14 16  1  0
 16 17  2  0
 17 18  1  0
 18 19  1  0
 19 20  1  0
 20 21  1  0
 21 22  1  0
 22 23  1  0
 22 24  1  0
 24 25  1  0
 25 26  1  0
 26 27  1  0
 27 28  1  0
 18 29  2  0
 29 30  1  0
 30 31  2  0
 31  7  1  0
 13  8  1  0
 31 16  1  0
 28 22  1  0
  1 32  1  0
  1 33  1  0
  1 34  1  0
  2 35  1  0
  2 36  1  0
  4 37  1  0
  4 38  1  0
  5 39  1  0
  5 40  1  0
  6 41  1  0
  9 42  1  0
 10 43  1  0
 11 44  1  0
 12 45  1  0
 15 46  1  0
 15 47  1  0
 15 48  1  0
 17 49  1  0
 20 50  1  0
 20 51  1  0
 21 52  1  0
 21 53  1  0
 23 54  1  0
 23 55  1  0
 23 56  1  0
 24 57  1  0
 24 58  1  0
 25 59  1  0
 25 60  1  0
 27 61  1  0
 27 62  1  0
 28 63  1  0
 28 64  1  0
 29 65  1  0
 30 66  1  0
M  CHG  2  14   1  22   1
M  END
>  <UniqueID>  (8) 
8

>  <SMILES>  (8) 
CCOCCNc1c2ccccc2[n+](C)c2cc(OCC[N+]3(C)CCOCC3)ccc12

>  <Energy>  (8) 
111.27207168000449

>  <Genealogy>  (8) 
CCOCCNc1c2ccccc2[n+](C)c2cc(OCC[N+]3(C)CCOCC3)ccc12 (3D coordinates assigned)
CCOCCNc1c2ccccc2[n+](C)c2cc(OCC[N+]3(C)CCOCC3)ccc12 (nonaromatic ring conformer: 111.27207168000449 kcal/mol)

>  <smiles>  (8) 
CCOCCNc1c2ccccc2[n+](C)c2cc(OCC[N+]3(C)CCOCC3)ccc12

>  <score_type>  (8) 
oracle

>  <origin>  (8) 
adg

>  <m_score__min__energy>  (8) 
-4.9299999999999997

>  <m_primary>  (8) 
energy

$$$$
8:0
     RDKit          3D

 62 64  0  0  0  0  0  0  0  0999 V2000
   63.1230   33.3940   46.7450 C   0  0  0  0  0  0  0  0  0  0  0  0
   62.6060   32.0970   47.3660 C   0  0  0  0  0  0  0  0  0  0  0  0
   62.1620   32.2990   48.7650 N   0  0  0  0  0  0  0  0  0  0  0  0
   62.1950   33.7280   49.1500 C   0  0  0  0  0  0  0  0  0  0  0  0
   63.3770   33.9960   50.0750 C   0  0  0  0  0  0  0  0  0  0  0  0
   62.8520   31.4310   49.7550 C   0  0  0  0  0  0  0  0  0  0  0  0
   62.0590   31.1820   51.0510 C   0  0  0  0  0  0  0  0  0  0  0  0
   60.9020   31.9930   51.0700 O   0  0  0  0  0  0  0  0  0  0  0  0
   59.8270   31.3240   51.7030 C   0  0  0  0  0  0  0  0  0  0  0  0
   58.5360   31.5700   50.9310 C   0  0  0  0  0  0  0  0  0  0  0  0
   58.5920   30.8840   49.6960 O   0  0  0  0  0  0  0  0  0  0  0  0
   59.6420   31.3570   48.9480 N   0  0  0  0  0  0  0  0  0  0  0  0
   59.2820   31.3640   47.5410 C   0  0  0  0  0  0  0  0  0  0  0  0
   59.0260   30.1600   46.8360 C   0  0  0  0  0  0  0  0  0  0  0  0
   58.7850   30.2030   45.4470 C   0  0  0  0  0  0  0  0  0  0  0  0
   58.5840   31.4040   44.8050 N   0  0  0  0  0  0  0  0  0  0  0  0
   58.0120   31.4180   43.4410 C   0  0  0  0  0  0  0  0  0  0  0  0
   58.8960   32.5860   45.4410 C   0  0  0  0  0  0  0  0  0  0  0  0
   58.9220   33.8180   44.7360 C   0  0  0  0  0  0  0  0  0  0  0  0
   59.1930   35.0170   45.3900 C   0  0  0  0  0  0  0  0  0  0  0  0
   59.4520   35.0250   46.7530 C   0  0  0  0  0  0  0  0  0  0  0  0
   59.4720   33.8310   47.4670 C   0  0  0  0  0  0  0  0  0  0  0  0
   59.2220   32.5920   46.8270 C   0  0  0  0  0  0  0  0  0  0  0  0
   58.7290   28.8720   44.7060 C   0  0  0  0  0  0  0  0  0  0  0  0
   59.7960   27.9040   45.2410 C   0  0  0  0  0  0  0  0  0  0  0  0
   59.7770   27.7520   46.7770 C   0  0  0  0  0  0  0  0  0  0  0  0
   58.8990   28.7900   47.4890 C   0  0  0  0  0  0  0  0  0  0  0  0
   63.4031   34.0967   47.5436 H   0  0  0  0  0  0  0  0  0  0  0  0
   64.0033   33.1769   46.1222 H   0  0  0  0  0  0  0  0  0  0  0  0
   62.3347   33.8420   46.1222 H   0  0  0  0  0  0  0  0  0  0  0  0
   61.7560   31.7310   46.7714 H   0  0  0  0  0  0  0  0  0  0  0  0
   63.4282   31.3663   47.3690 H   0  0  0  0  0  0  0  0  0  0  0  0
   62.2939   34.3460   48.2454 H   0  0  0  0  0  0  0  0  0  0  0  0
   61.2625   33.9799   49.6763 H   0  0  0  0  0  0  0  0  0  0  0  0
   63.0476   33.9213   51.1219 H   0  0  0  0  0  0  0  0  0  0  0  0
   64.1667   33.2541   49.8852 H   0  0  0  0  0  0  0  0  0  0  0  0
   63.7695   35.0059   49.8852 H   0  0  0  0  0  0  0  0  0  0  0  0
   63.0484   30.4582   49.2805 H   0  0  0  0  0  0  0  0  0  0  0  0
   63.7703   31.9610   50.0481 H   0  0  0  0  0  0  0  0  0  0  0  0
   61.7634   30.1236   51.1001 H   0  0  0  0  0  0  0  0  0  0  0  0
   62.6909   31.4320   51.9160 H   0  0  0  0  0  0  0  0  0  0  0  0
   60.0351   30.2442   51.7309 H   0  0  0  0  0  0  0  0  0  0  0  0
   59.7148   31.7077   52.7278 H   0  0  0  0  0  0  0  0  0  0  0  0
   57.6813   31.2017   51.5174 H   0  0  0  0  0  0  0  0  0  0  0  0
   58.4156   32.6480   50.7485 H   0  0  0  0  0  0  0  0  0  0  0  0
   60.5500   30.8980   49.1790 H   0  0  0  0  0  0  0  0  0  0  0  0
   59.8150   32.3420   49.2490 H   0  0  0  0  0  0  0  0  0  0  0  0
   56.9141   31.4449   43.5041 H   0  0  0  0  0  0  0  0  0  0  0  0
   58.3702   32.3076   42.9023 H   0  0  0  0  0  0  0  0  0  0  0  0
   58.3263   30.5119   42.9023 H   0  0  0  0  0  0  0  0  0  0  0  0
   58.7246   33.8255   43.6539 H   0  0  0  0  0  0  0  0  0  0  0  0
   59.2018   35.9605   44.8245 H   0  0  0  0  0  0  0  0  0  0  0  0
   59.6419   35.9771   47.2701 H   0  0  0  0  0  0  0  0  0  0  0  0
   59.6854   33.8493   48.5459 H   0  0  0  0  0  0  0  0  0  0  0  0
   57.7339   28.4240   44.8441 H   0  0  0  0  0  0  0  0  0  0  0  0
   58.9220   29.0544   43.6386 H   0  0  0  0  0  0  0  0  0  0  0  0
   59.6250   26.9148   44.7914 H   0  0  0  0  0  0  0  0  0  0  0  0
   60.7765   28.3225   44.9701 H   0  0  0  0  0  0  0  0  0  0  0  0
   59.3971   26.7492   47.0220 H   0  0  0  0  0  0  0  0  0  0  0  0
   60.8077   27.9078   47.1282 H   0  0  0  0  0  0  0  0  0  0  0  0
   57.8491   28.4655   47.4407 H   0  0  0  0  0  0  0  0  0  0  0  0
   59.2326   28.8701   48.5341 H   0  0  0  0  0  0  0  0  0  0  0  0
  1  2  1  0
  2  3  1  0
  3  4  1  0
  4  5  1  0
  3  6  1  0
  6  7  1  0
  7  8  1  0
  8  9  1  0
  9 10  1  0
 10 11  1  0
 11 12  1  0
 12 13  1  0
 13 14  2  0
 14 15  1  0
 15 16  2  0
 16 17  1  0
 16 18  1  0
 18 19  2  0
 19 20  1  0
 20 21  2  0
 21 22  1  0
 22 23  2  0
 15 24  1  0
 24 25  1  0
 25 26  1  0
 26 27  1  0
 23 13  1  0
 27 14  1  0
 23 18  1  0
  1 28  1  0
  1 29  1  0
  1 30  1  0
  2 31  1  0
  2 32  1  0
  4 33  1  0
  4 34  1  0
  5 35  1  0
  5 36  1  0
  5 37  1  0
  6 38  1  0
  6 39  1  0
  7 40  1  0
  7 41  1  0
  9 42  1  0
  9 43  1  0
 10 44  1  0
 10 45  1  0
 12 46  1  0
 12 47  1  0
 17 48  1  0
 17 49  1  0
 17 50  1  0
 19 51  1  0
 20 52  1  0
 21 53  1  0
 22 54  1  0
 24 55  1  0
 24 56  1  0
 25 57  1  0
 25 58  1  0
 26 59  1  0
 26 60  1  0
 27 61  1  0
 27 62  1  0
M  CHG  2  12   1  16   1
M  END
>  <UniqueID>  (9) 
9

>  <SMILES>  (9) 
CCN(CC)CCOCCO[NH2+]c1c2c([n+](C)c3ccccc13)CCCC2

>  <Energy>  (9) 
95.8633133489366

>  <Genealogy>  (9) 
CCN(CC)CCOCCO[NH2+]c1c2c([n+](C)c3ccccc13)CCCC2 (protonated)
CCN(CC)CCOCCO[NH2+]c1c2c([n+](C)c3ccccc13)CCCC2 (3D coordinates assigned)
CCN(CC)CCOCCO[NH2+]c1c2c([n+](C)c3ccccc13)CCCC2 (nonaromatic ring conformer: 95.8633133489366 kcal/mol)

>  <smiles>  (9) 
CCN(CC)CCOCCONc1c2c([n+](C)c3ccccc13)CCCC2

>  <score_type>  (9) 
oracle

>  <origin>  (9) 
adg

>  <m_score__min__energy>  (9) 
-3.6299999999999999

>  <m_primary>  (9) 
energy

$$$$
9:0
     RDKit          3D

 37 38  0  0  0  0  0  0  0  0999 V2000
   61.4990   33.7740   46.7320 C   0  0  0  0  0  0  0  0  0  0  0  0
   60.2420   34.5360   47.1540 C   0  0  0  0  0  0  0  0  0  0  0  0
   59.6440   35.3590   46.0010 C   0  0  0  0  0  0  0  0  0  0  0  0
   59.0410   34.4830   44.8830 C   0  0  0  0  0  0  0  0  0  0  0  0
   57.3380   33.9400   45.2730 S   0  0  0  0  0  0  0  0  0  0  0  0
   57.6920   32.1880   45.0860 C   0  0  0  0  0  0  0  0  0  0  0  0
   57.4530   31.5320   43.9240 N   0  0  0  0  0  0  0  0  0  0  0  0
   57.8200   30.2730   44.2190 C   0  0  0  0  0  0  0  0  0  0  0  0
   57.7570   29.2140   43.3760 N   0  0  0  0  0  0  0  0  0  0  0  0
   58.1430   27.9790   43.8220 C   0  0  0  0  0  0  0  0  0  0  0  0
   58.1180   26.8030   42.8920 C   0  0  0  0  0  0  0  0  0  0  0  0
   58.6250   27.8230   45.1430 C   0  0  0  0  0  0  0  0  0  0  0  0
   58.6830   28.9270   46.0220 C   0  0  0  0  0  0  0  0  0  0  0  0
   59.1910   28.7400   47.4230 C   0  0  0  0  0  0  0  0  0  0  0  0
   58.2650   30.1700   45.5050 C   0  0  0  0  0  0  0  0  0  0  0  0
   58.1990   31.3950   46.0710 N   0  0  0  0  0  0  0  0  0  0  0  0
   58.5280   31.7960   47.4400 C   0  0  0  0  0  0  0  0  0  0  0  0
   62.0451   33.4430   47.6276 H   0  0  0  0  0  0  0  0  0  0  0  0
   61.2124   32.8974   46.1324 H   0  0  0  0  0  0  0  0  0  0  0  0
   62.1436   34.4335   46.1324 H   0  0  0  0  0  0  0  0  0  0  0  0
   59.4891   33.8125   47.4998 H   0  0  0  0  0  0  0  0  0  0  0  0
   60.5251   35.2349   47.9549 H   0  0  0  0  0  0  0  0  0  0  0  0
   58.8511   36.0049   46.4061 H   0  0  0  0  0  0  0  0  0  0  0  0
   60.4626   35.9432   45.5553 H   0  0  0  0  0  0  0  0  0  0  0  0
   59.0225   35.0638   43.9490 H   0  0  0  0  0  0  0  0  0  0  0  0
   59.6674   33.5843   44.7833 H   0  0  0  0  0  0  0  0  0  0  0  0
   57.4130   29.3480   42.3980 H   0  0  0  0  0  0  0  0  0  0  0  0
   58.0982   25.8724   43.4781 H   0  0  0  0  0  0  0  0  0  0  0  0
   57.2208   26.8561   42.2578 H   0  0  0  0  0  0  0  0  0  0  0  0
   59.0167   26.8179   42.2578 H   0  0  0  0  0  0  0  0  0  0  0  0
   58.9575   26.8330   45.4886 H   0  0  0  0  0  0  0  0  0  0  0  0
   58.4072   29.0285   48.1388 H   0  0  0  0  0  0  0  0  0  0  0  0
   59.4587   27.6844   47.5781 H   0  0  0  0  0  0  0  0  0  0  0  0
   60.0792   29.3701   47.5781 H   0  0  0  0  0  0  0  0  0  0  0  0
   57.9953   31.1467   48.1503 H   0  0  0  0  0  0  0  0  0  0  0  0
   59.6123   31.7016   47.5992 H   0  0  0  0  0  0  0  0  0  0  0  0
   58.2236   32.8410   47.5992 H   0  0  0  0  0  0  0  0  0  0  0  0
  1  2  1  0
  2  3  1  0
  3  4  1  0
  4  5  1  0
  5  6  1  0
  6  7  2  0
  7  8  1  0
  8  9  2  0
  9 10  1  0
 10 11  1  0
 10 12  2  0
 12 13  1  0
 13 14  1  0
 13 15  2  0
 15 16  1  0
 16 17  1  0
 16  6  1  0
 15  8  1  0
  1 18  1  0
  1 19  1  0
  1 20  1  0
  2 21  1  0
  2 22  1  0
  3 23  1  0
  3 24  1  0
  4 25  1  0
  4 26  1  0
  9 27  1  0
 11 28  1  0
 11 29  1  0
 11 30  1  0
 12 31  1  0
 14 32  1  0
 14 33  1  0
 14 34  1  0
 17 35  1  0
 17 36  1  0
 17 37  1  0
M  CHG  1   9   1
M  END
>  <UniqueID>  (10) 
10

>  <SMILES>  (10) 
CCCCSc1nc2[nH+]c(C)cc(C)c2n1C

>  <Energy>  (10) 
68.73590609601393

>  <Genealogy>  (10) 
CCCCSc1nc2[nH+]c(C)cc(C)c2n1C (protonated)
CCCCSc1nc2[nH+]c(C)cc(C)c2n1C (3D coordinates assigned)
CCCCSc1nc2[nH+]c(C)cc(C)c2n1C (optimized conformer: 68.73590609601393 kcal/mol)

>  <smiles>  (10) 
CCCCSc1nc2nc(C)cc(C)c2n1C

>  <score_type>  (10) 
oracle

>  <origin>  (10) 
adg

>  <m_score__min__energy>  (10) 
-4.9400000000000004

>  <m_primary>  (10) 
energy

$$$$
10:0
     RDKit          3D

 56 58  0  0  0  0  0  0  0  0999 V2000
   63.3200   33.8100   46.6500 C   0  0  0  0  0  0  0  0  0  0  0  0
   62.3420   32.8820   47.3720 C   0  0  0  0  0  0  0  0  0  0  0  0
   63.0460   31.7420   47.9810 N   0  0  0  0  0  0  0  0  0  0  0  0
   63.4080   31.9800   49.3910 C   0  0  0  0  0  0  0  0  0  0  0  0
   62.6850   30.9820   50.2970 C   0  0  0  0  0  0  0  0  0  0  0  0
   61.9040   30.0890   49.5250 O   0  0  0  0  0  0  0  0  0  0  0  0
   60.6340   29.8730   50.1100 C   0  0  0  0  0  0  0  0  0  0  0  0
   59.5520   30.0120   49.0380 C   0  0  0  0  0  0  0  0  0  0  0  0
   60.1240   30.4600   47.7660 N   0  0  0  0  0  0  0  0  0  0  0  0
   59.3050   30.6860   46.6050 C   0  0  0  0  0  0  0  0  0  0  0  0
   58.8450   31.9790   46.3100 C   0  0  0  0  0  0  0  0  0  0  0  0
   59.0520   33.0450   47.2100 C   0  0  0  0  0  0  0  0  0  0  0  0
   58.5830   34.3230   46.9200 C   0  0  0  0  0  0  0  0  0  0  0  0
   57.8890   34.5580   45.7390 C   0  0  0  0  0  0  0  0  0  0  0  0
   57.6770   33.5210   44.8310 C   0  0  0  0  0  0  0  0  0  0  0  0
   58.1770   32.2170   45.0790 C   0  0  0  0  0  0  0  0  0  0  0  0
   58.0230   31.1910   44.1650 N   0  0  0  0  0  0  0  0  0  0  0  0
   57.6090   31.4930   42.7770 C   0  0  0  0  0  0  0  0  0  0  0  0
   58.2760   29.8860   44.5440 C   0  0  0  0  0  0  0  0  0  0  0  0
   57.8590   28.7840   43.7530 C   0  0  0  0  0  0  0  0  0  0  0  0
   58.1410   27.4630   44.1320 C   0  0  0  0  0  0  0  0  0  0  0  0
   57.7350   26.3600   43.2940 N   0  0  0  0  0  0  0  0  0  0  0  0
   57.5110   25.1640   44.1090 C   0  0  0  0  0  0  0  0  0  0  0  0
   58.8530   27.2270   45.3130 C   0  0  0  0  0  0  0  0  0  0  0  0
   59.2440   28.2880   46.1240 C   0  0  0  0  0  0  0  0  0  0  0  0
   58.9550   29.6180   45.7610 C   0  0  0  0  0  0  0  0  0  0  0  0
   63.9096   34.3695   47.3912 H   0  0  0  0  0  0  0  0  0  0  0  0
   63.9951   33.2125   46.0198 H   0  0  0  0  0  0  0  0  0  0  0  0
   62.7587   34.5155   46.0198 H   0  0  0  0  0  0  0  0  0  0  0  0
   61.8251   33.4482   48.1608 H   0  0  0  0  0  0  0  0  0  0  0  0
   61.6199   32.4954   46.6378 H   0  0  0  0  0  0  0  0  0  0  0  0
   62.3980   30.9200   47.9440 H   0  0  0  0  0  0  0  0  0  0  0  0
   64.4947   31.8601   49.5125 H   0  0  0  0  0  0  0  0  0  0  0  0
   63.1095   33.0010   49.6711 H   0  0  0  0  0  0  0  0  0  0  0  0
   63.4284   30.4096   50.8712 H   0  0  0  0  0  0  0  0  0  0  0  0
   62.0233   31.5351   50.9798 H   0  0  0  0  0  0  0  0  0  0  0  0
   60.5956   28.8619   50.5415 H   0  0  0  0  0  0  0  0  0  0  0  0
   60.4633   30.6154   50.9035 H   0  0  0  0  0  0  0  0  0  0  0  0
   59.0660   29.0364   48.8895 H   0  0  0  0  0  0  0  0  0  0  0  0
   58.8205   30.7612   49.3751 H   0  0  0  0  0  0  0  0  0  0  0  0
   61.1620   30.5260   47.6700 H   0  0  0  0  0  0  0  0  0  0  0  0
   59.5904   32.8643   48.1521 H   0  0  0  0  0  0  0  0  0  0  0  0
   58.7617   35.1475   47.6259 H   0  0  0  0  0  0  0  0  0  0  0  0
   57.5056   35.5654   45.5197 H   0  0  0  0  0  0  0  0  0  0  0  0
   57.1128   33.7175   43.9074 H   0  0  0  0  0  0  0  0  0  0  0  0
   56.7204   32.1412   42.7922 H   0  0  0  0  0  0  0  0  0  0  0  0
   58.4287   32.0068   42.2534 H   0  0  0  0  0  0  0  0  0  0  0  0
   57.3701   30.5556   42.2534 H   0  0  0  0  0  0  0  0  0  0  0  0
   57.3026   28.9696   42.8225 H   0  0  0  0  0  0  0  0  0  0  0  0
   56.8520   26.6000   42.7850 H   0  0  0  0  0  0  0  0  0  0  0  0
   58.4710   26.1570   42.5780 H   0  0  0  0  0  0  0  0  0  0  0  0
   57.5612   25.4318   45.1747 H   0  0  0  0  0  0  0  0  0  0  0  0
   56.5190   24.7463   43.8822 H   0  0  0  0  0  0  0  0  0  0  0  0
   58.2846   24.4156   43.8822 H   0  0  0  0  0  0  0  0  0  0  0  0
   59.1053   26.1962   45.6023 H   0  0  0  0  0  0  0  0  0  0  0  0
   59.7853   28.0857   47.0599 H   0  0  0  0  0  0  0  0  0  0  0  0
  1  2  1  0
  2  3  1  0
  3  4  1  0
  4  5  1  0
  5  6  1  0
  6  7  1  0
  7  8  1  0
  8  9  1  0
  9 10  1  0
 10 11  2  0
 11 12  1  0
 12 13  2  0
 13 14  1  0
 14 15  2  0
 15 16  1  0
 16 17  2  0
 17 18  1  0
 17 19  1  0
 19 20  2  0
 20 21  1  0
 21 22  1  0
 22 23  1  0
 21 24  2  0
 24 25  1  0
 25 26  2  0
 26 10  1  0
 16 11  1  0
 26 19  1  0
  1 27  1  0
  1 28  1  0
  1 29  1  0
  2 30  1  0
  2 31  1  0
  3 32  1  0
  4 33  1  0
  4 34  1  0
  5 35  1  0
  5 36  1  0
  7 37  1  0
  7 38  1  0
  8 39  1  0
  8 40  1  0
  9 41  1  0
 12 42  1  0
 13 43  1  0
 14 44  1  0
 15 45  1  0
 18 46  1  0
 18 47  1  0
 18 48  1  0
 20 49  1  0
 22 50  1  0
 22 51  1  0
 23 52  1  0
 23 53  1  0
 23 54  1  0
 24 55  1  0
 25 56  1  0
M  CHG  2  17   1  22   1
M  END
>  <UniqueID>  (11) 
11

>  <SMILES>  (11) 
CCNCCOCCNc1c2ccccc2[n+](C)c2cc([NH2+]C)ccc12

>  <Energy>  (11) 
79.48441110520406

>  <Genealogy>  (11) 
CCNCCOCCNc1c2ccccc2[n+](C)c2cc([NH2+]C)ccc12 (protonated)
CCNCCOCCNc1c2ccccc2[n+](C)c2cc([NH2+]C)ccc12 (3D coordinates assigned)
CCNCCOCCNc1c2ccccc2[n+](C)c2cc([NH2+]C)ccc12 (optimized conformer: 79.48441110520406 kcal/mol)

>  <smiles>  (11) 
CCNCCOCCNc1c2ccccc2[n+](C)c2cc(NC)ccc12

>  <score_type>  (11) 
oracle

>  <origin>  (11) 
adg

>  <m_score__min__energy>  (11) 
-4.4400000000000004

>  <m_primary>  (11) 
energy

$$$$
11:0
     RDKit          3D

 58 60  0  0  0  0  0  0  0  0999 V2000
   57.0870   30.3160   43.4160 C   0  0  0  0  0  0  0  0  0  0  0  0
   57.9340   30.5810   44.6000 N   0  0  0  0  0  0  0  0  0  0  0  0
   58.5260   29.5290   45.2750 C   0  0  0  0  0  0  0  0  0  0  0  0
   58.1340   28.1830   45.0570 C   0  0  0  0  0  0  0  0  0  0  0  0
   58.7810   27.1290   45.7050 C   0  0  0  0  0  0  0  0  0  0  0  0
   59.8190   27.3850   46.5930 C   0  0  0  0  0  0  0  0  0  0  0  0
   60.1980   28.6980   46.8620 C   0  0  0  0  0  0  0  0  0  0  0  0
   59.5450   29.7790   46.2340 C   0  0  0  0  0  0  0  0  0  0  0  0
   59.8850   31.1040   46.5530 C   0  0  0  0  0  0  0  0  0  0  0  0
   60.9130   31.3710   47.5170 N   0  0  0  0  0  0  0  0  0  0  0  0
   62.3220   31.3430   47.1290 C   0  0  0  0  0  0  0  0  0  0  0  0
   63.1550   32.2630   48.0180 C   0  0  0  0  0  0  0  0  0  0  0  0
   62.4320   32.5580   49.1950 O   0  0  0  0  0  0  0  0  0  0  0  0
   62.1610   33.9440   49.2790 C   0  0  0  0  0  0  0  0  0  0  0  0
   60.6580   34.2010   49.1980 C   0  0  0  0  0  0  0  0  0  0  0  0
   59.9620   33.0090   49.5050 O   0  0  0  0  0  0  0  0  0  0  0  0
   59.5120   33.0230   50.8470 C   0  0  0  0  0  0  0  0  0  0  0  0
   60.0610   31.8110   51.6270 C   0  0  0  0  0  0  0  0  0  0  0  0
   61.0300   31.0040   50.8450 N   0  0  0  0  0  0  0  0  0  0  0  0
   62.1450   30.5880   51.7150 C   0  0  0  0  0  0  0  0  0  0  0  0
   60.3990   29.8120   50.2460 C   0  0  0  0  0  0  0  0  0  0  0  0
   59.1770   32.1640   45.9640 C   0  0  0  0  0  0  0  0  0  0  0  0
   59.4570   33.5020   46.3160 C   0  0  0  0  0  0  0  0  0  0  0  0
   58.7130   34.5490   45.7790 C   0  0  0  0  0  0  0  0  0  0  0  0
   57.6760   34.2820   44.8930 C   0  0  0  0  0  0  0  0  0  0  0  0
   57.3940   32.9690   44.5140 C   0  0  0  0  0  0  0  0  0  0  0  0
   58.1610   31.8830   45.0100 C   0  0  0  0  0  0  0  0  0  0  0  0
   56.0851   30.0025   43.7446 H   0  0  0  0  0  0  0  0  0  0  0  0
   57.0049   31.2314   42.8116 H   0  0  0  0  0  0  0  0  0  0  0  0
   57.5413   29.5171   42.8116 H   0  0  0  0  0  0  0  0  0  0  0  0
   57.3063   27.9661   44.3657 H   0  0  0  0  0  0  0  0  0  0  0  0
   58.4680   26.0923   45.5120 H   0  0  0  0  0  0  0  0  0  0  0  0
   60.3414   26.5504   47.0835 H   0  0  0  0  0  0  0  0  0  0  0  0
   61.0152   28.8940   47.5717 H   0  0  0  0  0  0  0  0  0  0  0  0
   60.6270   31.6090   48.4930 H   0  0  0  0  0  0  0  0  0  0  0  0
   62.7000   30.3142   47.2224 H   0  0  0  0  0  0  0  0  0  0  0  0
   62.4052   31.6924   46.0893 H   0  0  0  0  0  0  0  0  0  0  0  0
   64.0983   31.7626   48.2823 H   0  0  0  0  0  0  0  0  0  0  0  0
   63.3748   33.1958   47.4780 H   0  0  0  0  0  0  0  0  0  0  0  0
   62.5433   34.3303   50.2354 H   0  0  0  0  0  0  0  0  0  0  0  0
   62.6550   34.4546   48.4392 H   0  0  0  0  0  0  0  0  0  0  0  0
   60.3800   34.9845   49.9183 H   0  0  0  0  0  0  0  0  0  0  0  0
   60.3950   34.5295   48.1817 H   0  0  0  0  0  0  0  0  0  0  0  0
   59.8558   33.9485   51.3320 H   0  0  0  0  0  0  0  0  0  0  0  0
   58.4132   32.9721   50.8486 H   0  0  0  0  0  0  0  0  0  0  0  0
   60.5630   32.1774   52.5346 H   0  0  0  0  0  0  0  0  0  0  0  0
   59.2068   31.1591   51.8624 H   0  0  0  0  0  0  0  0  0  0  0  0
   61.4310   31.5920   50.0750 H   0  0  0  0  0  0  0  0  0  0  0  0
   61.8489   30.6985   52.7686 H   0  0  0  0  0  0  0  0  0  0  0  0
   62.3951   29.5361   51.5128 H   0  0  0  0  0  0  0  0  0  0  0  0
   63.0230   31.2190   51.5128 H   0  0  0  0  0  0  0  0  0  0  0  0
   60.0453   29.1438   51.0450 H   0  0  0  0  0  0  0  0  0  0  0  0
   59.5469   30.1221   49.6233 H   0  0  0  0  0  0  0  0  0  0  0  0
   61.1345   29.2817   49.6233 H   0  0  0  0  0  0  0  0  0  0  0  0
   60.2718   33.7197   47.0222 H   0  0  0  0  0  0  0  0  0  0  0  0
   58.9459   35.5878   46.0560 H   0  0  0  0  0  0  0  0  0  0  0  0
   57.0747   35.1096   44.4886 H   0  0  0  0  0  0  0  0  0  0  0  0
   56.5638   32.7726   43.8196 H   0  0  0  0  0  0  0  0  0  0  0  0
  1  2  1  0
  2  3  2  0
  3  4  1  0
  4  5  2  0
  5  6  1  0
  6  7  2  0
  7  8  1  0
  8  9  2  0
  9 10  1  0
 10 11  1  0
 11 12  1  0
 12 13  1  0
 13 14  1  0
 14 15  1  0
 15 16  1  0
 16 17  1  0
 17 18  1  0
 18 19  1  0
 19 20  1  0
 19 21  1  0
  9 22  1  0
 22 23  2  0
 23 24  1  0
 24 25  2  0
 25 26  1  0
 26 27  2  0
 27  2  1  0
  8  3  1  0
 27 22  1  0
  1 28  1  0
  1 29  1  0
  1 30  1  0
  4 31  1  0
  5 32  1  0
  6 33  1  0
  7 34  1  0
 10 35  1  0
 11 36  1  0
 11 37  1  0
 12 38  1  0
 12 39  1  0
 14 40  1  0
 14 41  1  0
 15 42  1  0
 15 43  1  0
 17 44  1  0
 17 45  1  0
 18 46  1  0
 18 47  1  0
 19 48  1  0
 20 49  1  0
 20 50  1  0
 20 51  1  0
 21 52  1  0
 21 53  1  0
 21 54  1  0
 23 55  1  0
 24 56  1  0
 25 57  1  0
 26 58  1  0
M  CHG  2   2   1  19   1
M  END
>  <UniqueID>  (12) 
12

>  <SMILES>  (12) 
C[n+]1c2ccccc2c(NCCOCCOCC[NH+](C)C)c2ccccc21

>  <Energy>  (12) 
86.03815387204389

>  <Genealogy>  (12) 
C[n+]1c2ccccc2c(NCCOCCOCC[NH+](C)C)c2ccccc21 (protonated)
C[n+]1c2ccccc2c(NCCOCCOCC[NH+](C)C)c2ccccc21 (3D coordinates assigned)
C[n+]1c2ccccc2c(NCCOCCOCC[NH+](C)C)c2ccccc21 (optimized conformer: 86.03815387204389 kcal/mol)

>  <smiles>  (12) 
CN(C)CCOCCOCCNc1c2ccccc2[n+](C)c2ccccc12

>  <score_type>  (12) 
oracle

>  <origin>  (12) 
adg

>  <m_score__min__energy>  (12) 
-3.3500000000000001

>  <m_primary>  (12) 
energy

$$$$
12:0
     RDKit          3D

 47 47  0  0  0  0  0  0  0  0999 V2000
   61.0530   33.8070   50.0720 C   0  0  0  0  0  0  0  0  0  0  0  0
   62.3520   34.5800   49.8470 C   0  0  0  0  0  0  0  0  0  0  0  0
   63.4900   34.1520   50.8000 C   0  0  0  0  0  0  0  0  0  0  0  0
   64.5900   33.3840   50.1550 N   0  0  1  0  0  0  0  0  0  0  0  0
   65.7590   33.3460   51.0760 C   0  0  0  0  0  0  0  0  0  0  0  0
   67.0130   32.7250   50.4490 C   0  0  0  0  0  0  0  0  0  0  0  0
   64.1760   32.0430   49.6480 C   0  0  0  0  0  0  0  0  0  0  0  0
   63.7500   31.9860   48.1640 C   0  0  0  0  0  0  0  0  0  0  0  0
   64.0810   33.2400   47.4730 N   0  0  0  0  0  0  0  0  0  0  0  0
   62.9480   33.6980   46.6650 C   0  0  0  0  0  0  0  0  0  0  0  0
   61.7840   32.7090   46.7920 C   0  0  0  0  0  0  0  0  0  0  0  0
   60.4140   33.3870   46.6330 C   0  0  0  0  0  0  0  0  0  0  0  0
   59.3700   32.4400   46.0830 C   0  0  0  0  0  0  0  0  0  0  0  0
   59.5050   31.0640   46.3370 C   0  0  0  0  0  0  0  0  0  0  0  0
   58.5790   30.1520   45.8270 C   0  0  0  0  0  0  0  0  0  0  0  0
   57.5080   30.6010   45.0520 C   0  0  0  0  0  0  0  0  0  0  0  0
   56.3470   29.4550   44.4090 Cl  0  0  0  0  0  0  0  0  0  0  0  0
   57.3630   31.9660   44.7860 C   0  0  0  0  0  0  0  0  0  0  0  0
   58.2860   32.8900   45.2930 C   0  0  0  0  0  0  0  0  0  0  0  0
   58.0470   34.5910   44.9070 Cl  0  0  0  0  0  0  0  0  0  0  0  0
   60.8726   33.6996   51.1518 H   0  0  0  0  0  0  0  0  0  0  0  0
   60.2164   34.3543   49.6131 H   0  0  0  0  0  0  0  0  0  0  0  0
   61.1350   32.8107   49.6131 H   0  0  0  0  0  0  0  0  0  0  0  0
   62.6826   34.4133   48.8112 H   0  0  0  0  0  0  0  0  0  0  0  0
   62.1395   35.6403   50.0484 H   0  0  0  0  0  0  0  0  0  0  0  0
   63.9224   35.0599   51.2457 H   0  0  0  0  0  0  0  0  0  0  0  0
   63.0356   33.4780   51.5412 H   0  0  0  0  0  0  0  0  0  0  0  0
   64.9040   33.9350   49.3220 H   0  0  0  0  0  0  0  0  0  0  0  0
   65.9958   34.3762   51.3804 H   0  0  0  0  0  0  0  0  0  0  0  0
   65.4771   32.7125   51.9299 H   0  0  0  0  0  0  0  0  0  0  0  0
   67.6929   32.3883   51.2455 H   0  0  0  0  0  0  0  0  0  0  0  0
   66.7243   31.8657   49.8259 H   0  0  0  0  0  0  0  0  0  0  0  0
   67.5214   33.4755   49.8259 H   0  0  0  0  0  0  0  0  0  0  0  0
   65.0239   31.3552   49.7821 H   0  0  0  0  0  0  0  0  0  0  0  0
   63.2810   31.7690   50.2259 H   0  0  0  0  0  0  0  0  0  0  0  0
   64.2743   31.1542   47.6708 H   0  0  0  0  0  0  0  0  0  0  0  0
   62.6612   31.8367   48.1172 H   0  0  0  0  0  0  0  0  0  0  0  0
   64.8830   33.0460   46.8270 H   0  0  0  0  0  0  0  0  0  0  0  0
   62.6252   34.6887   47.0177 H   0  0  0  0  0  0  0  0  0  0  0  0
   63.2565   33.7612   45.6111 H   0  0  0  0  0  0  0  0  0  0  0  0
   61.8889   31.9392   46.0133 H   0  0  0  0  0  0  0  0  0  0  0  0
   61.8253   32.2728   47.8010 H   0  0  0  0  0  0  0  0  0  0  0  0
   60.0812   33.7489   47.6170 H   0  0  0  0  0  0  0  0  0  0  0  0
   60.5277   34.2167   45.9197 H   0  0  0  0  0  0  0  0  0  0  0  0
   60.3484   30.7023   46.9435 H   0  0  0  0  0  0  0  0  0  0  0  0
   58.6934   29.0781   46.0361 H   0  0  0  0  0  0  0  0  0  0  0  0
   56.5185   32.3167   44.1745 H   0  0  0  0  0  0  0  0  0  0  0  0
  1  2  1  0
  2  3  1  0
  3  4  1  0
  4  5  1  0
  5  6  1  0
  4  7  1  0
  7  8  1  0
  8  9  1  0
  9 10  1  0
 10 11  1  0
 11 12  1  0
 12 13  1  0
 13 14  2  0
 14 15  1  0
 15 16  2  0
 16 17  1  0
 16 18  1  0
 18 19  2  0
 19 20  1  0
 19 13  1  0
  1 21  1  0
  1 22  1  0
  1 23  1  0
  2 24  1  0
  2 25  1  0
  3 26  1  0
  3 27  1  0
  4 28  1  6
  5 29  1  0
  5 30  1  0
  6 31  1  0
  6 32  1  0
  6 33  1  0
  7 34  1  0
  7 35  1  0
  8 36  1  0
  8 37  1  0
  9 38  1  0
 10 39  1  0
 10 40  1  0
 11 41  1  0
 11 42  1  0
 12 43  1  0
 12 44  1  0
 14 45  1  0
 15 46  1  0
 18 47  1  0
M  CHG  1   4   1
M  END
>  <UniqueID>  (13) 
13

>  <SMILES>  (13) 
CCC[N@@H+](CC)CCNCCCc1ccc(Cl)cc1Cl

>  <Energy>  (13) 
42.411067738559304

>  <Genealogy>  (13) 
CCC[NH+](CC)CCNCCCc1ccc(Cl)cc1Cl (protonated)
CCC[N@@H+](CC)CCNCCCc1ccc(Cl)cc1Cl (chirality)
CCC[N@@H+](CC)CCNCCCc1ccc(Cl)cc1Cl (3D coordinates assigned)
CCC[N@@H+](CC)CCNCCCc1ccc(Cl)cc1Cl (optimized conformer: 42.411067738559304 kcal/mol)

>  <smiles>  (13) 
CCCN(CC)CCNCCCc1ccc(Cl)cc1Cl

>  <score_type>  (13) 
oracle

>  <origin>  (13) 
adg

>  <m_score__min__energy>  (13) 
-5.2599999999999998

>  <m_primary>  (13) 
energy

$$$$
13:0
     RDKit          3D

 54 57  0  0  0  0  0  0  0  0999 V2000
   57.9930   26.8830   42.6880 C   0  0  0  0  0  0  0  0  0  0  0  0
   58.3720   27.4660   44.0180 C   0  0  0  0  0  0  0  0  0  0  0  0
   59.5380   28.2320   44.1490 C   0  0  0  0  0  0  0  0  0  0  0  0
   59.8970   28.7470   45.3970 C   0  0  0  0  0  0  0  0  0  0  0  0
   59.0870   28.4870   46.5130 C   0  0  0  0  0  0  0  0  0  0  0  0
   59.4210   29.0620   47.8650 C   0  0  2  0  0  0  0  0  0  0  0  0
   60.4950   30.1660   47.7300 C   0  0  0  0  0  0  0  0  0  0  0  0
   60.7840   30.7820   49.0430 N   0  0  0  0  0  0  0  0  0  0  0  0
   62.1000   31.4560   49.0340 C   0  0  0  0  0  0  0  0  0  0  0  0
   61.9600   32.9020   49.5300 C   0  0  0  0  0  0  0  0  0  0  0  0
   61.6150   33.8690   48.3960 C   0  0  0  0  0  0  0  0  0  0  0  0
   59.9660   34.6080   48.6550 S   0  0  0  0  0  0  0  0  0  0  0  0
   59.4050   34.2250   46.9950 C   0  0  0  0  0  0  0  0  0  0  0  0
   59.6980   34.9850   45.9260 N   0  0  0  0  0  0  0  0  0  0  0  0
   59.1350   34.4060   44.8770 N   0  0  0  0  0  0  0  0  0  0  0  0
   58.5060   33.2970   45.3190 C   0  0  0  0  0  0  0  0  0  0  0  0
   57.7930   32.3600   44.4210 C   0  0  0  0  0  0  0  0  0  0  0  0
   57.9690   32.4290   43.0330 C   0  0  0  0  0  0  0  0  0  0  0  0
   57.3030   31.5070   42.2260 C   0  0  0  0  0  0  0  0  0  0  0  0
   56.5080   30.5630   42.7900 N   0  0  0  0  0  0  0  0  0  0  0  0
   56.3460   30.5040   44.1360 C   0  0  0  0  0  0  0  0  0  0  0  0
   56.9860   31.3960   44.9370 N   0  0  0  0  0  0  0  0  0  0  0  0
   58.6510   33.1590   46.6560 N   0  0  0  0  0  0  0  0  0  0  0  0
   58.1450   32.1020   47.5320 C   0  0  0  0  0  0  0  0  0  0  0  0
   60.6560   29.8170   50.1640 C   0  0  0  0  0  0  0  0  0  0  0  0
   60.7820   28.3590   49.6890 C   0  0  0  0  0  0  0  0  0  0  0  0
   59.8060   27.9950   48.7250 O   0  0  0  0  0  0  0  0  0  0  0  0
   57.9650   27.7320   46.3610 N   0  0  0  0  0  0  0  0  0  0  0  0
   57.5990   27.2150   45.1580 C   0  0  0  0  0  0  0  0  0  0  0  0
   57.3995   25.9700   42.8436 H   0  0  0  0  0  0  0  0  0  0  0  0
   57.3979   27.6154   42.1228 H   0  0  0  0  0  0  0  0  0  0  0  0
   58.9039   26.6363   42.1228 H   0  0  0  0  0  0  0  0  0  0  0  0
   60.1699   28.4276   43.2701 H   0  0  0  0  0  0  0  0  0  0  0  0
   60.8090   29.3526   45.5042 H   0  0  0  0  0  0  0  0  0  0  0  0
   58.5450   29.5536   48.3134 H   0  0  0  0  0  0  0  0  0  0  0  0
   61.4185   29.7234   47.3284 H   0  0  0  0  0  0  0  0  0  0  0  0
   60.1165   30.9446   47.0514 H   0  0  0  0  0  0  0  0  0  0  0  0
   62.7915   30.9112   49.6936 H   0  0  0  0  0  0  0  0  0  0  0  0
   62.4904   31.4661   48.0057 H   0  0  0  0  0  0  0  0  0  0  0  0
   61.1614   32.9420   50.2854 H   0  0  0  0  0  0  0  0  0  0  0  0
   62.9271   33.2094   49.9545 H   0  0  0  0  0  0  0  0  0  0  0  0
   62.3682   34.6700   48.3631 H   0  0  0  0  0  0  0  0  0  0  0  0
   61.6073   33.3122   47.4474 H   0  0  0  0  0  0  0  0  0  0  0  0
   58.6201   33.1958   42.5881 H   0  0  0  0  0  0  0  0  0  0  0  0
   57.4221   31.5450   41.1331 H   0  0  0  0  0  0  0  0  0  0  0  0
   55.6967   29.7343   44.5787 H   0  0  0  0  0  0  0  0  0  0  0  0
   58.2863   32.3972   48.5822 H   0  0  0  0  0  0  0  0  0  0  0  0
   57.0740   31.9449   47.3362 H   0  0  0  0  0  0  0  0  0  0  0  0
   58.6942   31.1693   47.3362 H   0  0  0  0  0  0  0  0  0  0  0  0
   61.4484   30.0203   50.8994 H   0  0  0  0  0  0  0  0  0  0  0  0
   59.6577   29.9438   50.6081 H   0  0  0  0  0  0  0  0  0  0  0  0
   61.7790   28.2216   49.2451 H   0  0  0  0  0  0  0  0  0  0  0  0
   60.6266   27.7160   50.5679 H   0  0  0  0  0  0  0  0  0  0  0  0
   56.6922   26.5972   45.0801 H   0  0  0  0  0  0  0  0  0  0  0  0
  1  2  1  0
  2  3  2  0
  3  4  1  0
  4  5  2  0
  5  6  1  0
  6  7  1  0
  7  8  1  0
  8  9  1  0
  9 10  1  0
 10 11  1  0
 11 12  1  0
 12 13  1  0
 13 14  2  0
 14 15  1  0
 15 16  2  0
 16 17  1  0
 17 18  2  0
 18 19  1  0
 19 20  2  0
 20 21  1  0
 21 22  2  0
 16 23  1  0
 23 24  1  0
  8 25  1  0
 25 26  1  0
 26 27  1  0
  5 28  1  0
 28 29  2  0
 29  2  1  0
 27  6  1  0
 23 13  1  0
 22 17  1  0
  1 30  1  0
  1 31  1  0
  1 32  1  0
  3 33  1  0
  4 34  1  0
  6 35  1  1
  7 36  1  0
  7 37  1  0
  9 38  1  0
  9 39  1  0
 10 40  1  0
 10 41  1  0
 11 42  1  0
 11 43  1  0
 18 44  1  0
 19 45  1  0
 21 46  1  0
 24 47  1  0
 24 48  1  0
 24 49  1  0
 25 50  1  0
 25 51  1  0
 26 52  1  0
 26 53  1  0
 29 54  1  0
M  END
>  <UniqueID>  (14) 
14

>  <SMILES>  (14) 
Cc1ccc([C@@H]2CN(CCCSc3nnc(-c4ccncn4)n3C)CCO2)nc1

>  <Energy>  (14) 
102.55321330184591

>  <Genealogy>  (14) 
Cc1ccc([C@@H]2CN(CCCSc3nnc(-c4ccncn4)n3C)CCO2)nc1 (chirality)
Cc1ccc([C@@H]2CN(CCCSc3nnc(-c4ccncn4)n3C)CCO2)nc1 (3D coordinates assigned)
Cc1ccc([C@@H]2CN(CCCSc3nnc(-c4ccncn4)n3C)CCO2)nc1 (nonaromatic ring conformer: 102.55321330184591 kcal/mol)

>  <smiles>  (14) 
Cc1ccc(C2CN(CCCSc3nnc(-c4ccncn4)n3C)CCO2)nc1

>  <score_type>  (14) 
oracle

>  <origin>  (14) 
adg

>  <m_score__min__energy>  (14) 
-9.1799999999999997

>  <m_primary>  (14) 
energy

$$$$
14:0
     RDKit          3D

 39 40  0  0  0  0  0  0  0  0999 V2000
   59.2790   34.5690   44.5500 C   0  0  0  0  0  0  0  0  0  0  0  0
   59.2630   34.9280   46.0330 C   0  0  0  0  0  0  0  0  0  0  0  0
   58.4170   33.9350   46.8360 C   0  0  0  0  0  0  0  0  0  0  0  0
   58.8610   32.5520   46.5740 N   0  0  0  0  0  0  0  0  0  0  0  0
   60.0200   32.0610   47.1490 C   0  0  0  0  0  0  0  0  0  0  0  0
   61.0670   33.0660   48.2160 S   0  0  0  0  0  0  0  0  0  0  0  0
   62.6020   32.6000   47.3490 C   0  0  0  0  0  0  0  0  0  0  0  0
   63.2570   33.8370   46.7550 C   0  0  0  0  0  0  0  0  0  0  0  0
   60.4050   30.7730   46.9350 N   0  0  0  0  0  0  0  0  0  0  0  0
   59.6480   29.9720   46.1580 C   0  0  0  0  0  0  0  0  0  0  0  0
   59.9540   28.3720   45.7820 S   0  0  0  0  0  0  0  0  0  0  0  0
   58.5610   28.1780   44.8300 C   0  0  0  0  0  0  0  0  0  0  0  0
   58.1430   26.9040   44.1350 C   0  0  0  0  0  0  0  0  0  0  0  0
   58.1390   27.0140   42.6120 C   0  0  0  0  0  0  0  0  0  0  0  0
   57.8390   29.3880   44.8210 C   0  0  0  0  0  0  0  0  0  0  0  0
   56.5380   29.5810   44.0920 C   0  0  0  0  0  0  0  0  0  0  0  0
   58.4780   30.3980   45.5750 C   0  0  0  0  0  0  0  0  0  0  0  0
   58.0760   31.7240   45.7970 C   0  0  0  0  0  0  0  0  0  0  0  0
   57.0010   32.1500   45.2930 O   0  0  0  0  0  0  0  0  0  0  0  0
   59.3277   33.4758   44.4379 H   0  0  0  0  0  0  0  0  0  0  0  0
   58.3632   34.9462   44.0715 H   0  0  0  0  0  0  0  0  0  0  0  0
   60.1577   35.0262   44.0715 H   0  0  0  0  0  0  0  0  0  0  0  0
   60.2938   34.9130   46.4166 H   0  0  0  0  0  0  0  0  0  0  0  0
   58.8217   35.9295   46.1434 H   0  0  0  0  0  0  0  0  0  0  0  0
   58.5233   34.1528   47.9090 H   0  0  0  0  0  0  0  0  0  0  0  0
   57.3645   34.0356   46.5327 H   0  0  0  0  0  0  0  0  0  0  0  0
   63.2941   32.1273   48.0614 H   0  0  0  0  0  0  0  0  0  0  0  0
   62.3612   31.8942   46.5404 H   0  0  0  0  0  0  0  0  0  0  0  0
   63.6045   34.4933   47.5664 H   0  0  0  0  0  0  0  0  0  0  0  0
   64.1139   33.5360   46.1344 H   0  0  0  0  0  0  0  0  0  0  0  0
   62.5264   34.3766   46.1344 H   0  0  0  0  0  0  0  0  0  0  0  0
   58.8408   26.1044   44.4245 H   0  0  0  0  0  0  0  0  0  0  0  0
   57.1101   26.6894   44.4466 H   0  0  0  0  0  0  0  0  0  0  0  0
   58.1004   28.0741   42.3211 H   0  0  0  0  0  0  0  0  0  0  0  0
   59.0544   26.5562   42.2089 H   0  0  0  0  0  0  0  0  0  0  0  0
   57.2593   26.4909   42.2089 H   0  0  0  0  0  0  0  0  0  0  0  0
   55.7235   29.7018   44.8213 H   0  0  0  0  0  0  0  0  0  0  0  0
   56.6012   30.4796   43.4607 H   0  0  0  0  0  0  0  0  0  0  0  0
   56.3376   28.7027   43.4607 H   0  0  0  0  0  0  0  0  0  0  0  0
  1  2  1  0
  2  3  1  0
  3  4  1  0
  4  5  1  0
  5  6  1  0
  6  7  1  0
  7  8  1  0
  5  9  2  0
  9 10  1  0
 10 11  1  0
 11 12  1  0
 12 13  1  0
 13 14  1  0
 12 15  2  0
 15 16  1  0
 15 17  1  0
 17 18  1  0
 18 19  2  0
 18  4  1  0
 17 10  2  0
  1 20  1  0
  1 21  1  0
  1 22  1  0
  2 23  1  0
  2 24  1  0
  3 25  1  0
  3 26  1  0
  7 27  1  0
  7 28  1  0
  8 29  1  0
  8 30  1  0
  8 31  1  0
 13 32  1  0
 13 33  1  0
 14 34  1  0
 14 35  1  0
 14 36  1  0
 16 37  1  0
 16 38  1  0
 16 39  1  0
M  END
>  <UniqueID>  (15) 
15

>  <SMILES>  (15) 
CCCn1c(SCC)nc2sc(CC)c(C)c2c1=O

>  <Energy>  (15) 
63.04589241680372

>  <Genealogy>  (15) 
CCCn1c(SCC)nc2sc(CC)c(C)c2c1=O (3D coordinates assigned)
CCCn1c(SCC)nc2sc(CC)c(C)c2c1=O (optimized conformer: 63.04589241680372 kcal/mol)

>  <smiles>  (15) 
CCCn1c(SCC)nc2sc(CC)c(C)c2c1=O

>  <score_type>  (15) 
oracle

>  <origin>  (15) 
adg

>  <m_score__min__energy>  (15) 
-6.7599999999999998

>  <m_primary>  (15) 
energy

$$$$
15:0
     RDKit          3D

 87 90  0  0  0  0  0  0  0  0999 V2000
   57.1600   19.4010   46.7510 C   0  0  0  0  0  0  0  0  0  0  0  0
   56.8240   20.5870   45.8380 C   0  0  0  0  0  0  0  0  0  0  0  0
   57.7670   20.7180   44.7130 N   0  0  0  0  0  0  0  0  0  0  0  0
   57.8370   22.1030   44.2120 C   0  0  0  0  0  0  0  0  0  0  0  0
   58.5150   23.0480   45.2200 C   0  0  0  0  0  0  0  0  0  0  0  0
   58.0520   24.5110   45.1040 C   0  0  0  0  0  0  0  0  0  0  0  0
   58.1980   25.2500   46.3700 N   0  0  0  0  0  0  0  0  0  0  0  0
   59.5940   25.6600   46.6040 C   0  0  0  0  0  0  0  0  0  0  0  0
   59.8020   27.1450   46.2830 C   0  0  0  0  0  0  0  0  0  0  0  0
   58.5430   27.8870   46.3640 N   0  0  0  0  0  0  0  0  0  0  0  0
   58.5030   29.3060   46.1180 C   0  0  0  0  0  0  0  0  0  0  0  0
   57.9260   29.8040   44.9350 C   0  0  0  0  0  0  0  0  0  0  0  0
   57.2270   28.9500   44.0550 C   0  0  0  0  0  0  0  0  0  0  0  0
   56.6330   29.4520   42.8980 C   0  0  0  0  0  0  0  0  0  0  0  0
   56.7140   30.8090   42.6070 C   0  0  0  0  0  0  0  0  0  0  0  0
   57.3870   31.6710   43.4680 C   0  0  0  0  0  0  0  0  0  0  0  0
   58.0240   31.1900   44.6400 C   0  0  0  0  0  0  0  0  0  0  0  0
   58.7110   32.0320   45.4930 N   0  0  0  0  0  0  0  0  0  0  0  0
   59.0910   33.3860   45.0390 C   0  0  0  0  0  0  0  0  0  0  0  0
   59.0740   31.5920   46.7520 C   0  0  0  0  0  0  0  0  0  0  0  0
   59.5080   32.4920   47.7580 C   0  0  0  0  0  0  0  0  0  0  0  0
   59.9460   32.0370   49.0050 C   0  0  0  0  0  0  0  0  0  0  0  0
   60.3570   32.9810   49.9590 O   0  0  0  0  0  0  0  0  0  0  0  0
   60.9990   32.6560   51.1870 C   0  0  0  0  0  0  0  0  0  0  0  0
   62.4800   32.2550   50.9870 C   0  0  0  0  0  0  0  0  0  0  0  0
   63.4600   33.3270   50.5900 N   0  0  0  0  0  0  0  0  0  0  0  0
   62.7400   34.4910   50.0100 C   0  0  0  0  0  0  0  0  0  0  0  0
   64.4560   32.8400   49.5810 C   0  0  0  0  0  0  0  0  0  0  0  0
   65.6210   32.0780   50.2380 C   0  0  0  0  0  0  0  0  0  0  0  0
   66.4330   32.9630   51.1400 N   0  0  0  0  0  0  0  0  0  0  0  0
   67.6160   33.4670   50.4020 C   0  0  0  0  0  0  0  0  0  0  0  0
   66.9240   32.1640   52.2910 C   0  0  0  0  0  0  0  0  0  0  0  0
   65.6430   34.1370   51.6380 C   0  0  0  0  0  0  0  0  0  0  0  0
   64.1540   33.7890   51.8490 C   0  0  0  0  0  0  0  0  0  0  0  0
   59.9500   30.6600   49.2680 C   0  0  0  0  0  0  0  0  0  0  0  0
   59.4790   29.7600   48.3170 C   0  0  0  0  0  0  0  0  0  0  0  0
   59.0150   30.2090   47.0650 C   0  0  0  0  0  0  0  0  0  0  0  0
   57.0721   19.7114   47.8026 H   0  0  0  0  0  0  0  0  0  0  0  0
   56.4603   18.5757   46.5525 H   0  0  0  0  0  0  0  0  0  0  0  0
   58.1886   19.0654   46.5525 H   0  0  0  0  0  0  0  0  0  0  0  0
   55.8106   20.4454   45.4342 H   0  0  0  0  0  0  0  0  0  0  0  0
   56.8943   21.5039   46.4416 H   0  0  0  0  0  0  0  0  0  0  0  0
   58.7190   20.4370   45.0520 H   0  0  0  0  0  0  0  0  0  0  0  0
   57.4830   20.0610   43.9470 H   0  0  0  0  0  0  0  0  0  0  0  0
   58.4119   22.1127   43.2742 H   0  0  0  0  0  0  0  0  0  0  0  0
   56.8084   22.4586   44.0523 H   0  0  0  0  0  0  0  0  0  0  0  0
   58.2894   22.6918   46.2360 H   0  0  0  0  0  0  0  0  0  0  0  0
   59.5927   23.0333   44.9999 H   0  0  0  0  0  0  0  0  0  0  0  0
   58.6543   25.0116   44.3316 H   0  0  0  0  0  0  0  0  0  0  0  0
   56.9837   24.5041   44.8418 H   0  0  0  0  0  0  0  0  0  0  0  0
   57.6160   26.1170   46.2760 H   0  0  0  0  0  0  0  0  0  0  0  0
   59.8468   25.4832   47.6599 H   0  0  0  0  0  0  0  0  0  0  0  0
   60.2442   25.0684   45.9428 H   0  0  0  0  0  0  0  0  0  0  0  0
   60.5161   27.5709   47.0032 H   0  0  0  0  0  0  0  0  0  0  0  0
   60.1890   27.2279   45.2567 H   0  0  0  0  0  0  0  0  0  0  0  0
   57.7160   27.4170   46.7960 H   0  0  0  0  0  0  0  0  0  0  0  0
   57.1501   27.8770   44.2846 H   0  0  0  0  0  0  0  0  0  0  0  0
   56.1000   28.7741   42.2151 H   0  0  0  0  0  0  0  0  0  0  0  0
   56.2447   31.2027   41.6934 H   0  0  0  0  0  0  0  0  0  0  0  0
   57.4254   32.7453   43.2349 H   0  0  0  0  0  0  0  0  0  0  0  0
   59.2714   34.0287   45.9133 H   0  0  0  0  0  0  0  0  0  0  0  0
   60.0070   33.3259   44.4329 H   0  0  0  0  0  0  0  0  0  0  0  0
   58.2775   33.8113   44.4329 H   0  0  0  0  0  0  0  0  0  0  0  0
   59.4998   33.5726   47.5525 H   0  0  0  0  0  0  0  0  0  0  0  0
   60.9562   33.5318   51.8512 H   0  0  0  0  0  0  0  0  0  0  0  0
   60.4731   31.7944   51.6241 H   0  0  0  0  0  0  0  0  0  0  0  0
   62.8328   31.8260   51.9365 H   0  0  0  0  0  0  0  0  0  0  0  0
   62.4630   31.5693   50.1271 H   0  0  0  0  0  0  0  0  0  0  0  0
   62.3495   35.1223   50.8218 H   0  0  0  0  0  0  0  0  0  0  0  0
   63.4327   35.0785   49.3895 H   0  0  0  0  0  0  0  0  0  0  0  0
   61.9050   34.1336   49.3895 H   0  0  0  0  0  0  0  0  0  0  0  0
   63.9460   32.1680   48.8750 H   0  0  0  0  0  0  0  0  0  0  0  0
   64.8732   33.7179   49.0661 H   0  0  0  0  0  0  0  0  0  0  0  0
   65.2124   31.2461   50.8304 H   0  0  0  0  0  0  0  0  0  0  0  0
   66.2808   31.7099   49.4385 H   0  0  0  0  0  0  0  0  0  0  0  0
   68.3835   33.7940   51.1190 H   0  0  0  0  0  0  0  0  0  0  0  0
   68.0231   32.6642   49.7697 H   0  0  0  0  0  0  0  0  0  0  0  0
   67.3191   34.3168   49.7697 H   0  0  0  0  0  0  0  0  0  0  0  0
   66.6243   32.6517   53.2303 H   0  0  0  0  0  0  0  0  0  0  0  0
   66.4905   31.1539   52.2477 H   0  0  0  0  0  0  0  0  0  0  0  0
   68.0209   32.0944   52.2477 H   0  0  0  0  0  0  0  0  0  0  0  0
   66.0685   34.4698   52.5962 H   0  0  0  0  0  0  0  0  0  0  0  0
   65.7006   34.9303   50.8781 H   0  0  0  0  0  0  0  0  0  0  0  0
   64.0866   32.9866   52.5984 H   0  0  0  0  0  0  0  0  0  0  0  0
   63.6496   34.7096   52.1777 H   0  0  0  0  0  0  0  0  0  0  0  0
   60.3278   30.2887   50.2321 H   0  0  0  0  0  0  0  0  0  0  0  0
   59.4689   28.6841   48.5458 H   0  0  0  0  0  0  0  0  0  0  0  0
  1  2  1  0
  2  3  1  0
  3  4  1  0
  4  5  1  0
  5  6  1  0
  6  7  1  0
  7  8  1  0
  8  9  1  0
  9 10  1  0
 10 11  1  0
 11 12  2  0
 12 13  1  0
 13 14  2  0
 14 15  1  0
 15 16  2  0
 16 17  1  0
 17 18  2  0
 18 19  1  0
 18 20  1  0
 20 21  2  0
 21 22  1  0
 22 23  1  0
 23 24  1  0
 24 25  1  0
 25 26  1  0
 26 27  1  0
 26 28  1  0
 28 29  1  0
 29 30  1  0
 30 31  1  0
 30 32  1  0
 30 33  1  0
 33 34  1  0
 22 35  2  0
 35 36  1  0
 36 37  2  0
 37 11  1  0
 17 12  1  0
 37 20  1  0
 34 26  1  0
  1 38  1  0
  1 39  1  0
  1 40  1  0
  2 41  1  0
  2 42  1  0
  3 43  1  0
  3 44  1  0
  4 45  1  0
  4 46  1  0
  5 47  1  0
  5 48  1  0
  6 49  1  0
  6 50  1  0
  7 51  1  0
  8 52  1  0
  8 53  1  0
  9 54  1  0
  9 55  1  0
 10 56  1  0
 13 57  1  0
 14 58  1  0
 15 59  1  0
 16 60  1  0
 19 61  1  0
 19 62  1  0
 19 63  1  0
 21 64  1  0
 24 65  1  0
 24 66  1  0
 25 67  1  0
 25 68  1  0
 27 69  1  0
 27 70  1  0
 27 71  1  0
 28 72  1  0
 28 73  1  0
 29 74  1  0
 29 75  1  0
 31 76  1  0
 31 77  1  0
 31 78  1  0
 32 79  1  0
 32 80  1  0
 32 81  1  0
 33 82  1  0
 33 83  1  0
 34 84  1  0
 34 85  1  0
 35 86  1  0
 36 87  1  0
M  CHG  4   3   1  18   1  26   1  30   1
M  END
>  <UniqueID>  (16) 
16

>  <SMILES>  (16) 
CC[NH2+]CCCNCCNc1c2ccccc2[n+](C)c2cc(OCC[N+]3(C)CC[N+](C)(C)CC3)ccc12

>  <Energy>  (16) 
135.52316969525634

>  <Genealogy>  (16) 
CC[NH2+]CCCNCCNc1c2ccccc2[n+](C)c2cc(OCC[N+]3(C)CC[N+](C)(C)CC3)ccc12 (protonated)
CC[NH2+]CCCNCCNc1c2ccccc2[n+](C)c2cc(OCC[N+]3(C)CC[N+](C)(C)CC3)ccc12 (3D coordinates assigned)
CC[NH2+]CCCNCCNc1c2ccccc2[n+](C)c2cc(OCC[N+]3(C)CC[N+](C)(C)CC3)ccc12 (nonaromatic ring conformer: 135.52316969525634 kcal/mol)

>  <smiles>  (16) 
CCNCCCNCCNc1c2ccccc2[n+](C)c2cc(OCC[N+]3(C)CC[N+](C)(C)CC3)ccc12

>  <score_type>  (16) 
oracle

>  <origin>  (16) 
adg

>  <m_score__min__energy>  (16) 
-3.25

>  <m_primary>  (16) 
energy

$$$$
16:0
     RDKit          3D

 87 89  0  0  0  0  0  0  0  0999 V2000
   59.9970   34.5890   49.0360 C   0  0  0  0  0  0  0  0  0  0  0  0
   61.3700   33.9890   48.7360 C   0  0  0  0  0  0  0  0  0  0  0  0
   61.3430   33.1140   47.5430 N   0  0  0  0  0  0  0  0  0  0  0  0
   62.5950   32.3470   47.3330 C   0  0  0  0  0  0  0  0  0  0  0  0
   63.7620   33.1830   46.7900 C   0  0  0  0  0  0  0  0  0  0  0  0
   60.9210   33.8520   46.3280 C   0  0  0  0  0  0  0  0  0  0  0  0
   59.5550   33.3570   45.8520 C   0  0  0  0  0  0  0  0  0  0  0  0
   58.7770   32.9960   46.9750 O   0  0  0  0  0  0  0  0  0  0  0  0
   57.4080   33.1980   46.6920 C   0  0  0  0  0  0  0  0  0  0  0  0
   57.1740   33.0230   45.1900 C   0  0  0  0  0  0  0  0  0  0  0  0
   56.7320   31.7070   44.9110 O   0  0  0  0  0  0  0  0  0  0  0  0
   57.5030   31.1090   43.8860 C   0  0  0  0  0  0  0  0  0  0  0  0
   57.8030   29.6650   44.2720 C   0  0  0  0  0  0  0  0  0  0  0  0
   58.1230   29.6120   45.6460 O   0  0  0  0  0  0  0  0  0  0  0  0
   59.4070   29.0460   45.8100 C   0  0  0  0  0  0  0  0  0  0  0  0
   60.3960   30.1180   46.2930 C   0  0  0  0  0  0  0  0  0  0  0  0
   60.8730   29.8910   47.6070 O   0  0  0  0  0  0  0  0  0  0  0  0
   60.0580   28.9650   48.3010 C   0  0  0  0  0  0  0  0  0  0  0  0
   58.8820   29.6940   48.9580 C   0  0  0  0  0  0  0  0  0  0  0  0
   59.1090   31.0930   48.9450 O   0  0  0  0  0  0  0  0  0  0  0  0
   58.9790   31.6810   50.2270 C   0  0  0  0  0  0  0  0  0  0  0  0
   60.3240   31.8130   50.9520 C   0  0  0  0  0  0  0  0  0  0  0  0
   61.4310   31.3330   50.1210 N   0  0  0  0  0  0  0  0  0  0  0  0
   62.5890   30.6880   50.6760 C   0  0  0  0  0  0  0  0  0  0  0  0
   63.8440   31.3180   50.6340 C   0  0  0  0  0  0  0  0  0  0  0  0
   63.9910   32.6020   50.0680 C   0  0  0  0  0  0  0  0  0  0  0  0
   65.2340   33.2300   50.0460 C   0  0  0  0  0  0  0  0  0  0  0  0
   66.3490   32.5920   50.5810 C   0  0  0  0  0  0  0  0  0  0  0  0
   66.2200   31.3350   51.1720 C   0  0  0  0  0  0  0  0  0  0  0  0
   64.9620   30.6830   51.2360 C   0  0  0  0  0  0  0  0  0  0  0  0
   64.8100   29.4750   51.8880 N   0  0  0  0  0  0  0  0  0  0  0  0
   65.8080   29.0950   52.9120 C   0  0  0  0  0  0  0  0  0  0  0  0
   63.6350   28.7590   51.7540 C   0  0  0  0  0  0  0  0  0  0  0  0
   63.5200   27.3700   52.0810 C   0  0  0  0  0  0  0  0  0  0  0  0
   64.6980   26.4260   52.1270 C   0  0  0  0  0  0  0  0  0  0  0  0
   62.2470   26.7980   52.2340 C   0  0  0  0  0  0  0  0  0  0  0  0
   61.1010   27.5310   51.9590 C   0  0  0  0  0  0  0  0  0  0  0  0
   61.2100   28.8230   51.4580 C   0  0  0  0  0  0  0  0  0  0  0  0
   62.4690   29.4260   51.2880 C   0  0  0  0  0  0  0  0  0  0  0  0
   59.8541   34.6514   50.1249 H   0  0  0  0  0  0  0  0  0  0  0  0
   59.9339   35.5967   48.5995 H   0  0  0  0  0  0  0  0  0  0  0  0
   59.2146   33.9507   48.5995 H   0  0  0  0  0  0  0  0  0  0  0  0
   62.0845   34.8068   48.5607 H   0  0  0  0  0  0  0  0  0  0  0  0
   61.6700   33.3774   49.5997 H   0  0  0  0  0  0  0  0  0  0  0  0
   62.9001   31.9142   48.2971 H   0  0  0  0  0  0  0  0  0  0  0  0
   62.3736   31.5828   46.5734 H   0  0  0  0  0  0  0  0  0  0  0  0
   64.3391   33.5964   47.6303 H   0  0  0  0  0  0  0  0  0  0  0  0
   64.4147   32.5458   46.1753 H   0  0  0  0  0  0  0  0  0  0  0  0
   63.3686   34.0060   46.1753 H   0  0  0  0  0  0  0  0  0  0  0  0
   60.8571   34.9254   46.5597 H   0  0  0  0  0  0  0  0  0  0  0  0
   61.6602   33.6809   45.5315 H   0  0  0  0  0  0  0  0  0  0  0  0
   59.0471   34.1574   45.2940 H   0  0  0  0  0  0  0  0  0  0  0  0
   59.6853   32.4841   45.1954 H   0  0  0  0  0  0  0  0  0  0  0  0
   56.8054   32.4635   47.2464 H   0  0  0  0  0  0  0  0  0  0  0  0
   57.1134   34.2132   46.9963 H   0  0  0  0  0  0  0  0  0  0  0  0
   56.4103   33.7407   44.8558 H   0  0  0  0  0  0  0  0  0  0  0  0
   58.1195   33.2031   44.6574 H   0  0  0  0  0  0  0  0  0  0  0  0
   56.9402   31.1293   42.9411 H   0  0  0  0  0  0  0  0  0  0  0  0
   58.4443   31.6632   43.7563 H   0  0  0  0  0  0  0  0  0  0  0  0
   56.9197   29.0397   44.0750 H   0  0  0  0  0  0  0  0  0  0  0  0
   58.6506   29.2909   43.6790 H   0  0  0  0  0  0  0  0  0  0  0  0
   59.3560   28.2363   46.5528 H   0  0  0  0  0  0  0  0  0  0  0  0
   59.7512   28.6458   44.8449 H   0  0  0  0  0  0  0  0  0  0  0  0
   61.2561   30.1333   45.6075 H   0  0  0  0  0  0  0  0  0  0  0  0
   59.8565   31.0766   46.3041 H   0  0  0  0  0  0  0  0  0  0  0  0
   59.6731   28.2161   47.5932 H   0  0  0  0  0  0  0  0  0  0  0  0
   60.6564   28.4688   49.0793 H   0  0  0  0  0  0  0  0  0  0  0  0
   57.9590   29.4698   48.4033 H   0  0  0  0  0  0  0  0  0  0  0  0
   58.7838   29.3544   49.9996 H   0  0  0  0  0  0  0  0  0  0  0  0
   58.5402   32.6832   50.1125 H   0  0  0  0  0  0  0  0  0  0  0  0
   58.3363   31.0246   50.8320 H   0  0  0  0  0  0  0  0  0  0  0  0
   60.4949   32.8713   51.1986 H   0  0  0  0  0  0  0  0  0  0  0  0
   60.2861   31.1997   51.8644 H   0  0  0  0  0  0  0  0  0  0  0  0
   61.3530   31.4010   49.0810 H   0  0  0  0  0  0  0  0  0  0  0  0
   63.1154   33.1120   49.6399 H   0  0  0  0  0  0  0  0  0  0  0  0
   65.3345   34.2326   49.6047 H   0  0  0  0  0  0  0  0  0  0  0  0
   67.3340   33.0798   50.5378 H   0  0  0  0  0  0  0  0  0  0  0  0
   67.1076   30.8418   51.5949 H   0  0  0  0  0  0  0  0  0  0  0  0
   65.3845   29.2562   53.9143 H   0  0  0  0  0  0  0  0  0  0  0  0
   66.0711   28.0338   52.7915 H   0  0  0  0  0  0  0  0  0  0  0  0
   66.7103   29.7125   52.7915 H   0  0  0  0  0  0  0  0  0  0  0  0
   64.9593   26.2166   53.1748 H   0  0  0  0  0  0  0  0  0  0  0  0
   64.4347   25.4861   51.6199 H   0  0  0  0  0  0  0  0  0  0  0  0
   65.5580   26.8878   51.6199 H   0  0  0  0  0  0  0  0  0  0  0  0
   62.1568   25.7564   52.5759 H   0  0  0  0  0  0  0  0  0  0  0  0
   60.1089   27.0906   52.1371 H   0  0  0  0  0  0  0  0  0  0  0  0
   60.3002   29.3807   51.1912 H   0  0  0  0  0  0  0  0  0  0  0  0
  1  2  1  0
  2  3  1  0
  3  4  1  0
  4  5  1  0
  3  6  1  0
  6  7  1  0
  7  8  1  0
  8  9  1  0
  9 10  1  0
 10 11  1  0
 11 12  1  0
 12 13  1  0
 13 14  1  0
 14 15  1  0
 15 16  1  0
 16 17  1  0
 17 18  1  0
 18 19  1  0
 19 20  1  0
 20 21  1  0
 21 22  1  0
 22 23  1  0
 23 24  1  0
 24 25  2  0
 25 26  1  0
 26 27  2  0
 27 28  1  0
 28 29  2  0
 29 30  1  0
 30 31  2  0
 31 32  1  0
 31 33  1  0
 33 34  2  0
 34 35  1  0
 34 36  1  0
 36 37  2  0
 37 38  1  0
 38 39  2  0
 39 24  1  0
 30 25  1  0
 39 33  1  0
  1 40  1  0
  1 41  1  0
  1 42  1  0
  2 43  1  0
  2 44  1  0
  4 45  1  0
  4 46  1  0
  5 47  1  0
  5 48  1  0
  5 49  1  0
  6 50  1  0
  6 51  1  0
  7 52  1  0
  7 53  1  0
  9 54  1  0
  9 55  1  0
 10 56  1  0
 10 57  1  0
 12 58  1  0
 12 59  1  0
 13 60  1  0
 13 61  1  0
 15 62  1  0
 15 63  1  0
 16 64  1  0
 16 65  1  0
 18 66  1  0
 18 67  1  0
 19 68  1  0
 19 69  1  0
 21 70  1  0
 21 71  1  0
 22 72  1  0
 22 73  1  0
 23 74  1  0
 26 75  1  0
 27 76  1  0
 28 77  1  0
 29 78  1  0
 32 79  1  0
 32 80  1  0
 32 81  1  0
 35 82  1  0
 35 83  1  0
 35 84  1  0
 36 85  1  0
 37 86  1  0
 38 87  1  0
M  CHG  1  31   1
M  END
>  <UniqueID>  (17) 
17

>  <SMILES>  (17) 
CCN(CC)CCOCCOCCOCCOCCOCCNc1c2ccccc2[n+](C)c2c(C)cccc12

>  <Energy>  (17) 
117.00337292138738

>  <Genealogy>  (17) 
CCN(CC)CCOCCOCCOCCOCCOCCNc1c2ccccc2[n+](C)c2c(C)cccc12 (3D coordinates assigned)
CCN(CC)CCOCCOCCOCCOCCOCCNc1c2ccccc2[n+](C)c2c(C)cccc12 (optimized conformer: 117.00337292138738 kcal/mol)

>  <smiles>  (17) 
CCN(CC)CCOCCOCCOCCOCCOCCNc1c2ccccc2[n+](C)c2c(C)cccc12

>  <score_type>  (17) 
oracle

>  <origin>  (17) 
adg

>  <m_score__min__energy>  (17) 
-5.71

>  <m_primary>  (17) 
energy

$$$$
17:0
     RDKit          3D

 69 69  0  0  0  0  0  0  0  0999 V2000
   50.6800   24.3800   44.2960 C   0  0  0  0  0  0  0  0  0  0  0  0
   50.9780   23.1650   45.1720 C   0  0  0  0  0  0  0  0  0  0  0  0
   52.4340   22.9160   45.2420 N   0  0  0  0  0  0  0  0  0  0  0  0
   53.2210   24.1020   44.8600 C   0  0  0  0  0  0  0  0  0  0  0  0
   52.8560   22.3590   46.5480 C   0  0  0  0  0  0  0  0  0  0  0  0
   53.9220   21.2540   46.4480 C   0  0  0  0  0  0  0  0  0  0  0  0
   54.9950   21.7320   45.6620 O   0  0  0  0  0  0  0  0  0  0  0  0
   56.0460   20.7840   45.6200 C   0  0  0  0  0  0  0  0  0  0  0  0
   56.6110   20.6830   44.2040 C   0  0  0  0  0  0  0  0  0  0  0  0
   55.9220   21.5860   43.3670 O   0  0  0  0  0  0  0  0  0  0  0  0
   56.7920   22.6300   42.9840 C   0  0  0  0  0  0  0  0  0  0  0  0
   56.2620   23.9520   43.5230 C   0  0  0  0  0  0  0  0  0  0  0  0
   57.1590   24.4530   44.4940 O   0  0  0  0  0  0  0  0  0  0  0  0
   56.5160   24.5840   45.7480 C   0  0  0  0  0  0  0  0  0  0  0  0
   57.4190   25.3330   46.7360 C   0  0  0  0  0  0  0  0  0  0  0  0
   57.9590   26.6330   46.1100 C   0  0  0  0  0  0  0  0  0  0  0  0
   57.0040   27.2540   45.1740 N   0  0  0  0  0  0  0  0  0  0  0  0
   57.6500   28.1250   44.1820 C   0  0  0  0  0  0  0  0  0  0  0  0
   57.1710   29.5430   44.3110 C   0  0  0  0  0  0  0  0  0  0  0  0
   56.1590   29.7970   45.0190 O   0  0  0  0  0  0  0  0  0  0  0  0
   57.8380   30.5940   43.5970 N   0  0  0  0  0  0  0  0  0  0  0  0
   57.4280   31.9930   43.6990 C   0  0  0  0  0  0  0  0  0  0  0  0
   58.0200   32.6240   44.9310 C   0  0  0  0  0  0  0  0  0  0  0  0
   58.1830   31.8750   46.1090 C   0  0  0  0  0  0  0  0  0  0  0  0
   58.7230   32.4710   47.2520 C   0  0  0  0  0  0  0  0  0  0  0  0
   59.1070   33.8160   47.2290 C   0  0  0  0  0  0  0  0  0  0  0  0
   59.8020   34.5790   48.6970 S   0  0  0  0  0  0  0  0  0  0  0  0
   61.4490   33.8440   48.4460 C   0  0  0  0  0  0  0  0  0  0  0  0
   58.9400   34.5690   46.0600 C   0  0  0  0  0  0  0  0  0  0  0  0
   58.3990   33.9750   44.9160 C   0  0  0  0  0  0  0  0  0  0  0  0
   50.4668   25.2494   44.9352 H   0  0  0  0  0  0  0  0  0  0  0  0
   51.5516   24.5968   43.6609 H   0  0  0  0  0  0  0  0  0  0  0  0
   49.8070   24.1689   43.6609 H   0  0  0  0  0  0  0  0  0  0  0  0
   50.5937   23.3481   46.1863 H   0  0  0  0  0  0  0  0  0  0  0  0
   50.4890   22.2833   44.7322 H   0  0  0  0  0  0  0  0  0  0  0  0
   53.5654   24.6211   45.7666 H   0  0  0  0  0  0  0  0  0  0  0  0
   54.0909   23.7885   44.2641 H   0  0  0  0  0  0  0  0  0  0  0  0
   52.5941   24.7817   44.2641 H   0  0  0  0  0  0  0  0  0  0  0  0
   53.2651   23.1789   47.1566 H   0  0  0  0  0  0  0  0  0  0  0  0
   51.9643   21.8980   46.9978 H   0  0  0  0  0  0  0  0  0  0  0  0
   54.2852   20.9974   47.4541 H   0  0  0  0  0  0  0  0  0  0  0  0
   53.4888   20.3549   45.9854 H   0  0  0  0  0  0  0  0  0  0  0  0
   56.8450   21.0969   46.3083 H   0  0  0  0  0  0  0  0  0  0  0  0
   55.6542   19.8010   45.9205 H   0  0  0  0  0  0  0  0  0  0  0  0
   57.6817   20.9351   44.2157 H   0  0  0  0  0  0  0  0  0  0  0  0
   56.4847   19.6575   43.8267 H   0  0  0  0  0  0  0  0  0  0  0  0
   57.7949   22.4416   43.3948 H   0  0  0  0  0  0  0  0  0  0  0  0
   56.8497   22.6768   41.8865 H   0  0  0  0  0  0  0  0  0  0  0  0
   56.1709   24.6749   42.6989 H   0  0  0  0  0  0  0  0  0  0  0  0
   55.2739   23.7944   43.9801 H   0  0  0  0  0  0  0  0  0  0  0  0
   55.5782   25.1441   45.6178 H   0  0  0  0  0  0  0  0  0  0  0  0
   56.3048   23.5810   46.1473 H   0  0  0  0  0  0  0  0  0  0  0  0
   56.8391   25.5810   47.6372 H   0  0  0  0  0  0  0  0  0  0  0  0
   58.2709   24.6864   46.9933 H   0  0  0  0  0  0  0  0  0  0  0  0
   58.1763   27.3482   46.9170 H   0  0  0  0  0  0  0  0  0  0  0  0
   58.8636   26.3759   45.5394 H   0  0  0  0  0  0  0  0  0  0  0  0
   56.4700   26.5060   44.6690 H   0  0  0  0  0  0  0  0  0  0  0  0
   58.7388   28.0986   44.3361 H   0  0  0  0  0  0  0  0  0  0  0  0
   57.3918   27.7600   43.1770 H   0  0  0  0  0  0  0  0  0  0  0  0
   58.6690   30.3630   43.0060 H   0  0  0  0  0  0  0  0  0  0  0  0
   57.7758   32.5386   42.8094 H   0  0  0  0  0  0  0  0  0  0  0  0
   56.3310   32.0398   43.7657 H   0  0  0  0  0  0  0  0  0  0  0  0
   57.8846   30.8165   46.1314 H   0  0  0  0  0  0  0  0  0  0  0  0
   58.8464   31.8810   48.1721 H   0  0  0  0  0  0  0  0  0  0  0  0
   61.9112   33.6377   49.4227 H   0  0  0  0  0  0  0  0  0  0  0  0
   61.3494   32.9049   47.8819 H   0  0  0  0  0  0  0  0  0  0  0  0
   62.0814   34.5453   47.8819 H   0  0  0  0  0  0  0  0  0  0  0  0
   59.2348   35.6286   46.0420 H   0  0  0  0  0  0  0  0  0  0  0  0
   58.2698   34.5696   43.9996 H   0  0  0  0  0  0  0  0  0  0  0  0
  1  2  1  0
  2  3  1  0
  3  4  1  0
  3  5  1  0
  5  6  1  0
  6  7  1  0
  7  8  1  0
  8  9  1  0
  9 10  1  0
 10 11  1  0
 11 12  1  0
 12 13  1  0
 13 14  1  0
 14 15  1  0
 15 16  1  0
 16 17  1  0
 17 18  1  0
 18 19  1  0
 19 20  2  0
 19 21  1  0
 21 22  1  0
 22 23  1  0
 23 24  2  0
 24 25  1  0
 25 26  2  0
 26 27  1  0
 27 28  1  0
 26 29  1  0
 29 30  2  0
 30 23  1  0
  1 31  1  0
  1 32  1  0
  1 33  1  0
  2 34  1  0
  2 35  1  0
  4 36  1  0
  4 37  1  0
  4 38  1  0
  5 39  1  0
  5 40  1  0
  6 41  1  0
  6 42  1  0
  8 43  1  0
  8 44  1  0
  9 45  1  0
  9 46  1  0
 11 47  1  0
 11 48  1  0
 12 49  1  0
 12 50  1  0
 14 51  1  0
 14 52  1  0
 15 53  1  0
 15 54  1  0
 16 55  1  0
 16 56  1  0
 17 57  1  0
 18 58  1  0
 18 59  1  0
 21 60  1  0
 22 61  1  0
 22 62  1  0
 24 63  1  0
 25 64  1  0
 28 65  1  0
 28 66  1  0
 28 67  1  0
 29 68  1  0
 30 69  1  0
M  END
>  <UniqueID>  (18) 
18

>  <SMILES>  (18) 
CCN(C)CCOCCOCCOCCCNCC(=O)NCc1ccc(SC)cc1

>  <Energy>  (18) 
55.86124655562841

>  <Genealogy>  (18) 
CCN(C)CCOCCOCCOCCCNCC(=O)NCc1ccc(SC)cc1 (3D coordinates assigned)
CCN(C)CCOCCOCCOCCCNCC(=O)NCc1ccc(SC)cc1 (optimized conformer: 55.86124655562841 kcal/mol)

>  <smiles>  (18) 
CCN(C)CCOCCOCCOCCCNCC(=O)NCc1ccc(SC)cc1

>  <score_type>  (18) 
oracle

>  <origin>  (18) 
adg

>  <m_score__min__energy>  (18) 
-6.8099999999999996

>  <m_primary>  (18) 
energy

$$$$
18:0
     RDKit          3D

 66 68  0  0  0  0  0  0  0  0999 V2000
   63.9220   31.6100   50.1050 C   0  0  0  0  0  0  0  0  0  0  0  0
   62.4230   31.9020   50.2750 C   0  0  0  0  0  0  0  0  0  0  0  0
   61.8710   32.9120   49.3340 N   0  0  0  0  0  0  0  0  0  0  0  0
   62.8970   33.6410   48.5530 C   0  0  0  0  0  0  0  0  0  0  0  0
   63.1080   33.0290   47.1670 C   0  0  0  0  0  0  0  0  0  0  0  0
   60.9230   33.8510   49.9810 C   0  0  0  0  0  0  0  0  0  0  0  0
   59.9530   33.1300   50.9310 C   0  0  0  0  0  0  0  0  0  0  0  0
   58.9660   32.4270   50.1930 O   0  0  0  0  0  0  0  0  0  0  0  0
   57.8790   32.0230   51.0070 C   0  0  0  0  0  0  0  0  0  0  0  0
   57.9080   30.5180   51.2810 C   0  0  0  0  0  0  0  0  0  0  0  0
   58.5240   29.8590   50.2000 O   0  0  0  0  0  0  0  0  0  0  0  0
   59.8410   29.7270   50.5170 N   0  0  0  0  0  0  0  0  0  0  0  0
   60.4670   28.9890   49.4230 C   0  0  0  0  0  0  0  0  0  0  0  0
   60.6700   29.9040   48.2070 C   0  0  0  0  0  0  0  0  0  0  0  0
   59.7400   31.0500   48.2090 N   0  0  0  0  0  0  0  0  0  0  0  0
   59.1730   31.2950   46.8870 C   0  0  0  0  0  0  0  0  0  0  0  0
   58.5020   30.2640   46.1640 C   0  0  0  0  0  0  0  0  0  0  0  0
   58.3530   28.9480   46.6770 C   0  0  0  0  0  0  0  0  0  0  0  0
   57.6390   27.9770   45.9820 C   0  0  0  0  0  0  0  0  0  0  0  0
   57.0440   28.2830   44.7700 C   0  0  0  0  0  0  0  0  0  0  0  0
   57.1970   29.5510   44.2220 C   0  0  0  0  0  0  0  0  0  0  0  0
   57.9650   30.5490   44.8740 C   0  0  0  0  0  0  0  0  0  0  0  0
   58.1930   31.7710   44.2770 N   0  0  0  0  0  0  0  0  0  0  0  0
   57.9450   31.9420   42.8270 C   0  0  0  0  0  0  0  0  0  0  0  0
   58.6980   32.8210   45.0140 C   0  0  0  0  0  0  0  0  0  0  0  0
   58.6750   34.1480   44.5100 C   0  0  0  0  0  0  0  0  0  0  0  0
   59.2550   35.1980   45.2140 C   0  0  0  0  0  0  0  0  0  0  0  0
   59.8650   34.9600   46.4360 C   0  0  0  0  0  0  0  0  0  0  0  0
   59.8610   33.6800   46.9820 C   0  0  0  0  0  0  0  0  0  0  0  0
   59.2490   32.5930   46.3060 C   0  0  0  0  0  0  0  0  0  0  0  0
   64.3923   31.5184   51.0952 H   0  0  0  0  0  0  0  0  0  0  0  0
   64.0517   30.6697   49.5491 H   0  0  0  0  0  0  0  0  0  0  0  0
   64.3951   32.4329   49.5491 H   0  0  0  0  0  0  0  0  0  0  0  0
   61.8728   30.9610   50.1275 H   0  0  0  0  0  0  0  0  0  0  0  0
   62.3034   32.3230   51.2842 H   0  0  0  0  0  0  0  0  0  0  0  0
   62.5757   34.6863   48.4340 H   0  0  0  0  0  0  0  0  0  0  0  0
   63.8489   33.5758   49.1004 H   0  0  0  0  0  0  0  0  0  0  0  0
   63.4649   31.9940   47.2737 H   0  0  0  0  0  0  0  0  0  0  0  0
   62.1563   33.0337   46.6153 H   0  0  0  0  0  0  0  0  0  0  0  0
   63.8545   33.6192   46.6153 H   0  0  0  0  0  0  0  0  0  0  0  0
   61.4959   34.5937   50.5556 H   0  0  0  0  0  0  0  0  0  0  0  0
   60.3283   34.3309   49.1898 H   0  0  0  0  0  0  0  0  0  0  0  0
   60.5165   32.4179   51.5518 H   0  0  0  0  0  0  0  0  0  0  0  0
   59.4566   33.8774   51.5674 H   0  0  0  0  0  0  0  0  0  0  0  0
   57.9313   32.5611   51.9650 H   0  0  0  0  0  0  0  0  0  0  0  0
   56.9454   32.2574   50.4746 H   0  0  0  0  0  0  0  0  0  0  0  0
   58.4768   30.3233   52.2022 H   0  0  0  0  0  0  0  0  0  0  0  0
   56.8798   30.1459   51.4013 H   0  0  0  0  0  0  0  0  0  0  0  0
   59.8910   29.1220   51.3720 H   0  0  0  0  0  0  0  0  0  0  0  0
   61.4432   28.6066   49.7558 H   0  0  0  0  0  0  0  0  0  0  0  0
   59.8117   28.1536   49.1354 H   0  0  0  0  0  0  0  0  0  0  0  0
   61.7017   30.2853   48.2191 H   0  0  0  0  0  0  0  0  0  0  0  0
   60.4724   29.3109   47.3019 H   0  0  0  0  0  0  0  0  0  0  0  0
   60.2440   31.9010   48.5420 H   0  0  0  0  0  0  0  0  0  0  0  0
   59.0240   30.9290   48.9540 H   0  0  0  0  0  0  0  0  0  0  0  0
   58.8114   28.6913   47.6434 H   0  0  0  0  0  0  0  0  0  0  0  0
   57.5469   26.9625   46.3970 H   0  0  0  0  0  0  0  0  0  0  0  0
   56.4504   27.5229   44.2410 H   0  0  0  0  0  0  0  0  0  0  0  0
   56.7124   29.7853   43.2627 H   0  0  0  0  0  0  0  0  0  0  0  0
   57.0476   32.5607   42.6790 H   0  0  0  0  0  0  0  0  0  0  0  0
   58.8114   32.4356   42.3625 H   0  0  0  0  0  0  0  0  0  0  0  0
   57.7917   30.9567   42.3625 H   0  0  0  0  0  0  0  0  0  0  0  0
   58.1891   34.3497   43.5440 H   0  0  0  0  0  0  0  0  0  0  0  0
   59.2297   36.2173   44.8012 H   0  0  0  0  0  0  0  0  0  0  0  0
   60.3534   35.7850   46.9753 H   0  0  0  0  0  0  0  0  0  0  0  0
   60.3415   33.5076   47.9564 H   0  0  0  0  0  0  0  0  0  0  0  0
  1  2  1  0
  2  3  1  0
  3  4  1  0
  4  5  1  0
  3  6  1  0
  6  7  1  0
  7  8  1  0
  8  9  1  0
  9 10  1  0
 10 11  1  0
 11 12  1  0
 12 13  1  0
 13 14  1  0
 14 15  1  0
 15 16  1  0
 16 17  2  0
 17 18  1  0
 18 19  2  0
 19 20  1  0
 20 21  2  0
 21 22  1  0
 22 23  2  0
 23 24  1  0
 23 25  1  0
 25 26  2  0
 26 27  1  0
 27 28  2  0
 28 29  1  0
 29 30  2  0
 30 16  1  0
 22 17  1  0
 30 25  1  0
  1 31  1  0
  1 32  1  0
  1 33  1  0
  2 34  1  0
  2 35  1  0
  4 36  1  0
  4 37  1  0
  5 38  1  0
  5 39  1  0
  5 40  1  0
  6 41  1  0
  6 42  1  0
  7 43  1  0
  7 44  1  0
  9 45  1  0
  9 46  1  0
 10 47  1  0
 10 48  1  0
 12 49  1  0
 13 50  1  0
 13 51  1  0
 14 52  1  0
 14 53  1  0
 15 54  1  0
 15 55  1  0
 18 56  1  0
 19 57  1  0
 20 58  1  0
 21 59  1  0
 24 60  1  0
 24 61  1  0
 24 62  1  0
 26 63  1  0
 27 64  1  0
 28 65  1  0
 29 66  1  0
M  CHG  2  15   1  23   1
M  END
>  <UniqueID>  (19) 
19

>  <SMILES>  (19) 
CCN(CC)CCOCCONCC[NH2+]c1c2ccccc2[n+](C)c2ccccc12

>  <Energy>  (19) 
92.00556757159261

>  <Genealogy>  (19) 
CCN(CC)CCOCCONCC[NH2+]c1c2ccccc2[n+](C)c2ccccc12 (protonated)
CCN(CC)CCOCCONCC[NH2+]c1c2ccccc2[n+](C)c2ccccc12 (3D coordinates assigned)
CCN(CC)CCOCCONCC[NH2+]c1c2ccccc2[n+](C)c2ccccc12 (optimized conformer: 92.00556757159261 kcal/mol)

>  <smiles>  (19) 
CCN(CC)CCOCCONCCNc1c2ccccc2[n+](C)c2ccccc12

>  <score_type>  (19) 
oracle

>  <origin>  (19) 
adg

>  <m_score__min__energy>  (19) 
-4.04

>  <m_primary>  (19) 
energy

$$$$
19:0
     RDKit          3D

 57 59  0  0  0  0  0  0  0  0999 V2000
   56.0680   29.8060   43.6410 C   0  0  0  0  0  0  0  0  0  0  0  0
   57.1080   30.8260   44.1140 C   0  0  0  0  0  0  0  0  0  0  0  0
   57.3110   30.7750   45.5730 N   0  0  0  0  0  0  0  0  0  0  0  0
   58.6770   30.3720   45.9360 C   0  0  0  0  0  0  0  0  0  0  0  0
   58.7040   29.8510   47.3790 C   0  0  0  0  0  0  0  0  0  0  0  0
   60.0270   30.1620   48.0910 C   0  0  0  0  0  0  0  0  0  0  0  0
   59.7840   30.5170   49.5090 N   0  0  0  0  0  0  0  0  0  0  0  0
   59.9400   29.3810   50.4450 C   0  0  0  0  0  0  0  0  0  0  0  0
   60.7130   28.2430   49.7850 C   0  0  0  0  0  0  0  0  0  0  0  0
   58.5240   31.2680   49.7160 C   0  0  0  0  0  0  0  0  0  0  0  0
   58.5990   32.3340   50.8390 C   0  0  0  0  0  0  0  0  0  0  0  0
   59.4250   33.4840   50.4540 N   0  0  0  0  0  0  0  0  0  0  0  0
   60.3160   33.4550   49.3260 C   0  0  0  0  0  0  0  0  0  0  0  0
   59.8820   33.6930   48.0040 C   0  0  0  0  0  0  0  0  0  0  0  0
   58.5090   33.7770   47.6970 C   0  0  0  0  0  0  0  0  0  0  0  0
   58.0850   33.9920   46.3870 C   0  0  0  0  0  0  0  0  0  0  0  0
   59.0140   34.0950   45.3580 C   0  0  0  0  0  0  0  0  0  0  0  0
   60.3770   33.9760   45.6260 C   0  0  0  0  0  0  0  0  0  0  0  0
   60.8490   33.7780   46.9480 C   0  0  0  0  0  0  0  0  0  0  0  0
   62.2020   33.6290   47.2230 N   0  0  0  0  0  0  0  0  0  0  0  0
   63.2210   33.8560   46.1780 C   0  0  0  0  0  0  0  0  0  0  0  0
   62.5810   33.2340   48.4860 C   0  0  0  0  0  0  0  0  0  0  0  0
   63.8800   32.8630   48.8960 C   0  0  0  0  0  0  0  0  0  0  0  0
   63.9530   32.5170   50.2410 C   0  0  0  0  0  0  0  0  0  0  0  0
   62.4230   32.6600   50.9260 S   0  0  0  0  0  0  0  0  0  0  0  0
   61.6590   33.1570   49.5150 C   0  0  0  0  0  0  0  0  0  0  0  0
   55.5904   29.3375   44.5142 H   0  0  0  0  0  0  0  0  0  0  0  0
   55.3045   30.3152   43.0346 H   0  0  0  0  0  0  0  0  0  0  0  0
   56.5622   29.0327   43.0346 H   0  0  0  0  0  0  0  0  0  0  0  0
   58.0652   30.6140   43.6151 H   0  0  0  0  0  0  0  0  0  0  0  0
   56.7384   31.8300   43.8583 H   0  0  0  0  0  0  0  0  0  0  0  0
   56.6270   30.1070   46.0000 H   0  0  0  0  0  0  0  0  0  0  0  0
   59.0154   29.5770   45.2552 H   0  0  0  0  0  0  0  0  0  0  0  0
   59.3444   31.2425   45.8537 H   0  0  0  0  0  0  0  0  0  0  0  0
   57.8827   30.3215   47.9394 H   0  0  0  0  0  0  0  0  0  0  0  0
   58.5935   28.7572   47.3417 H   0  0  0  0  0  0  0  0  0  0  0  0
   60.6786   29.2769   48.0463 H   0  0  0  0  0  0  0  0  0  0  0  0
   60.5086   31.0142   47.5891 H   0  0  0  0  0  0  0  0  0  0  0  0
   60.4873   29.7201   51.3369 H   0  0  0  0  0  0  0  0  0  0  0  0
   58.9419   29.0146   50.7272 H   0  0  0  0  0  0  0  0  0  0  0  0
   61.1508   27.5985   50.5615 H   0  0  0  0  0  0  0  0  0  0  0  0
   60.0298   27.6504   49.1589 H   0  0  0  0  0  0  0  0  0  0  0  0
   61.5157   28.6597   49.1589 H   0  0  0  0  0  0  0  0  0  0  0  0
   58.2659   31.7755   48.7748 H   0  0  0  0  0  0  0  0  0  0  0  0
   57.7650   30.5344   50.0256 H   0  0  0  0  0  0  0  0  0  0  0  0
   57.5812   32.6870   51.0616 H   0  0  0  0  0  0  0  0  0  0  0  0
   59.0606   31.8654   51.7207 H   0  0  0  0  0  0  0  0  0  0  0  0
   59.2220   34.4060   50.8990 H   0  0  0  0  0  0  0  0  0  0  0  0
   57.7643   33.6718   48.4998 H   0  0  0  0  0  0  0  0  0  0  0  0
   57.0110   34.0806   46.1664 H   0  0  0  0  0  0  0  0  0  0  0  0
   58.6721   34.2712   44.3274 H   0  0  0  0  0  0  0  0  0  0  0  0
   61.0983   34.0368   44.7977 H   0  0  0  0  0  0  0  0  0  0  0  0
   64.1901   34.0719   46.6516 H   0  0  0  0  0  0  0  0  0  0  0  0
   63.3112   32.9559   45.5521 H   0  0  0  0  0  0  0  0  0  0  0  0
   62.9206   34.7092   45.5521 H   0  0  0  0  0  0  0  0  0  0  0  0
   64.7473   32.8490   48.2195 H   0  0  0  0  0  0  0  0  0  0  0  0
   64.8636   32.2010   50.7711 H   0  0  0  0  0  0  0  0  0  0  0  0
  1  2  1  0
  2  3  1  0
  3  4  1  0
  4  5  1  0
  5  6  1  0
  6  7  1  0
  7  8  1  0
  8  9  1  0
  7 10  1  0
 10 11  1  0
 11 12  1  0
 12 13  1  0
 13 14  2  0
 14 15  1  0
 15 16  2  0
 16 17  1  0
 17 18  2  0
 18 19  1  0
 19 20  2  0
 20 21  1  0
 20 22  1  0
 22 23  1  0
 23 24  2  0
 24 25  1  0
 25 26  1  0
 26 13  1  0
 19 14  1  0
 26 22  2  0
  1 27  1  0
  1 28  1  0
  1 29  1  0
  2 30  1  0
  2 31  1  0
  3 32  1  0
  4 33  1  0
  4 34  1  0
  5 35  1  0
  5 36  1  0
  6 37  1  0
  6 38  1  0
  8 39  1  0
  8 40  1  0
  9 41  1  0
  9 42  1  0
  9 43  1  0
 10 44  1  0
 10 45  1  0
 11 46  1  0
 11 47  1  0
 12 48  1  0
 15 49  1  0
 16 50  1  0
 17 51  1  0
 18 52  1  0
 21 53  1  0
 21 54  1  0
 21 55  1  0
 23 56  1  0
 24 57  1  0
M  CHG  1  20   1
M  END
>  <UniqueID>  (20) 
20

>  <SMILES>  (20) 
CCNCCCN(CC)CCNc1c2ccccc2[n+](C)c2ccsc12

>  <Energy>  (20) 
104.74314103955106

>  <Genealogy>  (20) 
CCNCCCN(CC)CCNc1c2ccccc2[n+](C)c2ccsc12 (3D coordinates assigned)
CCNCCCN(CC)CCNc1c2ccccc2[n+](C)c2ccsc12 (optimized conformer: 104.74314103955106 kcal/mol)

>  <smiles>  (20) 
CCNCCCN(CC)CCNc1c2ccccc2[n+](C)c2ccsc12

>  <score_type>  (20) 
oracle

>  <origin>  (20) 
adg

>  <m_score__min__energy>  (20) 
-6.3899999999999997

>  <m_primary>  (20) 
energy

$$$$
20:0
     RDKit          3D

 79 82  0  0  0  0  0  0  0  0999 V2000
   57.3840   31.5670   43.2740 C   0  0  0  0  0  0  0  0  0  0  0  0
   56.3230   30.5370   43.6970 C   0  0  0  0  0  0  0  0  0  0  0  0
   56.3030   29.3900   42.6740 C   0  0  0  0  0  0  0  0  0  0  0  0
   56.6340   30.0250   45.0460 N   0  0  0  0  0  0  0  0  0  0  0  0
   57.0300   28.6060   45.0270 C   0  0  0  0  0  0  0  0  0  0  0  0
   58.4870   28.4390   45.5010 C   0  0  0  0  0  0  0  0  0  0  0  0
   59.2890   29.6700   45.3470 N   0  0  0  0  0  0  0  0  0  0  0  0
   59.4820   30.3660   46.6170 C   0  0  0  0  0  0  0  0  0  0  0  0
   59.2480   31.7660   46.7520 C   0  0  0  0  0  0  0  0  0  0  0  0
   59.1810   32.6390   45.6360 C   0  0  0  0  0  0  0  0  0  0  0  0
   58.9790   34.0070   45.8040 C   0  0  0  0  0  0  0  0  0  0  0  0
   58.8680   34.5470   47.0760 C   0  0  0  0  0  0  0  0  0  0  0  0
   58.9330   33.7200   48.1920 C   0  0  0  0  0  0  0  0  0  0  0  0
   59.0990   32.3170   48.0580 C   0  0  0  0  0  0  0  0  0  0  0  0
   59.1250   31.4970   49.1650 N   0  0  0  0  0  0  0  0  0  0  0  0
   58.6040   31.9840   50.4630 C   0  0  0  0  0  0  0  0  0  0  0  0
   59.6340   30.2210   49.0620 C   0  0  0  0  0  0  0  0  0  0  0  0
   59.9800   29.4700   50.2140 C   0  0  0  0  0  0  0  0  0  0  0  0
   60.4980   28.1790   50.1160 C   0  0  0  0  0  0  0  0  0  0  0  0
   60.8280   27.5000   51.2980 O   0  0  0  0  0  0  0  0  0  0  0  0
   62.1330   27.0370   51.6290 C   0  0  0  0  0  0  0  0  0  0  0  0
   62.4640   27.3750   53.1010 C   0  0  0  0  0  0  0  0  0  0  0  0
   63.7780   28.0580   53.3630 N   0  0  0  0  0  0  0  0  0  0  0  0
   63.5590   29.2750   54.1910 C   0  0  0  0  0  0  0  0  0  0  0  0
   64.3340   28.4900   52.0300 C   0  0  0  0  0  0  0  0  0  0  0  0
   65.8710   28.4020   51.9570 C   0  0  0  0  0  0  0  0  0  0  0  0
   66.3670   27.0030   52.1670 N   0  0  0  0  0  0  0  0  0  0  0  0
   66.4110   26.2890   50.8660 C   0  0  0  0  0  0  0  0  0  0  0  0
   67.7530   27.0650   52.6970 C   0  0  0  0  0  0  0  0  0  0  0  0
   65.5000   26.2370   53.1210 C   0  0  0  0  0  0  0  0  0  0  0  0
   64.7420   27.1650   54.0840 C   0  0  0  0  0  0  0  0  0  0  0  0
   60.6820   27.6080   48.8550 C   0  0  0  0  0  0  0  0  0  0  0  0
   60.3530   28.3220   47.7060 C   0  0  0  0  0  0  0  0  0  0  0  0
   59.8270   29.6330   47.7840 C   0  0  0  0  0  0  0  0  0  0  0  0
   57.8416   32.0112   44.1703 H   0  0  0  0  0  0  0  0  0  0  0  0
   58.1602   31.0688   42.6746 H   0  0  0  0  0  0  0  0  0  0  0  0
   56.9090   32.3576   42.6746 H   0  0  0  0  0  0  0  0  0  0  0  0
   55.3306   31.0105   43.7268 H   0  0  0  0  0  0  0  0  0  0  0  0
   56.2862   28.4262   43.2040 H   0  0  0  0  0  0  0  0  0  0  0  0
   55.4062   29.4771   42.0429 H   0  0  0  0  0  0  0  0  0  0  0  0
   57.2023   29.4458   42.0429 H   0  0  0  0  0  0  0  0  0  0  0  0
   55.7690   30.0890   45.6360 H   0  0  0  0  0  0  0  0  0  0  0  0
   56.3660   28.0371   45.6944 H   0  0  0  0  0  0  0  0  0  0  0  0
   56.9489   28.2307   43.9962 H   0  0  0  0  0  0  0  0  0  0  0  0
   58.4795   28.1563   46.5640 H   0  0  0  0  0  0  0  0  0  0  0  0
   58.9504   27.6638   44.8730 H   0  0  0  0  0  0  0  0  0  0  0  0
   58.8260   30.2440   44.6170 H   0  0  0  0  0  0  0  0  0  0  0  0
   60.2160   29.4360   44.9280 H   0  0  0  0  0  0  0  0  0  0  0  0
   59.2904   32.2290   44.6212 H   0  0  0  0  0  0  0  0  0  0  0  0
   58.9072   34.6619   44.9231 H   0  0  0  0  0  0  0  0  0  0  0  0
   58.7284   35.6307   47.2026 H   0  0  0  0  0  0  0  0  0  0  0  0
   58.8543   34.1612   49.1966 H   0  0  0  0  0  0  0  0  0  0  0  0
   59.1390   31.4839   51.2838 H   0  0  0  0  0  0  0  0  0  0  0  0
   58.7563   33.0710   50.5347 H   0  0  0  0  0  0  0  0  0  0  0  0
   57.5297   31.7588   50.5347 H   0  0  0  0  0  0  0  0  0  0  0  0
   59.8363   29.9166   51.2090 H   0  0  0  0  0  0  0  0  0  0  0  0
   62.1782   25.9470   51.4878 H   0  0  0  0  0  0  0  0  0  0  0  0
   62.8654   27.5320   50.9744 H   0  0  0  0  0  0  0  0  0  0  0  0
   61.6667   28.0322   53.4785 H   0  0  0  0  0  0  0  0  0  0  0  0
   62.5401   26.4021   53.6087 H   0  0  0  0  0  0  0  0  0  0  0  0
   63.6072   29.0069   55.2568 H   0  0  0  0  0  0  0  0  0  0  0  0
   64.3379   30.0179   53.9641 H   0  0  0  0  0  0  0  0  0  0  0  0
   62.5700   29.6997   53.9641 H   0  0  0  0  0  0  0  0  0  0  0  0
   63.9091   27.8438   51.2478 H   0  0  0  0  0  0  0  0  0  0  0  0
   64.0595   29.5456   51.8874 H   0  0  0  0  0  0  0  0  0  0  0  0
   66.1994   28.7497   50.9664 H   0  0  0  0  0  0  0  0  0  0  0  0
   66.2845   29.0316   52.7586 H   0  0  0  0  0  0  0  0  0  0  0  0
   66.4778   25.2056   51.0444 H   0  0  0  0  0  0  0  0  0  0  0  0
   65.4975   26.5109   50.2949 H   0  0  0  0  0  0  0  0  0  0  0  0
   67.2904   26.6214   50.2949 H   0  0  0  0  0  0  0  0  0  0  0  0
   67.7255   27.0638   53.7967 H   0  0  0  0  0  0  0  0  0  0  0  0
   68.3202   26.1913   52.3434 H   0  0  0  0  0  0  0  0  0  0  0  0
   68.2399   27.9858   52.3434 H   0  0  0  0  0  0  0  0  0  0  0  0
   64.7694   25.6508   52.5443 H   0  0  0  0  0  0  0  0  0  0  0  0
   66.1505   25.5837   53.7210 H   0  0  0  0  0  0  0  0  0  0  0  0
   64.1842   26.5492   54.8049 H   0  0  0  0  0  0  0  0  0  0  0  0
   65.4803   27.8028   54.5920 H   0  0  0  0  0  0  0  0  0  0  0  0
   61.0887   26.5896   48.7691 H   0  0  0  0  0  0  0  0  0  0  0  0
   60.5047   27.8586   46.7200 H   0  0  0  0  0  0  0  0  0  0  0  0
  1  2  1  0
  2  3  1  0
  2  4  1  0
  4  5  1  0
  5  6  1  0
  6  7  1  0
  7  8  1  0
  8  9  2  0
  9 10  1  0
 10 11  2  0
 11 12  1  0
 12 13  2  0
 13 14  1  0
 14 15  2  0
 15 16  1  0
 15 17  1  0
 17 18  2  0
 18 19  1  0
 19 20  1  0
 20 21  1  0
 21 22  1  0
 22 23  1  0
 23 24  1  0
 23 25  1  0
 25 26  1  0
 26 27  1  0
 27 28  1  0
 27 29  1  0
 27 30  1  0
 30 31  1  0
 19 32  2  0
 32 33  1  0
 33 34  2  0
 34  8  1  0
 14  9  1  0
 34 17  1  0
 31 23  1  0
  1 35  1  0
  1 36  1  0
  1 37  1  0
  2 38  1  0
  3 39  1  0
  3 40  1  0
  3 41  1  0
  4 42  1  0
  5 43  1  0
  5 44  1  0
  6 45  1  0
  6 46  1  0
  7 47  1  0
  7 48  1  0
 10 49  1  0
 11 50  1  0
 12 51  1  0
 13 52  1  0
 16 53  1  0
 16 54  1  0
 16 55  1  0
 18 56  1  0
 21 57  1  0
 21 58  1  0
 22 59  1  0
 22 60  1  0
 24 61  1  0
 24 62  1  0
 24 63  1  0
 25 64  1  0
 25 65  1  0
 26 66  1  0
 26 67  1  0
 28 68  1  0
 28 69  1  0
 28 70  1  0
 29 71  1  0
 29 72  1  0
 29 73  1  0
 30 74  1  0
 30 75  1  0
 31 76  1  0
 31 77  1  0
 32 78  1  0
 33 79  1  0
M  CHG  4   7   1  15   1  23   1  27   1
M  END
>  <UniqueID>  (21) 
21

>  <SMILES>  (21) 
CC(C)NCC[NH2+]c1c2ccccc2[n+](C)c2cc(OCC[N+]3(C)CC[N+](C)(C)CC3)ccc12

>  <Energy>  (21) 
133.2065992099988

>  <Genealogy>  (21) 
CC(C)NCC[NH2+]c1c2ccccc2[n+](C)c2cc(OCC[N+]3(C)CC[N+](C)(C)CC3)ccc12 (protonated)
CC(C)NCC[NH2+]c1c2ccccc2[n+](C)c2cc(OCC[N+]3(C)CC[N+](C)(C)CC3)ccc12 (3D coordinates assigned)
CC(C)NCC[NH2+]c1c2ccccc2[n+](C)c2cc(OCC[N+]3(C)CC[N+](C)(C)CC3)ccc12 (nonaromatic ring conformer: 133.2065992099988 kcal/mol)

>  <smiles>  (21) 
CC(C)NCCNc1c2ccccc2[n+](C)c2cc(OCC[N+]3(C)CC[N+](C)(C)CC3)ccc12

>  <score_type>  (21) 
oracle

>  <origin>  (21) 
adg

>  <m_score__min__energy>  (21) 
-2.7999999999999998

>  <m_primary>  (21) 
energy

$$$$
21:0
     RDKit          3D

 43 45  0  0  0  0  0  0  0  0999 V2000
   62.6440   33.7700   47.8260 C   0  0  0  0  0  0  0  0  0  0  0  0
   61.3870   32.9970   47.7050 N   0  0  0  0  0  0  0  0  0  0  0  0
   60.3780   33.4460   46.8730 C   0  0  0  0  0  0  0  0  0  0  0  0
   60.3760   34.7610   46.3400 C   0  0  0  0  0  0  0  0  0  0  0  0
   59.3880   35.1750   45.4460 C   0  0  0  0  0  0  0  0  0  0  0  0
   58.3770   34.3000   45.0680 C   0  0  0  0  0  0  0  0  0  0  0  0
   58.3250   33.0190   45.6090 C   0  0  0  0  0  0  0  0  0  0  0  0
   59.2950   32.5890   46.5380 C   0  0  0  0  0  0  0  0  0  0  0  0
   59.2060   31.3200   47.1340 C   0  0  0  0  0  0  0  0  0  0  0  0
   58.1100   30.4470   46.8180 N   0  0  0  0  0  0  0  0  0  0  0  0
   58.3620   29.1500   46.1910 C   0  0  0  0  0  0  0  0  0  0  0  0
   57.2330   28.7640   45.2190 C   0  0  0  0  0  0  0  0  0  0  0  0
   56.2020   29.8080   45.0850 N   0  0  0  0  0  0  0  0  0  0  0  0
   55.5110   29.7420   43.7890 C   0  0  0  0  0  0  0  0  0  0  0  0
   56.5170   29.8300   42.6420 C   0  0  0  0  0  0  0  0  0  0  0  0
   57.3960   31.5600   42.6000 Br  0  0  0  0  0  0  0  0  0  0  0  0
   60.1610   30.9340   48.0890 C   0  0  0  0  0  0  0  0  0  0  0  0
   60.0510   29.6980   48.7600 C   0  0  0  0  0  0  0  0  0  0  0  0
   60.9620   29.3410   49.7500 C   0  0  0  0  0  0  0  0  0  0  0  0
   61.9870   30.2140   50.0990 C   0  0  0  0  0  0  0  0  0  0  0  0
   62.1230   31.4350   49.4420 C   0  0  0  0  0  0  0  0  0  0  0  0
   61.2370   31.8100   48.3980 C   0  0  0  0  0  0  0  0  0  0  0  0
   62.8831   33.9170   48.8896 H   0  0  0  0  0  0  0  0  0  0  0  0
   63.4619   33.2186   47.3392 H   0  0  0  0  0  0  0  0  0  0  0  0
   62.5209   34.7487   47.3392 H   0  0  0  0  0  0  0  0  0  0  0  0
   61.1667   35.4659   46.6366 H   0  0  0  0  0  0  0  0  0  0  0  0
   59.4095   36.1968   45.0393 H   0  0  0  0  0  0  0  0  0  0  0  0
   57.6169   34.6203   44.3403 H   0  0  0  0  0  0  0  0  0  0  0  0
   57.5183   32.3341   45.3087 H   0  0  0  0  0  0  0  0  0  0  0  0
   57.1540   30.8670   46.7580 H   0  0  0  0  0  0  0  0  0  0  0  0
   59.3102   29.1998   45.6357 H   0  0  0  0  0  0  0  0  0  0  0  0
   58.4111   28.3879   46.9827 H   0  0  0  0  0  0  0  0  0  0  0  0
   57.6729   28.5775   44.2282 H   0  0  0  0  0  0  0  0  0  0  0  0
   56.7413   27.8687   45.6272 H   0  0  0  0  0  0  0  0  0  0  0  0
   55.5060   29.7200   45.8600 H   0  0  0  0  0  0  0  0  0  0  0  0
   54.9637   28.7905   43.7185 H   0  0  0  0  0  0  0  0  0  0  0  0
   54.8115   30.5877   43.7149 H   0  0  0  0  0  0  0  0  0  0  0  0
   57.2772   29.0456   42.7720 H   0  0  0  0  0  0  0  0  0  0  0  0
   55.9740   29.6951   41.6949 H   0  0  0  0  0  0  0  0  0  0  0  0
   59.2355   29.0080   48.4977 H   0  0  0  0  0  0  0  0  0  0  0  0
   60.8713   28.3686   50.2563 H   0  0  0  0  0  0  0  0  0  0  0  0
   62.6929   29.9394   50.8967 H   0  0  0  0  0  0  0  0  0  0  0  0
   62.9310   32.1205   49.7373 H   0  0  0  0  0  0  0  0  0  0  0  0
  1  2  1  0
  2  3  2  0
  3  4  1  0
  4  5  2  0
  5  6  1  0
  6  7  2  0
  7  8  1  0
  8  9  2  0
  9 10  1  0
 10 11  1  0
 11 12  1  0
 12 13  1  0
 13 14  1  0
 14 15  1  0
 15 16  1  0
  9 17  1  0
 17 18  2  0
 18 19  1  0
 19 20  2  0
 20 21  1  0
 21 22  2  0
 22  2  1  0
  8  3  1  0
 22 17  1  0
  1 23  1  0
  1 24  1  0
  1 25  1  0
  4 26  1  0
  5 27  1  0
  6 28  1  0
  7 29  1  0
 10 30  1  0
 11 31  1  0
 11 32  1  0
 12 33  1  0
 12 34  1  0
 13 35  1  0
 14 36  1  0
 14 37  1  0
 15 38  1  0
 15 39  1  0
 18 40  1  0
 19 41  1  0
 20 42  1  0
 21 43  1  0
M  CHG  1   2   1
M  END
>  <UniqueID>  (22) 
22

>  <SMILES>  (22) 
C[n+]1c2ccccc2c(NCCNCCBr)c2ccccc21

>  <Energy>  (22) 
66.89953893499523

>  <Genealogy>  (22) 
C[n+]1c2ccccc2c(NCCNCCBr)c2ccccc21 (3D coordinates assigned)
C[n+]1c2ccccc2c(NCCNCCBr)c2ccccc21 (optimized conformer: 66.89953893499523 kcal/mol)

>  <smiles>  (22) 
C[n+]1c2ccccc2c(NCCNCCBr)c2ccccc21

>  <score_type>  (22) 
oracle

>  <origin>  (22) 
adg

>  <m_score__min__energy>  (22) 
-6.1900000000000004

>  <m_primary>  (22) 
energy

$$$$
22:0
     RDKit          3D

 51 53  0  0  0  0  0  0  0  0999 V2000
   59.2120   33.0050   49.5140 C   0  0  0  0  0  0  0  0  0  0  0  0
   60.2570   32.8690   48.4520 C   0  0  0  0  0  0  0  0  0  0  0  0
   61.3130   33.6920   48.3150 N   0  0  0  0  0  0  0  0  0  0  0  0
   62.0380   33.2760   47.2880 N   0  0  0  0  0  0  0  0  0  0  0  0
   63.3040   33.8710   46.8770 C   0  0  0  0  0  0  0  0  0  0  0  0
   61.4780   32.1690   46.7610 C   0  0  0  0  0  0  0  0  0  0  0  0
   60.3290   31.8860   47.4760 C   0  0  0  0  0  0  0  0  0  0  0  0
   59.3910   30.7360   47.2470 C   0  0  0  0  0  0  0  0  0  0  0  0
   60.1480   29.4780   47.0760 N   0  0  0  0  0  0  0  0  0  0  0  0
   60.7180   29.3330   45.7110 C   0  0  0  0  0  0  0  0  0  0  0  0
   60.1610   28.1290   44.9230 C   0  0  0  0  0  0  0  0  0  0  0  0
   58.6950   27.9900   45.0690 N   0  0  0  0  0  0  0  0  0  0  0  0
   57.9390   28.9290   44.2080 C   0  0  0  0  0  0  0  0  0  0  0  0
   56.7530   29.5250   44.9750 C   0  0  0  0  0  0  0  0  0  0  0  0
   56.4430   30.8320   44.4880 O   0  0  0  0  0  0  0  0  0  0  0  0
   57.1700   32.0020   44.7680 C   0  0  0  0  0  0  0  0  0  0  0  0
   58.0730   32.4640   43.8020 C   0  0  0  0  0  0  0  0  0  0  0  0
   58.8230   33.6220   44.0250 C   0  0  0  0  0  0  0  0  0  0  0  0
   58.6750   34.3340   45.2200 C   0  0  0  0  0  0  0  0  0  0  0  0
   59.4470   35.5270   45.4510 C   0  0  0  0  0  0  0  0  0  0  0  0
   60.0680   36.4860   45.6360 N   0  0  0  0  0  0  0  0  0  0  0  0
   57.7710   33.8850   46.1910 C   0  0  0  0  0  0  0  0  0  0  0  0
   57.0200   32.7260   45.9690 C   0  0  0  0  0  0  0  0  0  0  0  0
   58.2380   27.9870   46.4850 C   0  0  0  0  0  0  0  0  0  0  0  0
   59.3570   28.3040   47.4950 C   0  0  0  0  0  0  0  0  0  0  0  0
   59.6859   32.9433   50.5048 H   0  0  0  0  0  0  0  0  0  0  0  0
   58.7068   33.9765   49.4090 H   0  0  0  0  0  0  0  0  0  0  0  0
   58.4750   32.1952   49.4090 H   0  0  0  0  0  0  0  0  0  0  0  0
   61.5440   34.5160   48.9150 H   0  0  0  0  0  0  0  0  0  0  0  0
   63.8870   34.1450   47.7687 H   0  0  0  0  0  0  0  0  0  0  0  0
   63.8721   33.1456   46.2761 H   0  0  0  0  0  0  0  0  0  0  0  0
   63.1081   34.7713   46.2761 H   0  0  0  0  0  0  0  0  0  0  0  0
   61.8675   31.5911   45.9099 H   0  0  0  0  0  0  0  0  0  0  0  0
   58.7185   30.6393   48.1121 H   0  0  0  0  0  0  0  0  0  0  0  0
   58.8083   30.9280   46.3340 H   0  0  0  0  0  0  0  0  0  0  0  0
   60.4965   30.2495   45.1445 H   0  0  0  0  0  0  0  0  0  0  0  0
   61.7976   29.1613   45.8335 H   0  0  0  0  0  0  0  0  0  0  0  0
   60.3989   28.2633   43.8575 H   0  0  0  0  0  0  0  0  0  0  0  0
   60.6267   27.2183   45.3277 H   0  0  0  0  0  0  0  0  0  0  0  0
   58.6065   29.7416   43.8854 H   0  0  0  0  0  0  0  0  0  0  0  0
   57.5579   28.3813   43.3335 H   0  0  0  0  0  0  0  0  0  0  0  0
   55.8757   28.8740   44.8462 H   0  0  0  0  0  0  0  0  0  0  0  0
   57.0206   29.5981   46.0394 H   0  0  0  0  0  0  0  0  0  0  0  0
   58.1929   31.9103   42.8591 H   0  0  0  0  0  0  0  0  0  0  0  0
   59.5306   33.9740   43.2599 H   0  0  0  0  0  0  0  0  0  0  0  0
   57.6513   34.4450   47.1302 H   0  0  0  0  0  0  0  0  0  0  0  0
   56.3100   32.3781   46.7337 H   0  0  0  0  0  0  0  0  0  0  0  0
   57.4453   28.7415   46.5961 H   0  0  0  0  0  0  0  0  0  0  0  0
   57.8819   26.9701   46.7068 H   0  0  0  0  0  0  0  0  0  0  0  0
   58.9048   28.5096   48.4765 H   0  0  0  0  0  0  0  0  0  0  0  0
   60.0301   27.4356   47.5479 H   0  0  0  0  0  0  0  0  0  0  0  0
  1  2  1  0
  2  3  2  0
  3  4  1  0
  4  5  1  0
  4  6  1  0
  6  7  2  0
  7  8  1  0
  8  9  1  0
  9 10  1  0
 10 11  1  0
 11 12  1  0
 12 13  1  0
 13 14  1  0
 14 15  1  0
 15 16  1  0
 16 17  2  0
 17 18  1  0
 18 19  2  0
 19 20  1  0
 20 21  3  0
 19 22  1  0
 22 23  2  0
 12 24  1  0
 24 25  1  0
  7  2  1  0
 25  9  1  0
 23 16  1  0
  1 26  1  0
  1 27  1  0
  1 28  1  0
  3 29  1  0
  5 30  1  0
  5 31  1  0
  5 32  1  0
  6 33  1  0
  8 34  1  0
  8 35  1  0
 10 36  1  0
 10 37  1  0
 11 38  1  0
 11 39  1  0
 13 40  1  0
 13 41  1  0
 14 42  1  0
 14 43  1  0
 17 44  1  0
 18 45  1  0
 22 46  1  0
 23 47  1  0
 24 48  1  0
 24 49  1  0
 25 50  1  0
 25 51  1  0
M  CHG  1   3   1
M  END
>  <UniqueID>  (23) 
23

>  <SMILES>  (23) 
Cc1[nH+]n(C)cc1CN1CCN(CCOc2ccc(C#N)cc2)CC1

>  <Energy>  (23) 
94.07665892587605

>  <Genealogy>  (23) 
Cc1[nH+]n(C)cc1CN1CCN(CCOc2ccc(C#N)cc2)CC1 (protonated)
Cc1[nH+]n(C)cc1CN1CCN(CCOc2ccc(C#N)cc2)CC1 (3D coordinates assigned)
Cc1[nH+]n(C)cc1CN1CCN(CCOc2ccc(C#N)cc2)CC1 (nonaromatic ring conformer: 94.07665892587605 kcal/mol)

>  <smiles>  (23) 
Cc1nn(C)cc1CN1CCN(CCOc2ccc(C#N)cc2)CC1

>  <score_type>  (23) 
oracle

>  <origin>  (23) 
adg

>  <m_score__min__energy>  (23) 
-6.3700000000000001

>  <m_primary>  (23) 
energy

$$$$
23:0
     RDKit          3D

 63 65  0  0  0  0  0  0  0  0999 V2000
   58.8930   34.5530   46.3970 C   0  0  0  0  0  0  0  0  0  0  0  0
   57.8580   33.8320   45.5360 C   0  0  0  0  0  0  0  0  0  0  0  0
   58.4740   32.7040   44.7010 C   0  0  0  0  0  0  0  0  0  0  0  0
   57.9110   31.3820   45.0970 N   0  0  0  0  0  0  0  0  0  0  0  0
   56.5630   31.1930   44.5030 C   0  0  0  0  0  0  0  0  0  0  0  0
   56.2730   29.7270   44.1390 C   0  0  0  0  0  0  0  0  0  0  0  0
   56.2720   29.4990   42.6320 C   0  0  0  0  0  0  0  0  0  0  0  0
   58.8160   30.2730   44.7050 C   0  0  0  0  0  0  0  0  0  0  0  0
   59.0410   29.2640   45.8450 C   0  0  0  0  0  0  0  0  0  0  0  0
   59.6920   29.8670   47.1040 C   0  0  0  0  0  0  0  0  0  0  0  0
   59.4050   31.3090   47.2650 N   0  0  0  0  0  0  0  0  0  0  0  0
   60.1250   31.8660   48.4040 C   0  0  0  0  0  0  0  0  0  0  0  0
   61.3310   32.5930   48.2060 C   0  0  0  0  0  0  0  0  0  0  0  0
   61.7940   32.9270   46.9100 C   0  0  0  0  0  0  0  0  0  0  0  0
   63.0300   33.5390   46.7220 C   0  0  0  0  0  0  0  0  0  0  0  0
   63.8350   33.8290   47.8120 C   0  0  0  0  0  0  0  0  0  0  0  0
   63.3810   33.5680   49.1020 C   0  0  0  0  0  0  0  0  0  0  0  0
   62.0970   33.0070   49.3310 C   0  0  0  0  0  0  0  0  0  0  0  0
   61.5960   32.8590   50.6090 N   0  0  0  0  0  0  0  0  0  0  0  0
   62.2410   33.5680   51.7400 C   0  0  0  0  0  0  0  0  0  0  0  0
   60.4590   32.1080   50.8290 C   0  0  0  0  0  0  0  0  0  0  0  0
   60.0520   31.7610   52.1410 C   0  0  0  0  0  0  0  0  0  0  0  0
   58.8480   31.1070   52.3760 C   0  0  0  0  0  0  0  0  0  0  0  0
   58.0130   30.7620   51.3220 C   0  0  0  0  0  0  0  0  0  0  0  0
   56.7840   30.1570   51.6270 O   0  0  0  0  0  0  0  0  0  0  0  0
   55.8350   30.6680   52.5550 C   0  0  0  0  0  0  0  0  0  0  0  0
   58.4270   31.0250   50.0060 C   0  0  0  0  0  0  0  0  0  0  0  0
   59.6660   31.6580   49.7340 C   0  0  0  0  0  0  0  0  0  0  0  0
   58.6617   34.3919   47.4603 H   0  0  0  0  0  0  0  0  0  0  0  0
   59.8947   34.1563   46.1754 H   0  0  0  0  0  0  0  0  0  0  0  0
   58.8680   35.6302   46.1754 H   0  0  0  0  0  0  0  0  0  0  0  0
   57.0879   33.4037   46.1944 H   0  0  0  0  0  0  0  0  0  0  0  0
   57.4302   34.5685   44.8399 H   0  0  0  0  0  0  0  0  0  0  0  0
   58.2579   32.8837   43.6375 H   0  0  0  0  0  0  0  0  0  0  0  0
   59.5601   32.6903   44.8749 H   0  0  0  0  0  0  0  0  0  0  0  0
   55.8085   31.5309   45.2286 H   0  0  0  0  0  0  0  0  0  0  0  0
   56.5255   31.7791   43.5729 H   0  0  0  0  0  0  0  0  0  0  0  0
   57.0455   29.0893   44.5935 H   0  0  0  0  0  0  0  0  0  0  0  0
   55.2722   29.4753   44.5200 H   0  0  0  0  0  0  0  0  0  0  0  0
   56.2673   28.4187   42.4246 H   0  0  0  0  0  0  0  0  0  0  0  0
   55.3759   29.9608   42.1919 H   0  0  0  0  0  0  0  0  0  0  0  0
   57.1721   29.9529   42.1919 H   0  0  0  0  0  0  0  0  0  0  0  0
   58.3744   29.7438   43.8477 H   0  0  0  0  0  0  0  0  0  0  0  0
   59.7918   30.7124   44.4506 H   0  0  0  0  0  0  0  0  0  0  0  0
   58.0658   28.8422   46.1295 H   0  0  0  0  0  0  0  0  0  0  0  0
   59.7388   28.5050   45.4616 H   0  0  0  0  0  0  0  0  0  0  0  0
   59.3109   29.3325   47.9866 H   0  0  0  0  0  0  0  0  0  0  0  0
   60.7813   29.7567   46.9978 H   0  0  0  0  0  0  0  0  0  0  0  0
   58.3820   31.4960   47.3570 H   0  0  0  0  0  0  0  0  0  0  0  0
   59.6430   31.8210   46.3880 H   0  0  0  0  0  0  0  0  0  0  0  0
   61.1657   32.6987   46.0364 H   0  0  0  0  0  0  0  0  0  0  0  0
   63.3683   33.7928   45.7065 H   0  0  0  0  0  0  0  0  0  0  0  0
   64.8329   34.2655   47.6580 H   0  0  0  0  0  0  0  0  0  0  0  0
   64.0291   33.8008   49.9598 H   0  0  0  0  0  0  0  0  0  0  0  0
   61.8681   33.1581   52.6902 H   0  0  0  0  0  0  0  0  0  0  0  0
   63.3311   33.4316   51.6845 H   0  0  0  0  0  0  0  0  0  0  0  0
   62.0024   34.6404   51.6845 H   0  0  0  0  0  0  0  0  0  0  0  0
   60.7022   32.0143   52.9913 H   0  0  0  0  0  0  0  0  0  0  0  0
   58.5541   30.8605   53.4070 H   0  0  0  0  0  0  0  0  0  0  0  0
   56.1861   30.4789   53.5802 H   0  0  0  0  0  0  0  0  0  0  0  0
   55.7183   31.7509   52.4013 H   0  0  0  0  0  0  0  0  0  0  0  0
   54.8666   30.1693   52.4013 H   0  0  0  0  0  0  0  0  0  0  0  0
   57.7761   30.7336   49.1685 H   0  0  0  0  0  0  0  0  0  0  0  0
  1  2  1  0
  2  3  1  0
  3  4  1  0
  4  5  1  0
  5  6  1  0
  6  7  1  0
  4  8  1  0
  8  9  1  0
  9 10  1  0
 10 11  1  0
 11 12  1  0
 12 13  2  0
 13 14  1  0
 14 15  2  0
 15 16  1  0
 16 17  2  0
 17 18  1  0
 18 19  2  0
 19 20  1  0
 19 21  1  0
 21 22  2  0
 22 23  1  0
 23 24  2  0
 24 25  1  0
 25 26  1  0
 24 27  1  0
 27 28  2  0
 28 12  1  0
 18 13  1  0
 28 21  1  0
  1 29  1  0
  1 30  1  0
  1 31  1  0
  2 32  1  0
  2 33  1  0
  3 34  1  0
  3 35  1  0
  5 36  1  0
  5 37  1  0
  6 38  1  0
  6 39  1  0
  7 40  1  0
  7 41  1  0
  7 42  1  0
  8 43  1  0
  8 44  1  0
  9 45  1  0
  9 46  1  0
 10 47  1  0
 10 48  1  0
 11 49  1  0
 11 50  1  0
 14 51  1  0
 15 52  1  0
 16 53  1  0
 17 54  1  0
 20 55  1  0
 20 56  1  0
 20 57  1  0
 22 58  1  0
 23 59  1  0
 26 60  1  0
 26 61  1  0
 26 62  1  0
 27 63  1  0
M  CHG  2  11   1  19   1
M  END
>  <UniqueID>  (24) 
24

>  <SMILES>  (24) 
CCCN(CCC)CCC[NH2+]c1c2ccccc2[n+](C)c2ccc(OC)cc12

>  <Energy>  (24) 
85.33954555722273

>  <Genealogy>  (24) 
CCCN(CCC)CCC[NH2+]c1c2ccccc2[n+](C)c2ccc(OC)cc12 (protonated)
CCCN(CCC)CCC[NH2+]c1c2ccccc2[n+](C)c2ccc(OC)cc12 (3D coordinates assigned)
CCCN(CCC)CCC[NH2+]c1c2ccccc2[n+](C)c2ccc(OC)cc12 (optimized conformer: 85.33954555722273 kcal/mol)

>  <smiles>  (24) 
CCCN(CCC)CCCNc1c2ccccc2[n+](C)c2ccc(OC)cc12

>  <score_type>  (24) 
oracle

>  <origin>  (24) 
adg

>  <m_score__min__energy>  (24) 
-4.1799999999999997

>  <m_primary>  (24) 
energy

$$$$
24:0
     RDKit          3D

 36 37  0  0  0  0  0  0  0  0999 V2000
   57.4090   32.3520   41.0180 C   0  0  0  0  0  0  0  0  0  0  0  0
   58.0580   32.4610   42.3990 C   0  0  0  0  0  0  0  0  0  0  0  0
   57.6280   31.3610   43.1930 N   0  0  0  0  0  0  0  0  0  0  0  0
   56.6300   30.5130   42.6300 C   0  0  0  0  0  0  0  0  0  0  0  0
   55.8240   29.7450   43.6880 C   0  0  0  0  0  0  0  0  0  0  0  0
   56.4590   29.9670   44.8850 O   0  0  0  0  0  0  0  0  0  0  0  0
   57.5160   29.1450   45.1740 C   0  0  0  0  0  0  0  0  0  0  0  0
   58.0580   29.2900   46.5810 C   0  0  0  0  0  0  0  0  0  0  0  0
   58.9170   30.4580   46.5860 N   0  0  0  0  0  0  0  0  0  0  0  0
   60.2500   30.4590   46.8780 C   0  0  0  0  0  0  0  0  0  0  0  0
   60.7300   31.7130   46.7860 N   0  0  0  0  0  0  0  0  0  0  0  0
   59.7300   32.5160   46.4410 C   0  0  0  0  0  0  0  0  0  0  0  0
   59.7010   33.8780   46.2220 C   0  0  0  0  0  0  0  0  0  0  0  0
   60.7800   34.5750   46.3490 N   0  0  0  0  0  0  0  0  0  0  0  0
   58.5100   34.4060   45.8790 N   0  0  0  0  0  0  0  0  0  0  0  0
   57.3940   33.6620   45.7520 C   0  0  0  0  0  0  0  0  0  0  0  0
   57.4000   32.3140   45.9640 N   0  0  0  0  0  0  0  0  0  0  0  0
   58.5850   31.7310   46.3130 C   0  0  0  0  0  0  0  0  0  0  0  0
   56.3302   32.1708   41.1331 H   0  0  0  0  0  0  0  0  0  0  0  0
   57.5663   33.2891   40.4639 H   0  0  0  0  0  0  0  0  0  0  0  0
   57.8638   31.5177   40.4639 H   0  0  0  0  0  0  0  0  0  0  0  0
   59.1530   32.4378   42.2963 H   0  0  0  0  0  0  0  0  0  0  0  0
   57.7640   33.4066   42.8779 H   0  0  0  0  0  0  0  0  0  0  0  0
   57.6250   31.4840   44.2060 H   0  0  0  0  0  0  0  0  0  0  0  0
   55.9359   31.1318   42.0424 H   0  0  0  0  0  0  0  0  0  0  0  0
   57.1465   29.7679   42.0070 H   0  0  0  0  0  0  0  0  0  0  0  0
   54.7910   30.1209   43.7283 H   0  0  0  0  0  0  0  0  0  0  0  0
   55.7725   28.6716   43.4532 H   0  0  0  0  0  0  0  0  0  0  0  0
   57.1888   28.1037   45.0375 H   0  0  0  0  0  0  0  0  0  0  0  0
   58.3311   29.4325   44.4936 H   0  0  0  0  0  0  0  0  0  0  0  0
   57.2303   29.4267   47.2925 H   0  0  0  0  0  0  0  0  0  0  0  0
   58.6161   28.3909   46.8813 H   0  0  0  0  0  0  0  0  0  0  0  0
   60.8413   29.5714   47.1472 H   0  0  0  0  0  0  0  0  0  0  0  0
   61.6270   34.0430   46.6370 H   0  0  0  0  0  0  0  0  0  0  0  0
   58.4380   35.4300   45.7050 H   0  0  0  0  0  0  0  0  0  0  0  0
   56.4520   34.1548   45.4696 H   0  0  0  0  0  0  0  0  0  0  0  0
  1  2  1  0
  2  3  1  0
  3  4  1  0
  4  5  1  0
  5  6  1  0
  6  7  1  0
  7  8  1  0
  8  9  1  0
  9 10  1  0
 10 11  2  0
 11 12  1  0
 12 13  1  0
 13 14  2  3
 13 15  1  0
 15 16  1  0
 16 17  2  0
 17 18  1  0
 18  9  1  0
 18 12  2  0
  1 19  1  0
  1 20  1  0
  1 21  1  0
  2 22  1  0
  2 23  1  0
  3 24  1  0
  4 25  1  0
  4 26  1  0
  5 27  1  0
  5 28  1  0
  7 29  1  0
  7 30  1  0
  8 31  1  0
  8 32  1  0
 10 33  1  0
 14 34  1  0
 15 35  1  0
 16 36  1  0
M  END
>  <smiles>  (25) 
CCNCCOCCn1cnc2c(=N)[nH]cnc21

>  <score_type>  (25) 
oracle

>  <origin>  (25) 
adg

>  <m_score__min__energy>  (25) 
-5.8899999999999997

>  <m_primary>  (25) 
energy

$$$$
25:0
     RDKit          3D

 51 55  0  0  0  0  0  0  0  0999 V2000
   65.7880   30.4940   52.2870 C   0  0  0  0  0  0  0  0  0  0  0  0
   65.3260   31.1940   51.0970 N   0  0  0  0  0  0  0  0  0  0  0  0
   64.0530   31.2890   50.6670 C   0  0  0  0  0  0  0  0  0  0  0  0
   64.0820   32.1110   49.5570 C   0  0  0  0  0  0  0  0  0  0  0  0
   62.9450   32.5190   48.7190 C   0  0  0  0  0  0  0  0  0  0  0  0
   61.7040   31.8760   48.6640 C   0  0  0  0  0  0  0  0  0  0  0  0
   60.8400   32.4770   47.7400 C   0  0  0  0  0  0  0  0  0  0  0  0
   59.5430   32.0890   47.4030 C   0  0  0  0  0  0  0  0  0  0  0  0
   59.0190   31.0900   47.9690 O   0  0  0  0  0  0  0  0  0  0  0  0
   58.8580   32.8090   46.4490 N   0  0  0  0  0  0  0  0  0  0  0  0
   57.4860   32.4440   46.0470 C   0  0  0  0  0  0  0  0  0  0  0  0
   57.4300   32.1220   44.5720 C   0  0  0  0  0  0  0  0  0  0  0  0
   58.0100   33.0080   43.6470 C   0  0  0  0  0  0  0  0  0  0  0  0
   58.0030   32.7140   42.2830 C   0  0  0  0  0  0  0  0  0  0  0  0
   57.4140   31.5350   41.8280 C   0  0  0  0  0  0  0  0  0  0  0  0
   56.8370   30.6430   42.7340 C   0  0  0  0  0  0  0  0  0  0  0  0
   56.8500   30.9180   44.1160 C   0  0  0  0  0  0  0  0  0  0  0  0
   56.2860   30.0380   45.0570 O   0  0  0  0  0  0  0  0  0  0  0  0
   56.6930   28.6900   45.2890 C   0  0  0  0  0  0  0  0  0  0  0  0
   58.0820   28.6590   45.8690 C   0  0  0  0  0  0  0  0  0  0  0  0
   59.1750   29.0960   45.1020 C   0  0  0  0  0  0  0  0  0  0  0  0
   60.4720   29.0330   45.6180 C   0  0  0  0  0  0  0  0  0  0  0  0
   60.6890   28.5240   46.9020 C   0  0  0  0  0  0  0  0  0  0  0  0
   59.6090   28.0850   47.6720 C   0  0  0  0  0  0  0  0  0  0  0  0
   58.3090   28.1520   47.1600 C   0  0  0  0  0  0  0  0  0  0  0  0
   59.4470   33.9040   45.8560 C   0  0  0  0  0  0  0  0  0  0  0  0
   60.7180   34.2760   46.1770 N   0  0  0  0  0  0  0  0  0  0  0  0
   61.3930   33.5620   47.1030 C   0  0  0  0  0  0  0  0  0  0  0  0
   62.9600   33.8240   47.6360 S   0  0  0  0  0  0  0  0  0  0  0  0
   65.3610   32.4880   49.3650 N   0  0  0  0  0  0  0  0  0  0  0  0
   66.0980   31.9300   50.3130 N   0  0  0  0  0  0  0  0  0  0  0  0
   65.4374   31.0252   53.1842 H   0  0  0  0  0  0  0  0  0  0  0  0
   65.3882   29.4692   52.2880 H   0  0  0  0  0  0  0  0  0  0  0  0
   66.8874   30.4587   52.2880 H   0  0  0  0  0  0  0  0  0  0  0  0
   63.1683   30.8087   51.1105 H   0  0  0  0  0  0  0  0  0  0  0  0
   61.4378   31.0008   49.2749 H   0  0  0  0  0  0  0  0  0  0  0  0
   57.1636   31.5631   46.6215 H   0  0  0  0  0  0  0  0  0  0  0  0
   56.8198   33.2957   46.2488 H   0  0  0  0  0  0  0  0  0  0  0  0
   58.4731   33.9406   44.0016 H   0  0  0  0  0  0  0  0  0  0  0  0
   58.4618   33.4119   41.5672 H   0  0  0  0  0  0  0  0  0  0  0  0
   57.4039   31.3069   40.7520 H   0  0  0  0  0  0  0  0  0  0  0  0
   56.3686   29.7182   42.3661 H   0  0  0  0  0  0  0  0  0  0  0  0
   55.9942   28.2156   45.9938 H   0  0  0  0  0  0  0  0  0  0  0  0
   56.6906   28.1448   44.3336 H   0  0  0  0  0  0  0  0  0  0  0  0
   59.0086   29.4903   44.0887 H   0  0  0  0  0  0  0  0  0  0  0  0
   61.3220   29.3837   45.0143 H   0  0  0  0  0  0  0  0  0  0  0  0
   61.7106   28.4691   47.3062 H   0  0  0  0  0  0  0  0  0  0  0  0
   59.7813   27.6860   48.6825 H   0  0  0  0  0  0  0  0  0  0  0  0
   57.4613   27.8066   47.7700 H   0  0  0  0  0  0  0  0  0  0  0  0
   58.8831   34.4865   45.1126 H   0  0  0  0  0  0  0  0  0  0  0  0
   65.7330   33.1150   48.6170 H   0  0  0  0  0  0  0  0  0  0  0  0
  1  2  1  0
  2  3  1  0
  3  4  2  0
  4  5  1  0
  5  6  2  0
  6  7  1  0
  7  8  1  0
  8  9  2  0
  8 10  1  0
 10 11  1  0
 11 12  1  0
 12 13  2  0
 13 14  1  0
 14 15  2  0
 15 16  1  0
 16 17  2  0
 17 18  1  0
 18 19  1  0
 19 20  1  0
 20 21  2  0
 21 22  1  0
 22 23  2  0
 23 24  1  0
 24 25  2  0
 10 26  1  0
 26 27  2  0
 27 28  1  0
 28 29  1  0
  4 30  1  0
 30 31  2  0
 31  2  1  0
 29  5  1  0
 28  7  2  0
 17 12  1  0
 25 20  1  0
  1 32  1  0
  1 33  1  0
  1 34  1  0
  3 35  1  0
  6 36  1  0
 11 37  1  0
 11 38  1  0
 13 39  1  0
 14 40  1  0
 15 41  1  0
 16 42  1  0
 19 43  1  0
 19 44  1  0
 21 45  1  0
 22 46  1  0
 23 47  1  0
 24 48  1  0
 25 49  1  0
 26 50  1  0
 30 51  1  0
M  CHG  1  30   1
M  END
>  <UniqueID>  (26) 
25

>  <SMILES>  (26) 
Cn1cc(-c2cc3c(=O)n(Cc4ccccc4OCc4ccccc4)cnc3s2)[nH+]n1

>  <Energy>  (26) 
124.00092147875515

>  <Genealogy>  (26) 
Cn1cc(-c2cc3c(=O)n(Cc4ccccc4OCc4ccccc4)cnc3s2)[nH+]n1 (protonated)
Cn1cc(-c2cc3c(=O)n(Cc4ccccc4OCc4ccccc4)cnc3s2)[nH+]n1 (3D coordinates assigned)
Cn1cc(-c2cc3c(=O)n(Cc4ccccc4OCc4ccccc4)cnc3s2)[nH+]n1 (optimized conformer: 124.00092147875515 kcal/mol)

>  <smiles>  (26) 
Cn1cc(-c2cc3c(=O)n(Cc4ccccc4OCc4ccccc4)cnc3s2)nn1

>  <score_type>  (26) 
oracle

>  <origin>  (26) 
adg

>  <m_score__min__energy>  (26) 
-8.0500000000000007

>  <m_primary>  (26) 
energy

$$$$
26:0
     RDKit          3D

 62 64  0  0  0  0  0  0  0  0999 V2000
   61.0310   30.4230   51.1920 C   0  0  0  0  0  0  0  0  0  0  0  0
   60.2850   31.3850   50.3610 N   0  0  0  0  0  0  0  0  0  0  0  0
   58.9670   30.8230   50.0260 C   0  0  0  0  0  0  0  0  0  0  0  0
   60.1250   32.6820   51.0570 C   0  0  0  0  0  0  0  0  0  0  0  0
   60.3120   33.8550   50.0920 C   0  0  0  0  0  0  0  0  0  0  0  0
   61.6530   33.8880   49.6490 O   0  0  0  0  0  0  0  0  0  0  0  0
   62.5020   34.2120   50.7300 C   0  0  0  0  0  0  0  0  0  0  0  0
   63.9340   33.7550   50.4200 C   0  0  0  0  0  0  0  0  0  0  0  0
   64.0840   32.2270   50.4200 C   0  0  0  0  0  0  0  0  0  0  0  0
   63.1980   31.6260   49.4160 N   0  0  0  0  0  0  0  0  0  0  0  0
   63.5870   32.0150   48.0550 C   0  0  0  0  0  0  0  0  0  0  0  0
   62.3660   31.9450   47.1330 C   0  0  0  0  0  0  0  0  0  0  0  0
   61.1480   31.5860   47.8860 N   0  0  0  0  0  0  0  0  0  0  0  0
   60.0640   31.2370   46.9820 C   0  0  0  0  0  0  0  0  0  0  0  0
   59.7440   29.8760   46.7300 C   0  0  0  0  0  0  0  0  0  0  0  0
   60.3390   28.8230   47.4690 C   0  0  0  0  0  0  0  0  0  0  0  0
   59.9980   27.4940   47.2310 C   0  0  0  0  0  0  0  0  0  0  0  0
   59.0460   27.1810   46.2720 C   0  0  0  0  0  0  0  0  0  0  0  0
   58.4390   28.1930   45.5330 C   0  0  0  0  0  0  0  0  0  0  0  0
   58.7900   29.5560   45.7230 C   0  0  0  0  0  0  0  0  0  0  0  0
   58.2150   30.5570   44.9670 N   0  0  0  0  0  0  0  0  0  0  0  0
   57.4830   30.2180   43.7260 C   0  0  0  0  0  0  0  0  0  0  0  0
   58.3300   31.8740   45.3640 C   0  0  0  0  0  0  0  0  0  0  0  0
   57.5050   32.8870   44.8060 C   0  0  0  0  0  0  0  0  0  0  0  0
   57.6490   34.2210   45.1790 C   0  0  0  0  0  0  0  0  0  0  0  0
   58.5960   34.5820   46.1250 C   0  0  0  0  0  0  0  0  0  0  0  0
   59.3960   33.6100   46.7200 C   0  0  0  0  0  0  0  0  0  0  0  0
   59.2770   32.2440   46.3620 C   0  0  0  0  0  0  0  0  0  0  0  0
   60.8583   30.6457   52.2553 H   0  0  0  0  0  0  0  0  0  0  0  0
   60.6860   29.4023   50.9705 H   0  0  0  0  0  0  0  0  0  0  0  0
   62.1055   30.5030   50.9705 H   0  0  0  0  0  0  0  0  0  0  0  0
   58.4214   30.5903   50.9524 H   0  0  0  0  0  0  0  0  0  0  0  0
   58.3949   31.5554   49.4376 H   0  0  0  0  0  0  0  0  0  0  0  0
   59.0994   29.9031   49.4376 H   0  0  0  0  0  0  0  0  0  0  0  0
   59.1163   32.7333   51.4928 H   0  0  0  0  0  0  0  0  0  0  0  0
   60.8913   32.7522   51.8431 H   0  0  0  0  0  0  0  0  0  0  0  0
   59.6429   33.7298   49.2279 H   0  0  0  0  0  0  0  0  0  0  0  0
   60.0715   34.7968   50.6070 H   0  0  0  0  0  0  0  0  0  0  0  0
   62.4921   35.3004   50.8889 H   0  0  0  0  0  0  0  0  0  0  0  0
   62.1460   33.7023   51.6375 H   0  0  0  0  0  0  0  0  0  0  0  0
   64.2175   34.1360   49.4278 H   0  0  0  0  0  0  0  0  0  0  0  0
   64.5869   34.1519   51.2113 H   0  0  0  0  0  0  0  0  0  0  0  0
   65.1266   31.9651   50.1866 H   0  0  0  0  0  0  0  0  0  0  0  0
   63.8108   31.8416   51.4134 H   0  0  0  0  0  0  0  0  0  0  0  0
   62.2220   31.9650   49.5890 H   0  0  0  0  0  0  0  0  0  0  0  0
   63.9794   33.0426   48.0658 H   0  0  0  0  0  0  0  0  0  0  0  0
   64.3636   31.3287   47.6863 H   0  0  0  0  0  0  0  0  0  0  0  0
   62.2182   32.9262   46.6583 H   0  0  0  0  0  0  0  0  0  0  0  0
   62.5470   31.1700   46.3737 H   0  0  0  0  0  0  0  0  0  0  0  0
   60.8510   32.3620   48.5190 H   0  0  0  0  0  0  0  0  0  0  0  0
   61.3520   30.8050   48.5490 H   0  0  0  0  0  0  0  0  0  0  0  0
   61.0830   29.0597   48.2439 H   0  0  0  0  0  0  0  0  0  0  0  0
   60.4844   26.6911   47.8044 H   0  0  0  0  0  0  0  0  0  0  0  0
   58.7700   26.1310   46.0949 H   0  0  0  0  0  0  0  0  0  0  0  0
   57.6731   27.9319   44.7879 H   0  0  0  0  0  0  0  0  0  0  0  0
   56.5126   29.7686   43.9838 H   0  0  0  0  0  0  0  0  0  0  0  0
   57.3187   31.1317   43.1360 H   0  0  0  0  0  0  0  0  0  0  0  0
   58.0736   29.5017   43.1360 H   0  0  0  0  0  0  0  0  0  0  0  0
   56.7387   32.6128   44.0660 H   0  0  0  0  0  0  0  0  0  0  0  0
   57.0095   34.9904   44.7217 H   0  0  0  0  0  0  0  0  0  0  0  0
   58.7157   35.6387   46.4062 H   0  0  0  0  0  0  0  0  0  0  0  0
   60.1328   33.9074   47.4807 H   0  0  0  0  0  0  0  0  0  0  0  0
  1  2  1  0
  2  3  1  0
  2  4  1  0
  4  5  1  0
  5  6  1  0
  6  7  1  0
  7  8  1  0
  8  9  1  0
  9 10  1  0
 10 11  1  0
 11 12  1  0
 12 13  1  0
 13 14  1  0
 14 15  2  0
 15 16  1  0
 16 17  2  0
 17 18  1  0
 18 19  2  0
 19 20  1  0
 20 21  2  0
 21 22  1  0
 21 23  1  0
 23 24  2  0
 24 25  1  0
 25 26  2  0
 26 27  1  0
 27 28  2  0
 28 14  1  0
 20 15  1  0
 28 23  1  0
  1 29  1  0
  1 30  1  0
  1 31  1  0
  3 32  1  0
  3 33  1  0
  3 34  1  0
  4 35  1  0
  4 36  1  0
  5 37  1  0
  5 38  1  0
  7 39  1  0
  7 40  1  0
  8 41  1  0
  8 42  1  0
  9 43  1  0
  9 44  1  0
 10 45  1  0
 11 46  1  0
 11 47  1  0
 12 48  1  0
 12 49  1  0
 13 50  1  0
 13 51  1  0
 16 52  1  0
 17 53  1  0
 18 54  1  0
 19 55  1  0
 22 56  1  0
 22 57  1  0
 22 58  1  0
 24 59  1  0
 25 60  1  0
 26 61  1  0
 27 62  1  0
M  CHG  2  13   1  21   1
M  END
>  <UniqueID>  (27) 
26

>  <SMILES>  (27) 
CN(C)CCOCCCNCC[NH2+]c1c2ccccc2[n+](C)c2ccccc12

>  <Energy>  (27) 
81.6411590153434

>  <Genealogy>  (27) 
CN(C)CCOCCCNCC[NH2+]c1c2ccccc2[n+](C)c2ccccc12 (protonated)
CN(C)CCOCCCNCC[NH2+]c1c2ccccc2[n+](C)c2ccccc12 (3D coordinates assigned)
CN(C)CCOCCCNCC[NH2+]c1c2ccccc2[n+](C)c2ccccc12 (optimized conformer: 81.6411590153434 kcal/mol)

>  <smiles>  (27) 
CN(C)CCOCCCNCCNc1c2ccccc2[n+](C)c2ccccc12

>  <score_type>  (27) 
oracle

>  <origin>  (27) 
adg

>  <m_score__min__energy>  (27) 
-3.21

>  <m_primary>  (27) 
energy

$$$$
27:0
     RDKit          3D

 51 53  0  0  0  0  0  0  0  0999 V2000
   57.8880   32.0160   42.1870 C   0  0  0  0  0  0  0  0  0  0  0  0
   57.0200   31.2050   43.1450 C   0  0  0  0  0  0  0  0  0  0  0  0
   57.7620   30.9060   44.3860 N   0  0  0  0  0  0  0  0  0  0  0  0
   57.9500   31.8780   45.3580 C   0  0  0  0  0  0  0  0  0  0  0  0
   57.3870   33.5790   45.1260 S   0  0  0  0  0  0  0  0  0  0  0  0
   59.0530   34.2730   44.8240 C   0  0  0  0  0  0  0  0  0  0  0  0
   59.6180   34.9580   46.0750 C   0  0  0  0  0  0  0  0  0  0  0  0
   60.0080   33.9690   47.1040 N   0  0  0  0  0  0  0  0  0  0  0  0
   60.1070   34.5850   48.4510 C   0  0  0  0  0  0  0  0  0  0  0  0
   61.0910   33.8180   49.3500 C   0  0  0  0  0  0  0  0  0  0  0  0
   62.4170   33.7910   48.8410 O   0  0  0  0  0  0  0  0  0  0  0  0
   62.4870   33.8340   47.4220 C   0  0  0  0  0  0  0  0  0  0  0  0
   61.2470   33.2490   46.7220 C   0  0  0  0  0  0  0  0  0  0  0  0
   58.5540   31.5650   46.5450 N   0  0  0  0  0  0  0  0  0  0  0  0
   59.0030   30.3040   46.7490 C   0  0  0  0  0  0  0  0  0  0  0  0
   58.8400   29.3280   45.8160 C   0  0  0  0  0  0  0  0  0  0  0  0
   59.3640   28.1620   46.3510 C   0  0  0  0  0  0  0  0  0  0  0  0
   59.3680   26.8000   45.7220 C   0  0  0  0  0  0  0  0  0  0  0  0
   59.7890   28.5020   47.6400 C   0  0  0  0  0  0  0  0  0  0  0  0
   60.3930   27.5550   48.6380 C   0  0  0  0  0  0  0  0  0  0  0  0
   59.6050   29.8310   47.8600 N   0  0  0  0  0  0  0  0  0  0  0  0
   59.8960   30.5770   49.0850 C   0  0  0  0  0  0  0  0  0  0  0  0
   58.1950   29.6160   44.6160 C   0  0  0  0  0  0  0  0  0  0  0  0
   58.0010   28.7030   43.7670 O   0  0  0  0  0  0  0  0  0  0  0  0
   58.5723   32.6553   42.7641 H   0  0  0  0  0  0  0  0  0  0  0  0
   58.4719   31.3324   41.5532 H   0  0  0  0  0  0  0  0  0  0  0  0
   57.2455   32.6449   41.5532 H   0  0  0  0  0  0  0  0  0  0  0  0
   56.1172   31.7825   43.3930 H   0  0  0  0  0  0  0  0  0  0  0  0
   56.7421   30.2581   42.6591 H   0  0  0  0  0  0  0  0  0  0  0  0
   59.7300   33.4584   44.5272 H   0  0  0  0  0  0  0  0  0  0  0  0
   58.9709   35.0274   44.0277 H   0  0  0  0  0  0  0  0  0  0  0  0
   60.5027   35.5470   45.7915 H   0  0  0  0  0  0  0  0  0  0  0  0
   58.8358   35.6060   46.4973 H   0  0  0  0  0  0  0  0  0  0  0  0
   60.4546   35.6232   48.3447 H   0  0  0  0  0  0  0  0  0  0  0  0
   59.1126   34.5514   48.9200 H   0  0  0  0  0  0  0  0  0  0  0  0
   61.1070   34.2989   50.3392 H   0  0  0  0  0  0  0  0  0  0  0  0
   60.7410   32.7763   49.3996 H   0  0  0  0  0  0  0  0  0  0  0  0
   62.5979   34.8835   47.1117 H   0  0  0  0  0  0  0  0  0  0  0  0
   63.3458   33.2145   47.1241 H   0  0  0  0  0  0  0  0  0  0  0  0
   61.3828   33.3270   45.6332 H   0  0  0  0  0  0  0  0  0  0  0  0
   61.1421   32.1991   47.0332 H   0  0  0  0  0  0  0  0  0  0  0  0
   58.6650   32.2980   47.2800 H   0  0  0  0  0  0  0  0  0  0  0  0
   59.3703   26.0323   46.5098 H   0  0  0  0  0  0  0  0  0  0  0  0
   58.4702   26.6819   45.0975 H   0  0  0  0  0  0  0  0  0  0  0  0
   60.2665   26.6872   45.0975 H   0  0  0  0  0  0  0  0  0  0  0  0
   60.1700   27.9047   49.6568 H   0  0  0  0  0  0  0  0  0  0  0  0
   59.9684   26.5505   48.4939 H   0  0  0  0  0  0  0  0  0  0  0  0
   61.4828   27.5165   48.4939 H   0  0  0  0  0  0  0  0  0  0  0  0
   59.6534   29.9552   49.9594 H   0  0  0  0  0  0  0  0  0  0  0  0
   60.9634   30.8419   49.1082 H   0  0  0  0  0  0  0  0  0  0  0  0
   59.2899   31.4947   49.1082 H   0  0  0  0  0  0  0  0  0  0  0  0
  1  2  1  0
  2  3  1  0
  3  4  1  0
  4  5  1  0
  5  6  1  0
  6  7  1  0
  7  8  1  0
  8  9  1  0
  9 10  1  0
 10 11  1  0
 11 12  1  0
 12 13  1  0
  4 14  2  0
 14 15  1  0
 15 16  2  0
 16 17  1  0
 17 18  1  0
 17 19  2  0
 19 20  1  0
 19 21  1  0
 21 22  1  0
 16 23  1  0
 23 24  2  0
 23  3  1  0
 13  8  1  0
 21 15  1  0
  1 25  1  0
  1 26  1  0
  1 27  1  0
  2 28  1  0
  2 29  1  0
  6 30  1  0
  6 31  1  0
  7 32  1  0
  7 33  1  0
  9 34  1  0
  9 35  1  0
 10 36  1  0
 10 37  1  0
 12 38  1  0
 12 39  1  0
 13 40  1  0
 13 41  1  0
 14 42  1  0
 18 43  1  0
 18 44  1  0
 18 45  1  0
 20 46  1  0
 20 47  1  0
 20 48  1  0
 22 49  1  0
 22 50  1  0
 22 51  1  0
M  CHG  1  14   1
M  END
>  <UniqueID>  (28) 
27

>  <SMILES>  (28) 
CCn1c(SCCN2CCOCC2)[nH+]c2c(c(C)c(C)n2C)c1=O

>  <Energy>  (28) 
97.81107597544744

>  <Genealogy>  (28) 
CCn1c(SCCN2CCOCC2)[nH+]c2c(c(C)c(C)n2C)c1=O (protonated)
CCn1c(SCCN2CCOCC2)[nH+]c2c(c(C)c(C)n2C)c1=O (3D coordinates assigned)
CCn1c(SCCN2CCOCC2)[nH+]c2c(c(C)c(C)n2C)c1=O (nonaromatic ring conformer: 97.81107597544744 kcal/mol)

>  <smiles>  (28) 
CCn1c(SCCN2CCOCC2)nc2c(c(C)c(C)n2C)c1=O

>  <score_type>  (28) 
oracle

>  <origin>  (28) 
adg

>  <m_score__min__energy>  (28) 
-5.4199999999999999

>  <m_primary>  (28) 
energy

$$$$
28:0
     RDKit          3D

 62 63  0  0  0  0  0  0  0  0999 V2000
   59.6580   34.4120   48.8200 C   0  0  0  0  0  0  0  0  0  0  0  0
   59.7200   33.4720   50.0370 C   0  0  0  0  0  0  0  0  0  0  0  0
   59.2110   32.0850   49.8080 N   0  0  0  0  0  0  0  0  0  0  0  0
   57.8930   31.8880   50.4640 C   0  0  0  0  0  0  0  0  0  0  0  0
   60.1560   31.0940   50.3920 C   0  0  0  0  0  0  0  0  0  0  0  0
   59.1140   31.7720   48.3380 C   0  0  0  0  0  0  0  0  0  0  0  0
   60.3180   31.0830   47.5960 C   0  0  1  0  0  0  0  0  0  0  0  0
   60.0000   30.5740   46.2870 O   0  0  0  0  0  0  0  0  0  0  0  0
   58.7730   30.6100   45.5760 C   0  0  0  0  0  0  0  0  0  0  0  0
   58.1940   31.7870   44.9840 C   0  0  0  0  0  0  0  0  0  0  0  0
   58.4260   33.2030   45.5510 C   0  0  0  0  0  0  0  0  0  0  0  0
   57.0790   33.8510   45.9180 C   0  0  0  0  0  0  0  0  0  0  0  0
   59.1910   34.1670   44.6230 C   0  0  0  0  0  0  0  0  0  0  0  0
   57.2170   31.5990   43.9770 C   0  0  0  0  0  0  0  0  0  0  0  0
   56.7160   30.3380   43.6820 C   0  0  0  0  0  0  0  0  0  0  0  0
   57.1010   29.2450   44.4370 C   0  0  0  0  0  0  0  0  0  0  0  0
   58.0860   29.3700   45.4270 C   0  0  0  0  0  0  0  0  0  0  0  0
   58.3360   28.1610   46.3280 C   0  0  0  0  0  0  0  0  0  0  0  0
   59.7420   27.5780   46.1330 C   0  0  0  0  0  0  0  0  0  0  0  0
   57.2450   27.0960   46.2130 C   0  0  0  0  0  0  0  0  0  0  0  0
   61.5950   31.9190   47.5890 C   0  0  0  0  0  0  0  0  0  0  0  0
   62.6740   31.6490   48.4550 C   0  0  0  0  0  0  0  0  0  0  0  0
   63.8210   32.4470   48.4350 C   0  0  0  0  0  0  0  0  0  0  0  0
   63.9020   33.5380   47.5700 C   0  0  0  0  0  0  0  0  0  0  0  0
   62.8300   33.8400   46.7290 C   0  0  0  0  0  0  0  0  0  0  0  0
   61.6810   33.0450   46.7440 C   0  0  0  0  0  0  0  0  0  0  0  0
   59.5893   35.4543   49.1649 H   0  0  0  0  0  0  0  0  0  0  0  0
   60.5664   34.2859   48.2126 H   0  0  0  0  0  0  0  0  0  0  0  0
   58.7740   34.1677   48.2126 H   0  0  0  0  0  0  0  0  0  0  0  0
   60.7705   33.3989   50.3551 H   0  0  0  0  0  0  0  0  0  0  0  0
   59.0562   33.9152   50.7939 H   0  0  0  0  0  0  0  0  0  0  0  0
   58.0206   31.9071   51.5564 H   0  0  0  0  0  0  0  0  0  0  0  0
   57.2084   32.6938   50.1607 H   0  0  0  0  0  0  0  0  0  0  0  0
   57.4739   30.9172   50.1607 H   0  0  0  0  0  0  0  0  0  0  0  0
   60.1080   31.1444   51.4898 H   0  0  0  0  0  0  0  0  0  0  0  0
   59.8791   30.0829   50.0589 H   0  0  0  0  0  0  0  0  0  0  0  0
   61.1791   31.3225   50.0589 H   0  0  0  0  0  0  0  0  0  0  0  0
   58.2438   31.1111   48.2115 H   0  0  0  0  0  0  0  0  0  0  0  0
   59.0677   32.7672   47.8717 H   0  0  0  0  0  0  0  0  0  0  0  0
   60.5273   30.1979   48.2147 H   0  0  0  0  0  0  0  0  0  0  0  0
   59.0645   33.0478   46.4332 H   0  0  0  0  0  0  0  0  0  0  0  0
   56.9810   33.8982   47.0126 H   0  0  0  0  0  0  0  0  0  0  0  0
   57.0360   34.8683   45.5018 H   0  0  0  0  0  0  0  0  0  0  0  0
   56.2573   33.2496   45.5018 H   0  0  0  0  0  0  0  0  0  0  0  0
   59.7611   34.8854   45.2303 H   0  0  0  0  0  0  0  0  0  0  0  0
   59.8825   33.5935   43.9882 H   0  0  0  0  0  0  0  0  0  0  0  0
   58.4754   34.7101   43.9882 H   0  0  0  0  0  0  0  0  0  0  0  0
   56.8469   32.4701   43.4164 H   0  0  0  0  0  0  0  0  0  0  0  0
   56.0120   30.2082   42.8468 H   0  0  0  0  0  0  0  0  0  0  0  0
   56.6295   28.2673   44.2589 H   0  0  0  0  0  0  0  0  0  0  0  0
   58.2849   28.5336   47.3617 H   0  0  0  0  0  0  0  0  0  0  0  0
   60.1997   27.3882   47.1151 H   0  0  0  0  0  0  0  0  0  0  0  0
   59.6731   26.6343   45.5721 H   0  0  0  0  0  0  0  0  0  0  0  0
   60.3611   28.2936   45.5721 H   0  0  0  0  0  0  0  0  0  0  0  0
   56.9275   26.7861   47.2196 H   0  0  0  0  0  0  0  0  0  0  0  0
   56.3839   27.5105   45.6683 H   0  0  0  0  0  0  0  0  0  0  0  0
   57.6386   26.2251   45.6683 H   0  0  0  0  0  0  0  0  0  0  0  0
   62.6125   30.8016   49.1536 H   0  0  0  0  0  0  0  0  0  0  0  0
   64.6627   32.2139   49.1037 H   0  0  0  0  0  0  0  0  0  0  0  0
   64.8094   34.1595   47.5507 H   0  0  0  0  0  0  0  0  0  0  0  0
   62.8897   34.7057   46.0529 H   0  0  0  0  0  0  0  0  0  0  0  0
   60.8344   33.3001   46.0897 H   0  0  0  0  0  0  0  0  0  0  0  0
  1  2  1  0
  2  3  1  0
  3  4  1  0
  3  5  1  0
  3  6  1  0
  6  7  1  0
  7  8  1  0
  8  9  1  0
  9 10  2  0
 10 11  1  0
 11 12  1  0
 11 13  1  0
 10 14  1  0
 14 15  2  0
 15 16  1  0
 16 17  2  0
 17 18  1  0
 18 19  1  0
 18 20  1  0
  7 21  1  0
 21 22  2  0
 22 23  1  0
 23 24  2  0
 24 25  1  0
 25 26  2  0
 17  9  1  0
 26 21  1  0
  1 27  1  0
  1 28  1  0
  1 29  1  0
  2 30  1  0
  2 31  1  0
  4 32  1  0
  4 33  1  0
  4 34  1  0
  5 35  1  0
  5 36  1  0
  5 37  1  0
  6 38  1  0
  6 39  1  0
  7 40  1  1
 11 41  1  0
 12 42  1  0
 12 43  1  0
 12 44  1  0
 13 45  1  0
 13 46  1  0
 13 47  1  0
 14 48  1  0
 15 49  1  0
 16 50  1  0
 18 51  1  0
 19 52  1  0
 19 53  1  0
 19 54  1  0
 20 55  1  0
 20 56  1  0
 20 57  1  0
 22 58  1  0
 23 59  1  0
 24 60  1  0
 25 61  1  0
 26 62  1  0
M  CHG  1   3   1
M  END
>  <UniqueID>  (29) 
28

>  <SMILES>  (29) 
CC[N+](C)(C)C[C@@H](Oc1c(C(C)C)cccc1C(C)C)c1ccccc1

>  <Energy>  (29) 
95.00065416781885

>  <Genealogy>  (29) 
CC[N+](C)(C)C[C@@H](Oc1c(C(C)C)cccc1C(C)C)c1ccccc1 (chirality)
CC[N+](C)(C)C[C@@H](Oc1c(C(C)C)cccc1C(C)C)c1ccccc1 (3D coordinates assigned)
CC[N+](C)(C)C[C@@H](Oc1c(C(C)C)cccc1C(C)C)c1ccccc1 (optimized conformer: 95.00065416781885 kcal/mol)

>  <smiles>  (29) 
CC[N+](C)(C)CC(Oc1c(C(C)C)cccc1C(C)C)c1ccccc1

>  <score_type>  (29) 
oracle

>  <origin>  (29) 
adg

>  <m_score__min__energy>  (29) 
-6.3099999999999996

>  <m_primary>  (29) 
energy

$$$$
29:0
     RDKit          3D

 54 56  0  0  0  0  0  0  0  0999 V2000
   59.6470   33.4710   50.2600 C   0  0  0  0  0  0  0  0  0  0  0  0
   59.9510   34.2390   48.9850 C   0  0  0  0  0  0  0  0  0  0  0  0
   60.0190   33.3410   47.8770 O   0  0  0  0  0  0  0  0  0  0  0  0
   59.1220   33.3450   46.7930 C   0  0  0  0  0  0  0  0  0  0  0  0
   58.5630   34.5540   46.3450 C   0  0  0  0  0  0  0  0  0  0  0  0
   57.7290   34.5820   45.2370 C   0  0  0  0  0  0  0  0  0  0  0  0
   57.4780   33.4190   44.5210 C   0  0  0  0  0  0  0  0  0  0  0  0
   58.0470   32.1830   44.9080 C   0  0  0  0  0  0  0  0  0  0  0  0
   58.7970   32.1310   46.1200 C   0  0  0  0  0  0  0  0  0  0  0  0
   59.2070   30.8690   46.6070 C   0  0  0  0  0  0  0  0  0  0  0  0
   59.8150   30.7420   47.9020 N   0  0  0  0  0  0  0  0  0  0  0  0
   61.1440   30.1340   48.0240 C   0  0  0  0  0  0  0  0  0  0  0  0
   62.0180   30.8820   49.0480 C   0  0  0  0  0  0  0  0  0  0  0  0
   62.4040   32.2420   48.5910 N   0  0  1  0  0  0  0  0  0  0  0  0
   63.0410   33.0180   49.6740 C   0  0  0  0  0  0  0  0  0  0  0  0
   63.2540   32.2010   47.3750 C   0  0  0  0  0  0  0  0  0  0  0  0
   63.4180   33.5580   46.6710 C   0  0  0  0  0  0  0  0  0  0  0  0
   58.8920   29.7030   45.8850 C   0  0  0  0  0  0  0  0  0  0  0  0
   59.2560   28.4300   46.3780 C   0  0  0  0  0  0  0  0  0  0  0  0
   58.8940   27.2710   45.6970 C   0  0  0  0  0  0  0  0  0  0  0  0
   58.1520   27.3570   44.5250 C   0  0  0  0  0  0  0  0  0  0  0  0
   57.7920   28.6030   44.0130 C   0  0  0  0  0  0  0  0  0  0  0  0
   58.1840   29.8040   44.6610 C   0  0  0  0  0  0  0  0  0  0  0  0
   57.8700   31.0450   44.1440 N   0  0  0  0  0  0  0  0  0  0  0  0
   57.3830   31.1580   42.7490 C   0  0  0  0  0  0  0  0  0  0  0  0
   59.8940   34.0949   51.1316 H   0  0  0  0  0  0  0  0  0  0  0  0
   58.5783   33.2115   50.2858 H   0  0  0  0  0  0  0  0  0  0  0  0
   60.2485   32.5504   50.2858 H   0  0  0  0  0  0  0  0  0  0  0  0
   59.1557   34.9777   48.8066 H   0  0  0  0  0  0  0  0  0  0  0  0
   60.9186   34.7506   49.0943 H   0  0  0  0  0  0  0  0  0  0  0  0
   58.7894   35.4887   46.8790 H   0  0  0  0  0  0  0  0  0  0  0  0
   57.2647   35.5290   44.9244 H   0  0  0  0  0  0  0  0  0  0  0  0
   56.8249   33.4595   43.6368 H   0  0  0  0  0  0  0  0  0  0  0  0
   59.4320   31.3300   48.6770 H   0  0  0  0  0  0  0  0  0  0  0  0
   61.0301   29.0889   48.3478 H   0  0  0  0  0  0  0  0  0  0  0  0
   61.6391   30.1898   47.0433 H   0  0  0  0  0  0  0  0  0  0  0  0
   61.4561   30.9738   49.9892 H   0  0  0  0  0  0  0  0  0  0  0  0
   62.9433   30.3020   49.1801 H   0  0  0  0  0  0  0  0  0  0  0  0
   61.5370   32.7580   48.3130 H   0  0  0  0  0  0  0  0  0  0  0  0
   62.7166   32.6228   50.6480 H   0  0  0  0  0  0  0  0  0  0  0  0
   64.1347   32.9347   49.5904 H   0  0  0  0  0  0  0  0  0  0  0  0
   62.7462   34.0745   49.5904 H   0  0  0  0  0  0  0  0  0  0  0  0
   64.2521   31.8403   47.6645 H   0  0  0  0  0  0  0  0  0  0  0  0
   62.7490   31.5346   46.6603 H   0  0  0  0  0  0  0  0  0  0  0  0
   63.5141   34.3530   47.4251 H   0  0  0  0  0  0  0  0  0  0  0  0
   64.3203   33.5381   46.0421 H   0  0  0  0  0  0  0  0  0  0  0  0
   62.5370   33.7537   46.0421 H   0  0  0  0  0  0  0  0  0  0  0  0
   59.8327   28.3537   47.3116 H   0  0  0  0  0  0  0  0  0  0  0  0
   59.1952   26.2873   46.0865 H   0  0  0  0  0  0  0  0  0  0  0  0
   57.8479   26.4396   43.9998 H   0  0  0  0  0  0  0  0  0  0  0  0
   57.1941   28.6564   43.0913 H   0  0  0  0  0  0  0  0  0  0  0  0
   56.3115   31.4066   42.7537 H   0  0  0  0  0  0  0  0  0  0  0  0
   57.9410   31.9505   42.2289 H   0  0  0  0  0  0  0  0  0  0  0  0
   57.5350   30.2007   42.2289 H   0  0  0  0  0  0  0  0  0  0  0  0
  1  2  1  0
  2  3  1  0
  3  4  1  0
  4  5  2  0
  5  6  1  0
  6  7  2  0
  7  8  1  0
  8  9  2  0
  9 10  1  0
 10 11  1  0
 11 12  1  0
 12 13  1  0
 13 14  1  0
 14 15  1  0
 14 16  1  0
 16 17  1  0
 10 18  2  0
 18 19  1  0
 19 20  2  0
 20 21  1  0
 21 22  2  0
 22 23  1  0
 23 24  2  0
 24 25  1  0
  9  4  1  0
 23 18  1  0
 24  8  1  0
  1 26  1  0
  1 27  1  0
  1 28  1  0
  2 29  1  0
  2 30  1  0
  5 31  1  0
  6 32  1  0
  7 33  1  0
 11 34  1  0
 12 35  1  0
 12 36  1  0
 13 37  1  0
 13 38  1  0
 14 39  1  6
 15 40  1  0
 15 41  1  0
 15 42  1  0
 16 43  1  0
 16 44  1  0
 17 45  1  0
 17 46  1  0
 17 47  1  0
 19 48  1  0
 20 49  1  0
 21 50  1  0
 22 51  1  0
 25 52  1  0
 25 53  1  0
 25 54  1  0
M  CHG  2  14   1  24   1
M  END
>  <UniqueID>  (30) 
29

>  <SMILES>  (30) 
CCOc1cccc2c1c(NCC[N@@H+](C)CC)c1ccccc1[n+]2C

>  <Energy>  (30) 
83.32114832800539

>  <Genealogy>  (30) 
CCOc1cccc2c1c(NCC[NH+](C)CC)c1ccccc1[n+]2C (protonated)
CCOc1cccc2c1c(NCC[N@@H+](C)CC)c1ccccc1[n+]2C (chirality)
CCOc1cccc2c1c(NCC[N@@H+](C)CC)c1ccccc1[n+]2C (3D coordinates assigned)
CCOc1cccc2c1c(NCC[N@@H+](C)CC)c1ccccc1[n+]2C (optimized conformer: 83.32114832800539 kcal/mol)

>  <smiles>  (30) 
CCOc1cccc2c1c(NCCN(C)CC)c1ccccc1[n+]2C

>  <score_type>  (30) 
oracle

>  <origin>  (30) 
adg

>  <m_score__min__energy>  (30) 
-3.6499999999999999

>  <m_primary>  (30) 
energy

$$$$
30:0
     RDKit          3D

 88 91  0  0  0  0  0  0  0  0999 V2000
   63.2860   33.2250   47.0430 C   0  0  0  0  0  0  0  0  0  0  0  0
   63.4540   32.0350   47.9950 C   0  0  0  0  0  0  0  0  0  0  0  0
   63.3140   32.4210   49.4240 N   0  0  0  0  0  0  0  0  0  0  0  0
   63.7920   33.8130   49.6500 C   0  0  0  0  0  0  0  0  0  0  0  0
   63.8720   34.1820   51.1380 C   0  0  0  0  0  0  0  0  0  0  0  0
   63.9650   31.4200   50.3140 C   0  0  0  0  0  0  0  0  0  0  0  0
   62.9880   30.4600   51.0230 C   0  0  0  0  0  0  0  0  0  0  0  0
   61.7550   30.4090   50.3240 O   0  0  0  0  0  0  0  0  0  0  0  0
   61.0470   29.2170   50.6100 C   0  0  0  0  0  0  0  0  0  0  0  0
   60.6990   28.4460   49.3270 C   0  0  0  0  0  0  0  0  0  0  0  0
   59.5410   29.0790   48.5420 C   0  0  0  0  0  0  0  0  0  0  0  0
   59.9670   29.5320   47.2170 N   0  0  0  0  0  0  0  0  0  0  0  0
   59.2770   30.6130   46.5750 C   0  0  0  0  0  0  0  0  0  0  0  0
   58.4500   30.3680   45.4670 C   0  0  0  0  0  0  0  0  0  0  0  0
   58.3220   29.0650   44.9360 C   0  0  0  0  0  0  0  0  0  0  0  0
   57.4550   28.8120   43.8750 C   0  0  0  0  0  0  0  0  0  0  0  0
   56.6960   29.8450   43.3350 C   0  0  0  0  0  0  0  0  0  0  0  0
   56.8260   31.1440   43.8280 C   0  0  0  0  0  0  0  0  0  0  0  0
   57.7390   31.4450   44.8720 C   0  0  0  0  0  0  0  0  0  0  0  0
   57.9380   32.7390   45.3190 N   0  0  0  0  0  0  0  0  0  0  0  0
   57.4150   33.8810   44.5310 C   0  0  0  0  0  0  0  0  0  0  0  0
   58.6480   32.9690   46.4840 C   0  0  0  0  0  0  0  0  0  0  0  0
   58.6750   34.2440   47.1070 C   0  0  0  0  0  0  0  0  0  0  0  0
   59.4330   34.4740   48.2570 C   0  0  0  0  0  0  0  0  0  0  0  0
   60.1750   33.4350   48.8360 C   0  0  0  0  0  0  0  0  0  0  0  0
   60.9590   33.6070   49.9900 O   0  0  0  0  0  0  0  0  0  0  0  0
   60.4840   33.5870   51.3380 C   0  0  0  0  0  0  0  0  0  0  0  0
   58.9560   33.3320   51.3720 C   0  0  0  0  0  0  0  0  0  0  0  0
   58.4740   32.4190   52.4640 N   0  0  0  0  0  0  0  0  0  0  0  0
   58.9320   32.9220   53.7870 C   0  0  0  0  0  0  0  0  0  0  0  0
   56.9730   32.3340   52.4640 C   0  0  0  0  0  0  0  0  0  0  0  0
   56.4350   31.1940   51.5780 C   0  0  0  0  0  0  0  0  0  0  0  0
   56.9350   29.8630   51.9980 N   0  0  0  0  0  0  0  0  0  0  0  0
   55.9190   29.1180   52.7560 C   0  0  0  0  0  0  0  0  0  0  0  0
   58.2060   29.9220   52.7530 C   0  0  0  0  0  0  0  0  0  0  0  0
   59.0910   31.0680   52.2370 C   0  0  0  0  0  0  0  0  0  0  0  0
   60.1250   32.1650   48.2650 C   0  0  0  0  0  0  0  0  0  0  0  0
   59.3610   31.9110   47.1060 C   0  0  0  0  0  0  0  0  0  0  0  0
   63.1558   34.1472   47.6283 H   0  0  0  0  0  0  0  0  0  0  0  0
   64.1802   33.3163   46.4089 H   0  0  0  0  0  0  0  0  0  0  0  0
   62.4015   33.0652   46.4089 H   0  0  0  0  0  0  0  0  0  0  0  0
   62.6878   31.2825   47.7568 H   0  0  0  0  0  0  0  0  0  0  0  0
   64.4703   31.6380   47.8555 H   0  0  0  0  0  0  0  0  0  0  0  0
   62.2950   32.3970   49.6620 H   0  0  0  0  0  0  0  0  0  0  0  0
   64.7941   33.9162   49.2082 H   0  0  0  0  0  0  0  0  0  0  0  0
   63.0658   34.4923   49.1796 H   0  0  0  0  0  0  0  0  0  0  0  0
   63.6781   33.2877   51.7485 H   0  0  0  0  0  0  0  0  0  0  0  0
   64.8754   34.5710   51.3659 H   0  0  0  0  0  0  0  0  0  0  0  0
   63.1199   34.9516   51.3659 H   0  0  0  0  0  0  0  0  0  0  0  0
   64.6564   30.8184   49.7058 H   0  0  0  0  0  0  0  0  0  0  0  0
   64.4719   31.9903   51.1064 H   0  0  0  0  0  0  0  0  0  0  0  0
   63.4286   29.4526   51.0559 H   0  0  0  0  0  0  0  0  0  0  0  0
   62.8057   30.8246   52.0447 H   0  0  0  0  0  0  0  0  0  0  0  0
   61.6692   28.5776   51.2535 H   0  0  0  0  0  0  0  0  0  0  0  0
   60.1080   29.4866   51.1156 H   0  0  0  0  0  0  0  0  0  0  0  0
   61.5887   28.4215   48.6805 H   0  0  0  0  0  0  0  0  0  0  0  0
   60.3807   27.4364   49.6260 H   0  0  0  0  0  0  0  0  0  0  0  0
   58.7413   28.3330   48.4233 H   0  0  0  0  0  0  0  0  0  0  0  0
   59.1843   29.9543   49.1046 H   0  0  0  0  0  0  0  0  0  0  0  0
   60.9120   29.2790   46.8530 H   0  0  0  0  0  0  0  0  0  0  0  0
   58.9128   28.2420   45.3645 H   0  0  0  0  0  0  0  0  0  0  0  0
   57.3707   27.7950   43.4643 H   0  0  0  0  0  0  0  0  0  0  0  0
   55.9909   29.6373   42.5166 H   0  0  0  0  0  0  0  0  0  0  0  0
   56.2101   31.9487   43.4000 H   0  0  0  0  0  0  0  0  0  0  0  0
   57.0562   34.6645   45.2147 H   0  0  0  0  0  0  0  0  0  0  0  0
   58.2170   34.2868   43.8969 H   0  0  0  0  0  0  0  0  0  0  0  0
   56.5838   33.5389   43.8969 H   0  0  0  0  0  0  0  0  0  0  0  0
   58.0871   35.0674   46.6753 H   0  0  0  0  0  0  0  0  0  0  0  0
   59.4480   35.4758   48.7110 H   0  0  0  0  0  0  0  0  0  0  0  0
   60.9969   32.7860   51.8906 H   0  0  0  0  0  0  0  0  0  0  0  0
   60.6921   34.5621   51.8027 H   0  0  0  0  0  0  0  0  0  0  0  0
   58.4536   34.3027   51.4961 H   0  0  0  0  0  0  0  0  0  0  0  0
   58.7147   32.8239   50.4267 H   0  0  0  0  0  0  0  0  0  0  0  0
   58.4239   32.3640   54.5873 H   0  0  0  0  0  0  0  0  0  0  0  0
   60.0195   32.7823   53.8760 H   0  0  0  0  0  0  0  0  0  0  0  0
   58.6913   33.9916   53.8760 H   0  0  0  0  0  0  0  0  0  0  0  0
   56.6313   32.1670   53.4961 H   0  0  0  0  0  0  0  0  0  0  0  0
   56.5897   33.2795   52.0527 H   0  0  0  0  0  0  0  0  0  0  0  0
   55.3365   31.1919   51.6346 H   0  0  0  0  0  0  0  0  0  0  0  0
   56.7873   31.3743   50.5516 H   0  0  0  0  0  0  0  0  0  0  0  0
   56.0968   29.2484   53.8337 H   0  0  0  0  0  0  0  0  0  0  0  0
   54.9189   29.4984   52.5007 H   0  0  0  0  0  0  0  0  0  0  0  0
   55.9811   28.0498   52.5007 H   0  0  0  0  0  0  0  0  0  0  0  0
   57.9861   30.0869   53.8181 H   0  0  0  0  0  0  0  0  0  0  0  0
   58.7428   28.9715   52.6171 H   0  0  0  0  0  0  0  0  0  0  0  0
   60.0581   31.0296   52.7598 H   0  0  0  0  0  0  0  0  0  0  0  0
   59.2120   30.9341   51.1519 H   0  0  0  0  0  0  0  0  0  0  0  0
   60.6925   31.3437   48.7270 H   0  0  0  0  0  0  0  0  0  0  0  0
  1  2  1  0
  2  3  1  0
  3  4  1  0
  4  5  1  0
  3  6  1  0
  6  7  1  0
  7  8  1  0
  8  9  1  0
  9 10  1  0
 10 11  1  0
 11 12  1  0
 12 13  1  0
 13 14  2  0
 14 15  1  0
 15 16  2  0
 16 17  1  0
 17 18  2  0
 18 19  1  0
 19 20  2  0
 20 21  1  0
 20 22  1  0
 22 23  2  0
 23 24  1  0
 24 25  2  0
 25 26  1  0
 26 27  1  0
 27 28  1  0
 28 29  1  0
 29 30  1  0
 29 31  1  0
 31 32  1  0
 32 33  1  0
 33 34  1  0
 33 35  1  0
 35 36  1  0
 25 37  1  0
 37 38  2  0
 38 13  1  0
 19 14  1  0
 38 22  1  0
 36 29  1  0
  1 39  1  0
  1 40  1  0
  1 41  1  0
  2 42  1  0
  2 43  1  0
  3 44  1  0
  4 45  1  0
  4 46  1  0
  5 47  1  0
  5 48  1  0
  5 49  1  0
  6 50  1  0
  6 51  1  0
  7 52  1  0
  7 53  1  0
  9 54  1  0
  9 55  1  0
 10 56  1  0
 10 57  1  0
 11 58  1  0
 11 59  1  0
 12 60  1  0
 15 61  1  0
 16 62  1  0
 17 63  1  0
 18 64  1  0
 21 65  1  0
 21 66  1  0
 21 67  1  0
 23 68  1  0
 24 69  1  0
 27 70  1  0
 27 71  1  0
 28 72  1  0
 28 73  1  0
 30 74  1  0
 30 75  1  0
 30 76  1  0
 31 77  1  0
 31 78  1  0
 32 79  1  0
 32 80  1  0
 34 81  1  0
 34 82  1  0
 34 83  1  0
 35 84  1  0
 35 85  1  0
 36 86  1  0
 36 87  1  0
 37 88  1  0
M  CHG  3   3   1  20   1  29   1
M  END
>  <UniqueID>  (31) 
30

>  <SMILES>  (31) 
CC[NH+](CC)CCOCCCNc1c2ccccc2[n+](C)c2ccc(OCC[N+]3(C)CCN(C)CC3)cc12

>  <Energy>  (31) 
139.6480861921481

>  <Genealogy>  (31) 
CC[NH+](CC)CCOCCCNc1c2ccccc2[n+](C)c2ccc(OCC[N+]3(C)CCN(C)CC3)cc12 (protonated)
CC[NH+](CC)CCOCCCNc1c2ccccc2[n+](C)c2ccc(OCC[N+]3(C)CCN(C)CC3)cc12 (3D coordinates assigned)
CC[NH+](CC)CCOCCCNc1c2ccccc2[n+](C)c2ccc(OCC[N+]3(C)CCN(C)CC3)cc12 (nonaromatic ring conformer: 139.6480861921481 kcal/mol)

>  <smiles>  (31) 
CCN(CC)CCOCCCNc1c2ccccc2[n+](C)c2ccc(OCC[N+]3(C)CCN(C)CC3)cc12

>  <score_type>  (31) 
oracle

>  <origin>  (31) 
adg

>  <m_score__min__energy>  (31) 
-3.9300000000000002

>  <m_primary>  (31) 
energy

$$$$
31:0
     RDKit          3D

 51 54  0  0  0  0  0  0  0  0999 V2000
   56.9910   24.3030   47.6170 C   0  0  0  0  0  0  0  0  0  0  0  0
   57.9660   25.3340   47.5000 O   0  0  0  0  0  0  0  0  0  0  0  0
   57.9750   26.3050   46.4880 C   0  0  0  0  0  0  0  0  0  0  0  0
   57.8360   25.9700   45.1130 C   0  0  0  0  0  0  0  0  0  0  0  0
   57.8480   26.9720   44.1270 C   0  0  0  0  0  0  0  0  0  0  0  0
   58.0010   28.2940   44.5350 C   0  0  0  0  0  0  0  0  0  0  0  0
   58.0440   29.3840   43.7440 N   0  0  0  0  0  0  0  0  0  0  0  0
   58.2140   30.4310   44.5930 C   0  0  0  0  0  0  0  0  0  0  0  0
   58.2930   30.0000   45.9010 C   0  0  0  0  0  0  0  0  0  0  0  0
   58.5290   30.8860   46.9470 C   0  0  0  0  0  0  0  0  0  0  0  0
   58.6660   30.4160   48.2910 N   0  0  0  0  0  0  0  0  0  0  0  0
   59.9750   30.4180   48.9450 C   0  0  0  0  0  0  0  0  0  0  0  0
   59.8390   30.2960   50.4680 C   0  0  0  0  0  0  0  0  0  0  0  0
   58.4160   30.2300   50.8700 N   0  0  0  0  0  0  0  0  0  0  0  0
   57.8780   31.5840   51.0780 C   0  0  0  0  0  0  0  0  0  0  0  0
   58.2490   29.4420   52.1050 C   0  0  0  0  0  0  0  0  0  0  0  0
   58.6830   32.2530   46.6230 C   0  0  0  0  0  0  0  0  0  0  0  0
   58.9190   33.2060   47.6320 C   0  0  0  0  0  0  0  0  0  0  0  0
   59.1130   34.5470   47.3100 C   0  0  0  0  0  0  0  0  0  0  0  0
   59.0800   34.9610   45.9830 C   0  0  0  0  0  0  0  0  0  0  0  0
   58.8320   34.0420   44.9630 C   0  0  0  0  0  0  0  0  0  0  0  0
   58.6020   32.6730   45.2520 C   0  0  0  0  0  0  0  0  0  0  0  0
   58.3200   31.7550   44.2500 N   0  0  0  0  0  0  0  0  0  0  0  0
   58.1480   32.1810   42.8470 C   0  0  0  0  0  0  0  0  0  0  0  0
   58.1440   28.6250   45.8640 C   0  0  0  0  0  0  0  0  0  0  0  0
   58.1270   27.6520   46.8650 C   0  0  0  0  0  0  0  0  0  0  0  0
   56.7985   24.0994   48.6807 H   0  0  0  0  0  0  0  0  0  0  0  0
   56.0581   24.6236   47.1303 H   0  0  0  0  0  0  0  0  0  0  0  0
   57.3632   23.3894   47.1303 H   0  0  0  0  0  0  0  0  0  0  0  0
   57.7180   24.9169   44.8181 H   0  0  0  0  0  0  0  0  0  0  0  0
   57.7394   26.7182   43.0622 H   0  0  0  0  0  0  0  0  0  0  0  0
   57.9890   29.3790   42.7020 H   0  0  0  0  0  0  0  0  0  0  0  0
   57.8240   30.0240   48.7700 H   0  0  0  0  0  0  0  0  0  0  0  0
   60.5644   29.5687   48.5690 H   0  0  0  0  0  0  0  0  0  0  0  0
   60.4749   31.3710   48.7169 H   0  0  0  0  0  0  0  0  0  0  0  0
   60.3501   29.3812   50.8026 H   0  0  0  0  0  0  0  0  0  0  0  0
   60.2936   31.1834   50.9326 H   0  0  0  0  0  0  0  0  0  0  0  0
   57.7981   31.7851   52.1565 H   0  0  0  0  0  0  0  0  0  0  0  0
   58.5516   32.3211   50.6165 H   0  0  0  0  0  0  0  0  0  0  0  0
   56.8822   31.6578   50.6165 H   0  0  0  0  0  0  0  0  0  0  0  0
   58.3876   30.0958   52.9787 H   0  0  0  0  0  0  0  0  0  0  0  0
   57.2388   29.0074   52.1288 H   0  0  0  0  0  0  0  0  0  0  0  0
   58.9961   28.6349   52.1288 H   0  0  0  0  0  0  0  0  0  0  0  0
   58.9505   32.8884   48.6847 H   0  0  0  0  0  0  0  0  0  0  0  0
   59.2931   35.2816   48.1087 H   0  0  0  0  0  0  0  0  0  0  0  0
   59.2504   36.0193   45.7360 H   0  0  0  0  0  0  0  0  0  0  0  0
   58.8146   34.3849   43.9180 H   0  0  0  0  0  0  0  0  0  0  0  0
   57.7363   33.2007   42.8213 H   0  0  0  0  0  0  0  0  0  0  0  0
   59.1226   32.1661   42.3372 H   0  0  0  0  0  0  0  0  0  0  0  0
   57.4570   31.4936   42.3372 H   0  0  0  0  0  0  0  0  0  0  0  0
   58.2300   27.9319   47.9238 H   0  0  0  0  0  0  0  0  0  0  0  0
  1  2  1  0
  2  3  1  0
  3  4  2  0
  4  5  1  0
  5  6  2  0
  6  7  1  0
  7  8  1  0
  8  9  2  0
  9 10  1  0
 10 11  1  0
 11 12  1  0
 12 13  1  0
 13 14  1  0
 14 15  1  0
 14 16  1  0
 10 17  2  0
 17 18  1  0
 18 19  2  0
 19 20  1  0
 20 21  2  0
 21 22  1  0
 22 23  2  0
 23 24  1  0
  9 25  1  0
 25 26  2  0
 26  3  1  0
 25  6  1  0
 23  8  1  0
 22 17  1  0
  1 27  1  0
  1 28  1  0
  1 29  1  0
  4 30  1  0
  5 31  1  0
  7 32  1  0
 11 33  1  0
 12 34  1  0
 12 35  1  0
 13 36  1  0
 13 37  1  0
 15 38  1  0
 15 39  1  0
 15 40  1  0
 16 41  1  0
 16 42  1  0
 16 43  1  0
 18 44  1  0
 19 45  1  0
 20 46  1  0
 21 47  1  0
 24 48  1  0
 24 49  1  0
 24 50  1  0
 26 51  1  0
M  CHG  1  23   1
M  END
>  <UniqueID>  (32) 
31

>  <SMILES>  (32) 
COc1ccc2[nH]c3c(c(NCCN(C)C)c4ccccc4[n+]3C)c2c1

>  <Energy>  (32) 
108.77126973724246

>  <Genealogy>  (32) 
COc1ccc2[nH]c3c(c(NCCN(C)C)c4ccccc4[n+]3C)c2c1 (3D coordinates assigned)
COc1ccc2[nH]c3c(c(NCCN(C)C)c4ccccc4[n+]3C)c2c1 (optimized conformer: 108.77126973724246 kcal/mol)

>  <smiles>  (32) 
COc1ccc2[nH]c3c(c(NCCN(C)C)c4ccccc4[n+]3C)c2c1

>  <score_type>  (32) 
oracle

>  <origin>  (32) 
adg

>  <m_score__min__energy>  (32) 
-5.8300000000000001

>  <m_primary>  (32) 
energy

$$$$
32:0
     RDKit          3D

 36 36  0  0  0  0  0  0  0  0999 V2000
   60.3580   32.9690   49.0810 C   0  0  0  0  0  0  0  0  0  0  0  0
   60.8580   34.2160   48.3570 C   0  0  0  0  0  0  0  0  0  0  0  0
   61.2460   33.9030   46.9910 N   0  0  0  0  0  0  0  0  0  0  0  0
   62.5270   33.2410   46.7520 C   0  0  0  0  0  0  0  0  0  0  0  0
   63.5420   33.6270   47.8240 C   0  0  0  0  0  0  0  0  0  0  0  0
   60.4570   34.2300   46.0680 N   0  0  0  0  0  0  0  0  0  0  0  0
   58.7720   33.8530   45.9940 S   0  0  0  0  0  0  0  0  0  0  0  0
   58.1370   34.6160   44.8620 O   0  0  0  0  0  0  0  0  0  0  0  0
   58.0900   34.1940   47.2900 O   0  0  0  0  0  0  0  0  0  0  0  0
   58.6060   32.1230   45.7160 C   0  0  0  0  0  0  0  0  0  0  0  0
   59.6060   31.2360   46.1170 C   0  0  0  0  0  0  0  0  0  0  0  0
   59.4660   29.8680   45.8860 C   0  0  0  0  0  0  0  0  0  0  0  0
   58.3190   29.3600   45.2440 C   0  0  0  0  0  0  0  0  0  0  0  0
   58.1760   27.9860   44.9890 O   0  0  0  0  0  0  0  0  0  0  0  0
   57.4550   27.0760   45.8140 C   0  0  0  0  0  0  0  0  0  0  0  0
   57.3000   30.2540   44.8380 C   0  0  0  0  0  0  0  0  0  0  0  0
   56.1030   29.7830   44.1790 N   0  0  0  0  0  0  0  0  0  0  0  0
   55.1450   29.3460   44.8480 O   0  0  0  0  0  0  0  0  0  0  0  0
   56.0020   29.7670   42.8070 O   0  0  0  0  0  0  0  0  0  0  0  0
   57.4640   31.6330   45.0760 C   0  0  0  0  0  0  0  0  0  0  0  0
   60.4210   33.1261   50.1679 H   0  0  0  0  0  0  0  0  0  0  0  0
   59.3127   32.7753   48.7985 H   0  0  0  0  0  0  0  0  0  0  0  0
   60.9800   32.1068   48.7985 H   0  0  0  0  0  0  0  0  0  0  0  0
   60.0558   34.9684   48.3400 H   0  0  0  0  0  0  0  0  0  0  0  0
   61.7375   34.6037   48.8919 H   0  0  0  0  0  0  0  0  0  0  0  0
   62.3792   32.1511   46.7704 H   0  0  0  0  0  0  0  0  0  0  0  0
   62.9111   33.5576   45.7710 H   0  0  0  0  0  0  0  0  0  0  0  0
   63.1049   33.4608   48.8196 H   0  0  0  0  0  0  0  0  0  0  0  0
   64.4457   33.0098   47.7126 H   0  0  0  0  0  0  0  0  0  0  0  0
   63.8072   34.6887   47.7126 H   0  0  0  0  0  0  0  0  0  0  0  0
   60.5083   31.6175   46.6173 H   0  0  0  0  0  0  0  0  0  0  0  0
   60.2595   29.1778   46.2084 H   0  0  0  0  0  0  0  0  0  0  0  0
   57.6424   27.3126   46.8718 H   0  0  0  0  0  0  0  0  0  0  0  0
   56.3789   27.1641   45.6037 H   0  0  0  0  0  0  0  0  0  0  0  0
   57.7868   26.0485   45.6037 H   0  0  0  0  0  0  0  0  0  0  0  0
   56.6811   32.3350   44.7531 H   0  0  0  0  0  0  0  0  0  0  0  0
  1  2  1  0
  2  3  1  0
  3  4  1  0
  4  5  1  0
  3  6  2  3
  6  7  1  0
  7  8  2  0
  7  9  2  0
  7 10  1  0
 10 11  2  0
 11 12  1  0
 12 13  2  0
 13 14  1  0
 14 15  1  0
 13 16  1  0
 16 17  1  0
 17 18  2  0
 17 19  1  0
 16 20  2  0
 20 10  1  0
  1 21  1  0
  1 22  1  0
  1 23  1  0
  2 24  1  0
  2 25  1  0
  4 26  1  0
  4 27  1  0
  5 28  1  0
  5 29  1  0
  5 30  1  0
 11 31  1  0
 12 32  1  0
 15 33  1  0
 15 34  1  0
 15 35  1  0
 20 36  1  0
M  CHG  3   3   1  17   1  19  -1
M  END
>  <UniqueID>  (33) 
32

>  <SMILES>  (33) 
CC[N+](CC)=NS(=O)(=O)c1ccc(OC)c([N+](=O)[O-])c1

>  <Energy>  (33) 
37.758030911689296

>  <Genealogy>  (33) 
CC[N+](CC)=NS(=O)(=O)c1ccc(OC)c([N+](=O)[O-])c1 (3D coordinates assigned)
CC[N+](CC)=NS(=O)(=O)c1ccc(OC)c([N+](=O)[O-])c1 (optimized conformer: 37.758030911689296 kcal/mol)

>  <smiles>  (33) 
CC[N+](CC)=NS(=O)(=O)c1ccc(OC)c([N+](=O)[O-])c1

>  <score_type>  (33) 
oracle

>  <origin>  (33) 
adg

>  <m_score__min__energy>  (33) 
-5.6399999999999997

>  <m_primary>  (33) 
energy

$$$$
