0:0
     RDKit          3D

 36 38  0  0  0  0  0  0  0  0999 V2000
   54.3490   24.7040   45.6300 C   0  0  0  0  0  0  0  0  0  0  0  0
   55.1400   25.7570   46.1730 O   0  0  0  0  0  0  0  0  0  0  0  0
   56.5240   25.8940   45.9800 C   0  0  0  0  0  0  0  0  0  0  0  0
   57.4190   24.8340   46.2310 C   0  0  0  0  0  0  0  0  0  0  0  0
   58.7910   25.0100   46.0470 C   0  0  0  0  0  0  0  0  0  0  0  0
   59.2870   26.2370   45.6110 C   0  0  0  0  0  0  0  0  0  0  0  0
   58.4140   27.2940   45.3580 C   0  0  0  0  0  0  0  0  0  0  0  0
   57.0270   27.1350   45.5410 C   0  0  0  0  0  0  0  0  0  0  0  0
   56.1270   28.2290   45.2990 N   0  0  0  0  0  0  0  0  0  0  0  0
   56.6620   29.7510   44.6630 S   0  0  0  0  0  0  0  0  0  0  0  0
   55.4770   30.6530   44.4630 O   0  0  0  0  0  0  0  0  0  0  0  0
   57.3320   29.5200   43.3380 O   0  0  0  0  0  0  0  0  0  0  0  0
   57.7720   30.5190   45.8040 C   0  0  0  0  0  0  0  0  0  0  0  0
   58.3120   29.7720   46.8610 C   0  0  0  0  0  0  0  0  0  0  0  0
   59.1660   30.3710   47.7910 C   0  0  0  0  0  0  0  0  0  0  0  0
   59.4910   31.7250   47.6800 C   0  0  0  0  0  0  0  0  0  0  0  0
   58.9650   32.4870   46.6290 C   0  0  0  0  0  0  0  0  0  0  0  0
   59.2710   33.8480   46.4980 C   0  0  0  0  0  0  0  0  0  0  0  0
   58.7290   34.5840   45.4440 C   0  0  0  0  0  0  0  0  0  0  0  0
   57.8880   33.9530   44.5260 C   0  0  0  0  0  0  0  0  0  0  0  0
   57.6000   32.6320   44.6610 N   0  0  0  0  0  0  0  0  0  0  0  0
   58.1050   31.8830   45.6810 C   0  0  0  0  0  0  0  0  0  0  0  0
   53.9080   24.1169   46.4490 H   0  0  0  0  0  0  0  0  0  0  0  0
   53.5460   25.1304   45.0108 H   0  0  0  0  0  0  0  0  0  0  0  0
   54.9822   24.0516   45.0108 H   0  0  0  0  0  0  0  0  0  0  0  0
   57.0335   23.8625   46.5739 H   0  0  0  0  0  0  0  0  0  0  0  0
   59.4826   24.1782   46.2466 H   0  0  0  0  0  0  0  0  0  0  0  0
   60.3691   26.3718   45.4662 H   0  0  0  0  0  0  0  0  0  0  0  0
   58.8118   28.2597   45.0127 H   0  0  0  0  0  0  0  0  0  0  0  0
   55.1550   28.1890   45.6800 H   0  0  0  0  0  0  0  0  0  0  0  0
   58.0612   28.7055   46.9589 H   0  0  0  0  0  0  0  0  0  0  0  0
   59.5843   29.7734   48.6144 H   0  0  0  0  0  0  0  0  0  0  0  0
   60.1597   32.1926   48.4177 H   0  0  0  0  0  0  0  0  0  0  0  0
   59.9374   34.3353   47.2249 H   0  0  0  0  0  0  0  0  0  0  0  0
   58.9627   35.6536   45.3372 H   0  0  0  0  0  0  0  0  0  0  0  0
   57.4576   34.5262   43.6917 H   0  0  0  0  0  0  0  0  0  0  0  0
  1  2  1  0
  2  3  1  0
  3  4  2  0
  4  5  1  0
  5  6  2  0
  6  7  1  0
  7  8  2  0
  8  9  1  0
  9 10  1  0
 10 11  2  0
 10 12  2  0
 10 13  1  0
 13 14  2  0
 14 15  1  0
 15 16  2  0
 16 17  1  0
 17 18  2  0
 18 19  1  0
 19 20  2  0
 20 21  1  0
 21 22  2  0
  8  3  1  0
 22 13  1  0
 22 17  1  0
  1 23  1  0
  1 24  1  0
  1 25  1  0
  4 26  1  0
  5 27  1  0
  6 28  1  0
  7 29  1  0
  9 30  1  0
 14 31  1  0
 15 32  1  0
 16 33  1  0
 18 34  1  0
 19 35  1  0
 20 36  1  0
M  END
>  <UniqueID>  (1) 
1

>  <SMILES>  (1) 
COc1ccccc1NS(=O)(=O)c1cccc2cccnc12

>  <Energy>  (1) 
44.76930203034718

>  <Genealogy>  (1) 
COc1ccccc1NS(=O)(=O)c1cccc2cccnc12 (3D coordinates assigned)
COc1ccccc1NS(=O)(=O)c1cccc2cccnc12 (optimized conformer: 44.76930203034718 kcal/mol)

>  <smiles>  (1) 
COc1ccccc1NS(=O)(=O)c1cccc2cccnc12

>  <score_type>  (1) 
oracle

>  <origin>  (1) 
adg

>  <m_score__min__energy>  (1) 
-8.5199999999999996

>  <m_primary>  (1) 
energy

$$$$
1:0
     RDKit          3D

 54 57  0  0  0  0  0  0  0  0999 V2000
   60.0820   33.8440   49.6270 C   0  0  0  0  0  0  0  0  0  0  0  0
   61.3780   33.0550   49.4600 C   0  0  0  0  0  0  0  0  0  0  0  0
   61.5310   32.6090   48.0560 N   0  0  0  0  0  0  0  0  0  0  0  0
   62.2750   33.6080   47.2540 C   0  0  0  0  0  0  0  0  0  0  0  0
   63.7100   33.1410   47.0290 C   0  0  0  0  0  0  0  0  0  0  0  0
   62.1750   31.2770   47.9850 C   0  0  0  0  0  0  0  0  0  0  0  0
   61.1550   30.2240   47.5240 C   0  0  0  0  0  0  0  0  0  0  0  0
   59.7550   30.6360   47.7610 N   0  0  0  0  0  0  0  0  0  0  0  0
   58.9820   30.6940   46.5340 C   0  0  0  0  0  0  0  0  0  0  0  0
   58.6150   31.9520   45.9560 C   0  0  0  0  0  0  0  0  0  0  0  0
   58.9770   33.1800   46.5640 C   0  0  0  0  0  0  0  0  0  0  0  0
   58.5730   34.3980   46.0270 C   0  0  0  0  0  0  0  0  0  0  0  0
   57.7940   34.4330   44.8800 C   0  0  0  0  0  0  0  0  0  0  0  0
   57.4310   33.2490   44.2450 C   0  0  0  0  0  0  0  0  0  0  0  0
   57.8540   31.9890   44.7400 C   0  0  0  0  0  0  0  0  0  0  0  0
   57.5310   30.8190   44.0800 N   0  0  0  0  0  0  0  0  0  0  0  0
   56.8870   30.8370   42.7510 C   0  0  0  0  0  0  0  0  0  0  0  0
   57.8150   29.6240   44.6840 C   0  0  0  0  0  0  0  0  0  0  0  0
   57.4370   28.4070   44.2270 N   0  0  0  0  0  0  0  0  0  0  0  0
   57.9300   27.5240   45.1060 C   0  0  0  0  0  0  0  0  0  0  0  0
   57.7780   26.1400   45.0400 C   0  0  0  0  0  0  0  0  0  0  0  0
   58.3520   25.3600   46.0520 C   0  0  0  0  0  0  0  0  0  0  0  0
   59.0570   25.9740   47.1030 C   0  0  0  0  0  0  0  0  0  0  0  0
   59.1980   27.3710   47.1530 C   0  0  0  0  0  0  0  0  0  0  0  0
   58.6180   28.1470   46.1320 C   0  0  0  0  0  0  0  0  0  0  0  0
   58.5340   29.5280   45.8690 C   0  0  0  0  0  0  0  0  0  0  0  0
   59.8676   33.9745   50.6980 H   0  0  0  0  0  0  0  0  0  0  0  0
   60.1893   34.8302   49.1517 H   0  0  0  0  0  0  0  0  0  0  0  0
   59.2552   33.2959   49.1517 H   0  0  0  0  0  0  0  0  0  0  0  0
   62.2301   33.6951   49.7323 H   0  0  0  0  0  0  0  0  0  0  0  0
   61.3459   32.1715   50.1146 H   0  0  0  0  0  0  0  0  0  0  0  0
   61.7779   33.7359   46.2811 H   0  0  0  0  0  0  0  0  0  0  0  0
   62.2901   34.5645   47.7970 H   0  0  0  0  0  0  0  0  0  0  0  0
   64.2003   32.9814   48.0007 H   0  0  0  0  0  0  0  0  0  0  0  0
   63.7042   32.1984   46.4621 H   0  0  0  0  0  0  0  0  0  0  0  0
   64.2601   33.9065   46.4621 H   0  0  0  0  0  0  0  0  0  0  0  0
   63.0096   31.3136   47.2693 H   0  0  0  0  0  0  0  0  0  0  0  0
   62.5504   31.0038   48.9822 H   0  0  0  0  0  0  0  0  0  0  0  0
   61.2922   30.0508   46.4464 H   0  0  0  0  0  0  0  0  0  0  0  0
   61.3343   29.3116   48.1116 H   0  0  0  0  0  0  0  0  0  0  0  0
   59.7090   31.5240   48.2920 H   0  0  0  0  0  0  0  0  0  0  0  0
   59.3070   29.9590   48.4170 H   0  0  0  0  0  0  0  0  0  0  0  0
   59.5891   33.1698   47.4779 H   0  0  0  0  0  0  0  0  0  0  0  0
   58.8727   35.3376   46.5142 H   0  0  0  0  0  0  0  0  0  0  0  0
   57.4623   35.3989   44.4713 H   0  0  0  0  0  0  0  0  0  0  0  0
   56.8041   33.2912   43.3421 H   0  0  0  0  0  0  0  0  0  0  0  0
   55.7943   30.8675   42.8734 H   0  0  0  0  0  0  0  0  0  0  0  0
   57.2186   31.7262   42.1949 H   0  0  0  0  0  0  0  0  0  0  0  0
   57.1685   29.9306   42.1949 H   0  0  0  0  0  0  0  0  0  0  0  0
   56.8490   28.1690   43.3980 H   0  0  0  0  0  0  0  0  0  0  0  0
   57.2216   25.6723   44.2144 H   0  0  0  0  0  0  0  0  0  0  0  0
   58.2512   24.2650   46.0248 H   0  0  0  0  0  0  0  0  0  0  0  0
   59.5028   25.3536   47.8944 H   0  0  0  0  0  0  0  0  0  0  0  0
   59.7513   27.8493   47.9747 H   0  0  0  0  0  0  0  0  0  0  0  0
  1  2  1  0
  2  3  1  0
  3  4  1  0
  4  5  1  0
  3  6  1  0
  6  7  1  0
  7  8  1  0
  8  9  1  0
  9 10  2  0
 10 11  1  0
 11 12  2  0
 12 13  1  0
 13 14  2  0
 14 15  1  0
 15 16  2  0
 16 17  1  0
 16 18  1  0
 18 19  1  0
 19 20  1  0
 20 21  2  0
 21 22  1  0
 22 23  2  0
 23 24  1  0
 24 25  2  0
 25 26  1  0
 26  9  1  0
 15 10  1  0
 26 18  2  0
 25 20  1  0
  1 27  1  0
  1 28  1  0
  1 29  1  0
  2 30  1  0
  2 31  1  0
  4 32  1  0
  4 33  1  0
  5 34  1  0
  5 35  1  0
  5 36  1  0
  6 37  1  0
  6 38  1  0
  7 39  1  0
  7 40  1  0
  8 41  1  0
  8 42  1  0
 11 43  1  0
 12 44  1  0
 13 45  1  0
 14 46  1  0
 17 47  1  0
 17 48  1  0
 17 49  1  0
 19 50  1  0
 21 51  1  0
 22 52  1  0
 23 53  1  0
 24 54  1  0
M  CHG  2   8   1  16   1
M  END
>  <UniqueID>  (2) 
2

>  <SMILES>  (2) 
CCN(CC)CC[NH2+]c1c2ccccc2[n+](C)c2[nH]c3ccccc3c12

>  <Energy>  (2) 
116.37765991226556

>  <Genealogy>  (2) 
CCN(CC)CC[NH2+]c1c2ccccc2[n+](C)c2[nH]c3ccccc3c12 (protonated)
CCN(CC)CC[NH2+]c1c2ccccc2[n+](C)c2[nH]c3ccccc3c12 (3D coordinates assigned)
CCN(CC)CC[NH2+]c1c2ccccc2[n+](C)c2[nH]c3ccccc3c12 (optimized conformer: 116.37765991226556 kcal/mol)

>  <smiles>  (2) 
CCN(CC)CCNc1c2ccccc2[n+](C)c2[nH]c3ccccc3c12

>  <score_type>  (2) 
oracle

>  <origin>  (2) 
adg

>  <m_score__min__energy>  (2) 
-4.8700000000000001

>  <m_primary>  (2) 
energy

$$$$
2:0
     RDKit          3D

 31 31  0  0  0  0  0  0  0  0999 V2000
   57.3240   24.9110   43.5660 C   0  0  0  0  0  0  0  0  0  0  0  0
   57.7870   26.0760   42.6850 C   0  0  0  0  0  0  0  0  0  0  0  0
   57.8410   27.3530   43.4210 N   0  0  0  0  0  0  0  0  0  0  0  0
   58.7060   27.2750   44.6100 C   0  0  0  0  0  0  0  0  0  0  0  0
   58.0770   28.0210   45.7910 C   0  0  0  0  0  0  0  0  0  0  0  0
   57.0390   28.9340   45.3130 N   0  0  0  0  0  0  0  0  0  0  0  0
   57.3750   30.2030   44.7230 C   0  0  0  0  0  0  0  0  0  0  0  0
   57.9380   31.1420   45.5950 C   0  0  0  0  0  0  0  0  0  0  0  0
   58.3910   32.4300   45.3460 C   0  0  0  0  0  0  0  0  0  0  0  0
   58.4110   33.1250   44.1500 C   0  0  0  0  0  0  0  0  0  0  0  0
   57.9520   32.7090   42.9120 C   0  0  0  0  0  0  0  0  0  0  0  0
   57.3470   31.5060   42.5710 C   0  0  0  0  0  0  0  0  0  0  0  0
   57.0730   30.3860   43.3590 C   0  0  0  0  0  0  0  0  0  0  0  0
   56.4800   29.4410   42.7700 O   0  0  0  0  0  0  0  0  0  0  0  0
   57.4334   25.1864   44.6253 H   0  0  0  0  0  0  0  0  0  0  0  0
   56.2684   24.6868   43.3526 H   0  0  0  0  0  0  0  0  0  0  0  0
   57.9377   24.0234   43.3526 H   0  0  0  0  0  0  0  0  0  0  0  0
   58.7915   25.8487   42.2985 H   0  0  0  0  0  0  0  0  0  0  0  0
   57.0568   26.1901   41.8702 H   0  0  0  0  0  0  0  0  0  0  0  0
   58.1740   28.1170   42.7860 H   0  0  0  0  0  0  0  0  0  0  0  0
   56.8670   27.5850   43.7280 H   0  0  0  0  0  0  0  0  0  0  0  0
   58.8472   26.2192   44.8845 H   0  0  0  0  0  0  0  0  0  0  0  0
   59.6734   27.7420   44.3732 H   0  0  0  0  0  0  0  0  0  0  0  0
   57.6304   27.2935   46.4847 H   0  0  0  0  0  0  0  0  0  0  0  0
   58.8565   28.6005   46.3073 H   0  0  0  0  0  0  0  0  0  0  0  0
   56.0870   28.8250   45.7330 H   0  0  0  0  0  0  0  0  0  0  0  0
   58.0366   30.8076   46.6383 H   0  0  0  0  0  0  0  0  0  0  0  0
   58.7878   32.9714   46.2174 H   0  0  0  0  0  0  0  0  0  0  0  0
   58.8461   34.1346   44.1874 H   0  0  0  0  0  0  0  0  0  0  0  0
   58.0839   33.4266   42.0888 H   0  0  0  0  0  0  0  0  0  0  0  0
   57.0361   31.4228   41.5191 H   0  0  0  0  0  0  0  0  0  0  0  0
  1  2  1  0
  2  3  1  0
  3  4  1  0
  4  5  1  0
  5  6  1  0
  6  7  1  0
  7  8  2  0
  8  9  1  0
  9 10  2  0
 10 11  1  0
 11 12  2  0
 12 13  1  0
 13 14  2  0
 13  7  1  0
  1 15  1  0
  1 16  1  0
  1 17  1  0
  2 18  1  0
  2 19  1  0
  3 20  1  0
  3 21  1  0
  4 22  1  0
  4 23  1  0
  5 24  1  0
  5 25  1  0
  6 26  1  0
  8 27  1  0
  9 28  1  0
 10 29  1  0
 11 30  1  0
 12 31  1  0
M  CHG  1   3   1
M  END
>  <UniqueID>  (3) 
3

>  <SMILES>  (3) 
CC[NH2+]CCNc1cccccc1=O

>  <Energy>  (3) 
47.29325418626382

>  <Genealogy>  (3) 
CC[NH2+]CCNc1cccccc1=O (protonated)
CC[NH2+]CCNc1cccccc1=O (3D coordinates assigned)
CC[NH2+]CCNc1cccccc1=O (optimized conformer: 47.29325418626382 kcal/mol)

>  <smiles>  (3) 
CCNCCNc1cccccc1=O

>  <score_type>  (3) 
oracle

>  <origin>  (3) 
adg

>  <m_score__min__energy>  (3) 
-3.9100000000000001

>  <m_primary>  (3) 
energy

$$$$
3:0
     RDKit          3D

 50 53  0  0  0  0  0  0  0  0999 V2000
   59.3110   33.4890   50.7260 C   0  0  0  0  0  0  0  0  0  0  0  0
   59.7190   34.0040   49.4640 O   0  0  0  0  0  0  0  0  0  0  0  0
   61.0170   33.9020   48.9410 C   0  0  0  0  0  0  0  0  0  0  0  0
   62.1560   34.0620   49.7570 C   0  0  0  0  0  0  0  0  0  0  0  0
   63.4370   33.9260   49.2200 C   0  0  0  0  0  0  0  0  0  0  0  0
   63.6000   33.6280   47.8680 C   0  0  0  0  0  0  0  0  0  0  0  0
   62.4830   33.4710   47.0460 C   0  0  0  0  0  0  0  0  0  0  0  0
   61.1850   33.6120   47.5680 C   0  0  0  0  0  0  0  0  0  0  0  0
   60.0440   33.4660   46.6980 N   0  0  0  0  0  0  0  0  0  0  0  0
   59.3080   32.1970   46.6510 C   0  0  0  0  0  0  0  0  0  0  0  0
   57.8690   32.4440   46.1780 C   0  0  0  0  0  0  0  0  0  0  0  0
   57.7850   33.1650   44.8700 N   0  0  0  0  0  0  0  0  0  0  0  0
   57.3980   32.2540   43.7650 C   0  0  0  0  0  0  0  0  0  0  0  0
   56.9510   30.9130   44.2730 C   0  0  0  0  0  0  0  0  0  0  0  0
   55.6530   30.4660   44.3590 C   0  0  0  0  0  0  0  0  0  0  0  0
   55.6880   29.2610   44.8680 O   0  0  0  0  0  0  0  0  0  0  0  0
   56.9510   28.9630   45.0960 C   0  0  0  0  0  0  0  0  0  0  0  0
   57.3900   27.6630   45.6640 C   0  0  0  0  0  0  0  0  0  0  0  0
   56.4040   26.7090   45.9820 C   0  0  0  0  0  0  0  0  0  0  0  0
   56.7580   25.4620   46.5030 C   0  0  0  0  0  0  0  0  0  0  0  0
   58.0980   25.1480   46.7180 C   0  0  0  0  0  0  0  0  0  0  0  0
   59.0900   26.0830   46.4200 C   0  0  0  0  0  0  0  0  0  0  0  0
   58.7520   27.3390   45.8970 C   0  0  0  0  0  0  0  0  0  0  0  0
   60.0760   28.4600   45.5970 Cl  0  0  0  0  0  0  0  0  0  0  0  0
   57.7840   29.9640   44.7390 N   0  0  0  0  0  0  0  0  0  0  0  0
   59.0300   33.8880   44.5010 C   0  0  0  0  0  0  0  0  0  0  0  0
   59.7160   34.5110   45.7200 C   0  0  0  0  0  0  0  0  0  0  0  0
   59.7771   34.0773   51.5301 H   0  0  0  0  0  0  0  0  0  0  0  0
   58.2162   33.5535   50.8118 H   0  0  0  0  0  0  0  0  0  0  0  0
   59.6242   32.4380   50.8118 H   0  0  0  0  0  0  0  0  0  0  0  0
   62.0339   34.2958   50.8249 H   0  0  0  0  0  0  0  0  0  0  0  0
   64.3192   34.0541   49.8645 H   0  0  0  0  0  0  0  0  0  0  0  0
   64.6106   33.5164   47.4483 H   0  0  0  0  0  0  0  0  0  0  0  0
   62.6193   33.2349   45.9803 H   0  0  0  0  0  0  0  0  0  0  0  0
   59.8088   31.5108   45.9522 H   0  0  0  0  0  0  0  0  0  0  0  0
   59.2869   31.7535   47.6574 H   0  0  0  0  0  0  0  0  0  0  0  0
   57.3658   31.4716   46.0722 H   0  0  0  0  0  0  0  0  0  0  0  0
   57.3868   33.0843   46.9313 H   0  0  0  0  0  0  0  0  0  0  0  0
   57.0360   33.8940   44.9590 H   0  0  0  0  0  0  0  0  0  0  0  0
   56.5737   32.7123   43.1988 H   0  0  0  0  0  0  0  0  0  0  0  0
   58.2805   32.0991   43.1269 H   0  0  0  0  0  0  0  0  0  0  0  0
   54.7519   31.0193   44.0559 H   0  0  0  0  0  0  0  0  0  0  0  0
   55.3429   26.9485   45.8183 H   0  0  0  0  0  0  0  0  0  0  0  0
   55.9766   24.7263   46.7440 H   0  0  0  0  0  0  0  0  0  0  0  0
   58.3741   24.1631   47.1226 H   0  0  0  0  0  0  0  0  0  0  0  0
   60.1463   25.8324   46.5970 H   0  0  0  0  0  0  0  0  0  0  0  0
   59.7246   33.1792   44.0266 H   0  0  0  0  0  0  0  0  0  0  0  0
   58.7583   34.7014   43.8122 H   0  0  0  0  0  0  0  0  0  0  0  0
   60.6404   35.0145   45.4005 H   0  0  0  0  0  0  0  0  0  0  0  0
   59.0362   35.2406   46.1843 H   0  0  0  0  0  0  0  0  0  0  0  0
  1  2  1  0
  2  3  1  0
  3  4  2  0
  4  5  1  0
  5  6  2  0
  6  7  1  0
  7  8  2  0
  8  9  1  0
  9 10  1  0
 10 11  1  0
 11 12  1  0
 12 13  1  0
 13 14  1  0
 14 15  2  0
 15 16  1  0
 16 17  1  0
 17 18  1  0
 18 19  2  0
 19 20  1  0
 20 21  2  0
 21 22  1  0
 22 23  2  0
 23 24  1  0
 17 25  2  0
 12 26  1  0
 26 27  1  0
  8  3  1  0
 27  9  1  0
 25 14  1  0
 23 18  1  0
  1 28  1  0
  1 29  1  0
  1 30  1  0
  4 31  1  0
  5 32  1  0
  6 33  1  0
  7 34  1  0
 10 35  1  0
 10 36  1  0
 11 37  1  0
 11 38  1  0
 12 39  1  0
 13 40  1  0
 13 41  1  0
 15 42  1  0
 19 43  1  0
 20 44  1  0
 21 45  1  0
 22 46  1  0
 26 47  1  0
 26 48  1  0
 27 49  1  0
 27 50  1  0
M  CHG  1  12   1
M  END
>  <UniqueID>  (4) 
4

>  <SMILES>  (4) 
COc1ccccc1N1CC[NH+](Cc2coc(-c3ccccc3Cl)n2)CC1

>  <Energy>  (4) 
98.22407925195664

>  <Genealogy>  (4) 
COc1ccccc1N1CC[NH+](Cc2coc(-c3ccccc3Cl)n2)CC1 (protonated)
COc1ccccc1N1CC[NH+](Cc2coc(-c3ccccc3Cl)n2)CC1 (3D coordinates assigned)
COc1ccccc1N1CC[NH+](Cc2coc(-c3ccccc3Cl)n2)CC1 (nonaromatic ring conformer: 98.22407925195664 kcal/mol)

>  <smiles>  (4) 
COc1ccccc1N1CCN(Cc2coc(-c3ccccc3Cl)n2)CC1

>  <score_type>  (4) 
oracle

>  <origin>  (4) 
adg

>  <m_score__min__energy>  (4) 
-6.7599999999999998

>  <m_primary>  (4) 
energy

$$$$
4:0
     RDKit          3D

 46 47  0  0  0  0  0  0  0  0999 V2000
   60.0130   28.0700   46.9560 C   0  0  0  0  0  0  0  0  0  0  0  0
   60.4780   29.4220   46.6060 N   0  0  0  0  0  0  0  0  0  0  0  0
   60.7380   30.1850   47.8400 C   0  0  0  0  0  0  0  0  0  0  0  0
   59.4730   30.0990   45.7560 C   0  0  0  0  0  0  0  0  0  0  0  0
   58.5800   31.0490   46.5690 C   0  0  0  0  0  0  0  0  0  0  0  0
   57.7530   31.9350   45.6820 C   0  0  0  0  0  0  0  0  0  0  0  0
   56.9230   31.4210   44.8860 O   0  0  0  0  0  0  0  0  0  0  0  0
   57.9380   33.3600   45.6930 N   0  0  0  0  0  0  0  0  0  0  0  0
   56.8460   34.2100   45.2180 C   0  0  0  0  0  0  0  0  0  0  0  0
   59.0780   33.9810   46.3970 C   0  0  0  0  0  0  0  0  0  0  0  0
   60.4180   33.4890   45.7960 C   0  0  0  0  0  0  0  0  0  0  0  0
   61.7100   34.1020   46.3970 C   0  0  0  0  0  0  0  0  0  0  0  0
   62.1360   33.5000   47.7170 C   0  0  0  0  0  0  0  0  0  0  0  0
   63.3570   32.8120   47.8160 C   0  0  0  0  0  0  0  0  0  0  0  0
   63.7660   32.2700   49.0380 C   0  0  0  0  0  0  0  0  0  0  0  0
   62.9650   32.4150   50.1710 C   0  0  0  0  0  0  0  0  0  0  0  0
   61.7520   33.1010   50.0900 C   0  0  0  0  0  0  0  0  0  0  0  0
   61.3220   33.6420   48.8660 C   0  0  0  0  0  0  0  0  0  0  0  0
   60.0350   34.4270   48.7950 C   0  0  0  0  0  0  0  0  0  0  0  0
   58.9570   33.7470   47.9260 C   0  0  0  0  0  0  0  0  0  0  0  0
   59.9774   27.9664   48.0505 H   0  0  0  0  0  0  0  0  0  0  0  0
   59.0077   27.9087   46.5395 H   0  0  0  0  0  0  0  0  0  0  0  0
   60.7064   27.3245   46.5395 H   0  0  0  0  0  0  0  0  0  0  0  0
   60.5226   29.5529   48.7141 H   0  0  0  0  0  0  0  0  0  0  0  0
   61.7928   30.4960   47.8634 H   0  0  0  0  0  0  0  0  0  0  0  0
   60.0926   31.0754   47.8634 H   0  0  0  0  0  0  0  0  0  0  0  0
   59.9956   30.6787   44.9809 H   0  0  0  0  0  0  0  0  0  0  0  0
   58.8299   29.3269   45.3085 H   0  0  0  0  0  0  0  0  0  0  0  0
   57.9073   30.4510   47.2013 H   0  0  0  0  0  0  0  0  0  0  0  0
   59.2317   31.6906   47.1802 H   0  0  0  0  0  0  0  0  0  0  0  0
   56.3066   34.6298   46.0799 H   0  0  0  0  0  0  0  0  0  0  0  0
   57.2569   35.0284   44.6085 H   0  0  0  0  0  0  0  0  0  0  0  0
   56.1535   33.6109   44.6085 H   0  0  0  0  0  0  0  0  0  0  0  0
   59.0593   35.0708   46.2490 H   0  0  0  0  0  0  0  0  0  0  0  0
   60.4678   32.3992   45.9368 H   0  0  0  0  0  0  0  0  0  0  0  0
   60.4029   33.8124   44.7447 H   0  0  0  0  0  0  0  0  0  0  0  0
   62.5267   33.9578   45.6744 H   0  0  0  0  0  0  0  0  0  0  0  0
   61.4906   35.1619   46.5935 H   0  0  0  0  0  0  0  0  0  0  0  0
   63.9948   32.6992   46.9269 H   0  0  0  0  0  0  0  0  0  0  0  0
   64.7209   31.7283   49.1063 H   0  0  0  0  0  0  0  0  0  0  0  0
   63.2902   31.9875   51.1309 H   0  0  0  0  0  0  0  0  0  0  0  0
   61.1292   33.2189   50.9890 H   0  0  0  0  0  0  0  0  0  0  0  0
   59.6398   34.5438   49.8149 H   0  0  0  0  0  0  0  0  0  0  0  0
   60.2678   35.3960   48.3292 H   0  0  0  0  0  0  0  0  0  0  0  0
   59.0111   32.6634   48.1072 H   0  0  0  0  0  0  0  0  0  0  0  0
   58.0010   34.2024   48.2239 H   0  0  0  0  0  0  0  0  0  0  0  0
  1  2  1  0
  2  3  1  0
  2  4  1  0
  4  5  1  0
  5  6  1  0
  6  7  2  0
  6  8  1  0
  8  9  1  0
  8 10  1  0
 10 11  1  0
 11 12  1  0
 12 13  1  0
 13 14  2  0
 14 15  1  0
 15 16  2  0
 16 17  1  0
 17 18  2  0
 18 19  1  0
 19 20  1  0
 20 10  1  0
 18 13  1  0
  1 21  1  0
  1 22  1  0
  1 23  1  0
  3 24  1  0
  3 25  1  0
  3 26  1  0
  4 27  1  0
  4 28  1  0
  5 29  1  0
  5 30  1  0
  9 31  1  0
  9 32  1  0
  9 33  1  0
 10 34  1  0
 11 35  1  0
 11 36  1  0
 12 37  1  0
 12 38  1  0
 14 39  1  0
 15 40  1  0
 16 41  1  0
 17 42  1  0
 19 43  1  0
 19 44  1  0
 20 45  1  0
 20 46  1  0
M  END
>  <UniqueID>  (5) 
5

>  <SMILES>  (5) 
CN(C)CCC(=O)N(C)C1CCc2ccccc2CC1

>  <Energy>  (5) 
55.421895001876074

>  <Genealogy>  (5) 
CN(C)CCC(=O)N(C)C1CCc2ccccc2CC1 (3D coordinates assigned)
CN(C)CCC(=O)N(C)C1CCc2ccccc2CC1 (nonaromatic ring conformer: 55.421895001876074 kcal/mol)

>  <smiles>  (5) 
CN(C)CCC(=O)N(C)C1CCc2ccccc2CC1

>  <score_type>  (5) 
oracle

>  <origin>  (5) 
adg

>  <m_score__min__energy>  (5) 
-5.6699999999999999

>  <m_primary>  (5) 
energy

$$$$
5:0
     RDKit          3D

 64 67  0  0  0  0  0  0  0  0999 V2000
   59.9740   22.1780   44.8820 C   0  0  0  0  0  0  0  0  0  0  0  0
   59.0690   22.9330   45.6800 O   0  0  0  0  0  0  0  0  0  0  0  0
   57.6720   22.7890   45.6510 C   0  0  0  0  0  0  0  0  0  0  0  0
   57.0510   21.5300   45.5250 C   0  0  0  0  0  0  0  0  0  0  0  0
   55.6590   21.4270   45.5200 C   0  0  0  0  0  0  0  0  0  0  0  0
   54.8710   22.5730   45.6370 C   0  0  0  0  0  0  0  0  0  0  0  0
   55.4730   23.8250   45.7590 C   0  0  0  0  0  0  0  0  0  0  0  0
   56.8720   23.9410   45.7630 C   0  0  0  0  0  0  0  0  0  0  0  0
   57.4860   25.2330   45.8840 N   0  0  0  0  0  0  0  0  0  0  0  0
   57.7310   26.0120   44.6680 C   0  0  0  0  0  0  0  0  0  0  0  0
   58.9100   26.9770   44.8750 C   0  0  0  0  0  0  0  0  0  0  0  0
   58.8020   27.7510   46.1320 N   0  0  0  0  0  0  0  0  0  0  0  0
   57.7820   28.8270   46.0750 C   0  0  0  0  0  0  0  0  0  0  0  0
   56.8190   28.5820   44.9050 C   0  0  1  0  0  0  0  0  0  0  0  0
   55.5470   29.0720   45.2450 O   0  0  0  0  0  0  0  0  0  0  0  0
   57.2980   29.2780   43.6170 C   0  0  0  0  0  0  0  0  0  0  0  0
   57.9600   30.5470   43.9170 N   0  0  0  0  0  0  0  0  0  0  0  0
   57.3370   31.5880   44.6880 C   0  0  0  0  0  0  0  0  0  0  0  0
   56.0870   31.5770   44.8580 O   0  0  0  0  0  0  0  0  0  0  0  0
   58.1400   32.6880   45.2750 C   0  0  0  0  0  0  0  0  0  0  0  0
   58.4620   33.8060   44.4870 C   0  0  0  0  0  0  0  0  0  0  0  0
   59.2230   34.8450   45.0190 C   0  0  0  0  0  0  0  0  0  0  0  0
   59.6550   34.7680   46.3430 C   0  0  0  0  0  0  0  0  0  0  0  0
   59.3130   33.6980   47.1070 N   0  0  0  0  0  0  0  0  0  0  0  0
   58.5710   32.6640   46.6180 C   0  0  0  0  0  0  0  0  0  0  0  0
   58.1810   31.6180   47.4650 O   0  0  0  0  0  0  0  0  0  0  0  0
   59.0490   30.8760   48.2750 C   0  0  0  0  0  0  0  0  0  0  0  0
   58.7110   30.6880   49.6200 C   0  0  0  0  0  0  0  0  0  0  0  0
   59.5450   29.9490   50.4640 C   0  0  0  0  0  0  0  0  0  0  0  0
   60.7170   29.3790   49.9640 C   0  0  0  0  0  0  0  0  0  0  0  0
   61.0500   29.5370   48.6170 C   0  0  0  0  0  0  0  0  0  0  0  0
   60.2190   30.2760   47.7670 C   0  0  0  0  0  0  0  0  0  0  0  0
   60.5280   30.3550   46.4500 F   0  0  0  0  0  0  0  0  0  0  0  0
   58.6500   26.8590   47.3000 C   0  0  0  0  0  0  0  0  0  0  0  0
   57.4320   25.9390   47.1640 C   0  0  0  0  0  0  0  0  0  0  0  0
   60.6536   21.6110   45.5352 H   0  0  0  0  0  0  0  0  0  0  0  0
   59.4085   21.4801   44.2470 H   0  0  0  0  0  0  0  0  0  0  0  0
   60.5593   22.8594   44.2470 H   0  0  0  0  0  0  0  0  0  0  0  0
   57.6668   20.6235   45.4301 H   0  0  0  0  0  0  0  0  0  0  0  0
   55.1820   20.4405   45.4236 H   0  0  0  0  0  0  0  0  0  0  0  0
   53.7742   22.4886   45.6330 H   0  0  0  0  0  0  0  0  0  0  0  0
   54.8487   24.7258   45.8525 H   0  0  0  0  0  0  0  0  0  0  0  0
   57.9652   25.3266   43.8401 H   0  0  0  0  0  0  0  0  0  0  0  0
   56.8296   26.5969   44.4326 H   0  0  0  0  0  0  0  0  0  0  0  0
   59.8420   26.3933   44.9003 H   0  0  0  0  0  0  0  0  0  0  0  0
   58.9015   27.6948   44.0416 H   0  0  0  0  0  0  0  0  0  0  0  0
   57.2139   28.8396   47.0169 H   0  0  0  0  0  0  0  0  0  0  0  0
   58.2869   29.7932   45.9285 H   0  0  0  0  0  0  0  0  0  0  0  0
   56.7819   27.4991   44.7155 H   0  0  0  0  0  0  0  0  0  0  0  0
   55.6780   29.7200   45.9850 H   0  0  0  0  0  0  0  0  0  0  0  0
   58.0065   28.6183   43.0948 H   0  0  0  0  0  0  0  0  0  0  0  0
   56.4214   29.4831   42.9850 H   0  0  0  0  0  0  0  0  0  0  0  0
   58.9220   30.6950   43.5380 H   0  0  0  0  0  0  0  0  0  0  0  0
   58.1118   33.8612   43.4457 H   0  0  0  0  0  0  0  0  0  0  0  0
   59.4806   35.7176   44.4007 H   0  0  0  0  0  0  0  0  0  0  0  0
   60.2722   35.5731   46.7682 H   0  0  0  0  0  0  0  0  0  0  0  0
   57.7823   31.1249   50.0159 H   0  0  0  0  0  0  0  0  0  0  0  0
   59.2776   29.8166   51.5227 H   0  0  0  0  0  0  0  0  0  0  0  0
   61.3779   28.8057   50.6306 H   0  0  0  0  0  0  0  0  0  0  0  0
   61.9690   29.0789   48.2225 H   0  0  0  0  0  0  0  0  0  0  0  0
   59.5542   26.2397   47.3942 H   0  0  0  0  0  0  0  0  0  0  0  0
   58.5039   27.4872   48.1910 H   0  0  0  0  0  0  0  0  0  0  0  0
   57.4334   25.2072   47.9852 H   0  0  0  0  0  0  0  0  0  0  0  0
   56.5136   26.5428   47.2078 H   0  0  0  0  0  0  0  0  0  0  0  0
  1  2  1  0
  2  3  1  0
  3  4  2  0
  4  5  1  0
  5  6  2  0
  6  7  1  0
  7  8  2  0
  8  9  1  0
  9 10  1  0
 10 11  1  0
 11 12  1  0
 12 13  1  0
 13 14  1  0
 14 15  1  0
 14 16  1  0
 16 17  1  0
 17 18  1  0
 18 19  2  0
 18 20  1  0
 20 21  2  0
 21 22  1  0
 22 23  2  0
 23 24  1  0
 24 25  2  0
 25 26  1  0
 26 27  1  0
 27 28  2  0
 28 29  1  0
 29 30  2  0
 30 31  1  0
 31 32  2  0
 32 33  1  0
 12 34  1  0
 34 35  1  0
  8  3  1  0
 35  9  1  0
 25 20  1  0
 32 27  1  0
  1 36  1  0
  1 37  1  0
  1 38  1  0
  4 39  1  0
  5 40  1  0
  6 41  1  0
  7 42  1  0
 10 43  1  0
 10 44  1  0
 11 45  1  0
 11 46  1  0
 13 47  1  0
 13 48  1  0
 14 49  1  6
 15 50  1  0
 16 51  1  0
 16 52  1  0
 17 53  1  0
 21 54  1  0
 22 55  1  0
 23 56  1  0
 28 57  1  0
 29 58  1  0
 30 59  1  0
 31 60  1  0
 34 61  1  0
 34 62  1  0
 35 63  1  0
 35 64  1  0
M  END
>  <UniqueID>  (6) 
6

>  <SMILES>  (6) 
COc1ccccc1N1CCN(C[C@@H](O)CNC(=O)c2cccnc2Oc2ccccc2F)CC1

>  <Energy>  (6) 
81.06800463023079

>  <Genealogy>  (6) 
COc1ccccc1N1CCN(C[C@@H](O)CNC(=O)c2cccnc2Oc2ccccc2F)CC1 (chirality)
COc1ccccc1N1CCN(C[C@@H](O)CNC(=O)c2cccnc2Oc2ccccc2F)CC1 (3D coordinates assigned)
COc1ccccc1N1CCN(C[C@@H](O)CNC(=O)c2cccnc2Oc2ccccc2F)CC1 (nonaromatic ring conformer: 81.06800463023079 kcal/mol)

>  <smiles>  (6) 
COc1ccccc1N1CCN(CC(O)CNC(=O)c2cccnc2Oc2ccccc2F)CC1

>  <score_type>  (6) 
oracle

>  <origin>  (6) 
adg

>  <m_score__min__energy>  (6) 
-8.4100000000000001

>  <m_primary>  (6) 
energy

$$$$
6:0
     RDKit          3D

 30 31  0  0  0  0  0  0  0  0999 V2000
   63.2800   33.4900   46.8190 C   0  0  0  0  0  0  0  0  0  0  0  0
   62.5220   33.7570   47.7190 C   0  0  0  0  0  0  0  0  0  0  0  0
   61.5930   34.0800   48.8070 C   0  0  0  0  0  0  0  0  0  0  0  0
   60.1500   34.2060   48.3120 C   0  0  0  0  0  0  0  0  0  0  0  0
   60.0910   34.2080   46.8840 O   0  0  0  0  0  0  0  0  0  0  0  0
   59.2470   33.4190   46.0840 C   0  0  0  0  0  0  0  0  0  0  0  0
   58.6700   33.8810   44.8850 C   0  0  0  0  0  0  0  0  0  0  0  0
   57.8430   33.0430   44.1320 C   0  0  0  0  0  0  0  0  0  0  0  0
   57.5900   31.7300   44.5500 C   0  0  0  0  0  0  0  0  0  0  0  0
   58.1480   31.2650   45.7580 C   0  0  0  0  0  0  0  0  0  0  0  0
   58.9890   32.1080   46.5010 C   0  0  0  0  0  0  0  0  0  0  0  0
   57.9370   29.8390   46.2080 C   0  0  0  0  0  0  0  0  0  0  0  0
   56.7400   29.2340   45.6050 N   0  0  0  0  0  0  0  0  0  0  0  0
   56.7590   29.3890   44.1450 C   0  0  0  0  0  0  0  0  0  0  0  0
   56.6500   30.8660   43.7490 C   0  0  0  0  0  0  0  0  0  0  0  0
   63.9710   33.2466   45.9985 H   0  0  0  0  0  0  0  0  0  0  0  0
   61.6406   33.2823   49.5629 H   0  0  0  0  0  0  0  0  0  0  0  0
   61.8919   35.0497   49.2317 H   0  0  0  0  0  0  0  0  0  0  0  0
   59.5644   33.3568   48.6940 H   0  0  0  0  0  0  0  0  0  0  0  0
   59.7382   35.1578   48.6786 H   0  0  0  0  0  0  0  0  0  0  0  0
   58.8712   34.9059   44.5398 H   0  0  0  0  0  0  0  0  0  0  0  0
   57.3870   33.4174   43.2036 H   0  0  0  0  0  0  0  0  0  0  0  0
   59.4525   31.7326   47.4253 H   0  0  0  0  0  0  0  0  0  0  0  0
   58.8166   29.2439   45.9213 H   0  0  0  0  0  0  0  0  0  0  0  0
   57.7958   29.8481   47.2989 H   0  0  0  0  0  0  0  0  0  0  0  0
   55.8890   29.7090   45.9890 H   0  0  0  0  0  0  0  0  0  0  0  0
   57.7012   28.9795   43.7518 H   0  0  0  0  0  0  0  0  0  0  0  0
   55.8988   28.8483   43.7235 H   0  0  0  0  0  0  0  0  0  0  0  0
   56.8950   30.9676   42.6815 H   0  0  0  0  0  0  0  0  0  0  0  0
   55.6216   31.1998   43.9516 H   0  0  0  0  0  0  0  0  0  0  0  0
  1  2  3  0
  2  3  1  0
  3  4  1  0
  4  5  1  0
  5  6  1  0
  6  7  2  0
  7  8  1  0
  8  9  2  0
  9 10  1  0
 10 11  2  0
 10 12  1  0
 12 13  1  0
 13 14  1  0
 14 15  1  0
 11  6  1  0
 15  9  1  0
  1 16  1  0
  3 17  1  0
  3 18  1  0
  4 19  1  0
  4 20  1  0
  7 21  1  0
  8 22  1  0
 11 23  1  0
 12 24  1  0
 12 25  1  0
 13 26  1  0
 14 27  1  0
 14 28  1  0
 15 29  1  0
 15 30  1  0
M  END
>  <UniqueID>  (7) 
7

>  <SMILES>  (7) 
C#CCCOc1ccc2c(c1)CNCC2

>  <Energy>  (7) 
28.610024158188004

>  <Genealogy>  (7) 
C#CCCOc1ccc2c(c1)CNCC2 (3D coordinates assigned)
C#CCCOc1ccc2c(c1)CNCC2 (nonaromatic ring conformer: 28.610024158188004 kcal/mol)

>  <smiles>  (7) 
C#CCCOc1ccc2c(c1)CNCC2

>  <score_type>  (7) 
oracle

>  <origin>  (7) 
adg

>  <m_score__min__energy>  (7) 
-5.7999999999999998

>  <m_primary>  (7) 
energy

$$$$
7:0
     RDKit          3D

 37 39  0  0  0  0  0  0  0  0999 V2000
   56.6660   29.6790   43.1520 C   0  0  0  0  0  0  0  0  0  0  0  0
   56.0830   30.6800   44.1600 C   0  0  0  0  0  0  0  0  0  0  0  0
   57.0710   31.2140   45.1230 N   0  0  0  0  0  0  0  0  0  0  0  0
   58.4160   30.6320   44.9770 C   0  0  0  0  0  0  0  0  0  0  0  0
   59.2210   30.9310   46.2400 C   0  0  0  0  0  0  0  0  0  0  0  0
   59.0600   32.3330   46.6350 N   0  0  0  0  0  0  0  0  0  0  0  0
   59.6860   32.7980   47.8370 C   0  0  0  0  0  0  0  0  0  0  0  0
   58.9220   32.9220   48.9990 C   0  0  0  0  0  0  0  0  0  0  0  0
   59.5310   33.3840   50.1700 C   0  0  0  0  0  0  0  0  0  0  0  0
   58.8540   33.5020   51.2250 O   0  0  0  0  0  0  0  0  0  0  0  0
   60.8220   33.7000   50.1790 O   0  0  0  0  0  0  0  0  0  0  0  0
   61.5920   33.5970   49.0980 C   0  0  0  0  0  0  0  0  0  0  0  0
   62.9450   33.9470   49.1790 C   0  0  0  0  0  0  0  0  0  0  0  0
   63.7640   33.8410   48.0510 C   0  0  0  0  0  0  0  0  0  0  0  0
   63.2380   33.3840   46.8410 C   0  0  0  0  0  0  0  0  0  0  0  0
   61.8880   33.0330   46.7470 C   0  0  0  0  0  0  0  0  0  0  0  0
   61.0510   33.1380   47.8740 C   0  0  0  0  0  0  0  0  0  0  0  0
   58.3780   33.2860   45.7510 C   0  0  0  0  0  0  0  0  0  0  0  0
   57.0620   32.6950   45.2060 C   0  0  0  0  0  0  0  0  0  0  0  0
   57.1478   28.8517   43.6937 H   0  0  0  0  0  0  0  0  0  0  0  0
   55.8578   29.2821   42.5201 H   0  0  0  0  0  0  0  0  0  0  0  0
   57.4100   30.1861   42.5201 H   0  0  0  0  0  0  0  0  0  0  0  0
   55.6555   31.5247   43.5998 H   0  0  0  0  0  0  0  0  0  0  0  0
   55.3301   30.1349   44.7482 H   0  0  0  0  0  0  0  0  0  0  0  0
   58.3350   29.5437   44.8391 H   0  0  0  0  0  0  0  0  0  0  0  0
   58.9189   31.0678   44.1011 H   0  0  0  0  0  0  0  0  0  0  0  0
   58.8678   30.2829   47.0556 H   0  0  0  0  0  0  0  0  0  0  0  0
   60.2849   30.7403   46.0356 H   0  0  0  0  0  0  0  0  0  0  0  0
   57.8538   32.6594   48.9935 H   0  0  0  0  0  0  0  0  0  0  0  0
   63.3640   34.3056   50.1308 H   0  0  0  0  0  0  0  0  0  0  0  0
   64.8264   34.1186   48.1169 H   0  0  0  0  0  0  0  0  0  0  0  0
   63.8886   33.2998   45.9580 H   0  0  0  0  0  0  0  0  0  0  0  0
   61.4792   32.6742   45.7909 H   0  0  0  0  0  0  0  0  0  0  0  0
   58.1532   34.2025   46.3162 H   0  0  0  0  0  0  0  0  0  0  0  0
   59.0394   33.5082   44.9006 H   0  0  0  0  0  0  0  0  0  0  0  0
   56.2406   33.0020   45.8701 H   0  0  0  0  0  0  0  0  0  0  0  0
   56.9340   33.0768   44.1823 H   0  0  0  0  0  0  0  0  0  0  0  0
  1  2  1  0
  2  3  1  0
  3  4  1  0
  4  5  1  0
  5  6  1  0
  6  7  1  0
  7  8  2  0
  8  9  1  0
  9 10  2  0
  9 11  1  0
 11 12  1  0
 12 13  2  0
 13 14  1  0
 14 15  2  0
 15 16  1  0
 16 17  2  0
  6 18  1  0
 18 19  1  0
 19  3  1  0
 17  7  1  0
 17 12  1  0
  1 20  1  0
  1 21  1  0
  1 22  1  0
  2 23  1  0
  2 24  1  0
  4 25  1  0
  4 26  1  0
  5 27  1  0
  5 28  1  0
  8 29  1  0
 13 30  1  0
 14 31  1  0
 15 32  1  0
 16 33  1  0
 18 34  1  0
 18 35  1  0
 19 36  1  0
 19 37  1  0
M  END
>  <UniqueID>  (8) 
8

>  <SMILES>  (8) 
CCN1CCN(c2cc(=O)oc3ccccc23)CC1

>  <Energy>  (8) 
55.06454510558508

>  <Genealogy>  (8) 
CCN1CCN(c2cc(=O)oc3ccccc23)CC1 (3D coordinates assigned)
CCN1CCN(c2cc(=O)oc3ccccc23)CC1 (nonaromatic ring conformer: 55.06454510558508 kcal/mol)

>  <smiles>  (8) 
CCN1CCN(c2cc(=O)oc3ccccc23)CC1

>  <score_type>  (8) 
oracle

>  <origin>  (8) 
adg

>  <m_score__min__energy>  (8) 
-6.5099999999999998

>  <m_primary>  (8) 
energy

$$$$
8:0
     RDKit          3D

 47 50  0  0  0  0  0  0  0  0999 V2000
   59.7300   30.1090   50.0020 Cl  0  0  0  0  0  0  0  0  0  0  0  0
   59.2530   31.4780   51.0010 C   0  0  0  0  0  0  0  0  0  0  0  0
   57.8870   31.6970   51.2190 C   0  0  0  0  0  0  0  0  0  0  0  0
   57.4610   32.7640   52.0130 C   0  0  0  0  0  0  0  0  0  0  0  0
   58.3970   33.6220   52.5900 C   0  0  0  0  0  0  0  0  0  0  0  0
   59.7610   33.4150   52.3770 C   0  0  0  0  0  0  0  0  0  0  0  0
   60.2060   32.3410   51.5840 C   0  0  0  0  0  0  0  0  0  0  0  0
   61.6880   32.1070   51.4200 C   0  0  0  0  0  0  0  0  0  0  0  0
   62.4480   33.3770   50.3460 S   0  0  0  0  0  0  0  0  0  0  0  0
   61.6750   32.7940   48.8360 C   0  0  0  0  0  0  0  0  0  0  0  0
   62.1370   31.6730   48.2070 N   0  0  0  0  0  0  0  0  0  0  0  0
   61.5500   31.2050   47.0590 C   0  0  0  0  0  0  0  0  0  0  0  0
   60.4740   31.8530   46.5140 N   0  0  0  0  0  0  0  0  0  0  0  0
   60.0150   32.9670   47.1410 C   0  0  0  0  0  0  0  0  0  0  0  0
   60.5920   33.4520   48.2670 C   0  0  0  0  0  0  0  0  0  0  0  0
   59.8830   34.5910   48.5870 C   0  0  0  0  0  0  0  0  0  0  0  0
   58.9130   34.7620   47.6530 N   0  0  0  0  0  0  0  0  0  0  0  0
   58.9940   33.7640   46.7770 N   0  0  0  0  0  0  0  0  0  0  0  0
   58.1440   33.6550   45.5920 C   0  0  0  0  0  0  0  0  0  0  0  0
   57.3890   32.3240   45.5800 C   0  0  0  0  0  0  0  0  0  0  0  0
   58.0690   31.3580   44.6830 N   0  0  0  0  0  0  0  0  0  0  0  0
   58.3270   30.0620   45.3370 C   0  0  0  0  0  0  0  0  0  0  0  0
   57.0210   29.2570   45.5420 C   0  0  0  0  0  0  0  0  0  0  0  0
   55.9240   29.8000   44.8300 O   0  0  0  0  0  0  0  0  0  0  0  0
   56.2950   30.0400   43.4880 C   0  0  0  0  0  0  0  0  0  0  0  0
   57.3510   31.1620   43.4010 C   0  0  0  0  0  0  0  0  0  0  0  0
   57.1456   31.0249   50.7623 H   0  0  0  0  0  0  0  0  0  0  0  0
   56.3867   32.9278   52.1834 H   0  0  0  0  0  0  0  0  0  0  0  0
   58.0599   34.4630   53.2138 H   0  0  0  0  0  0  0  0  0  0  0  0
   60.4940   34.0970   52.8327 H   0  0  0  0  0  0  0  0  0  0  0  0
   62.1675   32.1411   52.4094 H   0  0  0  0  0  0  0  0  0  0  0  0
   61.8336   31.1232   50.9499 H   0  0  0  0  0  0  0  0  0  0  0  0
   61.9469   30.3019   46.5723 H   0  0  0  0  0  0  0  0  0  0  0  0
   60.0340   31.4940   45.6380 H   0  0  0  0  0  0  0  0  0  0  0  0
   60.0710   35.2471   49.4496 H   0  0  0  0  0  0  0  0  0  0  0  0
   57.4174   34.4809   45.5932 H   0  0  0  0  0  0  0  0  0  0  0  0
   58.7818   33.7045   44.6971 H   0  0  0  0  0  0  0  0  0  0  0  0
   57.3593   31.9138   46.6002 H   0  0  0  0  0  0  0  0  0  0  0  0
   56.3658   32.4948   45.2142 H   0  0  0  0  0  0  0  0  0  0  0  0
   59.0130   29.4753   44.7084 H   0  0  0  0  0  0  0  0  0  0  0  0
   58.7693   30.2573   46.3250 H   0  0  0  0  0  0  0  0  0  0  0  0
   57.1867   28.2251   45.1987 H   0  0  0  0  0  0  0  0  0  0  0  0
   56.7727   29.2960   46.6129 H   0  0  0  0  0  0  0  0  0  0  0  0
   56.7136   29.1174   43.0595 H   0  0  0  0  0  0  0  0  0  0  0  0
   55.4021   30.3534   42.9271 H   0  0  0  0  0  0  0  0  0  0  0  0
   58.0823   30.9001   42.6222 H   0  0  0  0  0  0  0  0  0  0  0  0
   56.8278   32.0994   43.1611 H   0  0  0  0  0  0  0  0  0  0  0  0
  1  2  1  0
  2  3  2  0
  3  4  1  0
  4  5  2  0
  5  6  1  0
  6  7  2  0
  7  8  1  0
  8  9  1  0
  9 10  1  0
 10 11  2  0
 11 12  1  0
 12 13  2  0
 13 14  1  0
 14 15  2  0
 15 16  1  0
 16 17  2  0
 17 18  1  0
 18 19  1  0
 19 20  1  0
 20 21  1  0
 21 22  1  0
 22 23  1  0
 23 24  1  0
 24 25  1  0
 25 26  1  0
  7  2  1  0
 15 10  1  0
 26 21  1  0
 18 14  1  0
  3 27  1  0
  4 28  1  0
  5 29  1  0
  6 30  1  0
  8 31  1  0
  8 32  1  0
 12 33  1  0
 13 34  1  0
 16 35  1  0
 19 36  1  0
 19 37  1  0
 20 38  1  0
 20 39  1  0
 22 40  1  0
 22 41  1  0
 23 42  1  0
 23 43  1  0
 25 44  1  0
 25 45  1  0
 26 46  1  0
 26 47  1  0
M  CHG  1  13   1
M  END
>  <UniqueID>  (9) 
9

>  <SMILES>  (9) 
Clc1ccccc1CSc1nc[nH+]c2c1cnn2CCN1CCOCC1

>  <Energy>  (9) 
96.15062524964856

>  <Genealogy>  (9) 
Clc1ccccc1CSc1nc[nH+]c2c1cnn2CCN1CCOCC1 (protonated)
Clc1ccccc1CSc1nc[nH+]c2c1cnn2CCN1CCOCC1 (3D coordinates assigned)
Clc1ccccc1CSc1nc[nH+]c2c1cnn2CCN1CCOCC1 (nonaromatic ring conformer: 96.15062524964856 kcal/mol)

>  <smiles>  (9) 
Clc1ccccc1CSc1ncnc2c1cnn2CCN1CCOCC1

>  <score_type>  (9) 
oracle

>  <origin>  (9) 
adg

>  <m_score__min__energy>  (9) 
-7.1900000000000004

>  <m_primary>  (9) 
energy

$$$$
9:0
     RDKit          3D

 61 65  0  0  0  0  0  0  0  0999 V2000
   56.5140   20.7770   43.2990 N   0  0  0  0  0  0  0  0  0  0  0  0
   56.5880   21.9220   44.2080 C   0  0  0  0  0  0  0  0  0  0  0  0
   56.2670   23.2170   43.4440 C   0  0  0  0  0  0  0  0  0  0  0  0
   56.3760   24.4260   44.3800 C   0  0  0  0  0  0  0  0  0  0  0  0
   57.6460   24.4280   45.1270 N   0  0  0  0  0  0  0  0  0  0  0  0
   57.9890   25.5560   45.9650 C   0  0  0  0  0  0  0  0  0  0  0  0
   59.1730   25.6900   46.3810 O   0  0  0  0  0  0  0  0  0  0  0  0
   56.9670   26.6110   46.3110 C   0  0  0  0  0  0  0  0  0  0  0  0
   57.6090   27.8860   46.6220 N   0  0  0  0  0  0  0  0  0  0  0  0
   58.6640   28.0580   47.4430 C   0  0  0  0  0  0  0  0  0  0  0  0
   59.0180   29.3910   47.3940 C   0  0  0  0  0  0  0  0  0  0  0  0
   60.1830   29.9980   47.9770 N   0  0  0  0  0  0  0  0  0  0  0  0
   61.2990   30.4590   47.2030 C   0  0  0  0  0  0  0  0  0  0  0  0
   61.4740   30.0310   46.0290 O   0  0  0  0  0  0  0  0  0  0  0  0
   62.2860   31.3940   47.7760 C   0  0  0  0  0  0  0  0  0  0  0  0
   63.3830   31.9590   47.1250 C   0  0  0  0  0  0  0  0  0  0  0  0
   64.0540   32.7830   47.9660 N   0  0  0  0  0  0  0  0  0  0  0  0
   63.4080   32.7540   49.1190 N   0  0  0  0  0  0  0  0  0  0  0  0
   63.7170   33.4430   50.2450 C   0  0  0  0  0  0  0  0  0  0  0  0
   62.8800   33.2870   51.3580 C   0  0  0  0  0  0  0  0  0  0  0  0
   61.7640   32.4340   51.2530 C   0  0  0  0  0  0  0  0  0  0  0  0
   61.5070   31.7690   50.0890 N   0  0  0  0  0  0  0  0  0  0  0  0
   62.3500   31.9400   49.0400 C   0  0  0  0  0  0  0  0  0  0  0  0
   58.1430   29.9730   46.4870 C   0  0  0  0  0  0  0  0  0  0  0  0
   58.1170   31.3840   46.0410 C   0  0  0  0  0  0  0  0  0  0  0  0
   58.9640   32.3250   46.6520 C   0  0  0  0  0  0  0  0  0  0  0  0
   58.9430   33.6620   46.2500 C   0  0  0  0  0  0  0  0  0  0  0  0
   60.0060   34.8270   47.0200 Cl  0  0  0  0  0  0  0  0  0  0  0  0
   58.0700   34.0750   45.2430 C   0  0  0  0  0  0  0  0  0  0  0  0
   57.2150   33.1530   44.6340 C   0  0  0  0  0  0  0  0  0  0  0  0
   57.2300   31.7990   45.0250 C   0  0  0  0  0  0  0  0  0  0  0  0
   56.3940   30.8440   44.4200 O   0  0  0  0  0  0  0  0  0  0  0  0
   56.6800   30.1580   43.2040 C   0  0  0  0  0  0  0  0  0  0  0  0
   56.9060   31.0860   42.2070 F   0  0  0  0  0  0  0  0  0  0  0  0
   55.6040   29.3660   42.8460 F   0  0  0  0  0  0  0  0  0  0  0  0
   57.2950   29.0290   46.0310 N   0  0  0  0  0  0  0  0  0  0  0  0
   58.6360   23.3690   44.8750 C   0  0  0  0  0  0  0  0  0  0  0  0
   57.9800   21.9780   44.8930 C   0  0  0  0  0  0  0  0  0  0  0  0
   55.5190   20.4540   43.2540 H   0  0  0  0  0  0  0  0  0  0  0  0
   57.0510   19.9860   43.7240 H   0  0  0  0  0  0  0  0  0  0  0  0
   55.8378   21.8088   45.0045 H   0  0  0  0  0  0  0  0  0  0  0  0
   56.9791   23.3350   42.6140 H   0  0  0  0  0  0  0  0  0  0  0  0
   55.2405   23.1576   43.0532 H   0  0  0  0  0  0  0  0  0  0  0  0
   56.3140   25.3465   43.7810 H   0  0  0  0  0  0  0  0  0  0  0  0
   55.5523   24.3705   45.1069 H   0  0  0  0  0  0  0  0  0  0  0  0
   56.2901   26.7494   45.4550 H   0  0  0  0  0  0  0  0  0  0  0  0
   56.4077   26.2770   47.1974 H   0  0  0  0  0  0  0  0  0  0  0  0
   59.1541   27.2773   48.0433 H   0  0  0  0  0  0  0  0  0  0  0  0
   60.2280   30.0680   49.0160 H   0  0  0  0  0  0  0  0  0  0  0  0
   63.6630   31.7637   46.0793 H   0  0  0  0  0  0  0  0  0  0  0  0
   64.5961   34.1030   50.2836 H   0  0  0  0  0  0  0  0  0  0  0  0
   63.0906   33.8209   52.2964 H   0  0  0  0  0  0  0  0  0  0  0  0
   61.0944   32.3027   52.1158 H   0  0  0  0  0  0  0  0  0  0  0  0
   59.6480   32.0059   47.4522 H   0  0  0  0  0  0  0  0  0  0  0  0
   58.0549   35.1288   44.9279 H   0  0  0  0  0  0  0  0  0  0  0  0
   56.5256   33.4860   43.8442 H   0  0  0  0  0  0  0  0  0  0  0  0
   57.5685   29.5246   43.3432 H   0  0  0  0  0  0  0  0  0  0  0  0
   59.0967   23.5356   43.8901 H   0  0  0  0  0  0  0  0  0  0  0  0
   59.3954   23.4061   45.6699 H   0  0  0  0  0  0  0  0  0  0  0  0
   58.6482   21.2747   44.3744 H   0  0  0  0  0  0  0  0  0  0  0  0
   57.8230   21.7162   45.9498 H   0  0  0  0  0  0  0  0  0  0  0  0
  1  2  1  0
  2  3  1  0
  3  4  1  0
  4  5  1  0
  5  6  1  0
  6  7  2  0
  6  8  1  0
  8  9  1  0
  9 10  1  0
 10 11  2  0
 11 12  1  0
 12 13  1  0
 13 14  2  0
 13 15  1  0
 15 16  1  0
 16 17  2  0
 17 18  1  0
 18 19  1  0
 19 20  2  0
 20 21  1  0
 21 22  2  0
 22 23  1  0
 11 24  1  0
 24 25  1  0
 25 26  2  0
 26 27  1  0
 27 28  1  0
 27 29  2  0
 29 30  1  0
 30 31  2  0
 31 32  1  0
 32 33  1  0
 33 34  1  0
 33 35  1  0
 24 36  2  0
  5 37  1  0
 37 38  1  0
 38  2  1  0
 36  9  1  0
 23 15  2  0
 31 25  1  0
 23 18  1  0
  1 39  1  0
  1 40  1  0
  2 41  1  0
  3 42  1  0
  3 43  1  0
  4 44  1  0
  4 45  1  0
  8 46  1  0
  8 47  1  0
 10 48  1  0
 12 49  1  0
 16 50  1  0
 19 51  1  0
 20 52  1  0
 21 53  1  0
 26 54  1  0
 29 55  1  0
 30 56  1  0
 33 57  1  0
 37 58  1  0
 37 59  1  0
 38 60  1  0
 38 61  1  0
M  END
>  <UniqueID>  (10) 
10

>  <SMILES>  (10) 
NC1CCN(C(=O)Cn2cc(NC(=O)c3cnn4cccnc34)c(-c3cc(Cl)ccc3OC(F)F)n2)CC1

>  <Energy>  (10) 
141.92544791686078

>  <Genealogy>  (10) 
NC1CCN(C(=O)Cn2cc(NC(=O)c3cnn4cccnc34)c(-c3cc(Cl)ccc3OC(F)F)n2)CC1 (3D coordinates assigned)
NC1CCN(C(=O)Cn2cc(NC(=O)c3cnn4cccnc34)c(-c3cc(Cl)ccc3OC(F)F)n2)CC1 (nonaromatic ring conformer: 141.92544791686078 kcal/mol)

>  <smiles>  (10) 
NC1CCN(C(=O)Cn2cc(NC(=O)c3cnn4cccnc34)c(-c3cc(Cl)ccc3OC(F)F)n2)CC1

>  <score_type>  (10) 
oracle

>  <origin>  (10) 
adg

>  <m_score__min__energy>  (10) 
-10.130000000000001

>  <m_primary>  (10) 
energy

$$$$
10:0
     RDKit          3D

 29 31  0  0  0  0  0  0  0  0999 V2000
   65.2490   33.0850   49.5450 C   0  0  0  0  0  0  0  0  0  0  0  0
   63.9500   32.9510   48.8060 C   0  0  0  0  0  0  0  0  0  0  0  0
   62.8860   32.2360   49.3730 C   0  0  0  0  0  0  0  0  0  0  0  0
   61.6630   32.1410   48.7030 C   0  0  0  0  0  0  0  0  0  0  0  0
   61.4750   32.7760   47.4620 C   0  0  0  0  0  0  0  0  0  0  0  0
   60.1720   32.6620   46.7600 C   0  0  0  0  0  0  0  0  0  0  0  0
   59.5430   31.5180   46.7960 N   0  0  0  0  0  0  0  0  0  0  0  0
   58.3120   31.3280   46.1490 N   0  0  0  0  0  0  0  0  0  0  0  0
   57.7890   30.1940   45.6630 C   0  0  0  0  0  0  0  0  0  0  0  0
   58.3910   28.8380   45.8250 C   0  0  0  0  0  0  0  0  0  0  0  0
   56.7280   30.4640   44.8710 N   0  0  0  0  0  0  0  0  0  0  0  0
   56.5690   31.7850   44.8640 N   0  0  0  0  0  0  0  0  0  0  0  0
   57.5390   32.2900   45.6490 C   0  0  0  0  0  0  0  0  0  0  0  0
   57.8420   34.0120   45.9790 S   0  0  0  0  0  0  0  0  0  0  0  0
   59.6590   33.7970   45.8790 C   0  0  0  0  0  0  0  0  0  0  0  0
   62.5450   33.5000   46.9020 C   0  0  0  0  0  0  0  0  0  0  0  0
   63.7670   33.5930   47.5740 C   0  0  0  0  0  0  0  0  0  0  0  0
   65.0584   33.0653   50.6282 H   0  0  0  0  0  0  0  0  0  0  0  0
   65.9126   32.2505   49.2743 H   0  0  0  0  0  0  0  0  0  0  0  0
   65.7283   34.0374   49.2743 H   0  0  0  0  0  0  0  0  0  0  0  0
   63.0141   31.7472   50.3501 H   0  0  0  0  0  0  0  0  0  0  0  0
   60.8400   31.5644   49.1503 H   0  0  0  0  0  0  0  0  0  0  0  0
   58.4932   28.6077   46.8958 H   0  0  0  0  0  0  0  0  0  0  0  0
   57.7409   28.0890   45.3493 H   0  0  0  0  0  0  0  0  0  0  0  0
   59.3826   28.8178   45.3493 H   0  0  0  0  0  0  0  0  0  0  0  0
   59.9299   33.5809   44.8350 H   0  0  0  0  0  0  0  0  0  0  0  0
   60.1218   34.7282   46.2377 H   0  0  0  0  0  0  0  0  0  0  0  0
   62.4182   33.9961   45.9284 H   0  0  0  0  0  0  0  0  0  0  0  0
   64.5904   34.1739   47.1329 H   0  0  0  0  0  0  0  0  0  0  0  0
  1  2  1  0
  2  3  2  0
  3  4  1  0
  4  5  2  0
  5  6  1  0
  6  7  2  0
  7  8  1  0
  8  9  1  0
  9 10  1  0
  9 11  2  0
 11 12  1  0
 12 13  2  0
 13 14  1  0
 14 15  1  0
  5 16  1  0
 16 17  2  0
 17  2  1  0
 15  6  1  0
 13  8  1  0
  1 18  1  0
  1 19  1  0
  1 20  1  0
  3 21  1  0
  4 22  1  0
 10 23  1  0
 10 24  1  0
 10 25  1  0
 15 26  1  0
 15 27  1  0
 16 28  1  0
 17 29  1  0
M  END
>  <UniqueID>  (11) 
11

>  <SMILES>  (11) 
Cc1ccc(C2=Nn3c(C)nnc3SC2)cc1

>  <Energy>  (11) 
75.75059607923083

>  <Genealogy>  (11) 
Cc1ccc(C2=Nn3c(C)nnc3SC2)cc1 (3D coordinates assigned)
Cc1ccc(C2=Nn3c(C)nnc3SC2)cc1 (nonaromatic ring conformer: 75.75059607923083 kcal/mol)

>  <smiles>  (11) 
Cc1ccc(C2=Nn3c(C)nnc3SC2)cc1

>  <score_type>  (11) 
oracle

>  <origin>  (11) 
adg

>  <m_score__min__energy>  (11) 
-7.25

>  <m_primary>  (11) 
energy

$$$$
11:0
     RDKit          3D

 36 38  0  0  0  0  0  0  0  0999 V2000
   57.6556   20.2233   43.2838 H   0  0  0  0  0  0  0  0  0  0  0  0
   57.4390   21.2310   43.6680 C   0  0  0  0  0  0  0  0  0  0  0  0
   58.3600   21.8800   44.4240 N   0  0  0  0  0  0  0  0  0  0  0  0
   58.1070   23.1190   44.9220 C   0  0  0  0  0  0  0  0  0  0  0  0
   58.8670   23.6321   45.5296 H   0  0  0  0  0  0  0  0  0  0  0  0
   56.8800   23.7440   44.6630 C   0  0  0  0  0  0  0  0  0  0  0  0
   56.5700   25.0960   45.1690 C   0  0  0  0  0  0  0  0  0  0  0  0
   55.5250   25.3690   45.9870 N   0  0  0  0  0  0  0  0  0  0  0  0
   55.5160   26.6680   46.2710 N   0  0  0  0  0  0  0  0  0  0  0  0
   56.5620   27.2230   45.6340 C   0  0  0  0  0  0  0  0  0  0  0  0
   56.9730   28.5510   45.6750 C   0  0  0  0  0  0  0  0  0  0  0  0
   56.4081   29.3079   46.2389 H   0  0  0  0  0  0  0  0  0  0  0  0
   58.1520   28.8900   44.9590 C   0  0  0  0  0  0  0  0  0  0  0  0
   58.6390   30.1000   44.9260 N   0  0  0  0  0  0  0  0  0  0  0  0
   57.9670   31.3560   45.1180 C   0  0  0  0  0  0  0  0  0  0  0  0
   56.7300   31.4680   44.9060 O   0  0  0  0  0  0  0  0  0  0  0  0
   58.7400   32.5070   45.4800 N   0  0  0  0  0  0  0  0  0  0  0  0
   59.7550   32.3800   45.6910 H   0  0  0  0  0  0  0  0  0  0  0  0
   58.1510   33.8340   45.6520 C   0  0  0  0  0  0  0  0  0  0  0  0
   57.4121   33.7972   46.4661 H   0  0  0  0  0  0  0  0  0  0  0  0
   57.6689   34.1294   44.7084 H   0  0  0  0  0  0  0  0  0  0  0  0
   59.2230   34.8660   45.9960 C   0  0  0  0  0  0  0  0  0  0  0  0
   58.9484   35.3848   46.9263 H   0  0  0  0  0  0  0  0  0  0  0  0
   59.3040   35.5989   45.1797 H   0  0  0  0  0  0  0  0  0  0  0  0
   60.4630   34.2120   46.1690 O   0  0  0  0  0  0  0  0  0  0  0  0
   60.7330   34.0790   47.5460 C   0  0  0  0  0  0  0  0  0  0  0  0
   59.8944   34.4921   48.1257 H   0  0  0  0  0  0  0  0  0  0  0  0
   60.8608   33.0148   47.7935 H   0  0  0  0  0  0  0  0  0  0  0  0
   61.6546   34.6262   47.7935 H   0  0  0  0  0  0  0  0  0  0  0  0
   58.8440   27.9010   44.3040 N   0  0  0  0  0  0  0  0  0  0  0  0
   58.4310   26.6010   44.2770 C   0  0  0  0  0  0  0  0  0  0  0  0
   59.0127   25.8324   43.7470 H   0  0  0  0  0  0  0  0  0  0  0  0
   57.2520   26.2770   44.9400 C   0  0  0  0  0  0  0  0  0  0  0  0
   55.9580   23.0620   43.8580 C   0  0  0  0  0  0  0  0  0  0  0  0
   54.9948   23.5311   43.6086 H   0  0  0  0  0  0  0  0  0  0  0  0
   56.2510   21.8230   43.3850 N   0  0  0  0  0  0  0  0  0  0  0  0
  1  2  1  0
  2  3  2  0
  3  4  1  0
  4  5  1  0
  4  6  2  0
  6  7  1  0
  7  8  2  0
  8  9  1  0
  9 10  1  0
 10 11  2  0
 11 12  1  0
 11 13  1  0
 13 14  2  0
 14 15  1  0
 15 16  2  0
 15 17  1  0
 17 18  1  0
 17 19  1  0
 19 20  1  0
 19 21  1  0
 19 22  1  0
 22 23  1  0
 22 24  1  0
 22 25  1  0
 25 26  1  0
 26 27  1  0
 26 28  1  0
 26 29  1  0
 13 30  1  0
 30 31  1  0
 31 32  1  0
 31 33  2  0
  6 34  1  0
 34 35  1  0
 34 36  2  0
 36  2  1  0
 33  7  1  0
 33 10  1  0
M  CHG  2   9  -1  30  -1
M  END
>  <UniqueID>  (12) 
12

>  <SMILES>  (12) 
COCCNC(=O)/N=c1\cc2[n-]nc(-c3cncnc3)c2c[n-]1

>  <Energy>  (12) 
86.76903952474855

>  <Genealogy>  (12) 
COCCNC(=O)N=c1cc2[n-]nc(-c3cncnc3)c2c[n-]1 (protonated)
COCCNC(=O)/N=c1\cc2[n-]nc(-c3cncnc3)c2c[n-]1 (cis-trans isomerization)
COCCNC(=O)/N=c1\cc2[n-]nc(-c3cncnc3)c2c[n-]1 (3D coordinates assigned)
COCCNC(=O)/N=c1\cc2[n-]nc(-c3cncnc3)c2c[n-]1 (optimized conformer: 86.76903952474855 kcal/mol)

>  <smiles>  (12) 
COCCNC(=O)N=c1cc2[nH]nc(-c3cncnc3)c2c[nH]1

>  <score_type>  (12) 
oracle

>  <origin>  (12) 
adg

>  <m_score__min__energy>  (12) 
-10.18

>  <m_primary>  (12) 
energy

$$$$
12:0
     RDKit          3D

 71 74  0  0  0  0  0  0  0  0999 V2000
   61.0860   29.9310   49.2600 C   0  0  0  0  0  0  0  0  0  0  0  0
   61.8250   31.2640   49.3510 C   0  0  0  0  0  0  0  0  0  0  0  0
   60.9550   32.2920   49.9640 N   0  0  0  0  0  0  0  0  0  0  0  0
   59.5430   31.8420   50.0650 C   0  0  0  0  0  0  0  0  0  0  0  0
   58.5620   32.6380   49.1930 C   0  0  0  0  0  0  0  0  0  0  0  0
   61.1230   33.6130   49.3100 C   0  0  0  0  0  0  0  0  0  0  0  0
   62.5120   33.7540   48.6680 C   0  0  0  0  0  0  0  0  0  0  0  0
   62.4480   33.8410   47.1370 C   0  0  0  0  0  0  0  0  0  0  0  0
   61.1250   34.2810   46.6850 N   0  0  0  0  0  0  0  0  0  0  0  0
   60.0620   33.4220   46.2200 C   0  0  0  0  0  0  0  0  0  0  0  0
   58.9540   34.0130   45.5600 C   0  0  0  0  0  0  0  0  0  0  0  0
   57.8960   33.2280   45.0720 C   0  0  0  0  0  0  0  0  0  0  0  0
   57.9610   31.8520   45.2550 C   0  0  0  0  0  0  0  0  0  0  0  0
   59.0320   31.2590   45.8980 C   0  0  0  0  0  0  0  0  0  0  0  0
   60.0960   32.0150   46.3880 C   0  0  0  0  0  0  0  0  0  0  0  0
   58.8030   29.8130   45.9400 C   0  0  0  0  0  0  0  0  0  0  0  0
   59.5830   28.7940   46.4810 C   0  0  0  0  0  0  0  0  0  0  0  0
   59.1070   27.4750   46.3930 C   0  0  0  0  0  0  0  0  0  0  0  0
   57.8610   27.1930   45.7760 C   0  0  0  0  0  0  0  0  0  0  0  0
   57.3740   25.8460   45.6700 N   0  0  0  0  0  0  0  0  0  0  0  0
   56.0140   25.4710   45.9440 C   0  0  0  0  0  0  0  0  0  0  0  0
   55.1180   26.3500   46.0560 O   0  0  0  0  0  0  0  0  0  0  0  0
   55.6460   24.0240   46.0960 C   0  0  0  0  0  0  0  0  0  0  0  0
   56.9100   23.1580   46.1810 C   0  0  0  0  0  0  0  0  0  0  0  0
   57.4920   22.9260   44.8410 N   0  0  0  0  0  0  0  0  0  0  0  0
   56.8320   23.7650   43.8060 C   0  0  0  0  0  0  0  0  0  0  0  0
   55.7390   22.9970   43.0440 C   0  0  0  0  0  0  0  0  0  0  0  0
   56.2620   21.7920   42.3700 N   0  0  0  0  0  0  0  0  0  0  0  0
   57.4930   21.2570   42.9770 C   0  0  0  0  0  0  0  0  0  0  0  0
   57.5130   21.4810   44.4950 C   0  0  0  0  0  0  0  0  0  0  0  0
   57.1060   28.2440   45.2140 C   0  0  0  0  0  0  0  0  0  0  0  0
   57.5970   29.5440   45.3190 C   0  0  0  0  0  0  0  0  0  0  0  0
   57.0210   30.8050   44.8660 C   0  0  0  0  0  0  0  0  0  0  0  0
   55.9270   30.9610   44.2610 O   0  0  0  0  0  0  0  0  0  0  0  0
   60.8786   29.5568   50.2734 H   0  0  0  0  0  0  0  0  0  0  0  0
   60.1380   30.0734   48.7205 H   0  0  0  0  0  0  0  0  0  0  0  0
   61.7090   29.2024   48.7205 H   0  0  0  0  0  0  0  0  0  0  0  0
   62.7272   31.1375   49.9674 H   0  0  0  0  0  0  0  0  0  0  0  0
   62.1038   31.5888   48.3377 H   0  0  0  0  0  0  0  0  0  0  0  0
   59.4955   30.7860   49.7608 H   0  0  0  0  0  0  0  0  0  0  0  0
   59.2360   32.0005   51.1093 H   0  0  0  0  0  0  0  0  0  0  0  0
   57.8702   33.1993   49.8382 H   0  0  0  0  0  0  0  0  0  0  0  0
   59.1223   33.3400   48.5580 H   0  0  0  0  0  0  0  0  0  0  0  0
   57.9905   31.9451   48.5580 H   0  0  0  0  0  0  0  0  0  0  0  0
   60.3560   33.7250   48.5295 H   0  0  0  0  0  0  0  0  0  0  0  0
   61.0185   34.3931   50.0785 H   0  0  0  0  0  0  0  0  0  0  0  0
   62.9872   34.6682   49.0533 H   0  0  0  0  0  0  0  0  0  0  0  0
   63.0917   32.8557   48.9269 H   0  0  0  0  0  0  0  0  0  0  0  0
   63.2039   34.5593   46.7867 H   0  0  0  0  0  0  0  0  0  0  0  0
   62.6420   32.8404   46.7233 H   0  0  0  0  0  0  0  0  0  0  0  0
   60.9740   35.3140   46.6400 H   0  0  0  0  0  0  0  0  0  0  0  0
   58.9227   35.1046   45.4281 H   0  0  0  0  0  0  0  0  0  0  0  0
   57.0396   33.6900   44.5591 H   0  0  0  0  0  0  0  0  0  0  0  0
   60.9437   31.5300   46.8941 H   0  0  0  0  0  0  0  0  0  0  0  0
   60.5459   29.0158   46.9643 H   0  0  0  0  0  0  0  0  0  0  0  0
   59.7073   26.6516   46.8072 H   0  0  0  0  0  0  0  0  0  0  0  0
   58.0150   25.1230   45.2710 H   0  0  0  0  0  0  0  0  0  0  0  0
   55.0552   23.8946   47.0148 H   0  0  0  0  0  0  0  0  0  0  0  0
   55.0567   23.7113   45.2214 H   0  0  0  0  0  0  0  0  0  0  0  0
   57.6530   23.6689   46.8111 H   0  0  0  0  0  0  0  0  0  0  0  0
   56.6363   22.1848   46.6146 H   0  0  0  0  0  0  0  0  0  0  0  0
   56.3754   24.6376   44.2960 H   0  0  0  0  0  0  0  0  0  0  0  0
   57.5994   24.0693   43.0790 H   0  0  0  0  0  0  0  0  0  0  0  0
   54.9592   22.6921   43.7574 H   0  0  0  0  0  0  0  0  0  0  0  0
   55.3377   23.6666   42.2690 H   0  0  0  0  0  0  0  0  0  0  0  0
   56.4730   22.0300   41.3710 H   0  0  0  0  0  0  0  0  0  0  0  0
   57.5521   20.1775   42.7739 H   0  0  0  0  0  0  0  0  0  0  0  0
   58.3526   21.7849   42.5382 H   0  0  0  0  0  0  0  0  0  0  0  0
   56.6305   20.9962   44.9379 H   0  0  0  0  0  0  0  0  0  0  0  0
   58.4433   21.0484   44.8917 H   0  0  0  0  0  0  0  0  0  0  0  0
   56.1521   28.0420   44.7048 H   0  0  0  0  0  0  0  0  0  0  0  0
  1  2  1  0
  2  3  1  0
  3  4  1  0
  4  5  1  0
  3  6  1  0
  6  7  1  0
  7  8  1  0
  8  9  1  0
  9 10  1  0
 10 11  2  0
 11 12  1  0
 12 13  2  0
 13 14  1  0
 14 15  2  0
 14 16  1  0
 16 17  2  0
 17 18  1  0
 18 19  2  0
 19 20  1  0
 20 21  1  0
 21 22  2  0
 21 23  1  0
 23 24  1  0
 24 25  1  0
 25 26  1  0
 26 27  1  0
 27 28  1  0
 28 29  1  0
 29 30  1  0
 19 31  1  0
 31 32  2  0
 32 33  1  0
 33 34  2  0
 15 10  1  0
 32 16  1  0
 33 13  1  0
 30 25  1  0
  1 35  1  0
  1 36  1  0
  1 37  1  0
  2 38  1  0
  2 39  1  0
  4 40  1  0
  4 41  1  0
  5 42  1  0
  5 43  1  0
  5 44  1  0
  6 45  1  0
  6 46  1  0
  7 47  1  0
  7 48  1  0
  8 49  1  0
  8 50  1  0
  9 51  1  0
 11 52  1  0
 12 53  1  0
 15 54  1  0
 17 55  1  0
 18 56  1  0
 20 57  1  0
 23 58  1  0
 23 59  1  0
 24 60  1  0
 24 61  1  0
 26 62  1  0
 26 63  1  0
 27 64  1  0
 27 65  1  0
 28 66  1  0
 29 67  1  0
 29 68  1  0
 30 69  1  0
 30 70  1  0
 31 71  1  0
M  END
>  <UniqueID>  (13) 
13

>  <SMILES>  (13) 
CCN(CC)CCCNc1ccc2c(c1)-c1ccc(NC(=O)CCN3CCNCC3)cc1C2=O

>  <Energy>  (13) 
117.60088544194114

>  <Genealogy>  (13) 
CCN(CC)CCCNc1ccc2c(c1)-c1ccc(NC(=O)CCN3CCNCC3)cc1C2=O (3D coordinates assigned)
CCN(CC)CCCNc1ccc2c(c1)-c1ccc(NC(=O)CCN3CCNCC3)cc1C2=O (nonaromatic ring conformer: 117.60088544194114 kcal/mol)

>  <smiles>  (13) 
CCN(CC)CCCNc1ccc2c(c1)-c1ccc(NC(=O)CCN3CCNCC3)cc1C2=O

>  <score_type>  (13) 
oracle

>  <origin>  (13) 
adg

>  <m_score__min__energy>  (13) 
-11.07

>  <m_primary>  (13) 
energy

$$$$
13:0
     RDKit          3D

 33 35  0  0  0  0  0  0  0  0999 V2000
   60.9696   28.9893   45.8273 H   0  0  0  0  0  0  0  0  0  0  0  0
   59.9200   28.6800   45.7150 C   0  0  0  0  0  0  0  0  0  0  0  0
   59.2220   28.9990   44.5470 C   0  0  0  0  0  0  0  0  0  0  0  0
   59.7280   29.5527   43.7424 H   0  0  0  0  0  0  0  0  0  0  0  0
   57.8770   28.6170   44.3930 C   0  0  0  0  0  0  0  0  0  0  0  0
   57.1530   28.9670   43.1960 N   0  0  0  0  0  0  0  0  0  0  0  0
   57.7660   28.8010   42.3630 H   0  0  0  0  0  0  0  0  0  0  0  0
   56.3230   28.3490   43.0690 H   0  0  0  0  0  0  0  0  0  0  0  0
   56.7550   30.3550   43.2490 C   0  0  0  0  0  0  0  0  0  0  0  0
   57.0140   31.3110   41.9420 S   0  0  0  0  0  0  0  0  0  0  0  0
   56.4730   31.0090   44.4970 N   0  0  0  0  0  0  0  0  0  0  0  0
   57.2450   31.8360   45.1370 C   0  0  0  0  0  0  0  0  0  0  0  0
   57.7820   31.5900   46.3570 N   0  0  0  0  0  0  0  0  0  0  0  0
   58.5160   32.6510   46.7800 C   0  0  0  0  0  0  0  0  0  0  0  0
   59.2010   32.7020   47.9950 C   0  0  0  0  0  0  0  0  0  0  0  0
   59.1775   31.8488   48.6888 H   0  0  0  0  0  0  0  0  0  0  0  0
   59.9220   33.8670   48.3140 C   0  0  0  0  0  0  0  0  0  0  0  0
   60.4699   33.9269   49.2659 H   0  0  0  0  0  0  0  0  0  0  0  0
   59.9470   34.9580   47.4220 C   0  0  0  0  0  0  0  0  0  0  0  0
   60.5138   35.8641   47.6821 H   0  0  0  0  0  0  0  0  0  0  0  0
   59.2530   34.8950   46.2040 C   0  0  0  0  0  0  0  0  0  0  0  0
   59.2647   35.7418   45.5020 H   0  0  0  0  0  0  0  0  0  0  0  0
   58.5490   33.7300   45.9090 C   0  0  0  0  0  0  0  0  0  0  0  0
   57.6340   33.3730   44.5480 S   0  0  0  0  0  0  0  0  0  0  0  0
   57.2420   27.9190   45.4360 C   0  0  0  0  0  0  0  0  0  0  0  0
   56.1885   27.6204   45.3315 H   0  0  0  0  0  0  0  0  0  0  0  0
   57.9410   27.6020   46.6050 C   0  0  0  0  0  0  0  0  0  0  0  0
   57.4321   27.0640   47.4184 H   0  0  0  0  0  0  0  0  0  0  0  0
   59.2880   27.9670   46.7450 C   0  0  0  0  0  0  0  0  0  0  0  0
   60.0310   27.6620   48.0130 C   0  0  0  0  0  0  0  0  0  0  0  0
   59.4020   27.9202   48.8777 H   0  0  0  0  0  0  0  0  0  0  0  0
   60.2767   26.5903   48.0453 H   0  0  0  0  0  0  0  0  0  0  0  0
   60.9588   28.2520   48.0453 H   0  0  0  0  0  0  0  0  0  0  0  0
  1  2  1  0
  2  3  2  0
  3  4  1  0
  3  5  1  0
  5  6  1  0
  6  7  1  0
  6  8  1  0
  6  9  1  0
  9 10  2  0
  9 11  1  0
 11 12  2  0
 12 13  1  0
 13 14  1  0
 14 15  2  0
 15 16  1  0
 15 17  1  0
 17 18  1  0
 17 19  2  0
 19 20  1  0
 19 21  1  0
 21 22  1  0
 21 23  2  0
 23 24  1  0
  5 25  2  0
 25 26  1  0
 25 27  1  0
 27 28  1  0
 27 29  2  0
 29 30  1  0
 30 31  1  0
 30 32  1  0
 30 33  1  0
 29  2  1  0
 24 12  1  0
 23 14  1  0
M  CHG  2   6   1  13  -1
M  END
>  <UniqueID>  (14) 
14

>  <SMILES>  (14) 
Cc1ccc([NH2+]C(=S)/N=c2\[n-]c3ccccc3s2)cc1

>  <Energy>  (14) 
75.19464321057877

>  <Genealogy>  (14) 
Cc1ccc([NH2+]C(=S)N=c2[n-]c3ccccc3s2)cc1 (protonated)
Cc1ccc([NH2+]C(=S)/N=c2\[n-]c3ccccc3s2)cc1 (cis-trans isomerization)
Cc1ccc([NH2+]C(=S)/N=c2\[n-]c3ccccc3s2)cc1 (3D coordinates assigned)
Cc1ccc([NH2+]C(=S)/N=c2\[n-]c3ccccc3s2)cc1 (optimized conformer: 75.19464321057877 kcal/mol)

>  <smiles>  (14) 
Cc1ccc(NC(=S)N=c2[nH]c3ccccc3s2)cc1

>  <score_type>  (14) 
oracle

>  <origin>  (14) 
adg

>  <m_score__min__energy>  (14) 
-8.2899999999999991

>  <m_primary>  (14) 
energy

$$$$
14:0
     RDKit          3D

 54 57  0  0  0  0  0  0  0  0999 V2000
   66.0560   32.3520   50.4230 C   0  0  0  0  0  0  0  0  0  0  0  0
   65.4890   33.1780   49.4110 O   0  0  0  0  0  0  0  0  0  0  0  0
   64.1750   33.0560   48.9360 C   0  0  0  0  0  0  0  0  0  0  0  0
   63.2510   34.0530   49.2730 C   0  0  0  0  0  0  0  0  0  0  0  0
   61.9280   33.9730   48.8320 C   0  0  0  0  0  0  0  0  0  0  0  0
   61.5050   32.8850   48.0520 C   0  0  0  0  0  0  0  0  0  0  0  0
   60.1380   32.7780   47.6160 N   0  0  0  0  0  0  0  0  0  0  0  0
   59.7790   32.7320   46.3420 N   0  0  0  0  0  0  0  0  0  0  0  0
   58.4360   32.6980   46.2730 C   0  0  0  0  0  0  0  0  0  0  0  0
   57.6530   32.6000   45.0000 C   0  0  0  0  0  0  0  0  0  0  0  0
   57.0270   31.2670   44.8840 N   0  0  0  0  0  0  0  0  0  0  0  0
   56.9080   30.8740   43.4610 C   0  0  0  0  0  0  0  0  0  0  0  0
   56.5910   29.3880   43.2980 C   0  0  0  0  0  0  0  0  0  0  0  0
   58.0250   28.3400   43.7430 S   0  0  0  0  0  0  0  0  0  0  0  0
   58.7690   29.4490   44.9970 C   0  0  0  0  0  0  0  0  0  0  0  0
   57.7010   30.2570   45.7420 C   0  0  0  0  0  0  0  0  0  0  0  0
   57.9090   32.7130   47.5520 C   0  0  0  0  0  0  0  0  0  0  0  0
   59.0170   32.7560   48.3810 C   0  0  0  0  0  0  0  0  0  0  0  0
   58.9660   32.7090   49.8590 C   0  0  0  0  0  0  0  0  0  0  0  0
   59.2550   33.8740   50.5880 C   0  0  0  0  0  0  0  0  0  0  0  0
   59.2420   33.8560   51.9830 C   0  0  0  0  0  0  0  0  0  0  0  0
   58.9330   32.6790   52.6640 C   0  0  0  0  0  0  0  0  0  0  0  0
   58.6220   31.5180   51.9530 C   0  0  0  0  0  0  0  0  0  0  0  0
   58.6220   31.5230   50.5430 C   0  0  0  0  0  0  0  0  0  0  0  0
   58.2700   30.3850   49.7940 O   0  0  0  0  0  0  0  0  0  0  0  0
   59.1820   29.4330   49.2540 C   0  0  0  0  0  0  0  0  0  0  0  0
   59.6660   28.6130   50.2570 F   0  0  0  0  0  0  0  0  0  0  0  0
   60.2300   30.0800   48.6240 F   0  0  0  0  0  0  0  0  0  0  0  0
   58.5170   28.6560   48.3250 F   0  0  0  0  0  0  0  0  0  0  0  0
   62.4320   31.8950   47.6970 C   0  0  0  0  0  0  0  0  0  0  0  0
   63.7560   31.9730   48.1400 C   0  0  0  0  0  0  0  0  0  0  0  0
   65.7849   32.7470   51.4132 H   0  0  0  0  0  0  0  0  0  0  0  0
   65.6701   31.3272   50.3188 H   0  0  0  0  0  0  0  0  0  0  0  0
   67.1510   32.3438   50.3188 H   0  0  0  0  0  0  0  0  0  0  0  0
   63.5697   34.9061   49.8900 H   0  0  0  0  0  0  0  0  0  0  0  0
   61.2139   34.7665   49.0972 H   0  0  0  0  0  0  0  0  0  0  0  0
   60.4390   32.7420   45.5320 H   0  0  0  0  0  0  0  0  0  0  0  0
   56.8683   33.3709   44.9965 H   0  0  0  0  0  0  0  0  0  0  0  0
   58.3335   32.7508   44.1490 H   0  0  0  0  0  0  0  0  0  0  0  0
   56.1017   31.4613   42.9974 H   0  0  0  0  0  0  0  0  0  0  0  0
   57.8752   31.0687   42.9745 H   0  0  0  0  0  0  0  0  0  0  0  0
   55.7441   29.1300   43.9508 H   0  0  0  0  0  0  0  0  0  0  0  0
   56.3440   29.2027   42.2422 H   0  0  0  0  0  0  0  0  0  0  0  0
   59.3282   28.8414   45.7237 H   0  0  0  0  0  0  0  0  0  0  0  0
   59.4350   30.1550   44.4793 H   0  0  0  0  0  0  0  0  0  0  0  0
   56.9406   29.5611   46.1261 H   0  0  0  0  0  0  0  0  0  0  0  0
   58.2086   30.8019   46.5516 H   0  0  0  0  0  0  0  0  0  0  0  0
   56.8487   32.6949   47.8444 H   0  0  0  0  0  0  0  0  0  0  0  0
   59.4932   34.8067   50.0557 H   0  0  0  0  0  0  0  0  0  0  0  0
   59.4758   34.7714   52.5464 H   0  0  0  0  0  0  0  0  0  0  0  0
   58.9342   32.6650   53.7639 H   0  0  0  0  0  0  0  0  0  0  0  0
   58.3755   30.5939   52.4963 H   0  0  0  0  0  0  0  0  0  0  0  0
   62.1158   31.0514   47.0659 H   0  0  0  0  0  0  0  0  0  0  0  0
   64.4729   31.1852   47.8655 H   0  0  0  0  0  0  0  0  0  0  0  0
  1  2  1  0
  2  3  1  0
  3  4  2  0
  4  5  1  0
  5  6  2  0
  6  7  1  0
  7  8  1  0
  8  9  2  0
  9 10  1  0
 10 11  1  0
 11 12  1  0
 12 13  1  0
 13 14  1  0
 14 15  1  0
 15 16  1  0
  9 17  1  0
 17 18  2  0
 18 19  1  0
 19 20  2  0
 20 21  1  0
 21 22  2  0
 22 23  1  0
 23 24  2  0
 24 25  1  0
 25 26  1  0
 26 27  1  0
 26 28  1  0
 26 29  1  0
  6 30  1  0
 30 31  2  0
 31  3  1  0
 18  7  1  0
 24 19  1  0
 16 11  1  0
  1 32  1  0
  1 33  1  0
  1 34  1  0
  4 35  1  0
  5 36  1  0
  8 37  1  0
 10 38  1  0
 10 39  1  0
 12 40  1  0
 12 41  1  0
 13 42  1  0
 13 43  1  0
 15 44  1  0
 15 45  1  0
 16 46  1  0
 16 47  1  0
 17 48  1  0
 20 49  1  0
 21 50  1  0
 22 51  1  0
 23 52  1  0
 30 53  1  0
 31 54  1  0
M  CHG  1   8   1
M  END
>  <UniqueID>  (15) 
15

>  <SMILES>  (15) 
COc1ccc(-n2[nH+]c(CN3CCSCC3)cc2-c2ccccc2OC(F)(F)F)cc1

>  <Energy>  (15) 
101.35503177014142

>  <Genealogy>  (15) 
COc1ccc(-n2[nH+]c(CN3CCSCC3)cc2-c2ccccc2OC(F)(F)F)cc1 (protonated)
COc1ccc(-n2[nH+]c(CN3CCSCC3)cc2-c2ccccc2OC(F)(F)F)cc1 (3D coordinates assigned)
COc1ccc(-n2[nH+]c(CN3CCSCC3)cc2-c2ccccc2OC(F)(F)F)cc1 (nonaromatic ring conformer: 101.35503177014142 kcal/mol)

>  <smiles>  (15) 
COc1ccc(-n2nc(CN3CCSCC3)cc2-c2ccccc2OC(F)(F)F)cc1

>  <score_type>  (15) 
oracle

>  <origin>  (15) 
adg

>  <m_score__min__energy>  (15) 
-6.3300000000000001

>  <m_primary>  (15) 
energy

$$$$
15:0
     RDKit          3D

 45 47  0  0  0  0  0  0  0  0999 V2000
   60.2090   26.7480   48.0180 C   0  0  0  0  0  0  0  0  0  0  0  0
   58.8890   27.0930   47.3190 C   0  0  0  0  0  0  0  0  0  0  0  0
   58.7210   28.5590   47.1330 N   0  0  0  0  0  0  0  0  0  0  0  0
   60.0270   29.2440   47.1680 C   0  0  0  0  0  0  0  0  0  0  0  0
   60.5820   29.2680   45.7440 C   0  0  0  0  0  0  0  0  0  0  0  0
   59.4020   28.9310   44.8500 C   0  0  0  0  0  0  0  0  0  0  0  0
   58.2070   28.9380   45.7960 C   0  0  1  0  0  0  0  0  0  0  0  0
   56.9930   28.1440   45.2480 C   0  0  0  0  0  0  0  0  0  0  0  0
   55.7740   28.9760   45.2460 N   0  0  0  0  0  0  0  0  0  0  0  0
   55.5210   29.6610   43.9670 C   0  0  0  0  0  0  0  0  0  0  0  0
   56.4950   30.7880   43.7260 C   0  0  0  0  0  0  0  0  0  0  0  0
   56.9280   31.0530   42.4190 C   0  0  0  0  0  0  0  0  0  0  0  0
   57.8640   32.0600   42.1750 C   0  0  0  0  0  0  0  0  0  0  0  0
   58.3770   32.8120   43.2320 C   0  0  0  0  0  0  0  0  0  0  0  0
   57.9750   32.5520   44.5540 C   0  0  0  0  0  0  0  0  0  0  0  0
   58.5090   33.3610   45.6790 C   0  0  0  0  0  0  0  0  0  0  0  0
   58.4020   32.9800   47.0300 C   0  0  0  0  0  0  0  0  0  0  0  0
   58.9790   33.8790   47.9140 C   0  0  0  0  0  0  0  0  0  0  0  0
   59.6220   35.1480   47.0230 S   0  0  0  0  0  0  0  0  0  0  0  0
   59.1800   34.5720   45.5080 C   0  0  0  0  0  0  0  0  0  0  0  0
   57.0540   31.5160   44.7940 C   0  0  0  0  0  0  0  0  0  0  0  0
   60.0672   26.7851   49.1082 H   0  0  0  0  0  0  0  0  0  0  0  0
   60.5264   25.7367   47.7237 H   0  0  0  0  0  0  0  0  0  0  0  0
   60.9806   27.4746   47.7237 H   0  0  0  0  0  0  0  0  0  0  0  0
   58.8720   26.6061   46.3328 H   0  0  0  0  0  0  0  0  0  0  0  0
   58.0655   26.7356   47.9547 H   0  0  0  0  0  0  0  0  0  0  0  0
   59.9001   30.2724   47.5372 H   0  0  0  0  0  0  0  0  0  0  0  0
   60.7191   28.7162   47.8406 H   0  0  0  0  0  0  0  0  0  0  0  0
   60.9773   30.2653   45.5010 H   0  0  0  0  0  0  0  0  0  0  0  0
   61.4115   28.5573   45.6145 H   0  0  0  0  0  0  0  0  0  0  0  0
   59.2805   29.6881   44.0613 H   0  0  0  0  0  0  0  0  0  0  0  0
   59.5254   27.9686   44.3318 H   0  0  0  0  0  0  0  0  0  0  0  0
   57.7567   29.9373   45.8888 H   0  0  0  0  0  0  0  0  0  0  0  0
   57.2095   27.8206   44.2191 H   0  0  0  0  0  0  0  0  0  0  0  0
   56.8217   27.2731   45.8978 H   0  0  0  0  0  0  0  0  0  0  0  0
   55.8900   29.7180   45.9760 H   0  0  0  0  0  0  0  0  0  0  0  0
   55.6132   28.9312   43.1491 H   0  0  0  0  0  0  0  0  0  0  0  0
   54.5088   30.0898   44.0061 H   0  0  0  0  0  0  0  0  0  0  0  0
   56.5278   30.4639   41.5806 H   0  0  0  0  0  0  0  0  0  0  0  0
   58.1978   32.2609   41.1463 H   0  0  0  0  0  0  0  0  0  0  0  0
   59.1016   33.6145   43.0297 H   0  0  0  0  0  0  0  0  0  0  0  0
   57.9059   32.0535   47.3548 H   0  0  0  0  0  0  0  0  0  0  0  0
   59.0100   33.7781   49.0089 H   0  0  0  0  0  0  0  0  0  0  0  0
   59.3846   35.0651   44.5463 H   0  0  0  0  0  0  0  0  0  0  0  0
   56.7673   31.2719   45.8275 H   0  0  0  0  0  0  0  0  0  0  0  0
  1  2  1  0
  2  3  1  0
  3  4  1  0
  4  5  1  0
  5  6  1  0
  6  7  1  0
  7  8  1  0
  8  9  1  0
  9 10  1  0
 10 11  1  0
 11 12  2  0
 12 13  1  0
 13 14  2  0
 14 15  1  0
 15 16  1  0
 16 17  1  0
 17 18  2  0
 18 19  1  0
 19 20  1  0
 15 21  2  0
  7  3  1  0
 21 11  1  0
 20 16  2  0
  1 22  1  0
  1 23  1  0
  1 24  1  0
  2 25  1  0
  2 26  1  0
  4 27  1  0
  4 28  1  0
  5 29  1  0
  5 30  1  0
  6 31  1  0
  6 32  1  0
  7 33  1  1
  8 34  1  0
  8 35  1  0
  9 36  1  0
 10 37  1  0
 10 38  1  0
 12 39  1  0
 13 40  1  0
 14 41  1  0
 17 42  1  0
 18 43  1  0
 20 44  1  0
 21 45  1  0
M  END
>  <UniqueID>  (16) 
16

>  <SMILES>  (16) 
CCN1CCC[C@H]1CNCc1cccc(-c2ccsc2)c1

>  <Energy>  (16) 
83.75550806436624

>  <Genealogy>  (16) 
CCN1CCC[C@H]1CNCc1cccc(-c2ccsc2)c1 (chirality)
CCN1CCC[C@H]1CNCc1cccc(-c2ccsc2)c1 (3D coordinates assigned)
CCN1CCC[C@H]1CNCc1cccc(-c2ccsc2)c1 (nonaromatic ring conformer: 83.75550806436624 kcal/mol)

>  <smiles>  (16) 
CCN1CCCC1CNCc1cccc(-c2ccsc2)c1

>  <score_type>  (16) 
oracle

>  <origin>  (16) 
adg

>  <m_score__min__energy>  (16) 
-7.9699999999999998

>  <m_primary>  (16) 
energy

$$$$
16:0
     RDKit          3D

 39 42  0  0  0  0  0  0  0  0999 V2000
   59.6280   34.8590   45.9810 C   0  0  0  0  0  0  0  0  0  0  0  0
   59.0130   34.5240   47.1800 C   0  0  0  0  0  0  0  0  0  0  0  0
   57.8370   33.3630   46.8670 S   0  0  0  0  0  0  0  0  0  0  0  0
   58.0950   33.2890   45.2060 C   0  0  0  0  0  0  0  0  0  0  0  0
   57.3820   32.3680   44.2570 C   0  0  0  0  0  0  0  0  0  0  0  0
   56.9590   31.1210   44.9120 N   0  0  0  0  0  0  0  0  0  0  0  0
   57.7260   29.9650   44.4340 C   0  0  0  0  0  0  0  0  0  0  0  0
   58.9020   29.7410   45.3270 C   0  0  0  0  0  0  0  0  0  0  0  0
   59.7320   28.6440   45.3170 C   0  0  0  0  0  0  0  0  0  0  0  0
   60.5900   28.7950   46.2940 O   0  0  0  0  0  0  0  0  0  0  0  0
   60.2980   29.9270   46.9010 C   0  0  0  0  0  0  0  0  0  0  0  0
   61.0760   30.4590   48.0440 C   0  0  0  0  0  0  0  0  0  0  0  0
   60.9890   29.7620   49.2610 C   0  0  0  0  0  0  0  0  0  0  0  0
   61.7530   30.1470   50.3620 C   0  0  0  0  0  0  0  0  0  0  0  0
   62.6140   31.2370   50.2740 C   0  0  0  0  0  0  0  0  0  0  0  0
   62.7010   31.9740   49.0850 C   0  0  0  0  0  0  0  0  0  0  0  0
   63.5510   33.0900   49.0180 C   0  0  0  0  0  0  0  0  0  0  0  0
   63.6160   33.8560   47.8550 C   0  0  0  0  0  0  0  0  0  0  0  0
   62.8240   33.5280   46.7550 C   0  0  0  0  0  0  0  0  0  0  0  0
   61.9750   32.4190   46.8040 C   0  0  0  0  0  0  0  0  0  0  0  0
   61.9170   31.6040   47.9570 C   0  0  0  0  0  0  0  0  0  0  0  0
   59.2490   30.5620   46.3360 N   0  0  0  0  0  0  0  0  0  0  0  0
   59.1200   34.1660   44.8760 C   0  0  0  0  0  0  0  0  0  0  0  0
   60.4382   35.5993   45.9065 H   0  0  0  0  0  0  0  0  0  0  0  0
   59.2540   34.9461   48.1668 H   0  0  0  0  0  0  0  0  0  0  0  0
   56.4924   32.8822   43.8643 H   0  0  0  0  0  0  0  0  0  0  0  0
   58.0804   32.1068   43.4483 H   0  0  0  0  0  0  0  0  0  0  0  0
   57.0930   31.2150   45.9470 H   0  0  0  0  0  0  0  0  0  0  0  0
   57.0847   29.0713   44.4419 H   0  0  0  0  0  0  0  0  0  0  0  0
   58.0765   30.1572   43.4092 H   0  0  0  0  0  0  0  0  0  0  0  0
   59.6836   27.7966   44.6173 H   0  0  0  0  0  0  0  0  0  0  0  0
   60.3093   28.9014   49.3462 H   0  0  0  0  0  0  0  0  0  0  0  0
   61.6748   29.5863   51.3051 H   0  0  0  0  0  0  0  0  0  0  0  0
   63.2286   31.5211   51.1409 H   0  0  0  0  0  0  0  0  0  0  0  0
   64.1683   33.3609   49.8872 H   0  0  0  0  0  0  0  0  0  0  0  0
   64.2936   34.7211   47.8049 H   0  0  0  0  0  0  0  0  0  0  0  0
   62.8677   34.1446   45.8451 H   0  0  0  0  0  0  0  0  0  0  0  0
   61.3448   32.1778   45.9353 H   0  0  0  0  0  0  0  0  0  0  0  0
   59.4945   34.3022   43.8507 H   0  0  0  0  0  0  0  0  0  0  0  0
  1  2  2  0
  2  3  1  0
  3  4  1  0
  4  5  1  0
  5  6  1  0
  6  7  1  0
  7  8  1  0
  8  9  2  0
  9 10  1  0
 10 11  1  0
 11 12  1  0
 12 13  2  0
 13 14  1  0
 14 15  2  0
 15 16  1  0
 16 17  2  0
 17 18  1  0
 18 19  2  0
 19 20  1  0
 20 21  2  0
 11 22  2  0
  4 23  2  0
 23  1  1  0
 22  8  1  0
 21 12  1  0
 21 16  1  0
  1 24  1  0
  2 25  1  0
  5 26  1  0
  5 27  1  0
  6 28  1  0
  7 29  1  0
  7 30  1  0
  9 31  1  0
 13 32  1  0
 14 33  1  0
 15 34  1  0
 17 35  1  0
 18 36  1  0
 19 37  1  0
 20 38  1  0
 23 39  1  0
M  END
>  <UniqueID>  (17) 
17

>  <SMILES>  (17) 
c1csc(CNCc2coc(-c3cccc4ccccc34)n2)c1

>  <Energy>  (17) 
106.21827309815582

>  <Genealogy>  (17) 
c1csc(CNCc2coc(-c3cccc4ccccc34)n2)c1 (3D coordinates assigned)
c1csc(CNCc2coc(-c3cccc4ccccc34)n2)c1 (optimized conformer: 106.21827309815582 kcal/mol)

>  <smiles>  (17) 
c1csc(CNCc2coc(-c3cccc4ccccc34)n2)c1

>  <score_type>  (17) 
oracle

>  <origin>  (17) 
adg

>  <m_score__min__energy>  (17) 
-7.7599999999999998

>  <m_primary>  (17) 
energy

$$$$
17:0
     RDKit          3D

 52 54  0  0  0  0  0  0  0  0999 V2000
   60.1040   27.8940   48.2670 C   0  0  0  0  0  0  0  0  0  0  0  0
   60.5860   26.8340   47.6100 C   0  0  0  0  0  0  0  0  0  0  0  0
   59.8340   26.2020   46.4730 C   0  0  0  0  0  0  0  0  0  0  0  0
   59.0190   27.2280   45.7330 C   0  0  0  0  0  0  0  0  0  0  0  0
   59.6450   28.1600   44.8880 C   0  0  0  0  0  0  0  0  0  0  0  0
   58.8880   29.1300   44.2260 C   0  0  0  0  0  0  0  0  0  0  0  0
   57.4960   29.1810   44.3950 C   0  0  0  0  0  0  0  0  0  0  0  0
   56.6900   30.2500   43.7170 C   0  0  0  0  0  0  0  0  0  0  0  0
   56.3990   31.2810   44.6550 O   0  0  0  0  0  0  0  0  0  0  0  0
   57.3600   32.1230   45.2340 C   0  0  0  0  0  0  0  0  0  0  0  0
   57.5370   33.4590   44.8280 C   0  0  0  0  0  0  0  0  0  0  0  0
   58.5120   34.2570   45.4360 C   0  0  0  0  0  0  0  0  0  0  0  0
   59.3180   33.7360   46.4590 C   0  0  0  0  0  0  0  0  0  0  0  0
   60.3880   34.5950   47.0930 C   0  0  0  0  0  0  0  0  0  0  0  0
   61.5040   33.7800   47.6320 N   0  0  0  0  0  0  0  0  0  0  0  0
   62.6620   33.8450   46.7140 C   0  0  0  0  0  0  0  0  0  0  0  0
   63.7660   32.8480   47.1260 C   0  0  0  0  0  0  0  0  0  0  0  0
   63.7620   32.5530   48.6340 C   0  0  0  0  0  0  0  0  0  0  0  0
   63.2970   33.7720   49.4290 C   0  0  0  0  0  0  0  0  0  0  0  0
   61.8820   34.2260   49.0020 C   0  0  0  0  0  0  0  0  0  0  0  0
   59.1430   32.4030   46.8600 C   0  0  0  0  0  0  0  0  0  0  0  0
   58.1690   31.6060   46.2520 C   0  0  0  0  0  0  0  0  0  0  0  0
   56.8740   28.2680   45.2600 C   0  0  0  0  0  0  0  0  0  0  0  0
   57.6300   27.2960   45.9220 C   0  0  0  0  0  0  0  0  0  0  0  0
   60.6776   28.3351   49.0955 H   0  0  0  0  0  0  0  0  0  0  0  0
   59.1338   28.3250   47.9790 H   0  0  0  0  0  0  0  0  0  0  0  0
   61.5576   26.4140   47.9094 H   0  0  0  0  0  0  0  0  0  0  0  0
   60.5518   25.7423   45.7777 H   0  0  0  0  0  0  0  0  0  0  0  0
   59.1536   25.4403   46.8815 H   0  0  0  0  0  0  0  0  0  0  0  0
   60.7354   28.1258   44.7471 H   0  0  0  0  0  0  0  0  0  0  0  0
   59.3861   29.8578   43.5686 H   0  0  0  0  0  0  0  0  0  0  0  0
   57.2649   30.6677   42.8773 H   0  0  0  0  0  0  0  0  0  0  0  0
   55.7517   29.8205   43.3361 H   0  0  0  0  0  0  0  0  0  0  0  0
   56.9063   33.8772   44.0297 H   0  0  0  0  0  0  0  0  0  0  0  0
   58.6473   35.2988   45.1100 H   0  0  0  0  0  0  0  0  0  0  0  0
   60.7857   35.2853   46.3345 H   0  0  0  0  0  0  0  0  0  0  0  0
   59.9324   35.1450   47.9296 H   0  0  0  0  0  0  0  0  0  0  0  0
   61.1810   32.7830   47.6760 H   0  0  0  0  0  0  0  0  0  0  0  0
   62.3246   33.6040   45.6951 H   0  0  0  0  0  0  0  0  0  0  0  0
   63.0806   34.8613   46.7573 H   0  0  0  0  0  0  0  0  0  0  0  0
   63.6100   31.9048   46.5820 H   0  0  0  0  0  0  0  0  0  0  0  0
   64.7361   33.3034   46.8779 H   0  0  0  0  0  0  0  0  0  0  0  0
   63.0818   31.7121   48.8342 H   0  0  0  0  0  0  0  0  0  0  0  0
   64.7869   32.3020   48.9448 H   0  0  0  0  0  0  0  0  0  0  0  0
   63.2817   33.5157   50.4986 H   0  0  0  0  0  0  0  0  0  0  0  0
   63.9966   34.5977   49.2321 H   0  0  0  0  0  0  0  0  0  0  0  0
   61.1537   33.8138   49.7159 H   0  0  0  0  0  0  0  0  0  0  0  0
   61.8828   35.3260   48.9959 H   0  0  0  0  0  0  0  0  0  0  0  0
   59.7751   31.9833   47.6564 H   0  0  0  0  0  0  0  0  0  0  0  0
   58.0373   30.5633   46.5766 H   0  0  0  0  0  0  0  0  0  0  0  0
   55.7865   28.3172   45.4180 H   0  0  0  0  0  0  0  0  0  0  0  0
   57.1336   26.5809   46.5944 H   0  0  0  0  0  0  0  0  0  0  0  0
  1  2  2  0
  2  3  1  0
  3  4  1  0
  4  5  2  0
  5  6  1  0
  6  7  2  0
  7  8  1  0
  8  9  1  0
  9 10  1  0
 10 11  2  0
 11 12  1  0
 12 13  2  0
 13 14  1  0
 14 15  1  0
 15 16  1  0
 16 17  1  0
 17 18  1  0
 18 19  1  0
 19 20  1  0
 13 21  1  0
 21 22  2  0
  7 23  1  0
 23 24  2  0
 24  4  1  0
 22 10  1  0
 20 15  1  0
  1 25  1  0
  1 26  1  0
  2 27  1  0
  3 28  1  0
  3 29  1  0
  5 30  1  0
  6 31  1  0
  8 32  1  0
  8 33  1  0
 11 34  1  0
 12 35  1  0
 14 36  1  0
 14 37  1  0
 15 38  1  0
 16 39  1  0
 16 40  1  0
 17 41  1  0
 17 42  1  0
 18 43  1  0
 18 44  1  0
 19 45  1  0
 19 46  1  0
 20 47  1  0
 20 48  1  0
 21 49  1  0
 22 50  1  0
 23 51  1  0
 24 52  1  0
M  CHG  1  15   1
M  END
>  <UniqueID>  (18) 
18

>  <SMILES>  (18) 
C=CCc1ccc(COc2ccc(C[NH+]3CCCCC3)cc2)cc1

>  <Energy>  (18) 
54.058279867058566

>  <Genealogy>  (18) 
C=CCc1ccc(COc2ccc(C[NH+]3CCCCC3)cc2)cc1 (protonated)
C=CCc1ccc(COc2ccc(C[NH+]3CCCCC3)cc2)cc1 (3D coordinates assigned)
C=CCc1ccc(COc2ccc(C[NH+]3CCCCC3)cc2)cc1 (nonaromatic ring conformer: 54.058279867058566 kcal/mol)

>  <smiles>  (18) 
C=CCc1ccc(COc2ccc(CN3CCCCC3)cc2)cc1

>  <score_type>  (18) 
oracle

>  <origin>  (18) 
adg

>  <m_score__min__energy>  (18) 
-6.7800000000000002

>  <m_primary>  (18) 
energy

$$$$
18:0
     RDKit          3D

 31 32  0  0  0  0  0  0  0  0999 V2000
   63.7810   32.7040   48.1970 C   0  0  0  0  0  0  0  0  0  0  0  0
   62.8220   31.8980   47.5760 O   0  0  0  0  0  0  0  0  0  0  0  0
   61.6200   32.2990   47.0570 C   0  0  0  0  0  0  0  0  0  0  0  0
   61.5310   33.5350   46.4370 C   0  0  0  0  0  0  0  0  0  0  0  0
   60.3440   33.9910   45.8950 C   0  0  0  0  0  0  0  0  0  0  0  0
   59.1900   33.2310   45.9480 C   0  0  0  0  0  0  0  0  0  0  0  0
   57.5380   33.8320   45.2100 Br  0  0  0  0  0  0  0  0  0  0  0  0
   59.2780   32.0010   46.5660 C   0  0  0  0  0  0  0  0  0  0  0  0
   58.1060   31.1070   46.6800 C   0  0  0  0  0  0  0  0  0  0  0  0
   58.1480   30.0220   45.6990 C   0  0  0  0  0  0  0  0  0  0  0  0
   59.1840   29.1160   45.5880 C   0  0  0  0  0  0  0  0  0  0  0  0
   59.1840   28.1380   44.6750 N   0  0  0  0  0  0  0  0  0  0  0  0
   58.1480   27.9980   43.8090 C   0  0  0  0  0  0  0  0  0  0  0  0
   58.1570   27.0470   42.9270 N   0  0  0  0  0  0  0  0  0  0  0  0
   57.1240   28.8790   43.9050 N   0  0  0  0  0  0  0  0  0  0  0  0
   57.0970   29.8660   44.8060 C   0  0  0  0  0  0  0  0  0  0  0  0
   56.0820   30.6580   44.8270 N   0  0  0  0  0  0  0  0  0  0  0  0
   60.4730   31.5310   47.1160 C   0  0  0  0  0  0  0  0  0  0  0  0
   63.6799   32.6190   49.2890 H   0  0  0  0  0  0  0  0  0  0  0  0
   64.7867   32.3760   47.8953 H   0  0  0  0  0  0  0  0  0  0  0  0
   63.6309   33.7511   47.8953 H   0  0  0  0  0  0  0  0  0  0  0  0
   62.4275   34.1693   46.3746 H   0  0  0  0  0  0  0  0  0  0  0  0
   60.3168   34.9787   45.4116 H   0  0  0  0  0  0  0  0  0  0  0  0
   58.0877   30.6721   47.6902 H   0  0  0  0  0  0  0  0  0  0  0  0
   57.2025   31.7044   46.4881 H   0  0  0  0  0  0  0  0  0  0  0  0
   60.0394   29.2013   46.2743 H   0  0  0  0  0  0  0  0  0  0  0  0
   60.0060   27.5000   44.6630 H   0  0  0  0  0  0  0  0  0  0  0  0
   57.2630   26.6320   42.6260 H   0  0  0  0  0  0  0  0  0  0  0  0
   56.3260   28.7860   43.2500 H   0  0  0  0  0  0  0  0  0  0  0  0
   55.1660   30.4760   45.2470 H   0  0  0  0  0  0  0  0  0  0  0  0
   60.5010   30.5432   47.5991 H   0  0  0  0  0  0  0  0  0  0  0  0
  1  2  1  0
  2  3  1  0
  3  4  2  0
  4  5  1  0
  5  6  2  0
  6  7  1  0
  6  8  1  0
  8  9  1  0
  9 10  1  0
 10 11  2  0
 11 12  1  0
 12 13  1  0
 13 14  2  3
 13 15  1  0
 15 16  1  0
 16 17  2  3
  8 18  2  0
 18  3  1  0
 16 10  1  0
  1 19  1  0
  1 20  1  0
  1 21  1  0
  4 22  1  0
  5 23  1  0
  9 24  1  0
  9 25  1  0
 11 26  1  0
 12 27  1  0
 14 28  1  0
 15 29  1  0
 17 30  1  0
 18 31  1  0
M  END
>  <smiles>  (19) 
COc1ccc(Br)c(Cc2c[nH]c(=N)[nH]c2=N)c1

>  <score_type>  (19) 
oracle

>  <origin>  (19) 
adg

>  <m_score__min__energy>  (19) 
-6.75

>  <m_primary>  (19) 
energy

$$$$
19:0
     RDKit          3D

 36 38  0  0  0  0  0  0  0  0999 V2000
   63.8850   33.0630   48.8700 C   0  0  0  0  0  0  0  0  0  0  0  0
   62.8100   33.9920   48.9630 O   0  0  0  0  0  0  0  0  0  0  0  0
   61.6320   33.9180   48.2060 C   0  0  0  0  0  0  0  0  0  0  0  0
   61.7390   33.8510   46.8120 C   0  0  0  0  0  0  0  0  0  0  0  0
   60.5940   33.7750   46.0130 C   0  0  0  0  0  0  0  0  0  0  0  0
   59.3250   33.7630   46.6030 C   0  0  0  0  0  0  0  0  0  0  0  0
   57.8940   33.6510   45.5810 S   0  0  0  0  0  0  0  0  0  0  0  0
   57.7420   34.9660   44.8680 O   0  0  0  0  0  0  0  0  0  0  0  0
   56.6670   33.3970   46.4110 O   0  0  0  0  0  0  0  0  0  0  0  0
   58.0800   32.3520   44.4330 N   0  0  0  0  0  0  0  0  0  0  0  0
   58.3160   32.6610   43.0180 C   0  0  0  0  0  0  0  0  0  0  0  0
   57.3750   31.8710   42.1570 C   0  0  0  0  0  0  0  0  0  0  0  0
   57.0150   32.3180   41.0360 O   0  0  0  0  0  0  0  0  0  0  0  0
   56.9450   30.5740   42.5850 N   0  0  0  0  0  0  0  0  0  0  0  0
   57.2970   30.0940   43.8900 C   0  0  0  0  0  0  0  0  0  0  0  0
   57.0610   28.7580   44.2460 C   0  0  0  0  0  0  0  0  0  0  0  0
   57.4290   28.2960   45.5120 C   0  0  0  0  0  0  0  0  0  0  0  0
   58.0380   29.1620   46.4250 C   0  0  0  0  0  0  0  0  0  0  0  0
   58.2680   30.4980   46.0810 C   0  0  0  0  0  0  0  0  0  0  0  0
   57.8810   30.9760   44.8170 C   0  0  0  0  0  0  0  0  0  0  0  0
   59.2070   33.8310   47.9970 C   0  0  0  0  0  0  0  0  0  0  0  0
   60.3530   33.9080   48.7970 C   0  0  0  0  0  0  0  0  0  0  0  0
   64.2131   32.7795   49.8809 H   0  0  0  0  0  0  0  0  0  0  0  0
   63.5489   32.1664   48.3286 H   0  0  0  0  0  0  0  0  0  0  0  0
   64.7235   33.5255   48.3286 H   0  0  0  0  0  0  0  0  0  0  0  0
   62.7329   33.8582   46.3407 H   0  0  0  0  0  0  0  0  0  0  0  0
   60.6909   33.7245   44.9184 H   0  0  0  0  0  0  0  0  0  0  0  0
   58.1514   33.7351   42.8472 H   0  0  0  0  0  0  0  0  0  0  0  0
   59.3517   32.3966   42.7583 H   0  0  0  0  0  0  0  0  0  0  0  0
   56.3920   29.9720   41.9330 H   0  0  0  0  0  0  0  0  0  0  0  0
   56.5858   28.0735   43.5278 H   0  0  0  0  0  0  0  0  0  0  0  0
   57.2393   27.2490   45.7909 H   0  0  0  0  0  0  0  0  0  0  0  0
   58.3371   28.7916   47.4166 H   0  0  0  0  0  0  0  0  0  0  0  0
   58.7521   31.1752   46.8001 H   0  0  0  0  0  0  0  0  0  0  0  0
   58.2112   33.8239   48.4643 H   0  0  0  0  0  0  0  0  0  0  0  0
   60.2547   33.9609   49.8913 H   0  0  0  0  0  0  0  0  0  0  0  0
  1  2  1  0
  2  3  1  0
  3  4  2  0
  4  5  1  0
  5  6  2  0
  6  7  1  0
  7  8  2  0
  7  9  2  0
  7 10  1  0
 10 11  1  0
 11 12  1  0
 12 13  2  0
 12 14  1  0
 14 15  1  0
 15 16  2  0
 16 17  1  0
 17 18  2  0
 18 19  1  0
 19 20  2  0
  6 21  1  0
 21 22  2  0
 22  3  1  0
 20 10  1  0
 20 15  1  0
  1 23  1  0
  1 24  1  0
  1 25  1  0
  4 26  1  0
  5 27  1  0
 11 28  1  0
 11 29  1  0
 14 30  1  0
 16 31  1  0
 17 32  1  0
 18 33  1  0
 19 34  1  0
 21 35  1  0
 22 36  1  0
M  END
>  <UniqueID>  (20) 
19

>  <SMILES>  (20) 
COc1ccc(S(=O)(=O)N2CC(=O)Nc3ccccc32)cc1

>  <Energy>  (20) 
42.93881990543981

>  <Genealogy>  (20) 
COc1ccc(S(=O)(=O)N2CC(=O)Nc3ccccc32)cc1 (3D coordinates assigned)
COc1ccc(S(=O)(=O)N2CC(=O)Nc3ccccc32)cc1 (nonaromatic ring conformer: 42.93881990543981 kcal/mol)

>  <smiles>  (20) 
COc1ccc(S(=O)(=O)N2CC(=O)Nc3ccccc32)cc1

>  <score_type>  (20) 
oracle

>  <origin>  (20) 
adg

>  <m_score__min__energy>  (20) 
-7.4000000000000004

>  <m_primary>  (20) 
energy

$$$$
20:0
     RDKit          3D

 46 48  0  0  0  0  0  0  0  0999 V2000
   59.9790   33.8700   49.1320 C   0  0  0  0  0  0  0  0  0  0  0  0
   59.8170   34.6070   47.8110 C   0  0  0  0  0  0  0  0  0  0  0  0
   60.8550   33.8440   46.5150 S   0  0  0  0  0  0  0  0  0  0  0  0
   59.6190   32.6420   45.9960 C   0  0  0  0  0  0  0  0  0  0  0  0
   58.5640   33.0610   45.1800 C   0  0  0  0  0  0  0  0  0  0  0  0
   57.5840   32.1560   44.7670 C   0  0  0  0  0  0  0  0  0  0  0  0
   57.6540   30.8020   45.1490 C   0  0  0  0  0  0  0  0  0  0  0  0
   56.6180   29.8130   44.7380 C   0  0  0  0  0  0  0  0  0  0  0  0
   55.4500   30.2320   44.4860 O   0  0  0  0  0  0  0  0  0  0  0  0
   56.9180   28.4030   44.5710 N   0  0  0  0  0  0  0  0  0  0  0  0
   57.1730   27.7820   45.8960 C   0  0  0  0  0  0  0  0  0  0  0  0
   58.0370   26.5040   45.8200 C   0  0  0  0  0  0  0  0  0  0  0  0
   57.9650   25.8950   44.4870 N   0  0  0  0  0  0  0  0  0  0  0  0
   57.7500   24.4800   44.3360 C   0  0  0  0  0  0  0  0  0  0  0  0
   58.4560   23.5600   45.1280 C   0  0  0  0  0  0  0  0  0  0  0  0
   58.2400   22.1860   44.9800 C   0  0  0  0  0  0  0  0  0  0  0  0
   57.3220   21.7200   44.0370 C   0  0  0  0  0  0  0  0  0  0  0  0
   56.6240   22.6250   43.2360 C   0  0  0  0  0  0  0  0  0  0  0  0
   56.8370   23.9990   43.3790 C   0  0  0  0  0  0  0  0  0  0  0  0
   58.2310   26.7300   43.3090 C   0  0  0  0  0  0  0  0  0  0  0  0
   58.0600   28.2190   43.6470 C   0  0  0  0  0  0  0  0  0  0  0  0
   58.7240   30.3860   45.9630 C   0  0  0  0  0  0  0  0  0  0  0  0
   59.7030   31.2930   46.3830 C   0  0  0  0  0  0  0  0  0  0  0  0
   61.1350   30.6450   47.4780 Br  0  0  0  0  0  0  0  0  0  0  0  0
   59.8247   34.5719   49.9648 H   0  0  0  0  0  0  0  0  0  0  0  0
   59.2375   33.0598   49.1932 H   0  0  0  0  0  0  0  0  0  0  0  0
   60.9919   33.4454   49.1932 H   0  0  0  0  0  0  0  0  0  0  0  0
   58.7625   34.5646   47.5007 H   0  0  0  0  0  0  0  0  0  0  0  0
   60.1326   35.6519   47.9477 H   0  0  0  0  0  0  0  0  0  0  0  0
   58.5054   34.1120   44.8607 H   0  0  0  0  0  0  0  0  0  0  0  0
   56.7508   32.5032   44.1384 H   0  0  0  0  0  0  0  0  0  0  0  0
   56.0950   27.9320   44.1270 H   0  0  0  0  0  0  0  0  0  0  0  0
   57.6914   28.5158   46.5307 H   0  0  0  0  0  0  0  0  0  0  0  0
   56.1968   27.4891   46.3099 H   0  0  0  0  0  0  0  0  0  0  0  0
   59.0829   26.7641   46.0399 H   0  0  0  0  0  0  0  0  0  0  0  0
   57.6552   25.7804   46.5553 H   0  0  0  0  0  0  0  0  0  0  0  0
   59.1834   23.9222   45.8694 H   0  0  0  0  0  0  0  0  0  0  0  0
   58.7939   21.4720   45.6072 H   0  0  0  0  0  0  0  0  0  0  0  0
   57.1488   20.6395   43.9253 H   0  0  0  0  0  0  0  0  0  0  0  0
   55.9044   22.2561   42.4903 H   0  0  0  0  0  0  0  0  0  0  0  0
   56.2886   24.7075   42.7408 H   0  0  0  0  0  0  0  0  0  0  0  0
   59.2615   26.5537   42.9670 H   0  0  0  0  0  0  0  0  0  0  0  0
   57.5146   26.4630   42.5181 H   0  0  0  0  0  0  0  0  0  0  0  0
   58.9782   28.5914   44.1247 H   0  0  0  0  0  0  0  0  0  0  0  0
   57.8669   28.7788   42.7200 H   0  0  0  0  0  0  0  0  0  0  0  0
   58.7916   29.3329   46.2734 H   0  0  0  0  0  0  0  0  0  0  0  0
  1  2  1  0
  2  3  1  0
  3  4  1  0
  4  5  2  0
  5  6  1  0
  6  7  2  0
  7  8  1  0
  8  9  2  0
  8 10  1  0
 10 11  1  0
 11 12  1  0
 12 13  1  0
 13 14  1  0
 14 15  2  0
 15 16  1  0
 16 17  2  0
 17 18  1  0
 18 19  2  0
 13 20  1  0
 20 21  1  0
  7 22  1  0
 22 23  2  0
 23 24  1  0
 23  4  1  0
 21 10  1  0
 19 14  1  0
  1 25  1  0
  1 26  1  0
  1 27  1  0
  2 28  1  0
  2 29  1  0
  5 30  1  0
  6 31  1  0
 10 32  1  0
 11 33  1  0
 11 34  1  0
 12 35  1  0
 12 36  1  0
 15 37  1  0
 16 38  1  0
 17 39  1  0
 18 40  1  0
 19 41  1  0
 20 42  1  0
 20 43  1  0
 21 44  1  0
 21 45  1  0
 22 46  1  0
M  CHG  1  10   1
M  END
>  <UniqueID>  (21) 
20

>  <SMILES>  (21) 
CCSc1ccc(C(=O)[NH+]2CCN(c3ccccc3)CC2)cc1Br

>  <Energy>  (21) 
56.92331716896478

>  <Genealogy>  (21) 
CCSc1ccc(C(=O)[NH+]2CCN(c3ccccc3)CC2)cc1Br (protonated)
CCSc1ccc(C(=O)[NH+]2CCN(c3ccccc3)CC2)cc1Br (3D coordinates assigned)
CCSc1ccc(C(=O)[NH+]2CCN(c3ccccc3)CC2)cc1Br (nonaromatic ring conformer: 56.92331716896478 kcal/mol)

>  <smiles>  (21) 
CCSc1ccc(C(=O)N2CCN(c3ccccc3)CC2)cc1Br

>  <score_type>  (21) 
oracle

>  <origin>  (21) 
adg

>  <m_score__min__energy>  (21) 
-7.0199999999999996

>  <m_primary>  (21) 
energy

$$$$
21:0
     RDKit          3D

 50 53  0  0  0  0  0  0  0  0999 V2000
   58.4380   34.4690   44.9010 C   0  0  0  0  0  0  0  0  0  0  0  0
   57.3360   33.0370   45.1130 S   0  0  0  0  0  0  0  0  0  0  0  0
   58.2560   32.3870   46.5130 C   0  0  0  0  0  0  0  0  0  0  0  0
   58.7060   33.2570   47.5090 C   0  0  0  0  0  0  0  0  0  0  0  0
   59.4210   32.7690   48.6100 C   0  0  0  0  0  0  0  0  0  0  0  0
   59.6830   31.3890   48.7240 C   0  0  0  0  0  0  0  0  0  0  0  0
   59.2270   30.5230   47.7120 C   0  0  0  0  0  0  0  0  0  0  0  0
   58.5130   31.0170   46.6180 C   0  0  0  0  0  0  0  0  0  0  0  0
   58.0800   30.1610   45.6590 F   0  0  0  0  0  0  0  0  0  0  0  0
   60.5170   30.8260   49.8650 C   0  0  0  0  0  0  0  0  0  0  0  0
   59.9580   31.0470   51.2270 N   0  0  2  0  0  0  0  0  0  0  0  0
   58.5890   30.5800   51.4220 C   0  0  0  0  0  0  0  0  0  0  0  0
   58.0810   29.7670   50.6630 O   0  0  0  0  0  0  0  0  0  0  0  0
   57.7500   31.1170   52.5560 C   0  0  0  0  0  0  0  0  0  0  0  0
   56.6280   32.0570   52.1370 C   0  0  0  0  0  0  0  0  0  0  0  0
   56.3050   30.6400   52.5730 C   0  0  0  0  0  0  0  0  0  0  0  0
   60.1690   32.4250   51.7270 C   0  0  0  0  0  0  0  0  0  0  0  0
   59.3530   33.4910   50.9860 C   0  0  0  0  0  0  0  0  0  0  0  0
   59.8560   33.6810   49.6230 N   0  0  0  0  0  0  0  0  0  0  0  0
   60.9850   34.5800   49.3450 C   0  0  0  0  0  0  0  0  0  0  0  0
   62.3030   33.8590   49.4670 C   0  0  0  0  0  0  0  0  0  0  0  0
   62.8670   33.2160   48.3520 C   0  0  0  0  0  0  0  0  0  0  0  0
   64.0790   32.5280   48.4740 C   0  0  0  0  0  0  0  0  0  0  0  0
   64.7350   32.4770   49.7070 C   0  0  0  0  0  0  0  0  0  0  0  0
   65.9080   31.8090   49.8230 F   0  0  0  0  0  0  0  0  0  0  0  0
   64.1780   33.1120   50.8210 C   0  0  0  0  0  0  0  0  0  0  0  0
   62.9660   33.8010   50.7030 C   0  0  0  0  0  0  0  0  0  0  0  0
   58.7338   34.8534   45.8883 H   0  0  0  0  0  0  0  0  0  0  0  0
   59.3350   34.1620   44.3433 H   0  0  0  0  0  0  0  0  0  0  0  0
   57.9115   35.2575   44.3433 H   0  0  0  0  0  0  0  0  0  0  0  0
   58.4971   34.3339   47.4279 H   0  0  0  0  0  0  0  0  0  0  0  0
   59.4354   29.4453   47.7837 H   0  0  0  0  0  0  0  0  0  0  0  0
   60.6177   29.7416   49.7102 H   0  0  0  0  0  0  0  0  0  0  0  0
   61.4758   31.3644   49.8372 H   0  0  0  0  0  0  0  0  0  0  0  0
   60.5460   30.4440   51.8500 H   0  0  0  0  0  0  0  0  0  0  0  0
   58.5680   31.1545   53.2905 H   0  0  0  0  0  0  0  0  0  0  0  0
   56.3533   32.9062   52.7800 H   0  0  0  0  0  0  0  0  0  0  0  0
   56.4145   32.6634   51.2444 H   0  0  0  0  0  0  0  0  0  0  0  0
   55.7960   30.4625   53.5319 H   0  0  0  0  0  0  0  0  0  0  0  0
   55.7604   29.7948   52.1269 H   0  0  0  0  0  0  0  0  0  0  0  0
   59.8895   32.4533   52.7905 H   0  0  0  0  0  0  0  0  0  0  0  0
   61.2296   32.6643   51.5603 H   0  0  0  0  0  0  0  0  0  0  0  0
   58.3012   33.1722   50.9405 H   0  0  0  0  0  0  0  0  0  0  0  0
   59.4429   34.4431   51.5296 H   0  0  0  0  0  0  0  0  0  0  0  0
   60.8857   34.9743   48.3229 H   0  0  0  0  0  0  0  0  0  0  0  0
   60.9672   35.3972   50.0812 H   0  0  0  0  0  0  0  0  0  0  0  0
   62.3537   33.2538   47.3798 H   0  0  0  0  0  0  0  0  0  0  0  0
   64.5163   32.0264   47.5981 H   0  0  0  0  0  0  0  0  0  0  0  0
   64.6934   33.0699   51.7918 H   0  0  0  0  0  0  0  0  0  0  0  0
   62.5310   34.2991   51.5820 H   0  0  0  0  0  0  0  0  0  0  0  0
  1  2  1  0
  2  3  1  0
  3  4  2  0
  4  5  1  0
  5  6  2  0
  6  7  1  0
  7  8  2  0
  8  9  1  0
  6 10  1  0
 10 11  1  0
 11 12  1  0
 12 13  2  0
 12 14  1  0
 14 15  1  0
 15 16  1  0
 11 17  1  0
 17 18  1  0
 18 19  1  0
 19 20  1  0
 20 21  1  0
 21 22  2  0
 22 23  1  0
 23 24  2  0
 24 25  1  0
 24 26  1  0
 26 27  2  0
  8  3  1  0
 16 14  1  0
 27 21  1  0
 19  5  1  0
  1 28  1  0
  1 29  1  0
  1 30  1  0
  4 31  1  0
  7 32  1  0
 10 33  1  0
 10 34  1  0
 11 35  1  1
 14 36  1  0
 15 37  1  0
 15 38  1  0
 16 39  1  0
 16 40  1  0
 17 41  1  0
 17 42  1  0
 18 43  1  0
 18 44  1  0
 20 45  1  0
 20 46  1  0
 22 47  1  0
 23 48  1  0
 26 49  1  0
 27 50  1  0
M  CHG  1  11   1
M  END
>  <UniqueID>  (22) 
21

>  <SMILES>  (22) 
CSc1cc2c(cc1F)C[N@H+](C(=O)C1CC1)CCN2Cc1ccc(F)cc1

>  <Energy>  (22) 
328.1464846599981

>  <Genealogy>  (22) 
CSc1cc2c(cc1F)C[NH+](C(=O)C1CC1)CCN2Cc1ccc(F)cc1 (protonated)
CSc1cc2c(cc1F)C[N@H+](C(=O)C1CC1)CCN2Cc1ccc(F)cc1 (chirality)
CSc1cc2c(cc1F)C[N@H+](C(=O)C1CC1)CCN2Cc1ccc(F)cc1 (3D coordinates assigned)
CSc1cc2c(cc1F)C[N@H+](C(=O)C1CC1)CCN2Cc1ccc(F)cc1 (nonaromatic ring conformer: 328.1464846599981 kcal/mol)

>  <smiles>  (22) 
CSc1cc2c(cc1F)CN(C(=O)C1CC1)CCN2Cc1ccc(F)cc1

>  <score_type>  (22) 
oracle

>  <origin>  (22) 
adg

>  <m_score__min__energy>  (22) 
-4.4400000000000004

>  <m_primary>  (22) 
energy

$$$$
22:0
     RDKit          3D

 54 56  0  0  0  0  0  0  0  0999 V2000
   61.0560   30.7780   49.5890 C   0  0  0  0  0  0  0  0  0  0  0  0
   62.3710   31.5020   49.2500 C   0  0  0  0  0  0  0  0  0  0  0  0
   62.1930   32.8430   48.6380 N   0  0  0  0  0  0  0  0  0  0  0  0
   63.4470   33.5250   48.2520 C   0  0  0  0  0  0  0  0  0  0  0  0
   63.6960   33.4460   46.7430 C   0  0  0  0  0  0  0  0  0  0  0  0
   61.2930   33.7150   49.4290 C   0  0  0  0  0  0  0  0  0  0  0  0
   60.1120   34.1590   48.5570 C   0  0  0  0  0  0  0  0  0  0  0  0
   60.4120   33.9740   47.1300 N   0  0  0  0  0  0  0  0  0  0  0  0
   59.2690   33.3940   46.4550 C   0  0  0  0  0  0  0  0  0  0  0  0
   58.1570   34.2100   46.1810 C   0  0  0  0  0  0  0  0  0  0  0  0
   57.0320   33.6770   45.5590 C   0  0  0  0  0  0  0  0  0  0  0  0
   56.9980   32.3640   45.2220 N   0  0  0  0  0  0  0  0  0  0  0  0
   58.0370   31.5210   45.4740 C   0  0  0  0  0  0  0  0  0  0  0  0
   57.9400   30.1610   45.1160 C   0  0  0  0  0  0  0  0  0  0  0  0
   56.4570   29.5230   44.3930 S   0  0  0  0  0  0  0  0  0  0  0  0
   56.6710   29.1620   42.9470 O   0  0  0  0  0  0  0  0  0  0  0  0
   55.3840   30.5730   44.4760 O   0  0  0  0  0  0  0  0  0  0  0  0
   55.9440   28.1100   45.2630 N   0  0  0  0  0  0  0  0  0  0  0  0
   56.8020   27.0350   45.6690 C   0  0  0  0  0  0  0  0  0  0  0  0
   57.4210   27.1050   46.9270 C   0  0  0  0  0  0  0  0  0  0  0  0
   58.2880   26.0910   47.3480 C   0  0  0  0  0  0  0  0  0  0  0  0
   58.5450   24.9980   46.5130 C   0  0  0  0  0  0  0  0  0  0  0  0
   57.9130   24.9080   45.2670 C   0  0  0  0  0  0  0  0  0  0  0  0
   57.0490   25.9210   44.8410 C   0  0  0  0  0  0  0  0  0  0  0  0
   59.0130   29.2980   45.3760 C   0  0  0  0  0  0  0  0  0  0  0  0
   60.1620   29.7710   46.0070 C   0  0  0  0  0  0  0  0  0  0  0  0
   60.2610   31.1130   46.3810 C   0  0  0  0  0  0  0  0  0  0  0  0
   59.2090   32.0140   46.1080 C   0  0  0  0  0  0  0  0  0  0  0  0
   60.9428   30.7157   50.6814 H   0  0  0  0  0  0  0  0  0  0  0  0
   60.2094   31.3372   49.1640 H   0  0  0  0  0  0  0  0  0  0  0  0
   61.0758   29.7636   49.1640 H   0  0  0  0  0  0  0  0  0  0  0  0
   62.9472   31.6217   50.1793 H   0  0  0  0  0  0  0  0  0  0  0  0
   62.8870   30.8818   48.5023 H   0  0  0  0  0  0  0  0  0  0  0  0
   63.3826   34.5826   48.5474 H   0  0  0  0  0  0  0  0  0  0  0  0
   64.2811   33.0219   48.7630 H   0  0  0  0  0  0  0  0  0  0  0  0
   64.7297   33.1180   46.5586 H   0  0  0  0  0  0  0  0  0  0  0  0
   62.9970   32.7255   46.2933 H   0  0  0  0  0  0  0  0  0  0  0  0
   63.5402   34.4377   46.2933 H   0  0  0  0  0  0  0  0  0  0  0  0
   60.9164   33.1588   50.3001 H   0  0  0  0  0  0  0  0  0  0  0  0
   61.8489   34.6006   49.7707 H   0  0  0  0  0  0  0  0  0  0  0  0
   59.2267   33.5610   48.8189 H   0  0  0  0  0  0  0  0  0  0  0  0
   59.9235   35.2272   48.7399 H   0  0  0  0  0  0  0  0  0  0  0  0
   61.2650   33.3860   46.9940 H   0  0  0  0  0  0  0  0  0  0  0  0
   60.6320   34.9060   46.7070 H   0  0  0  0  0  0  0  0  0  0  0  0
   58.1765   35.2740   46.4595 H   0  0  0  0  0  0  0  0  0  0  0  0
   56.1684   34.3223   45.3402 H   0  0  0  0  0  0  0  0  0  0  0  0
   57.2230   27.9630   47.5862 H   0  0  0  0  0  0  0  0  0  0  0  0
   58.7679   26.1530   48.3359 H   0  0  0  0  0  0  0  0  0  0  0  0
   59.2425   24.2107   46.8351 H   0  0  0  0  0  0  0  0  0  0  0  0
   58.0970   24.0370   44.6209 H   0  0  0  0  0  0  0  0  0  0  0  0
   56.5609   25.8488   43.8579 H   0  0  0  0  0  0  0  0  0  0  0  0
   58.9479   28.2405   45.0802 H   0  0  0  0  0  0  0  0  0  0  0  0
   60.9958   29.0834   46.2117 H   0  0  0  0  0  0  0  0  0  0  0  0
   61.1665   31.4710   46.8927 H   0  0  0  0  0  0  0  0  0  0  0  0
  1  2  1  0
  2  3  1  0
  3  4  1  0
  4  5  1  0
  3  6  1  0
  6  7  1  0
  7  8  1  0
  8  9  1  0
  9 10  2  0
 10 11  1  0
 11 12  2  0
 12 13  1  0
 13 14  2  0
 14 15  1  0
 15 16  2  0
 15 17  2  0
 15 18  1  0
 18 19  1  0
 19 20  2  0
 20 21  1  0
 21 22  2  0
 22 23  1  0
 23 24  2  0
 14 25  1  0
 25 26  2  0
 26 27  1  0
 27 28  2  0
 28  9  1  0
 28 13  1  0
 24 19  1  0
  1 29  1  0
  1 30  1  0
  1 31  1  0
  2 32  1  0
  2 33  1  0
  4 34  1  0
  4 35  1  0
  5 36  1  0
  5 37  1  0
  5 38  1  0
  6 39  1  0
  6 40  1  0
  7 41  1  0
  7 42  1  0
  8 43  1  0
  8 44  1  0
 10 45  1  0
 11 46  1  0
 20 47  1  0
 21 48  1  0
 22 49  1  0
 23 50  1  0
 24 51  1  0
 25 52  1  0
 26 53  1  0
 27 54  1  0
M  CHG  2   8   1  18  -1
M  END
>  <UniqueID>  (23) 
22

>  <SMILES>  (23) 
CCN(CC)CC[NH2+]c1ccnc2c(S(=O)(=O)[N-]c3ccccc3)cccc12

>  <Energy>  (23) 
67.50627836484196

>  <Genealogy>  (23) 
CCN(CC)CC[NH2+]c1ccnc2c(S(=O)(=O)[N-]c3ccccc3)cccc12 (protonated)
CCN(CC)CC[NH2+]c1ccnc2c(S(=O)(=O)[N-]c3ccccc3)cccc12 (3D coordinates assigned)
CCN(CC)CC[NH2+]c1ccnc2c(S(=O)(=O)[N-]c3ccccc3)cccc12 (optimized conformer: 67.50627836484196 kcal/mol)

>  <smiles>  (23) 
CCN(CC)CCNc1ccnc2c(S(=O)(=O)Nc3ccccc3)cccc12

>  <score_type>  (23) 
oracle

>  <origin>  (23) 
adg

>  <m_score__min__energy>  (23) 
-8.5299999999999994

>  <m_primary>  (23) 
energy

$$$$
23:0
     RDKit          3D

 42 44  0  0  0  0  0  0  0  0999 V2000
   60.0810   27.1410   48.6060 C   0  0  0  0  0  0  0  0  0  0  0  0
   59.4970   28.4370   48.6840 O   0  0  0  0  0  0  0  0  0  0  0  0
   60.1670   29.6350   48.3830 C   0  0  0  0  0  0  0  0  0  0  0  0
   60.8690   30.3570   49.3690 C   0  0  0  0  0  0  0  0  0  0  0  0
   61.5520   31.5280   49.0370 C   0  0  0  0  0  0  0  0  0  0  0  0
   61.5370   31.9990   47.7250 C   0  0  0  0  0  0  0  0  0  0  0  0
   60.8390   31.3010   46.7400 C   0  0  0  0  0  0  0  0  0  0  0  0
   60.1520   30.1150   47.0540 C   0  0  0  0  0  0  0  0  0  0  0  0
   59.4200   29.3880   45.9860 C   0  0  0  0  0  0  0  0  0  0  0  0
   59.9880   28.2380   45.4180 C   0  0  0  0  0  0  0  0  0  0  0  0
   59.3240   27.5450   44.4090 C   0  0  0  0  0  0  0  0  0  0  0  0
   58.0710   27.9730   43.9710 C   0  0  0  0  0  0  0  0  0  0  0  0
   57.4630   29.1070   44.5370 C   0  0  0  0  0  0  0  0  0  0  0  0
   56.0960   29.4850   44.1040 C   0  0  0  0  0  0  0  0  0  0  0  0
   55.1170   29.3360   44.8830 O   0  0  0  0  0  0  0  0  0  0  0  0
   55.8740   30.0430   42.8490 O   0  0  0  0  0  0  0  0  0  0  0  0
   58.1590   29.8370   45.5300 C   0  0  0  0  0  0  0  0  0  0  0  0
   57.6170   31.0140   46.0620 O   0  0  0  0  0  0  0  0  0  0  0  0
   57.3740   32.1690   45.2640 C   0  0  0  0  0  0  0  0  0  0  0  0
   58.1790   33.3320   45.7710 C   0  0  0  0  0  0  0  0  0  0  0  0
   58.7920   34.2200   44.8710 C   0  0  0  0  0  0  0  0  0  0  0  0
   59.5650   35.2820   45.3480 C   0  0  0  0  0  0  0  0  0  0  0  0
   59.7440   35.4570   46.7230 C   0  0  0  0  0  0  0  0  0  0  0  0
   59.1520   34.5670   47.6240 C   0  0  0  0  0  0  0  0  0  0  0  0
   58.3750   33.5050   47.1510 C   0  0  0  0  0  0  0  0  0  0  0  0
   60.2548   26.7554   49.6214 H   0  0  0  0  0  0  0  0  0  0  0  0
   59.4009   26.4641   48.0681 H   0  0  0  0  0  0  0  0  0  0  0  0
   61.0386   27.2021   48.0681 H   0  0  0  0  0  0  0  0  0  0  0  0
   60.8787   29.9950   50.4077 H   0  0  0  0  0  0  0  0  0  0  0  0
   62.1033   32.0804   49.8122 H   0  0  0  0  0  0  0  0  0  0  0  0
   62.0763   32.9222   47.4665 H   0  0  0  0  0  0  0  0  0  0  0  0
   60.8257   31.6817   45.7080 H   0  0  0  0  0  0  0  0  0  0  0  0
   60.9660   27.8806   45.7726 H   0  0  0  0  0  0  0  0  0  0  0  0
   59.7893   26.6571   43.9560 H   0  0  0  0  0  0  0  0  0  0  0  0
   57.5534   27.4178   43.1749 H   0  0  0  0  0  0  0  0  0  0  0  0
   57.6586   31.9571   44.2228 H   0  0  0  0  0  0  0  0  0  0  0  0
   56.3051   32.4230   45.3183 H   0  0  0  0  0  0  0  0  0  0  0  0
   58.6631   34.0788   43.7877 H   0  0  0  0  0  0  0  0  0  0  0  0
   60.0334   35.9815   44.6400 H   0  0  0  0  0  0  0  0  0  0  0  0
   60.3508   36.2951   47.0963 H   0  0  0  0  0  0  0  0  0  0  0  0
   59.2975   34.7022   48.7059 H   0  0  0  0  0  0  0  0  0  0  0  0
   57.9157   32.8026   47.8621 H   0  0  0  0  0  0  0  0  0  0  0  0
  1  2  1  0
  2  3  1  0
  3  4  2  0
  4  5  1  0
  5  6  2  0
  6  7  1  0
  7  8  2  0
  8  9  1  0
  9 10  2  0
 10 11  1  0
 11 12  2  0
 12 13  1  0
 13 14  1  0
 14 15  2  0
 14 16  1  0
 13 17  2  0
 17 18  1  0
 18 19  1  0
 19 20  1  0
 20 21  2  0
 21 22  1  0
 22 23  2  0
 23 24  1  0
 24 25  2  0
  8  3  1  0
 17  9  1  0
 25 20  1  0
  1 26  1  0
  1 27  1  0
  1 28  1  0
  4 29  1  0
  5 30  1  0
  6 31  1  0
  7 32  1  0
 10 33  1  0
 11 34  1  0
 12 35  1  0
 19 36  1  0
 19 37  1  0
 21 38  1  0
 22 39  1  0
 23 40  1  0
 24 41  1  0
 25 42  1  0
M  CHG  1  16  -1
M  END
>  <UniqueID>  (24) 
23

>  <SMILES>  (24) 
COc1ccccc1-c1cccc(C(=O)[O-])c1OCc1ccccc1

>  <Energy>  (24) 
54.328739704385654

>  <Genealogy>  (24) 
COc1ccccc1-c1cccc(C(=O)[O-])c1OCc1ccccc1 (protonated)
COc1ccccc1-c1cccc(C(=O)[O-])c1OCc1ccccc1 (3D coordinates assigned)
COc1ccccc1-c1cccc(C(=O)[O-])c1OCc1ccccc1 (optimized conformer: 54.328739704385654 kcal/mol)

>  <smiles>  (24) 
COc1ccccc1-c1cccc(C(=O)O)c1OCc1ccccc1

>  <score_type>  (24) 
oracle

>  <origin>  (24) 
adg

>  <m_score__min__energy>  (24) 
-9.9700000000000006

>  <m_primary>  (24) 
energy

$$$$
24:0
     RDKit          3D

 49 52  0  0  0  0  0  0  0  0999 V2000
   54.2910   24.8980   45.6260 C   0  0  0  0  0  0  0  0  0  0  0  0
   55.1480   25.9670   46.0090 O   0  0  0  0  0  0  0  0  0  0  0  0
   56.5330   25.9330   45.8100 C   0  0  0  0  0  0  0  0  0  0  0  0
   57.0690   24.9210   45.2790 O   0  0  0  0  0  0  0  0  0  0  0  0
   57.3660   27.0840   46.2240 C   0  0  0  0  0  0  0  0  0  0  0  0
   58.1820   26.9950   47.3650 C   0  0  0  0  0  0  0  0  0  0  0  0
   58.9680   28.0810   47.7600 C   0  0  0  0  0  0  0  0  0  0  0  0
   58.9450   29.2780   47.0270 C   0  0  0  0  0  0  0  0  0  0  0  0
   59.7990   30.4400   47.4560 C   0  0  0  0  0  0  0  0  0  0  0  0
   59.0010   31.6040   47.6650 O   0  0  0  0  0  0  0  0  0  0  0  0
   58.7570   32.6110   46.7140 C   0  0  0  0  0  0  0  0  0  0  0  0
   57.5810   32.6350   45.9360 C   0  0  0  0  0  0  0  0  0  0  0  0
   57.3570   33.6690   45.0240 C   0  0  0  0  0  0  0  0  0  0  0  0
   58.2970   34.6880   44.8760 C   0  0  0  0  0  0  0  0  0  0  0  0
   59.4700   34.6730   45.6320 C   0  0  0  0  0  0  0  0  0  0  0  0
   59.7150   33.6320   46.5430 C   0  0  0  0  0  0  0  0  0  0  0  0
   60.9620   33.6430   47.3390 C   0  0  0  0  0  0  0  0  0  0  0  0
   62.2120   33.8210   46.7120 C   0  0  0  0  0  0  0  0  0  0  0  0
   63.3970   33.8490   47.4710 C   0  0  0  0  0  0  0  0  0  0  0  0
   63.3330   33.6930   48.8610 C   0  0  0  0  0  0  0  0  0  0  0  0
   62.1150   33.5150   49.4290 N   0  0  0  0  0  0  0  0  0  0  0  0
   61.7930   33.3080   50.7170 C   0  0  0  0  0  0  0  0  0  0  0  0
   60.4160   33.1540   50.7720 C   0  0  0  0  0  0  0  0  0  0  0  0
   59.6200   32.8160   51.9890 C   0  0  0  0  0  0  0  0  0  0  0  0
   59.8980   33.2470   49.5260 N   0  0  0  0  0  0  0  0  0  0  0  0
   60.9640   33.4820   48.7330 C   0  0  0  0  0  0  0  0  0  0  0  0
   58.1420   29.3660   45.8810 C   0  0  0  0  0  0  0  0  0  0  0  0
   57.3550   28.2800   45.4850 C   0  0  0  0  0  0  0  0  0  0  0  0
   53.8955   24.4046   46.5261 H   0  0  0  0  0  0  0  0  0  0  0  0
   53.4567   25.2932   45.0279 H   0  0  0  0  0  0  0  0  0  0  0  0
   54.8582   24.1696   45.0279 H   0  0  0  0  0  0  0  0  0  0  0  0
   58.2021   26.0643   47.9510 H   0  0  0  0  0  0  0  0  0  0  0  0
   59.6084   27.9973   48.6504 H   0  0  0  0  0  0  0  0  0  0  0  0
   60.3141   30.1826   48.3932 H   0  0  0  0  0  0  0  0  0  0  0  0
   60.5313   30.6517   46.6629 H   0  0  0  0  0  0  0  0  0  0  0  0
   56.8352   31.8342   46.0481 H   0  0  0  0  0  0  0  0  0  0  0  0
   56.4369   33.6793   44.4212 H   0  0  0  0  0  0  0  0  0  0  0  0
   58.1138   35.5049   44.1624 H   0  0  0  0  0  0  0  0  0  0  0  0
   60.2070   35.4810   45.5139 H   0  0  0  0  0  0  0  0  0  0  0  0
   62.2617   33.9391   45.6195 H   0  0  0  0  0  0  0  0  0  0  0  0
   64.3682   33.9927   46.9748 H   0  0  0  0  0  0  0  0  0  0  0  0
   64.2455   33.7143   49.4749 H   0  0  0  0  0  0  0  0  0  0  0  0
   62.4900   33.2682   51.5671 H   0  0  0  0  0  0  0  0  0  0  0  0
   60.2027   33.0634   52.8886 H   0  0  0  0  0  0  0  0  0  0  0  0
   58.6844   33.3945   51.9875 H   0  0  0  0  0  0  0  0  0  0  0  0
   59.3865   31.7411   51.9875 H   0  0  0  0  0  0  0  0  0  0  0  0
   58.8990   33.1310   49.2470 H   0  0  0  0  0  0  0  0  0  0  0  0
   58.1310   30.2940   45.2904 H   0  0  0  0  0  0  0  0  0  0  0  0
   56.7227   28.3621   44.5887 H   0  0  0  0  0  0  0  0  0  0  0  0
  1  2  1  0
  2  3  1  0
  3  4  2  0
  3  5  1  0
  5  6  2  0
  6  7  1  0
  7  8  2  0
  8  9  1  0
  9 10  1  0
 10 11  1  0
 11 12  2  0
 12 13  1  0
 13 14  2  0
 14 15  1  0
 15 16  2  0
 16 17  1  0
 17 18  2  0
 18 19  1  0
 19 20  2  0
 20 21  1  0
 21 22  1  0
 22 23  2  0
 23 24  1  0
 23 25  1  0
 25 26  2  0
  8 27  1  0
 27 28  2  0
 28  5  1  0
 16 11  1  0
 26 17  1  0
 26 21  1  0
  1 29  1  0
  1 30  1  0
  1 31  1  0
  6 32  1  0
  7 33  1  0
  9 34  1  0
  9 35  1  0
 12 36  1  0
 13 37  1  0
 14 38  1  0
 15 39  1  0
 18 40  1  0
 19 41  1  0
 20 42  1  0
 22 43  1  0
 24 44  1  0
 24 45  1  0
 24 46  1  0
 25 47  1  0
 27 48  1  0
 28 49  1  0
M  CHG  1  25   1
M  END
>  <UniqueID>  (25) 
24

>  <SMILES>  (25) 
COC(=O)c1ccc(COc2ccccc2-c2cccn3cc(C)[nH+]c23)cc1

>  <Energy>  (25) 
92.00292199435071

>  <Genealogy>  (25) 
COC(=O)c1ccc(COc2ccccc2-c2cccn3cc(C)[nH+]c23)cc1 (protonated)
COC(=O)c1ccc(COc2ccccc2-c2cccn3cc(C)[nH+]c23)cc1 (3D coordinates assigned)
COC(=O)c1ccc(COc2ccccc2-c2cccn3cc(C)[nH+]c23)cc1 (optimized conformer: 92.00292199435071 kcal/mol)

>  <smiles>  (25) 
COC(=O)c1ccc(COc2ccccc2-c2cccn3cc(C)nc23)cc1

>  <score_type>  (25) 
oracle

>  <origin>  (25) 
adg

>  <m_score__min__energy>  (25) 
-7.0199999999999996

>  <m_primary>  (25) 
energy

$$$$
25:0
     RDKit          3D

 53 54  0  0  0  0  0  0  0  0999 V2000
   63.7320   33.0320   47.3270 C   0  0  0  0  0  0  0  0  0  0  0  0
   62.5540   33.7580   47.9790 C   0  0  0  0  0  0  0  0  0  0  0  0
   61.2740   33.7030   47.1210 C   0  0  0  0  0  0  0  0  0  0  0  0
   60.1090   34.3820   47.7710 N   0  0  0  0  0  0  0  0  0  0  0  0
   59.1980   34.9870   46.7650 C   0  0  0  0  0  0  0  0  0  0  0  0
   58.9700   34.0700   45.5480 C   0  0  0  0  0  0  0  0  0  0  0  0
   57.5530   34.2220   45.0010 C   0  0  0  0  0  0  0  0  0  0  0  0
   59.3350   33.4290   48.6110 C   0  0  0  0  0  0  0  0  0  0  0  0
   59.6100   31.9890   48.2380 C   0  0  0  0  0  0  0  0  0  0  0  0
   60.4200   31.1810   49.0520 C   0  0  0  0  0  0  0  0  0  0  0  0
   60.6340   29.8400   48.7220 C   0  0  0  0  0  0  0  0  0  0  0  0
   60.0410   29.2900   47.5810 C   0  0  0  0  0  0  0  0  0  0  0  0
   60.3420   27.6020   47.1940 Cl  0  0  0  0  0  0  0  0  0  0  0  0
   59.2380   30.0930   46.7530 C   0  0  0  0  0  0  0  0  0  0  0  0
   58.5960   29.5390   45.5950 N   0  0  0  0  0  0  0  0  0  0  0  0
   58.9350   30.0870   44.2770 C   0  0  0  0  0  0  0  0  0  0  0  0
   57.6840   30.4170   43.4500 C   0  0  0  0  0  0  0  0  0  0  0  0
   56.4680   30.7350   44.3410 C   0  0  0  0  0  0  0  0  0  0  0  0
   55.8520   29.5500   44.9660 N   0  0  0  0  0  0  0  0  0  0  0  0
   56.6050   28.2860   44.8700 C   0  0  0  0  0  0  0  0  0  0  0  0
   57.8860   28.2600   45.7130 C   0  0  0  0  0  0  0  0  0  0  0  0
   59.0370   31.4420   47.0790 C   0  0  0  0  0  0  0  0  0  0  0  0
   64.3907   32.6261   48.1089 H   0  0  0  0  0  0  0  0  0  0  0  0
   63.3550   32.2093   46.7016 H   0  0  0  0  0  0  0  0  0  0  0  0
   64.2974   33.7385   46.7016 H   0  0  0  0  0  0  0  0  0  0  0  0
   62.3461   33.2888   48.9520 H   0  0  0  0  0  0  0  0  0  0  0  0
   62.8351   34.8157   48.0898 H   0  0  0  0  0  0  0  0  0  0  0  0
   61.4751   34.1954   46.1582 H   0  0  0  0  0  0  0  0  0  0  0  0
   61.0086   32.6435   46.9905 H   0  0  0  0  0  0  0  0  0  0  0  0
   60.4320   35.1590   48.3950 H   0  0  0  0  0  0  0  0  0  0  0  0
   58.2276   35.1867   47.2429 H   0  0  0  0  0  0  0  0  0  0  0  0
   59.6685   35.9128   46.4023 H   0  0  0  0  0  0  0  0  0  0  0  0
   59.6896   34.3348   44.7593 H   0  0  0  0  0  0  0  0  0  0  0  0
   59.1107   33.0266   45.8665 H   0  0  0  0  0  0  0  0  0  0  0  0
   56.8431   34.2981   45.8378 H   0  0  0  0  0  0  0  0  0  0  0  0
   57.4932   35.1317   44.3855 H   0  0  0  0  0  0  0  0  0  0  0  0
   57.3016   33.3457   44.3855 H   0  0  0  0  0  0  0  0  0  0  0  0
   59.6100   33.5811   49.6652 H   0  0  0  0  0  0  0  0  0  0  0  0
   58.2650   33.6234   48.4457 H   0  0  0  0  0  0  0  0  0  0  0  0
   60.8878   31.6051   49.9527 H   0  0  0  0  0  0  0  0  0  0  0  0
   61.2721   29.2139   49.3629 H   0  0  0  0  0  0  0  0  0  0  0  0
   59.5216   31.0072   44.4156 H   0  0  0  0  0  0  0  0  0  0  0  0
   59.5109   29.3252   43.7311 H   0  0  0  0  0  0  0  0  0  0  0  0
   57.8977   31.2905   42.8165 H   0  0  0  0  0  0  0  0  0  0  0  0
   57.4370   29.5342   42.8420 H   0  0  0  0  0  0  0  0  0  0  0  0
   56.7945   31.4165   45.1404 H   0  0  0  0  0  0  0  0  0  0  0  0
   55.7043   31.1812   43.6871 H   0  0  0  0  0  0  0  0  0  0  0  0
   55.7000   29.7540   45.9820 H   0  0  0  0  0  0  0  0  0  0  0  0
   55.9520   27.4674   45.2070 H   0  0  0  0  0  0  0  0  0  0  0  0
   56.9120   28.1763   43.8194 H   0  0  0  0  0  0  0  0  0  0  0  0
   57.6239   28.0857   46.7670 H   0  0  0  0  0  0  0  0  0  0  0  0
   58.5385   27.4523   45.3499 H   0  0  0  0  0  0  0  0  0  0  0  0
   58.4253   32.0768   46.4211 H   0  0  0  0  0  0  0  0  0  0  0  0
  1  2  1  0
  2  3  1  0
  3  4  1  0
  4  5  1  0
  5  6  1  0
  6  7  1  0
  4  8  1  0
  8  9  1  0
  9 10  2  0
 10 11  1  0
 11 12  2  0
 12 13  1  0
 12 14  1  0
 14 15  1  0
 15 16  1  0
 16 17  1  0
 17 18  1  0
 18 19  1  0
 19 20  1  0
 20 21  1  0
 14 22  2  0
 22  9  1  0
 21 15  1  0
  1 23  1  0
  1 24  1  0
  1 25  1  0
  2 26  1  0
  2 27  1  0
  3 28  1  0
  3 29  1  0
  4 30  1  0
  5 31  1  0
  5 32  1  0
  6 33  1  0
  6 34  1  0
  7 35  1  0
  7 36  1  0
  7 37  1  0
  8 38  1  0
  8 39  1  0
 10 40  1  0
 11 41  1  0
 16 42  1  0
 16 43  1  0
 17 44  1  0
 17 45  1  0
 18 46  1  0
 18 47  1  0
 19 48  1  0
 20 49  1  0
 20 50  1  0
 21 51  1  0
 21 52  1  0
 22 53  1  0
M  CHG  1   4   1
M  END
>  <UniqueID>  (26) 
25

>  <SMILES>  (26) 
CCC[NH+](CCC)Cc1ccc(Cl)c(N2CCCNCC2)c1

>  <Energy>  (26) 
60.378261560332234

>  <Genealogy>  (26) 
CCC[NH+](CCC)Cc1ccc(Cl)c(N2CCCNCC2)c1 (protonated)
CCC[NH+](CCC)Cc1ccc(Cl)c(N2CCCNCC2)c1 (3D coordinates assigned)
CCC[NH+](CCC)Cc1ccc(Cl)c(N2CCCNCC2)c1 (nonaromatic ring conformer: 60.378261560332234 kcal/mol)

>  <smiles>  (26) 
CCCN(CCC)Cc1ccc(Cl)c(N2CCCNCC2)c1

>  <score_type>  (26) 
oracle

>  <origin>  (26) 
adg

>  <m_score__min__energy>  (26) 
-3.5600000000000001

>  <m_primary>  (26) 
energy

$$$$
26:0
     RDKit          3D

 61 65  0  0  0  0  0  0  0  0999 V2000
   57.3780   21.0980   42.9950 C   0  0  0  0  0  0  0  0  0  0  0  0
   56.2710   22.0110   43.3230 N   0  0  0  0  0  0  0  0  0  0  0  0
   55.8100   21.7850   44.7120 C   0  0  0  0  0  0  0  0  0  0  0  0
   55.0440   23.0030   45.2500 C   0  0  0  0  0  0  0  0  0  0  0  0
   55.8890   24.2260   45.2880 N   0  0  0  0  0  0  0  0  0  0  0  0
   56.3750   24.5070   46.6550 C   0  0  0  0  0  0  0  0  0  0  0  0
   57.1720   25.7870   46.6890 C   0  0  0  0  0  0  0  0  0  0  0  0
   58.3870   25.8560   47.3880 C   0  0  0  0  0  0  0  0  0  0  0  0
   59.1290   27.0400   47.3990 C   0  0  0  0  0  0  0  0  0  0  0  0
   58.6770   28.1680   46.6910 C   0  0  0  0  0  0  0  0  0  0  0  0
   59.4060   29.4070   46.7090 N   0  0  0  0  0  0  0  0  0  0  0  0
   59.4190   30.3170   47.8210 C   0  0  0  0  0  0  0  0  0  0  0  0
   58.8230   30.0290   48.8940 O   0  0  0  0  0  0  0  0  0  0  0  0
   60.1170   31.6150   47.7150 C   0  0  0  0  0  0  0  0  0  0  0  0
   61.2560   31.8180   48.5070 C   0  0  0  0  0  0  0  0  0  0  0  0
   61.9230   33.0540   48.4830 C   0  0  0  0  0  0  0  0  0  0  0  0
   63.1230   33.3100   49.3220 C   0  0  0  0  0  0  0  0  0  0  0  0
   64.3770   32.7480   49.0010 C   0  0  0  0  0  0  0  0  0  0  0  0
   65.4930   32.9980   49.8070 C   0  0  0  0  0  0  0  0  0  0  0  0
   65.3720   33.8010   50.9420 C   0  0  0  0  0  0  0  0  0  0  0  0
   64.1320   34.3520   51.2780 C   0  0  0  0  0  0  0  0  0  0  0  0
   63.0130   34.1070   50.4770 C   0  0  0  0  0  0  0  0  0  0  0  0
   61.4680   34.0380   47.6620 N   0  0  0  0  0  0  0  0  0  0  0  0
   60.3830   33.8760   46.8600 C   0  0  0  0  0  0  0  0  0  0  0  0
   59.9790   34.9260   46.0270 C   0  0  0  0  0  0  0  0  0  0  0  0
   58.8840   34.7650   45.1740 C   0  0  0  0  0  0  0  0  0  0  0  0
   58.1950   33.5510   45.1420 C   0  0  0  0  0  0  0  0  0  0  0  0
   58.5890   32.4950   45.9700 C   0  0  0  0  0  0  0  0  0  0  0  0
   59.6760   32.6500   46.8570 C   0  0  0  0  0  0  0  0  0  0  0  0
   57.4560   28.1010   46.0050 C   0  0  0  0  0  0  0  0  0  0  0  0
   56.7130   26.9170   45.9940 C   0  0  0  0  0  0  0  0  0  0  0  0
   57.0100   24.1930   44.3120 C   0  0  0  0  0  0  0  0  0  0  0  0
   56.6310   23.4220   43.0400 C   0  0  0  0  0  0  0  0  0  0  0  0
   57.8320   20.7235   43.9243 H   0  0  0  0  0  0  0  0  0  0  0  0
   56.9932   20.2512   42.4078 H   0  0  0  0  0  0  0  0  0  0  0  0
   58.1361   21.6370   42.4078 H   0  0  0  0  0  0  0  0  0  0  0  0
   55.1471   20.9074   44.7314 H   0  0  0  0  0  0  0  0  0  0  0  0
   56.6919   21.6201   45.3484 H   0  0  0  0  0  0  0  0  0  0  0  0
   54.1769   23.1916   44.6000 H   0  0  0  0  0  0  0  0  0  0  0  0
   54.7306   22.7769   46.2799 H   0  0  0  0  0  0  0  0  0  0  0  0
   55.5129   24.6012   47.3317 H   0  0  0  0  0  0  0  0  0  0  0  0
   57.0249   23.6791   46.9746 H   0  0  0  0  0  0  0  0  0  0  0  0
   58.7572   24.9733   47.9301 H   0  0  0  0  0  0  0  0  0  0  0  0
   60.0713   27.0901   47.9642 H   0  0  0  0  0  0  0  0  0  0  0  0
   60.0160   29.6220   45.8870 H   0  0  0  0  0  0  0  0  0  0  0  0
   61.6286   31.0065   49.1494 H   0  0  0  0  0  0  0  0  0  0  0  0
   64.4778   32.1091   48.1112 H   0  0  0  0  0  0  0  0  0  0  0  0
   66.4679   32.5607   49.5455 H   0  0  0  0  0  0  0  0  0  0  0  0
   66.2517   34.0002   51.5717 H   0  0  0  0  0  0  0  0  0  0  0  0
   64.0365   34.9805   52.1757 H   0  0  0  0  0  0  0  0  0  0  0  0
   62.0397   34.5400   50.7511 H   0  0  0  0  0  0  0  0  0  0  0  0
   60.5252   35.8807   46.0440 H   0  0  0  0  0  0  0  0  0  0  0  0
   58.5645   35.5954   44.5272 H   0  0  0  0  0  0  0  0  0  0  0  0
   57.3389   33.4247   44.4629 H   0  0  0  0  0  0  0  0  0  0  0  0
   58.0485   31.5378   45.9298 H   0  0  0  0  0  0  0  0  0  0  0  0
   57.0801   28.9865   45.4716 H   0  0  0  0  0  0  0  0  0  0  0  0
   55.7647   26.8706   45.4384 H   0  0  0  0  0  0  0  0  0  0  0  0
   57.2750   25.2249   44.0381 H   0  0  0  0  0  0  0  0  0  0  0  0
   57.8611   23.6801   44.7837 H   0  0  0  0  0  0  0  0  0  0  0  0
   55.7703   23.9189   42.5684 H   0  0  0  0  0  0  0  0  0  0  0  0
   57.5071   23.4188   42.3749 H   0  0  0  0  0  0  0  0  0  0  0  0
  1  2  1  0
  2  3  1  0
  3  4  1  0
  4  5  1  0
  5  6  1  0
  6  7  1  0
  7  8  2  0
  8  9  1  0
  9 10  2  0
 10 11  1  0
 11 12  1  0
 12 13  2  0
 12 14  1  0
 14 15  2  0
 15 16  1  0
 16 17  1  0
 17 18  2  0
 18 19  1  0
 19 20  2  0
 20 21  1  0
 21 22  2  0
 16 23  2  0
 23 24  1  0
 24 25  2  0
 25 26  1  0
 26 27  2  0
 27 28  1  0
 28 29  2  0
 10 30  1  0
 30 31  2  0
  5 32  1  0
 32 33  1  0
 33  2  1  0
 31  7  1  0
 29 14  1  0
 22 17  1  0
 29 24  1  0
  1 34  1  0
  1 35  1  0
  1 36  1  0
  3 37  1  0
  3 38  1  0
  4 39  1  0
  4 40  1  0
  6 41  1  0
  6 42  1  0
  8 43  1  0
  9 44  1  0
 11 45  1  0
 15 46  1  0
 18 47  1  0
 19 48  1  0
 20 49  1  0
 21 50  1  0
 22 51  1  0
 25 52  1  0
 26 53  1  0
 27 54  1  0
 28 55  1  0
 30 56  1  0
 31 57  1  0
 32 58  1  0
 32 59  1  0
 33 60  1  0
 33 61  1  0
M  END
>  <UniqueID>  (27) 
26

>  <SMILES>  (27) 
CN1CCN(Cc2ccc(NC(=O)c3cc(-c4ccccc4)nc4ccccc34)cc2)CC1

>  <Energy>  (27) 
96.7658024625946

>  <Genealogy>  (27) 
CN1CCN(Cc2ccc(NC(=O)c3cc(-c4ccccc4)nc4ccccc34)cc2)CC1 (3D coordinates assigned)
CN1CCN(Cc2ccc(NC(=O)c3cc(-c4ccccc4)nc4ccccc34)cc2)CC1 (nonaromatic ring conformer: 96.7658024625946 kcal/mol)

>  <smiles>  (27) 
CN1CCN(Cc2ccc(NC(=O)c3cc(-c4ccccc4)nc4ccccc34)cc2)CC1

>  <score_type>  (27) 
oracle

>  <origin>  (27) 
adg

>  <m_score__min__energy>  (27) 
-9.5600000000000005

>  <m_primary>  (27) 
energy

$$$$
27:0
     RDKit          3D

 44 45  0  0  0  0  0  0  0  0999 V2000
   65.4190   32.7260   49.8130 C   0  0  0  0  0  0  0  0  0  0  0  0
   64.1380   33.5480   49.6730 C   0  0  0  0  0  0  0  0  0  0  0  0
   63.2450   33.0010   48.6280 N   0  0  0  0  0  0  0  0  0  0  0  0
   62.8590   31.5800   48.8150 C   0  0  0  0  0  0  0  0  0  0  0  0
   61.7310   31.3690   49.8350 C   0  0  0  0  0  0  0  0  0  0  0  0
   63.7320   33.2870   47.2580 C   0  0  0  0  0  0  0  0  0  0  0  0
   62.5860   33.8480   46.4170 C   0  0  0  0  0  0  0  0  0  0  0  0
   61.3150   33.7080   47.1280 N   0  0  0  0  0  0  0  0  0  0  0  0
   60.0660   33.4830   46.4510 C   0  0  0  0  0  0  0  0  0  0  0  0
   59.3260   34.5810   45.9810 C   0  0  0  0  0  0  0  0  0  0  0  0
   58.0930   34.3940   45.3590 C   0  0  0  0  0  0  0  0  0  0  0  0
   57.5760   33.1120   45.1930 C   0  0  0  0  0  0  0  0  0  0  0  0
   58.2910   31.9880   45.6460 C   0  0  0  0  0  0  0  0  0  0  0  0
   57.7680   30.6880   45.4690 C   0  0  0  0  0  0  0  0  0  0  0  0
   56.5150   30.5270   44.8510 O   0  0  0  0  0  0  0  0  0  0  0  0
   56.3230   30.0830   43.5120 C   0  0  0  0  0  0  0  0  0  0  0  0
   58.5140   29.5820   45.9150 C   0  0  0  0  0  0  0  0  0  0  0  0
   59.7540   29.7600   46.5220 C   0  0  0  0  0  0  0  0  0  0  0  0
   60.2730   31.0410   46.7050 C   0  0  0  0  0  0  0  0  0  0  0  0
   59.5510   32.1730   46.2820 C   0  0  0  0  0  0  0  0  0  0  0  0
   65.6463   32.5801   50.8793 H   0  0  0  0  0  0  0  0  0  0  0  0
   65.2812   31.7473   49.3302 H   0  0  0  0  0  0  0  0  0  0  0  0
   66.2513   33.2591   49.3302 H   0  0  0  0  0  0  0  0  0  0  0  0
   63.6049   33.5429   50.6352 H   0  0  0  0  0  0  0  0  0  0  0  0
   64.4186   34.5709   49.3815 H   0  0  0  0  0  0  0  0  0  0  0  0
   62.5275   31.1810   47.8450 H   0  0  0  0  0  0  0  0  0  0  0  0
   63.7446   31.0583   49.2069 H   0  0  0  0  0  0  0  0  0  0  0  0
   62.1389   31.4453   50.8537 H   0  0  0  0  0  0  0  0  0  0  0  0
   60.9579   32.1381   49.6910 H   0  0  0  0  0  0  0  0  0  0  0  0
   61.2881   30.3724   49.6910 H   0  0  0  0  0  0  0  0  0  0  0  0
   64.5473   34.0240   47.3050 H   0  0  0  0  0  0  0  0  0  0  0  0
   64.1031   32.3586   46.7994 H   0  0  0  0  0  0  0  0  0  0  0  0
   62.7726   34.9130   46.2147 H   0  0  0  0  0  0  0  0  0  0  0  0
   62.5296   33.2877   45.4721 H   0  0  0  0  0  0  0  0  0  0  0  0
   61.3060   33.8830   48.1580 H   0  0  0  0  0  0  0  0  0  0  0  0
   59.7241   35.5989   46.1053 H   0  0  0  0  0  0  0  0  0  0  0  0
   57.5252   35.2639   44.9973 H   0  0  0  0  0  0  0  0  0  0  0  0
   56.6002   32.9767   44.7035 H   0  0  0  0  0  0  0  0  0  0  0  0
   55.8864   29.0734   43.5195 H   0  0  0  0  0  0  0  0  0  0  0  0
   55.6428   30.7728   42.9910 H   0  0  0  0  0  0  0  0  0  0  0  0
   57.2915   30.0598   42.9910 H   0  0  0  0  0  0  0  0  0  0  0  0
   58.1134   28.5661   45.7828 H   0  0  0  0  0  0  0  0  0  0  0  0
   60.3280   28.8844   46.8594 H   0  0  0  0  0  0  0  0  0  0  0  0
   61.2550   31.1682   47.1840 H   0  0  0  0  0  0  0  0  0  0  0  0
  1  2  1  0
  2  3  1  0
  3  4  1  0
  4  5  1  0
  3  6  1  0
  6  7  1  0
  7  8  1  0
  8  9  1  0
  9 10  2  0
 10 11  1  0
 11 12  2  0
 12 13  1  0
 13 14  2  0
 14 15  1  0
 15 16  1  0
 14 17  1  0
 17 18  2  0
 18 19  1  0
 19 20  2  0
 20  9  1  0
 20 13  1  0
  1 21  1  0
  1 22  1  0
  1 23  1  0
  2 24  1  0
  2 25  1  0
  4 26  1  0
  4 27  1  0
  5 28  1  0
  5 29  1  0
  5 30  1  0
  6 31  1  0
  6 32  1  0
  7 33  1  0
  7 34  1  0
  8 35  1  0
 10 36  1  0
 11 37  1  0
 12 38  1  0
 16 39  1  0
 16 40  1  0
 16 41  1  0
 17 42  1  0
 18 43  1  0
 19 44  1  0
M  END
>  <UniqueID>  (28) 
27

>  <SMILES>  (28) 
CCN(CC)CCNc1cccc2c(OC)cccc12

>  <Energy>  (28) 
51.16470979554565

>  <Genealogy>  (28) 
CCN(CC)CCNc1cccc2c(OC)cccc12 (3D coordinates assigned)
CCN(CC)CCNc1cccc2c(OC)cccc12 (optimized conformer: 51.16470979554565 kcal/mol)

>  <smiles>  (28) 
CCN(CC)CCNc1cccc2c(OC)cccc12

>  <score_type>  (28) 
oracle

>  <origin>  (28) 
adg

>  <m_score__min__energy>  (28) 
-6.21

>  <m_primary>  (28) 
energy

$$$$
28:0
     RDKit          3D

 77 81  0  0  0  0  0  0  0  0999 V2000
   56.5910   30.1150   43.4890 C   0  0  0  0  0  0  0  0  0  0  0  0
   56.6520   30.6740   44.7970 O   0  0  0  0  0  0  0  0  0  0  0  0
   57.4240   31.7900   45.1490 C   0  0  0  0  0  0  0  0  0  0  0  0
   57.0260   33.1060   44.8300 C   0  0  0  0  0  0  0  0  0  0  0  0
   57.8280   34.1910   45.1870 C   0  0  0  0  0  0  0  0  0  0  0  0
   59.0370   33.9830   45.8540 C   0  0  0  0  0  0  0  0  0  0  0  0
   59.4420   32.6840   46.1740 C   0  0  0  0  0  0  0  0  0  0  0  0
   58.6380   31.5840   45.8310 C   0  0  0  0  0  0  0  0  0  0  0  0
   59.0390   30.2620   46.2190 N   0  0  0  0  0  0  0  0  0  0  0  0
   58.0830   29.3690   46.8740 C   0  0  0  0  0  0  0  0  0  0  0  0
   58.6730   28.7820   48.1750 C   0  0  0  0  0  0  0  0  0  0  0  0
   60.1600   28.8080   48.2100 N   0  0  0  0  0  0  0  0  0  0  0  0
   60.7040   27.8690   49.2230 C   0  0  0  0  0  0  0  0  0  0  0  0
   61.2700   28.5510   50.4430 C   0  0  0  0  0  0  0  0  0  0  0  0
   61.5940   27.8840   51.4600 O   0  0  0  0  0  0  0  0  0  0  0  0
   61.4760   29.9640   50.4110 N   0  0  0  0  0  0  0  0  0  0  0  0
   62.2930   30.7110   51.3690 C   0  0  2  0  0  0  0  0  0  0  0  0
   61.6410   30.6870   52.7450 C   0  0  0  0  0  0  0  0  0  0  0  0
   60.6350   31.7720   52.7980 N   0  0  0  0  0  0  0  0  0  0  0  0
   59.2340   31.2590   52.7970 C   0  0  0  0  0  0  0  0  0  0  0  0
   58.4330   31.8140   51.5810 C   0  0  0  0  0  0  0  0  0  0  0  0
   57.3960   30.8270   51.0070 C   0  0  0  0  0  0  0  0  0  0  0  0
   56.7690   29.9920   52.0480 N   0  0  0  0  0  0  0  0  0  0  0  0
   55.8690   30.7740   52.9170 C   0  0  0  0  0  0  0  0  0  0  0  0
   57.7500   29.1930   52.8240 C   0  0  0  0  0  0  0  0  0  0  0  0
   59.1990   29.7160   52.7410 C   0  0  0  0  0  0  0  0  0  0  0  0
   60.9290   32.6460   51.6360 C   0  0  0  0  0  0  0  0  0  0  0  0
   62.2680   32.1930   51.0530 C   0  0  2  0  0  0  0  0  0  0  0  0
   62.5190   32.5340   49.5880 C   0  0  0  0  0  0  0  0  0  0  0  0
   63.5730   31.9590   48.8420 C   0  0  0  0  0  0  0  0  0  0  0  0
   63.7830   32.3270   47.5080 C   0  0  0  0  0  0  0  0  0  0  0  0
   62.9650   33.2830   46.9040 C   0  0  0  0  0  0  0  0  0  0  0  0
   61.9330   33.8740   47.6340 C   0  0  0  0  0  0  0  0  0  0  0  0
   61.1490   34.8130   47.0500 F   0  0  0  0  0  0  0  0  0  0  0  0
   61.7130   33.5040   48.9680 C   0  0  0  0  0  0  0  0  0  0  0  0
   60.7550   28.6140   46.8710 C   0  0  0  0  0  0  0  0  0  0  0  0
   60.4120   29.8070   45.9690 C   0  0  0  0  0  0  0  0  0  0  0  0
   56.4719   29.0239   43.5617 H   0  0  0  0  0  0  0  0  0  0  0  0
   55.7341   30.5420   42.9473 H   0  0  0  0  0  0  0  0  0  0  0  0
   57.5198   30.3472   42.9473 H   0  0  0  0  0  0  0  0  0  0  0  0
   56.0790   33.2774   44.2973 H   0  0  0  0  0  0  0  0  0  0  0  0
   57.5064   35.2140   44.9420 H   0  0  0  0  0  0  0  0  0  0  0  0
   59.6698   34.8402   46.1272 H   0  0  0  0  0  0  0  0  0  0  0  0
   60.3958   32.5220   46.6975 H   0  0  0  0  0  0  0  0  0  0  0  0
   57.1709   29.9342   47.1160 H   0  0  0  0  0  0  0  0  0  0  0  0
   57.8531   28.5397   46.1889 H   0  0  0  0  0  0  0  0  0  0  0  0
   58.2933   29.3669   49.0257 H   0  0  0  0  0  0  0  0  0  0  0  0
   58.3639   27.7276   48.2266 H   0  0  0  0  0  0  0  0  0  0  0  0
   60.4400   29.7650   48.5370 H   0  0  0  0  0  0  0  0  0  0  0  0
   59.8935   27.1986   49.5451 H   0  0  0  0  0  0  0  0  0  0  0  0
   61.5335   27.3273   48.7450 H   0  0  0  0  0  0  0  0  0  0  0  0
   63.2952   30.2594   51.3283 H   0  0  0  0  0  0  0  0  0  0  0  0
   61.1506   29.7160   52.9080 H   0  0  0  0  0  0  0  0  0  0  0  0
   62.3996   30.8330   53.5280 H   0  0  0  0  0  0  0  0  0  0  0  0
   58.7718   31.6025   53.7342 H   0  0  0  0  0  0  0  0  0  0  0  0
   57.9038   32.7233   51.9019 H   0  0  0  0  0  0  0  0  0  0  0  0
   59.1634   32.0075   50.7815 H   0  0  0  0  0  0  0  0  0  0  0  0
   56.6095   31.4009   50.4951 H   0  0  0  0  0  0  0  0  0  0  0  0
   57.9244   30.1547   50.3150 H   0  0  0  0  0  0  0  0  0  0  0  0
   56.1064   30.5677   53.9711 H   0  0  0  0  0  0  0  0  0  0  0  0
   56.0039   31.8466   52.7139 H   0  0  0  0  0  0  0  0  0  0  0  0
   54.8257   30.4907   52.7139 H   0  0  0  0  0  0  0  0  0  0  0  0
   57.4412   29.1986   53.8798 H   0  0  0  0  0  0  0  0  0  0  0  0
   57.7527   28.1840   52.3859 H   0  0  0  0  0  0  0  0  0  0  0  0
   59.7763   29.3121   53.5858 H   0  0  0  0  0  0  0  0  0  0  0  0
   59.6354   29.3898   51.7854 H   0  0  0  0  0  0  0  0  0  0  0  0
   60.1363   32.5462   50.8799 H   0  0  0  0  0  0  0  0  0  0  0  0
   60.9756   33.7009   51.9443 H   0  0  0  0  0  0  0  0  0  0  0  0
   63.1068   32.7461   51.5009 H   0  0  0  0  0  0  0  0  0  0  0  0
   64.2334   31.2164   49.3136 H   0  0  0  0  0  0  0  0  0  0  0  0
   64.5965   31.8606   46.9330 H   0  0  0  0  0  0  0  0  0  0  0  0
   63.1333   33.5698   45.8555 H   0  0  0  0  0  0  0  0  0  0  0  0
   60.8996   33.9787   49.5364 H   0  0  0  0  0  0  0  0  0  0  0  0
   61.8477   28.5310   46.9660 H   0  0  0  0  0  0  0  0  0  0  0  0
   60.3495   27.6941   46.4244 H   0  0  0  0  0  0  0  0  0  0  0  0
   61.1101   30.6311   46.1775 H   0  0  0  0  0  0  0  0  0  0  0  0
   60.4976   29.4946   44.9178 H   0  0  0  0  0  0  0  0  0  0  0  0
  1  2  1  0
  2  3  1  0
  3  4  2  0
  4  5  1  0
  5  6  2  0
  6  7  1  0
  7  8  2  0
  8  9  1  0
  9 10  1  0
 10 11  1  0
 11 12  1  0
 12 13  1  0
 13 14  1  0
 14 15  2  0
 14 16  1  0
 16 17  1  0
 17 18  1  0
 18 19  1  0
 19 20  1  0
 20 21  1  0
 21 22  1  0
 22 23  1  0
 23 24  1  0
 23 25  1  0
 25 26  1  0
 19 27  1  0
 27 28  1  0
 28 29  1  0
 29 30  2  0
 30 31  1  0
 31 32  2  0
 32 33  1  0
 33 34  1  0
 33 35  2  0
 12 36  1  0
 36 37  1  0
  8  3  1  0
 37  9  1  0
 28 17  1  0
 35 29  1  0
 26 20  1  0
  1 38  1  0
  1 39  1  0
  1 40  1  0
  4 41  1  0
  5 42  1  0
  6 43  1  0
  7 44  1  0
 10 45  1  0
 10 46  1  0
 11 47  1  0
 11 48  1  0
 12 49  1  0
 13 50  1  0
 13 51  1  0
 17 52  1  1
 18 53  1  0
 18 54  1  0
 20 55  1  0
 21 56  1  0
 21 57  1  0
 22 58  1  0
 22 59  1  0
 24 60  1  0
 24 61  1  0
 24 62  1  0
 25 63  1  0
 25 64  1  0
 26 65  1  0
 26 66  1  0
 27 67  1  0
 27 68  1  0
 28 69  1  1
 30 70  1  0
 31 71  1  0
 32 72  1  0
 35 73  1  0
 36 74  1  0
 36 75  1  0
 37 76  1  0
 37 77  1  0
M  CHG  2  12   1  16  -1
M  END
>  <UniqueID>  (29) 
28

>  <SMILES>  (29) 
COc1ccccc1N1CC[NH+](CC(=O)[N-][C@@H]2CN(C3CCN(C)CC3)C[C@@H]2c2cccc(F)c2)CC1

>  <Energy>  (29) 
112.72818471392439

>  <Genealogy>  (29) 
COc1ccccc1N1CC[NH+](CC(=O)[N-]C2CN(C3CCN(C)CC3)CC2c2cccc(F)c2)CC1 (protonated)
COc1ccccc1N1CC[NH+](CC(=O)[N-][C@@H]2CN(C3CCN(C)CC3)C[C@@H]2c2cccc(F)c2)CC1 (chirality)
COc1ccccc1N1CC[NH+](CC(=O)[N-][C@@H]2CN(C3CCN(C)CC3)C[C@@H]2c2cccc(F)c2)CC1 (3D coordinates assigned)
COc1ccccc1N1CC[NH+](CC(=O)[N-][C@@H]2CN(C3CCN(C)CC3)C[C@@H]2c2cccc(F)c2)CC1 (nonaromatic ring conformer: 112.72818471392439 kcal/mol)

>  <smiles>  (29) 
COc1ccccc1N1CCN(CC(=O)NC2CN(C3CCN(C)CC3)CC2c2cccc(F)c2)CC1

>  <score_type>  (29) 
oracle

>  <origin>  (29) 
adg

>  <m_score__min__energy>  (29) 
-9.4199999999999999

>  <m_primary>  (29) 
energy

$$$$
29:0
     RDKit          3D

 45 48  0  0  0  0  0  0  0  0999 V2000
   56.7490   34.5730   45.2460 C   0  0  0  0  0  0  0  0  0  0  0  0
   58.1110   34.0980   45.6580 C   0  0  0  0  0  0  0  0  0  0  0  0
   59.2070   34.9690   45.6150 C   0  0  0  0  0  0  0  0  0  0  0  0
   60.4610   34.5450   46.0580 C   0  0  0  0  0  0  0  0  0  0  0  0
   60.6310   33.2420   46.5560 C   0  0  0  0  0  0  0  0  0  0  0  0
   59.5530   32.3280   46.5290 C   0  0  0  0  0  0  0  0  0  0  0  0
   58.2830   32.7930   46.1430 C   0  0  0  0  0  0  0  0  0  0  0  0
   59.7400   30.8610   46.9510 C   0  0  1  0  0  0  0  0  0  0  0  0
   59.6540   29.9070   45.7310 C   0  0  0  0  0  0  0  0  0  0  0  0
   58.3400   29.9850   44.9970 C   0  0  0  0  0  0  0  0  0  0  0  0
   58.2330   30.7350   43.8140 C   0  0  0  0  0  0  0  0  0  0  0  0
   57.0230   30.7830   43.1160 C   0  0  0  0  0  0  0  0  0  0  0  0
   55.9100   30.0840   43.5940 C   0  0  0  0  0  0  0  0  0  0  0  0
   56.0070   29.3380   44.7720 C   0  0  0  0  0  0  0  0  0  0  0  0
   57.2150   29.2900   45.4750 C   0  0  0  0  0  0  0  0  0  0  0  0
   61.0850   30.5910   47.7100 C   0  0  0  0  0  0  0  0  0  0  0  0
   61.6750   31.8360   48.2200 N   0  0  1  0  0  0  0  0  0  0  0  0
   62.9710   31.6740   48.8860 C   0  0  0  0  0  0  0  0  0  0  0  0
   63.7030   33.0110   48.7210 C   0  0  0  0  0  0  0  0  0  0  0  0
   62.8790   33.8050   47.7080 C   0  0  0  0  0  0  0  0  0  0  0  0
   61.9420   32.7600   47.1160 C   0  0  2  0  0  0  0  0  0  0  0  0
   56.1472   34.7829   46.1425 H   0  0  0  0  0  0  0  0  0  0  0  0
   56.8463   35.4903   44.6467 H   0  0  0  0  0  0  0  0  0  0  0  0
   56.2548   33.7942   44.6467 H   0  0  0  0  0  0  0  0  0  0  0  0
   59.0790   35.9916   45.2305 H   0  0  0  0  0  0  0  0  0  0  0  0
   61.3185   35.2328   46.0171 H   0  0  0  0  0  0  0  0  0  0  0  0
   57.4131   32.1245   46.2225 H   0  0  0  0  0  0  0  0  0  0  0  0
   58.9150   30.6591   47.6500 H   0  0  0  0  0  0  0  0  0  0  0  0
   60.4605   30.1660   45.0292 H   0  0  0  0  0  0  0  0  0  0  0  0
   59.7487   28.8809   46.1159 H   0  0  0  0  0  0  0  0  0  0  0  0
   59.1057   31.2872   43.4352 H   0  0  0  0  0  0  0  0  0  0  0  0
   56.9461   31.3712   42.1897 H   0  0  0  0  0  0  0  0  0  0  0  0
   54.9586   30.1213   43.0431 H   0  0  0  0  0  0  0  0  0  0  0  0
   55.1315   28.7876   45.1469 H   0  0  0  0  0  0  0  0  0  0  0  0
   57.2853   28.7066   46.4049 H   0  0  0  0  0  0  0  0  0  0  0  0
   60.8887   29.9158   48.5559 H   0  0  0  0  0  0  0  0  0  0  0  0
   61.7950   30.1370   47.0030 H   0  0  0  0  0  0  0  0  0  0  0  0
   61.0100   32.2730   48.9080 H   0  0  0  0  0  0  0  0  0  0  0  0
   62.8265   31.4468   49.9525 H   0  0  0  0  0  0  0  0  0  0  0  0
   63.5463   30.8440   48.4499 H   0  0  0  0  0  0  0  0  0  0  0  0
   63.7496   33.5449   49.6816 H   0  0  0  0  0  0  0  0  0  0  0  0
   64.7400   32.8696   48.3825 H   0  0  0  0  0  0  0  0  0  0  0  0
   62.3115   34.6061   48.2041 H   0  0  0  0  0  0  0  0  0  0  0  0
   63.4986   34.3046   46.9487 H   0  0  0  0  0  0  0  0  0  0  0  0
   62.4430   32.3312   46.2356 H   0  0  0  0  0  0  0  0  0  0  0  0
  1  2  1  0
  2  3  2  0
  3  4  1  0
  4  5  2  0
  5  6  1  0
  6  7  2  0
  6  8  1  0
  8  9  1  0
  9 10  1  0
 10 11  2  0
 11 12  1  0
 12 13  2  0
 13 14  1  0
 14 15  2  0
  8 16  1  0
 16 17  1  0
 17 18  1  0
 18 19  1  0
 19 20  1  0
 20 21  1  0
  7  2  1  0
 15 10  1  0
 21 17  1  0
 21  5  1  0
  1 22  1  0
  1 23  1  0
  1 24  1  0
  3 25  1  0
  4 26  1  0
  7 27  1  0
  8 28  1  1
  9 29  1  0
  9 30  1  0
 11 31  1  0
 12 32  1  0
 13 33  1  0
 14 34  1  0
 15 35  1  0
 16 36  1  0
 16 37  1  0
 17 38  1  1
 18 39  1  0
 18 40  1  0
 19 41  1  0
 19 42  1  0
 20 43  1  0
 20 44  1  0
 21 45  1  6
M  CHG  1  17   1
M  END
>  <UniqueID>  (30) 
29

>  <SMILES>  (30) 
Cc1ccc2c(c1)[C@@H](Cc1ccccc1)C[N@H+]1CCCC21

>  <Energy>  (30) 
60.53285419402817

>  <Genealogy>  (30) 
Cc1ccc2c(c1)C(Cc1ccccc1)C[NH+]1CCCC21 (protonated)
Cc1ccc2c(c1)[C@@H](Cc1ccccc1)C[N@H+]1CCCC21 (chirality)
Cc1ccc2c(c1)[C@@H](Cc1ccccc1)C[N@H+]1CCCC21 (3D coordinates assigned)
Cc1ccc2c(c1)[C@@H](Cc1ccccc1)C[N@H+]1CCCC21 (nonaromatic ring conformer: 60.53285419402817 kcal/mol)

>  <smiles>  (30) 
Cc1ccc2c(c1)C(Cc1ccccc1)CN1CCCC21

>  <score_type>  (30) 
oracle

>  <origin>  (30) 
adg

>  <m_score__min__energy>  (30) 
-6.7800000000000002

>  <m_primary>  (30) 
energy

$$$$
30:0
     RDKit          3D

 65 69  0  0  0  0  0  0  0  0999 V2000
   65.2200   31.5690   50.6580 C   0  0  0  0  0  0  0  0  0  0  0  0
   64.8210   30.3950   51.5520 C   0  0  0  0  0  0  0  0  0  0  0  0
   63.4760   29.8790   51.2140 N   0  0  0  0  0  0  0  0  0  0  0  0
   62.6920   30.8440   50.4110 C   0  0  0  0  0  0  0  0  0  0  0  0
   61.7480   31.6250   51.3180 C   0  0  0  0  0  0  0  0  0  0  0  0
   62.7150   29.2750   52.3390 C   0  0  0  0  0  0  0  0  0  0  0  0
   62.6630   27.7310   52.3720 C   0  0  0  0  0  0  0  0  0  0  0  0
   61.5330   27.1290   51.5300 C   0  0  0  0  0  0  0  0  0  0  0  0
   60.5080   28.0970   51.3030 O   0  0  0  0  0  0  0  0  0  0  0  0
   60.0980   28.5780   50.0480 C   0  0  0  0  0  0  0  0  0  0  0  0
   60.4470   27.8400   48.9130 C   0  0  0  0  0  0  0  0  0  0  0  0
   60.0820   28.2790   47.6370 C   0  0  0  0  0  0  0  0  0  0  0  0
   59.3680   29.4790   47.4700 C   0  0  0  0  0  0  0  0  0  0  0  0
   58.9500   29.9600   46.1280 C   0  0  0  0  0  0  0  0  0  0  0  0
   58.7650   29.0810   45.0220 C   0  0  0  0  0  0  0  0  0  0  0  0
   58.3490   29.5710   43.8140 N   0  0  0  0  0  0  0  0  0  0  0  0
   58.1360   30.9020   43.7060 C   0  0  0  0  0  0  0  0  0  0  0  0
   57.6870   31.5670   42.6240 N   0  0  0  0  0  0  0  0  0  0  0  0
   57.5950   32.8450   43.0000 N   0  0  0  0  0  0  0  0  0  0  0  0
   57.9970   32.9240   44.2940 C   0  0  0  0  0  0  0  0  0  0  0  0
   57.9760   34.1710   45.1220 C   0  0  0  0  0  0  0  0  0  0  0  0
   59.0720   34.1200   46.1540 C   0  0  0  0  0  0  0  0  0  0  0  0
   58.7530   34.1450   47.5240 C   0  0  0  0  0  0  0  0  0  0  0  0
   59.7570   34.0230   48.4890 C   0  0  0  0  0  0  0  0  0  0  0  0
   61.0910   33.8630   48.0980 C   0  0  0  0  0  0  0  0  0  0  0  0
   62.0690   33.7360   49.0380 N   0  0  0  0  0  0  0  0  0  0  0  0
   63.3760   33.5760   48.6940 C   0  0  0  0  0  0  0  0  0  0  0  0
   63.7470   33.5320   47.3450 C   0  0  0  0  0  0  0  0  0  0  0  0
   62.7660   33.6570   46.3560 C   0  0  0  0  0  0  0  0  0  0  0  0
   61.4240   33.8300   46.7240 C   0  0  0  0  0  0  0  0  0  0  0  0
   60.4140   33.9610   45.7590 C   0  0  0  0  0  0  0  0  0  0  0  0
   58.3350   31.7100   44.7400 N   0  0  0  0  0  0  0  0  0  0  0  0
   58.7250   31.2940   45.9390 N   0  0  0  0  0  0  0  0  0  0  0  0
   59.0010   30.2090   48.6150 C   0  0  0  0  0  0  0  0  0  0  0  0
   59.3660   29.7680   49.8890 C   0  0  0  0  0  0  0  0  0  0  0  0
   65.5109   32.4249   51.2848 H   0  0  0  0  0  0  0  0  0  0  0  0
   66.0685   31.2745   50.0229 H   0  0  0  0  0  0  0  0  0  0  0  0
   64.3677   31.8525   50.0229 H   0  0  0  0  0  0  0  0  0  0  0  0
   65.5550   29.5856   51.4254 H   0  0  0  0  0  0  0  0  0  0  0  0
   64.7993   30.7500   52.5929 H   0  0  0  0  0  0  0  0  0  0  0  0
   63.3773   31.5428   49.9089 H   0  0  0  0  0  0  0  0  0  0  0  0
   62.1035   30.2972   49.6596 H   0  0  0  0  0  0  0  0  0  0  0  0
   61.9964   31.4195   52.3697 H   0  0  0  0  0  0  0  0  0  0  0  0
   61.8557   32.7015   51.1194 H   0  0  0  0  0  0  0  0  0  0  0  0
   60.7107   31.3175   51.1194 H   0  0  0  0  0  0  0  0  0  0  0  0
   63.1756   29.6161   53.2779 H   0  0  0  0  0  0  0  0  0  0  0  0
   61.6741   29.6032   52.2020 H   0  0  0  0  0  0  0  0  0  0  0  0
   63.6206   27.3442   51.9935 H   0  0  0  0  0  0  0  0  0  0  0  0
   62.4727   27.4405   53.4157 H   0  0  0  0  0  0  0  0  0  0  0  0
   61.9391   26.7982   50.5627 H   0  0  0  0  0  0  0  0  0  0  0  0
   61.1016   26.2747   52.0723 H   0  0  0  0  0  0  0  0  0  0  0  0
   61.0146   26.9044   49.0252 H   0  0  0  0  0  0  0  0  0  0  0  0
   60.3557   27.6804   46.7556 H   0  0  0  0  0  0  0  0  0  0  0  0
   58.9573   28.0044   45.1397 H   0  0  0  0  0  0  0  0  0  0  0  0
   58.1970   28.9340   43.0000 H   0  0  0  0  0  0  0  0  0  0  0  0
   58.1289   35.0440   44.4705 H   0  0  0  0  0  0  0  0  0  0  0  0
   57.0038   34.2518   45.6301 H   0  0  0  0  0  0  0  0  0  0  0  0
   57.7053   34.2615   47.8383 H   0  0  0  0  0  0  0  0  0  0  0  0
   59.4979   34.0528   49.5576 H   0  0  0  0  0  0  0  0  0  0  0  0
   64.1422   33.4811   49.4775 H   0  0  0  0  0  0  0  0  0  0  0  0
   64.8025   33.4001   47.0648 H   0  0  0  0  0  0  0  0  0  0  0  0
   63.0463   33.6197   45.2930 H   0  0  0  0  0  0  0  0  0  0  0  0
   60.6716   33.9394   44.6898 H   0  0  0  0  0  0  0  0  0  0  0  0
   58.4204   31.1369   48.5059 H   0  0  0  0  0  0  0  0  0  0  0  0
   59.0790   30.3554   50.7737 H   0  0  0  0  0  0  0  0  0  0  0  0
  1  2  1  0
  2  3  1  0
  3  4  1  0
  4  5  1  0
  3  6  1  0
  6  7  1  0
  7  8  1  0
  8  9  1  0
  9 10  1  0
 10 11  2  0
 11 12  1  0
 12 13  2  0
 13 14  1  0
 14 15  1  0
 15 16  2  0
 16 17  1  0
 17 18  2  0
 18 19  1  0
 19 20  2  0
 20 21  1  0
 21 22  1  0
 22 23  2  0
 23 24  1  0
 24 25  2  0
 25 26  1  0
 26 27  2  0
 27 28  1  0
 28 29  2  0
 29 30  1  0
 30 31  2  0
 20 32  1  0
 32 33  1  0
 13 34  1  0
 34 35  2  0
 35 10  1  0
 33 14  2  0
 32 17  1  0
 31 22  1  0
 30 25  1  0
  1 36  1  0
  1 37  1  0
  1 38  1  0
  2 39  1  0
  2 40  1  0
  4 41  1  0
  4 42  1  0
  5 43  1  0
  5 44  1  0
  5 45  1  0
  6 46  1  0
  6 47  1  0
  7 48  1  0
  7 49  1  0
  8 50  1  0
  8 51  1  0
 11 52  1  0
 12 53  1  0
 15 54  1  0
 16 55  1  0
 21 56  1  0
 21 57  1  0
 23 58  1  0
 24 59  1  0
 27 60  1  0
 28 61  1  0
 29 62  1  0
 31 63  1  0
 34 64  1  0
 35 65  1  0
M  CHG  1  16   1
M  END
>  <UniqueID>  (31) 
30

>  <SMILES>  (31) 
CCN(CC)CCCOc1ccc(-c2c[nH+]c3nnc(Cc4ccc5ncccc5c4)n3n2)cc1

>  <Energy>  (31) 
120.37759861608791

>  <Genealogy>  (31) 
CCN(CC)CCCOc1ccc(-c2c[nH+]c3nnc(Cc4ccc5ncccc5c4)n3n2)cc1 (protonated)
CCN(CC)CCCOc1ccc(-c2c[nH+]c3nnc(Cc4ccc5ncccc5c4)n3n2)cc1 (3D coordinates assigned)
CCN(CC)CCCOc1ccc(-c2c[nH+]c3nnc(Cc4ccc5ncccc5c4)n3n2)cc1 (optimized conformer: 120.37759861608791 kcal/mol)

>  <smiles>  (31) 
CCN(CC)CCCOc1ccc(-c2cnc3nnc(Cc4ccc5ncccc5c4)n3n2)cc1

>  <score_type>  (31) 
oracle

>  <origin>  (31) 
adg

>  <m_score__min__energy>  (31) 
-7.8899999999999997

>  <m_primary>  (31) 
energy

$$$$
31:0
     RDKit          3D

 31 32  0  0  0  0  0  0  0  0999 V2000
   55.3460   29.7200   43.7630 C   0  0  0  0  0  0  0  0  0  0  0  0
   56.6420   29.3550   43.0500 C   0  0  0  0  0  0  0  0  0  0  0  0
   58.0050   29.0470   44.2310 S   0  0  0  0  0  0  0  0  0  0  0  0
   58.3120   30.7910   44.6090 C   0  0  0  0  0  0  0  0  0  0  0  0
   57.9510   31.7130   43.6240 C   0  0  0  0  0  0  0  0  0  0  0  0
   58.1530   33.0660   43.8280 C   0  0  0  0  0  0  0  0  0  0  0  0
   58.7520   33.5080   45.0050 C   0  0  0  0  0  0  0  0  0  0  0  0
   58.9730   34.8800   45.1970 C   0  0  0  0  0  0  0  0  0  0  0  0
   59.6020   35.3350   46.3540 C   0  0  0  0  0  0  0  0  0  0  0  0
   60.0210   34.4260   47.3210 C   0  0  0  0  0  0  0  0  0  0  0  0
   59.8060   33.0570   47.1470 C   0  0  0  0  0  0  0  0  0  0  0  0
   59.1500   32.5610   45.9880 C   0  0  0  0  0  0  0  0  0  0  0  0
   58.9040   31.2100   45.7870 N   0  0  0  0  0  0  0  0  0  0  0  0
   59.3290   30.2000   46.7850 C   0  0  0  0  0  0  0  0  0  0  0  0
   60.7250   29.6720   46.4620 C   0  0  0  0  0  0  0  0  0  0  0  0
   55.5013   29.6763   44.8511 H   0  0  0  0  0  0  0  0  0  0  0  0
   55.0440   30.7381   43.4763 H   0  0  0  0  0  0  0  0  0  0  0  0
   54.5570   29.0091   43.4763 H   0  0  0  0  0  0  0  0  0  0  0  0
   56.4760   28.4460   42.4532 H   0  0  0  0  0  0  0  0  0  0  0  0
   56.9297   30.2019   42.4097 H   0  0  0  0  0  0  0  0  0  0  0  0
   57.5042   31.3617   42.6822 H   0  0  0  0  0  0  0  0  0  0  0  0
   57.8412   33.7914   43.0622 H   0  0  0  0  0  0  0  0  0  0  0  0
   58.6484   35.5995   44.4309 H   0  0  0  0  0  0  0  0  0  0  0  0
   59.7674   36.4122   46.5031 H   0  0  0  0  0  0  0  0  0  0  0  0
   60.5252   34.7884   48.2290 H   0  0  0  0  0  0  0  0  0  0  0  0
   60.1495   32.3522   47.9185 H   0  0  0  0  0  0  0  0  0  0  0  0
   59.3403   30.6620   47.7832 H   0  0  0  0  0  0  0  0  0  0  0  0
   58.6198   29.3595   46.7599 H   0  0  0  0  0  0  0  0  0  0  0  0
   61.2654   29.4676   47.3981 H   0  0  0  0  0  0  0  0  0  0  0  0
   60.6399   28.7440   45.8776 H   0  0  0  0  0  0  0  0  0  0  0  0
   61.2753   30.4241   45.8776 H   0  0  0  0  0  0  0  0  0  0  0  0
  1  2  1  0
  2  3  1  0
  3  4  1  0
  4  5  2  0
  5  6  1  0
  6  7  2  0
  7  8  1  0
  8  9  2  0
  9 10  1  0
 10 11  2  0
 11 12  1  0
 12 13  2  0
 13 14  1  0
 14 15  1  0
 13  4  1  0
 12  7  1  0
  1 16  1  0
  1 17  1  0
  1 18  1  0
  2 19  1  0
  2 20  1  0
  5 21  1  0
  6 22  1  0
  8 23  1  0
  9 24  1  0
 10 25  1  0
 11 26  1  0
 14 27  1  0
 14 28  1  0
 15 29  1  0
 15 30  1  0
 15 31  1  0
M  CHG  1  13   1
M  END
>  <UniqueID>  (32) 
31

>  <SMILES>  (32) 
CCSc1ccc2ccccc2[n+]1CC

>  <Energy>  (32) 
34.27815641529096

>  <Genealogy>  (32) 
CCSc1ccc2ccccc2[n+]1CC (3D coordinates assigned)
CCSc1ccc2ccccc2[n+]1CC (optimized conformer: 34.27815641529096 kcal/mol)

>  <smiles>  (32) 
CCSc1ccc2ccccc2[n+]1CC

>  <score_type>  (32) 
oracle

>  <origin>  (32) 
adg

>  <m_score__min__energy>  (32) 
-4.4199999999999999

>  <m_primary>  (32) 
energy

$$$$
32:0
     RDKit          3D

 45 46  0  0  0  0  0  0  0  0999 V2000
   60.0793   35.4640   45.9254 H   0  0  0  0  0  0  0  0  0  0  0  0
   59.4660   34.5630   45.7770 C   0  0  0  0  0  0  0  0  0  0  0  0
   59.0260   34.2230   44.4990 C   0  0  0  0  0  0  0  0  0  0  0  0
   59.2990   34.8519   43.6388 H   0  0  0  0  0  0  0  0  0  0  0  0
   58.2390   33.0850   44.3090 C   0  0  0  0  0  0  0  0  0  0  0  0
   57.8923   32.8247   43.2981 H   0  0  0  0  0  0  0  0  0  0  0  0
   57.8850   32.2670   45.4010 C   0  0  0  0  0  0  0  0  0  0  0  0
   57.0670   31.1390   45.2330 O   0  0  0  0  0  0  0  0  0  0  0  0
   56.8240   30.4890   43.9910 C   0  0  0  0  0  0  0  0  0  0  0  0
   56.4443   29.4734   44.1768 H   0  0  0  0  0  0  0  0  0  0  0  0
   56.0786   31.0600   43.4180 H   0  0  0  0  0  0  0  0  0  0  0  0
   57.7612   30.4310   43.4180 H   0  0  0  0  0  0  0  0  0  0  0  0
   58.3560   32.6050   46.6950 C   0  0  0  0  0  0  0  0  0  0  0  0
   58.0730   31.8410   47.8400 O   0  0  0  0  0  0  0  0  0  0  0  0
   58.9370   30.9080   48.4260 C   0  0  0  0  0  0  0  0  0  0  0  0
   59.8100   31.3420   49.4270 C   0  0  0  0  0  0  0  0  0  0  0  0
   59.8180   32.3983   49.7338 H   0  0  0  0  0  0  0  0  0  0  0  0
   60.6710   30.4290   50.0350 C   0  0  0  0  0  0  0  0  0  0  0  0
   61.3572   30.7656   50.8261 H   0  0  0  0  0  0  0  0  0  0  0  0
   60.6650   29.1240   49.6530 N   0  0  0  0  0  0  0  0  0  0  0  0
   61.3080   28.4520   50.1270 H   0  0  0  0  0  0  0  0  0  0  0  0
   59.8440   28.6770   48.6660 C   0  0  0  0  0  0  0  0  0  0  0  0
   59.8627   27.6149   48.3804 H   0  0  0  0  0  0  0  0  0  0  0  0
   58.9710   29.5610   48.0070 C   0  0  0  0  0  0  0  0  0  0  0  0
   58.1220   29.0960   46.9400 N   0  0  0  0  0  0  0  0  0  0  0  0
   57.6200   29.7960   46.3530 H   0  0  0  0  0  0  0  0  0  0  0  0
   57.9400   27.7100   46.6100 C   0  0  0  0  0  0  0  0  0  0  0  0
   58.8070   26.8320   47.0350 N   0  0  0  0  0  0  0  0  0  0  0  0
   59.7270   26.0320   46.2290 C   0  0  0  0  0  0  0  0  0  0  0  0
   59.2624   25.8138   45.2561 H   0  0  0  0  0  0  0  0  0  0  0  0
   59.9459   25.0933   46.7591 H   0  0  0  0  0  0  0  0  0  0  0  0
   61.0300   26.7940   46.0060 C   0  0  0  0  0  0  0  0  0  0  0  0
   61.4610   26.5105   45.0345 H   0  0  0  0  0  0  0  0  0  0  0  0
   61.7449   26.5477   46.8049 H   0  0  0  0  0  0  0  0  0  0  0  0
   60.7620   28.1800   46.0180 O   0  0  0  0  0  0  0  0  0  0  0  0
   60.6190   28.6410   44.6930 C   0  0  0  0  0  0  0  0  0  0  0  0
   60.2931   29.6916   44.7035 H   0  0  0  0  0  0  0  0  0  0  0  0
   61.5840   28.5616   44.1710 H   0  0  0  0  0  0  0  0  0  0  0  0
   59.8683   28.0294   44.1710 H   0  0  0  0  0  0  0  0  0  0  0  0
   56.8880   27.3560   45.7000 N   0  0  0  0  0  0  0  0  0  0  0  0
   56.6060   28.0570   44.9790 H   0  0  0  0  0  0  0  0  0  0  0  0
   55.9480   26.3620   46.0070 C   0  0  0  0  0  0  0  0  0  0  0  0
   55.1700   25.5420   46.2570 N   0  0  0  0  0  0  0  0  0  0  0  0
   59.1290   33.7610   46.8690 C   0  0  0  0  0  0  0  0  0  0  0  0
   59.4736   34.0392   47.8759 H   0  0  0  0  0  0  0  0  0  0  0  0
  1  2  1  0
  2  3  2  0
  3  4  1  0
  3  5  1  0
  5  6  1  0
  5  7  2  0
  7  8  1  0
  8  9  1  0
  9 10  1  0
  9 11  1  0
  9 12  1  0
  7 13  1  0
 13 14  1  0
 14 15  1  0
 15 16  2  0
 16 17  1  0
 16 18  1  0
 18 19  1  0
 18 20  2  0
 20 21  1  0
 20 22  1  0
 22 23  1  0
 22 24  2  0
 24 25  1  0
 25 26  1  0
 25 27  1  0
 27 28  2  0
 28 29  1  0
 29 30  1  0
 29 31  1  0
 29 32  1  0
 32 33  1  0
 32 34  1  0
 32 35  1  0
 35 36  1  0
 36 37  1  0
 36 38  1  0
 36 39  1  0
 27 40  1  0
 40 41  1  0
 40 42  1  0
 42 43  3  0
 13 44  2  0
 44 45  1  0
 44  2  1  0
 24 15  1  0
M  CHG  1  20   1
M  END
>  <UniqueID>  (33) 
32

>  <SMILES>  (33) 
COCC/N=C(\NC#N)Nc1c[nH+]ccc1Oc1ccccc1OC

>  <Energy>  (33) 
61.574397969680966

>  <Genealogy>  (33) 
COCCN=C(NC#N)Nc1c[nH+]ccc1Oc1ccccc1OC (protonated)
COCC/N=C(\NC#N)Nc1c[nH+]ccc1Oc1ccccc1OC (cis-trans isomerization)
COCC/N=C(\NC#N)Nc1c[nH+]ccc1Oc1ccccc1OC (3D coordinates assigned)
COCC/N=C(\NC#N)Nc1c[nH+]ccc1Oc1ccccc1OC (optimized conformer: 61.574397969680966 kcal/mol)

>  <smiles>  (33) 
COCCN=C(NC#N)Nc1cnccc1Oc1ccccc1OC

>  <score_type>  (33) 
oracle

>  <origin>  (33) 
adg

>  <m_score__min__energy>  (33) 
-5.0300000000000002

>  <m_primary>  (33) 
energy

$$$$
33:0
     RDKit          3D

 67 70  0  0  0  0  0  0  0  0999 V2000
   57.4360   34.0600   44.7670 C   0  0  0  0  0  0  0  0  0  0  0  0
   57.0320   33.2110   45.9670 C   0  0  0  0  0  0  0  0  0  0  0  0
   57.1830   31.7850   45.6460 N   0  0  0  0  0  0  0  0  0  0  0  0
   57.3680   31.5720   44.2020 C   0  0  0  0  0  0  0  0  0  0  0  0
   57.8360   30.1330   43.8680 C   0  0  0  0  0  0  0  0  0  0  0  0
   58.4840   29.3730   44.9730 N   0  0  0  0  0  0  0  0  0  0  0  0
   59.9630   29.3370   44.8500 C   0  0  0  0  0  0  0  0  0  0  0  0
   60.6050   28.3010   45.7960 C   0  0  0  0  0  0  0  0  0  0  0  0
   59.7090   28.0320   46.9340 N   0  0  0  0  0  0  0  0  0  0  0  0
   60.3830   27.2300   47.9810 C   0  0  0  0  0  0  0  0  0  0  0  0
   60.2130   27.8940   49.3540 C   0  0  0  0  0  0  0  0  0  0  0  0
   60.5720   29.3120   49.2920 N   0  0  0  0  0  0  0  0  0  0  0  0
   61.5730   29.9490   50.0580 C   0  0  0  0  0  0  0  0  0  0  0  0
   62.4320   29.3200   50.7320 O   0  0  0  0  0  0  0  0  0  0  0  0
   61.5330   31.4290   49.9360 C   0  0  0  0  0  0  0  0  0  0  0  0
   60.1170   31.7340   49.3240 C   0  0  0  0  0  0  0  0  0  0  0  0
   59.1610   32.1920   50.4390 C   0  0  0  0  0  0  0  0  0  0  0  0
   59.4670   33.2560   51.3210 C   0  0  0  0  0  0  0  0  0  0  0  0
   58.5860   33.6120   52.3460 C   0  0  0  0  0  0  0  0  0  0  0  0
   57.3990   32.9030   52.5260 C   0  0  0  0  0  0  0  0  0  0  0  0
   57.0860   31.8380   51.6830 C   0  0  0  0  0  0  0  0  0  0  0  0
   57.9630   31.4740   50.6580 C   0  0  0  0  0  0  0  0  0  0  0  0
   60.1190   32.8110   48.2240 C   0  0  0  0  0  0  0  0  0  0  0  0
   59.2790   33.9430   48.3450 C   0  0  0  0  0  0  0  0  0  0  0  0
   59.3070   34.9660   47.3950 C   0  0  0  0  0  0  0  0  0  0  0  0
   60.2050   34.9090   46.3310 C   0  0  0  0  0  0  0  0  0  0  0  0
   61.0940   33.8420   46.2280 C   0  0  0  0  0  0  0  0  0  0  0  0
   61.0720   32.8140   47.1760 C   0  0  0  0  0  0  0  0  0  0  0  0
   59.7540   30.3540   48.7830 C   0  0  0  0  0  0  0  0  0  0  0  0
   58.7990   30.1180   47.9930 O   0  0  0  0  0  0  0  0  0  0  0  0
   58.4650   27.3750   46.4670 C   0  0  0  0  0  0  0  0  0  0  0  0
   57.9200   28.0210   45.1730 C   0  0  0  0  0  0  0  0  0  0  0  0
   57.8839   35.0014   45.1180 H   0  0  0  0  0  0  0  0  0  0  0  0
   58.1688   33.5097   44.1586 H   0  0  0  0  0  0  0  0  0  0  0  0
   56.5468   34.2815   44.1586 H   0  0  0  0  0  0  0  0  0  0  0  0
   57.6746   33.4618   46.8238 H   0  0  0  0  0  0  0  0  0  0  0  0
   55.9806   33.4159   46.2173 H   0  0  0  0  0  0  0  0  0  0  0  0
   58.0480   31.4420   46.1300 H   0  0  0  0  0  0  0  0  0  0  0  0
   56.4110   31.7585   43.6927 H   0  0  0  0  0  0  0  0  0  0  0  0
   58.1508   32.2651   43.8602 H   0  0  0  0  0  0  0  0  0  0  0  0
   56.9544   29.5619   43.5414 H   0  0  0  0  0  0  0  0  0  0  0  0
   58.6140   30.2503   43.0992 H   0  0  0  0  0  0  0  0  0  0  0  0
   58.2740   29.9190   45.8450 H   0  0  0  0  0  0  0  0  0  0  0  0
   60.2254   29.0795   43.8133 H   0  0  0  0  0  0  0  0  0  0  0  0
   60.3477   30.3295   45.1276 H   0  0  0  0  0  0  0  0  0  0  0  0
   60.7836   27.3661   45.2445 H   0  0  0  0  0  0  0  0  0  0  0  0
   61.5578   28.7001   46.1741 H   0  0  0  0  0  0  0  0  0  0  0  0
   59.9405   26.2233   48.0077 H   0  0  0  0  0  0  0  0  0  0  0  0
   61.4556   27.1647   47.7460 H   0  0  0  0  0  0  0  0  0  0  0  0
   59.1643   27.8008   49.6726 H   0  0  0  0  0  0  0  0  0  0  0  0
   60.8770   27.3926   50.0735 H   0  0  0  0  0  0  0  0  0  0  0  0
   61.6410   31.9037   50.9224 H   0  0  0  0  0  0  0  0  0  0  0  0
   62.3513   31.8202   49.3137 H   0  0  0  0  0  0  0  0  0  0  0  0
   60.4097   33.8094   51.1982 H   0  0  0  0  0  0  0  0  0  0  0  0
   58.8295   34.4530   53.0119 H   0  0  0  0  0  0  0  0  0  0  0  0
   56.7084   33.1846   53.3346 H   0  0  0  0  0  0  0  0  0  0  0  0
   56.1469   31.2831   51.8249 H   0  0  0  0  0  0  0  0  0  0  0  0
   57.7181   30.6174   50.0129 H   0  0  0  0  0  0  0  0  0  0  0  0
   58.5927   34.0185   49.2013 H   0  0  0  0  0  0  0  0  0  0  0  0
   58.6185   35.8190   47.4868 H   0  0  0  0  0  0  0  0  0  0  0  0
   60.2117   35.7062   45.5730 H   0  0  0  0  0  0  0  0  0  0  0  0
   61.8157   33.8076   45.3985 H   0  0  0  0  0  0  0  0  0  0  0  0
   61.8048   31.9966   47.1068 H   0  0  0  0  0  0  0  0  0  0  0  0
   58.6757   26.3131   46.2723 H   0  0  0  0  0  0  0  0  0  0  0  0
   57.7035   27.4920   47.2521 H   0  0  0  0  0  0  0  0  0  0  0  0
   58.1905   27.3886   44.3146 H   0  0  0  0  0  0  0  0  0  0  0  0
   56.8270   28.1085   45.2605 H   0  0  0  0  0  0  0  0  0  0  0  0
  1  2  1  0
  2  3  1  0
  3  4  1  0
  4  5  1  0
  5  6  1  0
  6  7  1  0
  7  8  1  0
  8  9  1  0
  9 10  1  0
 10 11  1  0
 11 12  1  0
 12 13  1  0
 13 14  2  0
 13 15  1  0
 15 16  1  0
 16 17  1  0
 17 18  2  0
 18 19  1  0
 19 20  2  0
 20 21  1  0
 21 22  2  0
 16 23  1  0
 23 24  2  0
 24 25  1  0
 25 26  2  0
 26 27  1  0
 27 28  2  0
 16 29  1  0
 29 30  2  0
  9 31  1  0
 31 32  1  0
 32  6  1  0
 29 12  1  0
 22 17  1  0
 28 23  1  0
  1 33  1  0
  1 34  1  0
  1 35  1  0
  2 36  1  0
  2 37  1  0
  3 38  1  0
  4 39  1  0
  4 40  1  0
  5 41  1  0
  5 42  1  0
  6 43  1  0
  7 44  1  0
  7 45  1  0
  8 46  1  0
  8 47  1  0
 10 48  1  0
 10 49  1  0
 11 50  1  0
 11 51  1  0
 15 52  1  0
 15 53  1  0
 18 54  1  0
 19 55  1  0
 20 56  1  0
 21 57  1  0
 22 58  1  0
 24 59  1  0
 25 60  1  0
 26 61  1  0
 27 62  1  0
 28 63  1  0
 31 64  1  0
 31 65  1  0
 32 66  1  0
 32 67  1  0
M  CHG  1   6   1
M  END
>  <UniqueID>  (34) 
33

>  <SMILES>  (34) 
CCNCC[NH+]1CCN(CCN2C(=O)CC(c3ccccc3)(c3ccccc3)C2=O)CC1

>  <Energy>  (34) 
100.98782291727308

>  <Genealogy>  (34) 
CCNCC[NH+]1CCN(CCN2C(=O)CC(c3ccccc3)(c3ccccc3)C2=O)CC1 (protonated)
CCNCC[NH+]1CCN(CCN2C(=O)CC(c3ccccc3)(c3ccccc3)C2=O)CC1 (3D coordinates assigned)
CCNCC[NH+]1CCN(CCN2C(=O)CC(c3ccccc3)(c3ccccc3)C2=O)CC1 (nonaromatic ring conformer: 100.98782291727308 kcal/mol)

>  <smiles>  (34) 
CCNCCN1CCN(CCN2C(=O)CC(c3ccccc3)(c3ccccc3)C2=O)CC1

>  <score_type>  (34) 
oracle

>  <origin>  (34) 
adg

>  <m_score__min__energy>  (34) 
-7.0499999999999998

>  <m_primary>  (34) 
energy

$$$$
34:0
     RDKit          3D

 36 37  0  0  0  0  0  0  0  0999 V2000
   58.2440   34.5750   44.8830 C   0  0  0  0  0  0  0  0  0  0  0  0
   58.2400   33.0840   45.0720 C   0  0  0  0  0  0  0  0  0  0  0  0
   57.4020   32.2780   44.2850 C   0  0  0  0  0  0  0  0  0  0  0  0
   57.4110   30.8890   44.4380 C   0  0  0  0  0  0  0  0  0  0  0  0
   56.2590   29.8040   43.3690 Br  0  0  0  0  0  0  0  0  0  0  0  0
   58.2580   30.2950   45.3760 C   0  0  0  0  0  0  0  0  0  0  0  0
   59.1080   31.0830   46.1570 C   0  0  0  0  0  0  0  0  0  0  0  0
   60.2260   30.2250   47.4540 Br  0  0  0  0  0  0  0  0  0  0  0  0
   59.1150   32.4800   45.9970 C   0  0  0  0  0  0  0  0  0  0  0  0
   59.9700   33.2760   46.7620 O   0  0  0  0  0  0  0  0  0  0  0  0
   59.4950   34.0260   47.8760 C   0  0  0  0  0  0  0  0  0  0  0  0
   60.5880   34.1520   48.9470 C   0  0  0  0  0  0  0  0  0  0  0  0
   61.7600   33.2790   48.6850 N   0  0  0  0  0  0  0  0  0  0  0  0
   62.4210   32.8490   49.9430 C   0  0  0  0  0  0  0  0  0  0  0  0
   63.8620   32.3570   49.7000 C   0  0  0  0  0  0  0  0  0  0  0  0
   64.0290   31.9590   48.3560 O   0  0  0  0  0  0  0  0  0  0  0  0
   63.9490   33.0910   47.5080 C   0  0  0  0  0  0  0  0  0  0  0  0
   62.7260   33.9860   47.8170 C   0  0  0  0  0  0  0  0  0  0  0  0
   58.2453   35.0692   45.8657 H   0  0  0  0  0  0  0  0  0  0  0  0
   59.1429   34.8711   44.3225 H   0  0  0  0  0  0  0  0  0  0  0  0
   57.3467   34.8760   44.3225 H   0  0  0  0  0  0  0  0  0  0  0  0
   56.7348   32.7424   43.5440 H   0  0  0  0  0  0  0  0  0  0  0  0
   58.2562   29.2021   45.5007 H   0  0  0  0  0  0  0  0  0  0  0  0
   59.2029   35.0310   47.5373 H   0  0  0  0  0  0  0  0  0  0  0  0
   58.6295   33.5052   48.3115 H   0  0  0  0  0  0  0  0  0  0  0  0
   60.9294   35.1972   48.9782 H   0  0  0  0  0  0  0  0  0  0  0  0
   60.1488   33.8349   49.9044 H   0  0  0  0  0  0  0  0  0  0  0  0
   61.4310   32.4280   48.1680 H   0  0  0  0  0  0  0  0  0  0  0  0
   62.4492   33.7008   50.6384 H   0  0  0  0  0  0  0  0  0  0  0  0
   61.8426   32.0122   50.3617 H   0  0  0  0  0  0  0  0  0  0  0  0
   64.5656   33.1717   49.9263 H   0  0  0  0  0  0  0  0  0  0  0  0
   64.0580   31.4940   50.3533 H   0  0  0  0  0  0  0  0  0  0  0  0
   64.8633   33.6896   47.6336 H   0  0  0  0  0  0  0  0  0  0  0  0
   63.8395   32.7250   46.4765 H   0  0  0  0  0  0  0  0  0  0  0  0
   63.0675   34.8987   48.3272 H   0  0  0  0  0  0  0  0  0  0  0  0
   62.2274   34.2387   46.8696 H   0  0  0  0  0  0  0  0  0  0  0  0
  1  2  1  0
  2  3  2  0
  3  4  1  0
  4  5  1  0
  4  6  2  0
  6  7  1  0
  7  8  1  0
  7  9  2  0
  9 10  1  0
 10 11  1  0
 11 12  1  0
 12 13  1  0
 13 14  1  0
 14 15  1  0
 15 16  1  0
 16 17  1  0
 17 18  1  0
  9  2  1  0
 18 13  1  0
  1 19  1  0
  1 20  1  0
  1 21  1  0
  3 22  1  0
  6 23  1  0
 11 24  1  0
 11 25  1  0
 12 26  1  0
 12 27  1  0
 13 28  1  0
 14 29  1  0
 14 30  1  0
 15 31  1  0
 15 32  1  0
 17 33  1  0
 17 34  1  0
 18 35  1  0
 18 36  1  0
M  CHG  1  13   1
M  END
>  <UniqueID>  (35) 
34

>  <SMILES>  (35) 
Cc1cc(Br)cc(Br)c1OCC[NH+]1CCOCC1

>  <Energy>  (35) 
49.898937427558295

>  <Genealogy>  (35) 
Cc1cc(Br)cc(Br)c1OCC[NH+]1CCOCC1 (protonated)
Cc1cc(Br)cc(Br)c1OCC[NH+]1CCOCC1 (3D coordinates assigned)
Cc1cc(Br)cc(Br)c1OCC[NH+]1CCOCC1 (nonaromatic ring conformer: 49.898937427558295 kcal/mol)

>  <smiles>  (35) 
Cc1cc(Br)cc(Br)c1OCCN1CCOCC1

>  <score_type>  (35) 
oracle

>  <origin>  (35) 
adg

>  <m_score__min__energy>  (35) 
-4.9299999999999997

>  <m_primary>  (35) 
energy

$$$$
35:0
     RDKit          3D

 36 39  0  0  0  0  0  0  0  0999 V2000
   59.6490   36.2300   45.5990 O   0  0  0  0  0  0  0  0  0  0  0  0
   59.5150   34.9990   45.8260 C   0  0  0  0  0  0  0  0  0  0  0  0
   60.3810   34.3360   46.8620 C   0  0  0  0  0  0  0  0  0  0  0  0
   60.3720   32.8810   46.6940 N   0  0  0  0  0  0  0  0  0  0  0  0
   61.2170   31.9520   47.2010 C   0  0  0  0  0  0  0  0  0  0  0  0
   62.4200   32.2370   48.0140 C   0  0  0  0  0  0  0  0  0  0  0  0
   62.6530   31.5940   49.2380 C   0  0  0  0  0  0  0  0  0  0  0  0
   63.8080   31.8760   49.9680 C   0  0  0  0  0  0  0  0  0  0  0  0
   64.7290   32.7930   49.4630 C   0  0  0  0  0  0  0  0  0  0  0  0
   64.5030   33.3950   48.2650 N   0  0  0  0  0  0  0  0  0  0  0  0
   63.3860   33.1350   47.5350 C   0  0  0  0  0  0  0  0  0  0  0  0
   60.8670   30.6940   46.8520 N   0  0  0  0  0  0  0  0  0  0  0  0
   59.7550   30.8420   46.1040 C   0  0  0  0  0  0  0  0  0  0  0  0
   59.0000   29.7030   45.5500 C   0  0  0  0  0  0  0  0  0  0  0  0
   59.6650   28.6090   44.9690 C   0  0  0  0  0  0  0  0  0  0  0  0
   58.9340   27.5280   44.4660 C   0  0  0  0  0  0  0  0  0  0  0  0
   57.5390   27.5240   44.5510 C   0  0  0  0  0  0  0  0  0  0  0  0
   56.8720   28.5970   45.1500 C   0  0  0  0  0  0  0  0  0  0  0  0
   55.5200   28.5870   45.2430 F   0  0  0  0  0  0  0  0  0  0  0  0
   57.6000   29.6790   45.6550 C   0  0  0  0  0  0  0  0  0  0  0  0
   59.4510   32.1890   46.0020 C   0  0  0  0  0  0  0  0  0  0  0  0
   58.2380   32.8420   45.4080 C   0  0  0  0  0  0  0  0  0  0  0  0
   58.5120   34.2500   45.1210 N   0  0  0  0  0  0  0  0  0  0  0  0
   61.4123   34.7045   46.7592 H   0  0  0  0  0  0  0  0  0  0  0  0
   59.9853   34.5781   47.8594 H   0  0  0  0  0  0  0  0  0  0  0  0
   61.9239   30.8660   49.6233 H   0  0  0  0  0  0  0  0  0  0  0  0
   63.9903   31.3797   50.9326 H   0  0  0  0  0  0  0  0  0  0  0  0
   65.6389   33.0295   50.0341 H   0  0  0  0  0  0  0  0  0  0  0  0
   63.2388   33.6309   46.5642 H   0  0  0  0  0  0  0  0  0  0  0  0
   60.7634   28.6033   44.9099 H   0  0  0  0  0  0  0  0  0  0  0  0
   59.4581   26.6792   44.0025 H   0  0  0  0  0  0  0  0  0  0  0  0
   56.9658   26.6767   44.1467 H   0  0  0  0  0  0  0  0  0  0  0  0
   57.0731   30.5157   46.1370 H   0  0  0  0  0  0  0  0  0  0  0  0
   57.9683   32.3266   44.4744 H   0  0  0  0  0  0  0  0  0  0  0  0
   57.4073   32.7770   46.1262 H   0  0  0  0  0  0  0  0  0  0  0  0
   57.8830   34.7530   44.4560 H   0  0  0  0  0  0  0  0  0  0  0  0
  1  2  2  0
  2  3  1  0
  3  4  1  0
  4  5  1  0
  5  6  1  0
  6  7  2  0
  7  8  1  0
  8  9  2  0
  9 10  1  0
 10 11  2  0
  5 12  2  0
 12 13  1  0
 13 14  1  0
 14 15  2  0
 15 16  1  0
 16 17  2  0
 17 18  1  0
 18 19  1  0
 18 20  2  0
 13 21  2  0
 21 22  1  0
 22 23  1  0
 23  2  1  0
 21  4  1  0
 11  6  1  0
 20 14  1  0
  3 24  1  0
  3 25  1  0
  7 26  1  0
  8 27  1  0
  9 28  1  0
 11 29  1  0
 15 30  1  0
 16 31  1  0
 17 32  1  0
 20 33  1  0
 22 34  1  0
 22 35  1  0
 23 36  1  0
M  END
>  <UniqueID>  (36) 
35

>  <SMILES>  (36) 
O=C1Cn2c(-c3cccnc3)nc(-c3cccc(F)c3)c2CN1

>  <Energy>  (36) 
82.42700056009436

>  <Genealogy>  (36) 
O=C1Cn2c(-c3cccnc3)nc(-c3cccc(F)c3)c2CN1 (3D coordinates assigned)
O=C1Cn2c(-c3cccnc3)nc(-c3cccc(F)c3)c2CN1 (nonaromatic ring conformer: 82.42700056009436 kcal/mol)

>  <smiles>  (36) 
O=C1Cn2c(-c3cccnc3)nc(-c3cccc(F)c3)c2CN1

>  <score_type>  (36) 
oracle

>  <origin>  (36) 
adg

>  <m_score__min__energy>  (36) 
-7.0300000000000002

>  <m_primary>  (36) 
energy

$$$$
36:0
     RDKit          3D

 46 47  0  0  0  0  0  0  0  0999 V2000
   56.6150   24.0870   43.4890 C   0  0  0  0  0  0  0  0  0  0  0  0
   56.8960   23.5810   44.8940 C   0  0  0  0  0  0  0  0  0  0  0  0
   56.0500   24.2530   45.8200 O   0  0  0  0  0  0  0  0  0  0  0  0
   56.1020   25.6350   46.0270 C   0  0  0  0  0  0  0  0  0  0  0  0
   55.0460   26.3240   45.9750 O   0  0  0  0  0  0  0  0  0  0  0  0
   57.4020   26.2760   46.2950 C   0  0  0  0  0  0  0  0  0  0  0  0
   58.0790   26.2080   47.4960 C   0  0  0  0  0  0  0  0  0  0  0  0
   59.2550   26.9110   47.3240 C   0  0  0  0  0  0  0  0  0  0  0  0
   60.2740   27.1230   48.4020 C   0  0  0  0  0  0  0  0  0  0  0  0
   59.3310   27.4070   46.0650 N   0  0  0  0  0  0  0  0  0  0  0  0
   60.4540   28.1660   45.4910 C   0  0  0  0  0  0  0  0  0  0  0  0
   59.9760   29.4950   44.8930 C   0  0  0  0  0  0  0  0  0  0  0  0
   58.9660   30.0960   45.7050 O   0  0  0  0  0  0  0  0  0  0  0  0
   58.6770   31.4700   45.7730 C   0  0  0  0  0  0  0  0  0  0  0  0
   59.5820   32.4090   46.3060 C   0  0  0  0  0  0  0  0  0  0  0  0
   59.2510   33.7650   46.3410 C   0  0  0  0  0  0  0  0  0  0  0  0
   58.0200   34.1990   45.8500 C   0  0  0  0  0  0  0  0  0  0  0  0
   57.1130   33.2770   45.3210 C   0  0  0  0  0  0  0  0  0  0  0  0
   57.4360   31.9060   45.2790 C   0  0  0  0  0  0  0  0  0  0  0  0
   56.5560   30.9500   44.7480 O   0  0  0  0  0  0  0  0  0  0  0  0
   56.6370   30.4260   43.4260 C   0  0  0  0  0  0  0  0  0  0  0  0
   58.1870   27.0360   45.4330 C   0  0  0  0  0  0  0  0  0  0  0  0
   57.8300   27.3820   44.0140 C   0  0  0  0  0  0  0  0  0  0  0  0
   56.0817   25.0474   43.5450 H   0  0  0  0  0  0  0  0  0  0  0  0
   57.5652   24.2260   42.9525 H   0  0  0  0  0  0  0  0  0  0  0  0
   55.9948   23.3539   42.9525 H   0  0  0  0  0  0  0  0  0  0  0  0
   56.7024   22.4991   44.9393 H   0  0  0  0  0  0  0  0  0  0  0  0
   57.9476   23.7772   45.1501 H   0  0  0  0  0  0  0  0  0  0  0  0
   57.7469   25.6947   48.4104 H   0  0  0  0  0  0  0  0  0  0  0  0
   59.7929   27.0229   49.3861 H   0  0  0  0  0  0  0  0  0  0  0  0
   61.0715   26.3715   48.3056 H   0  0  0  0  0  0  0  0  0  0  0  0
   60.7056   28.1302   48.3056 H   0  0  0  0  0  0  0  0  0  0  0  0
   61.1895   28.3724   46.2825 H   0  0  0  0  0  0  0  0  0  0  0  0
   60.9068   27.5653   44.6884 H   0  0  0  0  0  0  0  0  0  0  0  0
   60.8315   30.1824   44.8179 H   0  0  0  0  0  0  0  0  0  0  0  0
   59.5491   29.2950   43.8992 H   0  0  0  0  0  0  0  0  0  0  0  0
   60.5538   32.0724   46.6963 H   0  0  0  0  0  0  0  0  0  0  0  0
   59.9631   34.4929   46.7570 H   0  0  0  0  0  0  0  0  0  0  0  0
   57.7628   35.2681   45.8792 H   0  0  0  0  0  0  0  0  0  0  0  0
   56.1425   33.6230   44.9356 H   0  0  0  0  0  0  0  0  0  0  0  0
   56.8049   29.3399   43.4717 H   0  0  0  0  0  0  0  0  0  0  0  0
   55.6967   30.6295   42.8927 H   0  0  0  0  0  0  0  0  0  0  0  0
   57.4719   30.9039   42.8927 H   0  0  0  0  0  0  0  0  0  0  0  0
   57.0401   28.1476   44.0109 H   0  0  0  0  0  0  0  0  0  0  0  0
   58.7194   27.7707   43.4965 H   0  0  0  0  0  0  0  0  0  0  0  0
   57.4693   26.4808   43.4965 H   0  0  0  0  0  0  0  0  0  0  0  0
  1  2  1  0
  2  3  1  0
  3  4  1  0
  4  5  2  0
  4  6  1  0
  6  7  1  0
  7  8  2  0
  8  9  1  0
  8 10  1  0
 10 11  1  0
 11 12  1  0
 12 13  1  0
 13 14  1  0
 14 15  2  0
 15 16  1  0
 16 17  2  0
 17 18  1  0
 18 19  2  0
 19 20  1  0
 20 21  1  0
 10 22  1  0
 22 23  1  0
 22  6  2  0
 19 14  1  0
  1 24  1  0
  1 25  1  0
  1 26  1  0
  2 27  1  0
  2 28  1  0
  7 29  1  0
  9 30  1  0
  9 31  1  0
  9 32  1  0
 11 33  1  0
 11 34  1  0
 12 35  1  0
 12 36  1  0
 15 37  1  0
 16 38  1  0
 17 39  1  0
 18 40  1  0
 21 41  1  0
 21 42  1  0
 21 43  1  0
 23 44  1  0
 23 45  1  0
 23 46  1  0
M  END
>  <UniqueID>  (37) 
36

>  <SMILES>  (37) 
CCOC(=O)c1cc(C)n(CCOc2ccccc2OC)c1C

>  <Energy>  (37) 
63.10853016742433

>  <Genealogy>  (37) 
CCOC(=O)c1cc(C)n(CCOc2ccccc2OC)c1C (3D coordinates assigned)
CCOC(=O)c1cc(C)n(CCOc2ccccc2OC)c1C (optimized conformer: 63.10853016742433 kcal/mol)

>  <smiles>  (37) 
CCOC(=O)c1cc(C)n(CCOc2ccccc2OC)c1C

>  <score_type>  (37) 
oracle

>  <origin>  (37) 
adg

>  <m_score__min__energy>  (37) 
-7.4500000000000002

>  <m_primary>  (37) 
energy

$$$$
37:0
     RDKit          3D

 42 44  0  0  0  0  0  0  0  0999 V2000
   54.6990   25.1250   45.6090 C   0  0  0  0  0  0  0  0  0  0  0  0
   55.1780   26.4090   45.9930 O   0  0  0  0  0  0  0  0  0  0  0  0
   56.5340   26.7380   46.1380 C   0  0  0  0  0  0  0  0  0  0  0  0
   57.3810   26.0670   47.0410 C   0  0  0  0  0  0  0  0  0  0  0  0
   58.7260   26.4320   47.1470 C   0  0  0  0  0  0  0  0  0  0  0  0
   59.2380   27.4660   46.3600 C   0  0  0  0  0  0  0  0  0  0  0  0
   58.4070   28.1410   45.4530 C   0  0  0  0  0  0  0  0  0  0  0  0
   58.9570   29.2750   44.6310 C   0  0  0  0  0  0  0  0  0  0  0  0
   59.4630   30.3330   45.5070 N   0  0  0  0  0  0  0  0  0  0  0  0
   60.5640   30.2490   46.2920 C   0  0  0  0  0  0  0  0  0  0  0  0
   60.7070   31.4080   47.0470 C   0  0  0  0  0  0  0  0  0  0  0  0
   61.8280   31.7170   47.9960 C   0  0  0  0  0  0  0  0  0  0  0  0
   62.7700   32.7890   47.4320 C   0  0  0  0  0  0  0  0  0  0  0  0
   64.1330   32.2820   47.2560 N   0  0  0  0  0  0  0  0  0  0  0  0
   59.6470   32.2210   46.6930 C   0  0  0  0  0  0  0  0  0  0  0  0
   59.2890   33.5010   47.1220 C   0  0  0  0  0  0  0  0  0  0  0  0
   58.1310   34.0780   46.5720 C   0  0  0  0  0  0  0  0  0  0  0  0
   57.3640   33.3760   45.6180 C   0  0  0  0  0  0  0  0  0  0  0  0
   57.7500   32.0890   45.2020 C   0  0  0  0  0  0  0  0  0  0  0  0
   58.9050   31.5350   45.7620 C   0  0  0  0  0  0  0  0  0  0  0  0
   57.0560   27.7720   45.3500 C   0  0  0  0  0  0  0  0  0  0  0  0
   54.4778   24.5320   46.5087 H   0  0  0  0  0  0  0  0  0  0  0  0
   53.7830   25.2392   45.0108 H   0  0  0  0  0  0  0  0  0  0  0  0
   55.4660   24.6114   45.0108 H   0  0  0  0  0  0  0  0  0  0  0  0
   56.9829   25.2531   47.6648 H   0  0  0  0  0  0  0  0  0  0  0  0
   59.3835   25.9031   47.8526 H   0  0  0  0  0  0  0  0  0  0  0  0
   60.2962   27.7521   46.4515 H   0  0  0  0  0  0  0  0  0  0  0  0
   59.7771   28.9022   43.9998 H   0  0  0  0  0  0  0  0  0  0  0  0
   58.1544   29.6839   43.9996 H   0  0  0  0  0  0  0  0  0  0  0  0
   61.2470   29.3874   46.3271 H   0  0  0  0  0  0  0  0  0  0  0  0
   61.4031   32.0789   48.9439 H   0  0  0  0  0  0  0  0  0  0  0  0
   62.4098   30.7964   48.1507 H   0  0  0  0  0  0  0  0  0  0  0  0
   62.3859   33.1220   46.4565 H   0  0  0  0  0  0  0  0  0  0  0  0
   62.8066   33.6218   48.1497 H   0  0  0  0  0  0  0  0  0  0  0  0
   64.6960   32.5170   48.1040 H   0  0  0  0  0  0  0  0  0  0  0  0
   64.1200   31.2430   47.1420 H   0  0  0  0  0  0  0  0  0  0  0  0
   64.5800   32.7270   46.4210 H   0  0  0  0  0  0  0  0  0  0  0  0
   59.8936   34.0402   47.8662 H   0  0  0  0  0  0  0  0  0  0  0  0
   57.8203   35.0848   46.8879 H   0  0  0  0  0  0  0  0  0  0  0  0
   56.4588   33.8380   45.1971 H   0  0  0  0  0  0  0  0  0  0  0  0
   57.1601   31.5343   44.4575 H   0  0  0  0  0  0  0  0  0  0  0  0
   56.4002   28.3008   44.6426 H   0  0  0  0  0  0  0  0  0  0  0  0
  1  2  1  0
  2  3  1  0
  3  4  2  0
  4  5  1  0
  5  6  2  0
  6  7  1  0
  7  8  1  0
  8  9  1  0
  9 10  1  0
 10 11  2  0
 11 12  1  0
 12 13  1  0
 13 14  1  0
 11 15  1  0
 15 16  2  0
 16 17  1  0
 17 18  2  0
 18 19  1  0
 19 20  2  0
  7 21  2  0
 21  3  1  0
 20  9  1  0
 20 15  1  0
  1 22  1  0
  1 23  1  0
  1 24  1  0
  4 25  1  0
  5 26  1  0
  6 27  1  0
  8 28  1  0
  8 29  1  0
 10 30  1  0
 12 31  1  0
 12 32  1  0
 13 33  1  0
 13 34  1  0
 14 35  1  0
 14 36  1  0
 14 37  1  0
 16 38  1  0
 17 39  1  0
 18 40  1  0
 19 41  1  0
 21 42  1  0
M  CHG  1  14   1
M  END
>  <UniqueID>  (38) 
37

>  <SMILES>  (38) 
COc1cccc(Cn2cc(CC[NH3+])c3ccccc32)c1

>  <Energy>  (38) 
71.20420215163173

>  <Genealogy>  (38) 
COc1cccc(Cn2cc(CC[NH3+])c3ccccc32)c1 (protonated)
COc1cccc(Cn2cc(CC[NH3+])c3ccccc32)c1 (3D coordinates assigned)
COc1cccc(Cn2cc(CC[NH3+])c3ccccc32)c1 (optimized conformer: 71.20420215163173 kcal/mol)

>  <smiles>  (38) 
COc1cccc(Cn2cc(CCN)c3ccccc32)c1

>  <score_type>  (38) 
oracle

>  <origin>  (38) 
adg

>  <m_score__min__energy>  (38) 
-6.25

>  <m_primary>  (38) 
energy

$$$$
38:0
     RDKit          3D

 25 26  0  0  0  0  0  0  0  0999 V2000
   58.5620   28.2310   44.9240 C   0  0  0  0  0  0  0  0  0  0  0  0
   57.1010   28.1730   45.3580 C   0  0  0  0  0  0  0  0  0  0  0  0
   56.4860   29.5020   45.3120 N   0  0  0  0  0  0  0  0  0  0  0  0
   56.8940   30.5100   44.3660 C   0  0  0  0  0  0  0  0  0  0  0  0
   56.6410   30.3250   42.9920 C   0  0  0  0  0  0  0  0  0  0  0  0
   57.0760   31.2580   42.0500 C   0  0  0  0  0  0  0  0  0  0  0  0
   57.7700   32.3950   42.4560 C   0  0  0  0  0  0  0  0  0  0  0  0
   58.0240   32.6160   43.8120 C   0  0  0  0  0  0  0  0  0  0  0  0
   58.6890   33.7390   44.1930 N   0  0  0  0  0  0  0  0  0  0  0  0
   58.9430   34.0160   45.4970 C   0  0  0  0  0  0  0  0  0  0  0  0
   58.5100   33.1430   46.4930 C   0  0  0  0  0  0  0  0  0  0  0  0
   57.8230   31.9800   46.1400 C   0  0  0  0  0  0  0  0  0  0  0  0
   57.5810   31.6810   44.7840 C   0  0  0  0  0  0  0  0  0  0  0  0
   59.2081   28.2567   45.8139 H   0  0  0  0  0  0  0  0  0  0  0  0
   58.8014   27.3417   44.3226 H   0  0  0  0  0  0  0  0  0  0  0  0
   58.7302   29.1365   44.3226 H   0  0  0  0  0  0  0  0  0  0  0  0
   56.5520   27.4992   44.6838 H   0  0  0  0  0  0  0  0  0  0  0  0
   57.0575   27.8025   46.3928 H   0  0  0  0  0  0  0  0  0  0  0  0
   55.7260   29.7200   45.9940 H   0  0  0  0  0  0  0  0  0  0  0  0
   56.0926   29.4321   42.6573 H   0  0  0  0  0  0  0  0  0  0  0  0
   56.8698   31.0946   40.9819 H   0  0  0  0  0  0  0  0  0  0  0  0
   58.1192   33.1211   41.7071 H   0  0  0  0  0  0  0  0  0  0  0  0
   59.4911   34.9304   45.7679 H   0  0  0  0  0  0  0  0  0  0  0  0
   58.7083   33.3688   47.5511 H   0  0  0  0  0  0  0  0  0  0  0  0
   57.4690   31.2940   46.9236 H   0  0  0  0  0  0  0  0  0  0  0  0
  1  2  1  0
  2  3  1  0
  3  4  1  0
  4  5  2  0
  5  6  1  0
  6  7  2  0
  7  8  1  0
  8  9  2  0
  9 10  1  0
 10 11  2  0
 11 12  1  0
 12 13  2  0
 13  4  1  0
 13  8  1  0
  1 14  1  0
  1 15  1  0
  1 16  1  0
  2 17  1  0
  2 18  1  0
  3 19  1  0
  5 20  1  0
  6 21  1  0
  7 22  1  0
 10 23  1  0
 11 24  1  0
 12 25  1  0
M  END
>  <UniqueID>  (39) 
38

>  <SMILES>  (39) 
CCNc1cccc2ncccc12

>  <Energy>  (39) 
29.59356550632156

>  <Genealogy>  (39) 
CCNc1cccc2ncccc12 (3D coordinates assigned)
CCNc1cccc2ncccc12 (optimized conformer: 29.59356550632156 kcal/mol)

>  <smiles>  (39) 
CCNc1cccc2ncccc12

>  <score_type>  (39) 
oracle

>  <origin>  (39) 
adg

>  <m_score__min__energy>  (39) 
-5.5199999999999996

>  <m_primary>  (39) 
energy

$$$$
39:0
     RDKit          3D

 43 45  0  0  0  0  0  0  0  0999 V2000
   54.1162   29.9699   44.3828 H   0  0  0  0  0  0  0  0  0  0  0  0
   55.1970   29.7880   44.4770 C   0  0  0  0  0  0  0  0  0  0  0  0
   55.6410   28.6000   44.9550 N   0  0  0  0  0  0  0  0  0  0  0  0
   56.9660   28.3320   45.0840 C   0  0  0  0  0  0  0  0  0  0  0  0
   57.3740   27.0870   45.5810 C   0  0  0  0  0  0  0  0  0  0  0  0
   56.6218   26.3353   45.8624 H   0  0  0  0  0  0  0  0  0  0  0  0
   58.7340   26.7980   45.7200 C   0  0  0  0  0  0  0  0  0  0  0  0
   59.2400   25.2380   46.3420 Cl  0  0  0  0  0  0  0  0  0  0  0  0
   59.6920   27.7520   45.3640 C   0  0  0  0  0  0  0  0  0  0  0  0
   60.7618   27.5211   45.4747 H   0  0  0  0  0  0  0  0  0  0  0  0
   59.2970   28.9980   44.8680 C   0  0  0  0  0  0  0  0  0  0  0  0
   60.0579   29.7424   44.5908 H   0  0  0  0  0  0  0  0  0  0  0  0
   57.9290   29.3060   44.7210 C   0  0  0  0  0  0  0  0  0  0  0  0
   57.4880   30.5570   44.2270 C   0  0  0  0  0  0  0  0  0  0  0  0
   58.3700   31.4610   43.8900 N   0  0  0  0  0  0  0  0  0  0  0  0
   58.1440   32.8260   43.4100 C   0  0  0  0  0  0  0  0  0  0  0  0
   57.1246   32.9007   43.0036 H   0  0  0  0  0  0  0  0  0  0  0  0
   58.8862   33.0516   42.6301 H   0  0  0  0  0  0  0  0  0  0  0  0
   58.3060   33.8400   44.5480 C   0  0  0  0  0  0  0  0  0  0  0  0
   57.7106   34.7362   44.3192 H   0  0  0  0  0  0  0  0  0  0  0  0
   59.3712   34.0991   44.6387 H   0  0  0  0  0  0  0  0  0  0  0  0
   57.8490   33.2710   45.8290 N   0  0  0  0  0  0  0  0  0  0  0  0
   58.0400   32.2420   45.8130 H   0  0  0  0  0  0  0  0  0  0  0  0
   58.5580   33.8330   46.9910 C   0  0  0  0  0  0  0  0  0  0  0  0
   57.9899   33.6060   47.9052 H   0  0  0  0  0  0  0  0  0  0  0  0
   58.6480   34.9212   46.8582 H   0  0  0  0  0  0  0  0  0  0  0  0
   59.9420   33.2420   47.1080 C   0  0  0  0  0  0  0  0  0  0  0  0
   61.0550   34.1000   47.0570 C   0  0  0  0  0  0  0  0  0  0  0  0
   60.9032   35.1860   46.9699 H   0  0  0  0  0  0  0  0  0  0  0  0
   62.3500   33.5850   47.1160 C   0  0  0  0  0  0  0  0  0  0  0  0
   63.2141   34.2644   47.0741 H   0  0  0  0  0  0  0  0  0  0  0  0
   62.5500   32.2100   47.2280 C   0  0  0  0  0  0  0  0  0  0  0  0
   63.5723   31.8064   47.2724 H   0  0  0  0  0  0  0  0  0  0  0  0
   61.4570   31.3440   47.2840 C   0  0  0  0  0  0  0  0  0  0  0  0
   61.6225   30.2604   47.3755 H   0  0  0  0  0  0  0  0  0  0  0  0
   60.1420   31.8490   47.2240 C   0  0  0  0  0  0  0  0  0  0  0  0
   59.0250   30.9990   47.2800 O   0  0  0  0  0  0  0  0  0  0  0  0
   58.9060   29.8730   48.1430 C   0  0  0  0  0  0  0  0  0  0  0  0
   58.9414   30.2082   49.1901 H   0  0  0  0  0  0  0  0  0  0  0  0
   57.9491   29.3648   47.9529 H   0  0  0  0  0  0  0  0  0  0  0  0
   59.7355   29.1760   47.9529 H   0  0  0  0  0  0  0  0  0  0  0  0
   56.1020   30.7810   44.1040 C   0  0  0  0  0  0  0  0  0  0  0  0
   55.7335   31.7409   43.7131 H   0  0  0  0  0  0  0  0  0  0  0  0
  1  2  1  0
  2  3  1  0
  3  4  1  0
  4  5  2  0
  5  6  1  0
  5  7  1  0
  7  8  1  0
  7  9  2  0
  9 10  1  0
  9 11  1  0
 11 12  1  0
 11 13  2  0
 13 14  1  0
 14 15  2  0
 15 16  1  0
 16 17  1  0
 16 18  1  0
 16 19  1  0
 19 20  1  0
 19 21  1  0
 19 22  1  0
 22 23  1  0
 22 24  1  0
 24 25  1  0
 24 26  1  0
 24 27  1  0
 27 28  2  0
 28 29  1  0
 28 30  1  0
 30 31  1  0
 30 32  2  0
 32 33  1  0
 32 34  1  0
 34 35  1  0
 34 36  2  0
 36 37  1  0
 37 38  1  0
 38 39  1  0
 38 40  1  0
 38 41  1  0
 14 42  1  0
 42 43  1  0
 42  2  2  0
 13  4  1  0
 36 27  1  0
M  CHG  1   3  -1
M  END
>  <UniqueID>  (40) 
39

>  <SMILES>  (40) 
COc1ccccc1CNCC/N=c1\cc[n-]c2cc(Cl)ccc12

>  <Energy>  (40) 
51.558671286497585

>  <Genealogy>  (40) 
COc1ccccc1CNCCN=c1cc[n-]c2cc(Cl)ccc12 (protonated)
COc1ccccc1CNCC/N=c1\cc[n-]c2cc(Cl)ccc12 (cis-trans isomerization)
COc1ccccc1CNCC/N=c1\cc[n-]c2cc(Cl)ccc12 (3D coordinates assigned)
COc1ccccc1CNCC/N=c1\cc[n-]c2cc(Cl)ccc12 (optimized conformer: 51.558671286497585 kcal/mol)

>  <smiles>  (40) 
COc1ccccc1CNCCN=c1cc[nH]c2cc(Cl)ccc12

>  <score_type>  (40) 
oracle

>  <origin>  (40) 
adg

>  <m_score__min__energy>  (40) 
-9.0299999999999994

>  <m_primary>  (40) 
energy

$$$$
40:0
     RDKit          3D

 34 35  0  0  0  0  0  0  0  0999 V2000
   55.9190   25.3942   46.1260 H   0  0  0  0  0  0  0  0  0  0  0  0
   56.6520   26.2030   46.2620 C   0  0  0  0  0  0  0  0  0  0  0  0
   57.4550   27.0890   46.4110 C   0  0  0  0  0  0  0  0  0  0  0  0
   58.4370   28.1730   46.5940 C   0  0  0  0  0  0  0  0  0  0  0  0
   57.9768   28.9761   47.1883 H   0  0  0  0  0  0  0  0  0  0  0  0
   59.3162   27.7599   47.1101 H   0  0  0  0  0  0  0  0  0  0  0  0
   58.8790   28.7290   45.2920 N   0  0  1  0  0  0  0  0  0  0  0  0
   58.6390   29.7510   45.2780 H   0  0  0  0  0  0  0  0  0  0  0  0
   60.3440   28.6320   45.1300 C   0  0  0  0  0  0  0  0  0  0  0  0
   60.8211   28.6004   46.1206 H   0  0  0  0  0  0  0  0  0  0  0  0
   60.5916   27.7155   44.5744 H   0  0  0  0  0  0  0  0  0  0  0  0
   60.7103   29.5079   44.5744 H   0  0  0  0  0  0  0  0  0  0  0  0
   58.1450   28.1310   44.1470 C   0  0  0  0  0  0  0  0  0  0  0  0
   58.8651   27.9606   43.3331 H   0  0  0  0  0  0  0  0  0  0  0  0
   57.6855   27.2073   44.5286 H   0  0  0  0  0  0  0  0  0  0  0  0
   56.9880   28.9850   43.5890 C   0  0  0  0  0  0  0  0  0  0  0  0
   57.3130   29.4677   42.6555 H   0  0  0  0  0  0  0  0  0  0  0  0
   56.1246   28.3303   43.3994 H   0  0  0  0  0  0  0  0  0  0  0  0
   56.5960   30.0130   44.5490 N   0  0  0  0  0  0  0  0  0  0  0  0
   57.2310   31.1340   44.7190 C   0  0  0  0  0  0  0  0  0  0  0  0
   57.6180   31.5350   45.9640 N   0  0  0  0  0  0  0  0  0  0  0  0
   58.2820   32.7050   46.1660 C   0  0  0  0  0  0  0  0  0  0  0  0
   58.6680   33.0920   47.4520 C   0  0  0  0  0  0  0  0  0  0  0  0
   58.4365   32.4481   48.3133 H   0  0  0  0  0  0  0  0  0  0  0  0
   59.3300   34.2650   47.6380 N   0  0  0  0  0  0  0  0  0  0  0  0
   59.6370   35.0900   46.5990 C   0  0  0  0  0  0  0  0  0  0  0  0
   60.1746   36.0313   46.7862 H   0  0  0  0  0  0  0  0  0  0  0  0
   59.2710   34.7440   45.2960 C   0  0  0  0  0  0  0  0  0  0  0  0
   59.5166   35.4084   44.4544 H   0  0  0  0  0  0  0  0  0  0  0  0
   58.5880   33.5420   45.0730 C   0  0  0  0  0  0  0  0  0  0  0  0
   58.1980   33.1470   43.7880 C   0  0  0  0  0  0  0  0  0  0  0  0
   58.4269   33.7846   42.9213 H   0  0  0  0  0  0  0  0  0  0  0  0
   57.5170   31.9400   43.6100 C   0  0  0  0  0  0  0  0  0  0  0  0
   57.2068   31.6242   42.6030 H   0  0  0  0  0  0  0  0  0  0  0  0
  1  2  1  0
  2  3  3  0
  3  4  1  0
  4  5  1  0
  4  6  1  0
  4  7  1  0
  7  8  1  1
  7  9  1  0
  9 10  1  0
  9 11  1  0
  9 12  1  0
  7 13  1  0
 13 14  1  0
 13 15  1  0
 13 16  1  0
 16 17  1  0
 16 18  1  0
 16 19  1  0
 19 20  2  0
 20 21  1  0
 21 22  1  0
 22 23  2  0
 23 24  1  0
 23 25  1  0
 25 26  2  0
 26 27  1  0
 26 28  1  0
 28 29  1  0
 28 30  2  0
 30 31  1  0
 31 32  1  0
 31 33  2  0
 33 34  1  0
 33 20  1  0
 30 22  1  0
M  CHG  2   7   1  21  -1
M  END
>  <UniqueID>  (41) 
40

>  <SMILES>  (41) 
C#CC[N@@H+](C)CC/N=c1/ccc2ccncc2[n-]1

>  <Energy>  (41) 
39.266986523831974

>  <Genealogy>  (41) 
C#CC[NH+](C)CCN=c1ccc2ccncc2[n-]1 (protonated)
C#CC[N@@H+](C)CCN=c1ccc2ccncc2[n-]1 (chirality)
C#CC[N@@H+](C)CC/N=c1/ccc2ccncc2[n-]1 (cis-trans isomerization)
C#CC[N@@H+](C)CC/N=c1/ccc2ccncc2[n-]1 (3D coordinates assigned)
C#CC[N@@H+](C)CC/N=c1/ccc2ccncc2[n-]1 (optimized conformer: 39.266986523831974 kcal/mol)

>  <smiles>  (41) 
C#CCN(C)CCN=c1ccc2ccncc2[nH]1

>  <score_type>  (41) 
oracle

>  <origin>  (41) 
adg

>  <m_score__min__energy>  (41) 
-5.5700000000000003

>  <m_primary>  (41) 
energy

$$$$
41:0
     RDKit          3D

 54 56  0  0  0  0  0  0  0  0999 V2000
   55.5390   24.0170   44.5830 C   0  0  0  0  0  0  0  0  0  0  0  0
   54.7530   24.8790   45.5570 C   0  0  0  0  0  0  0  0  0  0  0  0
   55.5730   25.9350   46.0080 O   0  0  0  0  0  0  0  0  0  0  0  0
   56.9330   25.5430   46.0080 C   0  0  0  0  0  0  0  0  0  0  0  0
   57.8130   26.5020   45.1700 C   0  0  0  0  0  0  0  0  0  0  0  0
   57.2220   27.8400   44.8860 N   0  0  0  0  0  0  0  0  0  0  0  0
   57.4100   28.8100   46.0060 C   0  0  0  0  0  0  0  0  0  0  0  0
   57.9820   30.1590   45.5480 C   0  0  0  0  0  0  0  0  0  0  0  0
   57.1840   30.6930   44.4260 N   0  0  0  0  0  0  0  0  0  0  0  0
   57.6210   32.0340   43.9850 C   0  0  0  0  0  0  0  0  0  0  0  0
   57.3720   33.1440   45.0340 C   0  0  0  0  0  0  0  0  0  0  0  0
   58.4380   34.2470   44.9760 C   0  0  0  0  0  0  0  0  0  0  0  0
   59.3740   34.1810   46.1500 C   0  0  0  0  0  0  0  0  0  0  0  0
   58.9010   34.3740   47.4570 C   0  0  0  0  0  0  0  0  0  0  0  0
   59.7880   34.2870   48.5320 C   0  0  0  0  0  0  0  0  0  0  0  0
   61.1400   34.0010   48.2990 C   0  0  0  0  0  0  0  0  0  0  0  0
   62.0580   33.9060   49.3550 C   0  0  0  0  0  0  0  0  0  0  0  0
   63.4010   33.6170   49.0870 C   0  0  0  0  0  0  0  0  0  0  0  0
   63.8310   33.4190   47.7710 C   0  0  0  0  0  0  0  0  0  0  0  0
   62.9210   33.5110   46.7120 C   0  0  0  0  0  0  0  0  0  0  0  0
   61.5760   33.8030   46.9690 C   0  0  0  0  0  0  0  0  0  0  0  0
   60.6900   33.8950   45.9420 N   0  0  0  0  0  0  0  0  0  0  0  0
   56.9670   29.7410   43.3080 C   0  0  0  0  0  0  0  0  0  0  0  0
   57.6140   28.3700   43.5590 C   0  0  0  0  0  0  0  0  0  0  0  0
   56.1765   23.3179   45.1441 H   0  0  0  0  0  0  0  0  0  0  0  0
   54.8411   23.4494   43.9500 H   0  0  0  0  0  0  0  0  0  0  0  0
   56.1684   24.6598   43.9500 H   0  0  0  0  0  0  0  0  0  0  0  0
   53.8672   25.2911   45.0515 H   0  0  0  0  0  0  0  0  0  0  0  0
   54.4313   24.2690   46.4140 H   0  0  0  0  0  0  0  0  0  0  0  0
   57.3011   25.5378   47.0446 H   0  0  0  0  0  0  0  0  0  0  0  0
   56.9979   24.5415   45.5576 H   0  0  0  0  0  0  0  0  0  0  0  0
   58.7560   26.6579   45.7145 H   0  0  0  0  0  0  0  0  0  0  0  0
   57.9378   26.0158   44.1912 H   0  0  0  0  0  0  0  0  0  0  0  0
   56.1880   27.6670   44.8210 H   0  0  0  0  0  0  0  0  0  0  0  0
   56.4345   28.9875   46.4823 H   0  0  0  0  0  0  0  0  0  0  0  0
   58.1359   28.3670   46.7037 H   0  0  0  0  0  0  0  0  0  0  0  0
   57.9526   30.8704   46.3865 H   0  0  0  0  0  0  0  0  0  0  0  0
   59.0207   30.0158   45.2154 H   0  0  0  0  0  0  0  0  0  0  0  0
   58.6990   31.9949   43.7696 H   0  0  0  0  0  0  0  0  0  0  0  0
   57.0253   32.2909   43.0966 H   0  0  0  0  0  0  0  0  0  0  0  0
   56.3861   33.5941   44.8461 H   0  0  0  0  0  0  0  0  0  0  0  0
   57.4181   32.6823   46.0313 H   0  0  0  0  0  0  0  0  0  0  0  0
   59.0200   34.1314   44.0497 H   0  0  0  0  0  0  0  0  0  0  0  0
   57.9251   35.2198   45.0019 H   0  0  0  0  0  0  0  0  0  0  0  0
   57.8375   34.5926   47.6337 H   0  0  0  0  0  0  0  0  0  0  0  0
   59.4264   34.4426   49.5592 H   0  0  0  0  0  0  0  0  0  0  0  0
   61.7232   34.0583   50.3917 H   0  0  0  0  0  0  0  0  0  0  0  0
   64.1215   33.5453   49.9151 H   0  0  0  0  0  0  0  0  0  0  0  0
   64.8876   33.1903   47.5678 H   0  0  0  0  0  0  0  0  0  0  0  0
   63.2622   33.3540   45.6781 H   0  0  0  0  0  0  0  0  0  0  0  0
   55.8847   29.5992   43.1722 H   0  0  0  0  0  0  0  0  0  0  0  0
   57.4381   30.1703   42.4114 H   0  0  0  0  0  0  0  0  0  0  0  0
   57.2858   27.6677   42.7786 H   0  0  0  0  0  0  0  0  0  0  0  0
   58.7076   28.4855   43.5337 H   0  0  0  0  0  0  0  0  0  0  0  0
  1  2  1  0
  2  3  1  0
  3  4  1  0
  4  5  1  0
  5  6  1  0
  6  7  1  0
  7  8  1  0
  8  9  1  0
  9 10  1  0
 10 11  1  0
 11 12  1  0
 12 13  1  0
 13 14  2  0
 14 15  1  0
 15 16  2  0
 16 17  1  0
 17 18  2  0
 18 19  1  0
 19 20  2  0
 20 21  1  0
 21 22  2  0
  9 23  1  0
 23 24  1  0
 24  6  1  0
 22 13  1  0
 21 16  1  0
  1 25  1  0
  1 26  1  0
  1 27  1  0
  2 28  1  0
  2 29  1  0
  4 30  1  0
  4 31  1  0
  5 32  1  0
  5 33  1  0
  6 34  1  0
  7 35  1  0
  7 36  1  0
  8 37  1  0
  8 38  1  0
 10 39  1  0
 10 40  1  0
 11 41  1  0
 11 42  1  0
 12 43  1  0
 12 44  1  0
 14 45  1  0
 15 46  1  0
 17 47  1  0
 18 48  1  0
 19 49  1  0
 20 50  1  0
 23 51  1  0
 23 52  1  0
 24 53  1  0
 24 54  1  0
M  CHG  1   6   1
M  END
>  <UniqueID>  (42) 
41

>  <SMILES>  (42) 
CCOCC[NH+]1CCN(CCCc2ccc3ccccc3n2)CC1

>  <Energy>  (42) 
71.03417138840017

>  <Genealogy>  (42) 
CCOCC[NH+]1CCN(CCCc2ccc3ccccc3n2)CC1 (protonated)
CCOCC[NH+]1CCN(CCCc2ccc3ccccc3n2)CC1 (3D coordinates assigned)
CCOCC[NH+]1CCN(CCCc2ccc3ccccc3n2)CC1 (nonaromatic ring conformer: 71.03417138840017 kcal/mol)

>  <smiles>  (42) 
CCOCCN1CCN(CCCc2ccc3ccccc3n2)CC1

>  <score_type>  (42) 
oracle

>  <origin>  (42) 
adg

>  <m_score__min__energy>  (42) 
-6.5999999999999996

>  <m_primary>  (42) 
energy

$$$$
42:0
     RDKit          3D

 53 55  0  0  0  0  0  0  0  0999 V2000
   60.3310   28.5480   44.8520 C   0  0  0  0  0  0  0  0  0  0  0  0
   59.3740   27.3750   45.0490 C   0  0  0  0  0  0  0  0  0  0  0  0
   57.9840   27.8660   45.2170 N   0  0  0  0  0  0  0  0  0  0  0  0
   57.0710   26.7270   45.4920 C   0  0  0  0  0  0  0  0  0  0  0  0
   57.4710   26.0050   46.7750 C   0  0  0  0  0  0  0  0  0  0  0  0
   57.5260   28.6050   44.0150 C   0  0  0  0  0  0  0  0  0  0  0  0
   57.4910   30.1250   44.2350 C   0  0  0  0  0  0  0  0  0  0  0  0
   57.4320   30.4620   45.6570 N   0  0  0  0  0  0  0  0  0  0  0  0
   58.5030   31.1680   46.3140 C   0  0  0  0  0  0  0  0  0  0  0  0
   58.7850   32.5080   45.9840 C   0  0  0  0  0  0  0  0  0  0  0  0
   57.9090   33.2560   45.1660 C   0  0  0  0  0  0  0  0  0  0  0  0
   58.1780   34.5880   44.8650 C   0  0  0  0  0  0  0  0  0  0  0  0
   59.3050   35.2060   45.3900 C   0  0  0  0  0  0  0  0  0  0  0  0
   60.1760   34.4960   46.2150 C   0  0  0  0  0  0  0  0  0  0  0  0
   59.9480   33.1290   46.5170 C   0  0  0  0  0  0  0  0  0  0  0  0
   60.8080   32.4110   47.3240 N   0  0  0  0  0  0  0  0  0  0  0  0
   62.1570   32.9370   47.6200 C   0  0  0  0  0  0  0  0  0  0  0  0
   60.4100   31.1910   47.8410 C   0  0  0  0  0  0  0  0  0  0  0  0
   61.1210   30.5640   48.8960 C   0  0  0  0  0  0  0  0  0  0  0  0
   60.7480   29.2950   49.3720 C   0  0  0  0  0  0  0  0  0  0  0  0
   61.4410   28.6430   50.4050 O   0  0  0  0  0  0  0  0  0  0  0  0
   61.1300   27.3420   50.8900 C   0  0  0  0  0  0  0  0  0  0  0  0
   59.6510   28.6520   48.8100 C   0  0  0  0  0  0  0  0  0  0  0  0
   58.9100   29.2630   47.8030 C   0  0  0  0  0  0  0  0  0  0  0  0
   59.2620   30.5390   47.3190 C   0  0  0  0  0  0  0  0  0  0  0  0
   60.6455   28.9334   45.8331 H   0  0  0  0  0  0  0  0  0  0  0  0
   61.2145   28.2101   44.2905 H   0  0  0  0  0  0  0  0  0  0  0  0
   59.8226   29.3457   44.2905 H   0  0  0  0  0  0  0  0  0  0  0  0
   59.4221   26.7160   44.1696 H   0  0  0  0  0  0  0  0  0  0  0  0
   59.6690   26.8208   45.9523 H   0  0  0  0  0  0  0  0  0  0  0  0
   56.0439   27.1063   45.5977 H   0  0  0  0  0  0  0  0  0  0  0  0
   57.1343   26.0163   44.6548 H   0  0  0  0  0  0  0  0  0  0  0  0
   57.1445   26.5944   47.6445 H   0  0  0  0  0  0  0  0  0  0  0  0
   56.9928   25.0147   46.8028 H   0  0  0  0  0  0  0  0  0  0  0  0
   58.5641   25.8853   46.8028 H   0  0  0  0  0  0  0  0  0  0  0  0
   58.2116   28.3849   43.1834 H   0  0  0  0  0  0  0  0  0  0  0  0
   56.5001   28.2765   43.7922 H   0  0  0  0  0  0  0  0  0  0  0  0
   58.3983   30.5696   43.8001 H   0  0  0  0  0  0  0  0  0  0  0  0
   56.5874   30.5222   43.7495 H   0  0  0  0  0  0  0  0  0  0  0  0
   56.6410   30.0800   46.2230 H   0  0  0  0  0  0  0  0  0  0  0  0
   57.0034   32.7799   44.7621 H   0  0  0  0  0  0  0  0  0  0  0  0
   57.4970   35.1517   44.2105 H   0  0  0  0  0  0  0  0  0  0  0  0
   59.5115   36.2603   45.1540 H   0  0  0  0  0  0  0  0  0  0  0  0
   61.0546   35.0043   46.6388 H   0  0  0  0  0  0  0  0  0  0  0  0
   62.2982   32.9920   48.7095 H   0  0  0  0  0  0  0  0  0  0  0  0
   62.9147   32.2684   47.1854 H   0  0  0  0  0  0  0  0  0  0  0  0
   62.2622   33.9420   47.1854 H   0  0  0  0  0  0  0  0  0  0  0  0
   61.9798   31.0801   49.3499 H   0  0  0  0  0  0  0  0  0  0  0  0
   61.1320   27.3506   51.9900 H   0  0  0  0  0  0  0  0  0  0  0  0
   60.1352   27.0436   50.5275 H   0  0  0  0  0  0  0  0  0  0  0  0
   61.8823   26.6260   50.5275 H   0  0  0  0  0  0  0  0  0  0  0  0
   59.3660   27.6505   49.1648 H   0  0  0  0  0  0  0  0  0  0  0  0
   58.0381   28.7433   47.3792 H   0  0  0  0  0  0  0  0  0  0  0  0
  1  2  1  0
  2  3  1  0
  3  4  1  0
  4  5  1  0
  3  6  1  0
  6  7  1  0
  7  8  1  0
  8  9  1  0
  9 10  2  0
 10 11  1  0
 11 12  2  0
 12 13  1  0
 13 14  2  0
 14 15  1  0
 15 16  2  0
 16 17  1  0
 16 18  1  0
 18 19  2  0
 19 20  1  0
 20 21  1  0
 21 22  1  0
 20 23  2  0
 23 24  1  0
 24 25  2  0
 25  9  1  0
 15 10  1  0
 25 18  1  0
  1 26  1  0
  1 27  1  0
  1 28  1  0
  2 29  1  0
  2 30  1  0
  4 31  1  0
  4 32  1  0
  5 33  1  0
  5 34  1  0
  5 35  1  0
  6 36  1  0
  6 37  1  0
  7 38  1  0
  7 39  1  0
  8 40  1  0
 11 41  1  0
 12 42  1  0
 13 43  1  0
 14 44  1  0
 17 45  1  0
 17 46  1  0
 17 47  1  0
 19 48  1  0
 22 49  1  0
 22 50  1  0
 22 51  1  0
 23 52  1  0
 24 53  1  0
M  CHG  1  16   1
M  END
>  <UniqueID>  (43) 
42

>  <SMILES>  (43) 
CCN(CC)CCNc1c2ccccc2[n+](C)c2cc(OC)ccc12

>  <Energy>  (43) 
75.13451018980554

>  <Genealogy>  (43) 
CCN(CC)CCNc1c2ccccc2[n+](C)c2cc(OC)ccc12 (3D coordinates assigned)
CCN(CC)CCNc1c2ccccc2[n+](C)c2cc(OC)ccc12 (optimized conformer: 75.13451018980554 kcal/mol)

>  <smiles>  (43) 
CCN(CC)CCNc1c2ccccc2[n+](C)c2cc(OC)ccc12

>  <score_type>  (43) 
oracle

>  <origin>  (43) 
adg

>  <m_score__min__energy>  (43) 
-5.1799999999999997

>  <m_primary>  (43) 
energy

$$$$
43:0
     RDKit          3D

 44 45  0  0  0  0  0  0  0  0999 V2000
   60.3550   29.5600   45.3130 C   0  0  0  0  0  0  0  0  0  0  0  0
   59.3030   30.3980   44.8460 O   0  0  0  0  0  0  0  0  0  0  0  0
   58.8250   31.5350   45.5180 C   0  0  0  0  0  0  0  0  0  0  0  0
   58.9460   31.6700   46.9160 C   0  0  0  0  0  0  0  0  0  0  0  0
   58.4630   32.8090   47.5610 C   0  0  0  0  0  0  0  0  0  0  0  0
   57.8570   33.8270   46.8260 C   0  0  0  0  0  0  0  0  0  0  0  0
   57.7310   33.7090   45.4400 C   0  0  0  0  0  0  0  0  0  0  0  0
   58.2120   32.5690   44.7740 C   0  0  0  0  0  0  0  0  0  0  0  0
   58.0760   32.4860   43.2660 C   0  0  0  0  0  0  0  0  0  0  0  0
   57.5410   31.1860   42.8250 N   0  0  0  0  0  0  0  0  0  0  0  0
   56.3450   30.7740   43.5740 C   0  0  0  0  0  0  0  0  0  0  0  0
   56.5220   29.3900   44.1220 C   0  0  0  0  0  0  0  0  0  0  0  0
   55.6330   28.9030   44.8720 O   0  0  0  0  0  0  0  0  0  0  0  0
   57.6970   28.6310   43.8070 N   0  0  0  0  0  0  0  0  0  0  0  0
   57.7760   27.1870   44.0150 C   0  0  0  0  0  0  0  0  0  0  0  0
   57.3380   26.8190   45.4370 C   0  0  0  0  0  0  0  0  0  0  0  0
   58.3950   27.1870   46.4470 C   0  0  0  0  0  0  0  0  0  0  0  0
   59.5830   26.4430   46.5330 C   0  0  0  0  0  0  0  0  0  0  0  0
   60.5380   26.7510   47.5070 C   0  0  0  0  0  0  0  0  0  0  0  0
   60.3100   27.7960   48.4060 C   0  0  0  0  0  0  0  0  0  0  0  0
   59.1260   28.5340   48.3350 C   0  0  0  0  0  0  0  0  0  0  0  0
   58.1690   28.2300   47.3630 C   0  0  0  0  0  0  0  0  0  0  0  0
   60.3599   29.5561   46.4130 H   0  0  0  0  0  0  0  0  0  0  0  0
   60.1994   28.5357   44.9434 H   0  0  0  0  0  0  0  0  0  0  0  0
   61.3186   29.9407   44.9434 H   0  0  0  0  0  0  0  0  0  0  0  0
   59.4245   30.8718   47.5024 H   0  0  0  0  0  0  0  0  0  0  0  0
   58.5606   32.9041   48.6525 H   0  0  0  0  0  0  0  0  0  0  0  0
   57.4779   34.7237   47.3380 H   0  0  0  0  0  0  0  0  0  0  0  0
   57.2514   34.5149   44.8652 H   0  0  0  0  0  0  0  0  0  0  0  0
   57.3962   33.2818   42.9275 H   0  0  0  0  0  0  0  0  0  0  0  0
   59.0791   32.6032   42.8300 H   0  0  0  0  0  0  0  0  0  0  0  0
   58.2800   30.4520   42.9370 H   0  0  0  0  0  0  0  0  0  0  0  0
   56.1791   31.4746   44.4057 H   0  0  0  0  0  0  0  0  0  0  0  0
   55.4793   30.7808   42.8953 H   0  0  0  0  0  0  0  0  0  0  0  0
   58.4930   29.0970   43.3220 H   0  0  0  0  0  0  0  0  0  0  0  0
   57.1182   26.6817   43.2925 H   0  0  0  0  0  0  0  0  0  0  0  0
   58.8183   26.8659   43.8721 H   0  0  0  0  0  0  0  0  0  0  0  0
   56.4096   27.3580   45.6770 H   0  0  0  0  0  0  0  0  0  0  0  0
   57.1785   25.7315   45.4812 H   0  0  0  0  0  0  0  0  0  0  0  0
   59.7630   25.6149   45.8316 H   0  0  0  0  0  0  0  0  0  0  0  0
   61.4700   26.1697   47.5655 H   0  0  0  0  0  0  0  0  0  0  0  0
   61.0633   28.0378   49.1702 H   0  0  0  0  0  0  0  0  0  0  0  0
   58.9468   29.3551   49.0447 H   0  0  0  0  0  0  0  0  0  0  0  0
   57.2350   28.8090   47.3142 H   0  0  0  0  0  0  0  0  0  0  0  0
  1  2  1  0
  2  3  1  0
  3  4  2  0
  4  5  1  0
  5  6  2  0
  6  7  1  0
  7  8  2  0
  8  9  1  0
  9 10  1  0
 10 11  1  0
 11 12  1  0
 12 13  2  0
 12 14  1  0
 14 15  1  0
 15 16  1  0
 16 17  1  0
 17 18  2  0
 18 19  1  0
 19 20  2  0
 20 21  1  0
 21 22  2  0
  8  3  1  0
 22 17  1  0
  1 23  1  0
  1 24  1  0
  1 25  1  0
  4 26  1  0
  5 27  1  0
  6 28  1  0
  7 29  1  0
  9 30  1  0
  9 31  1  0
 10 32  1  0
 11 33  1  0
 11 34  1  0
 14 35  1  0
 15 36  1  0
 15 37  1  0
 16 38  1  0
 16 39  1  0
 18 40  1  0
 19 41  1  0
 20 42  1  0
 21 43  1  0
 22 44  1  0
M  END
>  <UniqueID>  (44) 
43

>  <SMILES>  (44) 
COc1ccccc1CNCC(=O)NCCc1ccccc1

>  <Energy>  (44) 
36.52023750133597

>  <Genealogy>  (44) 
COc1ccccc1CNCC(=O)NCCc1ccccc1 (3D coordinates assigned)
COc1ccccc1CNCC(=O)NCCc1ccccc1 (optimized conformer: 36.52023750133597 kcal/mol)

>  <smiles>  (44) 
COc1ccccc1CNCC(=O)NCCc1ccccc1

>  <score_type>  (44) 
oracle

>  <origin>  (44) 
adg

>  <m_score__min__energy>  (44) 
-7.4100000000000001

>  <m_primary>  (44) 
energy

$$$$
44:0
     RDKit          3D

 61 64  0  0  0  0  0  0  0  0999 V2000
   63.0630   33.8390   46.4110 C   0  0  0  0  0  0  0  0  0  0  0  0
   62.6770   32.8000   47.2980 O   0  0  0  0  0  0  0  0  0  0  0  0
   63.2100   32.6110   48.5830 C   0  0  0  0  0  0  0  0  0  0  0  0
   64.3110   33.3620   49.0440 C   0  0  0  0  0  0  0  0  0  0  0  0
   64.8530   33.1210   50.3090 C   0  0  0  0  0  0  0  0  0  0  0  0
   64.3030   32.1360   51.1290 C   0  0  0  0  0  0  0  0  0  0  0  0
   63.2040   31.3920   50.6930 C   0  0  0  0  0  0  0  0  0  0  0  0
   62.6410   31.6260   49.4240 C   0  0  0  0  0  0  0  0  0  0  0  0
   61.4820   30.8730   49.0050 N   0  0  0  0  0  0  0  0  0  0  0  0
   61.5120   30.0770   47.7750 C   0  0  0  0  0  0  0  0  0  0  0  0
   60.1760   30.2190   47.0400 C   0  0  0  0  0  0  0  0  0  0  0  0
   58.9900   29.9010   47.8840 N   0  0  0  0  0  0  0  0  0  0  0  0
   58.3020   28.6720   47.4300 C   0  0  0  0  0  0  0  0  0  0  0  0
   58.9490   28.1100   46.1430 C   0  0  0  0  0  0  0  0  0  0  0  0
   58.0060   28.1710   44.9330 C   0  0  0  0  0  0  0  0  0  0  0  0
   56.5290   28.0960   45.3340 C   0  0  0  0  0  0  0  0  0  0  0  0
   55.8100   29.2500   44.8050 N   0  0  0  0  0  0  0  0  0  0  0  0
   56.3700   30.1420   43.8360 C   0  0  0  0  0  0  0  0  0  0  0  0
   56.1550   29.9480   42.6070 O   0  0  0  0  0  0  0  0  0  0  0  0
   57.2000   31.2880   44.2710 C   0  0  0  0  0  0  0  0  0  0  0  0
   57.7620   32.1540   43.3190 C   0  0  0  0  0  0  0  0  0  0  0  0
   58.5450   33.2280   43.7340 C   0  0  0  0  0  0  0  0  0  0  0  0
   58.7670   33.4430   45.0970 C   0  0  0  0  0  0  0  0  0  0  0  0
   59.5370   34.5270   45.5450 C   0  0  0  0  0  0  0  0  0  0  0  0
   59.7480   34.7170   46.9150 C   0  0  0  0  0  0  0  0  0  0  0  0
   59.2000   33.8260   47.8410 C   0  0  0  0  0  0  0  0  0  0  0  0
   58.4220   32.7500   47.4060 C   0  0  0  0  0  0  0  0  0  0  0  0
   58.1930   32.5510   46.0330 C   0  0  0  0  0  0  0  0  0  0  0  0
   57.4260   31.5080   45.6000 N   0  0  0  0  0  0  0  0  0  0  0  0
   59.2760   29.8230   49.3370 C   0  0  0  0  0  0  0  0  0  0  0  0
   60.2410   30.9260   49.7880 C   0  0  0  0  0  0  0  0  0  0  0  0
   63.3884   34.7148   46.9916 H   0  0  0  0  0  0  0  0  0  0  0  0
   63.8918   33.4909   45.7770 H   0  0  0  0  0  0  0  0  0  0  0  0
   62.2079   34.1164   45.7770 H   0  0  0  0  0  0  0  0  0  0  0  0
   64.7461   34.1430   48.4032 H   0  0  0  0  0  0  0  0  0  0  0  0
   65.7145   33.7088   50.6586 H   0  0  0  0  0  0  0  0  0  0  0  0
   64.7359   31.9444   52.1219 H   0  0  0  0  0  0  0  0  0  0  0  0
   62.7753   30.6176   51.3460 H   0  0  0  0  0  0  0  0  0  0  0  0
   62.3262   30.4342   47.1273 H   0  0  0  0  0  0  0  0  0  0  0  0
   61.6801   29.0196   48.0275 H   0  0  0  0  0  0  0  0  0  0  0  0
   60.0826   31.2567   46.6871 H   0  0  0  0  0  0  0  0  0  0  0  0
   60.1857   29.4932   46.2135 H   0  0  0  0  0  0  0  0  0  0  0  0
   58.3638   27.9126   48.2234 H   0  0  0  0  0  0  0  0  0  0  0  0
   57.2531   28.9213   47.2115 H   0  0  0  0  0  0  0  0  0  0  0  0
   59.8510   28.6975   45.9167 H   0  0  0  0  0  0  0  0  0  0  0  0
   59.1890   27.0521   46.3253 H   0  0  0  0  0  0  0  0  0  0  0  0
   58.1787   29.1170   44.3989 H   0  0  0  0  0  0  0  0  0  0  0  0
   58.2235   27.3007   44.2963 H   0  0  0  0  0  0  0  0  0  0  0  0
   56.0875   27.1740   44.9279 H   0  0  0  0  0  0  0  0  0  0  0  0
   56.4520   28.0941   46.4313 H   0  0  0  0  0  0  0  0  0  0  0  0
   57.5839   31.9841   42.2469 H   0  0  0  0  0  0  0  0  0  0  0  0
   58.9882   33.9063   42.9901 H   0  0  0  0  0  0  0  0  0  0  0  0
   59.9749   35.2277   44.8189 H   0  0  0  0  0  0  0  0  0  0  0  0
   60.3474   35.5707   47.2641 H   0  0  0  0  0  0  0  0  0  0  0  0
   59.3816   33.9720   48.9160 H   0  0  0  0  0  0  0  0  0  0  0  0
   57.9871   32.0560   48.1403 H   0  0  0  0  0  0  0  0  0  0  0  0
   57.0170   30.8570   46.3080 H   0  0  0  0  0  0  0  0  0  0  0  0
   58.3319   29.9274   49.8917 H   0  0  0  0  0  0  0  0  0  0  0  0
   59.7490   28.8510   49.5404 H   0  0  0  0  0  0  0  0  0  0  0  0
   59.7634   31.9064   49.6441 H   0  0  0  0  0  0  0  0  0  0  0  0
   60.4831   30.7754   50.8504 H   0  0  0  0  0  0  0  0  0  0  0  0
  1  2  1  0
  2  3  1  0
  3  4  2  0
  4  5  1  0
  5  6  2  0
  6  7  1  0
  7  8  2  0
  8  9  1  0
  9 10  1  0
 10 11  1  0
 11 12  1  0
 12 13  1  0
 13 14  1  0
 14 15  1  0
 15 16  1  0
 16 17  1  0
 17 18  1  0
 18 19  2  0
 18 20  1  0
 20 21  2  0
 21 22  1  0
 22 23  2  0
 23 24  1  0
 24 25  2  0
 25 26  1  0
 26 27  2  0
 27 28  1  0
 28 29  2  0
 12 30  1  0
 30 31  1  0
  8  3  1  0
 31  9  1  0
 29 20  1  0
 28 23  1  0
  1 32  1  0
  1 33  1  0
  1 34  1  0
  4 35  1  0
  5 36  1  0
  6 37  1  0
  7 38  1  0
 10 39  1  0
 10 40  1  0
 11 41  1  0
 11 42  1  0
 13 43  1  0
 13 44  1  0
 14 45  1  0
 14 46  1  0
 15 47  1  0
 15 48  1  0
 16 49  1  0
 16 50  1  0
 21 51  1  0
 22 52  1  0
 24 53  1  0
 25 54  1  0
 26 55  1  0
 27 56  1  0
 29 57  1  0
 30 58  1  0
 30 59  1  0
 31 60  1  0
 31 61  1  0
M  CHG  2  17  -1  29   1
M  END
>  <UniqueID>  (45) 
44

>  <SMILES>  (45) 
COc1ccccc1N1CCN(CCCC[N-]C(=O)c2ccc3ccccc3[nH+]2)CC1

>  <Energy>  (45) 
77.05849704875051

>  <Genealogy>  (45) 
COc1ccccc1N1CCN(CCCC[N-]C(=O)c2ccc3ccccc3[nH+]2)CC1 (protonated)
COc1ccccc1N1CCN(CCCC[N-]C(=O)c2ccc3ccccc3[nH+]2)CC1 (3D coordinates assigned)
COc1ccccc1N1CCN(CCCC[N-]C(=O)c2ccc3ccccc3[nH+]2)CC1 (nonaromatic ring conformer: 77.05849704875051 kcal/mol)

>  <smiles>  (45) 
COc1ccccc1N1CCN(CCCCNC(=O)c2ccc3ccccc3n2)CC1

>  <score_type>  (45) 
oracle

>  <origin>  (45) 
adg

>  <m_score__min__energy>  (45) 
-9.1699999999999999

>  <m_primary>  (45) 
energy

$$$$
45:0
     RDKit          3D

 36 37  0  0  0  0  0  0  0  0999 V2000
   62.3820   31.5490   47.4920 C   0  0  0  0  0  0  0  0  0  0  0  0
   62.1720   32.9660   47.8820 N   0  0  0  0  0  0  0  0  0  0  0  0
   63.2930   33.3640   48.7690 C   0  0  0  0  0  0  0  0  0  0  0  0
   60.8780   33.0730   48.6300 C   0  0  0  0  0  0  0  0  0  0  0  0
   60.2230   34.4570   48.4710 C   0  0  0  0  0  0  0  0  0  0  0  0
   59.9240   34.7810   47.0510 N   0  0  0  0  0  0  0  0  0  0  0  0
   58.4960   34.5920   46.7230 C   0  0  0  0  0  0  0  0  0  0  0  0
   58.3040   33.3340   45.9160 C   0  0  0  0  0  0  0  0  0  0  0  0
   58.2980   32.0850   46.5560 C   0  0  0  0  0  0  0  0  0  0  0  0
   58.1290   30.9130   45.8130 C   0  0  0  0  0  0  0  0  0  0  0  0
   57.9670   30.9790   44.4260 C   0  0  0  0  0  0  0  0  0  0  0  0
   57.8050   29.8350   43.7150 F   0  0  0  0  0  0  0  0  0  0  0  0
   57.9720   32.2210   43.7790 C   0  0  0  0  0  0  0  0  0  0  0  0
   57.7700   32.3140   42.0380 Cl  0  0  0  0  0  0  0  0  0  0  0  0
   58.1390   33.3950   44.5230 C   0  0  0  0  0  0  0  0  0  0  0  0
   60.7800   34.0510   46.0880 C   0  0  0  0  0  0  0  0  0  0  0  0
   62.1890   33.8290   46.6580 C   0  0  0  0  0  0  0  0  0  0  0  0
   62.4738   30.9295   48.3963 H   0  0  0  0  0  0  0  0  0  0  0  0
   61.5255   31.2021   46.8953 H   0  0  0  0  0  0  0  0  0  0  0  0
   63.3023   31.4654   46.8953 H   0  0  0  0  0  0  0  0  0  0  0  0
   62.9858   33.2549   49.8196 H   0  0  0  0  0  0  0  0  0  0  0  0
   64.1626   32.7197   48.5725 H   0  0  0  0  0  0  0  0  0  0  0  0
   63.5616   34.4124   48.5725 H   0  0  0  0  0  0  0  0  0  0  0  0
   60.1852   32.3081   48.2493 H   0  0  0  0  0  0  0  0  0  0  0  0
   61.0939   32.9240   49.6983 H   0  0  0  0  0  0  0  0  0  0  0  0
   59.2831   34.4711   49.0423 H   0  0  0  0  0  0  0  0  0  0  0  0
   60.9325   35.2097   48.8453 H   0  0  0  0  0  0  0  0  0  0  0  0
   57.9170   34.5164   47.6552 H   0  0  0  0  0  0  0  0  0  0  0  0
   58.1492   35.4518   46.1311 H   0  0  0  0  0  0  0  0  0  0  0  0
   58.4268   32.0280   47.6469 H   0  0  0  0  0  0  0  0  0  0  0  0
   58.1235   29.9371   46.3206 H   0  0  0  0  0  0  0  0  0  0  0  0
   58.1410   34.3700   44.0138 H   0  0  0  0  0  0  0  0  0  0  0  0
   60.3229   33.0746   45.8695 H   0  0  0  0  0  0  0  0  0  0  0  0
   60.8650   34.6522   45.1707 H   0  0  0  0  0  0  0  0  0  0  0  0
   62.8097   33.3437   45.8904 H   0  0  0  0  0  0  0  0  0  0  0  0
   62.5985   34.8100   46.9408 H   0  0  0  0  0  0  0  0  0  0  0  0
  1  2  1  0
  2  3  1  0
  2  4  1  0
  4  5  1  0
  5  6  1  0
  6  7  1  0
  7  8  1  0
  8  9  2  0
  9 10  1  0
 10 11  2  0
 11 12  1  0
 11 13  1  0
 13 14  1  0
 13 15  2  0
  6 16  1  0
 16 17  1  0
 17  2  1  0
 15  8  1  0
  1 18  1  0
  1 19  1  0
  1 20  1  0
  3 21  1  0
  3 22  1  0
  3 23  1  0
  4 24  1  0
  4 25  1  0
  5 26  1  0
  5 27  1  0
  7 28  1  0
  7 29  1  0
  9 30  1  0
 10 31  1  0
 15 32  1  0
 16 33  1  0
 16 34  1  0
 17 35  1  0
 17 36  1  0
M  CHG  1   2   1
M  END
>  <UniqueID>  (46) 
45

>  <SMILES>  (46) 
C[N+]1(C)CCN(Cc2ccc(F)c(Cl)c2)CC1

>  <Energy>  (46) 
51.91115341872941

>  <Genealogy>  (46) 
C[N+]1(C)CCN(Cc2ccc(F)c(Cl)c2)CC1 (3D coordinates assigned)
C[N+]1(C)CCN(Cc2ccc(F)c(Cl)c2)CC1 (nonaromatic ring conformer: 51.91115341872941 kcal/mol)

>  <smiles>  (46) 
C[N+]1(C)CCN(Cc2ccc(F)c(Cl)c2)CC1

>  <score_type>  (46) 
oracle

>  <origin>  (46) 
adg

>  <m_score__min__energy>  (46) 
-4.8099999999999996

>  <m_primary>  (46) 
energy

$$$$
46:0
     RDKit          3D

 35 36  0  0  0  0  0  0  0  0999 V2000
   57.0220   26.6950   46.3870 C   0  0  0  0  0  0  0  0  0  0  0  0
   58.2880   27.4700   46.1940 C   0  0  0  0  0  0  0  0  0  0  0  0
   58.9740   27.9770   47.2550 N   0  0  0  0  0  0  0  0  0  0  0  0
   60.0930   28.6350   46.8770 C   0  0  0  0  0  0  0  0  0  0  0  0
   60.2750   28.6090   45.2060 S   0  0  0  0  0  0  0  0  0  0  0  0
   58.8640   27.7290   44.9490 C   0  0  0  0  0  0  0  0  0  0  0  0
   58.3910   27.2500   43.6050 C   0  0  0  0  0  0  0  0  0  0  0  0
   57.3930   28.2280   42.9780 C   0  0  0  0  0  0  0  0  0  0  0  0
   57.5530   29.5680   43.5420 N   0  0  0  0  0  0  0  0  0  0  0  0
   56.6560   30.1130   44.5170 C   0  0  0  0  0  0  0  0  0  0  0  0
   55.5760   29.5210   44.7920 O   0  0  0  0  0  0  0  0  0  0  0  0
   56.9930   31.3030   45.1650 O   0  0  0  0  0  0  0  0  0  0  0  0
   58.0710   31.3960   46.0890 C   0  0  0  0  0  0  0  0  0  0  0  0
   58.6030   32.8030   46.0930 C   0  0  0  0  0  0  0  0  0  0  0  0
   58.6610   33.5250   44.8870 C   0  0  0  0  0  0  0  0  0  0  0  0
   59.1770   34.8240   44.8630 C   0  0  0  0  0  0  0  0  0  0  0  0
   59.6490   35.4100   46.0380 C   0  0  0  0  0  0  0  0  0  0  0  0
   59.6110   34.7000   47.2400 C   0  0  0  0  0  0  0  0  0  0  0  0
   59.0970   33.3980   47.2750 C   0  0  0  0  0  0  0  0  0  0  0  0
   59.0970   32.4720   48.9560 Br  0  0  0  0  0  0  0  0  0  0  0  0
   56.8259   26.5750   47.4627 H   0  0  0  0  0  0  0  0  0  0  0  0
   56.1859   27.2363   45.9201 H   0  0  0  0  0  0  0  0  0  0  0  0
   57.1238   25.7042   45.9201 H   0  0  0  0  0  0  0  0  0  0  0  0
   60.7924   29.1232   47.5716 H   0  0  0  0  0  0  0  0  0  0  0  0
   59.2587   27.1477   42.9367 H   0  0  0  0  0  0  0  0  0  0  0  0
   57.8853   26.2828   43.7425 H   0  0  0  0  0  0  0  0  0  0  0  0
   57.5643   28.2711   41.8923 H   0  0  0  0  0  0  0  0  0  0  0  0
   56.3731   27.8756   43.1916 H   0  0  0  0  0  0  0  0  0  0  0  0
   58.4320   30.0930   43.3320 H   0  0  0  0  0  0  0  0  0  0  0  0
   57.7148   31.1351   47.0965 H   0  0  0  0  0  0  0  0  0  0  0  0
   58.8705   30.7008   45.7933 H   0  0  0  0  0  0  0  0  0  0  0  0
   58.2978   33.0642   43.9565 H   0  0  0  0  0  0  0  0  0  0  0  0
   59.2109   35.3845   43.9171 H   0  0  0  0  0  0  0  0  0  0  0  0
   60.0519   36.4334   46.0175 H   0  0  0  0  0  0  0  0  0  0  0  0
   59.9865   35.1656   48.1632 H   0  0  0  0  0  0  0  0  0  0  0  0
  1  2  1  0
  2  3  1  0
  3  4  2  0
  4  5  1  0
  5  6  1  0
  6  7  1  0
  7  8  1  0
  8  9  1  0
  9 10  1  0
 10 11  2  0
 10 12  1  0
 12 13  1  0
 13 14  1  0
 14 15  2  0
 15 16  1  0
 16 17  2  0
 17 18  1  0
 18 19  2  0
 19 20  1  0
  6  2  2  0
 19 14  1  0
  1 21  1  0
  1 22  1  0
  1 23  1  0
  4 24  1  0
  7 25  1  0
  7 26  1  0
  8 27  1  0
  8 28  1  0
  9 29  1  0
 13 30  1  0
 13 31  1  0
 15 32  1  0
 16 33  1  0
 17 34  1  0
 18 35  1  0
M  END
>  <UniqueID>  (47) 
46

>  <SMILES>  (47) 
Cc1ncsc1CCNC(=O)OCc1ccccc1Br

>  <Energy>  (47) 
55.48382496613119

>  <Genealogy>  (47) 
Cc1ncsc1CCNC(=O)OCc1ccccc1Br (3D coordinates assigned)
Cc1ncsc1CCNC(=O)OCc1ccccc1Br (optimized conformer: 55.48382496613119 kcal/mol)

>  <smiles>  (47) 
Cc1ncsc1CCNC(=O)OCc1ccccc1Br

>  <score_type>  (47) 
oracle

>  <origin>  (47) 
adg

>  <m_score__min__energy>  (47) 
-7.4299999999999997

>  <m_primary>  (47) 
energy

$$$$
47:0
     RDKit          3D

 49 52  0  0  0  0  0  0  0  0999 V2000
   62.1480   31.6290   50.0970 C   0  0  0  0  0  0  0  0  0  0  0  0
   62.1410   32.4370   48.8310 C   0  0  0  0  0  0  0  0  0  0  0  0
   63.3270   32.5550   48.0710 C   0  0  0  0  0  0  0  0  0  0  0  0
   63.3390   33.2580   46.8500 C   0  0  0  0  0  0  0  0  0  0  0  0
   62.1690   33.8570   46.3620 C   0  0  0  0  0  0  0  0  0  0  0  0
   61.0140   33.7510   47.1320 C   0  0  0  0  0  0  0  0  0  0  0  0
   59.7440   34.2170   46.8880 C   0  0  0  0  0  0  0  0  0  0  0  0
   59.3580   34.9330   45.7500 O   0  0  0  0  0  0  0  0  0  0  0  0
   58.3380   34.4980   44.8530 C   0  0  0  0  0  0  0  0  0  0  0  0
   57.8300   33.1090   45.2510 C   0  0  0  0  0  0  0  0  0  0  0  0
   58.5060   32.0680   44.4440 N   0  0  0  0  0  0  0  0  0  0  0  0
   57.7240   31.6910   43.2410 C   0  0  0  0  0  0  0  0  0  0  0  0
   56.7860   30.4930   43.4960 C   0  0  0  0  0  0  0  0  0  0  0  0
   56.4390   30.4140   44.8620 O   0  0  0  0  0  0  0  0  0  0  0  0
   57.5770   30.0710   45.6340 C   0  0  0  0  0  0  0  0  0  0  0  0
   58.8410   30.8740   45.2450 C   0  0  0  0  0  0  0  0  0  0  0  0
   58.9280   33.8770   47.9110 N   0  0  0  0  0  0  0  0  0  0  0  0
   59.6790   33.2000   48.8110 C   0  0  0  0  0  0  0  0  0  0  0  0
   59.1340   32.7310   50.0940 C   0  0  0  0  0  0  0  0  0  0  0  0
   59.2780   33.5200   51.2450 C   0  0  0  0  0  0  0  0  0  0  0  0
   58.7920   33.0640   52.4740 C   0  0  0  0  0  0  0  0  0  0  0  0
   58.1760   31.8120   52.5630 C   0  0  0  0  0  0  0  0  0  0  0  0
   58.0530   31.0110   51.4250 C   0  0  0  0  0  0  0  0  0  0  0  0
   58.5390   31.4630   50.1940 C   0  0  0  0  0  0  0  0  0  0  0  0
   60.9900   33.0920   48.3420 C   0  0  0  0  0  0  0  0  0  0  0  0
   62.1421   32.3059   50.9640 H   0  0  0  0  0  0  0  0  0  0  0  0
   61.2554   30.9869   50.1271 H   0  0  0  0  0  0  0  0  0  0  0  0
   63.0516   31.0024   50.1271 H   0  0  0  0  0  0  0  0  0  0  0  0
   64.2543   32.0911   48.4383 H   0  0  0  0  0  0  0  0  0  0  0  0
   64.2735   33.3375   46.2752 H   0  0  0  0  0  0  0  0  0  0  0  0
   62.1638   34.3934   45.4017 H   0  0  0  0  0  0  0  0  0  0  0  0
   57.5014   35.2116   44.8827 H   0  0  0  0  0  0  0  0  0  0  0  0
   58.7563   34.4461   43.8370 H   0  0  0  0  0  0  0  0  0  0  0  0
   58.0405   32.9365   46.3168 H   0  0  0  0  0  0  0  0  0  0  0  0
   56.7463   33.0571   45.0696 H   0  0  0  0  0  0  0  0  0  0  0  0
   57.1170   32.5541   42.9304 H   0  0  0  0  0  0  0  0  0  0  0  0
   58.4379   31.3951   42.4582 H   0  0  0  0  0  0  0  0  0  0  0  0
   55.8714   30.6165   42.8975 H   0  0  0  0  0  0  0  0  0  0  0  0
   57.3073   29.5678   43.2091 H   0  0  0  0  0  0  0  0  0  0  0  0
   57.3522   30.2642   46.6933 H   0  0  0  0  0  0  0  0  0  0  0  0
   57.7928   29.0091   45.4448 H   0  0  0  0  0  0  0  0  0  0  0  0
   59.3563   31.1938   46.1627 H   0  0  0  0  0  0  0  0  0  0  0  0
   59.4860   30.2233   44.6362 H   0  0  0  0  0  0  0  0  0  0  0  0
   57.9180   34.1130   48.0140 H   0  0  0  0  0  0  0  0  0  0  0  0
   59.7744   34.4995   51.1804 H   0  0  0  0  0  0  0  0  0  0  0  0
   58.8944   33.6910   53.3720 H   0  0  0  0  0  0  0  0  0  0  0  0
   57.7881   31.4576   53.5294 H   0  0  0  0  0  0  0  0  0  0  0  0
   57.5734   30.0237   51.4973 H   0  0  0  0  0  0  0  0  0  0  0  0
   58.4550   30.8241   49.3025 H   0  0  0  0  0  0  0  0  0  0  0  0
  1  2  1  0
  2  3  2  0
  3  4  1  0
  4  5  2  0
  5  6  1  0
  6  7  2  0
  7  8  1  0
  8  9  1  0
  9 10  1  0
 10 11  1  0
 11 12  1  0
 12 13  1  0
 13 14  1  0
 14 15  1  0
 15 16  1  0
  7 17  1  0
 17 18  1  0
 18 19  1  0
 19 20  2  0
 20 21  1  0
 21 22  2  0
 22 23  1  0
 23 24  2  0
 18 25  2  0
 25  2  1  0
 25  6  1  0
 16 11  1  0
 24 19  1  0
  1 26  1  0
  1 27  1  0
  1 28  1  0
  3 29  1  0
  4 30  1  0
  5 31  1  0
  9 32  1  0
  9 33  1  0
 10 34  1  0
 10 35  1  0
 12 36  1  0
 12 37  1  0
 13 38  1  0
 13 39  1  0
 15 40  1  0
 15 41  1  0
 16 42  1  0
 16 43  1  0
 17 44  1  0
 20 45  1  0
 21 46  1  0
 22 47  1  0
 23 48  1  0
 24 49  1  0
M  END
>  <UniqueID>  (48) 
47

>  <SMILES>  (48) 
Cc1cccc2c(OCCN3CCOCC3)[nH]c(-c3ccccc3)c12

>  <Energy>  (48) 
102.12079183502283

>  <Genealogy>  (48) 
Cc1cccc2c(OCCN3CCOCC3)[nH]c(-c3ccccc3)c12 (3D coordinates assigned)
Cc1cccc2c(OCCN3CCOCC3)[nH]c(-c3ccccc3)c12 (nonaromatic ring conformer: 102.12079183502283 kcal/mol)

>  <smiles>  (48) 
Cc1cccc2c(OCCN3CCOCC3)[nH]c(-c3ccccc3)c12

>  <score_type>  (48) 
oracle

>  <origin>  (48) 
adg

>  <m_score__min__energy>  (48) 
-9.3900000000000006

>  <m_primary>  (48) 
energy

$$$$
