0:0
     RDKit          3D

 34 36  0  0  0  0  0  0  0  0999 V2000
   63.7720   32.9830   48.1570 C   0  0  0  0  0  0  0  0  0  0  0  0
   62.4310   32.7690   47.5340 C   0  0  0  0  0  0  0  0  0  0  0  0
   61.9390   31.5010   47.3010 C   0  0  0  0  0  0  0  0  0  0  0  0
   60.6800   31.3320   46.7160 C   0  0  0  0  0  0  0  0  0  0  0  0
   59.8960   32.4030   46.3550 C   0  0  0  0  0  0  0  0  0  0  0  0
   58.3290   32.2620   45.6160 S   0  0  0  0  0  0  0  0  0  0  0  0
   57.2760   32.8480   46.5340 O   0  0  0  0  0  0  0  0  0  0  0  0
   58.3710   33.0460   44.3270 O   0  0  0  0  0  0  0  0  0  0  0  0
   57.9430   30.6370   45.2450 N   0  0  0  0  0  0  0  0  0  0  0  0
   57.4130   30.1870   44.0790 C   0  0  0  0  0  0  0  0  0  0  0  0
   57.0310   31.0730   42.7440 S   0  0  0  0  0  0  0  0  0  0  0  0
   57.2280   28.8620   44.1270 N   0  0  0  0  0  0  0  0  0  0  0  0
   57.6340   28.4160   45.3260 C   0  0  0  0  0  0  0  0  0  0  0  0
   57.6580   27.1760   45.8690 N   0  0  0  0  0  0  0  0  0  0  0  0
   58.1250   27.0040   47.1160 C   0  0  0  0  0  0  0  0  0  0  0  0
   58.5850   28.0800   47.8590 C   0  0  0  0  0  0  0  0  0  0  0  0
   58.5500   29.3370   47.2820 C   0  0  0  0  0  0  0  0  0  0  0  0
   58.0730   29.5330   46.0030 C   0  0  0  0  0  0  0  0  0  0  0  0
   60.4080   33.6620   46.5960 C   0  0  0  0  0  0  0  0  0  0  0  0
   59.5930   34.8560   46.2220 C   0  0  0  0  0  0  0  0  0  0  0  0
   61.6560   33.8520   47.1770 C   0  0  0  0  0  0  0  0  0  0  0  0
   63.6741   32.9674   49.2525 H   0  0  0  0  0  0  0  0  0  0  0  0
   64.4562   32.1827   47.8386 H   0  0  0  0  0  0  0  0  0  0  0  0
   64.1731   33.9565   47.8386 H   0  0  0  0  0  0  0  0  0  0  0  0
   62.5386   30.6208   47.5761 H   0  0  0  0  0  0  0  0  0  0  0  0
   60.3058   30.3128   46.5394 H   0  0  0  0  0  0  0  0  0  0  0  0
   56.8420   28.2310   43.3970 H   0  0  0  0  0  0  0  0  0  0  0  0
   58.1428   25.9952   47.5541 H   0  0  0  0  0  0  0  0  0  0  0  0
   58.9678   27.9382   48.8805 H   0  0  0  0  0  0  0  0  0  0  0  0
   58.9117   30.2016   47.8578 H   0  0  0  0  0  0  0  0  0  0  0  0
   59.2464   35.3637   47.1342 H   0  0  0  0  0  0  0  0  0  0  0  0
   60.2079   35.5483   45.6281 H   0  0  0  0  0  0  0  0  0  0  0  0
   58.7243   34.5356   45.6281 H   0  0  0  0  0  0  0  0  0  0  0  0
   62.0277   34.8722   47.3531 H   0  0  0  0  0  0  0  0  0  0  0  0
  1  2  1  0
  2  3  2  0
  3  4  1  0
  4  5  2  0
  5  6  1  0
  6  7  2  0
  6  8  2  0
  6  9  1  0
  9 10  1  0
 10 11  2  0
 10 12  1  0
 12 13  1  0
 13 14  2  0
 14 15  1  0
 15 16  2  0
 16 17  1  0
 17 18  2  0
  5 19  1  0
 19 20  1  0
 19 21  2  0
 21  2  1  0
 18  9  1  0
 18 13  1  0
  1 22  1  0
  1 23  1  0
  1 24  1  0
  3 25  1  0
  4 26  1  0
 12 27  1  0
 15 28  1  0
 16 29  1  0
 17 30  1  0
 20 31  1  0
 20 32  1  0
 20 33  1  0
 21 34  1  0
M  END
>  <smiles>  (1) 
Cc1ccc(S(=O)(=O)n2c(=S)[nH]c3ncccc32)c(C)c1

>  <score_type>  (1) 
oracle

>  <origin>  (1) 
adg

>  <m_score__min__energy>  (1) 
-7.5499999999999998

>  <m_primary>  (1) 
energy

$$$$
1:0
     RDKit          3D

 51 53  0  0  0  0  0  0  0  0999 V2000
   63.1190   33.8230   49.2420 C   0  0  0  0  0  0  0  0  0  0  0  0
   62.9590   32.7610   47.8260 S   0  0  0  0  0  0  0  0  0  0  0  0
   64.1190   33.1130   46.6630 O   0  0  0  0  0  0  0  0  0  0  0  0
   61.3490   32.8380   47.1370 C   0  0  0  0  0  0  0  0  0  0  0  0
   60.9650   33.9410   46.3650 C   0  0  0  0  0  0  0  0  0  0  0  0
   59.6800   34.0020   45.8190 C   0  0  0  0  0  0  0  0  0  0  0  0
   58.7640   32.9630   46.0470 C   0  0  0  0  0  0  0  0  0  0  0  0
   57.3970   33.0110   45.4310 C   0  0  0  0  0  0  0  0  0  0  0  0
   57.3100   32.0080   44.3740 N   0  0  0  0  0  0  0  0  0  0  0  0
   56.7420   30.7030   44.5300 C   0  0  0  0  0  0  0  0  0  0  0  0
   55.4890   30.5790   44.4940 O   0  0  0  0  0  0  0  0  0  0  0  0
   57.5770   29.4950   44.6920 C   0  0  0  0  0  0  0  0  0  0  0  0
   58.9660   29.5530   44.5040 C   0  0  0  0  0  0  0  0  0  0  0  0
   59.7480   28.4080   44.6780 C   0  0  0  0  0  0  0  0  0  0  0  0
   59.1510   27.2010   45.0540 C   0  0  0  0  0  0  0  0  0  0  0  0
   57.7670   27.1370   45.2630 C   0  0  0  0  0  0  0  0  0  0  0  0
   57.0020   25.6300   45.7650 S   0  0  0  0  0  0  0  0  0  0  0  0
   58.0150   24.7980   46.5010 O   0  0  0  0  0  0  0  0  0  0  0  0
   55.8530   25.9190   46.6930 O   0  0  0  0  0  0  0  0  0  0  0  0
   56.4270   24.7640   44.3600 N   0  0  0  0  0  0  0  0  0  0  0  0
   57.4710   23.8280   43.8880 C   0  0  0  0  0  0  0  0  0  0  0  0
   56.8510   22.7010   43.0450 C   0  0  0  0  0  0  0  0  0  0  0  0
   55.8910   21.9150   43.7420 O   0  0  0  0  0  0  0  0  0  0  0  0
   55.3080   22.5770   44.8550 C   0  0  0  0  0  0  0  0  0  0  0  0
   55.1340   24.0900   44.6390 C   0  0  0  0  0  0  0  0  0  0  0  0
   56.9850   28.2870   45.0910 C   0  0  0  0  0  0  0  0  0  0  0  0
   59.1590   31.8510   46.8080 C   0  0  0  0  0  0  0  0  0  0  0  0
   60.4460   31.7920   47.3540 C   0  0  0  0  0  0  0  0  0  0  0  0
   63.0289   33.2250   50.1609 H   0  0  0  0  0  0  0  0  0  0  0  0
   64.1017   34.3168   49.2208 H   0  0  0  0  0  0  0  0  0  0  0  0
   62.3254   34.5845   49.2208 H   0  0  0  0  0  0  0  0  0  0  0  0
   64.7950   32.3950   46.7620 H   0  0  0  0  0  0  0  0  0  0  0  0
   61.6762   34.7613   46.1878 H   0  0  0  0  0  0  0  0  0  0  0  0
   59.3851   34.8678   45.2080 H   0  0  0  0  0  0  0  0  0  0  0  0
   56.6394   32.8010   46.2004 H   0  0  0  0  0  0  0  0  0  0  0  0
   57.2181   34.0102   45.0072 H   0  0  0  0  0  0  0  0  0  0  0  0
   59.4412   30.5031   44.2186 H   0  0  0  0  0  0  0  0  0  0  0  0
   60.8353   28.4565   44.5188 H   0  0  0  0  0  0  0  0  0  0  0  0
   59.7686   26.3004   45.1859 H   0  0  0  0  0  0  0  0  0  0  0  0
   56.2680   25.4780   43.6100 H   0  0  0  0  0  0  0  0  0  0  0  0
   58.1990   24.3789   43.2745 H   0  0  0  0  0  0  0  0  0  0  0  0
   57.9678   23.3826   44.7626 H   0  0  0  0  0  0  0  0  0  0  0  0
   56.3585   23.1537   42.1718 H   0  0  0  0  0  0  0  0  0  0  0  0
   57.6725   22.0247   42.7662 H   0  0  0  0  0  0  0  0  0  0  0  0
   54.3187   22.1352   45.0453 H   0  0  0  0  0  0  0  0  0  0  0  0
   55.9910   22.4455   45.7072 H   0  0  0  0  0  0  0  0  0  0  0  0
   54.4580   24.2516   43.7864 H   0  0  0  0  0  0  0  0  0  0  0  0
   54.7191   24.5197   45.5627 H   0  0  0  0  0  0  0  0  0  0  0  0
   55.9005   28.2425   45.2698 H   0  0  0  0  0  0  0  0  0  0  0  0
   58.4542   31.0233   46.9755 H   0  0  0  0  0  0  0  0  0  0  0  0
   60.7481   30.9216   47.9549 H   0  0  0  0  0  0  0  0  0  0  0  0
  1  2  1  0
  2  3  1  6
  2  4  1  0
  4  5  2  0
  5  6  1  0
  6  7  2  0
  7  8  1  0
  8  9  1  0
  9 10  1  0
 10 11  2  0
 10 12  1  0
 12 13  2  0
 13 14  1  0
 14 15  2  0
 15 16  1  0
 16 17  1  0
 17 18  2  0
 17 19  2  0
 17 20  1  0
 20 21  1  0
 21 22  1  0
 22 23  1  0
 23 24  1  0
 24 25  1  0
 16 26  2  0
  7 27  1  0
 27 28  2  0
 28  4  1  0
 26 12  1  0
 25 20  1  0
  1 29  1  0
  1 30  1  0
  1 31  1  0
  3 32  1  0
  5 33  1  0
  6 34  1  0
  8 35  1  0
  8 36  1  0
 13 37  1  0
 14 38  1  0
 15 39  1  0
 20 40  1  0
 21 41  1  0
 21 42  1  0
 22 43  1  0
 22 44  1  0
 24 45  1  0
 24 46  1  0
 25 47  1  0
 25 48  1  0
 26 49  1  0
 27 50  1  0
 28 51  1  0
M  CHG  3   2   1   9  -1  20   1
M  END
>  <UniqueID>  (2) 
1

>  <SMILES>  (2) 
C[S@+](O)c1ccc(C[N-]C(=O)c2cccc(S(=O)(=O)[NH+]3CCOCC3)c2)cc1

>  <Energy>  (2) 
62.92642191840351

>  <Genealogy>  (2) 
C[S+](O)c1ccc(C[N-]C(=O)c2cccc(S(=O)(=O)[NH+]3CCOCC3)c2)cc1 (protonated)
C[S@+](O)c1ccc(C[N-]C(=O)c2cccc(S(=O)(=O)[NH+]3CCOCC3)c2)cc1 (chirality)
C[S@+](O)c1ccc(C[N-]C(=O)c2cccc(S(=O)(=O)[NH+]3CCOCC3)c2)cc1 (3D coordinates assigned)
C[S@+](O)c1ccc(C[N-]C(=O)c2cccc(S(=O)(=O)[NH+]3CCOCC3)c2)cc1 (nonaromatic ring conformer: 62.92642191840351 kcal/mol)

>  <smiles>  (2) 
C[S+]([O-])c1ccc(CNC(=O)c2cccc(S(=O)(=O)N3CCOCC3)c2)cc1

>  <score_type>  (2) 
oracle

>  <origin>  (2) 
adg

>  <m_score__min__energy>  (2) 
-8.7699999999999996

>  <m_primary>  (2) 
energy

$$$$
2:0
     RDKit          3D

 42 44  0  0  0  0  0  0  0  0999 V2000
   57.3410   32.2230   41.2490 C   0  0  0  0  0  0  0  0  0  0  0  0
   57.4890   31.7950   42.6470 N   0  0  0  0  0  0  0  0  0  0  0  0
   58.0730   32.6400   43.5520 C   0  0  0  0  0  0  0  0  0  0  0  0
   58.2250   32.2770   44.9120 C   0  0  0  0  0  0  0  0  0  0  0  0
   58.8570   33.1760   45.8790 N   0  0  0  0  0  0  0  0  0  0  0  0
   58.9940   32.7320   47.2850 C   0  0  0  0  0  0  0  0  0  0  0  0
   59.6310   33.7570   48.2360 C   0  0  0  0  0  0  0  0  0  0  0  0
   60.6440   34.6010   47.5880 N   0  0  0  0  0  0  0  0  0  0  0  0
   61.8520   33.8620   47.1570 C   0  0  0  0  0  0  0  0  0  0  0  0
   62.7620   33.6110   48.3290 C   0  0  0  0  0  0  0  0  0  0  0  0
   63.7610   32.6250   48.2600 C   0  0  0  0  0  0  0  0  0  0  0  0
   64.5880   32.3820   49.3610 C   0  0  0  0  0  0  0  0  0  0  0  0
   64.4220   33.1200   50.5370 C   0  0  0  0  0  0  0  0  0  0  0  0
   63.4270   34.0980   50.6150 C   0  0  0  0  0  0  0  0  0  0  0  0
   62.5970   34.3430   49.5170 C   0  0  0  0  0  0  0  0  0  0  0  0
   60.0150   35.3480   46.4920 C   0  0  0  0  0  0  0  0  0  0  0  0
   59.4660   34.4330   45.3920 C   0  0  0  0  0  0  0  0  0  0  0  0
   57.7310   31.0140   45.2970 C   0  0  0  0  0  0  0  0  0  0  0  0
   57.1260   30.1680   44.3700 C   0  0  0  0  0  0  0  0  0  0  0  0
   56.5160   28.6040   44.8950 Cl  0  0  0  0  0  0  0  0  0  0  0  0
   57.0080   30.5750   43.0390 C   0  0  0  0  0  0  0  0  0  0  0  0
   56.4530   29.8080   42.2040 O   0  0  0  0  0  0  0  0  0  0  0  0
   56.9816   33.2622   41.2198 H   0  0  0  0  0  0  0  0  0  0  0  0
   58.3141   32.1571   40.7404 H   0  0  0  0  0  0  0  0  0  0  0  0
   56.6165   31.5701   40.7404 H   0  0  0  0  0  0  0  0  0  0  0  0
   58.4324   33.6235   43.2148 H   0  0  0  0  0  0  0  0  0  0  0  0
   57.9901   32.4928   47.6656 H   0  0  0  0  0  0  0  0  0  0  0  0
   59.6748   31.8681   47.2672 H   0  0  0  0  0  0  0  0  0  0  0  0
   58.8365   34.4068   48.6316 H   0  0  0  0  0  0  0  0  0  0  0  0
   60.1389   33.1915   49.0311 H   0  0  0  0  0  0  0  0  0  0  0  0
   61.5504   32.8987   46.7200 H   0  0  0  0  0  0  0  0  0  0  0  0
   62.3906   34.4647   46.4109 H   0  0  0  0  0  0  0  0  0  0  0  0
   63.8929   32.0422   47.3364 H   0  0  0  0  0  0  0  0  0  0  0  0
   65.3694   31.6100   49.3020 H   0  0  0  0  0  0  0  0  0  0  0  0
   65.0753   32.9305   51.4015 H   0  0  0  0  0  0  0  0  0  0  0  0
   63.2966   34.6760   51.5418 H   0  0  0  0  0  0  0  0  0  0  0  0
   61.8124   35.1111   49.5833 H   0  0  0  0  0  0  0  0  0  0  0  0
   59.1853   35.9426   46.9020 H   0  0  0  0  0  0  0  0  0  0  0  0
   60.7875   35.9865   46.0386 H   0  0  0  0  0  0  0  0  0  0  0  0
   58.6999   34.9907   44.8334 H   0  0  0  0  0  0  0  0  0  0  0  0
   60.3271   34.1410   44.7729 H   0  0  0  0  0  0  0  0  0  0  0  0
   57.8246   30.6918   46.3446 H   0  0  0  0  0  0  0  0  0  0  0  0
  1  2  1  0
  2  3  1  0
  3  4  2  0
  4  5  1  0
  5  6  1  0
  6  7  1  0
  7  8  1  0
  8  9  1  0
  9 10  1  0
 10 11  2  0
 11 12  1  0
 12 13  2  0
 13 14  1  0
 14 15  2  0
  8 16  1  0
 16 17  1  0
  4 18  1  0
 18 19  2  0
 19 20  1  0
 19 21  1  0
 21 22  2  0
 21  2  1  0
 17  5  1  0
 15 10  1  0
  1 23  1  0
  1 24  1  0
  1 25  1  0
  3 26  1  0
  6 27  1  0
  6 28  1  0
  7 29  1  0
  7 30  1  0
  9 31  1  0
  9 32  1  0
 11 33  1  0
 12 34  1  0
 13 35  1  0
 14 36  1  0
 15 37  1  0
 16 38  1  0
 16 39  1  0
 17 40  1  0
 17 41  1  0
 18 42  1  0
M  END
>  <UniqueID>  (3) 
2

>  <SMILES>  (3) 
Cn1cc(N2CCN(Cc3ccccc3)CC2)cc(Cl)c1=O

>  <Energy>  (3) 
56.94715571124015

>  <Genealogy>  (3) 
Cn1cc(N2CCN(Cc3ccccc3)CC2)cc(Cl)c1=O (3D coordinates assigned)
Cn1cc(N2CCN(Cc3ccccc3)CC2)cc(Cl)c1=O (nonaromatic ring conformer: 56.94715571124015 kcal/mol)

>  <smiles>  (3) 
Cn1cc(N2CCN(Cc3ccccc3)CC2)cc(Cl)c1=O

>  <score_type>  (3) 
oracle

>  <origin>  (3) 
adg

>  <m_score__min__energy>  (3) 
-7.6299999999999999

>  <m_primary>  (3) 
energy

$$$$
3:0
     RDKit          3D

 25 27  0  0  0  0  0  0  0  0999 V2000
   57.3390   30.1160   45.8420 F   0  0  0  0  0  0  0  0  0  0  0  0
   58.4540   30.7990   46.2090 C   0  0  0  0  0  0  0  0  0  0  0  0
   59.4870   30.1240   46.8550 C   0  0  0  0  0  0  0  0  0  0  0  0
   60.6050   30.7900   47.2390 N   0  0  0  0  0  0  0  0  0  0  0  0
   60.7780   32.1220   47.0150 C   0  0  0  0  0  0  0  0  0  0  0  0
   61.9740   32.7470   47.5050 N   0  0  0  0  0  0  0  0  0  0  0  0
   62.0870   33.5850   48.5560 C   0  0  0  0  0  0  0  0  0  0  0  0
   63.4270   33.8260   48.7700 C   0  0  0  0  0  0  0  0  0  0  0  0
   64.1400   33.1230   47.8710 N   0  0  0  0  0  0  0  0  0  0  0  0
   63.2340   32.4630   47.1240 C   0  0  0  0  0  0  0  0  0  0  0  0
   59.7770   32.8460   46.3210 C   0  0  0  0  0  0  0  0  0  0  0  0
   59.9320   34.2030   45.9710 C   0  0  0  0  0  0  0  0  0  0  0  0
   58.9150   34.8800   45.2950 C   0  0  0  0  0  0  0  0  0  0  0  0
   57.7400   34.2170   44.9450 C   0  0  0  0  0  0  0  0  0  0  0  0
   57.5780   32.8650   45.2530 C   0  0  0  0  0  0  0  0  0  0  0  0
   58.5930   32.1670   45.9300 C   0  0  0  0  0  0  0  0  0  0  0  0
   59.3960   29.0461   47.0548 H   0  0  0  0  0  0  0  0  0  0  0  0
   61.2544   34.0033   49.1406 H   0  0  0  0  0  0  0  0  0  0  0  0
   63.8443   34.4837   49.5467 H   0  0  0  0  0  0  0  0  0  0  0  0
   65.1790   33.0770   47.7880 H   0  0  0  0  0  0  0  0  0  0  0  0
   63.4916   31.7767   46.3039 H   0  0  0  0  0  0  0  0  0  0  0  0
   60.8604   34.7319   46.2323 H   0  0  0  0  0  0  0  0  0  0  0  0
   59.0417   35.9419   45.0374 H   0  0  0  0  0  0  0  0  0  0  0  0
   56.9379   34.7607   44.4245 H   0  0  0  0  0  0  0  0  0  0  0  0
   56.6529   32.3442   44.9649 H   0  0  0  0  0  0  0  0  0  0  0  0
  1  2  1  0
  2  3  2  0
  3  4  1  0
  4  5  2  0
  5  6  1  0
  6  7  1  0
  7  8  2  0
  8  9  1  0
  9 10  2  0
  5 11  1  0
 11 12  2  0
 12 13  1  0
 13 14  2  0
 14 15  1  0
 15 16  2  0
 16  2  1  0
 10  6  1  0
 16 11  1  0
  3 17  1  0
  7 18  1  0
  8 19  1  0
  9 20  1  0
 10 21  1  0
 12 22  1  0
 13 23  1  0
 14 24  1  0
 15 25  1  0
M  CHG  1   9   1
M  END
>  <UniqueID>  (4) 
3

>  <SMILES>  (4) 
Fc1cnc(-n2cc[nH+]c2)c2ccccc12

>  <Energy>  (4) 
69.53311586271174

>  <Genealogy>  (4) 
Fc1cnc(-n2cc[nH+]c2)c2ccccc12 (protonated)
Fc1cnc(-n2cc[nH+]c2)c2ccccc12 (3D coordinates assigned)
Fc1cnc(-n2cc[nH+]c2)c2ccccc12 (optimized conformer: 69.53311586271174 kcal/mol)

>  <smiles>  (4) 
Fc1cnc(-n2ccnc2)c2ccccc12

>  <score_type>  (4) 
oracle

>  <origin>  (4) 
adg

>  <m_score__min__energy>  (4) 
-4.5

>  <m_primary>  (4) 
energy

$$$$
4:0
     RDKit          3D

 34 36  0  0  0  0  0  0  0  0999 V2000
   55.8760   24.8180   47.4240 O   0  0  0  0  0  0  0  0  0  0  0  0
   55.9380   25.2320   46.2360 C   0  0  0  0  0  0  0  0  0  0  0  0
   55.6710   26.6080   45.9320 N   0  0  0  0  0  0  0  0  0  0  0  0
   56.6430   27.6250   45.6470 C   0  0  0  0  0  0  0  0  0  0  0  0
   58.0250   27.3730   45.6990 C   0  0  0  0  0  0  0  0  0  0  0  0
   58.9350   28.3840   45.3790 C   0  0  0  0  0  0  0  0  0  0  0  0
   58.4790   29.6490   45.0040 C   0  0  0  0  0  0  0  0  0  0  0  0
   57.1060   29.9150   44.9470 C   0  0  0  0  0  0  0  0  0  0  0  0
   56.6680   31.2160   44.5320 N   0  0  0  0  0  0  0  0  0  0  0  0
   57.5120   32.3040   44.1330 C   0  0  0  0  0  0  0  0  0  0  0  0
   57.7620   32.4600   42.9090 O   0  0  0  0  0  0  0  0  0  0  0  0
   58.1390   33.2080   45.1150 C   0  0  0  0  0  0  0  0  0  0  0  0
   59.0340   34.2380   44.8450 C   0  0  0  0  0  0  0  0  0  0  0  0
   59.4280   34.9430   45.9900 C   0  0  0  0  0  0  0  0  0  0  0  0
   58.8390   34.4830   47.1600 C   0  0  0  0  0  0  0  0  0  0  0  0
   57.8260   33.1990   46.7680 S   0  0  0  0  0  0  0  0  0  0  0  0
   56.1920   28.8880   45.2410 C   0  0  0  0  0  0  0  0  0  0  0  0
   56.2350   24.2760   45.1520 C   0  0  0  0  0  0  0  0  0  0  0  0
   57.4290   23.5350   45.1380 C   0  0  0  0  0  0  0  0  0  0  0  0
   57.6680   22.6410   44.0920 C   0  0  0  0  0  0  0  0  0  0  0  0
   56.7250   22.4900   43.0750 C   0  0  0  0  0  0  0  0  0  0  0  0
   55.5480   23.2400   43.1200 C   0  0  0  0  0  0  0  0  0  0  0  0
   55.3320   24.1070   44.1450 N   0  0  0  0  0  0  0  0  0  0  0  0
   58.3908   26.3779   45.9922 H   0  0  0  0  0  0  0  0  0  0  0  0
   60.0154   28.1822   45.4228 H   0  0  0  0  0  0  0  0  0  0  0  0
   59.2013   30.4396   44.7524 H   0  0  0  0  0  0  0  0  0  0  0  0
   59.3962   34.4753   43.8338 H   0  0  0  0  0  0  0  0  0  0  0  0
   60.1380   35.7828   45.9643 H   0  0  0  0  0  0  0  0  0  0  0  0
   59.0060   34.8882   48.1689 H   0  0  0  0  0  0  0  0  0  0  0  0
   55.1122   29.0778   45.1514 H   0  0  0  0  0  0  0  0  0  0  0  0
   58.1683   23.6580   45.9432 H   0  0  0  0  0  0  0  0  0  0  0  0
   58.5994   22.0562   44.0700 H   0  0  0  0  0  0  0  0  0  0  0  0
   56.9065   21.7884   42.2475 H   0  0  0  0  0  0  0  0  0  0  0  0
   54.7951   23.1294   42.3257 H   0  0  0  0  0  0  0  0  0  0  0  0
  1  2  2  0
  2  3  1  0
  3  4  1  0
  4  5  2  0
  5  6  1  0
  6  7  2  0
  7  8  1  0
  8  9  1  0
  9 10  1  0
 10 11  2  0
 10 12  1  0
 12 13  2  0
 13 14  1  0
 14 15  2  0
 15 16  1  0
  8 17  2  0
  2 18  1  0
 18 19  2  0
 19 20  1  0
 20 21  2  0
 21 22  1  0
 22 23  2  0
 17  4  1  0
 23 18  1  0
 16 12  1  0
  5 24  1  0
  6 25  1  0
  7 26  1  0
 13 27  1  0
 14 28  1  0
 15 29  1  0
 17 30  1  0
 19 31  1  0
 20 32  1  0
 21 33  1  0
 22 34  1  0
M  CHG  2   3  -1   9  -1
M  END
>  <UniqueID>  (5) 
4

>  <SMILES>  (5) 
O=C([N-]c1cccc([N-]C(=O)c2cccs2)c1)c1ccccn1

>  <Energy>  (5) 
71.87429928454289

>  <Genealogy>  (5) 
O=C([N-]c1cccc([N-]C(=O)c2cccs2)c1)c1ccccn1 (protonated)
O=C([N-]c1cccc([N-]C(=O)c2cccs2)c1)c1ccccn1 (3D coordinates assigned)
O=C([N-]c1cccc([N-]C(=O)c2cccs2)c1)c1ccccn1 (optimized conformer: 71.87429928454289 kcal/mol)

>  <smiles>  (5) 
O=C(Nc1cccc(NC(=O)c2cccs2)c1)c1ccccn1

>  <score_type>  (5) 
oracle

>  <origin>  (5) 
adg

>  <m_score__min__energy>  (5) 
-11.18

>  <m_primary>  (5) 
energy

$$$$
5:0
     RDKit          3D

 28 29  0  0  0  0  0  0  0  0999 V2000
   59.1910   34.5620   46.1560 C   0  0  0  0  0  0  0  0  0  0  0  0
   59.3110   33.4220   47.0530 N   0  0  0  0  0  0  0  0  0  0  0  0
   59.5110   33.6220   48.4760 C   0  0  0  0  0  0  0  0  0  0  0  0
   59.2260   32.1120   46.4930 C   0  0  0  0  0  0  0  0  0  0  0  0
   60.3390   31.3020   46.6060 C   0  0  0  0  0  0  0  0  0  0  0  0
   60.3630   30.0060   46.0930 C   0  0  0  0  0  0  0  0  0  0  0  0
   59.2030   29.5840   45.4660 C   0  0  0  0  0  0  0  0  0  0  0  0
   59.2320   28.3210   44.9690 N   0  0  0  0  0  0  0  0  0  0  0  0
   58.1220   27.8790   44.3540 C   0  0  0  0  0  0  0  0  0  0  0  0
   58.1160   26.6660   43.8630 N   0  0  0  0  0  0  0  0  0  0  0  0
   57.0440   28.6550   44.2410 N   0  0  0  0  0  0  0  0  0  0  0  0
   56.9730   29.9180   44.7220 C   0  0  0  0  0  0  0  0  0  0  0  0
   55.8830   30.5480   44.5460 N   0  0  0  0  0  0  0  0  0  0  0  0
   58.0930   30.3960   45.3550 C   0  0  0  0  0  0  0  0  0  0  0  0
   58.0860   31.6700   45.8650 C   0  0  0  0  0  0  0  0  0  0  0  0
   59.0939   35.4848   46.7468 H   0  0  0  0  0  0  0  0  0  0  0  0
   60.0874   34.6254   45.5217 H   0  0  0  0  0  0  0  0  0  0  0  0
   58.3010   34.4374   45.5217 H   0  0  0  0  0  0  0  0  0  0  0  0
   58.8423   32.9533   49.0378 H   0  0  0  0  0  0  0  0  0  0  0  0
   60.5563   33.3971   48.7345 H   0  0  0  0  0  0  0  0  0  0  0  0
   59.2861   34.6673   48.7345 H   0  0  0  0  0  0  0  0  0  0  0  0
   61.2328   31.6910   47.1158 H   0  0  0  0  0  0  0  0  0  0  0  0
   61.2483   29.3591   46.1809 H   0  0  0  0  0  0  0  0  0  0  0  0
   60.0860   27.7140   45.0610 H   0  0  0  0  0  0  0  0  0  0  0  0
   57.2650   26.4060   43.3190 H   0  0  0  0  0  0  0  0  0  0  0  0
   56.2160   28.2440   43.7490 H   0  0  0  0  0  0  0  0  0  0  0  0
   55.1380   30.5470   45.2490 H   0  0  0  0  0  0  0  0  0  0  0  0
   57.1994   32.3147   45.7744 H   0  0  0  0  0  0  0  0  0  0  0  0
  1  2  1  0
  2  3  1  0
  2  4  1  0
  4  5  2  0
  5  6  1  0
  6  7  2  0
  7  8  1  0
  8  9  1  0
  9 10  2  3
  9 11  1  0
 11 12  1  0
 12 13  2  3
 12 14  1  0
 14 15  2  0
 15  4  1  0
 14  7  1  0
  1 16  1  0
  1 17  1  0
  1 18  1  0
  3 19  1  0
  3 20  1  0
  3 21  1  0
  5 22  1  0
  6 23  1  0
  8 24  1  0
 10 25  1  0
 11 26  1  0
 13 27  1  0
 15 28  1  0
M  END
>  <smiles>  (6) 
CN(C)c1ccc2[nH]c(=N)[nH]c(=N)c2c1

>  <score_type>  (6) 
oracle

>  <origin>  (6) 
adg

>  <m_score__min__energy>  (6) 
-5.4100000000000001

>  <m_primary>  (6) 
energy

$$$$
6:0
     RDKit          3D

 21 22  0  0  0  0  0  0  0  0999 V2000
   50.6790   33.0300   51.9990 O   0  0  0  0  0  0  0  0  0  0  0  0
   51.2370   32.2150   51.2170 C   0  0  0  0  0  0  0  0  0  0  0  0
   51.0130   32.3350   49.8490 O   0  0  0  0  0  0  0  0  0  0  0  0
   52.1180   31.1480   51.7410 C   0  0  0  0  0  0  0  0  0  0  0  0
   51.5640   29.9700   52.2670 C   0  0  0  0  0  0  0  0  0  0  0  0
   52.3910   28.9610   52.7600 C   0  0  0  0  0  0  0  0  0  0  0  0
   53.7780   29.1110   52.7350 C   0  0  0  0  0  0  0  0  0  0  0  0
   54.3600   30.2810   52.2150 C   0  0  0  0  0  0  0  0  0  0  0  0
   55.8370   30.4430   52.1890 C   0  0  0  0  0  0  0  0  0  0  0  0
   56.8020   29.4650   52.3810 C   0  0  0  0  0  0  0  0  0  0  0  0
   58.0260   30.0180   52.2800 N   0  0  0  0  0  0  0  0  0  0  0  0
   57.8690   31.3070   52.0330 N   0  0  0  0  0  0  0  0  0  0  0  0
   56.5600   31.6030   51.9700 C   0  0  0  0  0  0  0  0  0  0  0  0
   53.5170   31.2950   51.7190 C   0  0  0  0  0  0  0  0  0  0  0  0
   50.4717   29.8422   52.2904 H   0  0  0  0  0  0  0  0  0  0  0  0
   51.9475   28.0420   53.1707 H   0  0  0  0  0  0  0  0  0  0  0  0
   54.4210   28.3082   53.1249 H   0  0  0  0  0  0  0  0  0  0  0  0
   56.5991   28.4031   52.5841 H   0  0  0  0  0  0  0  0  0  0  0  0
   58.6560   31.9820   51.9100 H   0  0  0  0  0  0  0  0  0  0  0  0
   56.1346   32.5989   51.7770 H   0  0  0  0  0  0  0  0  0  0  0  0
   53.9590   32.2149   51.3086 H   0  0  0  0  0  0  0  0  0  0  0  0
  1  2  2  0
  2  3  1  0
  2  4  1  0
  4  5  2  0
  5  6  1  0
  6  7  2  0
  7  8  1  0
  8  9  1  0
  9 10  1  0
 10 11  2  0
 11 12  1  0
 12 13  1  0
  8 14  2  0
 14  4  1  0
 13  9  2  0
  5 15  1  0
  6 16  1  0
  7 17  1  0
 10 18  1  0
 12 19  1  0
 13 20  1  0
 14 21  1  0
M  CHG  1   3  -1
M  END
>  <UniqueID>  (7) 
5

>  <SMILES>  (7) 
O=C([O-])c1cccc(-c2cn[nH]c2)c1

>  <Energy>  (7) 
54.30167696342297

>  <Genealogy>  (7) 
O=C([O-])c1cccc(-c2cn[nH]c2)c1 (protonated)
O=C([O-])c1cccc(-c2cn[nH]c2)c1 (3D coordinates assigned)
O=C([O-])c1cccc(-c2cn[nH]c2)c1 (optimized conformer: 54.30167696342297 kcal/mol)

>  <smiles>  (7) 
O=C(O)c1cccc(-c2cn[nH]c2)c1

>  <score_type>  (7) 
oracle

>  <origin>  (7) 
adg

>  <m_score__min__energy>  (7) 
-8.9900000000000002

>  <m_primary>  (7) 
energy

$$$$
7:0
     RDKit          3D

 33 34  0  0  0  0  0  0  0  0999 V2000
   59.5960   34.9650   47.2700 C   0  0  0  0  0  0  0  0  0  0  0  0
   58.8790   34.0240   46.3610 C   0  0  0  0  0  0  0  0  0  0  0  0
   58.7920   32.6920   46.5710 N   0  0  0  0  0  0  0  0  0  0  0  0
   58.1560   32.0390   45.5550 C   0  0  0  0  0  0  0  0  0  0  0  0
   57.9330   30.5720   45.5660 C   0  0  0  0  0  0  0  0  0  0  0  0
   58.4660   29.7720   46.5940 C   0  0  0  0  0  0  0  0  0  0  0  0
   58.2540   28.3910   46.6000 C   0  0  0  0  0  0  0  0  0  0  0  0
   57.5230   27.7810   45.5760 C   0  0  0  0  0  0  0  0  0  0  0  0
   57.3060   26.3650   45.6250 N   0  0  0  0  0  0  0  0  0  0  0  0
   56.1080   25.7250   46.0840 C   0  0  0  0  0  0  0  0  0  0  0  0
   55.0150   26.3450   45.9850 O   0  0  0  0  0  0  0  0  0  0  0  0
   56.1390   24.4230   46.6990 N   0  0  0  0  0  0  0  0  0  0  0  0
   57.3100   24.0020   47.4750 C   0  0  0  0  0  0  0  0  0  0  0  0
   54.9340   23.5910   46.6670 C   0  0  0  0  0  0  0  0  0  0  0  0
   56.9710   28.5750   44.5580 C   0  0  0  0  0  0  0  0  0  0  0  0
   57.1810   29.9570   44.5490 C   0  0  0  0  0  0  0  0  0  0  0  0
   57.7430   32.8710   44.5100 C   0  0  0  0  0  0  0  0  0  0  0  0
   58.1940   34.4480   44.8870 S   0  0  0  0  0  0  0  0  0  0  0  0
   59.3893   34.6937   48.3158 H   0  0  0  0  0  0  0  0  0  0  0  0
   60.6781   34.9032   47.0822 H   0  0  0  0  0  0  0  0  0  0  0  0
   59.2493   35.9919   47.0822 H   0  0  0  0  0  0  0  0  0  0  0  0
   59.2010   32.2230   47.4090 H   0  0  0  0  0  0  0  0  0  0  0  0
   59.0539   30.2375   47.3988 H   0  0  0  0  0  0  0  0  0  0  0  0
   58.6652   27.7791   47.4164 H   0  0  0  0  0  0  0  0  0  0  0  0
   57.0864   24.0824   48.5490 H   0  0  0  0  0  0  0  0  0  0  0  0
   57.5571   22.9587   47.2290 H   0  0  0  0  0  0  0  0  0  0  0  0
   58.1649   24.6491   47.2290 H   0  0  0  0  0  0  0  0  0  0  0  0
   54.6137   23.3698   47.6958 H   0  0  0  0  0  0  0  0  0  0  0  0
   54.1314   24.1282   46.1406 H   0  0  0  0  0  0  0  0  0  0  0  0
   55.1520   22.6501   46.1406 H   0  0  0  0  0  0  0  0  0  0  0  0
   56.3705   28.1074   43.7638 H   0  0  0  0  0  0  0  0  0  0  0  0
   56.7547   30.5684   43.7400 H   0  0  0  0  0  0  0  0  0  0  0  0
   57.2151   32.5506   43.5997 H   0  0  0  0  0  0  0  0  0  0  0  0
  1  2  1  0
  2  3  2  0
  3  4  1  0
  4  5  1  0
  5  6  2  0
  6  7  1  0
  7  8  2  0
  8  9  1  0
  9 10  1  0
 10 11  2  0
 10 12  1  0
 12 13  1  0
 12 14  1  0
  8 15  1  0
 15 16  2  0
  4 17  2  0
 17 18  1  0
 18  2  1  0
 16  5  1  0
  1 19  1  0
  1 20  1  0
  1 21  1  0
  3 22  1  0
  6 23  1  0
  7 24  1  0
 13 25  1  0
 13 26  1  0
 13 27  1  0
 14 28  1  0
 14 29  1  0
 14 30  1  0
 15 31  1  0
 16 32  1  0
 17 33  1  0
M  CHG  2   3   1   9  -1
M  END
>  <UniqueID>  (8) 
6

>  <SMILES>  (8) 
Cc1[nH+]c(-c2ccc([N-]C(=O)N(C)C)cc2)cs1

>  <Energy>  (8) 
67.57528463227965

>  <Genealogy>  (8) 
Cc1[nH+]c(-c2ccc([N-]C(=O)N(C)C)cc2)cs1 (protonated)
Cc1[nH+]c(-c2ccc([N-]C(=O)N(C)C)cc2)cs1 (3D coordinates assigned)
Cc1[nH+]c(-c2ccc([N-]C(=O)N(C)C)cc2)cs1 (optimized conformer: 67.57528463227965 kcal/mol)

>  <smiles>  (8) 
Cc1nc(-c2ccc(NC(=O)N(C)C)cc2)cs1

>  <score_type>  (8) 
oracle

>  <origin>  (8) 
adg

>  <m_score__min__energy>  (8) 
-6.7300000000000004

>  <m_primary>  (8) 
energy

$$$$
8:0
     RDKit          3D

 44 46  0  0  0  0  0  0  0  0999 V2000
   62.7138   34.4989   46.3726 H   0  0  0  0  0  0  0  0  0  0  0  0
   62.1350   33.7850   46.9770 C   0  0  0  0  0  0  0  0  0  0  0  0
   60.8330   34.2430   47.5080 C   0  0  0  0  0  0  0  0  0  0  0  0
   60.8180   34.8090   48.6340 O   0  0  0  0  0  0  0  0  0  0  0  0
   59.5520   34.0230   46.7940 C   0  0  0  0  0  0  0  0  0  0  0  0
   59.2440   34.7400   45.6220 C   0  0  0  0  0  0  0  0  0  0  0  0
   59.9706   35.4572   45.2124 H   0  0  0  0  0  0  0  0  0  0  0  0
   58.0190   34.5450   44.9760 C   0  0  0  0  0  0  0  0  0  0  0  0
   57.7803   35.1170   44.0672 H   0  0  0  0  0  0  0  0  0  0  0  0
   57.0980   33.6250   45.4830 C   0  0  0  0  0  0  0  0  0  0  0  0
   56.1329   33.4765   44.9765 H   0  0  0  0  0  0  0  0  0  0  0  0
   57.4030   32.8940   46.6330 C   0  0  0  0  0  0  0  0  0  0  0  0
   56.6798   32.1649   47.0272 H   0  0  0  0  0  0  0  0  0  0  0  0
   58.6250   33.0860   47.2850 C   0  0  0  0  0  0  0  0  0  0  0  0
   58.8625   32.5015   48.1861 H   0  0  0  0  0  0  0  0  0  0  0  0
   62.6680   32.5680   47.1730 C   0  0  0  0  0  0  0  0  0  0  0  0
   63.5241   32.2812   46.5446 H   0  0  0  0  0  0  0  0  0  0  0  0
   62.1920   31.5840   48.1690 C   0  0  0  0  0  0  0  0  0  0  0  0
   62.5750   31.6670   49.5190 C   0  0  0  0  0  0  0  0  0  0  0  0
   63.2304   32.4848   49.8532 H   0  0  0  0  0  0  0  0  0  0  0  0
   62.1270   30.7160   50.4370 C   0  0  0  0  0  0  0  0  0  0  0  0
   62.4508   30.7712   51.4868 H   0  0  0  0  0  0  0  0  0  0  0  0
   61.2680   29.6940   50.0250 C   0  0  0  0  0  0  0  0  0  0  0  0
   60.9369   28.9319   50.7458 H   0  0  0  0  0  0  0  0  0  0  0  0
   60.8260   29.6370   48.6930 C   0  0  0  0  0  0  0  0  0  0  0  0
   59.8980   28.5810   48.2400 C   0  0  0  0  0  0  0  0  0  0  0  0
   60.2454   27.5389   48.2969 H   0  0  0  0  0  0  0  0  0  0  0  0
   58.6620   28.7990   47.7640 C   0  0  0  0  0  0  0  0  0  0  0  0
   57.9546   29.3284   48.4192 H   0  0  0  0  0  0  0  0  0  0  0  0
   58.1730   28.3850   46.4290 C   0  0  0  0  0  0  0  0  0  0  0  0
   58.0770   27.1510   46.1880 O   0  0  0  0  0  0  0  0  0  0  0  0
   57.8240   29.3530   45.3610 C   0  0  0  0  0  0  0  0  0  0  0  0
   58.8000   30.2590   44.9080 C   0  0  0  0  0  0  0  0  0  0  0  0
   59.7955   30.2679   45.3760 H   0  0  0  0  0  0  0  0  0  0  0  0
   58.5150   31.1470   43.8690 C   0  0  0  0  0  0  0  0  0  0  0  0
   59.2884   31.8440   43.5141 H   0  0  0  0  0  0  0  0  0  0  0  0
   57.2490   31.1510   43.2800 C   0  0  0  0  0  0  0  0  0  0  0  0
   57.0294   31.8437   42.4542 H   0  0  0  0  0  0  0  0  0  0  0  0
   56.2620   30.2770   43.7380 C   0  0  0  0  0  0  0  0  0  0  0  0
   55.2635   30.2883   43.2766 H   0  0  0  0  0  0  0  0  0  0  0  0
   56.5370   29.3870   44.7810 C   0  0  0  0  0  0  0  0  0  0  0  0
   55.5240   28.5510   45.2410 O   0  0  0  0  0  0  0  0  0  0  0  0
   61.3050   30.5750   47.7660 C   0  0  0  0  0  0  0  0  0  0  0  0
   60.9826   30.5187   46.7158 H   0  0  0  0  0  0  0  0  0  0  0  0
  1  2  1  0
  2  3  1  0
  3  4  2  0
  3  5  1  0
  5  6  2  0
  6  7  1  0
  6  8  1  0
  8  9  1  0
  8 10  2  0
 10 11  1  0
 10 12  1  0
 12 13  1  0
 12 14  2  0
 14 15  1  0
  2 16  2  3
 16 17  1  0
 16 18  1  0
 18 19  2  0
 19 20  1  0
 19 21  1  0
 21 22  1  0
 21 23  2  0
 23 24  1  0
 23 25  1  0
 25 26  1  0
 26 27  1  0
 26 28  2  0
 28 29  1  0
 28 30  1  0
 30 31  2  0
 30 32  1  0
 32 33  2  0
 33 34  1  0
 33 35  1  0
 35 36  1  0
 35 37  2  0
 37 38  1  0
 37 39  1  0
 39 40  1  0
 39 41  2  0
 41 42  1  0
 25 43  2  0
 43 44  1  0
 14  5  1  0
 43 18  1  0
 41 32  1  0
M  CHG  1  42  -1
M  END
>  <UniqueID>  (9) 
7

>  <SMILES>  (9) 
O=C(C=Cc1cccc(/C=C\C(=O)c2ccccc2[O-])c1)c1ccccc1

>  <Energy>  (9) 
68.17256126108566

>  <Genealogy>  (9) 
O=C(C=Cc1cccc(C=CC(=O)c2ccccc2[O-])c1)c1ccccc1 (protonated)
O=C(C=Cc1cccc(/C=C\C(=O)c2ccccc2[O-])c1)c1ccccc1 (cis-trans isomerization)
O=C(C=Cc1cccc(/C=C\C(=O)c2ccccc2[O-])c1)c1ccccc1 (3D coordinates assigned)
O=C(C=Cc1cccc(/C=C\C(=O)c2ccccc2[O-])c1)c1ccccc1 (optimized conformer: 68.17256126108566 kcal/mol)

>  <smiles>  (9) 
O=C(C=Cc1cccc(C=CC(=O)c2ccccc2O)c1)c1ccccc1

>  <score_type>  (9) 
oracle

>  <origin>  (9) 
adg

>  <m_score__min__energy>  (9) 
-14.02

>  <m_primary>  (9) 
energy

$$$$
9:0
     RDKit          3D

 38 40  0  0  0  0  0  0  0  0999 V2000
   59.6730   22.2300   44.8960 C   0  0  0  0  0  0  0  0  0  0  0  0
   58.4250   21.7650   44.2900 N   0  0  0  0  0  0  0  0  0  0  0  0
   57.2970   22.0080   45.1970 C   0  0  0  0  0  0  0  0  0  0  0  0
   56.6470   23.3720   44.9030 C   0  0  0  0  0  0  0  0  0  0  0  0
   57.3280   24.1160   43.8270 N   0  0  0  0  0  0  0  0  0  0  0  0
   57.4720   25.5150   44.1510 C   0  0  0  0  0  0  0  0  0  0  0  0
   57.1350   25.9880   45.4300 C   0  0  0  0  0  0  0  0  0  0  0  0
   57.2910   27.3400   45.7500 C   0  0  0  0  0  0  0  0  0  0  0  0
   57.7890   28.2460   44.7980 C   0  0  0  0  0  0  0  0  0  0  0  0
   57.9550   29.6760   45.1370 C   0  0  0  0  0  0  0  0  0  0  0  0
   57.0060   30.6140   44.8720 N   0  0  0  0  0  0  0  0  0  0  0  0
   57.5660   31.7400   45.3370 C   0  0  0  0  0  0  0  0  0  0  0  0
   57.0310   33.0260   45.3260 C   0  0  0  0  0  0  0  0  0  0  0  0
   57.8110   34.0620   45.8770 C   0  0  0  0  0  0  0  0  0  0  0  0
   59.0880   33.7840   46.4150 C   0  0  0  0  0  0  0  0  0  0  0  0
   59.5950   32.4710   46.4080 C   0  0  0  0  0  0  0  0  0  0  0  0
   58.7940   31.4730   45.8550 C   0  0  0  0  0  0  0  0  0  0  0  0
   59.0710   30.1670   45.7430 N   0  0  0  0  0  0  0  0  0  0  0  0
   58.1270   27.7720   43.5180 C   0  0  0  0  0  0  0  0  0  0  0  0
   57.9700   26.4200   43.1980 C   0  0  0  0  0  0  0  0  0  0  0  0
   59.5832   22.1966   45.9918 H   0  0  0  0  0  0  0  0  0  0  0  0
   60.5006   21.5799   44.5759 H   0  0  0  0  0  0  0  0  0  0  0  0
   59.8734   23.2631   44.5759 H   0  0  0  0  0  0  0  0  0  0  0  0
   58.5100   20.7310   44.1470 H   0  0  0  0  0  0  0  0  0  0  0  0
   56.5476   21.2142   45.0620 H   0  0  0  0  0  0  0  0  0  0  0  0
   57.6692   22.0092   46.2321 H   0  0  0  0  0  0  0  0  0  0  0  0
   55.6012   23.2049   44.6058 H   0  0  0  0  0  0  0  0  0  0  0  0
   56.7226   23.9763   45.8190 H   0  0  0  0  0  0  0  0  0  0  0  0
   56.7570   24.0300   42.9530 H   0  0  0  0  0  0  0  0  0  0  0  0
   58.2590   23.6840   43.6220 H   0  0  0  0  0  0  0  0  0  0  0  0
   56.7455   25.2896   46.1853 H   0  0  0  0  0  0  0  0  0  0  0  0
   57.0218   27.6975   46.7549 H   0  0  0  0  0  0  0  0  0  0  0  0
   56.0356   33.2256   44.9025 H   0  0  0  0  0  0  0  0  0  0  0  0
   57.4243   35.0917   45.8885 H   0  0  0  0  0  0  0  0  0  0  0  0
   59.6899   34.5996   46.8422 H   0  0  0  0  0  0  0  0  0  0  0  0
   60.5871   32.2407   46.8237 H   0  0  0  0  0  0  0  0  0  0  0  0
   58.5178   28.4700   42.7629 H   0  0  0  0  0  0  0  0  0  0  0  0
   58.2382   26.0621   42.1930 H   0  0  0  0  0  0  0  0  0  0  0  0
  1  2  1  0
  2  3  1  0
  3  4  1  0
  4  5  1  0
  5  6  1  0
  6  7  2  0
  7  8  1  0
  8  9  2  0
  9 10  1  0
 10 11  2  0
 11 12  1  0
 12 13  2  0
 13 14  1  0
 14 15  2  0
 15 16  1  0
 16 17  2  0
 17 18  1  0
  9 19  1  0
 19 20  2  0
 20  6  1  0
 18 10  1  0
 17 12  1  0
  1 21  1  0
  1 22  1  0
  1 23  1  0
  2 24  1  0
  3 25  1  0
  3 26  1  0
  4 27  1  0
  4 28  1  0
  5 29  1  0
  5 30  1  0
  7 31  1  0
  8 32  1  0
 13 33  1  0
 14 34  1  0
 15 35  1  0
 16 36  1  0
 19 37  1  0
 20 38  1  0
M  CHG  2   5   1  18  -1
M  END
>  <UniqueID>  (10) 
8

>  <SMILES>  (10) 
CNCC[NH2+]c1ccc(-c2nc3ccccc3[n-]2)cc1

>  <Energy>  (10) 
73.15840978269935

>  <Genealogy>  (10) 
CNCC[NH2+]c1ccc(-c2nc3ccccc3[n-]2)cc1 (protonated)
CNCC[NH2+]c1ccc(-c2nc3ccccc3[n-]2)cc1 (3D coordinates assigned)
CNCC[NH2+]c1ccc(-c2nc3ccccc3[n-]2)cc1 (optimized conformer: 73.15840978269935 kcal/mol)

>  <smiles>  (10) 
CNCCNc1ccc(-c2nc3ccccc3[nH]2)cc1

>  <score_type>  (10) 
oracle

>  <origin>  (10) 
adg

>  <m_score__min__energy>  (10) 
-5.8099999999999996

>  <m_primary>  (10) 
energy

$$$$
10:0
     RDKit          3D

 35 37  0  0  0  0  0  0  0  0999 V2000
   59.6560   34.5130   48.0710 C   0  0  0  0  0  0  0  0  0  0  0  0
   59.3130   33.9900   46.7150 C   0  0  0  0  0  0  0  0  0  0  0  0
   59.5490   34.6050   45.5020 C   0  0  0  0  0  0  0  0  0  0  0  0
   58.9970   33.8530   44.5320 N   0  0  0  0  0  0  0  0  0  0  0  0
   58.4150   32.7970   45.0840 N   0  0  0  0  0  0  0  0  0  0  0  0
   57.6990   31.7780   44.3590 C   0  0  0  0  0  0  0  0  0  0  0  0
   57.6270   31.8150   42.9560 C   0  0  0  0  0  0  0  0  0  0  0  0
   56.9230   30.8310   42.2580 C   0  0  0  0  0  0  0  0  0  0  0  0
   56.2730   29.8070   42.9520 C   0  0  0  0  0  0  0  0  0  0  0  0
   56.3120   29.7650   44.3490 C   0  0  0  0  0  0  0  0  0  0  0  0
   55.6410   28.6970   45.0320 N   0  0  0  0  0  0  0  0  0  0  0  0
   56.2600   27.5470   45.6270 C   0  0  0  0  0  0  0  0  0  0  0  0
   55.5510   26.5310   45.8540 O   0  0  0  0  0  0  0  0  0  0  0  0
   57.6830   27.5500   46.0330 C   0  0  0  0  0  0  0  0  0  0  0  0
   58.5560   26.5370   45.6050 C   0  0  0  0  0  0  0  0  0  0  0  0
   59.8960   26.5730   46.0010 C   0  0  0  0  0  0  0  0  0  0  0  0
   60.3520   27.6060   46.8200 C   0  0  0  0  0  0  0  0  0  0  0  0
   59.4560   28.5920   47.2370 C   0  0  0  0  0  0  0  0  0  0  0  0
   58.1560   28.5400   46.8410 N   0  0  0  0  0  0  0  0  0  0  0  0
   57.0540   30.7360   45.0480 C   0  0  0  0  0  0  0  0  0  0  0  0
   58.5820   32.8560   46.4220 C   0  0  0  0  0  0  0  0  0  0  0  0
   59.2238   33.8539   48.8383 H   0  0  0  0  0  0  0  0  0  0  0  0
   60.7495   34.5426   48.1868 H   0  0  0  0  0  0  0  0  0  0  0  0
   59.2474   35.5277   48.1868 H   0  0  0  0  0  0  0  0  0  0  0  0
   60.0949   35.5484   45.3536 H   0  0  0  0  0  0  0  0  0  0  0  0
   59.0330   34.0610   43.5090 H   0  0  0  0  0  0  0  0  0  0  0  0
   58.1281   32.6239   42.4041 H   0  0  0  0  0  0  0  0  0  0  0  0
   56.8802   30.8622   41.1593 H   0  0  0  0  0  0  0  0  0  0  0  0
   55.7278   29.0299   42.3963 H   0  0  0  0  0  0  0  0  0  0  0  0
   58.1886   25.7223   44.9637 H   0  0  0  0  0  0  0  0  0  0  0  0
   60.5901   25.7877   45.6672 H   0  0  0  0  0  0  0  0  0  0  0  0
   61.4057   27.6433   47.1337 H   0  0  0  0  0  0  0  0  0  0  0  0
   59.8013   29.4106   47.8856 H   0  0  0  0  0  0  0  0  0  0  0  0
   57.1298   30.6788   46.1439 H   0  0  0  0  0  0  0  0  0  0  0  0
   58.2016   32.1269   47.1525 H   0  0  0  0  0  0  0  0  0  0  0  0
  1  2  1  0
  2  3  1  0
  3  4  2  0
  4  5  1  0
  5  6  1  0
  6  7  2  0
  7  8  1  0
  8  9  2  0
  9 10  1  0
 10 11  1  0
 11 12  1  0
 12 13  2  0
 12 14  1  0
 14 15  2  0
 15 16  1  0
 16 17  2  0
 17 18  1  0
 18 19  2  0
 10 20  2  0
  5 21  1  0
 21  2  2  0
 20  6  1  0
 19 14  1  0
  1 22  1  0
  1 23  1  0
  1 24  1  0
  3 25  1  0
  4 26  1  0
  7 27  1  0
  8 28  1  0
  9 29  1  0
 15 30  1  0
 16 31  1  0
 17 32  1  0
 18 33  1  0
 20 34  1  0
 21 35  1  0
M  CHG  2   4   1  11  -1
M  END
>  <UniqueID>  (11) 
9

>  <SMILES>  (11) 
Cc1c[nH+]n(-c2cccc([N-]C(=O)c3ccccn3)c2)c1

>  <Energy>  (11) 
75.88115084826869

>  <Genealogy>  (11) 
Cc1c[nH+]n(-c2cccc([N-]C(=O)c3ccccn3)c2)c1 (protonated)
Cc1c[nH+]n(-c2cccc([N-]C(=O)c3ccccn3)c2)c1 (3D coordinates assigned)
Cc1c[nH+]n(-c2cccc([N-]C(=O)c3ccccn3)c2)c1 (optimized conformer: 75.88115084826869 kcal/mol)

>  <smiles>  (11) 
Cc1cnn(-c2cccc(NC(=O)c3ccccn3)c2)c1

>  <score_type>  (11) 
oracle

>  <origin>  (11) 
adg

>  <m_score__min__energy>  (11) 
-8.4000000000000004

>  <m_primary>  (11) 
energy

$$$$
11:0
     RDKit          3D

 34 35  0  0  0  0  0  0  0  0999 V2000
   57.1697   23.7822   45.7794 H   0  0  0  0  0  0  0  0  0  0  0  0
   57.1640   24.8820   45.7570 C   0  0  0  0  0  0  0  0  0  0  0  0
   55.9540   25.5810   45.6850 C   0  0  0  0  0  0  0  0  0  0  0  0
   54.6540   24.8420   45.6350 C   0  0  0  0  0  0  0  0  0  0  0  0
   54.3053   24.6438   46.6593 H   0  0  0  0  0  0  0  0  0  0  0  0
   53.9066   25.4503   45.1045 H   0  0  0  0  0  0  0  0  0  0  0  0
   54.7943   23.8887   45.1045 H   0  0  0  0  0  0  0  0  0  0  0  0
   55.9610   26.9420   45.6770 N   0  0  0  0  0  0  0  0  0  0  0  0
   57.1100   27.6690   45.7380 C   0  0  0  0  0  0  0  0  0  0  0  0
   57.0220   28.9690   45.7270 N   0  0  0  0  0  0  0  0  0  0  0  0
   56.2120   29.7820   44.8650 C   0  0  0  0  0  0  0  0  0  0  0  0
   55.1080   29.3330   44.4610 O   0  0  0  0  0  0  0  0  0  0  0  0
   56.6080   31.1040   44.4750 N   0  0  0  0  0  0  0  0  0  0  0  0
   57.4560   31.9880   45.2230 C   0  0  0  0  0  0  0  0  0  0  0  0
   57.1530   33.3500   45.3720 C   0  0  0  0  0  0  0  0  0  0  0  0
   56.2487   33.7647   44.9026 H   0  0  0  0  0  0  0  0  0  0  0  0
   57.9940   34.1800   46.1130 C   0  0  0  0  0  0  0  0  0  0  0  0
   57.7425   35.2444   46.2305 H   0  0  0  0  0  0  0  0  0  0  0  0
   59.1590   33.6710   46.7110 C   0  0  0  0  0  0  0  0  0  0  0  0
   60.0460   34.5950   47.5030 C   0  0  0  0  0  0  0  0  0  0  0  0
   59.8842   34.4265   48.5779 H   0  0  0  0  0  0  0  0  0  0  0  0
   61.0988   34.3947   47.2548 H   0  0  0  0  0  0  0  0  0  0  0  0
   59.8029   35.6387   47.2548 H   0  0  0  0  0  0  0  0  0  0  0  0
   59.4920   32.3070   46.5290 C   0  0  0  0  0  0  0  0  0  0  0  0
   60.7350   31.7180   47.1400 C   0  0  0  0  0  0  0  0  0  0  0  0
   60.6574   31.7548   48.2366 H   0  0  0  0  0  0  0  0  0  0  0  0
   60.8435   30.6727   46.8150 H   0  0  0  0  0  0  0  0  0  0  0  0
   61.6126   32.2960   46.8150 H   0  0  0  0  0  0  0  0  0  0  0  0
   58.6320   31.4810   45.7840 C   0  0  0  0  0  0  0  0  0  0  0  0
   58.8880   30.4209   45.6405 H   0  0  0  0  0  0  0  0  0  0  0  0
   58.3450   26.9900   45.7830 C   0  0  0  0  0  0  0  0  0  0  0  0
   59.2880   27.5559   45.8046 H   0  0  0  0  0  0  0  0  0  0  0  0
   58.3620   25.5930   45.8000 C   0  0  0  0  0  0  0  0  0  0  0  0
   59.3201   25.0547   45.8473 H   0  0  0  0  0  0  0  0  0  0  0  0
  1  2  1  0
  2  3  2  0
  3  4  1  0
  4  5  1  0
  4  6  1  0
  4  7  1  0
  3  8  1  0
  8  9  1  0
  9 10  2  0
 10 11  1  0
 11 12  2  0
 11 13  1  0
 13 14  1  0
 14 15  2  0
 15 16  1  0
 15 17  1  0
 17 18  1  0
 17 19  2  0
 19 20  1  0
 20 21  1  0
 20 22  1  0
 20 23  1  0
 19 24  1  0
 24 25  1  0
 25 26  1  0
 25 27  1  0
 25 28  1  0
 24 29  2  0
 29 30  1  0
  9 31  1  0
 31 32  1  0
 31 33  2  0
 33 34  1  0
 33  2  1  0
 29 14  1  0
M  CHG  2   8  -1  13  -1
M  END
>  <UniqueID>  (12) 
10

>  <SMILES>  (12) 
Cc1ccc/c(=N\C(=O)[N-]c2ccc(C)c(C)c2)[n-]1

>  <Energy>  (12) 
44.78694550517661

>  <Genealogy>  (12) 
Cc1cccc(=NC(=O)[N-]c2ccc(C)c(C)c2)[n-]1 (protonated)
Cc1ccc/c(=N\C(=O)[N-]c2ccc(C)c(C)c2)[n-]1 (cis-trans isomerization)
Cc1ccc/c(=N\C(=O)[N-]c2ccc(C)c(C)c2)[n-]1 (3D coordinates assigned)
Cc1ccc/c(=N\C(=O)[N-]c2ccc(C)c(C)c2)[n-]1 (optimized conformer: 44.78694550517661 kcal/mol)

>  <smiles>  (12) 
Cc1cccc(=NC(=O)Nc2ccc(C)c(C)c2)[nH]1

>  <score_type>  (12) 
oracle

>  <origin>  (12) 
adg

>  <m_score__min__energy>  (12) 
-9.6699999999999999

>  <m_primary>  (12) 
energy

$$$$
12:0
     RDKit          3D

 34 35  0  0  0  0  0  0  0  0999 V2000
   57.3210   32.5420   45.1890 C   0  0  0  0  0  0  0  0  0  0  0  0
   56.7170   31.3030   44.8870 O   0  0  0  0  0  0  0  0  0  0  0  0
   57.6060   30.4920   44.1430 C   0  0  0  0  0  0  0  0  0  0  0  0
   57.9550   29.2460   44.9140 C   0  0  0  0  0  0  0  0  0  0  0  0
   58.8450   29.3070   45.9950 C   0  0  0  0  0  0  0  0  0  0  0  0
   59.1600   28.1500   46.7190 C   0  0  0  0  0  0  0  0  0  0  0  0
   60.0880   28.2270   47.8960 C   0  0  0  0  0  0  0  0  0  0  0  0
   58.5500   26.9330   46.3810 C   0  0  0  0  0  0  0  0  0  0  0  0
   57.6440   26.8530   45.3060 C   0  0  0  0  0  0  0  0  0  0  0  0
   57.0210   25.5950   44.9550 N   0  0  0  0  0  0  0  0  0  0  0  0
   57.4080   24.7770   43.8060 C   0  0  0  0  0  0  0  0  0  0  0  0
   56.6300   23.4430   43.8570 C   0  0  0  0  0  0  0  0  0  0  0  0
   55.3050   23.6380   44.6010 C   0  0  0  0  0  0  0  0  0  0  0  0
   55.6150   24.9660   45.7130 S   0  0  0  0  0  0  0  0  0  0  0  0
   54.4910   25.9620   45.7130 O   0  0  0  0  0  0  0  0  0  0  0  0
   55.9140   24.4670   47.0990 O   0  0  0  0  0  0  0  0  0  0  0  0
   57.3580   28.0230   44.5760 C   0  0  0  0  0  0  0  0  0  0  0  0
   57.3807   32.6644   46.2805 H   0  0  0  0  0  0  0  0  0  0  0  0
   58.3339   32.5701   44.7609 H   0  0  0  0  0  0  0  0  0  0  0  0
   56.7193   33.3573   44.7609 H   0  0  0  0  0  0  0  0  0  0  0  0
   57.1285   30.2082   43.1936 H   0  0  0  0  0  0  0  0  0  0  0  0
   58.5278   31.0601   43.9492 H   0  0  0  0  0  0  0  0  0  0  0  0
   59.2986   30.2688   46.2764 H   0  0  0  0  0  0  0  0  0  0  0  0
   59.5042   28.1786   48.8270 H   0  0  0  0  0  0  0  0  0  0  0  0
   60.7943   27.3844   47.8618 H   0  0  0  0  0  0  0  0  0  0  0  0
   60.6457   29.1745   47.8618 H   0  0  0  0  0  0  0  0  0  0  0  0
   58.7824   26.0292   46.9633 H   0  0  0  0  0  0  0  0  0  0  0  0
   57.1661   25.3102   42.8748 H   0  0  0  0  0  0  0  0  0  0  0  0
   58.4896   24.5792   43.8366 H   0  0  0  0  0  0  0  0  0  0  0  0
   56.4253   23.1011   42.8317 H   0  0  0  0  0  0  0  0  0  0  0  0
   57.2347   22.6921   44.3866 H   0  0  0  0  0  0  0  0  0  0  0  0
   54.4996   23.8990   43.8987 H   0  0  0  0  0  0  0  0  0  0  0  0
   54.9789   22.7250   45.1206 H   0  0  0  0  0  0  0  0  0  0  0  0
   56.6571   27.9768   43.7295 H   0  0  0  0  0  0  0  0  0  0  0  0
  1  2  1  0
  2  3  1  0
  3  4  1  0
  4  5  2  0
  5  6  1  0
  6  7  1  0
  6  8  2  0
  8  9  1  0
  9 10  1  0
 10 11  1  0
 11 12  1  0
 12 13  1  0
 13 14  1  0
 14 15  2  0
 14 16  2  0
  9 17  2  0
 17  4  1  0
 14 10  1  0
  1 18  1  0
  1 19  1  0
  1 20  1  0
  3 21  1  0
  3 22  1  0
  5 23  1  0
  7 24  1  0
  7 25  1  0
  7 26  1  0
  8 27  1  0
 11 28  1  0
 11 29  1  0
 12 30  1  0
 12 31  1  0
 13 32  1  0
 13 33  1  0
 17 34  1  0
M  END
>  <UniqueID>  (13) 
11

>  <SMILES>  (13) 
COCc1cc(C)cc(N2CCCS2(=O)=O)c1

>  <Energy>  (13) 
40.06626844645522

>  <Genealogy>  (13) 
COCc1cc(C)cc(N2CCCS2(=O)=O)c1 (3D coordinates assigned)
COCc1cc(C)cc(N2CCCS2(=O)=O)c1 (nonaromatic ring conformer: 40.06626844645522 kcal/mol)

>  <smiles>  (13) 
COCc1cc(C)cc(N2CCCS2(=O)=O)c1

>  <score_type>  (13) 
oracle

>  <origin>  (13) 
adg

>  <m_score__min__energy>  (13) 
-6.7800000000000002

>  <m_primary>  (13) 
energy

$$$$
13:0
     RDKit          3D

 39 41  0  0  0  0  0  0  0  0999 V2000
   52.5390   22.3100   47.5330 C   0  0  0  0  0  0  0  0  0  0  0  0
   52.3420   22.8850   46.1390 C   0  0  0  0  0  0  0  0  0  0  0  0
   53.5610   22.7780   45.4090 O   0  0  0  0  0  0  0  0  0  0  0  0
   54.7100   22.1040   45.8560 C   0  0  0  0  0  0  0  0  0  0  0  0
   54.7480   20.6980   45.9390 C   0  0  0  0  0  0  0  0  0  0  0  0
   55.9130   20.0420   46.3410 C   0  0  0  0  0  0  0  0  0  0  0  0
   57.0530   20.7770   46.6620 C   0  0  0  0  0  0  0  0  0  0  0  0
   58.1840   20.1360   47.0480 F   0  0  0  0  0  0  0  0  0  0  0  0
   57.0300   22.1700   46.5920 C   0  0  0  0  0  0  0  0  0  0  0  0
   55.8600   22.8510   46.2060 C   0  0  0  0  0  0  0  0  0  0  0  0
   55.8800   24.3330   46.1620 C   0  0  0  0  0  0  0  0  0  0  0  0
   56.9900   25.1580   46.2030 C   0  0  0  0  0  0  0  0  0  0  0  0
   56.4670   26.4290   46.0930 C   0  0  0  0  0  0  0  0  0  0  0  0
   57.2360   27.6830   46.0800 C   0  0  0  0  0  0  0  0  0  0  0  0
   58.2120   27.8180   46.8680 O   0  0  0  0  0  0  0  0  0  0  0  0
   56.8990   28.7310   45.1570 N   0  0  0  0  0  0  0  0  0  0  0  0
   57.4630   30.0540   45.2170 C   0  0  0  0  0  0  0  0  0  0  0  0
   58.0910   30.5090   46.3910 C   0  0  0  0  0  0  0  0  0  0  0  0
   58.6140   31.8030   46.4590 C   0  0  0  0  0  0  0  0  0  0  0  0
   58.5070   32.6600   45.3620 C   0  0  0  0  0  0  0  0  0  0  0  0
   59.1640   34.2850   45.4500 Cl  0  0  0  0  0  0  0  0  0  0  0  0
   57.8720   32.2250   44.1960 C   0  0  0  0  0  0  0  0  0  0  0  0
   57.3450   30.9300   44.1200 C   0  0  0  0  0  0  0  0  0  0  0  0
   56.5730   30.4220   42.6220 Cl  0  0  0  0  0  0  0  0  0  0  0  0
   55.1260   26.3620   45.9860 N   0  0  0  0  0  0  0  0  0  0  0  0
   54.7700   25.0870   46.0230 N   0  0  0  0  0  0  0  0  0  0  0  0
   52.2784   23.0707   48.2836 H   0  0  0  0  0  0  0  0  0  0  0  0
   51.8909   21.4306   47.6619 H   0  0  0  0  0  0  0  0  0  0  0  0
   53.5902   22.0128   47.6619 H   0  0  0  0  0  0  0  0  0  0  0  0
   51.5516   22.3243   45.6185 H   0  0  0  0  0  0  0  0  0  0  0  0
   52.0493   23.9426   46.2146 H   0  0  0  0  0  0  0  0  0  0  0  0
   53.8523   20.1123   45.6849 H   0  0  0  0  0  0  0  0  0  0  0  0
   55.9313   18.9440   46.4045 H   0  0  0  0  0  0  0  0  0  0  0  0
   57.9357   22.7424   46.8411 H   0  0  0  0  0  0  0  0  0  0  0  0
   58.0463   24.8670   46.3008 H   0  0  0  0  0  0  0  0  0  0  0  0
   56.2550   28.5040   44.3660 H   0  0  0  0  0  0  0  0  0  0  0  0
   58.1708   29.8413   47.2615 H   0  0  0  0  0  0  0  0  0  0  0  0
   59.1108   32.1470   47.3782 H   0  0  0  0  0  0  0  0  0  0  0  0
   57.7857   32.9028   43.3340 H   0  0  0  0  0  0  0  0  0  0  0  0
  1  2  1  0
  2  3  1  0
  3  4  1  0
  4  5  2  0
  5  6  1  0
  6  7  2  0
  7  8  1  0
  7  9  1  0
  9 10  2  0
 10 11  1  0
 11 12  1  0
 12 13  2  0
 13 14  1  0
 14 15  2  0
 14 16  1  0
 16 17  1  0
 17 18  2  0
 18 19  1  0
 19 20  2  0
 20 21  1  0
 20 22  1  0
 22 23  2  0
 23 24  1  0
 13 25  1  0
 25 26  1  0
 10  4  1  0
 26 11  2  0
 23 17  1  0
  1 27  1  0
  1 28  1  0
  1 29  1  0
  2 30  1  0
  2 31  1  0
  5 32  1  0
  6 33  1  0
  9 34  1  0
 12 35  1  0
 16 36  1  0
 18 37  1  0
 19 38  1  0
 22 39  1  0
M  CHG  1  25  -1
M  END
>  <UniqueID>  (14) 
12

>  <SMILES>  (14) 
CCOc1ccc(F)cc1-c1cc(C(=O)Nc2ccc(Cl)cc2Cl)[n-]n1

>  <Energy>  (14) 
74.96553208640479

>  <Genealogy>  (14) 
CCOc1ccc(F)cc1-c1cc(C(=O)Nc2ccc(Cl)cc2Cl)[n-]n1 (protonated)
CCOc1ccc(F)cc1-c1cc(C(=O)Nc2ccc(Cl)cc2Cl)[n-]n1 (3D coordinates assigned)
CCOc1ccc(F)cc1-c1cc(C(=O)Nc2ccc(Cl)cc2Cl)[n-]n1 (optimized conformer: 74.96553208640479 kcal/mol)

>  <smiles>  (14) 
CCOc1ccc(F)cc1-c1cc(C(=O)Nc2ccc(Cl)cc2Cl)[nH]n1

>  <score_type>  (14) 
oracle

>  <origin>  (14) 
adg

>  <m_score__min__energy>  (14) 
-10.6

>  <m_primary>  (14) 
energy

$$$$
14:0
     RDKit          3D

 54 57  0  0  0  0  0  0  0  0999 V2000
   60.2950   29.4040   50.2130 N   0  0  0  0  0  0  0  0  0  0  0  0
   60.0200   28.8270   49.2470 C   0  0  0  0  0  0  0  0  0  0  0  0
   59.6790   28.1100   48.0480 C   0  0  0  0  0  0  0  0  0  0  0  0
   60.6850   27.5220   47.2730 C   0  0  0  0  0  0  0  0  0  0  0  0
   60.3530   26.8220   46.1110 C   0  0  0  0  0  0  0  0  0  0  0  0
   59.0180   26.7220   45.7090 C   0  0  0  0  0  0  0  0  0  0  0  0
   57.9990   27.3250   46.4660 C   0  0  0  0  0  0  0  0  0  0  0  0
   56.5860   27.2270   46.0200 C   0  0  0  0  0  0  0  0  0  0  0  0
   55.9020   26.2270   46.3630 O   0  0  0  0  0  0  0  0  0  0  0  0
   55.9520   28.2560   45.2460 N   0  0  0  0  0  0  0  0  0  0  0  0
   56.5750   29.4270   44.6970 C   0  0  0  0  0  0  0  0  0  0  0  0
   56.4500   29.6780   43.3260 C   0  0  0  0  0  0  0  0  0  0  0  0
   57.0320   30.8150   42.7620 C   0  0  0  0  0  0  0  0  0  0  0  0
   57.7480   31.7090   43.5610 C   0  0  0  0  0  0  0  0  0  0  0  0
   57.9010   31.4640   44.9360 C   0  0  0  0  0  0  0  0  0  0  0  0
   58.6510   32.4120   45.7940 C   0  0  0  0  0  0  0  0  0  0  0  0
   59.0690   32.0170   47.0770 C   0  0  0  0  0  0  0  0  0  0  0  0
   59.7400   32.9150   47.9210 C   0  0  0  0  0  0  0  0  0  0  0  0
   60.1750   32.4850   49.3000 C   0  0  0  0  0  0  0  0  0  0  0  0
   61.6320   32.2630   49.4180 N   0  0  0  0  0  0  0  0  0  0  0  0
   62.4510   33.4190   49.8420 C   0  0  0  0  0  0  0  0  0  0  0  0
   63.1130   34.1540   48.6680 C   0  0  0  0  0  0  0  0  0  0  0  0
   63.8540   33.1790   47.7590 C   0  0  0  0  0  0  0  0  0  0  0  0
   62.8970   32.1060   47.2540 C   0  0  0  0  0  0  0  0  0  0  0  0
   62.2500   31.3570   48.4270 C   0  0  0  0  0  0  0  0  0  0  0  0
   60.0320   34.2070   47.4570 C   0  0  0  0  0  0  0  0  0  0  0  0
   59.6240   34.6060   46.1840 C   0  0  0  0  0  0  0  0  0  0  0  0
   58.9300   33.7200   45.3540 C   0  0  0  0  0  0  0  0  0  0  0  0
   58.5030   34.1520   44.1410 F   0  0  0  0  0  0  0  0  0  0  0  0
   57.3320   30.3050   45.4930 C   0  0  0  0  0  0  0  0  0  0  0  0
   58.3390   28.0000   47.6540 C   0  0  0  0  0  0  0  0  0  0  0  0
   61.7378   27.6112   47.5792 H   0  0  0  0  0  0  0  0  0  0  0  0
   61.1438   26.3483   45.5108 H   0  0  0  0  0  0  0  0  0  0  0  0
   58.7632   26.1675   44.7938 H   0  0  0  0  0  0  0  0  0  0  0  0
   55.8907   28.9764   42.6897 H   0  0  0  0  0  0  0  0  0  0  0  0
   56.9261   31.0073   41.6841 H   0  0  0  0  0  0  0  0  0  0  0  0
   58.1940   32.6087   43.1120 H   0  0  0  0  0  0  0  0  0  0  0  0
   58.8677   30.9924   47.4231 H   0  0  0  0  0  0  0  0  0  0  0  0
   59.8831   33.2670   50.0165 H   0  0  0  0  0  0  0  0  0  0  0  0
   59.6839   31.5230   49.5081 H   0  0  0  0  0  0  0  0  0  0  0  0
   61.8035   34.1284   50.3782 H   0  0  0  0  0  0  0  0  0  0  0  0
   63.2576   33.0312   50.4816 H   0  0  0  0  0  0  0  0  0  0  0  0
   62.3372   34.6710   48.0842 H   0  0  0  0  0  0  0  0  0  0  0  0
   63.8380   34.8762   49.0714 H   0  0  0  0  0  0  0  0  0  0  0  0
   64.2722   33.7267   46.9016 H   0  0  0  0  0  0  0  0  0  0  0  0
   64.6647   32.7005   48.3279 H   0  0  0  0  0  0  0  0  0  0  0  0
   62.1091   32.5805   46.6506 H   0  0  0  0  0  0  0  0  0  0  0  0
   63.4639   31.3860   46.6456 H   0  0  0  0  0  0  0  0  0  0  0  0
   61.4721   30.6882   48.0300 H   0  0  0  0  0  0  0  0  0  0  0  0
   63.0463   30.7992   48.9416 H   0  0  0  0  0  0  0  0  0  0  0  0
   60.5848   34.9079   48.0997 H   0  0  0  0  0  0  0  0  0  0  0  0
   59.8495   35.6232   45.8312 H   0  0  0  0  0  0  0  0  0  0  0  0
   57.4803   30.0833   46.5602 H   0  0  0  0  0  0  0  0  0  0  0  0
   57.5479   28.4436   48.2764 H   0  0  0  0  0  0  0  0  0  0  0  0
  1  2  3  0
  2  3  1  0
  3  4  2  0
  4  5  1  0
  5  6  2  0
  6  7  1  0
  7  8  1  0
  8  9  2  0
  8 10  1  0
 10 11  1  0
 11 12  2  0
 12 13  1  0
 13 14  2  0
 14 15  1  0
 15 16  1  0
 16 17  2  0
 17 18  1  0
 18 19  1  0
 19 20  1  0
 20 21  1  0
 21 22  1  0
 22 23  1  0
 23 24  1  0
 24 25  1  0
 18 26  2  0
 26 27  1  0
 27 28  2  0
 28 29  1  0
 15 30  2  0
  7 31  2  0
 31  3  1  0
 30 11  1  0
 28 16  1  0
 25 20  1  0
  4 32  1  0
  5 33  1  0
  6 34  1  0
 12 35  1  0
 13 36  1  0
 14 37  1  0
 17 38  1  0
 19 39  1  0
 19 40  1  0
 21 41  1  0
 21 42  1  0
 22 43  1  0
 22 44  1  0
 23 45  1  0
 23 46  1  0
 24 47  1  0
 24 48  1  0
 25 49  1  0
 25 50  1  0
 26 51  1  0
 27 52  1  0
 30 53  1  0
 31 54  1  0
M  CHG  1  10  -1
M  END
>  <UniqueID>  (15) 
13

>  <SMILES>  (15) 
N#Cc1cccc(C(=O)[N-]c2cccc(-c3cc(CN4CCCCC4)ccc3F)c2)c1

>  <Energy>  (15) 
70.2506471283627

>  <Genealogy>  (15) 
N#Cc1cccc(C(=O)[N-]c2cccc(-c3cc(CN4CCCCC4)ccc3F)c2)c1 (protonated)
N#Cc1cccc(C(=O)[N-]c2cccc(-c3cc(CN4CCCCC4)ccc3F)c2)c1 (3D coordinates assigned)
N#Cc1cccc(C(=O)[N-]c2cccc(-c3cc(CN4CCCCC4)ccc3F)c2)c1 (nonaromatic ring conformer: 70.2506471283627 kcal/mol)

>  <smiles>  (15) 
N#Cc1cccc(C(=O)Nc2cccc(-c3cc(CN4CCCCC4)ccc3F)c2)c1

>  <score_type>  (15) 
oracle

>  <origin>  (15) 
adg

>  <m_score__min__energy>  (15) 
-11.98

>  <m_primary>  (15) 
energy

$$$$
15:0
     RDKit          3D

 51 55  0  0  0  0  0  0  0  0999 V2000
   55.5590   28.9690   44.8520 O   0  0  0  0  0  0  0  0  0  0  0  0
   56.4830   29.3640   44.0910 C   0  0  0  0  0  0  0  0  0  0  0  0
   56.4220   30.7450   43.5090 C   0  0  0  0  0  0  0  0  0  0  0  0
   56.5000   31.7330   44.5360 O   0  0  0  0  0  0  0  0  0  0  0  0
   57.6410   32.0110   45.3080 C   0  0  0  0  0  0  0  0  0  0  0  0
   57.9260   33.2940   45.8030 C   0  0  0  0  0  0  0  0  0  0  0  0
   59.0600   33.5120   46.5890 C   0  0  0  0  0  0  0  0  0  0  0  0
   59.9490   32.4600   46.9000 C   0  0  0  0  0  0  0  0  0  0  0  0
   61.1850   32.7410   47.7790 C   0  0  1  0  0  0  0  0  0  0  0  0
   60.7360   33.3740   49.1320 C   0  0  0  0  0  0  0  0  0  0  0  0
   61.9540   33.6130   50.0500 C   0  0  2  0  0  0  0  0  0  0  0  0
   62.9380   34.5820   49.3620 C   0  0  0  0  0  0  0  0  0  0  0  0
   63.4170   33.9660   48.0310 C   0  0  1  0  0  0  0  0  0  0  0  0
   64.1290   32.6270   48.3070 C   0  0  0  0  0  0  0  0  0  0  0  0
   63.1480   31.6550   48.9940 C   0  0  1  0  0  0  0  0  0  0  0  0
   62.6630   32.2690   50.3250 C   0  0  0  0  0  0  0  0  0  0  0  0
   61.9360   31.4060   48.0700 C   0  0  0  0  0  0  0  0  0  0  0  0
   62.2020   33.7220   47.1100 C   0  0  0  0  0  0  0  0  0  0  0  0
   59.6550   31.1790   46.3800 C   0  0  0  0  0  0  0  0  0  0  0  0
   58.5180   30.9650   45.5950 C   0  0  0  0  0  0  0  0  0  0  0  0
   57.5770   28.4950   43.7730 N   0  0  0  0  0  0  0  0  0  0  0  0
   57.7690   27.2250   44.4650 C   0  0  0  0  0  0  0  0  0  0  0  0
   57.7760   27.3660   45.9780 C   0  0  0  0  0  0  0  0  0  0  0  0
   59.0780   27.1300   45.2290 C   0  0  0  0  0  0  0  0  0  0  0  0
   57.2636   30.8806   42.8138 H   0  0  0  0  0  0  0  0  0  0  0  0
   55.4648   30.8621   42.9799 H   0  0  0  0  0  0  0  0  0  0  0  0
   57.2524   34.1320   45.5704 H   0  0  0  0  0  0  0  0  0  0  0  0
   59.2643   34.5224   46.9729 H   0  0  0  0  0  0  0  0  0  0  0  0
   60.0328   32.6932   49.6341 H   0  0  0  0  0  0  0  0  0  0  0  0
   60.2503   34.3397   48.9282 H   0  0  0  0  0  0  0  0  0  0  0  0
   61.6147   34.0506   51.0004 H   0  0  0  0  0  0  0  0  0  0  0  0
   63.8032   34.7544   50.0191 H   0  0  0  0  0  0  0  0  0  0  0  0
   62.4332   35.5390   49.1635 H   0  0  0  0  0  0  0  0  0  0  0  0
   64.1175   34.6577   47.5402 H   0  0  0  0  0  0  0  0  0  0  0  0
   64.9940   32.8003   48.9641 H   0  0  0  0  0  0  0  0  0  0  0  0
   64.4717   32.1913   47.3569 H   0  0  0  0  0  0  0  0  0  0  0  0
   63.6577   30.7009   49.1940 H   0  0  0  0  0  0  0  0  0  0  0  0
   63.5262   32.4393   50.9852 H   0  0  0  0  0  0  0  0  0  0  0  0
   61.9581   31.5776   50.8098 H   0  0  0  0  0  0  0  0  0  0  0  0
   61.2465   30.7026   48.5596 H   0  0  0  0  0  0  0  0  0  0  0  0
   62.2953   30.9864   47.1188 H   0  0  0  0  0  0  0  0  0  0  0  0
   61.7010   34.6812   46.9126 H   0  0  0  0  0  0  0  0  0  0  0  0
   62.5569   33.2742   46.1701 H   0  0  0  0  0  0  0  0  0  0  0  0
   60.3306   30.3382   46.5961 H   0  0  0  0  0  0  0  0  0  0  0  0
   58.3126   29.9596   45.1989 H   0  0  0  0  0  0  0  0  0  0  0  0
   58.2420   28.7640   43.0120 H   0  0  0  0  0  0  0  0  0  0  0  0
   57.2472   26.5856   43.7377 H   0  0  0  0  0  0  0  0  0  0  0  0
   57.5767   28.3440   46.4403 H   0  0  0  0  0  0  0  0  0  0  0  0
   57.2546   26.8675   46.8084 H   0  0  0  0  0  0  0  0  0  0  0  0
   59.8210   27.9373   45.1496 H   0  0  0  0  0  0  0  0  0  0  0  0
   59.8891   26.3898   45.2933 H   0  0  0  0  0  0  0  0  0  0  0  0
  1  2  2  0
  2  3  1  0
  3  4  1  0
  4  5  1  0
  5  6  2  0
  6  7  1  0
  7  8  2  0
  9  8  1  6
  9 10  1  0
 10 11  1  0
 11 12  1  0
 12 13  1  0
 13 14  1  0
 14 15  1  0
 15 16  1  0
 15 17  1  0
 13 18  1  0
  8 19  1  0
 19 20  2  0
  2 21  1  0
 21 22  1  0
 22 23  1  0
 23 24  1  0
 20  5  1  0
 24 22  1  0
 17  9  1  0
 18  9  1  0
 16 11  1  0
  3 25  1  0
  3 26  1  0
  6 27  1  0
  7 28  1  0
 10 29  1  0
 10 30  1  0
 11 31  1  1
 12 32  1  0
 12 33  1  0
 13 34  1  6
 14 35  1  0
 14 36  1  0
 15 37  1  1
 16 38  1  0
 16 39  1  0
 17 40  1  0
 17 41  1  0
 18 42  1  0
 18 43  1  0
 19 44  1  0
 20 45  1  0
 21 46  1  0
 22 47  1  0
 23 48  1  0
 23 49  1  0
 24 50  1  0
 24 51  1  0
M  END
>  <UniqueID>  (16) 
14

>  <SMILES>  (16) 
O=C(COc1ccc(C23CC4CC(CC(C4)C2)C3)cc1)NC1CC1

>  <Energy>  (16) 
317.88797415174946

>  <Genealogy>  (16) 
O=C(COc1ccc(C23CC4CC(CC(C4)C2)C3)cc1)NC1CC1 (3D coordinates assigned)
O=C(COc1ccc(C23CC4CC(CC(C4)C2)C3)cc1)NC1CC1 (nonaromatic ring conformer: 317.88797415174946 kcal/mol)

>  <smiles>  (16) 
O=C(COc1ccc(C23CC4CC(CC(C4)C2)C3)cc1)NC1CC1

>  <score_type>  (16) 
oracle

>  <origin>  (16) 
adg

>  <m_score__min__energy>  (16) 
-8.8300000000000001

>  <m_primary>  (16) 
energy

$$$$
16:0
     RDKit          3D

 30 30  0  0  0  0  0  0  0  0999 V2000
   59.6680   34.5670   47.9700 C   0  0  0  0  0  0  0  0  0  0  0  0
   59.0080   33.7920   46.8680 C   0  0  0  0  0  0  0  0  0  0  0  0
   58.5430   34.4520   45.7210 C   0  0  0  0  0  0  0  0  0  0  0  0
   57.8960   33.7360   44.7090 C   0  0  0  0  0  0  0  0  0  0  0  0
   57.6850   32.3550   44.8420 C   0  0  0  0  0  0  0  0  0  0  0  0
   57.0200   31.5800   43.7370 C   0  0  0  0  0  0  0  0  0  0  0  0
   56.8150   30.1580   44.1580 C   0  0  0  0  0  0  0  0  0  0  0  0
   55.7310   29.8270   44.7130 O   0  0  0  0  0  0  0  0  0  0  0  0
   57.8210   29.1740   43.8850 N   0  0  0  0  0  0  0  0  0  0  0  0
   57.6720   27.7680   44.2600 C   0  0  0  0  0  0  0  0  0  0  0  0
   57.1470   27.6370   45.6920 C   0  0  0  0  0  0  0  0  0  0  0  0
   55.7920   27.0930   45.6940 N   0  0  0  0  0  0  0  0  0  0  0  0
   58.1460   31.6970   45.9930 C   0  0  0  0  0  0  0  0  0  0  0  0
   58.7930   32.4130   47.0040 C   0  0  0  0  0  0  0  0  0  0  0  0
   59.3354   34.1764   48.9430 H   0  0  0  0  0  0  0  0  0  0  0  0
   60.7601   34.4641   47.8875 H   0  0  0  0  0  0  0  0  0  0  0  0
   59.3925   35.6287   47.8875 H   0  0  0  0  0  0  0  0  0  0  0  0
   58.6879   35.5375   45.6171 H   0  0  0  0  0  0  0  0  0  0  0  0
   57.5508   34.2578   43.8043 H   0  0  0  0  0  0  0  0  0  0  0  0
   56.0454   32.0359   43.5082 H   0  0  0  0  0  0  0  0  0  0  0  0
   57.6622   31.6024   42.8442 H   0  0  0  0  0  0  0  0  0  0  0  0
   58.6720   29.4560   43.3470 H   0  0  0  0  0  0  0  0  0  0  0  0
   56.9636   27.2847   43.5711 H   0  0  0  0  0  0  0  0  0  0  0  0
   58.6573   27.2824   44.2012 H   0  0  0  0  0  0  0  0  0  0  0  0
   57.8075   26.9647   46.2593 H   0  0  0  0  0  0  0  0  0  0  0  0
   57.1299   28.6340   46.1564 H   0  0  0  0  0  0  0  0  0  0  0  0
   55.1580   27.8170   45.2880 H   0  0  0  0  0  0  0  0  0  0  0  0
   55.7660   26.2760   45.0410 H   0  0  0  0  0  0  0  0  0  0  0  0
   57.9973   30.6123   46.0998 H   0  0  0  0  0  0  0  0  0  0  0  0
   59.1351   31.8924   47.9106 H   0  0  0  0  0  0  0  0  0  0  0  0
  1  2  1  0
  2  3  2  0
  3  4  1  0
  4  5  2  0
  5  6  1  0
  6  7  1  0
  7  8  2  0
  7  9  1  0
  9 10  1  0
 10 11  1  0
 11 12  1  0
  5 13  1  0
 13 14  2  0
 14  2  1  0
  1 15  1  0
  1 16  1  0
  1 17  1  0
  3 18  1  0
  4 19  1  0
  6 20  1  0
  6 21  1  0
  9 22  1  0
 10 23  1  0
 10 24  1  0
 11 25  1  0
 11 26  1  0
 12 27  1  0
 12 28  1  0
 13 29  1  0
 14 30  1  0
M  END
>  <UniqueID>  (17) 
15

>  <SMILES>  (17) 
Cc1ccc(CC(=O)NCCN)cc1

>  <Energy>  (17) 
19.044483975461446

>  <Genealogy>  (17) 
Cc1ccc(CC(=O)NCCN)cc1 (3D coordinates assigned)
Cc1ccc(CC(=O)NCCN)cc1 (optimized conformer: 19.044483975461446 kcal/mol)

>  <smiles>  (17) 
Cc1ccc(CC(=O)NCCN)cc1

>  <score_type>  (17) 
oracle

>  <origin>  (17) 
adg

>  <m_score__min__energy>  (17) 
-6.8099999999999996

>  <m_primary>  (17) 
energy

$$$$
17:0
     RDKit          3D

 25 26  0  0  0  0  0  0  0  0999 V2000
   55.1660   29.3390   44.8610 N   0  0  0  0  0  0  0  0  0  0  0  0
   56.7740   29.3850   44.2320 S   0  0  0  0  0  0  0  0  0  0  0  0
   57.6230   28.3750   44.9520 O   0  0  0  0  0  0  0  0  0  0  0  0
   56.7530   29.0450   42.7680 O   0  0  0  0  0  0  0  0  0  0  0  0
   57.4500   30.9890   44.4580 C   0  0  0  0  0  0  0  0  0  0  0  0
   57.6880   31.8670   43.4060 C   0  0  0  0  0  0  0  0  0  0  0  0
   58.3050   33.2970   44.0440 S   0  0  0  0  0  0  0  0  0  0  0  0
   58.2650   32.8030   45.6490 C   0  0  0  0  0  0  0  0  0  0  0  0
   58.7640   33.8040   47.0450 S   0  0  0  0  0  0  0  0  0  0  0  0
   60.2970   32.8990   47.2540 C   0  0  0  0  0  0  0  0  0  0  0  0
   60.2730   31.5740   47.7070 C   0  0  0  0  0  0  0  0  0  0  0  0
   61.4690   30.8710   47.8760 C   0  0  0  0  0  0  0  0  0  0  0  0
   62.6920   31.4880   47.5900 C   0  0  0  0  0  0  0  0  0  0  0  0
   62.7200   32.8130   47.1320 C   0  0  0  0  0  0  0  0  0  0  0  0
   63.9300   33.4390   46.8440 O   0  0  0  0  0  0  0  0  0  0  0  0
   61.5210   33.5150   46.9630 C   0  0  0  0  0  0  0  0  0  0  0  0
   57.7690   31.5110   45.7180 C   0  0  0  0  0  0  0  0  0  0  0  0
   55.1570   28.6250   45.6240 H   0  0  0  0  0  0  0  0  0  0  0  0
   57.5046   31.6622   42.3409 H   0  0  0  0  0  0  0  0  0  0  0  0
   59.3125   31.0865   47.9299 H   0  0  0  0  0  0  0  0  0  0  0  0
   61.4490   29.8312   48.2343 H   0  0  0  0  0  0  0  0  0  0  0  0
   63.6322   30.9331   47.7246 H   0  0  0  0  0  0  0  0  0  0  0  0
   64.8080   32.9320   46.8680 H   0  0  0  0  0  0  0  0  0  0  0  0
   61.5399   34.5534   46.6006 H   0  0  0  0  0  0  0  0  0  0  0  0
   57.6399   30.9562   46.6590 H   0  0  0  0  0  0  0  0  0  0  0  0
  1  2  1  0
  2  3  2  0
  2  4  2  0
  2  5  1  0
  5  6  2  0
  6  7  1  0
  7  8  1  0
  8  9  1  0
  9 10  1  0
 10 11  2  0
 11 12  1  0
 12 13  2  0
 13 14  1  0
 14 15  1  0
 14 16  2  0
  8 17  2  0
 17  5  1  0
 16 10  1  0
  1 18  1  0
  6 19  1  0
 11 20  1  0
 12 21  1  0
 13 22  1  0
 15 23  1  0
 16 24  1  0
 17 25  1  0
M  CHG  1   1  -1
M  END
>  <UniqueID>  (18) 
16

>  <SMILES>  (18) 
[NH-]S(=O)(=O)c1csc(Sc2cccc(O)c2)c1

>  <Energy>  (18) 
46.08166745827916

>  <Genealogy>  (18) 
[NH-]S(=O)(=O)c1csc(Sc2cccc(O)c2)c1 (protonated)
[NH-]S(=O)(=O)c1csc(Sc2cccc(O)c2)c1 (3D coordinates assigned)
[NH-]S(=O)(=O)c1csc(Sc2cccc(O)c2)c1 (optimized conformer: 46.08166745827916 kcal/mol)

>  <smiles>  (18) 
NS(=O)(=O)c1csc(Sc2cccc(O)c2)c1

>  <score_type>  (18) 
oracle

>  <origin>  (18) 
adg

>  <m_score__min__energy>  (18) 
-9.9100000000000001

>  <m_primary>  (18) 
energy

$$$$
18:0
     RDKit          3D

 61 65  0  0  0  0  0  0  0  0999 V2000
   55.9960   22.4800   42.7470 C   0  0  0  0  0  0  0  0  0  0  0  0
   57.0700   22.7400   43.7590 C   0  0  0  0  0  0  0  0  0  0  0  0
   57.9390   21.7110   44.1560 C   0  0  0  0  0  0  0  0  0  0  0  0
   58.9640   21.9710   45.0690 C   0  0  0  0  0  0  0  0  0  0  0  0
   59.1330   23.2560   45.5890 C   0  0  0  0  0  0  0  0  0  0  0  0
   58.2760   24.3010   45.2000 C   0  0  0  0  0  0  0  0  0  0  0  0
   58.4720   25.6360   45.7140 N   0  0  0  0  0  0  0  0  0  0  0  0
   58.9810   25.8370   47.0770 C   0  0  0  0  0  0  0  0  0  0  0  0
   58.3280   27.0460   47.7490 C   0  0  0  0  0  0  0  0  0  0  0  0
   59.0790   28.3580   47.4870 C   0  0  0  0  0  0  0  0  0  0  0  0
   58.8640   28.8470   46.1120 N   0  0  0  0  0  0  0  0  0  0  0  0
   58.4270   30.2080   45.9130 C   0  0  0  0  0  0  0  0  0  0  0  0
   57.3040   30.4370   45.3880 O   0  0  0  0  0  0  0  0  0  0  0  0
   59.2410   31.3510   46.3590 C   0  0  0  0  0  0  0  0  0  0  0  0
   60.2560   31.2360   47.2490 N   0  0  0  0  0  0  0  0  0  0  0  0
   60.7940   32.4730   47.3390 C   0  0  0  0  0  0  0  0  0  0  0  0
   61.9330   32.8040   48.1480 N   0  0  0  0  0  0  0  0  0  0  0  0
   61.8090   33.7880   49.2280 C   0  0  0  0  0  0  0  0  0  0  0  0
   62.7840   33.4640   50.3840 C   0  0  0  0  0  0  0  0  0  0  0  0
   63.7770   32.5040   50.0560 O   0  0  0  0  0  0  0  0  0  0  0  0
   64.3080   32.7560   48.7720 C   0  0  0  0  0  0  0  0  0  0  0  0
   63.2680   32.3830   47.7130 C   0  0  0  0  0  0  0  0  0  0  0  0
   60.0760   33.3300   46.5270 C   0  0  0  0  0  0  0  0  0  0  0  0
   60.1840   34.7100   46.3450 C   0  0  0  0  0  0  0  0  0  0  0  0
   59.2570   35.3270   45.4910 C   0  0  0  0  0  0  0  0  0  0  0  0
   58.2430   34.5680   44.8750 C   0  0  0  0  0  0  0  0  0  0  0  0
   58.1670   33.1880   45.1160 C   0  0  0  0  0  0  0  0  0  0  0  0
   59.1050   32.6230   45.9210 N   0  0  0  0  0  0  0  0  0  0  0  0
   58.8940   27.9600   44.9330 C   0  0  0  0  0  0  0  0  0  0  0  0
   57.9100   26.7820   44.9880 C   0  0  0  0  0  0  0  0  0  0  0  0
   57.2530   24.0340   44.2710 C   0  0  0  0  0  0  0  0  0  0  0  0
   55.0524   22.2516   43.2642 H   0  0  0  0  0  0  0  0  0  0  0  0
   55.8622   23.3717   42.1169 H   0  0  0  0  0  0  0  0  0  0  0  0
   56.2849   21.6258   42.1169 H   0  0  0  0  0  0  0  0  0  0  0  0
   57.8124   20.6977   43.7471 H   0  0  0  0  0  0  0  0  0  0  0  0
   59.6402   21.1608   45.3793 H   0  0  0  0  0  0  0  0  0  0  0  0
   59.9421   23.4522   46.3079 H   0  0  0  0  0  0  0  0  0  0  0  0
   58.7675   24.9381   47.6740 H   0  0  0  0  0  0  0  0  0  0  0  0
   60.0640   26.0201   47.0165 H   0  0  0  0  0  0  0  0  0  0  0  0
   57.3017   27.1475   47.3663 H   0  0  0  0  0  0  0  0  0  0  0  0
   58.3468   26.8681   48.8344 H   0  0  0  0  0  0  0  0  0  0  0  0
   58.7225   29.1200   48.1957 H   0  0  0  0  0  0  0  0  0  0  0  0
   60.1546   28.1684   47.6182 H   0  0  0  0  0  0  0  0  0  0  0  0
   60.5830   30.3640   47.7220 H   0  0  0  0  0  0  0  0  0  0  0  0
   62.0392   34.7882   48.8322 H   0  0  0  0  0  0  0  0  0  0  0  0
   60.7803   33.7561   49.6163 H   0  0  0  0  0  0  0  0  0  0  0  0
   63.2890   34.3951   50.6805 H   0  0  0  0  0  0  0  0  0  0  0  0
   62.1802   33.0299   51.1945 H   0  0  0  0  0  0  0  0  0  0  0  0
   64.5588   33.8231   48.6810 H   0  0  0  0  0  0  0  0  0  0  0  0
   65.2169   32.1542   48.6243 H   0  0  0  0  0  0  0  0  0  0  0  0
   63.5170   32.8843   46.7661 H   0  0  0  0  0  0  0  0  0  0  0  0
   63.2733   31.2921   47.5716 H   0  0  0  0  0  0  0  0  0  0  0  0
   60.9671   35.2924   46.8525 H   0  0  0  0  0  0  0  0  0  0  0  0
   59.3226   36.4086   45.3018 H   0  0  0  0  0  0  0  0  0  0  0  0
   57.5150   35.0543   44.2090 H   0  0  0  0  0  0  0  0  0  0  0  0
   57.3693   32.5793   44.6653 H   0  0  0  0  0  0  0  0  0  0  0  0
   58.6560   28.5635   44.0446 H   0  0  0  0  0  0  0  0  0  0  0  0
   59.9019   27.5204   44.9018 H   0  0  0  0  0  0  0  0  0  0  0  0
   56.9907   27.1092   45.4958 H   0  0  0  0  0  0  0  0  0  0  0  0
   57.6996   26.4636   43.9563 H   0  0  0  0  0  0  0  0  0  0  0  0
   56.5899   24.8480   43.9427 H   0  0  0  0  0  0  0  0  0  0  0  0
  1  2  1  0
  2  3  2  0
  3  4  1  0
  4  5  2  0
  5  6  1  0
  6  7  1  0
  7  8  1  0
  8  9  1  0
  9 10  1  0
 10 11  1  0
 11 12  1  0
 12 13  2  0
 12 14  1  0
 14 15  2  0
 15 16  1  0
 16 17  1  0
 17 18  1  0
 18 19  1  0
 19 20  1  0
 20 21  1  0
 21 22  1  0
 16 23  2  0
 23 24  1  0
 24 25  2  0
 25 26  1  0
 26 27  2  0
 27 28  1  0
 11 29  1  0
 29 30  1  0
  6 31  2  0
 31  2  1  0
 30  7  1  0
 28 14  1  0
 22 17  1  0
 28 23  1  0
  1 32  1  0
  1 33  1  0
  1 34  1  0
  3 35  1  0
  4 36  1  0
  5 37  1  0
  8 38  1  0
  8 39  1  0
  9 40  1  0
  9 41  1  0
 10 42  1  0
 10 43  1  0
 15 44  1  0
 18 45  1  0
 18 46  1  0
 19 47  1  0
 19 48  1  0
 21 49  1  0
 21 50  1  0
 22 51  1  0
 22 52  1  0
 24 53  1  0
 25 54  1  0
 26 55  1  0
 27 56  1  0
 29 57  1  0
 29 58  1  0
 30 59  1  0
 30 60  1  0
 31 61  1  0
M  CHG  1  15   1
M  END
>  <UniqueID>  (19) 
17

>  <SMILES>  (19) 
Cc1cccc(N2CCCN(C(=O)c3[nH+]c(N4CCOCC4)c4ccccn34)CC2)c1

>  <Energy>  (19) 
124.62374867399117

>  <Genealogy>  (19) 
Cc1cccc(N2CCCN(C(=O)c3[nH+]c(N4CCOCC4)c4ccccn34)CC2)c1 (protonated)
Cc1cccc(N2CCCN(C(=O)c3[nH+]c(N4CCOCC4)c4ccccn34)CC2)c1 (3D coordinates assigned)
Cc1cccc(N2CCCN(C(=O)c3[nH+]c(N4CCOCC4)c4ccccn34)CC2)c1 (nonaromatic ring conformer: 124.62374867399117 kcal/mol)

>  <smiles>  (19) 
Cc1cccc(N2CCCN(C(=O)c3nc(N4CCOCC4)c4ccccn34)CC2)c1

>  <score_type>  (19) 
oracle

>  <origin>  (19) 
adg

>  <m_score__min__energy>  (19) 
-6.1699999999999999

>  <m_primary>  (19) 
energy

$$$$
19:0
     RDKit          3D

 48 51  0  0  0  0  0  0  0  0999 V2000
   59.5980   33.5850   49.0790 C   0  0  0  0  0  0  0  0  0  0  0  0
   59.1540   33.3180   47.6720 C   0  0  0  0  0  0  0  0  0  0  0  0
   59.6360   32.1970   46.9780 C   0  0  0  0  0  0  0  0  0  0  0  0
   59.2500   31.9670   45.6540 C   0  0  0  0  0  0  0  0  0  0  0  0
   58.3940   32.8660   45.0000 C   0  0  0  0  0  0  0  0  0  0  0  0
   57.9460   32.5950   43.5860 C   0  0  0  0  0  0  0  0  0  0  0  0
   57.3230   31.2040   43.4590 C   0  0  0  0  0  0  0  0  0  0  0  0
   56.7060   30.8130   44.7200 N   0  0  0  0  0  0  0  0  0  0  0  0
   56.5840   29.4530   45.1420 C   0  0  0  0  0  0  0  0  0  0  0  0
   55.5250   28.8160   44.8990 O   0  0  0  0  0  0  0  0  0  0  0  0
   57.7130   28.8090   45.8430 C   0  0  0  0  0  0  0  0  0  0  0  0
   58.1520   29.2050   47.1160 C   0  0  0  0  0  0  0  0  0  0  0  0
   59.1870   28.3480   47.3830 C   0  0  0  0  0  0  0  0  0  0  0  0
   60.2670   28.0120   48.6150 S   0  0  0  0  0  0  0  0  0  0  0  0
   60.9740   26.7120   47.7540 C   0  0  0  0  0  0  0  0  0  0  0  0
   60.3460   26.5550   46.5090 C   0  0  0  0  0  0  0  0  0  0  0  0
   59.3460   27.5110   46.3530 C   0  0  0  0  0  0  0  0  0  0  0  0
   58.4600   27.7590   45.3710 N   0  0  0  0  0  0  0  0  0  0  0  0
   58.2920   26.9870   44.1340 C   0  0  0  0  0  0  0  0  0  0  0  0
   57.3850   25.8040   44.3590 C   0  0  0  0  0  0  0  0  0  0  0  0
   56.6890   25.6650   45.5730 C   0  0  0  0  0  0  0  0  0  0  0  0
   55.8550   24.5640   45.7860 C   0  0  0  0  0  0  0  0  0  0  0  0
   55.7170   23.5870   44.7950 C   0  0  0  0  0  0  0  0  0  0  0  0
   54.9080   22.5190   45.0040 F   0  0  0  0  0  0  0  0  0  0  0  0
   56.4180   23.7100   43.5920 C   0  0  0  0  0  0  0  0  0  0  0  0
   57.2520   24.8100   43.3760 C   0  0  0  0  0  0  0  0  0  0  0  0
   57.9190   33.9920   45.6910 C   0  0  0  0  0  0  0  0  0  0  0  0
   58.3040   34.2220   47.0150 C   0  0  0  0  0  0  0  0  0  0  0  0
   58.8726   33.1488   49.7814 H   0  0  0  0  0  0  0  0  0  0  0  0
   60.5864   33.1314   49.2439 H   0  0  0  0  0  0  0  0  0  0  0  0
   59.6607   34.6708   49.2439 H   0  0  0  0  0  0  0  0  0  0  0  0
   60.3206   31.4962   47.4782 H   0  0  0  0  0  0  0  0  0  0  0  0
   59.6190   31.0773   45.1227 H   0  0  0  0  0  0  0  0  0  0  0  0
   57.2005   33.3497   43.2952 H   0  0  0  0  0  0  0  0  0  0  0  0
   58.8255   32.6437   42.9271 H   0  0  0  0  0  0  0  0  0  0  0  0
   56.5576   31.2192   42.6691 H   0  0  0  0  0  0  0  0  0  0  0  0
   58.1105   30.4794   43.2043 H   0  0  0  0  0  0  0  0  0  0  0  0
   57.7579   30.0130   47.7499 H   0  0  0  0  0  0  0  0  0  0  0  0
   61.8018   26.0891   48.1238 H   0  0  0  0  0  0  0  0  0  0  0  0
   60.6060   25.7881   45.7645 H   0  0  0  0  0  0  0  0  0  0  0  0
   57.8536   27.6355   43.3612 H   0  0  0  0  0  0  0  0  0  0  0  0
   59.2774   26.6190   43.8120 H   0  0  0  0  0  0  0  0  0  0  0  0
   56.8016   26.4265   46.3588 H   0  0  0  0  0  0  0  0  0  0  0  0
   55.3064   24.4658   46.7344 H   0  0  0  0  0  0  0  0  0  0  0  0
   56.3129   22.9395   42.8140 H   0  0  0  0  0  0  0  0  0  0  0  0
   57.8075   24.8979   42.4307 H   0  0  0  0  0  0  0  0  0  0  0  0
   57.2405   34.6968   45.1881 H   0  0  0  0  0  0  0  0  0  0  0  0
   57.9396   35.1148   47.5442 H   0  0  0  0  0  0  0  0  0  0  0  0
  1  2  1  0
  2  3  2  0
  3  4  1  0
  4  5  2  0
  5  6  1  0
  6  7  1  0
  7  8  1  0
  8  9  1  0
  9 10  2  0
  9 11  1  0
 11 12  2  0
 12 13  1  0
 13 14  1  0
 14 15  1  0
 15 16  2  0
 16 17  1  0
 17 18  1  0
 18 19  1  0
 19 20  1  0
 20 21  2  0
 21 22  1  0
 22 23  2  0
 23 24  1  0
 23 25  1  0
 25 26  2  0
  5 27  1  0
 27 28  2  0
 28  2  1  0
 18 11  1  0
 26 20  1  0
 17 13  2  0
  1 29  1  0
  1 30  1  0
  1 31  1  0
  3 32  1  0
  4 33  1  0
  6 34  1  0
  6 35  1  0
  7 36  1  0
  7 37  1  0
 12 38  1  0
 15 39  1  0
 16 40  1  0
 19 41  1  0
 19 42  1  0
 21 43  1  0
 22 44  1  0
 25 45  1  0
 26 46  1  0
 27 47  1  0
 28 48  1  0
M  CHG  1   8  -1
M  END
>  <UniqueID>  (20) 
18

>  <SMILES>  (20) 
Cc1ccc(CC[N-]C(=O)c2cc3sccc3n2Cc2ccc(F)cc2)cc1

>  <Energy>  (20) 
120.132165785764

>  <Genealogy>  (20) 
Cc1ccc(CC[N-]C(=O)c2cc3sccc3n2Cc2ccc(F)cc2)cc1 (protonated)
Cc1ccc(CC[N-]C(=O)c2cc3sccc3n2Cc2ccc(F)cc2)cc1 (3D coordinates assigned)
Cc1ccc(CC[N-]C(=O)c2cc3sccc3n2Cc2ccc(F)cc2)cc1 (optimized conformer: 120.132165785764 kcal/mol)

>  <smiles>  (20) 
Cc1ccc(CCNC(=O)c2cc3sccc3n2Cc2ccc(F)cc2)cc1

>  <score_type>  (20) 
oracle

>  <origin>  (20) 
adg

>  <m_score__min__energy>  (20) 
-9.5999999999999996

>  <m_primary>  (20) 
energy

$$$$
20:0
     RDKit          3D

 38 41  0  0  0  0  0  0  0  0999 V2000
   54.8080   25.6850   45.9700 O   0  0  0  0  0  0  0  0  0  0  0  0
   55.7640   24.8690   46.0560 C   0  0  0  0  0  0  0  0  0  0  0  0
   55.4700   23.4020   46.1140 C   0  0  0  0  0  0  0  0  0  0  0  0
   55.9750   22.7290   44.8780 C   0  0  0  0  0  0  0  0  0  0  0  0
   56.0420   23.2980   43.6130 C   0  0  0  0  0  0  0  0  0  0  0  0
   56.6290   22.4550   42.6610 C   0  0  0  0  0  0  0  0  0  0  0  0
   57.0340   21.2300   43.1760 C   0  0  0  0  0  0  0  0  0  0  0  0
   56.6660   21.1970   44.8170 S   0  0  0  0  0  0  0  0  0  0  0  0
   57.1250   25.3250   46.0060 N   0  0  0  0  0  0  0  0  0  0  0  0
   57.5160   26.7060   46.0960 C   0  0  0  0  0  0  0  0  0  0  0  0
   57.3190   27.5490   44.9950 C   0  0  0  0  0  0  0  0  0  0  0  0
   57.7090   28.8900   45.0480 C   0  0  0  0  0  0  0  0  0  0  0  0
   58.3200   29.4110   46.2020 C   0  0  0  0  0  0  0  0  0  0  0  0
   58.7290   30.8340   46.2480 C   0  0  0  0  0  0  0  0  0  0  0  0
   58.3820   31.7390   45.2960 N   0  0  0  0  0  0  0  0  0  0  0  0
   58.8810   32.9700   45.5740 C   0  0  0  0  0  0  0  0  0  0  0  0
   58.6890   34.0980   44.7760 C   0  0  0  0  0  0  0  0  0  0  0  0
   59.2630   35.3160   45.1790 C   0  0  0  0  0  0  0  0  0  0  0  0
   60.0180   35.3910   46.3670 C   0  0  0  0  0  0  0  0  0  0  0  0
   60.2050   34.2490   47.1630 C   0  0  0  0  0  0  0  0  0  0  0  0
   59.6250   33.0560   46.7390 C   0  0  0  0  0  0  0  0  0  0  0  0
   59.6730   31.5480   47.4690 S   0  0  0  0  0  0  0  0  0  0  0  0
   58.5380   28.5580   47.2980 C   0  0  0  0  0  0  0  0  0  0  0  0
   58.1470   27.2170   47.2430 C   0  0  0  0  0  0  0  0  0  0  0  0
   55.9651   22.9660   46.9942 H   0  0  0  0  0  0  0  0  0  0  0  0
   54.3823   23.2547   46.1861 H   0  0  0  0  0  0  0  0  0  0  0  0
   55.6718   24.3078   43.3822 H   0  0  0  0  0  0  0  0  0  0  0  0
   56.7572   22.7363   41.6053 H   0  0  0  0  0  0  0  0  0  0  0  0
   57.5137   20.4196   42.6075 H   0  0  0  0  0  0  0  0  0  0  0  0
   57.8670   24.6180   45.7990 H   0  0  0  0  0  0  0  0  0  0  0  0
   56.8534   27.1522   44.0808 H   0  0  0  0  0  0  0  0  0  0  0  0
   57.5365   29.5431   44.1798 H   0  0  0  0  0  0  0  0  0  0  0  0
   58.0997   34.0354   43.8493 H   0  0  0  0  0  0  0  0  0  0  0  0
   59.1221   36.2166   44.5633 H   0  0  0  0  0  0  0  0  0  0  0  0
   60.4633   36.3494   46.6724 H   0  0  0  0  0  0  0  0  0  0  0  0
   60.7914   34.2955   48.0925 H   0  0  0  0  0  0  0  0  0  0  0  0
   59.0201   28.9489   48.2062 H   0  0  0  0  0  0  0  0  0  0  0  0
   58.3345   26.5575   48.1032 H   0  0  0  0  0  0  0  0  0  0  0  0
  1  2  2  0
  2  3  1  0
  3  4  1  0
  4  5  2  0
  5  6  1  0
  6  7  2  0
  7  8  1  0
  2  9  1  0
  9 10  1  0
 10 11  2  0
 11 12  1  0
 12 13  2  0
 13 14  1  0
 14 15  2  0
 15 16  1  0
 16 17  2  0
 17 18  1  0
 18 19  2  0
 19 20  1  0
 20 21  2  0
 21 22  1  0
 13 23  1  0
 23 24  2  0
  8  4  1  0
 24 10  1  0
 22 14  1  0
 21 16  1  0
  3 25  1  0
  3 26  1  0
  5 27  1  0
  6 28  1  0
  7 29  1  0
  9 30  1  0
 11 31  1  0
 12 32  1  0
 17 33  1  0
 18 34  1  0
 19 35  1  0
 20 36  1  0
 23 37  1  0
 24 38  1  0
M  END
>  <UniqueID>  (21) 
19

>  <SMILES>  (21) 
O=C(Cc1cccs1)Nc1ccc(-c2nc3ccccc3s2)cc1

>  <Energy>  (21) 
104.42212959560638

>  <Genealogy>  (21) 
O=C(Cc1cccs1)Nc1ccc(-c2nc3ccccc3s2)cc1 (3D coordinates assigned)
O=C(Cc1cccs1)Nc1ccc(-c2nc3ccccc3s2)cc1 (optimized conformer: 104.42212959560638 kcal/mol)

>  <smiles>  (21) 
O=C(Cc1cccs1)Nc1ccc(-c2nc3ccccc3s2)cc1

>  <score_type>  (21) 
oracle

>  <origin>  (21) 
adg

>  <m_score__min__energy>  (21) 
-7.9000000000000004

>  <m_primary>  (21) 
energy

$$$$
21:0
     RDKit          3D

 53 56  0  0  0  0  0  0  0  0999 V2000
   55.7480   29.6990   43.1610 O   0  0  0  0  0  0  0  0  0  0  0  0
   56.2570   29.7200   44.3120 C   0  0  0  0  0  0  0  0  0  0  0  0
   55.9050   28.6840   45.2390 N   0  0  0  0  0  0  0  0  0  0  0  0
   56.7310   27.5720   45.6180 C   0  0  0  0  0  0  0  0  0  0  0  0
   56.1770   26.3430   46.0210 C   0  0  0  0  0  0  0  0  0  0  0  0
   57.0110   25.2840   46.3950 C   0  0  0  0  0  0  0  0  0  0  0  0
   58.3990   25.4490   46.3850 C   0  0  0  0  0  0  0  0  0  0  0  0
   58.9540   26.6760   46.0110 C   0  0  0  0  0  0  0  0  0  0  0  0
   58.1220   27.7370   45.6360 C   0  0  0  0  0  0  0  0  0  0  0  0
   57.1620   30.8320   44.6860 C   0  0  0  0  0  0  0  0  0  0  0  0
   57.7870   30.8580   45.9440 C   0  0  0  0  0  0  0  0  0  0  0  0
   58.6580   31.8990   46.2810 C   0  0  0  0  0  0  0  0  0  0  0  0
   58.9120   32.9340   45.3680 C   0  0  0  0  0  0  0  0  0  0  0  0
   59.8870   34.0370   45.7090 C   0  0  0  0  0  0  0  0  0  0  0  0
   60.7940   33.6540   46.8170 N   0  0  0  0  0  0  0  0  0  0  0  0
   60.5290   34.4590   48.0330 C   0  0  0  0  0  0  0  0  0  0  0  0
   61.3110   33.8890   49.2260 C   0  0  0  0  0  0  0  0  0  0  0  0
   62.6130   33.3690   48.7940 N   0  0  0  0  0  0  0  0  0  0  0  0
   63.3270   32.4270   49.6190 C   0  0  0  0  0  0  0  0  0  0  0  0
   62.6380   31.3910   50.2750 C   0  0  0  0  0  0  0  0  0  0  0  0
   63.3290   30.4850   51.0850 C   0  0  0  0  0  0  0  0  0  0  0  0
   64.7110   30.6070   51.2520 C   0  0  0  0  0  0  0  0  0  0  0  0
   65.4030   31.6370   50.6130 C   0  0  0  0  0  0  0  0  0  0  0  0
   64.7160   32.5470   49.8020 C   0  0  0  0  0  0  0  0  0  0  0  0
   63.2050   33.8930   47.5590 C   0  0  0  0  0  0  0  0  0  0  0  0
   62.2090   33.7960   46.3830 C   0  0  0  0  0  0  0  0  0  0  0  0
   58.2700   32.9210   44.1200 C   0  0  0  0  0  0  0  0  0  0  0  0
   57.3980   31.8830   43.7840 C   0  0  0  0  0  0  0  0  0  0  0  0
   55.0847   26.2145   46.0420 H   0  0  0  0  0  0  0  0  0  0  0  0
   56.5742   24.3207   46.6972 H   0  0  0  0  0  0  0  0  0  0  0  0
   59.0544   24.6133   46.6714 H   0  0  0  0  0  0  0  0  0  0  0  0
   60.0461   26.8079   46.0114 H   0  0  0  0  0  0  0  0  0  0  0  0
   58.5623   28.7048   45.3541 H   0  0  0  0  0  0  0  0  0  0  0  0
   57.5900   30.0543   46.6687 H   0  0  0  0  0  0  0  0  0  0  0  0
   59.1464   31.9065   47.2666 H   0  0  0  0  0  0  0  0  0  0  0  0
   60.4910   34.2649   44.8184 H   0  0  0  0  0  0  0  0  0  0  0  0
   59.3076   34.9144   46.0323 H   0  0  0  0  0  0  0  0  0  0  0  0
   60.6300   32.6430   47.0430 H   0  0  0  0  0  0  0  0  0  0  0  0
   60.8422   35.4985   47.8562 H   0  0  0  0  0  0  0  0  0  0  0  0
   59.4530   34.4249   48.2592 H   0  0  0  0  0  0  0  0  0  0  0  0
   61.4688   34.6858   49.9678 H   0  0  0  0  0  0  0  0  0  0  0  0
   60.7307   33.0652   49.6671 H   0  0  0  0  0  0  0  0  0  0  0  0
   61.5495   31.2931   50.1500 H   0  0  0  0  0  0  0  0  0  0  0  0
   62.7840   29.6749   51.5916 H   0  0  0  0  0  0  0  0  0  0  0  0
   65.2535   29.8912   51.8871 H   0  0  0  0  0  0  0  0  0  0  0  0
   66.4905   31.7335   50.7472 H   0  0  0  0  0  0  0  0  0  0  0  0
   65.2652   33.3603   49.3051 H   0  0  0  0  0  0  0  0  0  0  0  0
   63.4803   34.9471   47.7112 H   0  0  0  0  0  0  0  0  0  0  0  0
   64.0945   33.2936   47.3151 H   0  0  0  0  0  0  0  0  0  0  0  0
   62.2973   34.7086   45.7753 H   0  0  0  0  0  0  0  0  0  0  0  0
   62.4662   32.8905   45.8138 H   0  0  0  0  0  0  0  0  0  0  0  0
   58.4548   33.7335   43.4019 H   0  0  0  0  0  0  0  0  0  0  0  0
   56.8928   31.8884   42.8069 H   0  0  0  0  0  0  0  0  0  0  0  0
  1  2  2  0
  2  3  1  0
  3  4  1  0
  4  5  2  0
  5  6  1  0
  6  7  2  0
  7  8  1  0
  8  9  2  0
  2 10  1  0
 10 11  2  0
 11 12  1  0
 12 13  2  0
 13 14  1  0
 14 15  1  0
 15 16  1  0
 16 17  1  0
 17 18  1  0
 18 19  1  0
 19 20  2  0
 20 21  1  0
 21 22  2  0
 22 23  1  0
 23 24  2  0
 18 25  1  0
 25 26  1  0
 13 27  1  0
 27 28  2  0
  9  4  1  0
 28 10  1  0
 26 15  1  0
 24 19  1  0
  5 29  1  0
  6 30  1  0
  7 31  1  0
  8 32  1  0
  9 33  1  0
 11 34  1  0
 12 35  1  0
 14 36  1  0
 14 37  1  0
 15 38  1  0
 16 39  1  0
 16 40  1  0
 17 41  1  0
 17 42  1  0
 20 43  1  0
 21 44  1  0
 22 45  1  0
 23 46  1  0
 24 47  1  0
 25 48  1  0
 25 49  1  0
 26 50  1  0
 26 51  1  0
 27 52  1  0
 28 53  1  0
M  CHG  2   3  -1  15   1
M  END
>  <UniqueID>  (22) 
20

>  <SMILES>  (22) 
O=C([N-]c1ccccc1)c1ccc(C[NH+]2CCN(c3ccccc3)CC2)cc1

>  <Energy>  (22) 
74.28785278616235

>  <Genealogy>  (22) 
O=C([N-]c1ccccc1)c1ccc(C[NH+]2CCN(c3ccccc3)CC2)cc1 (protonated)
O=C([N-]c1ccccc1)c1ccc(C[NH+]2CCN(c3ccccc3)CC2)cc1 (3D coordinates assigned)
O=C([N-]c1ccccc1)c1ccc(C[NH+]2CCN(c3ccccc3)CC2)cc1 (nonaromatic ring conformer: 74.28785278616235 kcal/mol)

>  <smiles>  (22) 
O=C(Nc1ccccc1)c1ccc(CN2CCN(c3ccccc3)CC2)cc1

>  <score_type>  (22) 
oracle

>  <origin>  (22) 
adg

>  <m_score__min__energy>  (22) 
-8.8300000000000001

>  <m_primary>  (22) 
energy

$$$$
22:0
     RDKit          3D

 36 37  0  0  0  0  0  0  0  0999 V2000
   63.8040   33.8120   50.6460 C   0  0  0  0  0  0  0  0  0  0  0  0
   62.8760   34.6580   49.9750 O   0  0  0  0  0  0  0  0  0  0  0  0
   61.9650   34.2200   49.0020 C   0  0  0  0  0  0  0  0  0  0  0  0
   60.5800   34.1460   49.2420 C   0  0  0  0  0  0  0  0  0  0  0  0
   59.7130   33.7050   48.2380 C   0  0  0  0  0  0  0  0  0  0  0  0
   60.2130   33.3410   46.9750 C   0  0  0  0  0  0  0  0  0  0  0  0
   59.3460   32.8570   45.9360 N   0  0  0  0  0  0  0  0  0  0  0  0
   57.9720   33.2520   45.7870 C   0  0  0  0  0  0  0  0  0  0  0  0
   57.5250   34.2600   46.3960 O   0  0  0  0  0  0  0  0  0  0  0  0
   57.0540   32.4660   44.8980 C   0  0  0  0  0  0  0  0  0  0  0  0
   57.7750   31.3350   44.2710 N   0  0  0  0  0  0  0  0  0  0  0  0
   57.0630   30.7870   43.0970 C   0  0  0  0  0  0  0  0  0  0  0  0
   55.8010   29.9870   43.5020 C   0  0  0  0  0  0  0  0  0  0  0  0
   55.7660   29.6660   44.8810 O   0  0  0  0  0  0  0  0  0  0  0  0
   57.0180   29.1590   45.2900 C   0  0  0  0  0  0  0  0  0  0  0  0
   58.0940   30.2630   45.2440 C   0  0  0  0  0  0  0  0  0  0  0  0
   61.5950   33.3930   46.7480 C   0  0  0  0  0  0  0  0  0  0  0  0
   62.4620   33.8370   47.7520 C   0  0  0  0  0  0  0  0  0  0  0  0
   63.6818   33.9234   51.7335 H   0  0  0  0  0  0  0  0  0  0  0  0
   63.6185   32.7658   50.3615 H   0  0  0  0  0  0  0  0  0  0  0  0
   64.8287   34.0932   50.3615 H   0  0  0  0  0  0  0  0  0  0  0  0
   60.1781   34.4365   50.2239 H   0  0  0  0  0  0  0  0  0  0  0  0
   58.6330   33.6423   48.4371 H   0  0  0  0  0  0  0  0  0  0  0  0
   59.7550   32.2270   45.2090 H   0  0  0  0  0  0  0  0  0  0  0  0
   56.2189   32.0742   45.4972 H   0  0  0  0  0  0  0  0  0  0  0  0
   56.6766   33.1283   44.1049 H   0  0  0  0  0  0  0  0  0  0  0  0
   56.7608   31.6198   42.4450 H   0  0  0  0  0  0  0  0  0  0  0  0
   57.7467   30.1002   42.5766 H   0  0  0  0  0  0  0  0  0  0  0  0
   54.9124   30.5885   43.2598 H   0  0  0  0  0  0  0  0  0  0  0  0
   55.8206   29.0388   42.9447 H   0  0  0  0  0  0  0  0  0  0  0  0
   56.9349   28.7782   46.3187 H   0  0  0  0  0  0  0  0  0  0  0  0
   57.3124   28.3492   44.6062 H   0  0  0  0  0  0  0  0  0  0  0  0
   58.1810   30.7111   46.2448 H   0  0  0  0  0  0  0  0  0  0  0  0
   59.0363   29.7944   44.9238 H   0  0  0  0  0  0  0  0  0  0  0  0
   62.0007   33.0826   45.7738 H   0  0  0  0  0  0  0  0  0  0  0  0
   63.5435   33.8853   47.5568 H   0  0  0  0  0  0  0  0  0  0  0  0
  1  2  1  0
  2  3  1  0
  3  4  2  0
  4  5  1  0
  5  6  2  0
  6  7  1  0
  7  8  1  0
  8  9  2  0
  8 10  1  0
 10 11  1  0
 11 12  1  0
 12 13  1  0
 13 14  1  0
 14 15  1  0
 15 16  1  0
  6 17  1  0
 17 18  2  0
 18  3  1  0
 16 11  1  0
  1 19  1  0
  1 20  1  0
  1 21  1  0
  4 22  1  0
  5 23  1  0
  7 24  1  0
 10 25  1  0
 10 26  1  0
 12 27  1  0
 12 28  1  0
 13 29  1  0
 13 30  1  0
 15 31  1  0
 15 32  1  0
 16 33  1  0
 16 34  1  0
 17 35  1  0
 18 36  1  0
M  END
>  <UniqueID>  (23) 
21

>  <SMILES>  (23) 
COc1ccc(NC(=O)CN2CCOCC2)cc1

>  <Energy>  (23) 
49.16208352319541

>  <Genealogy>  (23) 
COc1ccc(NC(=O)CN2CCOCC2)cc1 (3D coordinates assigned)
COc1ccc(NC(=O)CN2CCOCC2)cc1 (nonaromatic ring conformer: 49.16208352319541 kcal/mol)

>  <smiles>  (23) 
COc1ccc(NC(=O)CN2CCOCC2)cc1

>  <score_type>  (23) 
oracle

>  <origin>  (23) 
adg

>  <m_score__min__energy>  (23) 
-5.9900000000000002

>  <m_primary>  (23) 
energy

$$$$
23:0
     RDKit          3D

 40 42  0  0  0  0  0  0  0  0999 V2000
   62.2950   33.4920   47.5440 C   0  0  0  0  0  0  0  0  0  0  0  0
   61.2610   32.4700   47.1990 C   0  0  0  0  0  0  0  0  0  0  0  0
   61.4770   31.1760   47.1770 O   0  0  0  0  0  0  0  0  0  0  0  0
   60.3470   30.6010   46.8280 C   0  0  0  0  0  0  0  0  0  0  0  0
   60.1820   29.1480   46.7140 C   0  0  0  0  0  0  0  0  0  0  0  0
   60.1950   28.4120   45.5450 C   0  0  0  0  0  0  0  0  0  0  0  0
   59.9960   27.1030   45.9300 C   0  0  0  0  0  0  0  0  0  0  0  0
   59.8730   27.1230   47.3050 C   0  0  0  0  0  0  0  0  0  0  0  0
   59.9880   28.3560   47.7430 O   0  0  0  0  0  0  0  0  0  0  0  0
   59.3660   31.5020   46.6090 N   0  0  0  0  0  0  0  0  0  0  0  0
   59.9400   32.6930   46.8540 C   0  0  0  0  0  0  0  0  0  0  0  0
   59.2420   34.0170   46.7320 C   0  0  0  0  0  0  0  0  0  0  0  0
   57.7810   33.8770   46.2580 C   0  0  0  0  0  0  0  0  0  0  0  0
   57.6120   33.9360   44.7290 C   0  0  0  0  0  0  0  0  0  0  0  0
   58.3410   32.8220   43.9560 C   0  0  0  0  0  0  0  0  0  0  0  0
   57.3940   31.8690   43.2010 C   0  0  0  0  0  0  0  0  0  0  0  0
   56.8470   30.7900   44.0870 C   0  0  0  0  0  0  0  0  0  0  0  0
   55.6710   30.1020   43.9040 C   0  0  0  0  0  0  0  0  0  0  0  0
   55.5540   29.1760   44.8700 N   0  0  0  0  0  0  0  0  0  0  0  0
   56.6730   29.3280   45.6110 C   0  0  0  0  0  0  0  0  0  0  0  0
   57.4910   30.3030   45.1620 N   0  0  0  0  0  0  0  0  0  0  0  0
   62.3784   33.5745   48.6377 H   0  0  0  0  0  0  0  0  0  0  0  0
   63.2653   33.1882   47.1241 H   0  0  0  0  0  0  0  0  0  0  0  0
   62.0025   34.4657   47.1241 H   0  0  0  0  0  0  0  0  0  0  0  0
   60.3348   28.7907   44.5218 H   0  0  0  0  0  0  0  0  0  0  0  0
   59.9455   26.2212   45.2743 H   0  0  0  0  0  0  0  0  0  0  0  0
   59.7042   26.2395   47.9383 H   0  0  0  0  0  0  0  0  0  0  0  0
   58.3820   31.3210   46.3120 H   0  0  0  0  0  0  0  0  0  0  0  0
   59.2474   34.5098   47.7154 H   0  0  0  0  0  0  0  0  0  0  0  0
   59.7812   34.6091   45.9779 H   0  0  0  0  0  0  0  0  0  0  0  0
   57.3933   32.9104   46.6121 H   0  0  0  0  0  0  0  0  0  0  0  0
   57.2277   34.7322   46.6733 H   0  0  0  0  0  0  0  0  0  0  0  0
   56.5384   33.8652   44.5003 H   0  0  0  0  0  0  0  0  0  0  0  0
   58.0630   34.8851   44.4038 H   0  0  0  0  0  0  0  0  0  0  0  0
   59.0163   33.2912   43.2253 H   0  0  0  0  0  0  0  0  0  0  0  0
   58.8810   32.2163   44.6986 H   0  0  0  0  0  0  0  0  0  0  0  0
   56.5547   32.4527   42.7950 H   0  0  0  0  0  0  0  0  0  0  0  0
   57.9720   31.3855   42.3997 H   0  0  0  0  0  0  0  0  0  0  0  0
   54.9442   30.2807   43.0978 H   0  0  0  0  0  0  0  0  0  0  0  0
   56.8964   28.7151   46.4967 H   0  0  0  0  0  0  0  0  0  0  0  0
  1  2  1  0
  2  3  1  0
  3  4  1  0
  4  5  1  0
  5  6  2  0
  6  7  1  0
  7  8  2  0
  8  9  1  0
  4 10  2  0
 10 11  1  0
 11 12  1  0
 12 13  1  0
 13 14  1  0
 14 15  1  0
 15 16  1  0
 16 17  1  0
 17 18  2  0
 18 19  1  0
 19 20  1  0
 20 21  2  0
 11  2  2  0
 21 17  1  0
  9  5  1  0
  1 22  1  0
  1 23  1  0
  1 24  1  0
  6 25  1  0
  7 26  1  0
  8 27  1  0
 10 28  1  0
 12 29  1  0
 12 30  1  0
 13 31  1  0
 13 32  1  0
 14 33  1  0
 14 34  1  0
 15 35  1  0
 15 36  1  0
 16 37  1  0
 16 38  1  0
 18 39  1  0
 20 40  1  0
M  CHG  2  10   1  19  -1
M  END
>  <UniqueID>  (24) 
22

>  <SMILES>  (24) 
Cc1oc(-c2ccco2)[nH+]c1CCCCCc1c[n-]cn1

>  <Energy>  (24) 
116.4958860962966

>  <Genealogy>  (24) 
Cc1oc(-c2ccco2)[nH+]c1CCCCCc1c[n-]cn1 (protonated)
Cc1oc(-c2ccco2)[nH+]c1CCCCCc1c[n-]cn1 (3D coordinates assigned)
Cc1oc(-c2ccco2)[nH+]c1CCCCCc1c[n-]cn1 (optimized conformer: 116.4958860962966 kcal/mol)

>  <smiles>  (24) 
Cc1oc(-c2ccco2)nc1CCCCCc1c[nH]cn1

>  <score_type>  (24) 
oracle

>  <origin>  (24) 
adg

>  <m_score__min__energy>  (24) 
-6.3399999999999999

>  <m_primary>  (24) 
energy

$$$$
24:0
     RDKit          3D

 44 47  0  0  0  0  0  0  0  0999 V2000
   56.1659   25.1559   46.4882 H   0  0  0  0  0  0  0  0  0  0  0  0
   56.5730   26.1620   46.3090 C   0  0  0  0  0  0  0  0  0  0  0  0
   55.8340   27.0810   45.6410 N   0  0  0  0  0  0  0  0  0  0  0  0
   56.2960   28.3380   45.4160 C   0  0  0  0  0  0  0  0  0  0  0  0
   55.6689   29.0585   44.8704 H   0  0  0  0  0  0  0  0  0  0  0  0
   57.5650   28.7280   45.8720 C   0  0  0  0  0  0  0  0  0  0  0  0
   57.9030   30.1510   45.7190 C   0  0  0  0  0  0  0  0  0  0  0  0
   57.1040   31.0250   45.0500 N   0  0  0  0  0  0  0  0  0  0  0  0
   57.7390   32.1910   45.2310 C   0  0  0  0  0  0  0  0  0  0  0  0
   57.3720   33.4450   44.7470 C   0  0  0  0  0  0  0  0  0  0  0  0
   56.4699   33.5763   44.1314 H   0  0  0  0  0  0  0  0  0  0  0  0
   58.1970   34.5380   45.0740 C   0  0  0  0  0  0  0  0  0  0  0  0
   57.9444   35.5434   44.7062 H   0  0  0  0  0  0  0  0  0  0  0  0
   59.3490   34.3500   45.8730 C   0  0  0  0  0  0  0  0  0  0  0  0
   59.9859   35.2106   46.1253 H   0  0  0  0  0  0  0  0  0  0  0  0
   59.6850   33.0680   46.3470 C   0  0  0  0  0  0  0  0  0  0  0  0
   60.5776   32.9066   46.9693 H   0  0  0  0  0  0  0  0  0  0  0  0
   58.8470   32.0110   46.0000 C   0  0  0  0  0  0  0  0  0  0  0  0
   58.9710   30.7200   46.3400 N   0  0  0  0  0  0  0  0  0  0  0  0
   58.3830   27.7620   46.5350 C   0  0  0  0  0  0  0  0  0  0  0  0
   59.6260   27.9450   46.9030 N   0  0  0  0  0  0  0  0  0  0  0  0
   60.3890   27.4410   48.0450 C   0  0  0  0  0  0  0  0  0  0  0  0
   59.9208   26.5123   48.4032 H   0  0  0  0  0  0  0  0  0  0  0  0
   61.4220   27.2624   47.7118 H   0  0  0  0  0  0  0  0  0  0  0  0
   60.4310   28.4620   49.2100 C   0  0  0  0  0  0  0  0  0  0  0  0
   59.7773   28.0876   50.0116 H   0  0  0  0  0  0  0  0  0  0  0  0
   61.4890   28.5438   49.4997 H   0  0  0  0  0  0  0  0  0  0  0  0
   59.9950   29.8420   48.8720 N   0  0  0  0  0  0  0  0  0  0  0  0
   59.5730   29.7650   47.9140 H   0  0  0  0  0  0  0  0  0  0  0  0
   61.1130   30.8150   48.7450 C   0  0  0  0  0  0  0  0  0  0  0  0
   62.0637   30.2622   48.7197 H   0  0  0  0  0  0  0  0  0  0  0  0
   60.9609   31.3880   47.8184 H   0  0  0  0  0  0  0  0  0  0  0  0
   61.1480   31.8110   49.9200 C   0  0  0  0  0  0  0  0  0  0  0  0
   61.3320   31.2480   50.8469 H   0  0  0  0  0  0  0  0  0  0  0  0
   61.9466   32.5356   49.7030 H   0  0  0  0  0  0  0  0  0  0  0  0
   59.9460   32.5530   50.0770 O   0  0  0  0  0  0  0  0  0  0  0  0
   58.7760   31.8560   49.6680 C   0  0  0  0  0  0  0  0  0  0  0  0
   57.9426   32.1703   50.3135 H   0  0  0  0  0  0  0  0  0  0  0  0
   58.6096   32.1065   48.6099 H   0  0  0  0  0  0  0  0  0  0  0  0
   58.9000   30.3250   49.7490 C   0  0  0  0  0  0  0  0  0  0  0  0
   59.1142   30.0342   50.7880 H   0  0  0  0  0  0  0  0  0  0  0  0
   57.9536   29.8747   49.4149 H   0  0  0  0  0  0  0  0  0  0  0  0
   57.8460   26.4880   46.7690 C   0  0  0  0  0  0  0  0  0  0  0  0
   58.4351   25.7403   47.3203 H   0  0  0  0  0  0  0  0  0  0  0  0
  1  2  1  0
  2  3  1  0
  3  4  1  0
  4  5  1  0
  4  6  2  0
  6  7  1  0
  7  8  2  0
  8  9  1  0
  9 10  2  0
 10 11  1  0
 10 12  1  0
 12 13  1  0
 12 14  2  0
 14 15  1  0
 14 16  1  0
 16 17  1  0
 16 18  2  0
 18 19  1  0
  6 20  1  0
 20 21  2  0
 21 22  1  0
 22 23  1  0
 22 24  1  0
 22 25  1  0
 25 26  1  0
 25 27  1  0
 25 28  1  0
 28 29  1  0
 28 30  1  0
 30 31  1  0
 30 32  1  0
 30 33  1  0
 33 34  1  0
 33 35  1  0
 33 36  1  0
 36 37  1  0
 37 38  1  0
 37 39  1  0
 37 40  1  0
 40 41  1  0
 40 42  1  0
 20 43  1  0
 43 44  1  0
 43  2  2  0
 19  7  1  0
 40 28  1  0
 18  9  1  0
M  CHG  3   3  -1  19  -1  28   1
M  END
>  <UniqueID>  (25) 
23

>  <SMILES>  (25) 
c1ccc2[n-]c(-c3c[n-]cc/c3=N/CC[NH+]3CCOCC3)nc2c1

>  <Energy>  (25) 
118.22383053802936

>  <Genealogy>  (25) 
c1ccc2[n-]c(-c3c[n-]ccc3=NCC[NH+]3CCOCC3)nc2c1 (protonated)
c1ccc2[n-]c(-c3c[n-]cc/c3=N/CC[NH+]3CCOCC3)nc2c1 (cis-trans isomerization)
c1ccc2[n-]c(-c3c[n-]cc/c3=N/CC[NH+]3CCOCC3)nc2c1 (3D coordinates assigned)
c1ccc2[n-]c(-c3c[n-]cc/c3=N/CC[NH+]3CCOCC3)nc2c1 (nonaromatic ring conformer: 118.22383053802936 kcal/mol)

>  <smiles>  (25) 
c1ccc2[nH]c(-c3c[nH]ccc3=NCCN3CCOCC3)nc2c1

>  <score_type>  (25) 
oracle

>  <origin>  (25) 
adg

>  <m_score__min__energy>  (25) 
-7.7999999999999998

>  <m_primary>  (25) 
energy

$$$$
25:0
     RDKit          3D

 38 40  0  0  0  0  0  0  0  0999 V2000
   58.1460   26.7170   43.2570 C   0  0  0  0  0  0  0  0  0  0  0  0
   57.8000   28.1980   43.4240 C   0  0  0  0  0  0  0  0  0  0  0  0
   57.4410   28.6690   44.8680 C   0  0  0  0  0  0  0  0  0  0  0  0
   57.0200   27.5310   45.8490 C   0  0  0  0  0  0  0  0  0  0  0  0
   58.0490   27.1730   46.9240 C   0  0  0  0  0  0  0  0  0  0  0  0
   56.2950   29.6380   44.7560 C   0  0  0  0  0  0  0  0  0  0  0  0
   55.1440   29.3470   44.3340 O   0  0  0  0  0  0  0  0  0  0  0  0
   56.6450   30.9440   45.1870 N   0  0  0  0  0  0  0  0  0  0  0  0
   57.8740   30.8590   45.5650 C   0  0  0  0  0  0  0  0  0  0  0  0
   58.6730   32.0040   46.0060 C   0  0  0  0  0  0  0  0  0  0  0  0
   58.1340   33.2510   46.0280 N   0  0  0  0  0  0  0  0  0  0  0  0
   58.8540   34.3330   46.4180 C   0  0  0  0  0  0  0  0  0  0  0  0
   60.1820   34.1820   46.8190 C   0  0  0  0  0  0  0  0  0  0  0  0
   60.7720   32.9090   46.8210 C   0  0  0  0  0  0  0  0  0  0  0  0
   62.1990   32.7630   47.2800 C   0  0  0  0  0  0  0  0  0  0  0  0
   60.0190   31.7960   46.3760 C   0  0  0  0  0  0  0  0  0  0  0  0
   60.5810   30.3800   46.4100 C   0  0  0  0  0  0  0  0  0  0  0  0
   59.9160   29.4370   45.3900 C   0  0  0  0  0  0  0  0  0  0  0  0
   58.4580   29.5650   45.4450 N   0  0  0  0  0  0  0  0  0  0  0  0
   58.2547   26.2519   44.2479 H   0  0  0  0  0  0  0  0  0  0  0  0
   57.3414   26.2129   42.7015 H   0  0  0  0  0  0  0  0  0  0  0  0
   59.0906   26.6215   42.7015 H   0  0  0  0  0  0  0  0  0  0  0  0
   58.6675   28.7843   43.0869 H   0  0  0  0  0  0  0  0  0  0  0  0
   56.8866   28.3530   42.8309 H   0  0  0  0  0  0  0  0  0  0  0  0
   56.0958   27.8454   46.3560 H   0  0  0  0  0  0  0  0  0  0  0  0
   56.9022   26.6284   45.2314 H   0  0  0  0  0  0  0  0  0  0  0  0
   57.6075   27.3266   47.9198 H   0  0  0  0  0  0  0  0  0  0  0  0
   58.3444   26.1193   46.8124 H   0  0  0  0  0  0  0  0  0  0  0  0
   58.9346   27.8158   46.8124 H   0  0  0  0  0  0  0  0  0  0  0  0
   58.3902   35.3305   46.4180 H   0  0  0  0  0  0  0  0  0  0  0  0
   60.7656   35.0599   47.1332 H   0  0  0  0  0  0  0  0  0  0  0  0
   62.2320   32.7596   48.3795 H   0  0  0  0  0  0  0  0  0  0  0  0
   62.6122   31.8179   46.8979 H   0  0  0  0  0  0  0  0  0  0  0  0
   62.7950   33.6049   46.8979 H   0  0  0  0  0  0  0  0  0  0  0  0
   61.6582   30.4264   46.1922 H   0  0  0  0  0  0  0  0  0  0  0  0
   60.3782   29.9725   47.4114 H   0  0  0  0  0  0  0  0  0  0  0  0
   60.2638   29.6949   44.3788 H   0  0  0  0  0  0  0  0  0  0  0  0
   60.1907   28.4001   45.6336 H   0  0  0  0  0  0  0  0  0  0  0  0
  1  2  1  0
  2  3  1  0
  3  4  1  0
  4  5  1  0
  3  6  1  0
  6  7  2  0
  6  8  1  0
  8  9  2  0
  9 10  1  0
 10 11  2  0
 11 12  1  0
 12 13  2  0
 13 14  1  0
 14 15  1  0
 14 16  2  0
 16 17  1  0
 17 18  1  0
 18 19  1  0
 19  3  1  0
 19  9  1  0
 16 10  1  0
  1 20  1  0
  1 21  1  0
  1 22  1  0
  2 23  1  0
  2 24  1  0
  4 25  1  0
  4 26  1  0
  5 27  1  0
  5 28  1  0
  5 29  1  0
 12 30  1  0
 13 31  1  0
 15 32  1  0
 15 33  1  0
 15 34  1  0
 17 35  1  0
 17 36  1  0
 18 37  1  0
 18 38  1  0
M  END
>  <UniqueID>  (26) 
24

>  <SMILES>  (26) 
CCC1(CC)C(=O)N=C2c3nccc(C)c3CCN21

>  <Energy>  (26) 
61.83108850679947

>  <Genealogy>  (26) 
CCC1(CC)C(=O)N=C2c3nccc(C)c3CCN21 (3D coordinates assigned)
CCC1(CC)C(=O)N=C2c3nccc(C)c3CCN21 (nonaromatic ring conformer: 61.83108850679947 kcal/mol)

>  <smiles>  (26) 
CCC1(CC)C(=O)N=C2c3nccc(C)c3CCN21

>  <score_type>  (26) 
oracle

>  <origin>  (26) 
adg

>  <m_score__min__energy>  (26) 
-7.4000000000000004

>  <m_primary>  (26) 
energy

$$$$
26:0
     RDKit          3D

 35 38  0  0  0  0  0  0  0  0999 V2000
   57.1100   31.7790   42.4980 O   0  0  0  0  0  0  0  0  0  0  0  0
   57.0470   31.1870   43.6080 C   0  0  0  0  0  0  0  0  0  0  0  0
   57.1220   29.6960   43.6520 C   0  0  0  0  0  0  0  0  0  0  0  0
   55.9320   29.0280   44.8670 S   0  0  0  0  0  0  0  0  0  0  0  0
   57.0440   27.7740   45.5130 C   0  0  0  0  0  0  0  0  0  0  0  0
   58.3810   28.0240   45.6300 N   0  0  0  0  0  0  0  0  0  0  0  0
   59.2420   27.0790   46.1250 C   0  0  0  0  0  0  0  0  0  0  0  0
   58.7770   25.8550   46.5170 N   0  0  0  0  0  0  0  0  0  0  0  0
   57.4500   25.6120   46.4070 C   0  0  0  0  0  0  0  0  0  0  0  0
   56.8150   24.4740   46.7190 N   0  0  0  0  0  0  0  0  0  0  0  0
   55.5290   24.7710   46.3930 C   0  0  0  0  0  0  0  0  0  0  0  0
   55.3420   26.0260   45.8990 N   0  0  0  0  0  0  0  0  0  0  0  0
   56.5850   26.5280   45.9220 C   0  0  0  0  0  0  0  0  0  0  0  0
   57.0160   31.9210   44.8390 N   0  0  0  0  0  0  0  0  0  0  0  0
   58.0460   32.7670   45.3780 C   0  0  0  0  0  0  0  0  0  0  0  0
   58.0850   34.1430   45.0890 C   0  0  0  0  0  0  0  0  0  0  0  0
   59.1030   34.9490   45.6030 C   0  0  0  0  0  0  0  0  0  0  0  0
   60.0900   34.4000   46.4220 C   0  0  0  0  0  0  0  0  0  0  0  0
   60.0560   33.0400   46.7500 C   0  0  0  0  0  0  0  0  0  0  0  0
   61.0430   32.4890   47.5850 C   0  0  0  0  0  0  0  0  0  0  0  0
   61.0060   31.1330   47.9160 C   0  0  0  0  0  0  0  0  0  0  0  0
   59.9850   30.3180   47.4240 C   0  0  0  0  0  0  0  0  0  0  0  0
   58.9960   30.8510   46.5950 C   0  0  0  0  0  0  0  0  0  0  0  0
   59.0210   32.2140   46.2380 C   0  0  0  0  0  0  0  0  0  0  0  0
   56.8867   29.2926   42.6561 H   0  0  0  0  0  0  0  0  0  0  0  0
   58.1384   29.4007   43.9517 H   0  0  0  0  0  0  0  0  0  0  0  0
   60.3149   27.3075   46.2073 H   0  0  0  0  0  0  0  0  0  0  0  0
   54.7044   24.0538   46.5184 H   0  0  0  0  0  0  0  0  0  0  0  0
   57.3064   34.5883   44.4522 H   0  0  0  0  0  0  0  0  0  0  0  0
   59.1268   36.0218   45.3610 H   0  0  0  0  0  0  0  0  0  0  0  0
   60.8972   35.0380   46.8110 H   0  0  0  0  0  0  0  0  0  0  0  0
   61.8471   33.1279   47.9790 H   0  0  0  0  0  0  0  0  0  0  0  0
   61.7836   30.7058   48.5663 H   0  0  0  0  0  0  0  0  0  0  0  0
   59.9595   29.2511   47.6906 H   0  0  0  0  0  0  0  0  0  0  0  0
   58.1916   30.2024   46.2179 H   0  0  0  0  0  0  0  0  0  0  0  0
  1  2  2  0
  2  3  1  0
  3  4  1  0
  4  5  1  0
  5  6  2  0
  6  7  1  0
  7  8  2  0
  8  9  1  0
  9 10  1  0
 10 11  2  0
 11 12  1  0
 12 13  1  0
  2 14  1  0
 14 15  1  0
 15 16  2  0
 16 17  1  0
 17 18  2  0
 18 19  1  0
 19 20  2  0
 20 21  1  0
 21 22  2  0
 22 23  1  0
 23 24  2  0
 13  5  1  0
 24 15  1  0
 13  9  2  0
 24 19  1  0
  3 25  1  0
  3 26  1  0
  7 27  1  0
 11 28  1  0
 16 29  1  0
 17 30  1  0
 18 31  1  0
 20 32  1  0
 21 33  1  0
 22 34  1  0
 23 35  1  0
M  CHG  2  12  -1  14  -1
M  END
>  <UniqueID>  (27) 
25

>  <SMILES>  (27) 
O=C(CSc1ncnc2nc[n-]c12)[N-]c1cccc2ccccc12

>  <Energy>  (27) 
77.7176766525132

>  <Genealogy>  (27) 
O=C(CSc1ncnc2nc[n-]c12)[N-]c1cccc2ccccc12 (protonated)
O=C(CSc1ncnc2nc[n-]c12)[N-]c1cccc2ccccc12 (3D coordinates assigned)
O=C(CSc1ncnc2nc[n-]c12)[N-]c1cccc2ccccc12 (optimized conformer: 77.7176766525132 kcal/mol)

>  <smiles>  (27) 
O=C(CSc1ncnc2nc[nH]c12)Nc1cccc2ccccc12

>  <score_type>  (27) 
oracle

>  <origin>  (27) 
adg

>  <m_score__min__energy>  (27) 
-11.85

>  <m_primary>  (27) 
energy

$$$$
27:0
     RDKit          3D

 26 26  0  0  0  0  0  0  0  0999 V2000
   58.5950   30.8860   46.8800 C   0  0  0  0  0  0  0  0  0  0  0  0
   58.8030   32.2640   46.3070 C   0  0  0  0  0  0  0  0  0  0  0  0
   59.9050   33.0180   46.7460 C   0  0  0  0  0  0  0  0  0  0  0  0
   60.1300   34.3030   46.2520 C   0  0  0  0  0  0  0  0  0  0  0  0
   59.2560   34.8560   45.3170 C   0  0  0  0  0  0  0  0  0  0  0  0
   59.4810   36.1030   44.8340 F   0  0  0  0  0  0  0  0  0  0  0  0
   58.1480   34.1280   44.8800 C   0  0  0  0  0  0  0  0  0  0  0  0
   57.8950   32.8350   45.3760 C   0  0  0  0  0  0  0  0  0  0  0  0
   56.6730   32.0900   44.8810 C   0  0  0  0  0  0  0  0  0  0  0  0
   57.0530   30.9630   44.0260 N   0  0  0  0  0  0  0  0  0  0  0  0
   56.4480   29.6570   44.0730 C   0  0  0  0  0  0  0  0  0  0  0  0
   57.0940   28.5720   43.4010 N   0  0  0  0  0  0  0  0  0  0  0  0
   55.3250   29.4500   44.6930 N   0  0  0  0  0  0  0  0  0  0  0  0
   58.6032   30.9406   47.9786 H   0  0  0  0  0  0  0  0  0  0  0  0
   57.6269   30.4897   46.5398 H   0  0  0  0  0  0  0  0  0  0  0  0
   59.4030   30.2216   46.5398 H   0  0  0  0  0  0  0  0  0  0  0  0
   60.5970   32.5905   47.4866 H   0  0  0  0  0  0  0  0  0  0  0  0
   60.9985   34.8810   46.6007 H   0  0  0  0  0  0  0  0  0  0  0  0
   57.4648   34.5697   44.1396 H   0  0  0  0  0  0  0  0  0  0  0  0
   56.1088   31.7107   45.7457 H   0  0  0  0  0  0  0  0  0  0  0  0
   56.0561   32.7837   44.2910 H   0  0  0  0  0  0  0  0  0  0  0  0
   57.8500   31.1080   43.3670 H   0  0  0  0  0  0  0  0  0  0  0  0
   56.6780   27.6130   43.4060 H   0  0  0  0  0  0  0  0  0  0  0  0
   57.9970   28.7220   42.9010 H   0  0  0  0  0  0  0  0  0  0  0  0
   54.9250   30.1380   45.3660 H   0  0  0  0  0  0  0  0  0  0  0  0
   54.7720   28.5830   44.5150 H   0  0  0  0  0  0  0  0  0  0  0  0
  1  2  1  0
  2  3  2  0
  3  4  1  0
  4  5  2  0
  5  6  1  0
  5  7  1  0
  7  8  2  0
  8  9  1  0
  9 10  1  0
 10 11  1  0
 11 12  1  0
 11 13  2  0
  8  2  1  0
  1 14  1  0
  1 15  1  0
  1 16  1  0
  3 17  1  0
  4 18  1  0
  7 19  1  0
  9 20  1  0
  9 21  1  0
 10 22  1  0
 12 23  1  0
 12 24  1  0
 13 25  1  0
 13 26  1  0
M  CHG  1  13   1
M  END
>  <UniqueID>  (28) 
26

>  <SMILES>  (28) 
Cc1ccc(F)cc1CNC(N)=[NH2+]

>  <Energy>  (28) 
21.99717354743271

>  <Genealogy>  (28) 
Cc1ccc(F)cc1CNC(N)=[NH2+] (protonated)
Cc1ccc(F)cc1CNC(N)=[NH2+] (3D coordinates assigned)
Cc1ccc(F)cc1CNC(N)=[NH2+] (optimized conformer: 21.99717354743271 kcal/mol)

>  <smiles>  (28) 
Cc1ccc(F)cc1CNC(=N)N

>  <score_type>  (28) 
oracle

>  <origin>  (28) 
adg

>  <m_score__min__energy>  (28) 
-4.4800000000000004

>  <m_primary>  (28) 
energy

$$$$
28:0
     RDKit          3D

 46 48  0  0  0  0  0  0  0  0999 V2000
   59.7790   26.3820   46.8710 O   0  0  0  0  0  0  0  0  0  0  0  0
   59.2380   27.4490   47.2700 C   0  0  0  0  0  0  0  0  0  0  0  0
   59.8980   28.2570   48.3510 C   0  0  0  0  0  0  0  0  0  0  0  0
   59.3050   29.6100   48.4660 N   0  0  0  0  0  0  0  0  0  0  0  0
   60.0000   30.5980   47.5900 C   0  0  0  0  0  0  0  0  0  0  0  0
   61.0440   31.4350   48.3540 C   0  0  0  0  0  0  0  0  0  0  0  0
   60.4580   32.1640   49.5040 N   0  0  0  0  0  0  0  0  0  0  0  0
   60.1700   33.8430   49.1100 S   0  0  0  0  0  0  0  0  0  0  0  0
   61.4770   34.5830   49.0520 O   0  0  0  0  0  0  0  0  0  0  0  0
   59.2970   34.4590   50.1690 O   0  0  0  0  0  0  0  0  0  0  0  0
   59.3830   33.9710   47.5350 C   0  0  0  0  0  0  0  0  0  0  0  0
   60.0110   34.6750   46.4970 C   0  0  0  0  0  0  0  0  0  0  0  0
   59.3930   34.7870   45.2470 C   0  0  0  0  0  0  0  0  0  0  0  0
   58.1430   34.2050   45.0290 C   0  0  0  0  0  0  0  0  0  0  0  0
   57.5060   33.5130   46.0630 C   0  0  0  0  0  0  0  0  0  0  0  0
   58.1190   33.3970   47.3150 C   0  0  0  0  0  0  0  0  0  0  0  0
   57.4740   32.7340   48.3090 F   0  0  0  0  0  0  0  0  0  0  0  0
   59.2210   31.5510   50.0300 C   0  0  0  0  0  0  0  0  0  0  0  0
   59.2700   30.0250   49.8930 C   0  0  0  0  0  0  0  0  0  0  0  0
   58.0050   27.8670   46.7570 O   0  0  0  0  0  0  0  0  0  0  0  0
   57.8330   28.8040   45.7270 C   0  0  0  0  0  0  0  0  0  0  0  0
   58.9730   29.3870   45.1570 C   0  0  0  0  0  0  0  0  0  0  0  0
   58.8490   30.3140   44.1190 C   0  0  0  0  0  0  0  0  0  0  0  0
   57.5840   30.6600   43.6330 C   0  0  0  0  0  0  0  0  0  0  0  0
   57.4180   31.9260   42.2120 Br  0  0  0  0  0  0  0  0  0  0  0  0
   56.4420   30.0690   44.1830 C   0  0  0  0  0  0  0  0  0  0  0  0
   56.5630   29.1410   45.2220 C   0  0  0  0  0  0  0  0  0  0  0  0
   59.7783   27.7330   49.3107 H   0  0  0  0  0  0  0  0  0  0  0  0
   60.9612   28.3703   48.0926 H   0  0  0  0  0  0  0  0  0  0  0  0
   58.3080   29.5530   48.1460 H   0  0  0  0  0  0  0  0  0  0  0  0
   60.5084   30.0544   46.7800 H   0  0  0  0  0  0  0  0  0  0  0  0
   59.2394   31.2898   47.1989 H   0  0  0  0  0  0  0  0  0  0  0  0
   61.8306   30.7625   48.7268 H   0  0  0  0  0  0  0  0  0  0  0  0
   61.4477   32.1829   47.6557 H   0  0  0  0  0  0  0  0  0  0  0  0
   60.9930   35.1407   46.6665 H   0  0  0  0  0  0  0  0  0  0  0  0
   59.8929   35.3346   44.4345 H   0  0  0  0  0  0  0  0  0  0  0  0
   57.6598   34.2909   44.0445 H   0  0  0  0  0  0  0  0  0  0  0  0
   56.5193   33.0581   45.8916 H   0  0  0  0  0  0  0  0  0  0  0  0
   59.1112   31.8146   51.0923 H   0  0  0  0  0  0  0  0  0  0  0  0
   58.3656   31.9301   49.4515 H   0  0  0  0  0  0  0  0  0  0  0  0
   60.1724   29.6491   50.3974 H   0  0  0  0  0  0  0  0  0  0  0  0
   58.3628   29.6065   50.3534 H   0  0  0  0  0  0  0  0  0  0  0  0
   59.9713   29.1131   45.5291 H   0  0  0  0  0  0  0  0  0  0  0  0
   59.7486   30.7729   43.6829 H   0  0  0  0  0  0  0  0  0  0  0  0
   55.4466   30.3347   43.7975 H   0  0  0  0  0  0  0  0  0  0  0  0
   55.6626   28.6727   45.6462 H   0  0  0  0  0  0  0  0  0  0  0  0
  1  2  2  0
  2  3  1  0
  3  4  1  0
  4  5  1  0
  5  6  1  0
  6  7  1  0
  7  8  1  0
  8  9  2  0
  8 10  2  0
  8 11  1  0
 11 12  2  0
 12 13  1  0
 13 14  2  0
 14 15  1  0
 15 16  2  0
 16 17  1  0
  7 18  1  0
 18 19  1  0
  2 20  1  0
 20 21  1  0
 21 22  2  0
 22 23  1  0
 23 24  2  0
 24 25  1  0
 24 26  1  0
 26 27  2  0
 19  4  1  0
 27 21  1  0
 16 11  1  0
  3 28  1  0
  3 29  1  0
  4 30  1  0
  5 31  1  0
  5 32  1  0
  6 33  1  0
  6 34  1  0
 12 35  1  0
 13 36  1  0
 14 37  1  0
 15 38  1  0
 18 39  1  0
 18 40  1  0
 19 41  1  0
 19 42  1  0
 22 43  1  0
 23 44  1  0
 26 45  1  0
 27 46  1  0
M  CHG  1   4   1
M  END
>  <UniqueID>  (29) 
27

>  <SMILES>  (29) 
O=C(C[NH+]1CCN(S(=O)(=O)c2ccccc2F)CC1)Oc1ccc(Br)cc1

>  <Energy>  (29) 
63.93925905737899

>  <Genealogy>  (29) 
O=C(C[NH+]1CCN(S(=O)(=O)c2ccccc2F)CC1)Oc1ccc(Br)cc1 (protonated)
O=C(C[NH+]1CCN(S(=O)(=O)c2ccccc2F)CC1)Oc1ccc(Br)cc1 (3D coordinates assigned)
O=C(C[NH+]1CCN(S(=O)(=O)c2ccccc2F)CC1)Oc1ccc(Br)cc1 (nonaromatic ring conformer: 63.93925905737899 kcal/mol)

>  <smiles>  (29) 
O=C(CN1CCN(S(=O)(=O)c2ccccc2F)CC1)Oc1ccc(Br)cc1

>  <score_type>  (29) 
oracle

>  <origin>  (29) 
adg

>  <m_score__min__energy>  (29) 
-7.9199999999999999

>  <m_primary>  (29) 
energy

$$$$
29:0
     RDKit          3D

 38 40  0  0  0  0  0  0  0  0999 V2000
   56.6600   22.0970   49.1020 C   0  0  0  0  0  0  0  0  0  0  0  0
   57.1150   22.9760   48.0790 O   0  0  0  0  0  0  0  0  0  0  0  0
   56.2610   23.8540   47.4040 C   0  0  0  0  0  0  0  0  0  0  0  0
   55.0100   23.7180   47.5020 O   0  0  0  0  0  0  0  0  0  0  0  0
   56.8290   24.9420   46.5750 C   0  0  0  0  0  0  0  0  0  0  0  0
   58.1200   24.8200   46.0360 C   0  0  0  0  0  0  0  0  0  0  0  0
   58.6600   25.8440   45.2540 C   0  0  0  0  0  0  0  0  0  0  0  0
   57.9180   26.9990   45.0030 C   0  0  0  0  0  0  0  0  0  0  0  0
   56.6300   27.1430   45.5300 C   0  0  0  0  0  0  0  0  0  0  0  0
   55.9060   28.3470   45.2450 N   0  0  0  0  0  0  0  0  0  0  0  0
   56.5880   29.7950   44.5750 S   0  0  0  0  0  0  0  0  0  0  0  0
   55.4950   30.8090   44.3870 O   0  0  0  0  0  0  0  0  0  0  0  0
   57.2300   29.4680   43.2560 O   0  0  0  0  0  0  0  0  0  0  0  0
   57.8160   30.4610   45.6680 C   0  0  0  0  0  0  0  0  0  0  0  0
   58.4850   29.5850   46.5370 C   0  0  0  0  0  0  0  0  0  0  0  0
   59.4590   30.0540   47.4170 C   0  0  0  0  0  0  0  0  0  0  0  0
   59.7850   31.4080   47.4490 C   0  0  0  0  0  0  0  0  0  0  0  0
   59.1360   32.3100   46.5950 C   0  0  0  0  0  0  0  0  0  0  0  0
   59.4710   33.6720   46.6340 C   0  0  0  0  0  0  0  0  0  0  0  0
   58.8310   34.5790   45.7900 C   0  0  0  0  0  0  0  0  0  0  0  0
   57.8530   34.1360   44.9010 C   0  0  0  0  0  0  0  0  0  0  0  0
   57.5070   32.7830   44.8470 C   0  0  0  0  0  0  0  0  0  0  0  0
   58.1390   31.8450   45.6920 C   0  0  0  0  0  0  0  0  0  0  0  0
   56.0870   26.1110   46.3170 C   0  0  0  0  0  0  0  0  0  0  0  0
   56.8854   22.5325   50.0866 H   0  0  0  0  0  0  0  0  0  0  0  0
   55.5739   21.9525   49.0050 H   0  0  0  0  0  0  0  0  0  0  0  0
   57.1691   21.1267   49.0050 H   0  0  0  0  0  0  0  0  0  0  0  0
   58.7099   23.9122   46.2308 H   0  0  0  0  0  0  0  0  0  0  0  0
   59.6719   25.7397   44.8354 H   0  0  0  0  0  0  0  0  0  0  0  0
   58.3488   27.8017   44.3865 H   0  0  0  0  0  0  0  0  0  0  0  0
   58.2372   28.5134   46.5234 H   0  0  0  0  0  0  0  0  0  0  0  0
   59.9728   29.3514   48.0896 H   0  0  0  0  0  0  0  0  0  0  0  0
   60.5543   31.7703   48.1468 H   0  0  0  0  0  0  0  0  0  0  0  0
   60.2423   34.0260   47.3338 H   0  0  0  0  0  0  0  0  0  0  0  0
   59.0983   35.6454   45.8258 H   0  0  0  0  0  0  0  0  0  0  0  0
   57.3505   34.8557   44.2380 H   0  0  0  0  0  0  0  0  0  0  0  0
   56.7351   32.4458   44.1396 H   0  0  0  0  0  0  0  0  0  0  0  0
   55.0748   26.2180   46.7342 H   0  0  0  0  0  0  0  0  0  0  0  0
  1  2  1  0
  2  3  1  0
  3  4  2  0
  3  5  1  0
  5  6  2  0
  6  7  1  0
  7  8  2  0
  8  9  1  0
  9 10  1  0
 10 11  1  0
 11 12  2  0
 11 13  2  0
 11 14  1  0
 14 15  2  0
 15 16  1  0
 16 17  2  0
 17 18  1  0
 18 19  2  0
 19 20  1  0
 20 21  2  0
 21 22  1  0
 22 23  2  0
  9 24  2  0
 24  5  1  0
 23 14  1  0
 23 18  1  0
  1 25  1  0
  1 26  1  0
  1 27  1  0
  6 28  1  0
  7 29  1  0
  8 30  1  0
 15 31  1  0
 16 32  1  0
 17 33  1  0
 19 34  1  0
 20 35  1  0
 21 36  1  0
 22 37  1  0
 24 38  1  0
M  CHG  1  10  -1
M  END
>  <UniqueID>  (30) 
28

>  <SMILES>  (30) 
COC(=O)c1cccc([N-]S(=O)(=O)c2cccc3ccccc23)c1

>  <Energy>  (30) 
49.27182641692253

>  <Genealogy>  (30) 
COC(=O)c1cccc([N-]S(=O)(=O)c2cccc3ccccc23)c1 (protonated)
COC(=O)c1cccc([N-]S(=O)(=O)c2cccc3ccccc23)c1 (3D coordinates assigned)
COC(=O)c1cccc([N-]S(=O)(=O)c2cccc3ccccc23)c1 (optimized conformer: 49.27182641692253 kcal/mol)

>  <smiles>  (30) 
COC(=O)c1cccc(NS(=O)(=O)c2cccc3ccccc23)c1

>  <score_type>  (30) 
oracle

>  <origin>  (30) 
adg

>  <m_score__min__energy>  (30) 
-10.039999999999999

>  <m_primary>  (30) 
energy

$$$$
30:0
     RDKit          3D

 48 51  0  0  0  0  0  0  0  0999 V2000
   57.7730   26.3490   43.1290 C   0  0  0  0  0  0  0  0  0  0  0  0
   58.6400   27.4510   43.3720 O   0  0  0  0  0  0  0  0  0  0  0  0
   59.1350   27.8060   44.6360 C   0  0  0  0  0  0  0  0  0  0  0  0
   58.5750   27.3150   45.8310 C   0  0  0  0  0  0  0  0  0  0  0  0
   59.1050   27.6970   47.0660 C   0  0  0  0  0  0  0  0  0  0  0  0
   60.2000   28.5730   47.1290 C   0  0  0  0  0  0  0  0  0  0  0  0
   60.7710   28.9740   48.4610 C   0  0  0  0  0  0  0  0  0  0  0  0
   60.8600   30.4310   48.5750 N   0  0  0  0  0  0  0  0  0  0  0  0
   59.2840   31.1700   48.5200 S   0  0  0  0  0  0  0  0  0  0  0  0
   59.2730   32.3540   49.4440 O   0  0  0  0  0  0  0  0  0  0  0  0
   58.2570   30.1860   49.0030 O   0  0  0  0  0  0  0  0  0  0  0  0
   58.8650   31.6970   46.8830 C   0  0  0  0  0  0  0  0  0  0  0  0
   58.0740   30.8510   46.0810 C   0  0  0  0  0  0  0  0  0  0  0  0
   57.5510   31.3050   44.8570 C   0  0  0  0  0  0  0  0  0  0  0  0
   56.4610   30.1480   43.7990 Br  0  0  0  0  0  0  0  0  0  0  0  0
   57.7870   32.6200   44.4350 C   0  0  0  0  0  0  0  0  0  0  0  0
   58.5860   33.4400   45.2300 C   0  0  0  0  0  0  0  0  0  0  0  0
   59.1670   32.9840   46.3850 C   0  0  0  0  0  0  0  0  0  0  0  0
   59.9340   34.0090   47.0080 N   0  0  0  0  0  0  0  0  0  0  0  0
   61.2030   33.8090   47.6460 C   0  0  0  0  0  0  0  0  0  0  0  0
   61.4980   34.4960   48.6600 O   0  0  0  0  0  0  0  0  0  0  0  0
   62.2230   32.8530   47.0930 C   0  0  0  0  0  0  0  0  0  0  0  0
   63.4070   32.6510   48.0280 C   0  0  0  0  0  0  0  0  0  0  0  0
   63.5880   33.4300   46.7380 C   0  0  0  0  0  0  0  0  0  0  0  0
   59.6790   35.2610   46.2860 C   0  0  0  0  0  0  0  0  0  0  0  0
   58.8890   34.8780   45.0170 C   0  0  0  0  0  0  0  0  0  0  0  0
   60.7560   29.0640   45.9370 C   0  0  0  0  0  0  0  0  0  0  0  0
   60.2260   28.6800   44.7020 C   0  0  0  0  0  0  0  0  0  0  0  0
   57.4401   25.9259   44.0883 H   0  0  0  0  0  0  0  0  0  0  0  0
   56.8985   26.6900   42.5555 H   0  0  0  0  0  0  0  0  0  0  0  0
   58.3102   25.5793   42.5555 H   0  0  0  0  0  0  0  0  0  0  0  0
   57.7168   26.6279   45.7921 H   0  0  0  0  0  0  0  0  0  0  0  0
   58.6614   27.3089   47.9948 H   0  0  0  0  0  0  0  0  0  0  0  0
   60.1219   28.5893   49.2614 H   0  0  0  0  0  0  0  0  0  0  0  0
   61.7831   28.5524   48.5504 H   0  0  0  0  0  0  0  0  0  0  0  0
   57.8632   29.8246   46.4157 H   0  0  0  0  0  0  0  0  0  0  0  0
   57.3517   32.9967   43.4977 H   0  0  0  0  0  0  0  0  0  0  0  0
   61.5057   32.2174   46.5530 H   0  0  0  0  0  0  0  0  0  0  0  0
   63.4391   33.1743   48.9950 H   0  0  0  0  0  0  0  0  0  0  0  0
   63.8970   31.7778   48.4835 H   0  0  0  0  0  0  0  0  0  0  0  0
   63.7506   34.5174   46.7705 H   0  0  0  0  0  0  0  0  0  0  0  0
   64.2627   33.3548   45.8725 H   0  0  0  0  0  0  0  0  0  0  0  0
   59.0872   35.9466   46.9103 H   0  0  0  0  0  0  0  0  0  0  0  0
   60.6185   35.7736   46.0318 H   0  0  0  0  0  0  0  0  0  0  0  0
   57.9645   35.4683   44.9342 H   0  0  0  0  0  0  0  0  0  0  0  0
   59.4449   35.0696   44.0874 H   0  0  0  0  0  0  0  0  0  0  0  0
   61.6121   29.7536   45.9752 H   0  0  0  0  0  0  0  0  0  0  0  0
   60.6704   29.0682   43.7737 H   0  0  0  0  0  0  0  0  0  0  0  0
  1  2  1  0
  2  3  1  0
  3  4  2  0
  4  5  1  0
  5  6  2  0
  6  7  1  0
  7  8  1  0
  8  9  1  0
  9 10  2  0
  9 11  2  0
  9 12  1  0
 12 13  2  0
 13 14  1  0
 14 15  1  0
 14 16  2  0
 16 17  1  0
 17 18  2  0
 18 19  1  0
 19 20  1  0
 20 21  2  0
 20 22  1  0
 22 23  1  0
 23 24  1  0
 19 25  1  0
 25 26  1  0
  6 27  1  0
 27 28  2  0
 28  3  1  0
 18 12  1  0
 24 22  1  0
 26 17  1  0
  1 29  1  0
  1 30  1  0
  1 31  1  0
  4 32  1  0
  5 33  1  0
  7 34  1  0
  7 35  1  0
 13 36  1  0
 16 37  1  0
 22 38  1  0
 23 39  1  0
 23 40  1  0
 24 41  1  0
 24 42  1  0
 25 43  1  0
 25 44  1  0
 26 45  1  0
 26 46  1  0
 27 47  1  0
 28 48  1  0
M  CHG  1   8  -1
M  END
>  <UniqueID>  (31) 
29

>  <SMILES>  (31) 
COc1ccc(C[N-]S(=O)(=O)c2cc(Br)cc3c2N(C(=O)C2CC2)CC3)cc1

>  <Energy>  (31) 
334.58396473669114

>  <Genealogy>  (31) 
COc1ccc(C[N-]S(=O)(=O)c2cc(Br)cc3c2N(C(=O)C2CC2)CC3)cc1 (protonated)
COc1ccc(C[N-]S(=O)(=O)c2cc(Br)cc3c2N(C(=O)C2CC2)CC3)cc1 (3D coordinates assigned)
COc1ccc(C[N-]S(=O)(=O)c2cc(Br)cc3c2N(C(=O)C2CC2)CC3)cc1 (nonaromatic ring conformer: 334.58396473669114 kcal/mol)

>  <smiles>  (31) 
COc1ccc(CNS(=O)(=O)c2cc(Br)cc3c2N(C(=O)C2CC2)CC3)cc1

>  <score_type>  (31) 
oracle

>  <origin>  (31) 
adg

>  <m_score__min__energy>  (31) 
-10.029999999999999

>  <m_primary>  (31) 
energy

$$$$
31:0
     RDKit          3D

 33 35  0  0  0  0  0  0  0  0999 V2000
   63.7760   32.4320   48.0790 C   0  0  0  0  0  0  0  0  0  0  0  0
   63.1290   33.8180   48.0320 C   0  0  2  0  0  0  0  0  0  0  0  0
   62.4330   34.1820   49.3600 C   0  0  0  0  0  0  0  0  0  0  0  0
   61.2210   33.3750   49.5850 N   0  0  0  0  0  0  0  0  0  0  0  0
   60.3340   33.3850   48.4440 C   0  0  0  0  0  0  0  0  0  0  0  0
   58.9700   33.0910   48.6110 C   0  0  0  0  0  0  0  0  0  0  0  0
   58.1160   33.0500   47.5050 C   0  0  0  0  0  0  0  0  0  0  0  0
   58.6140   33.2880   46.2180 C   0  0  0  0  0  0  0  0  0  0  0  0
   57.5400   33.2490   44.8240 S   0  0  0  0  0  0  0  0  0  0  0  0
   56.6500   34.4590   44.8610 O   0  0  0  0  0  0  0  0  0  0  0  0
   58.3320   33.2630   43.5460 O   0  0  0  0  0  0  0  0  0  0  0  0
   56.5580   31.8190   44.8650 N   0  0  0  0  0  0  0  0  0  0  0  0
   57.0280   30.6100   44.8790 C   0  0  0  0  0  0  0  0  0  0  0  0
   56.2680   29.5460   45.2130 N   0  0  0  0  0  0  0  0  0  0  0  0
   56.9770   28.3870   45.1590 C   0  0  0  0  0  0  0  0  0  0  0  0
   58.3090   28.5240   44.7820 C   0  0  0  0  0  0  0  0  0  0  0  0
   58.6090   30.1550   44.5040 S   0  0  0  0  0  0  0  0  0  0  0  0
   59.9780   33.5540   46.0410 C   0  0  0  0  0  0  0  0  0  0  0  0
   60.8360   33.5970   47.1440 C   0  0  0  0  0  0  0  0  0  0  0  0
   62.1920   33.8760   46.9570 O   0  0  0  0  0  0  0  0  0  0  0  0
   63.9176   32.1288   49.1269 H   0  0  0  0  0  0  0  0  0  0  0  0
   63.1239   31.7056   47.5720 H   0  0  0  0  0  0  0  0  0  0  0  0
   64.7516   32.4654   47.5720 H   0  0  0  0  0  0  0  0  0  0  0  0
   63.9303   34.5541   47.8703 H   0  0  0  0  0  0  0  0  0  0  0  0
   63.1350   34.0078   50.1887 H   0  0  0  0  0  0  0  0  0  0  0  0
   62.1337   35.2393   49.3091 H   0  0  0  0  0  0  0  0  0  0  0  0
   60.7220   33.7650   50.4180 H   0  0  0  0  0  0  0  0  0  0  0  0
   61.4870   32.3860   49.7980 H   0  0  0  0  0  0  0  0  0  0  0  0
   58.5723   32.8921   49.6171 H   0  0  0  0  0  0  0  0  0  0  0  0
   57.0476   32.8297   47.6464 H   0  0  0  0  0  0  0  0  0  0  0  0
   56.5292   27.4107   45.3965 H   0  0  0  0  0  0  0  0  0  0  0  0
   59.0392   27.7073   44.6830 H   0  0  0  0  0  0  0  0  0  0  0  0
   60.3754   33.7297   45.0305 H   0  0  0  0  0  0  0  0  0  0  0  0
  1  2  1  0
  2  3  1  0
  3  4  1  0
  4  5  1  0
  5  6  2  0
  6  7  1  0
  7  8  2  0
  8  9  1  0
  9 10  2  0
  9 11  2  0
  9 12  1  0
 12 13  2  3
 13 14  1  0
 14 15  1  0
 15 16  2  0
 16 17  1  0
  8 18  1  0
 18 19  2  0
 19 20  1  0
 20  2  1  0
 19  5  1  0
 17 13  1  0
  1 21  1  0
  1 22  1  0
  1 23  1  0
  2 24  1  6
  3 25  1  0
  3 26  1  0
  4 27  1  0
  4 28  1  0
  6 29  1  0
  7 30  1  0
 15 31  1  0
 16 32  1  0
 18 33  1  0
M  CHG  2   4   1  14  -1
M  END
>  <UniqueID>  (32) 
30

>  <SMILES>  (32) 
C[C@@H]1C[NH2+]c2ccc(S(=O)(=O)N=c3[n-]ccs3)cc2O1

>  <Energy>  (32) 
69.4532064013858

>  <Genealogy>  (32) 
CC1C[NH2+]c2ccc(S(=O)(=O)N=c3[n-]ccs3)cc2O1 (protonated)
C[C@@H]1C[NH2+]c2ccc(S(=O)(=O)N=c3[n-]ccs3)cc2O1 (chirality)
C[C@@H]1C[NH2+]c2ccc(S(=O)(=O)N=c3[n-]ccs3)cc2O1 (3D coordinates assigned)
C[C@@H]1C[NH2+]c2ccc(S(=O)(=O)N=c3[n-]ccs3)cc2O1 (nonaromatic ring conformer: 69.4532064013858 kcal/mol)

>  <smiles>  (32) 
CC1CNc2ccc(S(=O)(=O)N=c3[nH]ccs3)cc2O1

>  <score_type>  (32) 
oracle

>  <origin>  (32) 
adg

>  <m_score__min__energy>  (32) 
-7.8200000000000003

>  <m_primary>  (32) 
energy

$$$$
32:0
     RDKit          3D

 44 46  0  0  0  0  0  0  0  0999 V2000
   61.5410   27.9897   45.5739 H   0  0  0  0  0  0  0  0  0  0  0  0
   60.4460   28.0880   45.6100 C   0  0  0  0  0  0  0  0  0  0  0  0
   59.6990   27.1300   46.2140 N   0  0  0  0  0  0  0  0  0  0  0  0
   58.3420   27.2280   46.2640 C   0  0  0  0  0  0  0  0  0  0  0  0
   57.6260   26.3200   46.8580 N   0  0  0  0  0  0  0  0  0  0  0  0
   56.3520   25.8550   46.3960 C   0  0  0  0  0  0  0  0  0  0  0  0
   55.3140   26.6790   46.1660 N   0  0  0  0  0  0  0  0  0  0  0  0
   54.3320   25.9670   45.6290 N   0  0  0  0  0  0  0  0  0  0  0  0
   54.7480   24.6920   45.5030 C   0  0  0  0  0  0  0  0  0  0  0  0
   53.9430   23.6230   44.8370 C   0  0  0  0  0  0  0  0  0  0  0  0
   53.4676   22.9917   45.6021 H   0  0  0  0  0  0  0  0  0  0  0  0
   53.1670   24.0856   44.2094 H   0  0  0  0  0  0  0  0  0  0  0  0
   54.6020   23.0051   44.2094 H   0  0  0  0  0  0  0  0  0  0  0  0
   56.0430   24.5720   45.9750 C   0  0  0  0  0  0  0  0  0  0  0  0
   56.9760   23.4060   45.7870 C   0  0  0  0  0  0  0  0  0  0  0  0
   56.4028   22.4699   45.8587 H   0  0  0  0  0  0  0  0  0  0  0  0
   57.7485   23.4420   46.5693 H   0  0  0  0  0  0  0  0  0  0  0  0
   57.6560   23.4730   44.4240 C   0  0  0  0  0  0  0  0  0  0  0  0
   58.7422   23.5800   44.5610 H   0  0  0  0  0  0  0  0  0  0  0  0
   57.4463   22.5498   43.8638 H   0  0  0  0  0  0  0  0  0  0  0  0
   57.2701   24.3375   43.8638 H   0  0  0  0  0  0  0  0  0  0  0  0
   57.7260   28.3080   45.7180 N   0  0  0  0  0  0  0  0  0  0  0  0
   58.4270   29.2980   45.0980 C   0  0  0  0  0  0  0  0  0  0  0  0
   57.7140   30.4210   44.5260 N   0  0  0  0  0  0  0  0  0  0  0  0
   57.8820   31.7310   45.1100 C   0  0  0  0  0  0  0  0  0  0  0  0
   58.1640   31.8770   46.4800 C   0  0  0  0  0  0  0  0  0  0  0  0
   58.2569   30.9854   47.1176 H   0  0  0  0  0  0  0  0  0  0  0  0
   58.3270   33.1500   47.0360 C   0  0  0  0  0  0  0  0  0  0  0  0
   58.5484   33.2568   48.1082 H   0  0  0  0  0  0  0  0  0  0  0  0
   58.2090   34.2870   46.2310 C   0  0  0  0  0  0  0  0  0  0  0  0
   58.3375   35.2875   46.6697 H   0  0  0  0  0  0  0  0  0  0  0  0
   57.9280   34.1520   44.8700 C   0  0  0  0  0  0  0  0  0  0  0  0
   57.8355   35.0470   44.2372 H   0  0  0  0  0  0  0  0  0  0  0  0
   57.7640   32.8820   44.3100 C   0  0  0  0  0  0  0  0  0  0  0  0
   57.5414   32.7819   43.2374 H   0  0  0  0  0  0  0  0  0  0  0  0
   56.7820   30.2530   43.3960 C   0  0  0  0  0  0  0  0  0  0  0  0
   56.6443   31.2231   42.8961 H   0  0  0  0  0  0  0  0  0  0  0  0
   57.2068   29.5165   42.6981 H   0  0  0  0  0  0  0  0  0  0  0  0
   55.4260   29.7420   43.8760 C   0  0  0  0  0  0  0  0  0  0  0  0
   55.4054   29.7343   44.9758 H   0  0  0  0  0  0  0  0  0  0  0  0
   54.6310   30.4022   43.4991 H   0  0  0  0  0  0  0  0  0  0  0  0
   55.2644   28.7213   43.4991 H   0  0  0  0  0  0  0  0  0  0  0  0
   59.8270   29.1970   45.0350 C   0  0  0  0  0  0  0  0  0  0  0  0
   60.4235   29.9783   44.5412 H   0  0  0  0  0  0  0  0  0  0  0  0
  1  2  1  0
  2  3  1  0
  3  4  1  0
  4  5  2  0
  5  6  1  0
  6  7  2  0
  7  8  1  0
  8  9  1  0
  9 10  1  0
 10 11  1  0
 10 12  1  0
 10 13  1  0
  9 14  2  0
 14 15  1  0
 15 16  1  0
 15 17  1  0
 15 18  1  0
 18 19  1  0
 18 20  1  0
 18 21  1  0
  4 22  1  0
 22 23  2  0
 23 24  1  0
 24 25  1  0
 25 26  2  0
 26 27  1  0
 26 28  1  0
 28 29  1  0
 28 30  2  0
 30 31  1  0
 30 32  1  0
 32 33  1  0
 32 34  2  0
 34 35  1  0
 24 36  1  0
 36 37  1  0
 36 38  1  0
 36 39  1  0
 39 40  1  0
 39 41  1  0
 39 42  1  0
 23 43  1  0
 43 44  1  0
 43  2  2  0
 14  6  1  0
 34 25  1  0
M  CHG  2   3  -1   8  -1
M  END
>  <UniqueID>  (33) 
31

>  <SMILES>  (33) 
CCc1c(/N=c2/nc(N(CC)c3ccccc3)cc[n-]2)n[n-]c1C

>  <Energy>  (33) 
85.37647940328979

>  <Genealogy>  (33) 
CCc1c(N=c2nc(N(CC)c3ccccc3)cc[n-]2)n[n-]c1C (protonated)
CCc1c(/N=c2/nc(N(CC)c3ccccc3)cc[n-]2)n[n-]c1C (cis-trans isomerization)
CCc1c(/N=c2/nc(N(CC)c3ccccc3)cc[n-]2)n[n-]c1C (3D coordinates assigned)
CCc1c(/N=c2/nc(N(CC)c3ccccc3)cc[n-]2)n[n-]c1C (optimized conformer: 85.37647940328979 kcal/mol)

>  <smiles>  (33) 
CCc1c(N=c2nc(N(CC)c3ccccc3)cc[nH]2)n[nH]c1C

>  <score_type>  (33) 
oracle

>  <origin>  (33) 
adg

>  <m_score__min__energy>  (33) 
-11.93

>  <m_primary>  (33) 
energy

$$$$
33:0
     RDKit          3D

 28 30  0  0  1  0  0  0  0  0999 V2000
   59.9810   36.3420   45.4810 F   0  0  0  0  0  0  0  0  0  0  0  0
   59.5070   35.1440   45.9540 C   0  0  0  0  0  0  0  0  0  0  0  0
   59.3800   34.9270   47.3120 C   0  0  0  0  0  0  0  0  0  0  0  0
   58.9090   33.7410   47.8440 C   0  0  0  0  0  0  0  0  0  0  0  0
   58.5440   32.7160   46.9790 C   0  0  0  0  0  0  0  0  0  0  0  0
   58.6610   32.9040   45.5780 C   0  0  0  0  0  0  0  0  0  0  0  0
   58.4110   31.8750   44.7490 N   0  0  0  0  0  0  0  0  0  0  0  0
   57.6550   30.9010   44.8070 C   0  0  0  0  0  0  0  0  0  0  0  0
   56.3730   31.0740   44.4320 N   0  0  0  0  0  0  0  0  0  0  0  0
   55.4870   30.0840   44.4610 C   0  0  0  0  0  0  0  0  0  0  0  0
   55.8530   28.8650   44.8690 N   0  0  0  0  0  0  0  0  0  0  0  0
   57.1300   28.6720   45.2480 C   0  0  0  0  0  0  0  0  0  0  0  0
   57.4690   27.4150   45.6600 C   0  0  0  0  0  0  0  0  0  0  0  0
   58.7690   27.2030   46.0490 C   0  0  0  0  0  0  0  0  0  0  0  0
   59.7460   28.1500   46.0550 C   0  0  0  0  0  0  0  0  0  0  0  0
   59.3690   29.4360   45.6250 C   0  0  0  0  0  0  0  0  0  0  0  0
   58.0840   29.6820   45.2320 C   0  0  0  0  0  0  0  0  0  0  0  0
   59.1430   34.1220   45.0810 C   0  0  0  0  0  0  0  0  0  0  0  0
   59.6666   35.7345   48.0017 H   0  0  0  0  0  0  0  0  0  0  0  0
   58.8246   33.6108   48.9330 H   0  0  0  0  0  0  0  0  0  0  0  0
   58.1662   31.7635   47.3791 H   0  0  0  0  0  0  0  0  0  0  0  0
   54.4487   30.2684   44.1481 H   0  0  0  0  0  0  0  0  0  0  0  0
   55.1470   28.0770   44.8920 H   0  0  0  0  0  0  0  0  0  0  0  0
   56.7281   26.6021   45.6796 H   0  0  0  0  0  0  0  0  0  0  0  0
   59.0412   26.1902   46.3811 H   0  0  0  0  0  0  0  0  0  0  0  0
   60.7728   27.9232   46.3778 H   0  0  0  0  0  0  0  0  0  0  0  0
   60.1123   30.2466   45.6053 H   0  0  0  0  0  0  0  0  0  0  0  0
   59.2344   34.2718   43.9951 H   0  0  0  0  0  0  0  0  0  0  0  0
  1  2  1  0
  2  3  2  0
  3  4  1  0
  4  5  2  0
  5  6  1  0
  6  7  1  0
  7  8  2  0
  8  9  1  0
  9 10  2  0
 10 11  1  0
 11 12  1  0
 12 13  2  0
 13 14  1  0
 14 15  2  0
 15 16  1  0
 16 17  2  0
  6 18  2  0
 18  2  1  0
 17  8  1  0
 17 12  1  0
  3 19  1  0
  4 20  1  0
  5 21  1  0
 10 22  1  0
 11 23  1  0
 13 24  1  0
 14 25  1  0
 15 26  1  0
 16 27  1  0
 18 28  1  0
M  END
>  <smiles>  (34) 
Fc1cccc(N=c2nc[nH]c3ccccc23)c1

>  <score_type>  (34) 
oracle

>  <origin>  (34) 
adg

>  <m_score__min__energy>  (34) 
-7.4100000000000001

>  <m_primary>  (34) 
energy

$$$$
34:0
     RDKit          3D

 19 21  0  0  0  0  0  0  0  0999 V2000
   59.3760   34.8510   46.5690 C   0  0  0  0  0  0  0  0  0  0  0  0
   58.8560   33.8790   45.5650 C   0  0  0  0  0  0  0  0  0  0  0  0
   58.1570   32.7600   45.9070 N   0  0  0  0  0  0  0  0  0  0  0  0
   57.8760   32.2720   44.6880 C   0  0  0  0  0  0  0  0  0  0  0  0
   58.3500   33.0310   43.7020 N   0  0  0  0  0  0  0  0  0  0  0  0
   58.1620   32.7160   42.3900 C   0  0  0  0  0  0  0  0  0  0  0  0
   57.4620   31.5770   42.0830 N   0  0  0  0  0  0  0  0  0  0  0  0
   56.9880   30.8150   43.1130 C   0  0  0  0  0  0  0  0  0  0  0  0
   56.2660   29.6480   43.0580 C   0  0  0  0  0  0  0  0  0  0  0  0
   56.0640   29.3370   44.4050 C   0  0  0  0  0  0  0  0  0  0  0  0
   56.6360   30.2720   45.2050 N   0  0  0  0  0  0  0  0  0  0  0  0
   57.1870   31.1520   44.3930 N   0  0  0  0  0  0  0  0  0  0  0  0
   58.9730   34.0660   44.2240 N   0  0  0  0  0  0  0  0  0  0  0  0
   59.1745   34.4743   47.5826 H   0  0  0  0  0  0  0  0  0  0  0  0
   60.4605   34.9742   46.4325 H   0  0  0  0  0  0  0  0  0  0  0  0
   58.8766   35.8216   46.4325 H   0  0  0  0  0  0  0  0  0  0  0  0
   58.5628   33.3610   41.5942 H   0  0  0  0  0  0  0  0  0  0  0  0
   55.9289   29.0934   42.1699 H   0  0  0  0  0  0  0  0  0  0  0  0
   55.5161   28.4547   44.7675 H   0  0  0  0  0  0  0  0  0  0  0  0
  1  2  1  0
  2  3  1  0
  3  4  2  0
  4  5  1  0
  5  6  1  0
  6  7  2  0
  7  8  1  0
  8  9  2  0
  9 10  1  0
 10 11  2  0
 11 12  1  0
  5 13  1  0
 13  2  2  0
 12  4  1  0
 12  8  1  0
  1 14  1  0
  1 15  1  0
  1 16  1  0
  6 17  1  0
  9 18  1  0
 10 19  1  0
M  END
>  <UniqueID>  (35) 
32

>  <SMILES>  (35) 
Cc1nc2n(cnc3ccnn32)n1

>  <Energy>  (35) 
98.62336832552378

>  <Genealogy>  (35) 
Cc1nc2n(cnc3ccnn32)n1 (3D coordinates assigned)
Cc1nc2n(cnc3ccnn32)n1 (optimized conformer: 98.62336832552378 kcal/mol)

>  <smiles>  (35) 
Cc1nc2n(cnc3ccnn32)n1

>  <score_type>  (35) 
oracle

>  <origin>  (35) 
adg

>  <m_score__min__energy>  (35) 
-5.4000000000000004

>  <m_primary>  (35) 
energy

$$$$
35:0
     RDKit          3D

 25 27  0  0  0  0  0  0  0  0999 V2000
   60.0050   33.5000   49.7790 Br  0  0  0  0  0  0  0  0  0  0  0  0
   58.7900   32.2810   50.6060 C   0  0  0  0  0  0  0  0  0  0  0  0
   57.9530   32.6970   51.6400 C   0  0  0  0  0  0  0  0  0  0  0  0
   57.0960   31.8140   52.2150 N   0  0  0  0  0  0  0  0  0  0  0  0
   57.0400   30.5190   51.8060 C   0  0  0  0  0  0  0  0  0  0  0  0
   56.1880   29.7130   52.3680 N   0  0  0  0  0  0  0  0  0  0  0  0
   54.7680   29.9070   52.4890 C   0  0  0  0  0  0  0  0  0  0  0  0
   54.1400   29.5360   53.6840 C   0  0  0  0  0  0  0  0  0  0  0  0
   52.7590   29.6790   53.8310 C   0  0  0  0  0  0  0  0  0  0  0  0
   51.9880   30.1770   52.7790 C   0  0  0  0  0  0  0  0  0  0  0  0
   52.5940   30.5250   51.5590 C   0  0  0  0  0  0  0  0  0  0  0  0
   51.7760   31.0280   50.4360 C   0  0  0  0  0  0  0  0  0  0  0  0
   51.3110   32.2870   50.3350 N   0  0  0  0  0  0  0  0  0  0  0  0
   50.6410   32.3090   49.1940 N   0  0  0  0  0  0  0  0  0  0  0  0
   50.6940   31.1180   48.6210 N   0  0  0  0  0  0  0  0  0  0  0  0
   51.4000   30.2900   49.3750 N   0  0  0  0  0  0  0  0  0  0  0  0
   53.9860   30.3760   51.4170 C   0  0  0  0  0  0  0  0  0  0  0  0
   57.8450   30.1020   50.7880 N   0  0  0  0  0  0  0  0  0  0  0  0
   58.7160   30.9530   50.1870 C   0  0  0  0  0  0  0  0  0  0  0  0
   57.9865   33.7393   51.9900 H   0  0  0  0  0  0  0  0  0  0  0  0
   54.7385   29.1292   54.5124 H   0  0  0  0  0  0  0  0  0  0  0  0
   52.2767   29.3983   54.7790 H   0  0  0  0  0  0  0  0  0  0  0  0
   50.9019   30.2976   52.9052 H   0  0  0  0  0  0  0  0  0  0  0  0
   54.4669   30.6281   50.4603 H   0  0  0  0  0  0  0  0  0  0  0  0
   59.3618   30.5956   49.3714 H   0  0  0  0  0  0  0  0  0  0  0  0
  1  2  1  0
  2  3  1  0
  3  4  2  0
  4  5  1  0
  5  6  2  3
  6  7  1  0
  7  8  2  0
  8  9  1  0
  9 10  2  0
 10 11  1  0
 11 12  1  0
 12 13  1  0
 13 14  2  0
 14 15  1  0
 15 16  1  0
 11 17  2  0
  5 18  1  0
 18 19  1  0
 19  2  2  0
 17  7  1  0
 16 12  2  0
  3 20  1  0
  8 21  1  0
  9 22  1  0
 10 23  1  0
 17 24  1  0
 19 25  1  0
M  CHG  2  15  -1  18  -1
M  END
>  <UniqueID>  (36) 
33

>  <SMILES>  (36) 
Brc1cnc(=Nc2cccc(-c3nn[n-]n3)c2)[n-]c1

>  <Energy>  (36) 
73.78319285195083

>  <Genealogy>  (36) 
Brc1cnc(=Nc2cccc(-c3nn[n-]n3)c2)[n-]c1 (protonated)
Brc1cnc(=Nc2cccc(-c3nn[n-]n3)c2)[n-]c1 (3D coordinates assigned)
Brc1cnc(=Nc2cccc(-c3nn[n-]n3)c2)[n-]c1 (optimized conformer: 73.78319285195083 kcal/mol)

>  <smiles>  (36) 
Brc1cnc(=Nc2cccc(-c3nn[nH]n3)c2)[nH]c1

>  <score_type>  (36) 
oracle

>  <origin>  (36) 
adg

>  <m_score__min__energy>  (36) 
-11.32

>  <m_primary>  (36) 
energy

$$$$
36:0
     RDKit          3D

 36 37  0  0  0  0  0  0  0  0999 V2000
   56.2730   29.7110   43.1750 C   0  0  0  0  0  0  0  0  0  0  0  0
   57.2770   28.6460   43.1810 N   0  0  0  0  0  0  0  0  0  0  0  0
   57.6640   28.3280   44.5360 C   0  0  0  0  0  0  0  0  0  0  0  0
   57.4340   27.0330   45.0360 C   0  0  0  0  0  0  0  0  0  0  0  0
   57.8770   26.6720   46.3100 C   0  0  0  0  0  0  0  0  0  0  0  0
   58.5710   27.5910   47.0960 C   0  0  0  0  0  0  0  0  0  0  0  0
   58.8190   28.8770   46.6130 C   0  0  0  0  0  0  0  0  0  0  0  0
   58.3590   29.2620   45.3450 C   0  0  0  0  0  0  0  0  0  0  0  0
   58.6420   30.5870   44.8790 N   0  0  0  0  0  0  0  0  0  0  0  0
   57.9100   31.7450   45.4000 C   0  0  0  0  0  0  0  0  0  0  0  0
   57.7710   32.8130   44.2860 C   0  0  0  0  0  0  0  0  0  0  0  0
   57.6340   34.2220   44.8700 C   0  0  0  0  0  0  0  0  0  0  0  0
   58.8790   34.6190   45.6910 C   0  0  0  0  0  0  0  0  0  0  0  0
   59.5900   33.4190   46.3480 C   0  0  0  0  0  0  0  0  0  0  0  0
   58.6080   32.2890   46.6730 C   0  0  0  0  0  0  0  0  0  0  0  0
   56.0186   29.9809   44.2106 H   0  0  0  0  0  0  0  0  0  0  0  0
   56.6765   30.5923   42.6550 H   0  0  0  0  0  0  0  0  0  0  0  0
   55.3694   29.3602   42.6550 H   0  0  0  0  0  0  0  0  0  0  0  0
   58.1100   28.9640   42.6310 H   0  0  0  0  0  0  0  0  0  0  0  0
   56.8920   27.8060   42.6960 H   0  0  0  0  0  0  0  0  0  0  0  0
   56.8997   26.2974   44.4168 H   0  0  0  0  0  0  0  0  0  0  0  0
   57.6781   25.6607   46.6943 H   0  0  0  0  0  0  0  0  0  0  0  0
   58.9233   27.3025   48.0973 H   0  0  0  0  0  0  0  0  0  0  0  0
   59.3793   29.5938   47.2313 H   0  0  0  0  0  0  0  0  0  0  0  0
   59.5940   30.7580   44.4820 H   0  0  0  0  0  0  0  0  0  0  0  0
   56.8936   31.4494   45.6994 H   0  0  0  0  0  0  0  0  0  0  0  0
   58.6637   32.7778   43.6443 H   0  0  0  0  0  0  0  0  0  0  0  0
   56.8623   32.5905   43.7074 H   0  0  0  0  0  0  0  0  0  0  0  0
   57.5059   34.9393   44.0459 H   0  0  0  0  0  0  0  0  0  0  0  0
   56.7615   34.2340   45.5397 H   0  0  0  0  0  0  0  0  0  0  0  0
   59.5919   35.1222   45.0213 H   0  0  0  0  0  0  0  0  0  0  0  0
   58.5351   35.2761   46.5034 H   0  0  0  0  0  0  0  0  0  0  0  0
   60.3572   33.0375   45.6582 H   0  0  0  0  0  0  0  0  0  0  0  0
   60.0432   33.7618   47.2899 H   0  0  0  0  0  0  0  0  0  0  0  0
   59.1582   31.4676   47.1553 H   0  0  0  0  0  0  0  0  0  0  0  0
   57.8326   32.6930   47.3405 H   0  0  0  0  0  0  0  0  0  0  0  0
  1  2  1  0
  2  3  1  0
  3  4  2  0
  4  5  1  0
  5  6  2  0
  6  7  1  0
  7  8  2  0
  8  9  1  0
  9 10  1  0
 10 11  1  0
 11 12  1  0
 12 13  1  0
 13 14  1  0
 14 15  1  0
  8  3  1  0
 15 10  1  0
  1 16  1  0
  1 17  1  0
  1 18  1  0
  2 19  1  0
  2 20  1  0
  4 21  1  0
  5 22  1  0
  6 23  1  0
  7 24  1  0
  9 25  1  0
 10 26  1  0
 11 27  1  0
 11 28  1  0
 12 29  1  0
 12 30  1  0
 13 31  1  0
 13 32  1  0
 14 33  1  0
 14 34  1  0
 15 35  1  0
 15 36  1  0
M  CHG  1   2   1
M  END
>  <UniqueID>  (37) 
34

>  <SMILES>  (37) 
C[NH2+]c1ccccc1NC1CCCCC1

>  <Energy>  (37) 
41.719294395363264

>  <Genealogy>  (37) 
C[NH2+]c1ccccc1NC1CCCCC1 (protonated)
C[NH2+]c1ccccc1NC1CCCCC1 (3D coordinates assigned)
C[NH2+]c1ccccc1NC1CCCCC1 (nonaromatic ring conformer: 41.719294395363264 kcal/mol)

>  <smiles>  (37) 
CNc1ccccc1NC1CCCCC1

>  <score_type>  (37) 
oracle

>  <origin>  (37) 
adg

>  <m_score__min__energy>  (37) 
-4.79

>  <m_primary>  (37) 
energy

$$$$
37:0
     RDKit          3D

 31 32  0  0  0  0  0  0  0  0999 V2000
   56.7820   33.3427   43.7226 H   0  0  0  0  0  0  0  0  0  0  0  0
   57.3960   32.9640   44.5530 C   0  0  0  0  0  0  0  0  0  0  0  0
   58.2130   33.8440   45.2680 C   0  0  0  0  0  0  0  0  0  0  0  0
   58.2245   34.9126   45.0072 H   0  0  0  0  0  0  0  0  0  0  0  0
   59.0170   33.3750   46.3140 C   0  0  0  0  0  0  0  0  0  0  0  0
   59.8100   34.3040   47.0690 N   0  0  0  0  0  0  0  0  0  0  0  0
   59.3370   35.1780   47.3920 H   0  0  0  0  0  0  0  0  0  0  0  0
   61.0740   34.1430   47.3510 C   0  0  0  0  0  0  0  0  0  0  0  0
   61.6220   34.2120   49.0570 S   0  0  0  0  0  0  0  0  0  0  0  0
   62.2820   32.5110   48.9300 C   0  0  0  0  0  0  0  0  0  0  0  0
   61.4552   31.8339   48.6694 H   0  0  0  0  0  0  0  0  0  0  0  0
   62.7302   32.2612   49.9030 H   0  0  0  0  0  0  0  0  0  0  0  0
   63.3930   32.3650   47.8610 C   0  0  0  0  0  0  0  0  0  0  0  0
   63.2600   31.3937   47.3621 H   0  0  0  0  0  0  0  0  0  0  0  0
   64.3484   32.4550   48.3987 H   0  0  0  0  0  0  0  0  0  0  0  0
   63.4070   33.4620   46.7750 C   0  0  0  0  0  0  0  0  0  0  0  0
   63.9680   33.0946   45.9031 H   0  0  0  0  0  0  0  0  0  0  0  0
   63.8829   34.3594   47.1972 H   0  0  0  0  0  0  0  0  0  0  0  0
   62.0540   33.8160   46.3540 N   0  0  0  0  0  0  0  0  0  0  0  0
   61.8380   33.8550   45.3350 H   0  0  0  0  0  0  0  0  0  0  0  0
   58.9550   32.0210   46.6740 C   0  0  0  0  0  0  0  0  0  0  0  0
   59.5513   31.6524   47.5216 H   0  0  0  0  0  0  0  0  0  0  0  0
   58.1390   31.1370   45.9610 C   0  0  0  0  0  0  0  0  0  0  0  0
   58.1117   30.0738   46.2419 H   0  0  0  0  0  0  0  0  0  0  0  0
   57.3520   31.5950   44.8870 C   0  0  0  0  0  0  0  0  0  0  0  0
   56.4900   30.6430   44.1360 C   0  0  0  0  0  0  0  0  0  0  0  0
   55.6060   29.9820   44.7500 O   0  0  0  0  0  0  0  0  0  0  0  0
   56.6350   30.4380   42.6590 C   0  0  0  0  0  0  0  0  0  0  0  0
   57.2609   29.5531   42.4713 H   0  0  0  0  0  0  0  0  0  0  0  0
   55.6420   30.2866   42.2106 H   0  0  0  0  0  0  0  0  0  0  0  0
   57.1085   31.3238   42.2106 H   0  0  0  0  0  0  0  0  0  0  0  0
  1  2  1  0
  2  3  2  0
  3  4  1  0
  3  5  1  0
  5  6  1  0
  6  7  1  0
  6  8  2  0
  8  9  1  0
  9 10  1  0
 10 11  1  0
 10 12  1  0
 10 13  1  0
 13 14  1  0
 13 15  1  0
 13 16  1  0
 16 17  1  0
 16 18  1  0
 16 19  1  0
 19 20  1  0
  5 21  2  0
 21 22  1  0
 21 23  1  0
 23 24  1  0
 23 25  2  0
 25 26  1  0
 26 27  2  0
 26 28  1  0
 28 29  1  0
 28 30  1  0
 28 31  1  0
 25  2  1  0
 19  8  1  0
M  CHG  1   6   1
M  END
>  <UniqueID>  (38) 
35

>  <SMILES>  (38) 
CC(=O)c1ccc(/[NH+]=C2\NCCCS2)cc1

>  <Energy>  (38) 
40.01239775910837

>  <Genealogy>  (38) 
CC(=O)c1ccc([NH+]=C2NCCCS2)cc1 (protonated)
CC(=O)c1ccc(/[NH+]=C2\NCCCS2)cc1 (cis-trans isomerization)
CC(=O)c1ccc(/[NH+]=C2\NCCCS2)cc1 (3D coordinates assigned)
CC(=O)c1ccc(/[NH+]=C2\NCCCS2)cc1 (nonaromatic ring conformer: 40.01239775910837 kcal/mol)

>  <smiles>  (38) 
CC(=O)c1ccc(N=C2NCCCS2)cc1

>  <score_type>  (38) 
oracle

>  <origin>  (38) 
adg

>  <m_score__min__energy>  (38) 
-5.3799999999999999

>  <m_primary>  (38) 
energy

$$$$
38:0
     RDKit          3D

 46 49  0  0  1  0  0  0  0  0999 V2000
   56.2630   29.8290   42.4710 N   0  0  0  0  0  0  0  0  0  0  0  0
   56.3210   30.0820   44.1600 S   0  0  0  0  0  0  0  0  0  0  0  0
   55.1970   29.3450   44.8170 O   0  0  0  0  0  0  0  0  0  0  0  0
   56.2790   31.5410   44.5070 O   0  0  0  0  0  0  0  0  0  0  0  0
   57.8270   29.4120   44.7630 C   0  0  0  0  0  0  0  0  0  0  0  0
   58.2120   28.1140   44.5300 C   0  0  0  0  0  0  0  0  0  0  0  0
   59.4100   27.6550   45.0340 C   0  0  0  0  0  0  0  0  0  0  0  0
   60.2520   28.4670   45.7800 C   0  0  0  0  0  0  0  0  0  0  0  0
   59.8780   29.7570   46.0160 C   0  0  0  0  0  0  0  0  0  0  0  0
   60.6620   30.7190   46.7810 C   0  0  0  0  0  0  0  0  0  0  0  0
   61.9870   30.4710   47.0600 C   0  0  0  0  0  0  0  0  0  0  0  0
   62.7560   31.3640   47.7820 C   0  0  0  0  0  0  0  0  0  0  0  0
   62.1630   32.5090   48.2150 C   0  0  0  0  0  0  0  0  0  0  0  0
   62.8790   33.3870   48.9100 N   0  0  0  0  0  0  0  0  0  0  0  0
   62.3630   34.5410   49.3710 C   0  0  0  0  0  0  0  0  0  0  0  0
   61.0780   34.8330   49.1270 N   0  0  0  0  0  0  0  0  0  0  0  0
   60.3370   33.9800   48.4360 C   0  0  0  0  0  0  0  0  0  0  0  0
   59.1040   34.2850   48.2140 N   0  0  0  0  0  0  0  0  0  0  0  0
   58.5260   34.6020   46.9490 C   0  0  0  0  0  0  0  0  0  0  0  0
   59.4640   34.7040   45.8000 C   0  0  0  0  0  0  0  0  0  0  0  0
   58.5800   34.5040   44.5740 C   0  0  0  0  0  0  0  0  0  0  0  0
   57.1940   34.1730   45.0940 C   0  0  0  0  0  0  0  0  0  0  0  0
   57.4880   33.6360   46.4830 C   0  0  0  0  0  0  0  0  0  0  0  0
   60.8420   32.7840   47.9500 C   0  0  0  0  0  0  0  0  0  0  0  0
   60.0680   31.9010   47.2310 C   0  0  0  0  0  0  0  0  0  0  0  0
   58.6670   30.2130   45.5030 C   0  0  0  0  0  0  0  0  0  0  0  0
   55.5240   29.1350   42.2200 H   0  0  0  0  0  0  0  0  0  0  0  0
   57.1950   29.4580   42.1690 H   0  0  0  0  0  0  0  0  0  0  0  0
   57.5667   27.4435   43.9435 H   0  0  0  0  0  0  0  0  0  0  0  0
   59.7073   26.6140   44.8390 H   0  0  0  0  0  0  0  0  0  0  0  0
   61.2027   28.0779   46.1734 H   0  0  0  0  0  0  0  0  0  0  0  0
   62.4454   29.5384   46.6991 H   0  0  0  0  0  0  0  0  0  0  0  0
   63.8139   31.1554   47.9996 H   0  0  0  0  0  0  0  0  0  0  0  0
   63.8710   33.1960   49.1170 H   0  0  0  0  0  0  0  0  0  0  0  0
   62.9910   35.2393   49.9437 H   0  0  0  0  0  0  0  0  0  0  0  0
   58.1062   35.5890   47.1933 H   0  0  0  0  0  0  0  0  0  0  0  0
   59.9453   35.6928   45.7764 H   0  0  0  0  0  0  0  0  0  0  0  0
   60.2788   33.9671   45.8556 H   0  0  0  0  0  0  0  0  0  0  0  0
   58.5506   35.4242   43.9721 H   0  0  0  0  0  0  0  0  0  0  0  0
   58.9668   33.7000   43.9307 H   0  0  0  0  0  0  0  0  0  0  0  0
   56.5610   35.0714   45.1402 H   0  0  0  0  0  0  0  0  0  0  0  0
   56.6422   33.4663   44.4568 H   0  0  0  0  0  0  0  0  0  0  0  0
   56.5944   33.6631   47.1239 H   0  0  0  0  0  0  0  0  0  0  0  0
   57.8068   32.5834   46.5037 H   0  0  0  0  0  0  0  0  0  0  0  0
   59.0115   32.1199   47.0168 H   0  0  0  0  0  0  0  0  0  0  0  0
   58.3696   31.2542   45.6965 H   0  0  0  0  0  0  0  0  0  0  0  0
  1  2  1  0
  2  3  2  0
  2  4  2  0
  2  5  1  0
  5  6  2  0
  6  7  1  0
  7  8  2  0
  8  9  1  0
  9 10  1  0
 10 11  2  0
 11 12  1  0
 12 13  2  0
 13 14  1  0
 14 15  1  0
 15 16  2  0
 16 17  1  0
 17 18  2  0
 18 19  1  0
 19 20  1  0
 20 21  1  0
 21 22  1  0
 22 23  1  0
 17 24  1  0
 24 25  2  0
  9 26  2  0
 26  5  1  0
 25 10  1  0
 24 13  1  0
 23 19  1  0
  1 27  1  0
  1 28  1  0
  6 29  1  0
  7 30  1  0
  8 31  1  0
 11 32  1  0
 12 33  1  0
 14 34  1  0
 15 35  1  0
 19 36  1  0
 20 37  1  0
 20 38  1  0
 21 39  1  0
 21 40  1  0
 22 41  1  0
 22 42  1  0
 23 43  1  0
 23 44  1  0
 25 45  1  0
 26 46  1  0
M  END
>  <smiles>  (39) 
NS(=O)(=O)c1cccc(-c2ccc3[nH]cnc(=NC4CCCC4)c3c2)c1

>  <score_type>  (39) 
oracle

>  <origin>  (39) 
adg

>  <m_score__min__energy>  (39) 
-9.8499999999999996

>  <m_primary>  (39) 
energy

$$$$
39:0
     RDKit          3D

 46 49  0  0  0  0  0  0  0  0999 V2000
   56.2420   29.7140   42.6020 C   0  0  0  0  0  0  0  0  0  0  0  0
   56.0530   29.9920   43.9860 O   0  0  0  0  0  0  0  0  0  0  0  0
   57.0940   30.1110   44.9200 C   0  0  0  0  0  0  0  0  0  0  0  0
   57.7460   28.9960   45.4650 C   0  0  0  0  0  0  0  0  0  0  0  0
   58.7750   29.1670   46.3890 C   0  0  0  0  0  0  0  0  0  0  0  0
   59.1840   30.4510   46.7880 C   0  0  0  0  0  0  0  0  0  0  0  0
   58.5270   31.5890   46.2440 C   0  0  0  0  0  0  0  0  0  0  0  0
   57.4850   31.3930   45.3180 C   0  0  0  0  0  0  0  0  0  0  0  0
   58.8220   32.9850   46.6760 C   0  0  0  0  0  0  0  0  0  0  0  0
   57.8630   33.8030   46.7450 O   0  0  0  0  0  0  0  0  0  0  0  0
   60.1550   33.4450   46.9910 N   0  0  0  0  0  0  0  0  0  0  0  0
   60.3290   34.7820   47.5700 C   0  0  0  0  0  0  0  0  0  0  0  0
   61.3220   32.5960   46.7500 C   0  0  0  0  0  0  0  0  0  0  0  0
   61.2760   31.4480   47.7040 C   0  0  0  0  0  0  0  0  0  0  0  0
   62.0910   31.1930   48.7960 C   0  0  0  0  0  0  0  0  0  0  0  0
   63.3190   31.8950   49.1980 C   0  0  0  0  0  0  0  0  0  0  0  0
   64.2050   31.4590   50.1120 N   0  0  0  0  0  0  0  0  0  0  0  0
   65.1100   32.4560   50.1440 C   0  0  0  0  0  0  0  0  0  0  0  0
   66.3260   32.4760   51.0280 C   0  0  0  0  0  0  0  0  0  0  0  0
   67.3730   33.4490   50.4790 C   0  0  0  0  0  0  0  0  0  0  0  0
   66.9070   31.0660   51.1730 C   0  0  0  0  0  0  0  0  0  0  0  0
   64.7830   33.4530   49.2970 N   0  0  0  0  0  0  0  0  0  0  0  0
   63.6710   33.0720   48.7380 O   0  0  0  0  0  0  0  0  0  0  0  0
   61.5830   30.1630   49.5030 N   0  0  0  0  0  0  0  0  0  0  0  0
   60.4760   29.8010   48.8220 C   0  0  0  0  0  0  0  0  0  0  0  0
   60.2580   30.5730   47.7370 N   0  0  0  0  0  0  0  0  0  0  0  0
   56.8573   28.8090   42.4905 H   0  0  0  0  0  0  0  0  0  0  0  0
   55.2646   29.5542   42.1233 H   0  0  0  0  0  0  0  0  0  0  0  0
   56.7501   30.5641   42.1233 H   0  0  0  0  0  0  0  0  0  0  0  0
   57.4442   27.9825   45.1622 H   0  0  0  0  0  0  0  0  0  0  0  0
   59.2748   28.2834   46.8126 H   0  0  0  0  0  0  0  0  0  0  0  0
   56.9669   32.2679   44.8982 H   0  0  0  0  0  0  0  0  0  0  0  0
   60.3197   34.7103   48.6676 H   0  0  0  0  0  0  0  0  0  0  0  0
   61.2895   35.2031   47.2382 H   0  0  0  0  0  0  0  0  0  0  0  0
   59.5083   35.4349   47.2382 H   0  0  0  0  0  0  0  0  0  0  0  0
   61.3011   32.2208   45.7162 H   0  0  0  0  0  0  0  0  0  0  0  0
   62.2463   33.1736   46.8986 H   0  0  0  0  0  0  0  0  0  0  0  0
   64.1730   30.5990   50.7020 H   0  0  0  0  0  0  0  0  0  0  0  0
   66.0277   32.8259   52.0273 H   0  0  0  0  0  0  0  0  0  0  0  0
   67.8961   33.9351   51.3157 H   0  0  0  0  0  0  0  0  0  0  0  0
   68.0989   32.8975   49.8635 H   0  0  0  0  0  0  0  0  0  0  0  0
   66.8761   34.2134   49.8635 H   0  0  0  0  0  0  0  0  0  0  0  0
   67.0087   30.8193   52.2401 H   0  0  0  0  0  0  0  0  0  0  0  0
   66.2344   30.3409   50.6915 H   0  0  0  0  0  0  0  0  0  0  0  0
   67.8952   31.0253   50.6915 H   0  0  0  0  0  0  0  0  0  0  0  0
   59.8225   28.9675   49.1189 H   0  0  0  0  0  0  0  0  0  0  0  0
  1  2  1  0
  2  3  1  0
  3  4  2  0
  4  5  1  0
  5  6  2  0
  6  7  1  0
  7  8  2  0
  7  9  1  0
  9 10  2  0
  9 11  1  0
 11 12  1  0
 11 13  1  0
 13 14  1  0
 14 15  2  0
 15 16  1  0
 16 17  2  0
 17 18  1  0
 18 19  1  0
 19 20  1  0
 19 21  1  0
 18 22  2  0
 22 23  1  0
 15 24  1  0
 24 25  2  0
 25 26  1  0
  8  3  1  0
 26 14  1  0
 26  6  1  0
 23 16  1  0
  1 27  1  0
  1 28  1  0
  1 29  1  0
  4 30  1  0
  5 31  1  0
  8 32  1  0
 12 33  1  0
 12 34  1  0
 12 35  1  0
 13 36  1  0
 13 37  1  0
 17 38  1  0
 19 39  1  0
 20 40  1  0
 20 41  1  0
 20 42  1  0
 21 43  1  0
 21 44  1  0
 21 45  1  0
 25 46  1  0
M  CHG  1  17   1
M  END
>  <UniqueID>  (40) 
36

>  <SMILES>  (40) 
COc1ccc2c(c1)C(=O)N(C)Cc1c(-c3[nH+]c(C(C)C)no3)ncn1-2

>  <Energy>  (40) 
121.79542646703102

>  <Genealogy>  (40) 
COc1ccc2c(c1)C(=O)N(C)Cc1c(-c3[nH+]c(C(C)C)no3)ncn1-2 (protonated)
COc1ccc2c(c1)C(=O)N(C)Cc1c(-c3[nH+]c(C(C)C)no3)ncn1-2 (3D coordinates assigned)
COc1ccc2c(c1)C(=O)N(C)Cc1c(-c3[nH+]c(C(C)C)no3)ncn1-2 (nonaromatic ring conformer: 121.79542646703102 kcal/mol)

>  <smiles>  (40) 
COc1ccc2c(c1)C(=O)N(C)Cc1c(-c3nc(C(C)C)no3)ncn1-2

>  <score_type>  (40) 
oracle

>  <origin>  (40) 
adg

>  <m_score__min__energy>  (40) 
-5.8200000000000003

>  <m_primary>  (40) 
energy

$$$$
40:0
     RDKit          3D

 37 39  0  0  0  0  0  0  0  0999 V2000
   58.1450   32.1830   50.1260 C   0  0  0  0  0  0  0  0  0  0  0  0
   59.5360   31.8630   49.7600 N   0  0  0  0  0  0  0  0  0  0  0  0
   59.5310   31.2490   48.4170 C   0  0  0  0  0  0  0  0  0  0  0  0
   60.4470   33.0430   49.7800 C   0  0  2  0  0  0  0  0  0  0  0  0
   59.7000   34.2920   49.2320 C   0  0  0  0  0  0  0  0  0  0  0  0
   60.2410   34.5810   47.8130 C   0  0  2  0  0  0  0  0  0  0  0  0
   59.2470   34.2090   46.7280 C   0  0  0  0  0  0  0  0  0  0  0  0
   59.6090   34.2140   45.3670 C   0  0  0  0  0  0  0  0  0  0  0  0
   58.6840   33.8420   44.3880 C   0  0  0  0  0  0  0  0  0  0  0  0
   57.3930   33.4540   44.7540 C   0  0  0  0  0  0  0  0  0  0  0  0
   57.0260   33.4350   46.1010 C   0  0  0  0  0  0  0  0  0  0  0  0
   57.9480   33.8060   47.0850 C   0  0  0  0  0  0  0  0  0  0  0  0
   61.4740   33.7600   47.7420 C   0  0  0  0  0  0  0  0  0  0  0  0
   62.4690   33.8450   46.7630 C   0  0  0  0  0  0  0  0  0  0  0  0
   63.6350   33.0810   46.9170 C   0  0  0  0  0  0  0  0  0  0  0  0
   63.8030   32.2740   48.0560 C   0  0  0  0  0  0  0  0  0  0  0  0
   62.7960   32.2140   49.0310 C   0  0  0  0  0  0  0  0  0  0  0  0
   61.6100   32.9360   48.8340 C   0  0  0  0  0  0  0  0  0  0  0  0
   58.0499   32.2049   51.2217 H   0  0  0  0  0  0  0  0  0  0  0  0
   57.8747   33.1668   49.7148 H   0  0  0  0  0  0  0  0  0  0  0  0
   57.4720   31.4162   49.7148 H   0  0  0  0  0  0  0  0  0  0  0  0
   59.5221   30.1534   48.5148 H   0  0  0  0  0  0  0  0  0  0  0  0
   58.6355   31.5754   47.8679 H   0  0  0  0  0  0  0  0  0  0  0  0
   60.4317   31.5608   47.8679 H   0  0  0  0  0  0  0  0  0  0  0  0
   60.7809   33.1056   50.8262 H   0  0  0  0  0  0  0  0  0  0  0  0
   58.6193   34.0918   49.1869 H   0  0  0  0  0  0  0  0  0  0  0  0
   59.8650   35.1579   49.8900 H   0  0  0  0  0  0  0  0  0  0  0  0
   60.4294   35.6516   47.6444 H   0  0  0  0  0  0  0  0  0  0  0  0
   60.6260   34.5126   45.0729 H   0  0  0  0  0  0  0  0  0  0  0  0
   58.9731   33.8547   43.3267 H   0  0  0  0  0  0  0  0  0  0  0  0
   56.6659   33.1636   43.9814 H   0  0  0  0  0  0  0  0  0  0  0  0
   56.0098   33.1277   46.3888 H   0  0  0  0  0  0  0  0  0  0  0  0
   57.6551   33.7824   48.1450 H   0  0  0  0  0  0  0  0  0  0  0  0
   62.3395   34.4991   45.8882 H   0  0  0  0  0  0  0  0  0  0  0  0
   64.4188   33.1132   46.1459 H   0  0  0  0  0  0  0  0  0  0  0  0
   64.7256   31.6886   48.1829 H   0  0  0  0  0  0  0  0  0  0  0  0
   62.9350   31.6082   49.9386 H   0  0  0  0  0  0  0  0  0  0  0  0
  1  2  1  0
  2  3  1  0
  2  4  1  0
  4  5  1  0
  5  6  1  0
  6  7  1  0
  7  8  2  0
  8  9  1  0
  9 10  2  0
 10 11  1  0
 11 12  2  0
  6 13  1  0
 13 14  2  0
 14 15  1  0
 15 16  2  0
 16 17  1  0
 17 18  2  0
 18  4  1  0
 12  7  1  0
 18 13  1  0
  1 19  1  0
  1 20  1  0
  1 21  1  0
  3 22  1  0
  3 23  1  0
  3 24  1  0
  4 25  1  1
  5 26  1  0
  5 27  1  0
  6 28  1  1
  8 29  1  0
  9 30  1  0
 10 31  1  0
 11 32  1  0
 12 33  1  0
 14 34  1  0
 15 35  1  0
 16 36  1  0
 17 37  1  0
M  END
>  <UniqueID>  (41) 
37

>  <SMILES>  (41) 
CN(C)[C@@H]1C[C@H](c2ccccc2)c2ccccc21

>  <Energy>  (41) 
53.501310607128346

>  <Genealogy>  (41) 
CN(C)[C@@H]1C[C@H](c2ccccc2)c2ccccc21 (chirality)
CN(C)[C@@H]1C[C@H](c2ccccc2)c2ccccc21 (3D coordinates assigned)
CN(C)[C@@H]1C[C@H](c2ccccc2)c2ccccc21 (nonaromatic ring conformer: 53.501310607128346 kcal/mol)

>  <smiles>  (41) 
CN(C)C1CC(c2ccccc2)c2ccccc21

>  <score_type>  (41) 
oracle

>  <origin>  (41) 
adg

>  <m_score__min__energy>  (41) 
-6.8499999999999996

>  <m_primary>  (41) 
energy

$$$$
41:0
     RDKit          3D

 52 54  0  0  0  0  0  0  0  0999 V2000
   58.1510   27.0900   42.9380 C   0  0  0  0  0  0  0  0  0  0  0  0
   58.2370   27.7250   44.2100 O   0  0  0  0  0  0  0  0  0  0  0  0
   58.0450   29.0980   44.4290 C   0  0  0  0  0  0  0  0  0  0  0  0
   56.9350   29.7910   43.9070 C   0  0  0  0  0  0  0  0  0  0  0  0
   56.7740   31.1570   44.1570 C   0  0  0  0  0  0  0  0  0  0  0  0
   57.7100   31.8430   44.9360 C   0  0  0  0  0  0  0  0  0  0  0  0
   57.4830   33.5900   45.2830 S   0  0  0  0  0  0  0  0  0  0  0  0
   59.2700   33.9750   45.3420 C   0  0  0  0  0  0  0  0  0  0  0  0
   59.7390   34.2100   46.7470 C   0  0  0  0  0  0  0  0  0  0  0  0
   59.5970   35.3440   47.2760 O   0  0  0  0  0  0  0  0  0  0  0  0
   60.4230   33.1720   47.4650 N   0  0  0  0  0  0  0  0  0  0  0  0
   59.6250   32.4110   48.4420 C   0  0  0  0  0  0  0  0  0  0  0  0
   60.3570   31.1720   48.9670 C   0  0  0  0  0  0  0  0  0  0  0  0
   61.7890   31.4970   49.2810 C   0  0  0  0  0  0  0  0  0  0  0  0
   62.3990   30.9800   50.4320 C   0  0  0  0  0  0  0  0  0  0  0  0
   63.7550   31.2380   50.6980 C   0  0  0  0  0  0  0  0  0  0  0  0
   64.3960   30.7480   51.8470 O   0  0  0  0  0  0  0  0  0  0  0  0
   65.4470   29.7870   51.8380 C   0  0  0  0  0  0  0  0  0  0  0  0
   64.5050   32.0020   49.7930 C   0  0  0  0  0  0  0  0  0  0  0  0
   65.8600   32.2320   50.0830 O   0  0  0  0  0  0  0  0  0  0  0  0
   66.3480   33.3130   50.8730 C   0  0  0  0  0  0  0  0  0  0  0  0
   63.8920   32.5100   48.6320 C   0  0  0  0  0  0  0  0  0  0  0  0
   62.5260   32.2760   48.3720 C   0  0  0  0  0  0  0  0  0  0  0  0
   61.8070   32.7660   47.1150 C   0  0  2  0  0  0  0  0  0  0  0  0
   62.5680   33.8830   46.3670 C   0  0  0  0  0  0  0  0  0  0  0  0
   58.8240   31.1660   45.4440 C   0  0  0  0  0  0  0  0  0  0  0  0
   58.9900   29.7990   45.1970 C   0  0  0  0  0  0  0  0  0  0  0  0
   60.3880   28.9710   45.8640 Cl  0  0  0  0  0  0  0  0  0  0  0  0
   58.0046   26.0087   43.0771 H   0  0  0  0  0  0  0  0  0  0  0  0
   57.3010   27.5060   42.3772 H   0  0  0  0  0  0  0  0  0  0  0  0
   59.0810   27.2649   42.3772 H   0  0  0  0  0  0  0  0  0  0  0  0
   56.1912   29.2545   43.2996 H   0  0  0  0  0  0  0  0  0  0  0  0
   55.9088   31.6931   43.7397 H   0  0  0  0  0  0  0  0  0  0  0  0
   59.8312   33.1307   44.9150 H   0  0  0  0  0  0  0  0  0  0  0  0
   59.4427   34.8947   44.7637 H   0  0  0  0  0  0  0  0  0  0  0  0
   59.3905   33.0679   49.2926 H   0  0  0  0  0  0  0  0  0  0  0  0
   58.7141   32.0666   47.9304 H   0  0  0  0  0  0  0  0  0  0  0  0
   59.8580   30.8177   49.8810 H   0  0  0  0  0  0  0  0  0  0  0  0
   60.3324   30.3912   48.1926 H   0  0  0  0  0  0  0  0  0  0  0  0
   61.8122   30.3677   51.1326 H   0  0  0  0  0  0  0  0  0  0  0  0
   65.7224   29.5352   52.8728 H   0  0  0  0  0  0  0  0  0  0  0  0
   65.1091   28.8790   51.3171 H   0  0  0  0  0  0  0  0  0  0  0  0
   66.3212   30.2046   51.3171 H   0  0  0  0  0  0  0  0  0  0  0  0
   66.2370   33.0671   51.9394 H   0  0  0  0  0  0  0  0  0  0  0  0
   67.4104   33.4836   50.6447 H   0  0  0  0  0  0  0  0  0  0  0  0
   65.7732   34.2227   50.6447 H   0  0  0  0  0  0  0  0  0  0  0  0
   64.4870   33.0978   47.9175 H   0  0  0  0  0  0  0  0  0  0  0  0
   61.7693   31.9278   46.4036 H   0  0  0  0  0  0  0  0  0  0  0  0
   63.0314   34.5631   47.0969 H   0  0  0  0  0  0  0  0  0  0  0  0
   63.3495   33.4349   45.7358 H   0  0  0  0  0  0  0  0  0  0  0  0
   61.8650   34.4463   45.7358 H   0  0  0  0  0  0  0  0  0  0  0  0
   59.5717   31.7103   46.0395 H   0  0  0  0  0  0  0  0  0  0  0  0
  1  2  1  0
  2  3  1  0
  3  4  2  0
  4  5  1  0
  5  6  2  0
  6  7  1  0
  7  8  1  0
  8  9  1  0
  9 10  2  0
  9 11  1  0
 11 12  1  0
 12 13  1  0
 13 14  1  0
 14 15  2  0
 15 16  1  0
 16 17  1  0
 17 18  1  0
 16 19  2  0
 19 20  1  0
 20 21  1  0
 19 22  1  0
 22 23  2  0
 23 24  1  0
 24 25  1  0
  6 26  1  0
 26 27  2  0
 27 28  1  0
 27  3  1  0
 24 11  1  0
 23 14  1  0
  1 29  1  0
  1 30  1  0
  1 31  1  0
  4 32  1  0
  5 33  1  0
  8 34  1  0
  8 35  1  0
 12 36  1  0
 12 37  1  0
 13 38  1  0
 13 39  1  0
 15 40  1  0
 18 41  1  0
 18 42  1  0
 18 43  1  0
 21 44  1  0
 21 45  1  0
 21 46  1  0
 22 47  1  0
 24 48  1  6
 25 49  1  0
 25 50  1  0
 25 51  1  0
 26 52  1  0
M  END
>  <UniqueID>  (42) 
38

>  <SMILES>  (42) 
COc1ccc(SCC(=O)N2CCc3cc(OC)c(OC)cc3[C@@H]2C)cc1Cl

>  <Energy>  (42) 
58.459749851069944

>  <Genealogy>  (42) 
COc1ccc(SCC(=O)N2CCc3cc(OC)c(OC)cc3[C@@H]2C)cc1Cl (chirality)
COc1ccc(SCC(=O)N2CCc3cc(OC)c(OC)cc3[C@@H]2C)cc1Cl (3D coordinates assigned)
COc1ccc(SCC(=O)N2CCc3cc(OC)c(OC)cc3[C@@H]2C)cc1Cl (nonaromatic ring conformer: 58.459749851069944 kcal/mol)

>  <smiles>  (42) 
COc1ccc(SCC(=O)N2CCc3cc(OC)c(OC)cc3C2C)cc1Cl

>  <score_type>  (42) 
oracle

>  <origin>  (42) 
adg

>  <m_score__min__energy>  (42) 
-7.4500000000000002

>  <m_primary>  (42) 
energy

$$$$
42:0
     RDKit          3D

 29 29  0  0  0  0  0  0  0  0999 V2000
   59.5260   34.0790   48.1730 C   0  0  0  0  0  0  0  0  0  0  0  0
   58.8020   34.4390   46.8710 C   0  0  0  0  0  0  0  0  0  0  0  0
   59.6660   35.3540   45.9940 C   0  0  0  0  0  0  0  0  0  0  0  0
   58.3860   33.1910   46.1130 C   0  0  0  0  0  0  0  0  0  0  0  0
   57.7970   33.2760   44.8400 C   0  0  0  0  0  0  0  0  0  0  0  0
   57.4190   32.1210   44.1520 C   0  0  0  0  0  0  0  0  0  0  0  0
   57.6180   30.8440   44.7170 C   0  0  0  0  0  0  0  0  0  0  0  0
   57.2240   29.6430   44.0030 N   0  0  0  0  0  0  0  0  0  0  0  0
   56.2690   29.7160   42.8900 C   0  0  0  0  0  0  0  0  0  0  0  0
   57.7760   28.3360   44.3800 C   0  0  0  0  0  0  0  0  0  0  0  0
   58.2100   30.7680   45.9950 C   0  0  0  0  0  0  0  0  0  0  0  0
   58.5880   31.9240   46.6810 C   0  0  0  0  0  0  0  0  0  0  0  0
   58.9103   34.3851   49.0316 H   0  0  0  0  0  0  0  0  0  0  0  0
   59.6938   32.9925   48.2109 H   0  0  0  0  0  0  0  0  0  0  0  0
   60.4935   34.6010   48.2109 H   0  0  0  0  0  0  0  0  0  0  0  0
   57.8885   34.9912   47.1366 H   0  0  0  0  0  0  0  0  0  0  0  0
   60.2796   36.0038   46.6352 H   0  0  0  0  0  0  0  0  0  0  0  0
   60.3220   34.7405   45.3589 H   0  0  0  0  0  0  0  0  0  0  0  0
   59.0160   35.9738   45.3589 H   0  0  0  0  0  0  0  0  0  0  0  0
   57.6321   34.2619   44.3809 H   0  0  0  0  0  0  0  0  0  0  0  0
   56.9599   32.2083   43.1562 H   0  0  0  0  0  0  0  0  0  0  0  0
   55.2467   29.7941   43.2885 H   0  0  0  0  0  0  0  0  0  0  0  0
   56.4909   30.5998   42.2738 H   0  0  0  0  0  0  0  0  0  0  0  0
   56.3540   28.8087   42.2738 H   0  0  0  0  0  0  0  0  0  0  0  0
   57.8103   28.2549   45.4765 H   0  0  0  0  0  0  0  0  0  0  0  0
   57.1383   27.5374   43.9730 H   0  0  0  0  0  0  0  0  0  0  0  0
   58.7931   28.2363   43.9730 H   0  0  0  0  0  0  0  0  0  0  0  0
   58.3763   29.7841   46.4578 H   0  0  0  0  0  0  0  0  0  0  0  0
   59.0486   31.8405   47.6764 H   0  0  0  0  0  0  0  0  0  0  0  0
  1  2  1  0
  2  3  1  0
  2  4  1  0
  4  5  2  0
  5  6  1  0
  6  7  2  0
  7  8  1  0
  8  9  1  0
  8 10  1  0
  7 11  1  0
 11 12  2  0
 12  4  1  0
  1 13  1  0
  1 14  1  0
  1 15  1  0
  2 16  1  0
  3 17  1  0
  3 18  1  0
  3 19  1  0
  5 20  1  0
  6 21  1  0
  9 22  1  0
  9 23  1  0
  9 24  1  0
 10 25  1  0
 10 26  1  0
 10 27  1  0
 11 28  1  0
 12 29  1  0
M  END
>  <UniqueID>  (43) 
39

>  <SMILES>  (43) 
CC(C)c1ccc(N(C)C)cc1

>  <Energy>  (43) 
24.553844580700904

>  <Genealogy>  (43) 
CC(C)c1ccc(N(C)C)cc1 (3D coordinates assigned)
CC(C)c1ccc(N(C)C)cc1 (optimized conformer: 24.553844580700904 kcal/mol)

>  <smiles>  (43) 
CC(C)c1ccc(N(C)C)cc1

>  <score_type>  (43) 
oracle

>  <origin>  (43) 
adg

>  <m_score__min__energy>  (43) 
-4.9699999999999998

>  <m_primary>  (43) 
energy

$$$$
43:0
     RDKit          3D

 22 23  0  0  0  0  0  0  0  0999 V2000
   57.9760   31.9140   42.2710 C   0  0  0  0  0  0  0  0  0  0  0  0
   57.7780   31.8920   43.7650 C   0  0  0  0  0  0  0  0  0  0  0  0
   56.9890   30.7230   44.2260 C   0  0  0  0  0  0  0  0  0  0  0  0
   55.6230   30.5760   44.1300 C   0  0  0  0  0  0  0  0  0  0  0  0
   55.3490   29.3710   44.6760 N   0  0  0  0  0  0  0  0  0  0  0  0
   56.4660   28.7670   45.1030 C   0  0  0  0  0  0  0  0  0  0  0  0
   56.7140   27.5540   45.7170 C   0  0  0  0  0  0  0  0  0  0  0  0
   55.7350   26.7320   45.9950 N   0  0  0  0  0  0  0  0  0  0  0  0
   58.0000   27.2580   46.0180 N   0  0  0  0  0  0  0  0  0  0  0  0
   59.0220   28.1050   45.7370 C   0  0  0  0  0  0  0  0  0  0  0  0
   58.7930   29.2940   45.1360 N   0  0  0  0  0  0  0  0  0  0  0  0
   57.5210   29.6030   44.8300 C   0  0  0  0  0  0  0  0  0  0  0  0
   59.0459   32.0329   42.0446 H   0  0  0  0  0  0  0  0  0  0  0  0
   57.6125   30.9699   41.8390 H   0  0  0  0  0  0  0  0  0  0  0  0
   57.4141   32.7552   41.8390 H   0  0  0  0  0  0  0  0  0  0  0  0
   58.7651   31.8622   44.2494 H   0  0  0  0  0  0  0  0  0  0  0  0
   57.2157   32.7975   44.0367 H   0  0  0  0  0  0  0  0  0  0  0  0
   54.9056   31.2899   43.6992 H   0  0  0  0  0  0  0  0  0  0  0  0
   54.3900   28.9660   44.7520 H   0  0  0  0  0  0  0  0  0  0  0  0
   54.7700   27.1860   45.9720 H   0  0  0  0  0  0  0  0  0  0  0  0
   58.2090   26.3490   46.4840 H   0  0  0  0  0  0  0  0  0  0  0  0
   60.0510   27.8203   46.0018 H   0  0  0  0  0  0  0  0  0  0  0  0
  1  2  1  0
  2  3  1  0
  3  4  2  0
  4  5  1  0
  5  6  1  0
  6  7  1  0
  7  8  2  3
  7  9  1  0
  9 10  1  0
 10 11  2  0
 11 12  1  0
 12  3  1  0
 12  6  2  0
  1 13  1  0
  1 14  1  0
  1 15  1  0
  2 16  1  0
  2 17  1  0
  4 18  1  0
  5 19  1  0
  8 20  1  0
  9 21  1  0
 10 22  1  0
M  END
>  <smiles>  (44) 
CCc1c[nH]c2c(=N)[nH]cnc12

>  <score_type>  (44) 
oracle

>  <origin>  (44) 
adg

>  <m_score__min__energy>  (44) 
-5.4400000000000004

>  <m_primary>  (44) 
energy

$$$$
44:0
     RDKit          3D

 41 43  0  0  0  0  0  0  0  0999 V2000
   58.2000   25.6090   45.6200 C   0  0  0  0  0  0  0  0  0  0  0  0
   59.2730   26.6960   45.5880 C   0  0  0  0  0  0  0  0  0  0  0  0
   58.6520   28.0460   45.3430 C   0  0  0  0  0  0  0  0  0  0  0  0
   57.4070   28.1470   44.6990 C   0  0  0  0  0  0  0  0  0  0  0  0
   56.7990   29.3960   44.5280 C   0  0  0  0  0  0  0  0  0  0  0  0
   57.4220   30.5510   45.0130 C   0  0  0  0  0  0  0  0  0  0  0  0
   56.8300   31.7320   44.8700 O   0  0  0  0  0  0  0  0  0  0  0  0
   57.3550   32.8660   45.3260 C   0  0  0  0  0  0  0  0  0  0  0  0
   56.7060   33.9320   45.1640 O   0  0  0  0  0  0  0  0  0  0  0  0
   58.6090   32.8660   45.9850 C   0  0  0  0  0  0  0  0  0  0  0  0
   59.2410   34.1030   46.5340 C   0  0  0  0  0  0  0  0  0  0  0  0
   58.5270   34.9720   47.1070 O   0  0  0  0  0  0  0  0  0  0  0  0
   60.6360   34.3720   46.3700 N   0  0  0  0  0  0  0  0  0  0  0  0
   61.6620   33.7900   47.1960 C   0  0  0  0  0  0  0  0  0  0  0  0
   61.4010   33.3570   48.5100 C   0  0  0  0  0  0  0  0  0  0  0  0
   62.4310   32.8150   49.2910 C   0  0  0  0  0  0  0  0  0  0  0  0
   63.7280   32.6970   48.7820 C   0  0  0  0  0  0  0  0  0  0  0  0
   64.7300   32.1670   49.6120 O   0  0  0  0  0  0  0  0  0  0  0  0
   65.8050   32.9220   50.1610 C   0  0  0  0  0  0  0  0  0  0  0  0
   63.9870   33.1150   47.4620 C   0  0  0  0  0  0  0  0  0  0  0  0
   62.9610   33.6570   46.6820 C   0  0  0  0  0  0  0  0  0  0  0  0
   59.2580   31.6270   46.1440 C   0  0  0  0  0  0  0  0  0  0  0  0
   58.6660   30.4580   45.6610 C   0  0  0  0  0  0  0  0  0  0  0  0
   59.2780   29.2060   45.8280 C   0  0  0  0  0  0  0  0  0  0  0  0
   57.9577   25.3636   46.6645 H   0  0  0  0  0  0  0  0  0  0  0  0
   57.2957   25.9713   45.1092 H   0  0  0  0  0  0  0  0  0  0  0  0
   58.5740   24.7094   45.1092 H   0  0  0  0  0  0  0  0  0  0  0  0
   59.8016   26.7108   46.5525 H   0  0  0  0  0  0  0  0  0  0  0  0
   59.9770   26.4758   44.7719 H   0  0  0  0  0  0  0  0  0  0  0  0
   56.9079   27.2399   44.3275 H   0  0  0  0  0  0  0  0  0  0  0  0
   55.8304   29.4696   44.0118 H   0  0  0  0  0  0  0  0  0  0  0  0
   60.8970   35.1470   45.7190 H   0  0  0  0  0  0  0  0  0  0  0  0
   60.3860   33.4443   48.9248 H   0  0  0  0  0  0  0  0  0  0  0  0
   62.2166   32.4786   50.3161 H   0  0  0  0  0  0  0  0  0  0  0  0
   65.7546   32.8866   51.2593 H   0  0  0  0  0  0  0  0  0  0  0  0
   66.7617   32.4964   49.8239 H   0  0  0  0  0  0  0  0  0  0  0  0
   65.7293   33.9663   49.8239 H   0  0  0  0  0  0  0  0  0  0  0  0
   64.9994   33.0147   47.0437 H   0  0  0  0  0  0  0  0  0  0  0  0
   63.1745   33.9830   45.6533 H   0  0  0  0  0  0  0  0  0  0  0  0
   60.2336   31.5795   46.6498 H   0  0  0  0  0  0  0  0  0  0  0  0
   60.2492   29.1332   46.3394 H   0  0  0  0  0  0  0  0  0  0  0  0
  1  2  1  0
  2  3  1  0
  3  4  2  0
  4  5  1  0
  5  6  2  0
  6  7  1  0
  7  8  1  0
  8  9  2  0
  8 10  1  0
 10 11  1  0
 11 12  2  0
 11 13  1  0
 13 14  1  0
 14 15  2  0
 15 16  1  0
 16 17  2  0
 17 18  1  0
 18 19  1  0
 17 20  1  0
 20 21  2  0
 10 22  2  0
 22 23  1  0
 23 24  2  0
 24  3  1  0
 23  6  1  0
 21 14  1  0
  1 25  1  0
  1 26  1  0
  1 27  1  0
  2 28  1  0
  2 29  1  0
  4 30  1  0
  5 31  1  0
 13 32  1  0
 15 33  1  0
 16 34  1  0
 19 35  1  0
 19 36  1  0
 19 37  1  0
 20 38  1  0
 21 39  1  0
 22 40  1  0
 24 41  1  0
M  END
>  <UniqueID>  (45) 
40

>  <SMILES>  (45) 
CCc1ccc2oc(=O)c(C(=O)Nc3ccc(OC)cc3)cc2c1

>  <Energy>  (45) 
54.45519493044288

>  <Genealogy>  (45) 
CCc1ccc2oc(=O)c(C(=O)Nc3ccc(OC)cc3)cc2c1 (3D coordinates assigned)
CCc1ccc2oc(=O)c(C(=O)Nc3ccc(OC)cc3)cc2c1 (optimized conformer: 54.45519493044288 kcal/mol)

>  <smiles>  (45) 
CCc1ccc2oc(=O)c(C(=O)Nc3ccc(OC)cc3)cc2c1

>  <score_type>  (45) 
oracle

>  <origin>  (45) 
adg

>  <m_score__min__energy>  (45) 
-7.54

>  <m_primary>  (45) 
energy

$$$$
45:0
     RDKit          3D

 54 58  0  0  0  0  0  0  0  0999 V2000
   66.2350   32.2190   50.5120 C   0  0  0  0  0  0  0  0  0  0  0  0
   65.3910   33.3660   50.4350 O   0  0  0  0  0  0  0  0  0  0  0  0
   64.2800   33.4790   49.5810 C   0  0  0  0  0  0  0  0  0  0  0  0
   64.3090   33.0080   48.2550 C   0  0  0  0  0  0  0  0  0  0  0  0
   63.1820   33.1180   47.4410 C   0  0  0  0  0  0  0  0  0  0  0  0
   62.0010   33.6930   47.9340 C   0  0  0  0  0  0  0  0  0  0  0  0
   60.7930   33.7950   47.0830 C   0  0  0  0  0  0  0  0  0  0  0  0
   60.6990   34.6320   46.0290 N   0  0  0  0  0  0  0  0  0  0  0  0
   59.4870   34.4780   45.5130 N   0  0  0  0  0  0  0  0  0  0  0  0
   58.8610   33.5460   46.2560 C   0  0  0  0  0  0  0  0  0  0  0  0
   57.1390   33.0890   46.0200 S   0  0  0  0  0  0  0  0  0  0  0  0
   57.4510   32.1900   44.4650 C   0  0  0  0  0  0  0  0  0  0  0  0
   57.1200   30.7450   44.6530 C   0  0  0  0  0  0  0  0  0  0  0  0
   55.9150   30.3990   44.8000 O   0  0  0  0  0  0  0  0  0  0  0  0
   58.1650   29.7640   44.5750 N   0  0  0  0  0  0  0  0  0  0  0  0
   58.3360   28.6440   45.4540 C   0  0  0  0  0  0  0  0  0  0  0  0
   59.5750   28.4410   46.0980 C   0  0  0  0  0  0  0  0  0  0  0  0
   59.7560   27.3560   46.9890 C   0  0  0  0  0  0  0  0  0  0  0  0
   58.6960   26.4680   47.2570 C   0  0  0  0  0  0  0  0  0  0  0  0
   57.4830   26.7100   46.6220 C   0  0  0  0  0  0  0  0  0  0  0  0
   56.3200   26.0560   46.7530 N   0  0  0  0  0  0  0  0  0  0  0  0
   55.4880   26.7180   45.9880 O   0  0  0  0  0  0  0  0  0  0  0  0
   56.0230   27.7460   45.3740 N   0  0  0  0  0  0  0  0  0  0  0  0
   57.3050   27.7470   45.7650 C   0  0  0  0  0  0  0  0  0  0  0  0
   59.6470   33.0950   47.2540 N   0  0  0  0  0  0  0  0  0  0  0  0
   59.2500   32.2850   48.3730 C   0  0  0  0  0  0  0  0  0  0  0  0
   59.2000   30.8860   48.2490 C   0  0  0  0  0  0  0  0  0  0  0  0
   58.8160   30.0960   49.3370 C   0  0  0  0  0  0  0  0  0  0  0  0
   58.4860   30.6960   50.5590 C   0  0  0  0  0  0  0  0  0  0  0  0
   57.9940   29.7040   51.9210 Cl  0  0  0  0  0  0  0  0  0  0  0  0
   58.5340   32.0900   50.6870 C   0  0  0  0  0  0  0  0  0  0  0  0
   58.9180   32.8820   49.5990 C   0  0  0  0  0  0  0  0  0  0  0  0
   61.9770   34.1920   49.2460 C   0  0  0  0  0  0  0  0  0  0  0  0
   63.1110   34.0800   50.0760 C   0  0  0  0  0  0  0  0  0  0  0  0
   63.1170   34.5480   51.4020 O   0  0  0  0  0  0  0  0  0  0  0  0
   64.1780   35.2920   51.9920 C   0  0  0  0  0  0  0  0  0  0  0  0
   66.4188   31.9692   51.5674 H   0  0  0  0  0  0  0  0  0  0  0  0
   65.7452   31.3692   50.0140 H   0  0  0  0  0  0  0  0  0  0  0  0
   67.1920   32.4339   50.0140 H   0  0  0  0  0  0  0  0  0  0  0  0
   65.2269   32.5500   47.8580 H   0  0  0  0  0  0  0  0  0  0  0  0
   63.2193   32.7512   46.4046 H   0  0  0  0  0  0  0  0  0  0  0  0
   56.8224   32.6097   43.6658 H   0  0  0  0  0  0  0  0  0  0  0  0
   58.5106   32.2915   44.1878 H   0  0  0  0  0  0  0  0  0  0  0  0
   60.4084   29.1327   45.9058 H   0  0  0  0  0  0  0  0  0  0  0  0
   60.7311   27.2053   47.4754 H   0  0  0  0  0  0  0  0  0  0  0  0
   58.8229   25.6165   47.9418 H   0  0  0  0  0  0  0  0  0  0  0  0
   59.4639   30.4108   47.2927 H   0  0  0  0  0  0  0  0  0  0  0  0
   58.7730   29.0018   49.2331 H   0  0  0  0  0  0  0  0  0  0  0  0
   58.2694   32.5630   51.6442 H   0  0  0  0  0  0  0  0  0  0  0  0
   58.9598   33.9761   49.7051 H   0  0  0  0  0  0  0  0  0  0  0  0
   61.0658   34.6744   49.6295 H   0  0  0  0  0  0  0  0  0  0  0  0
   64.0994   35.2369   53.0878 H   0  0  0  0  0  0  0  0  0  0  0  0
   65.1428   34.8716   51.6720 H   0  0  0  0  0  0  0  0  0  0  0  0
   64.1115   36.3423   51.6720 H   0  0  0  0  0  0  0  0  0  0  0  0
  1  2  1  0
  2  3  1  0
  3  4  2  0
  4  5  1  0
  5  6  2  0
  6  7  1  0
  7  8  2  0
  8  9  1  0
  9 10  2  0
 10 11  1  0
 11 12  1  0
 12 13  1  0
 13 14  2  0
 13 15  1  0
 15 16  1  0
 16 17  2  0
 17 18  1  0
 18 19  2  0
 19 20  1  0
 20 21  2  0
 21 22  1  0
 22 23  1  0
 23 24  2  0
 10 25  1  0
 25 26  1  0
 26 27  2  0
 27 28  1  0
 28 29  2  0
 29 30  1  0
 29 31  1  0
 31 32  2  0
  6 33  1  0
 33 34  2  0
 34 35  1  0
 35 36  1  0
 34  3  1  0
 25  7  1  0
 32 26  1  0
 24 16  1  0
 24 20  1  0
  1 37  1  0
  1 38  1  0
  1 39  1  0
  4 40  1  0
  5 41  1  0
 12 42  1  0
 12 43  1  0
 17 44  1  0
 18 45  1  0
 19 46  1  0
 27 47  1  0
 28 48  1  0
 31 49  1  0
 32 50  1  0
 33 51  1  0
 36 52  1  0
 36 53  1  0
 36 54  1  0
M  CHG  1  15  -1
M  END
>  <UniqueID>  (46) 
41

>  <SMILES>  (46) 
COc1ccc(-c2nnc(SCC(=O)[N-]c3cccc4nonc34)n2-c2ccc(Cl)cc2)cc1OC

>  <Energy>  (46) 
146.50856727810535

>  <Genealogy>  (46) 
COc1ccc(-c2nnc(SCC(=O)[N-]c3cccc4nonc34)n2-c2ccc(Cl)cc2)cc1OC (protonated)
COc1ccc(-c2nnc(SCC(=O)[N-]c3cccc4nonc34)n2-c2ccc(Cl)cc2)cc1OC (3D coordinates assigned)
COc1ccc(-c2nnc(SCC(=O)[N-]c3cccc4nonc34)n2-c2ccc(Cl)cc2)cc1OC (optimized conformer: 146.50856727810535 kcal/mol)

>  <smiles>  (46) 
COc1ccc(-c2nnc(SCC(=O)Nc3cccc4nonc34)n2-c2ccc(Cl)cc2)cc1OC

>  <score_type>  (46) 
oracle

>  <origin>  (46) 
adg

>  <m_score__min__energy>  (46) 
-11.15

>  <m_primary>  (46) 
energy

$$$$
46:0
     RDKit          3D

 28 30  0  0  0  0  0  0  0  0999 V2000
   58.8860   34.4790   47.3770 N   0  0  0  0  0  0  0  0  0  0  0  0
   58.6070   33.6640   46.2360 C   0  0  0  0  0  0  0  0  0  0  0  0
   58.7210   34.1960   44.9450 C   0  0  0  0  0  0  0  0  0  0  0  0
   58.4500   33.3980   43.8300 C   0  0  0  0  0  0  0  0  0  0  0  0
   58.0600   32.0680   43.9970 C   0  0  0  0  0  0  0  0  0  0  0  0
   57.9340   31.5210   45.2870 C   0  0  0  0  0  0  0  0  0  0  0  0
   57.5340   30.1030   45.4760 C   0  0  0  0  0  0  0  0  0  0  0  0
   58.3950   29.2350   46.0880 N   0  0  0  0  0  0  0  0  0  0  0  0
   58.0630   27.9300   46.2750 C   0  0  0  0  0  0  0  0  0  0  0  0
   58.9330   27.0730   46.8770 N   0  0  0  0  0  0  0  0  0  0  0  0
   58.6220   25.7620   47.0710 C   0  0  0  0  0  0  0  0  0  0  0  0
   57.3850   25.2630   46.6500 C   0  0  0  0  0  0  0  0  0  0  0  0
   56.4740   26.1210   46.0290 C   0  0  0  0  0  0  0  0  0  0  0  0
   56.8110   27.4630   45.8380 C   0  0  0  0  0  0  0  0  0  0  0  0
   55.9490   28.3230   45.2400 N   0  0  0  0  0  0  0  0  0  0  0  0
   56.2730   29.6290   45.0510 C   0  0  0  0  0  0  0  0  0  0  0  0
   55.4350   30.4010   44.5160 O   0  0  0  0  0  0  0  0  0  0  0  0
   58.2160   32.3270   46.4030 C   0  0  0  0  0  0  0  0  0  0  0  0
   58.8850   35.5220   47.3020 H   0  0  0  0  0  0  0  0  0  0  0  0
   59.0970   34.0480   48.3050 H   0  0  0  0  0  0  0  0  0  0  0  0
   59.0246   35.2444   44.8085 H   0  0  0  0  0  0  0  0  0  0  0  0
   58.5443   33.8191   42.8182 H   0  0  0  0  0  0  0  0  0  0  0  0
   57.8501   31.4445   43.1154 H   0  0  0  0  0  0  0  0  0  0  0  0
   59.3340   29.5670   46.4020 H   0  0  0  0  0  0  0  0  0  0  0  0
   59.3455   25.0932   47.5602 H   0  0  0  0  0  0  0  0  0  0  0  0
   57.1317   24.2041   46.8065 H   0  0  0  0  0  0  0  0  0  0  0  0
   55.4976   25.7422   45.6926 H   0  0  0  0  0  0  0  0  0  0  0  0
   58.1295   31.9063   47.4157 H   0  0  0  0  0  0  0  0  0  0  0  0
  1  2  1  0
  2  3  2  0
  3  4  1  0
  4  5  2  0
  5  6  1  0
  6  7  1  0
  7  8  2  0
  8  9  1  0
  9 10  2  0
 10 11  1  0
 11 12  2  0
 12 13  1  0
 13 14  2  0
 14 15  1  0
 15 16  1  0
 16 17  2  0
  6 18  2  0
 18  2  1  0
 16  7  1  0
 14  9  1  0
  1 19  1  0
  1 20  1  0
  3 21  1  0
  4 22  1  0
  5 23  1  0
  8 24  1  0
 11 25  1  0
 12 26  1  0
 13 27  1  0
 18 28  1  0
M  CHG  2   8   1  15  -1
M  END
>  <UniqueID>  (47) 
42

>  <SMILES>  (47) 
Nc1cccc(-c2[nH+]c3ncccc3[n-]c2=O)c1

>  <Energy>  (47) 
40.85215632733598

>  <Genealogy>  (47) 
Nc1cccc(-c2[nH+]c3ncccc3[n-]c2=O)c1 (protonated)
Nc1cccc(-c2[nH+]c3ncccc3[n-]c2=O)c1 (3D coordinates assigned)
Nc1cccc(-c2[nH+]c3ncccc3[n-]c2=O)c1 (optimized conformer: 40.85215632733598 kcal/mol)

>  <smiles>  (47) 
Nc1cccc(-c2nc3ncccc3[nH]c2=O)c1

>  <score_type>  (47) 
oracle

>  <origin>  (47) 
adg

>  <m_score__min__energy>  (47) 
-6.8099999999999996

>  <m_primary>  (47) 
energy

$$$$
47:0
     RDKit          3D

 47 50  0  0  0  0  0  0  0  0999 V2000
   60.5339   28.4485   47.7451 H   0  0  0  0  0  0  0  0  0  0  0  0
   60.4670   29.5460   47.7140 C   0  0  0  0  0  0  0  0  0  0  0  0
   60.3940   30.1820   48.8480 N   0  0  0  0  0  0  0  0  0  0  0  0
   59.2880   30.9290   49.3750 C   0  0  0  0  0  0  0  0  0  0  0  0
   58.2600   30.3460   49.8130 O   0  0  0  0  0  0  0  0  0  0  0  0
   59.3630   32.4240   49.4210 C   0  0  0  0  0  0  0  0  0  0  0  0
   58.3717   32.8276   49.6747 H   0  0  0  0  0  0  0  0  0  0  0  0
   60.1009   32.7178   50.1820 H   0  0  0  0  0  0  0  0  0  0  0  0
   59.7950   32.9760   48.0900 C   0  0  0  0  0  0  0  0  0  0  0  0
   61.0560   33.4770   47.7390 C   0  0  0  0  0  0  0  0  0  0  0  0
   62.2710   33.4570   48.5760 C   0  0  0  0  0  0  0  0  0  0  0  0
   62.3120   34.2070   49.7630 C   0  0  0  0  0  0  0  0  0  0  0  0
   61.4411   34.8093   50.0609 H   0  0  0  0  0  0  0  0  0  0  0  0
   63.4550   34.1910   50.5670 C   0  0  0  0  0  0  0  0  0  0  0  0
   63.4766   34.7693   51.5025 H   0  0  0  0  0  0  0  0  0  0  0  0
   64.5710   33.4410   50.1840 C   0  0  0  0  0  0  0  0  0  0  0  0
   65.4698   33.4286   50.8181 H   0  0  0  0  0  0  0  0  0  0  0  0
   64.5440   32.7070   48.9950 C   0  0  0  0  0  0  0  0  0  0  0  0
   65.4238   32.1205   48.6917 H   0  0  0  0  0  0  0  0  0  0  0  0
   63.4000   32.7170   48.1900 C   0  0  0  0  0  0  0  0  0  0  0  0
   63.3849   32.1433   47.2516 H   0  0  0  0  0  0  0  0  0  0  0  0
   61.0070   34.0870   46.5310 N   0  0  0  0  0  0  0  0  0  0  0  0
   61.7910   34.5660   46.0330 H   0  0  0  0  0  0  0  0  0  0  0  0
   59.7340   33.9810   46.1140 C   0  0  0  0  0  0  0  0  0  0  0  0
   59.1890   34.4910   44.9360 C   0  0  0  0  0  0  0  0  0  0  0  0
   59.8167   35.0166   44.2014 H   0  0  0  0  0  0  0  0  0  0  0  0
   57.8110   34.3120   44.7170 C   0  0  0  0  0  0  0  0  0  0  0  0
   57.3499   34.6957   43.7950 H   0  0  0  0  0  0  0  0  0  0  0  0
   57.0160   33.6430   45.6730 C   0  0  0  0  0  0  0  0  0  0  0  0
   55.9388   33.5121   45.4929 H   0  0  0  0  0  0  0  0  0  0  0  0
   57.5930   33.1430   46.8540 C   0  0  0  0  0  0  0  0  0  0  0  0
   56.9821   32.6268   47.6092 H   0  0  0  0  0  0  0  0  0  0  0  0
   58.9640   33.3220   47.0380 C   0  0  0  0  0  0  0  0  0  0  0  0
   60.4660   30.2120   46.3610 C   0  0  0  0  0  0  0  0  0  0  0  0
   59.8967   31.1507   46.4295 H   0  0  0  0  0  0  0  0  0  0  0  0
   61.5125   30.3959   46.0763 H   0  0  0  0  0  0  0  0  0  0  0  0
   59.8330   29.3290   45.2760 C   0  0  0  0  0  0  0  0  0  0  0  0
   60.4643   29.3584   44.3756 H   0  0  0  0  0  0  0  0  0  0  0  0
   59.7572   28.3018   45.6623 H   0  0  0  0  0  0  0  0  0  0  0  0
   58.4900   29.7960   44.9330 N   0  0  0  0  0  0  0  0  0  0  0  0
   57.3220   29.3390   45.4230 C   0  0  0  0  0  0  0  0  0  0  0  0
   57.2449   28.5606   46.1964 H   0  0  0  0  0  0  0  0  0  0  0  0
   56.2560   29.9450   44.8570 N   0  0  0  0  0  0  0  0  0  0  0  0
   56.7950   30.8110   43.9740 C   0  0  0  0  0  0  0  0  0  0  0  0
   56.2239   31.4880   43.3217 H   0  0  0  0  0  0  0  0  0  0  0  0
   58.1670   30.7190   44.0130 C   0  0  0  0  0  0  0  0  0  0  0  0
   58.8733   31.2981   43.4000 H   0  0  0  0  0  0  0  0  0  0  0  0
  1  2  1  0
  2  3  2  0
  3  4  1  0
  4  5  2  0
  4  6  1  0
  6  7  1  0
  6  8  1  0
  6  9  1  0
  9 10  2  0
 10 11  1  0
 11 12  2  0
 12 13  1  0
 12 14  1  0
 14 15  1  0
 14 16  2  0
 16 17  1  0
 16 18  1  0
 18 19  1  0
 18 20  2  0
 20 21  1  0
 10 22  1  0
 22 23  1  0
 22 24  1  0
 24 25  2  0
 25 26  1  0
 25 27  1  0
 27 28  1  0
 27 29  2  0
 29 30  1  0
 29 31  1  0
 31 32  1  0
 31 33  2  0
  2 34  1  0
 34 35  1  0
 34 36  1  0
 34 37  1  0
 37 38  1  0
 37 39  1  0
 37 40  1  0
 40 41  1  0
 41 42  1  0
 41 43  2  0
 43 44  1  0
 44 45  1  0
 44 46  2  0
 46 47  1  0
 33  9  1  0
 46 40  1  0
 20 11  1  0
 33 24  1  0
M  END
>  <UniqueID>  (48) 
43

>  <SMILES>  (48) 
O=C(Cc1c(-c2ccccc2)[nH]c2ccccc12)/N=C\CCn1ccnc1

>  <Energy>  (48) 
114.20356751504656

>  <Genealogy>  (48) 
O=C(Cc1c(-c2ccccc2)[nH]c2ccccc12)/N=C\CCn1ccnc1 (cis-trans isomerization)
O=C(Cc1c(-c2ccccc2)[nH]c2ccccc12)/N=C\CCn1ccnc1 (3D coordinates assigned)
O=C(Cc1c(-c2ccccc2)[nH]c2ccccc12)/N=C\CCn1ccnc1 (optimized conformer: 114.20356751504656 kcal/mol)

>  <smiles>  (48) 
O=C(Cc1c(-c2ccccc2)[nH]c2ccccc12)N=CCCn1ccnc1

>  <score_type>  (48) 
oracle

>  <origin>  (48) 
adg

>  <m_score__min__energy>  (48) 
-8.5399999999999991

>  <m_primary>  (48) 
energy

$$$$
