0:0
     RDKit          3D

 62 64  0  0  0  0  0  0  0  0999 V2000
   54.8770   24.0710   44.9730 C   0  0  0  0  0  0  0  0  0  0  0  0
   53.9750   25.1190   45.6160 C   0  0  0  0  0  0  0  0  0  0  0  0
   54.7390   26.3120   45.9630 N   0  0  0  0  0  0  0  0  0  0  0  0
   56.1140   26.3580   46.3770 C   0  0  0  0  0  0  0  0  0  0  0  0
   56.5090   25.5250   47.2340 O   0  0  0  0  0  0  0  0  0  0  0  0
   57.0760   27.4160   45.8870 C   0  0  0  0  0  0  0  0  0  0  0  0
   58.2290   26.8330   45.0540 C   0  0  0  0  0  0  0  0  0  0  0  0
   58.6830   27.7920   43.9410 C   0  0  0  0  0  0  0  0  0  0  0  0
   59.5420   28.8710   44.4800 N   0  0  0  0  0  0  0  0  0  0  0  0
   58.7790   30.1310   44.6600 C   0  0  0  0  0  0  0  0  0  0  0  0
   58.2380   30.2640   46.0890 C   0  0  0  0  0  0  0  0  0  0  0  0
   59.3370   30.3420   47.0780 N   0  0  0  0  0  0  0  0  0  0  0  0
   58.8670   29.9340   48.4190 C   0  0  0  0  0  0  0  0  0  0  0  0
   59.4810   30.8130   49.5190 C   0  0  0  0  0  0  0  0  0  0  0  0
   58.9880   32.1980   49.4400 N   0  0  0  0  0  0  0  0  0  0  0  0
   59.7030   32.9140   48.4070 C   0  0  0  0  0  0  0  0  0  0  0  0
   61.0910   33.1150   48.5260 C   0  0  0  0  0  0  0  0  0  0  0  0
   61.8160   33.7700   47.5260 C   0  0  0  0  0  0  0  0  0  0  0  0
   63.1960   33.9430   47.7120 O   0  0  0  0  0  0  0  0  0  0  0  0
   64.0260   33.0560   48.4560 C   0  0  0  0  0  0  0  0  0  0  0  0
   61.1480   34.2300   46.3750 C   0  0  0  0  0  0  0  0  0  0  0  0
   59.7710   34.0290   46.2310 C   0  0  0  0  0  0  0  0  0  0  0  0
   59.0940   34.4690   45.0850 C   0  0  0  0  0  0  0  0  0  0  0  0
   57.7220   34.2480   44.9590 C   0  0  0  0  0  0  0  0  0  0  0  0
   57.0370   33.5870   45.9790 C   0  0  0  0  0  0  0  0  0  0  0  0
   57.7030   33.1680   47.0870 N   0  0  0  0  0  0  0  0  0  0  0  0
   59.0420   33.3680   47.2450 C   0  0  0  0  0  0  0  0  0  0  0  0
   60.5600   29.6100   46.6580 C   0  0  0  0  0  0  0  0  0  0  0  0
   60.2430   28.4360   45.7170 C   0  0  0  0  0  0  0  0  0  0  0  0
   55.3792   23.4876   45.7588 H   0  0  0  0  0  0  0  0  0  0  0  0
   54.2705   23.3988   44.3482 H   0  0  0  0  0  0  0  0  0  0  0  0
   55.6320   24.5706   44.3482 H   0  0  0  0  0  0  0  0  0  0  0  0
   53.1784   25.3931   44.9087 H   0  0  0  0  0  0  0  0  0  0  0  0
   53.5406   24.6971   46.5343 H   0  0  0  0  0  0  0  0  0  0  0  0
   56.5215   28.1344   45.2653 H   0  0  0  0  0  0  0  0  0  0  0  0
   57.5174   27.8977   46.7720 H   0  0  0  0  0  0  0  0  0  0  0  0
   59.0817   26.6337   45.7197 H   0  0  0  0  0  0  0  0  0  0  0  0
   57.8687   25.9091   44.5781 H   0  0  0  0  0  0  0  0  0  0  0  0
   59.2498   27.2248   43.1880 H   0  0  0  0  0  0  0  0  0  0  0  0
   57.7900   28.2503   43.4910 H   0  0  0  0  0  0  0  0  0  0  0  0
   59.4418   30.9830   44.4484 H   0  0  0  0  0  0  0  0  0  0  0  0
   57.9239   30.1173   43.9682 H   0  0  0  0  0  0  0  0  0  0  0  0
   57.6294   31.1777   46.1576 H   0  0  0  0  0  0  0  0  0  0  0  0
   57.6325   29.3736   46.3140 H   0  0  0  0  0  0  0  0  0  0  0  0
   57.7715   30.0254   48.4575 H   0  0  0  0  0  0  0  0  0  0  0  0
   59.1780   28.8934   48.5933 H   0  0  0  0  0  0  0  0  0  0  0  0
   59.2155   30.3944   50.5010 H   0  0  0  0  0  0  0  0  0  0  0  0
   60.5723   30.8264   49.3815 H   0  0  0  0  0  0  0  0  0  0  0  0
   57.9610   32.2070   49.2320 H   0  0  0  0  0  0  0  0  0  0  0  0
   59.1310   32.6720   50.3640 H   0  0  0  0  0  0  0  0  0  0  0  0
   61.6147   32.7502   49.4219 H   0  0  0  0  0  0  0  0  0  0  0  0
   63.8695   33.2232   49.5319 H   0  0  0  0  0  0  0  0  0  0  0  0
   63.7689   32.0163   48.2053 H   0  0  0  0  0  0  0  0  0  0  0  0
   65.0805   33.2436   48.2053 H   0  0  0  0  0  0  0  0  0  0  0  0
   61.7112   34.7496   45.5858 H   0  0  0  0  0  0  0  0  0  0  0  0
   59.6438   34.9879   44.2859 H   0  0  0  0  0  0  0  0  0  0  0  0
   57.1849   34.5921   44.0628 H   0  0  0  0  0  0  0  0  0  0  0  0
   55.9562   33.4047   45.8862 H   0  0  0  0  0  0  0  0  0  0  0  0
   61.2299   30.3100   46.1371 H   0  0  0  0  0  0  0  0  0  0  0  0
   61.0331   29.1986   47.5618 H   0  0  0  0  0  0  0  0  0  0  0  0
   61.1863   27.9460   45.4341 H   0  0  0  0  0  0  0  0  0  0  0  0
   59.5750   27.7473   46.2551 H   0  0  0  0  0  0  0  0  0  0  0  0
  1  2  1  0
  2  3  1  0
  3  4  1  0
  4  5  2  0
  4  6  1  0
  6  7  1  0
  7  8  1  0
  8  9  1  0
  9 10  1  0
 10 11  1  0
 11 12  1  0
 12 13  1  0
 13 14  1  0
 14 15  1  0
 15 16  1  0
 16 17  2  0
 17 18  1  0
 18 19  1  0
 19 20  1  0
 18 21  2  0
 21 22  1  0
 22 23  2  0
 23 24  1  0
 24 25  2  0
 25 26  1  0
 26 27  2  0
 12 28  1  0
 28 29  1  0
 29  9  1  0
 27 16  1  0
 27 22  1  0
  1 30  1  0
  1 31  1  0
  1 32  1  0
  2 33  1  0
  2 34  1  0
  6 35  1  0
  6 36  1  0
  7 37  1  0
  7 38  1  0
  8 39  1  0
  8 40  1  0
 10 41  1  0
 10 42  1  0
 11 43  1  0
 11 44  1  0
 13 45  1  0
 13 46  1  0
 14 47  1  0
 14 48  1  0
 15 49  1  0
 15 50  1  0
 17 51  1  0
 20 52  1  0
 20 53  1  0
 20 54  1  0
 21 55  1  0
 23 56  1  0
 24 57  1  0
 25 58  1  0
 28 59  1  0
 28 60  1  0
 29 61  1  0
 29 62  1  0
M  CHG  2   3  -1  15   1
M  END
>  <UniqueID>  (1) 
1

>  <SMILES>  (1) 
CC[N-]C(=O)CCCN1CCN(CC[NH2+]c2cc(OC)cc3cccnc23)CC1

>  <Energy>  (1) 
72.07912421857331

>  <Genealogy>  (1) 
CC[N-]C(=O)CCCN1CCN(CC[NH2+]c2cc(OC)cc3cccnc23)CC1 (protonated)
CC[N-]C(=O)CCCN1CCN(CC[NH2+]c2cc(OC)cc3cccnc23)CC1 (3D coordinates assigned)
CC[N-]C(=O)CCCN1CCN(CC[NH2+]c2cc(OC)cc3cccnc23)CC1 (nonaromatic ring conformer: 72.07912421857331 kcal/mol)

>  <smiles>  (1) 
CCNC(=O)CCCN1CCN(CCNc2cc(OC)cc3cccnc23)CC1

>  <score_type>  (1) 
oracle

>  <origin>  (1) 
adg

>  <m_score__min__energy>  (1) 
-10

>  <m_primary>  (1) 
energy

$$$$
1:0
     RDKit          3D

 47 48  0  0  0  0  0  0  0  0999 V2000
   58.8080   34.2020   46.8420 C   0  0  0  0  0  0  0  0  0  0  0  0
   57.7450   33.1640   47.1740 C   0  0  0  0  0  0  0  0  0  0  0  0
   57.1540   32.6360   45.9380 N   0  0  0  0  0  0  0  0  0  0  0  0
   57.4650   33.4930   44.7840 C   0  0  0  0  0  0  0  0  0  0  0  0
   58.1500   32.6840   43.6840 C   0  0  0  0  0  0  0  0  0  0  0  0
   57.9340   31.3050   43.9080 O   0  0  0  0  0  0  0  0  0  0  0  0
   56.7710   30.8670   43.2300 C   0  0  0  0  0  0  0  0  0  0  0  0
   56.6810   29.3360   43.2760 C   0  0  0  0  0  0  0  0  0  0  0  0
   57.9630   28.7470   43.6990 N   0  0  0  0  0  0  0  0  0  0  0  0
   57.7760   27.6050   44.6180 C   0  0  0  0  0  0  0  0  0  0  0  0
   57.5470   28.0350   46.0800 C   0  0  0  0  0  0  0  0  0  0  0  0
   57.6950   29.4460   46.2410 O   0  0  0  0  0  0  0  0  0  0  0  0
   58.7380   30.0570   46.9440 C   0  0  0  0  0  0  0  0  0  0  0  0
   58.9080   29.9580   48.3150 C   0  0  0  0  0  0  0  0  0  0  0  0
   60.0530   30.6190   48.7750 C   0  0  0  0  0  0  0  0  0  0  0  0
   60.7780   31.2390   47.7620 C   0  0  0  0  0  0  0  0  0  0  0  0
   62.0530   31.9530   47.9280 C   0  0  0  0  0  0  0  0  0  0  0  0
   63.0270   31.6770   48.8800 C   0  0  0  0  0  0  0  0  0  0  0  0
   64.1260   32.5420   48.8120 C   0  0  0  0  0  0  0  0  0  0  0  0
   64.0230   33.5000   47.8130 C   0  0  0  0  0  0  0  0  0  0  0  0
   62.5620   33.2720   47.0140 S   0  0  0  0  0  0  0  0  0  0  0  0
   59.9920   30.9780   46.2940 S   0  0  0  0  0  0  0  0  0  0  0  0
   59.2258   34.6100   47.7742 H   0  0  0  0  0  0  0  0  0  0  0  0
   59.6106   33.7304   46.2560 H   0  0  0  0  0  0  0  0  0  0  0  0
   58.3556   35.0156   46.2560 H   0  0  0  0  0  0  0  0  0  0  0  0
   58.2049   32.3397   47.7387 H   0  0  0  0  0  0  0  0  0  0  0  0
   56.9561   33.6361   47.7780 H   0  0  0  0  0  0  0  0  0  0  0  0
   57.5780   31.6950   45.7630 H   0  0  0  0  0  0  0  0  0  0  0  0
   56.5318   33.9217   44.3899 H   0  0  0  0  0  0  0  0  0  0  0  0
   58.1437   34.2950   45.1099 H   0  0  0  0  0  0  0  0  0  0  0  0
   57.7316   32.9665   42.7067 H   0  0  0  0  0  0  0  0  0  0  0  0
   59.2301   32.8921   43.6949 H   0  0  0  0  0  0  0  0  0  0  0  0
   55.8828   31.2987   43.7144 H   0  0  0  0  0  0  0  0  0  0  0  0
   56.8203   31.1941   42.1809 H   0  0  0  0  0  0  0  0  0  0  0  0
   55.8969   29.0425   43.9895 H   0  0  0  0  0  0  0  0  0  0  0  0
   56.4403   28.9675   42.2679 H   0  0  0  0  0  0  0  0  0  0  0  0
   58.5050   29.4890   44.2030 H   0  0  0  0  0  0  0  0  0  0  0  0
   58.5290   28.4630   42.8670 H   0  0  0  0  0  0  0  0  0  0  0  0
   56.9030   27.0256   44.2829 H   0  0  0  0  0  0  0  0  0  0  0  0
   58.7006   27.0097   44.5928 H   0  0  0  0  0  0  0  0  0  0  0  0
   56.5297   27.7458   46.3822 H   0  0  0  0  0  0  0  0  0  0  0  0
   58.2996   27.5357   46.7079 H   0  0  0  0  0  0  0  0  0  0  0  0
   58.2146   29.4157   48.9746 H   0  0  0  0  0  0  0  0  0  0  0  0
   60.3505   30.6457   49.8337 H   0  0  0  0  0  0  0  0  0  0  0  0
   62.9431   30.8612   49.6131 H   0  0  0  0  0  0  0  0  0  0  0  0
   64.9909   32.4690   49.4878 H   0  0  0  0  0  0  0  0  0  0  0  0
   64.7691   34.2751   47.5837 H   0  0  0  0  0  0  0  0  0  0  0  0
  1  2  1  0
  2  3  1  0
  3  4  1  0
  4  5  1  0
  5  6  1  0
  6  7  1  0
  7  8  1  0
  8  9  1  0
  9 10  1  0
 10 11  1  0
 11 12  1  0
 12 13  1  0
 13 14  2  0
 14 15  1  0
 15 16  2  0
 16 17  1  0
 17 18  2  0
 18 19  1  0
 19 20  2  0
 20 21  1  0
 16 22  1  0
 22 13  1  0
 21 17  1  0
  1 23  1  0
  1 24  1  0
  1 25  1  0
  2 26  1  0
  2 27  1  0
  3 28  1  0
  4 29  1  0
  4 30  1  0
  5 31  1  0
  5 32  1  0
  7 33  1  0
  7 34  1  0
  8 35  1  0
  8 36  1  0
  9 37  1  0
  9 38  1  0
 10 39  1  0
 10 40  1  0
 11 41  1  0
 11 42  1  0
 14 43  1  0
 15 44  1  0
 18 45  1  0
 19 46  1  0
 20 47  1  0
M  CHG  1   9   1
M  END
>  <UniqueID>  (2) 
2

>  <SMILES>  (2) 
CCNCCOCC[NH2+]CCOc1ccc(-c2cccs2)s1

>  <Energy>  (2) 
89.23754465080764

>  <Genealogy>  (2) 
CCNCCOCC[NH2+]CCOc1ccc(-c2cccs2)s1 (protonated)
CCNCCOCC[NH2+]CCOc1ccc(-c2cccs2)s1 (3D coordinates assigned)
CCNCCOCC[NH2+]CCOc1ccc(-c2cccs2)s1 (optimized conformer: 89.23754465080764 kcal/mol)

>  <smiles>  (2) 
CCNCCOCCNCCOc1ccc(-c2cccs2)s1

>  <score_type>  (2) 
oracle

>  <origin>  (2) 
adg

>  <m_score__min__energy>  (2) 
-5

>  <m_primary>  (2) 
energy

$$$$
2:0
     RDKit          3D

 42 43  0  0  0  0  0  0  0  0999 V2000
   57.7970   26.3540   44.7290 C   0  0  0  0  0  0  0  0  0  0  0  0
   58.4790   27.5800   44.1230 C   0  0  0  0  0  0  0  0  0  0  0  0
   57.5090   28.3980   43.3680 N   0  0  0  0  0  0  0  0  0  0  0  0
   57.0750   29.6460   44.0410 C   0  0  0  0  0  0  0  0  0  0  0  0
   56.8680   30.8390   43.0660 C   0  0  0  0  0  0  0  0  0  0  0  0
   58.0160   31.8600   43.1520 C   0  0  0  0  0  0  0  0  0  0  0  0
   58.2190   32.3750   44.5290 N   0  0  0  0  0  0  0  0  0  0  0  0
   57.8310   33.7900   44.7250 C   0  0  0  0  0  0  0  0  0  0  0  0
   59.0220   34.7410   44.9560 C   0  0  0  0  0  0  0  0  0  0  0  0
   59.7070   34.4100   46.2540 C   0  0  0  0  0  0  0  0  0  0  0  0
   59.0340   34.5840   47.4750 C   0  0  0  0  0  0  0  0  0  0  0  0
   59.6590   34.2450   48.6790 C   0  0  0  0  0  0  0  0  0  0  0  0
   60.9550   33.7220   48.6730 C   0  0  0  0  0  0  0  0  0  0  0  0
   61.6260   33.5330   47.4610 C   0  0  0  0  0  0  0  0  0  0  0  0
   61.0040   33.8710   46.2550 C   0  0  0  0  0  0  0  0  0  0  0  0
   57.7800   31.4840   45.6280 C   0  0  0  0  0  0  0  0  0  0  0  0
   57.9690   30.0120   45.2540 C   0  0  0  0  0  0  0  0  0  0  0  0
   57.8333   26.4192   45.8265 H   0  0  0  0  0  0  0  0  0  0  0  0
   56.7485   26.3168   44.3984 H   0  0  0  0  0  0  0  0  0  0  0  0
   58.3183   25.4435   44.3984 H   0  0  0  0  0  0  0  0  0  0  0  0
   58.9124   28.1880   44.9307 H   0  0  0  0  0  0  0  0  0  0  0  0
   59.2672   27.2415   43.4344 H   0  0  0  0  0  0  0  0  0  0  0  0
   56.6590   27.8200   43.1640 H   0  0  0  0  0  0  0  0  0  0  0  0
   57.9380   28.6570   42.4480 H   0  0  0  0  0  0  0  0  0  0  0  0
   56.0763   29.4265   44.4464 H   0  0  0  0  0  0  0  0  0  0  0  0
   56.8133   30.4519   42.0378 H   0  0  0  0  0  0  0  0  0  0  0  0
   55.9363   31.3509   43.3486 H   0  0  0  0  0  0  0  0  0  0  0  0
   58.9447   31.3752   42.8166 H   0  0  0  0  0  0  0  0  0  0  0  0
   57.7508   32.7145   42.5121 H   0  0  0  0  0  0  0  0  0  0  0  0
   57.2881   34.1269   43.8296 H   0  0  0  0  0  0  0  0  0  0  0  0
   57.2132   33.8273   45.6343 H   0  0  0  0  0  0  0  0  0  0  0  0
   59.7390   34.6329   44.1289 H   0  0  0  0  0  0  0  0  0  0  0  0
   58.6518   35.7759   44.9992 H   0  0  0  0  0  0  0  0  0  0  0  0
   58.0112   34.9886   47.4838 H   0  0  0  0  0  0  0  0  0  0  0  0
   59.1298   34.3902   49.6324 H   0  0  0  0  0  0  0  0  0  0  0  0
   61.4468   33.4592   49.6212 H   0  0  0  0  0  0  0  0  0  0  0  0
   62.6446   33.1178   47.4561 H   0  0  0  0  0  0  0  0  0  0  0  0
   61.5327   33.7141   45.3032 H   0  0  0  0  0  0  0  0  0  0  0  0
   58.3728   31.7048   46.5279 H   0  0  0  0  0  0  0  0  0  0  0  0
   56.7108   31.6619   45.8155 H   0  0  0  0  0  0  0  0  0  0  0  0
   59.0233   29.8361   44.9940 H   0  0  0  0  0  0  0  0  0  0  0  0
   57.6828   29.3853   46.1115 H   0  0  0  0  0  0  0  0  0  0  0  0
  1  2  1  0
  2  3  1  0
  3  4  1  0
  4  5  1  0
  5  6  1  0
  6  7  1  0
  7  8  1  0
  8  9  1  0
  9 10  1  0
 10 11  2  0
 11 12  1  0
 12 13  2  0
 13 14  1  0
 14 15  2  0
  7 16  1  0
 16 17  1  0
 17  4  1  0
 15 10  1  0
  1 18  1  0
  1 19  1  0
  1 20  1  0
  2 21  1  0
  2 22  1  0
  3 23  1  0
  3 24  1  0
  4 25  1  0
  5 26  1  0
  5 27  1  0
  6 28  1  0
  6 29  1  0
  8 30  1  0
  8 31  1  0
  9 32  1  0
  9 33  1  0
 11 34  1  0
 12 35  1  0
 13 36  1  0
 14 37  1  0
 15 38  1  0
 16 39  1  0
 16 40  1  0
 17 41  1  0
 17 42  1  0
M  CHG  1   3   1
M  END
>  <UniqueID>  (3) 
3

>  <SMILES>  (3) 
CC[NH2+]C1CCN(CCc2ccccc2)CC1

>  <Energy>  (3) 
51.21402930751426

>  <Genealogy>  (3) 
CC[NH2+]C1CCN(CCc2ccccc2)CC1 (protonated)
CC[NH2+]C1CCN(CCc2ccccc2)CC1 (3D coordinates assigned)
CC[NH2+]C1CCN(CCc2ccccc2)CC1 (nonaromatic ring conformer: 51.21402930751426 kcal/mol)

>  <smiles>  (3) 
CCNC1CCN(CCc2ccccc2)CC1

>  <score_type>  (3) 
oracle

>  <origin>  (3) 
adg

>  <m_score__min__energy>  (3) 
-5.6900000000000004

>  <m_primary>  (3) 
energy

$$$$
3:0
     RDKit          3D

 39 40  0  0  0  0  0  0  0  0999 V2000
   59.2050   30.4680   45.6900 C   0  0  0  0  0  0  0  0  0  0  0  0
   57.8690   29.7620   45.4550 C   0  0  0  0  0  0  0  0  0  0  0  0
   56.8380   30.6910   44.9400 N   0  0  0  0  0  0  0  0  0  0  0  0
   55.9020   30.0940   43.9520 C   0  0  0  0  0  0  0  0  0  0  0  0
   56.5440   29.6760   42.6210 C   0  0  0  0  0  0  0  0  0  0  0  0
   57.4440   31.9530   44.4610 C   0  0  0  0  0  0  0  0  0  0  0  0
   57.1590   33.0610   45.3880 N   0  0  0  0  0  0  0  0  0  0  0  0
   58.1230   34.1690   45.2730 C   0  0  0  0  0  0  0  0  0  0  0  0
   59.2190   34.0900   46.3070 C   0  0  0  0  0  0  0  0  0  0  0  0
   58.9120   34.2150   47.6840 C   0  0  0  0  0  0  0  0  0  0  0  0
   59.9260   34.1150   48.6510 C   0  0  0  0  0  0  0  0  0  0  0  0
   61.2300   33.8880   48.2170 C   0  0  0  0  0  0  0  0  0  0  0  0
   61.5350   33.7630   46.8940 C   0  0  0  0  0  0  0  0  0  0  0  0
   60.5520   33.8570   45.9090 C   0  0  0  0  0  0  0  0  0  0  0  0
   62.9930   33.5240   46.7320 C   0  0  0  0  0  0  0  0  0  0  0  0
   63.5010   33.5300   48.1960 C   0  0  0  0  0  0  0  0  0  0  0  0
   62.3500   33.7580   49.0080 O   0  0  0  0  0  0  0  0  0  0  0  0
   59.3844   30.5628   46.7711 H   0  0  0  0  0  0  0  0  0  0  0  0
   60.0154   29.8804   45.2340 H   0  0  0  0  0  0  0  0  0  0  0  0
   59.1762   31.4686   45.2340 H   0  0  0  0  0  0  0  0  0  0  0  0
   58.0173   28.9541   44.7234 H   0  0  0  0  0  0  0  0  0  0  0  0
   57.5190   29.3640   46.4189 H   0  0  0  0  0  0  0  0  0  0  0  0
   55.4486   29.2013   44.4075 H   0  0  0  0  0  0  0  0  0  0  0  0
   55.1707   30.8786   43.7079 H   0  0  0  0  0  0  0  0  0  0  0  0
   57.4505   29.0858   42.8206 H   0  0  0  0  0  0  0  0  0  0  0  0
   55.8306   29.0687   42.0445 H   0  0  0  0  0  0  0  0  0  0  0  0
   56.8107   30.5741   42.0445 H   0  0  0  0  0  0  0  0  0  0  0  0
   58.5332   31.8215   44.3818 H   0  0  0  0  0  0  0  0  0  0  0  0
   57.0127   32.1981   43.4792 H   0  0  0  0  0  0  0  0  0  0  0  0
   56.1970   33.4230   45.1870 H   0  0  0  0  0  0  0  0  0  0  0  0
   58.5789   34.1377   44.2724 H   0  0  0  0  0  0  0  0  0  0  0  0
   57.5745   35.1081   45.4379 H   0  0  0  0  0  0  0  0  0  0  0  0
   57.8727   34.3915   47.9983 H   0  0  0  0  0  0  0  0  0  0  0  0
   59.6964   34.2133   49.7223 H   0  0  0  0  0  0  0  0  0  0  0  0
   60.8106   33.7517   44.8450 H   0  0  0  0  0  0  0  0  0  0  0  0
   63.1853   32.5546   46.2489 H   0  0  0  0  0  0  0  0  0  0  0  0
   63.4902   34.2688   46.0932 H   0  0  0  0  0  0  0  0  0  0  0  0
   63.9599   32.5620   48.4458 H   0  0  0  0  0  0  0  0  0  0  0  0
   64.2670   34.3033   48.3547 H   0  0  0  0  0  0  0  0  0  0  0  0
  1  2  1  0
  2  3  1  0
  3  4  1  0
  4  5  1  0
  3  6  1  0
  6  7  1  0
  7  8  1  0
  8  9  1  0
  9 10  2  0
 10 11  1  0
 11 12  2  0
 12 13  1  0
 13 14  2  0
 13 15  1  0
 15 16  1  0
 16 17  1  0
 14  9  1  0
 17 12  1  0
  1 18  1  0
  1 19  1  0
  1 20  1  0
  2 21  1  0
  2 22  1  0
  4 23  1  0
  4 24  1  0
  5 25  1  0
  5 26  1  0
  5 27  1  0
  6 28  1  0
  6 29  1  0
  7 30  1  0
  8 31  1  0
  8 32  1  0
 10 33  1  0
 11 34  1  0
 14 35  1  0
 15 36  1  0
 15 37  1  0
 16 38  1  0
 16 39  1  0
M  END
>  <UniqueID>  (4) 
4

>  <SMILES>  (4) 
CCN(CC)CNCc1ccc2c(c1)CCO2

>  <Energy>  (4) 
55.448474561947954

>  <Genealogy>  (4) 
CCN(CC)CNCc1ccc2c(c1)CCO2 (3D coordinates assigned)
CCN(CC)CNCc1ccc2c(c1)CCO2 (nonaromatic ring conformer: 55.448474561947954 kcal/mol)

>  <smiles>  (4) 
CCN(CC)CNCc1ccc2c(c1)CCO2

>  <score_type>  (4) 
oracle

>  <origin>  (4) 
adg

>  <m_score__min__energy>  (4) 
-6.0899999999999999

>  <m_primary>  (4) 
energy

$$$$
4:0
     RDKit          3D

 53 55  0  0  0  0  0  0  0  0999 V2000
   59.6330   35.2820   46.4700 C   0  0  0  0  0  0  0  0  0  0  0  0
   59.2820   34.5540   45.1630 C   0  0  0  0  0  0  0  0  0  0  0  0
   58.3510   33.4160   45.3390 N   0  0  0  0  0  0  0  0  0  0  0  0
   57.0550   33.8390   45.9040 C   0  0  0  0  0  0  0  0  0  0  0  0
   58.1880   32.6130   44.1080 C   0  0  0  0  0  0  0  0  0  0  0  0
   57.3760   31.3400   44.3740 C   0  0  0  0  0  0  0  0  0  0  0  0
   57.4780   30.9470   45.7300 O   0  0  0  0  0  0  0  0  0  0  0  0
   58.3990   29.8850   45.8990 C   0  0  0  0  0  0  0  0  0  0  0  0
   59.4450   30.2810   46.9400 C   0  0  0  0  0  0  0  0  0  0  0  0
   59.2450   31.6620   47.3830 N   0  0  0  0  0  0  0  0  0  0  0  0
   59.9960   32.2260   48.4720 C   0  0  0  0  0  0  0  0  0  0  0  0
   61.2730   32.7650   48.2510 C   0  0  0  0  0  0  0  0  0  0  0  0
   61.7890   32.9030   46.9450 C   0  0  0  0  0  0  0  0  0  0  0  0
   63.0540   33.4490   46.7350 C   0  0  0  0  0  0  0  0  0  0  0  0
   63.8170   33.8760   47.8150 C   0  0  0  0  0  0  0  0  0  0  0  0
   63.3250   33.7520   49.1150 C   0  0  0  0  0  0  0  0  0  0  0  0
   62.0500   33.1820   49.3610 C   0  0  0  0  0  0  0  0  0  0  0  0
   61.5620   33.0330   50.6440 N   0  0  0  0  0  0  0  0  0  0  0  0
   62.5190   33.0080   51.7710 C   0  0  0  0  0  0  0  0  0  0  0  0
   60.2180   32.7700   50.8480 C   0  0  0  0  0  0  0  0  0  0  0  0
   59.5630   32.9690   52.1070 C   0  0  0  0  0  0  0  0  0  0  0  0
   60.2140   33.9490   53.4250 Cl  0  0  0  0  0  0  0  0  0  0  0  0
   58.2480   32.5350   52.2890 C   0  0  0  0  0  0  0  0  0  0  0  0
   57.5370   31.9590   51.2450 C   0  0  0  0  0  0  0  0  0  0  0  0
   58.1110   31.8590   49.9850 C   0  0  0  0  0  0  0  0  0  0  0  0
   59.4360   32.2840   49.7620 C   0  0  0  0  0  0  0  0  0  0  0  0
   59.3337   34.6612   47.3273 H   0  0  0  0  0  0  0  0  0  0  0  0
   60.7173   35.4629   46.5091 H   0  0  0  0  0  0  0  0  0  0  0  0
   59.0993   36.2430   46.5091 H   0  0  0  0  0  0  0  0  0  0  0  0
   58.8174   35.2782   44.4776 H   0  0  0  0  0  0  0  0  0  0  0  0
   60.2209   34.1390   44.7677 H   0  0  0  0  0  0  0  0  0  0  0  0
   57.1105   33.8209   47.0025 H   0  0  0  0  0  0  0  0  0  0  0  0
   56.8229   34.8595   45.5653 H   0  0  0  0  0  0  0  0  0  0  0  0
   56.2656   33.1519   45.5653 H   0  0  0  0  0  0  0  0  0  0  0  0
   57.6667   33.2186   43.3520 H   0  0  0  0  0  0  0  0  0  0  0  0
   59.1863   32.3188   43.7518 H   0  0  0  0  0  0  0  0  0  0  0  0
   56.3197   31.5303   44.1332 H   0  0  0  0  0  0  0  0  0  0  0  0
   57.7755   30.5316   43.7440 H   0  0  0  0  0  0  0  0  0  0  0  0
   57.8642   28.9862   46.2397 H   0  0  0  0  0  0  0  0  0  0  0  0
   58.8960   29.6738   44.9407 H   0  0  0  0  0  0  0  0  0  0  0  0
   59.3624   29.6092   47.8071 H   0  0  0  0  0  0  0  0  0  0  0  0
   60.4427   30.1993   46.4841 H   0  0  0  0  0  0  0  0  0  0  0  0
   58.4880   32.2330   46.9430 H   0  0  0  0  0  0  0  0  0  0  0  0
   61.1870   32.5765   46.0842 H   0  0  0  0  0  0  0  0  0  0  0  0
   63.4491   33.5421   45.7126 H   0  0  0  0  0  0  0  0  0  0  0  0
   64.8119   34.3131   47.6447 H   0  0  0  0  0  0  0  0  0  0  0  0
   63.9350   34.1014   49.9611 H   0  0  0  0  0  0  0  0  0  0  0  0
   61.9662   33.0224   52.7219 H   0  0  0  0  0  0  0  0  0  0  0  0
   63.1279   32.0936   51.7147 H   0  0  0  0  0  0  0  0  0  0  0  0
   63.1748   33.8893   51.7147 H   0  0  0  0  0  0  0  0  0  0  0  0
   57.7694   32.6511   53.2726 H   0  0  0  0  0  0  0  0  0  0  0  0
   56.5181   31.5816   51.4163 H   0  0  0  0  0  0  0  0  0  0  0  0
   57.5253   31.4436   49.1517 H   0  0  0  0  0  0  0  0  0  0  0  0
  1  2  1  0
  2  3  1  0
  3  4  1  0
  3  5  1  0
  5  6  1  0
  6  7  1  0
  7  8  1  0
  8  9  1  0
  9 10  1  0
 10 11  1  0
 11 12  2  0
 12 13  1  0
 13 14  2  0
 14 15  1  0
 15 16  2  0
 16 17  1  0
 17 18  2  0
 18 19  1  0
 18 20  1  0
 20 21  2  0
 21 22  1  0
 21 23  1  0
 23 24  2  0
 24 25  1  0
 25 26  2  0
 26 11  1  0
 17 12  1  0
 26 20  1  0
  1 27  1  0
  1 28  1  0
  1 29  1  0
  2 30  1  0
  2 31  1  0
  4 32  1  0
  4 33  1  0
  4 34  1  0
  5 35  1  0
  5 36  1  0
  6 37  1  0
  6 38  1  0
  8 39  1  0
  8 40  1  0
  9 41  1  0
  9 42  1  0
 10 43  1  0
 13 44  1  0
 14 45  1  0
 15 46  1  0
 16 47  1  0
 19 48  1  0
 19 49  1  0
 19 50  1  0
 23 51  1  0
 24 52  1  0
 25 53  1  0
M  CHG  1  18   1
M  END
>  <UniqueID>  (5) 
5

>  <SMILES>  (5) 
CCN(C)CCOCCNc1c2ccccc2[n+](C)c2c(Cl)cccc12

>  <Energy>  (5) 
88.52104120471759

>  <Genealogy>  (5) 
CCN(C)CCOCCNc1c2ccccc2[n+](C)c2c(Cl)cccc12 (3D coordinates assigned)
CCN(C)CCOCCNc1c2ccccc2[n+](C)c2c(Cl)cccc12 (optimized conformer: 88.52104120471759 kcal/mol)

>  <smiles>  (5) 
CCN(C)CCOCCNc1c2ccccc2[n+](C)c2c(Cl)cccc12

>  <score_type>  (5) 
oracle

>  <origin>  (5) 
adg

>  <m_score__min__energy>  (5) 
-5.5599999999999996

>  <m_primary>  (5) 
energy

$$$$
5:0
     RDKit          3D

 60 62  0  0  0  0  0  0  0  0999 V2000
   64.1740   32.3520   49.3570 C   0  0  0  0  0  0  0  0  0  0  0  0
   62.8430   31.5900   49.2550 C   0  0  0  0  0  0  0  0  0  0  0  0
   61.9910   31.9960   48.1110 N   0  0  0  0  0  0  0  0  0  0  0  0
   62.7080   32.8090   47.1180 C   0  0  0  0  0  0  0  0  0  0  0  0
   61.2640   30.8660   47.4930 C   0  0  0  0  0  0  0  0  0  0  0  0
   60.1830   30.3580   48.4500 C   0  0  0  0  0  0  0  0  0  0  0  0
   58.8710   30.8930   48.0880 N   0  0  0  0  0  0  0  0  0  0  0  0
   58.5990   31.3740   46.7620 C   0  0  0  0  0  0  0  0  0  0  0  0
   58.0580   30.5040   45.8070 C   0  0  0  0  0  0  0  0  0  0  0  0
   57.6140   29.1860   46.1760 N   0  0  0  0  0  0  0  0  0  0  0  0
   58.4670   28.0270   46.1890 C   0  0  0  0  0  0  0  0  0  0  0  0
   59.8530   28.2160   46.0580 C   0  0  0  0  0  0  0  0  0  0  0  0
   60.7300   27.1330   46.1210 C   0  0  0  0  0  0  0  0  0  0  0  0
   60.2320   25.8420   46.2930 C   0  0  0  0  0  0  0  0  0  0  0  0
   58.8560   25.6280   46.3810 C   0  0  0  0  0  0  0  0  0  0  0  0
   57.9580   26.7070   46.3070 C   0  0  0  0  0  0  0  0  0  0  0  0
   56.4800   26.4160   46.3180 C   0  0  0  0  0  0  0  0  0  0  0  0
   57.9620   30.9200   44.4690 C   0  0  0  0  0  0  0  0  0  0  0  0
   57.4660   29.9850   43.5020 N   0  0  0  0  0  0  0  0  0  0  0  0
   56.0380   29.7200   43.3890 C   0  0  0  0  0  0  0  0  0  0  0  0
   58.2880   32.2080   44.1020 N   0  0  0  0  0  0  0  0  0  0  0  0
   58.1300   32.6330   42.6950 C   0  0  0  0  0  0  0  0  0  0  0  0
   58.7520   33.1040   45.0470 C   0  0  0  0  0  0  0  0  0  0  0  0
   59.0750   34.4440   44.7100 C   0  0  0  0  0  0  0  0  0  0  0  0
   59.5390   35.3360   45.6770 C   0  0  0  0  0  0  0  0  0  0  0  0
   59.6980   34.9220   46.9950 C   0  0  0  0  0  0  0  0  0  0  0  0
   59.3900   33.6130   47.3580 C   0  0  0  0  0  0  0  0  0  0  0  0
   58.9220   32.6920   46.3980 C   0  0  0  0  0  0  0  0  0  0  0  0
   64.4318   32.4996   50.4161 H   0  0  0  0  0  0  0  0  0  0  0  0
   64.9676   31.7714   48.8639 H   0  0  0  0  0  0  0  0  0  0  0  0
   64.0751   33.3303   48.8639 H   0  0  0  0  0  0  0  0  0  0  0  0
   63.0672   30.5179   49.1536 H   0  0  0  0  0  0  0  0  0  0  0  0
   62.2759   31.8249   50.1678 H   0  0  0  0  0  0  0  0  0  0  0  0
   63.3502   33.5372   47.6351 H   0  0  0  0  0  0  0  0  0  0  0  0
   63.3288   32.1550   46.4880 H   0  0  0  0  0  0  0  0  0  0  0  0
   61.9815   33.3431   46.4880 H   0  0  0  0  0  0  0  0  0  0  0  0
   60.7940   31.2025   46.5571 H   0  0  0  0  0  0  0  0  0  0  0  0
   61.9724   30.0516   47.2808 H   0  0  0  0  0  0  0  0  0  0  0  0
   60.1490   29.2595   48.4041 H   0  0  0  0  0  0  0  0  0  0  0  0
   60.4300   30.6930   49.4682 H   0  0  0  0  0  0  0  0  0  0  0  0
   58.1380   30.9950   48.8250 H   0  0  0  0  0  0  0  0  0  0  0  0
   56.5920   29.0430   46.3280 H   0  0  0  0  0  0  0  0  0  0  0  0
   60.2512   29.2297   45.9040 H   0  0  0  0  0  0  0  0  0  0  0  0
   61.8142   27.2974   46.0350 H   0  0  0  0  0  0  0  0  0  0  0  0
   60.9253   24.9906   46.3594 H   0  0  0  0  0  0  0  0  0  0  0  0
   58.4705   24.6058   46.5094 H   0  0  0  0  0  0  0  0  0  0  0  0
   56.1277   26.3466   47.3577 H   0  0  0  0  0  0  0  0  0  0  0  0
   55.9430   27.2257   45.8021 H   0  0  0  0  0  0  0  0  0  0  0  0
   56.2900   25.4632   45.8021 H   0  0  0  0  0  0  0  0  0  0  0  0
   58.1440   29.3820   42.9890 H   0  0  0  0  0  0  0  0  0  0  0  0
   55.5995   29.6386   44.3945 H   0  0  0  0  0  0  0  0  0  0  0  0
   55.5542   30.5437   42.8436 H   0  0  0  0  0  0  0  0  0  0  0  0
   55.8820   28.7776   42.8436 H   0  0  0  0  0  0  0  0  0  0  0  0
   57.7468   33.6636   42.6641 H   0  0  0  0  0  0  0  0  0  0  0  0
   59.1046   32.5888   42.1870 H   0  0  0  0  0  0  0  0  0  0  0  0
   57.4209   31.9628   42.1870 H   0  0  0  0  0  0  0  0  0  0  0  0
   58.9578   34.7845   43.6706 H   0  0  0  0  0  0  0  0  0  0  0  0
   59.7802   36.3717   45.3956 H   0  0  0  0  0  0  0  0  0  0  0  0
   60.0676   35.6293   47.7520 H   0  0  0  0  0  0  0  0  0  0  0  0
   59.5130   33.2945   48.4037 H   0  0  0  0  0  0  0  0  0  0  0  0
  1  2  1  0
  2  3  1  0
  3  4  1  0
  3  5  1  0
  5  6  1  0
  6  7  1  0
  7  8  1  0
  8  9  2  0
  9 10  1  0
 10 11  1  0
 11 12  2  0
 12 13  1  0
 13 14  2  0
 14 15  1  0
 15 16  2  0
 16 17  1  0
  9 18  1  0
 18 19  1  0
 19 20  1  0
 18 21  2  0
 21 22  1  0
 21 23  1  0
 23 24  2  0
 24 25  1  0
 25 26  2  0
 26 27  1  0
 27 28  2  0
 28  8  1  0
 16 11  1  0
 28 23  1  0
  1 29  1  0
  1 30  1  0
  1 31  1  0
  2 32  1  0
  2 33  1  0
  4 34  1  0
  4 35  1  0
  4 36  1  0
  5 37  1  0
  5 38  1  0
  6 39  1  0
  6 40  1  0
  7 41  1  0
 10 42  1  0
 12 43  1  0
 13 44  1  0
 14 45  1  0
 15 46  1  0
 17 47  1  0
 17 48  1  0
 17 49  1  0
 19 50  1  0
 20 51  1  0
 20 52  1  0
 20 53  1  0
 22 54  1  0
 22 55  1  0
 22 56  1  0
 24 57  1  0
 25 58  1  0
 26 59  1  0
 27 60  1  0
M  CHG  1  21   1
M  END
>  <UniqueID>  (6) 
6

>  <SMILES>  (6) 
CCN(C)CCNc1c(Nc2ccccc2C)c(NC)[n+](C)c2ccccc12

>  <Energy>  (6) 
91.59907446574984

>  <Genealogy>  (6) 
CCN(C)CCNc1c(Nc2ccccc2C)c(NC)[n+](C)c2ccccc12 (3D coordinates assigned)
CCN(C)CCNc1c(Nc2ccccc2C)c(NC)[n+](C)c2ccccc12 (optimized conformer: 91.59907446574984 kcal/mol)

>  <smiles>  (6) 
CCN(C)CCNc1c(Nc2ccccc2C)c(NC)[n+](C)c2ccccc12

>  <score_type>  (6) 
oracle

>  <origin>  (6) 
adg

>  <m_score__min__energy>  (6) 
-6.2400000000000002

>  <m_primary>  (6) 
energy

$$$$
6:0
     RDKit          3D

 72 73  0  0  0  0  0  0  0  0999 V2000
   60.1720   28.4880   48.0290 C   0  0  0  0  0  0  0  0  0  0  0  0
   58.9030   29.3350   47.9910 C   0  0  0  0  0  0  0  0  0  0  0  0
   58.4350   29.4830   46.6060 N   0  0  0  0  0  0  0  0  0  0  0  0
   58.1790   28.1760   45.9820 C   0  0  0  0  0  0  0  0  0  0  0  0
   57.0440   28.2720   44.9500 C   0  0  0  0  0  0  0  0  0  0  0  0
   56.1700   29.3480   45.2320 O   0  0  0  0  0  0  0  0  0  0  0  0
   55.4290   29.7150   44.0810 C   0  0  0  0  0  0  0  0  0  0  0  0
   56.3890   29.8270   42.8950 C   0  0  0  0  0  0  0  0  0  0  0  0
   57.0560   31.2130   42.7770 C   0  0  0  0  0  0  0  0  0  0  0  0
   58.2310   31.4080   43.7470 C   0  0  0  0  0  0  0  0  0  0  0  0
   57.7350   31.5720   45.1240 N   0  0  0  0  0  0  0  0  0  0  0  0
   57.0310   32.8490   45.3490 C   0  0  0  0  0  0  0  0  0  0  0  0
   57.9490   33.9970   45.8210 C   0  0  0  0  0  0  0  0  0  0  0  0
   58.5840   33.7790   47.1760 C   0  0  0  0  0  0  0  0  0  0  0  0
   58.1810   32.6910   47.9620 C   0  0  0  0  0  0  0  0  0  0  0  0
   58.6620   32.5370   49.2630 C   0  0  0  0  0  0  0  0  0  0  0  0
   59.5330   33.4800   49.8150 C   0  0  0  0  0  0  0  0  0  0  0  0
   59.9210   33.3090   51.1510 O   0  0  0  0  0  0  0  0  0  0  0  0
   60.7140   32.2360   51.6520 C   0  0  0  0  0  0  0  0  0  0  0  0
   62.2010   32.5830   51.4990 C   0  0  0  0  0  0  0  0  0  0  0  0
   62.8850   31.7700   50.3930 C   0  0  0  0  0  0  0  0  0  0  0  0
   62.6500   32.3990   49.0710 N   0  0  0  0  0  0  0  0  0  0  0  0
   63.9330   32.7310   48.4140 C   0  0  0  0  0  0  0  0  0  0  0  0
   63.7230   33.4190   47.0450 C   0  0  0  0  0  0  0  0  0  0  0  0
   62.2450   33.5270   46.6650 C   0  0  0  0  0  0  0  0  0  0  0  0
   61.5600   32.1660   46.8220 C   0  0  0  0  0  0  0  0  0  0  0  0
   61.8210   31.5330   48.2060 C   0  0  0  0  0  0  0  0  0  0  0  0
   59.9570   34.5670   49.0280 C   0  0  0  0  0  0  0  0  0  0  0  0
   59.4710   34.7240   47.7240 C   0  0  0  0  0  0  0  0  0  0  0  0
   60.4554   28.2988   49.0749 H   0  0  0  0  0  0  0  0  0  0  0  0
   59.9890   27.5303   47.5197 H   0  0  0  0  0  0  0  0  0  0  0  0
   60.9862   29.0244   47.5197 H   0  0  0  0  0  0  0  0  0  0  0  0
   58.1205   28.8448   48.5888 H   0  0  0  0  0  0  0  0  0  0  0  0
   59.1224   30.3303   48.4048 H   0  0  0  0  0  0  0  0  0  0  0  0
   57.5320   30.0100   46.6260 H   0  0  0  0  0  0  0  0  0  0  0  0
   59.0947   27.8319   45.4789 H   0  0  0  0  0  0  0  0  0  0  0  0
   57.8805   27.4652   46.7666 H   0  0  0  0  0  0  0  0  0  0  0  0
   57.4815   28.4203   43.9517 H   0  0  0  0  0  0  0  0  0  0  0  0
   56.4633   27.3387   44.9912 H   0  0  0  0  0  0  0  0  0  0  0  0
   54.6684   28.9487   43.8705 H   0  0  0  0  0  0  0  0  0  0  0  0
   54.9275   30.6794   44.2497 H   0  0  0  0  0  0  0  0  0  0  0  0
   57.1776   29.0691   43.0117 H   0  0  0  0  0  0  0  0  0  0  0  0
   55.7965   29.6723   41.9812 H   0  0  0  0  0  0  0  0  0  0  0  0
   57.4283   31.3346   41.7491 H   0  0  0  0  0  0  0  0  0  0  0  0
   56.2940   31.9635   43.0342 H   0  0  0  0  0  0  0  0  0  0  0  0
   58.8895   30.5281   43.7009 H   0  0  0  0  0  0  0  0  0  0  0  0
   58.7881   32.3112   43.4573 H   0  0  0  0  0  0  0  0  0  0  0  0
   57.1200   30.7660   45.3840 H   0  0  0  0  0  0  0  0  0  0  0  0
   56.5549   33.1526   44.4050 H   0  0  0  0  0  0  0  0  0  0  0  0
   56.3018   32.6731   46.1536 H   0  0  0  0  0  0  0  0  0  0  0  0
   58.7535   34.1194   45.0808 H   0  0  0  0  0  0  0  0  0  0  0  0
   57.3105   34.8877   45.9157 H   0  0  0  0  0  0  0  0  0  0  0  0
   57.4789   31.9514   47.5496 H   0  0  0  0  0  0  0  0  0  0  0  0
   58.3528   31.6657   49.8591 H   0  0  0  0  0  0  0  0  0  0  0  0
   60.4828   32.0747   52.7153 H   0  0  0  0  0  0  0  0  0  0  0  0
   60.4913   31.3201   51.0849 H   0  0  0  0  0  0  0  0  0  0  0  0
   62.2902   33.6523   51.2568 H   0  0  0  0  0  0  0  0  0  0  0  0
   62.6996   32.3394   52.4488 H   0  0  0  0  0  0  0  0  0  0  0  0
   63.9667   31.7298   50.5885 H   0  0  0  0  0  0  0  0  0  0  0  0
   62.4652   30.7533   50.3849 H   0  0  0  0  0  0  0  0  0  0  0  0
   64.5019   33.4082   49.0680 H   0  0  0  0  0  0  0  0  0  0  0  0
   64.4790   31.7918   48.2416 H   0  0  0  0  0  0  0  0  0  0  0  0
   64.1508   34.4314   47.0895 H   0  0  0  0  0  0  0  0  0  0  0  0
   64.2206   32.8033   46.2813 H   0  0  0  0  0  0  0  0  0  0  0  0
   61.7532   34.2597   47.3217 H   0  0  0  0  0  0  0  0  0  0  0  0
   62.1656   33.8511   45.6168 H   0  0  0  0  0  0  0  0  0  0  0  0
   60.4757   32.2991   46.6930 H   0  0  0  0  0  0  0  0  0  0  0  0
   61.9762   31.4907   46.0599 H   0  0  0  0  0  0  0  0  0  0  0  0
   60.8553   31.3574   48.7026 H   0  0  0  0  0  0  0  0  0  0  0  0
   62.3682   30.5919   48.0481 H   0  0  0  0  0  0  0  0  0  0  0  0
   60.6721   35.2953   49.4382 H   0  0  0  0  0  0  0  0  0  0  0  0
   59.7846   35.5913   47.1245 H   0  0  0  0  0  0  0  0  0  0  0  0
  1  2  1  0
  2  3  1  0
  3  4  1  0
  4  5  1  0
  5  6  1  0
  6  7  1  0
  7  8  1  0
  8  9  1  0
  9 10  1  0
 10 11  1  0
 11 12  1  0
 12 13  1  0
 13 14  1  0
 14 15  2  0
 15 16  1  0
 16 17  2  0
 17 18  1  0
 18 19  1  0
 19 20  1  0
 20 21  1  0
 21 22  1  0
 22 23  1  0
 23 24  1  0
 24 25  1  0
 25 26  1  0
 26 27  1  0
 17 28  1  0
 28 29  2  0
 29 14  1  0
 27 22  1  0
  1 30  1  0
  1 31  1  0
  1 32  1  0
  2 33  1  0
  2 34  1  0
  3 35  1  0
  4 36  1  0
  4 37  1  0
  5 38  1  0
  5 39  1  0
  7 40  1  0
  7 41  1  0
  8 42  1  0
  8 43  1  0
  9 44  1  0
  9 45  1  0
 10 46  1  0
 10 47  1  0
 11 48  1  0
 12 49  1  0
 12 50  1  0
 13 51  1  0
 13 52  1  0
 15 53  1  0
 16 54  1  0
 19 55  1  0
 19 56  1  0
 20 57  1  0
 20 58  1  0
 21 59  1  0
 21 60  1  0
 23 61  1  0
 23 62  1  0
 24 63  1  0
 24 64  1  0
 25 65  1  0
 25 66  1  0
 26 67  1  0
 26 68  1  0
 27 69  1  0
 27 70  1  0
 28 71  1  0
 29 72  1  0
M  END
>  <UniqueID>  (7) 
7

>  <SMILES>  (7) 
CCNCCOCCCCNCCc1ccc(OCCCN2CCCCC2)cc1

>  <Energy>  (7) 
68.64507966718523

>  <Genealogy>  (7) 
CCNCCOCCCCNCCc1ccc(OCCCN2CCCCC2)cc1 (3D coordinates assigned)
CCNCCOCCCCNCCc1ccc(OCCCN2CCCCC2)cc1 (nonaromatic ring conformer: 68.64507966718523 kcal/mol)

>  <smiles>  (7) 
CCNCCOCCCCNCCc1ccc(OCCCN2CCCCC2)cc1

>  <score_type>  (7) 
oracle

>  <origin>  (7) 
adg

>  <m_score__min__energy>  (7) 
-6.7999999999999998

>  <m_primary>  (7) 
energy

$$$$
7:0
     RDKit          3D

 53 55  0  0  0  0  0  0  0  0999 V2000
   62.8610   33.8060   47.1910 C   0  0  0  0  0  0  0  0  0  0  0  0
   63.4750   32.4180   47.1060 C   0  0  0  0  0  0  0  0  0  0  0  0
   63.0820   31.6630   48.2330 O   0  0  0  0  0  0  0  0  0  0  0  0
   63.5770   32.2490   49.4250 C   0  0  0  0  0  0  0  0  0  0  0  0
   62.7880   31.7380   50.6270 C   0  0  0  0  0  0  0  0  0  0  0  0
   62.0230   30.6150   50.2410 O   0  0  0  0  0  0  0  0  0  0  0  0
   60.7260   30.6650   50.8070 C   0  0  0  0  0  0  0  0  0  0  0  0
   59.7830   31.4970   49.9310 C   0  0  0  0  0  0  0  0  0  0  0  0
   60.3940   31.8000   48.6380 N   0  0  0  0  0  0  0  0  0  0  0  0
   59.6220   31.6760   47.4340 C   0  0  0  0  0  0  0  0  0  0  0  0
   59.1510   32.8250   46.7770 C   0  0  0  0  0  0  0  0  0  0  0  0
   58.3690   32.6890   45.6130 C   0  0  0  0  0  0  0  0  0  0  0  0
   57.9630   31.4410   45.1840 N   0  0  0  0  0  0  0  0  0  0  0  0
   56.9160   31.3280   44.1470 C   0  0  0  0  0  0  0  0  0  0  0  0
   58.5200   30.3050   45.7400 C   0  0  0  0  0  0  0  0  0  0  0  0
   58.3020   29.0190   45.1850 C   0  0  0  0  0  0  0  0  0  0  0  0
   58.8160   27.8740   45.7960 C   0  0  0  0  0  0  0  0  0  0  0  0
   58.5170   26.2930   45.0960 Cl  0  0  0  0  0  0  0  0  0  0  0  0
   59.5680   27.9840   46.9620 C   0  0  0  0  0  0  0  0  0  0  0  0
   59.8390   29.2360   47.5040 C   0  0  0  0  0  0  0  0  0  0  0  0
   59.3410   30.4070   46.8960 C   0  0  0  0  0  0  0  0  0  0  0  0
   57.9980   33.9630   44.8730 C   0  0  0  0  0  0  0  0  0  0  0  0
   59.1820   34.9310   44.8680 C   0  0  0  0  0  0  0  0  0  0  0  0
   59.6670   35.2840   46.2850 C   0  0  0  0  0  0  0  0  0  0  0  0
   59.3640   34.2130   47.3530 C   0  0  0  0  0  0  0  0  0  0  0  0
   62.7364   34.0878   48.2470 H   0  0  0  0  0  0  0  0  0  0  0  0
   63.5225   34.5307   46.6938 H   0  0  0  0  0  0  0  0  0  0  0  0
   61.8798   33.8040   46.6938 H   0  0  0  0  0  0  0  0  0  0  0  0
   63.1276   31.9182   46.1898 H   0  0  0  0  0  0  0  0  0  0  0  0
   64.5716   32.5014   47.0830 H   0  0  0  0  0  0  0  0  0  0  0  0
   64.6378   31.9848   49.5471 H   0  0  0  0  0  0  0  0  0  0  0  0
   63.4685   33.3418   49.3611 H   0  0  0  0  0  0  0  0  0  0  0  0
   63.4846   31.4501   51.4282 H   0  0  0  0  0  0  0  0  0  0  0  0
   62.1191   32.5311   50.9925 H   0  0  0  0  0  0  0  0  0  0  0  0
   60.3302   29.6423   50.8931 H   0  0  0  0  0  0  0  0  0  0  0  0
   60.7918   31.1343   51.7997 H   0  0  0  0  0  0  0  0  0  0  0  0
   58.8542   30.9313   49.7654 H   0  0  0  0  0  0  0  0  0  0  0  0
   59.5723   32.4449   50.4479 H   0  0  0  0  0  0  0  0  0  0  0  0
   61.4300   31.6960   48.5480 H   0  0  0  0  0  0  0  0  0  0  0  0
   55.9328   31.2219   44.6287 H   0  0  0  0  0  0  0  0  0  0  0  0
   56.9216   32.2320   43.5203 H   0  0  0  0  0  0  0  0  0  0  0  0
   57.1144   30.4460   43.5203 H   0  0  0  0  0  0  0  0  0  0  0  0
   57.7183   28.9218   44.2577 H   0  0  0  0  0  0  0  0  0  0  0  0
   59.9491   27.0782   47.4563 H   0  0  0  0  0  0  0  0  0  0  0  0
   60.4482   29.3136   48.4166 H   0  0  0  0  0  0  0  0  0  0  0  0
   57.7258   33.7156   43.8363 H   0  0  0  0  0  0  0  0  0  0  0  0
   57.1457   34.4389   45.3800 H   0  0  0  0  0  0  0  0  0  0  0  0
   60.0134   34.4671   44.3170 H   0  0  0  0  0  0  0  0  0  0  0  0
   58.8467   35.8632   44.3899 H   0  0  0  0  0  0  0  0  0  0  0  0
   60.7563   35.4327   46.2477 H   0  0  0  0  0  0  0  0  0  0  0  0
   59.1180   36.1884   46.5860 H   0  0  0  0  0  0  0  0  0  0  0  0
   60.2100   34.1724   48.0548 H   0  0  0  0  0  0  0  0  0  0  0  0
   58.4254   34.5054   47.8464 H   0  0  0  0  0  0  0  0  0  0  0  0
  1  2  1  0
  2  3  1  0
  3  4  1  0
  4  5  1  0
  5  6  1  0
  6  7  1  0
  7  8  1  0
  8  9  1  0
  9 10  1  0
 10 11  2  0
 11 12  1  0
 12 13  2  0
 13 14  1  0
 13 15  1  0
 15 16  2  0
 16 17  1  0
 17 18  1  0
 17 19  2  0
 19 20  1  0
 20 21  2  0
 12 22  1  0
 22 23  1  0
 23 24  1  0
 24 25  1  0
 21 10  1  0
 25 11  1  0
 21 15  1  0
  1 26  1  0
  1 27  1  0
  1 28  1  0
  2 29  1  0
  2 30  1  0
  4 31  1  0
  4 32  1  0
  5 33  1  0
  5 34  1  0
  7 35  1  0
  7 36  1  0
  8 37  1  0
  8 38  1  0
  9 39  1  0
 14 40  1  0
 14 41  1  0
 14 42  1  0
 16 43  1  0
 19 44  1  0
 20 45  1  0
 22 46  1  0
 22 47  1  0
 23 48  1  0
 23 49  1  0
 24 50  1  0
 24 51  1  0
 25 52  1  0
 25 53  1  0
M  CHG  1  13   1
M  END
>  <UniqueID>  (8) 
8

>  <SMILES>  (8) 
CCOCCOCCNc1c2c([n+](C)c3cc(Cl)ccc13)CCCC2

>  <Energy>  (8) 
75.19001638647693

>  <Genealogy>  (8) 
CCOCCOCCNc1c2c([n+](C)c3cc(Cl)ccc13)CCCC2 (3D coordinates assigned)
CCOCCOCCNc1c2c([n+](C)c3cc(Cl)ccc13)CCCC2 (nonaromatic ring conformer: 75.19001638647693 kcal/mol)

>  <smiles>  (8) 
CCOCCOCCNc1c2c([n+](C)c3cc(Cl)ccc13)CCCC2

>  <score_type>  (8) 
oracle

>  <origin>  (8) 
adg

>  <m_score__min__energy>  (8) 
-5.5

>  <m_primary>  (8) 
energy

$$$$
8:0
     RDKit          3D

 71 74  0  0  0  0  0  0  0  0999 V2000
   59.0137   35.5285   48.9386 H   0  0  0  0  0  0  0  0  0  0  0  0
   59.4100   34.5990   48.5040 C   0  0  0  0  0  0  0  0  0  0  0  0
   60.2260   33.8600   49.1950 N   0  0  0  0  0  0  0  0  0  0  0  0
   60.7650   34.2190   50.4200 O   0  0  0  0  0  0  0  0  0  0  0  0
   61.6580   33.3910   51.1640 C   0  0  0  0  0  0  0  0  0  0  0  0
   62.3252   34.0231   51.7684 H   0  0  0  0  0  0  0  0  0  0  0  0
   62.2556   32.7826   50.4693 H   0  0  0  0  0  0  0  0  0  0  0  0
   60.8590   32.4710   52.0840 C   0  0  0  0  0  0  0  0  0  0  0  0
   59.9091   32.9600   52.3456 H   0  0  0  0  0  0  0  0  0  0  0  0
   61.4533   32.2768   52.9890 H   0  0  0  0  0  0  0  0  0  0  0  0
   60.5610   31.1280   51.3940 C   0  0  0  0  0  0  0  0  0  0  0  0
   59.9184   30.5257   52.0530 H   0  0  0  0  0  0  0  0  0  0  0  0
   61.5206   30.6252   51.2034 H   0  0  0  0  0  0  0  0  0  0  0  0
   59.8790   31.3080   50.1010 N   0  0  0  0  0  0  0  0  0  0  0  0
   59.9580   32.3060   49.7930 H   0  0  0  0  0  0  0  0  0  0  0  0
   58.4590   30.9230   50.1540 C   0  0  0  0  0  0  0  0  0  0  0  0
   58.3686   29.9309   50.6204 H   0  0  0  0  0  0  0  0  0  0  0  0
   58.0562   30.8949   49.1308 H   0  0  0  0  0  0  0  0  0  0  0  0
   57.6680   31.9390   50.9730 C   0  0  0  0  0  0  0  0  0  0  0  0
   57.8199   31.7439   52.0449 H   0  0  0  0  0  0  0  0  0  0  0  0
   58.0157   32.9545   50.7323 H   0  0  0  0  0  0  0  0  0  0  0  0
   56.5983   31.8510   50.7323 H   0  0  0  0  0  0  0  0  0  0  0  0
   59.0050   34.1930   47.1180 C   0  0  0  0  0  0  0  0  0  0  0  0
   58.0297   34.6482   46.8908 H   0  0  0  0  0  0  0  0  0  0  0  0
   59.7914   34.5400   46.4315 H   0  0  0  0  0  0  0  0  0  0  0  0
   58.8850   32.6570   46.9450 C   0  0  1  0  0  0  0  0  0  0  0  0
   58.2997   32.3507   47.8246 H   0  0  0  0  0  0  0  0  0  0  0  0
   58.0020   32.1970   45.7340 C   0  0  1  0  0  0  0  0  0  0  0  0
   57.0194   32.6588   45.9106 H   0  0  0  0  0  0  0  0  0  0  0  0
   58.4940   32.7330   44.3740 C   0  0  0  0  0  0  0  0  0  0  0  0
   58.5426   33.8312   44.4141 H   0  0  0  0  0  0  0  0  0  0  0  0
   59.4907   32.3160   44.1674 H   0  0  0  0  0  0  0  0  0  0  0  0
   57.5380   32.3110   43.2510 C   0  0  0  0  0  0  0  0  0  0  0  0
   56.6320   32.9325   43.3052 H   0  0  0  0  0  0  0  0  0  0  0  0
   58.0617   32.4479   42.2934 H   0  0  0  0  0  0  0  0  0  0  0  0
   57.1300   30.8300   43.3580 C   0  0  0  0  0  0  0  0  0  0  0  0
   56.0857   30.7674   43.6977 H   0  0  0  0  0  0  0  0  0  0  0  0
   57.2398   30.3619   42.3686 H   0  0  0  0  0  0  0  0  0  0  0  0
   57.9940   30.1160   44.3170 N   0  0  0  0  0  0  0  0  0  0  0  0
   57.7600   28.6650   44.2430 C   0  0  0  0  0  0  0  0  0  0  0  0
   56.7536   28.4359   44.6234 H   0  0  0  0  0  0  0  0  0  0  0  0
   57.8407   28.3332   43.1974 H   0  0  0  0  0  0  0  0  0  0  0  0
   58.8010   27.9390   45.0890 C   0  0  0  0  0  0  0  0  0  0  0  0
   58.6347   26.8538   45.0206 H   0  0  0  0  0  0  0  0  0  0  0  0
   59.8066   28.1843   44.7167 H   0  0  0  0  0  0  0  0  0  0  0  0
   58.6820   28.3790   46.5460 C   0  0  0  0  0  0  0  0  0  0  0  0
   57.7315   28.0020   46.9514 H   0  0  0  0  0  0  0  0  0  0  0  0
   59.5460   27.9689   47.0895 H   0  0  0  0  0  0  0  0  0  0  0  0
   58.7140   29.9130   46.7070 C   0  0  2  0  0  0  0  0  0  0  0  0
   58.3487   30.0881   47.7297 H   0  0  0  0  0  0  0  0  0  0  0  0
   57.7820   30.6380   45.6960 C   0  0  1  0  0  0  0  0  0  0  0  0
   56.7425   30.4339   45.9922 H   0  0  0  0  0  0  0  0  0  0  0  0
   60.1270   30.5040   46.5800 C   0  0  0  0  0  0  0  0  0  0  0  0
   60.8278   29.8811   47.1552 H   0  0  0  0  0  0  0  0  0  0  0  0
   60.3999   30.5193   45.5145 H   0  0  0  0  0  0  0  0  0  0  0  0
   60.1840   31.8980   47.0960 N   0  0  1  0  0  0  0  0  0  0  0  0
   60.2680   31.7700   48.1360 H   0  0  0  0  0  0  0  0  0  0  0  0
   61.4730   32.5860   46.7620 C   0  0  0  0  0  0  0  0  0  0  0  0
   61.8530   32.1452   45.8286 H   0  0  0  0  0  0  0  0  0  0  0  0
   61.2200   33.6546   46.6987 H   0  0  0  0  0  0  0  0  0  0  0  0
   62.5850   32.5020   47.7960 C   0  0  0  0  0  0  0  0  0  0  0  0
   62.6300   31.4320   48.7110 C   0  0  0  0  0  0  0  0  0  0  0  0
   61.8627   30.6451   48.6658 H   0  0  0  0  0  0  0  0  0  0  0  0
   63.6390   31.3590   49.6760 C   0  0  0  0  0  0  0  0  0  0  0  0
   63.6856   30.4968   50.3575 H   0  0  0  0  0  0  0  0  0  0  0  0
   64.5870   32.3780   49.7760 C   0  0  0  0  0  0  0  0  0  0  0  0
   65.8460   32.2890   50.9920 Cl  0  0  0  0  0  0  0  0  0  0  0  0
   64.5020   33.4890   48.9350 C   0  0  0  0  0  0  0  0  0  0  0  0
   65.2296   34.3081   49.0334 H   0  0  0  0  0  0  0  0  0  0  0  0
   63.4950   33.5640   47.9680 C   0  0  0  0  0  0  0  0  0  0  0  0
   63.4124   34.4603   47.3357 H   0  0  0  0  0  0  0  0  0  0  0  0
  1  2  1  0
  2  3  2  0
  3  4  1  0
  4  5  1  0
  5  6  1  0
  5  7  1  0
  5  8  1  0
  8  9  1  0
  8 10  1  0
  8 11  1  0
 11 12  1  0
 11 13  1  0
 11 14  1  0
 14 15  1  0
 14 16  1  0
 16 17  1  0
 16 18  1  0
 16 19  1  0
 19 20  1  0
 19 21  1  0
 19 22  1  0
  2 23  1  0
 23 24  1  0
 23 25  1  0
 23 26  1  0
 26 27  1  1
 26 28  1  0
 28 29  1  1
 28 30  1  0
 30 31  1  0
 30 32  1  0
 30 33  1  0
 33 34  1  0
 33 35  1  0
 33 36  1  0
 36 37  1  0
 36 38  1  0
 36 39  1  0
 39 40  1  0
 40 41  1  0
 40 42  1  0
 40 43  1  0
 43 44  1  0
 43 45  1  0
 43 46  1  0
 46 47  1  0
 46 48  1  0
 46 49  1  0
 49 50  1  1
 49 51  1  0
 51 52  1  1
 49 53  1  0
 53 54  1  0
 53 55  1  0
 53 56  1  0
 56 57  1  1
 56 58  1  0
 58 59  1  0
 58 60  1  0
 58 61  1  0
 61 62  2  0
 62 63  1  0
 62 64  1  0
 64 65  1  0
 64 66  2  0
 66 67  1  0
 66 68  1  0
 68 69  1  0
 68 70  2  0
 70 71  1  0
 56 26  1  0
 70 61  1  0
 51 28  1  0
 51 39  1  0
M  CHG  1  56   1
M  END
>  <UniqueID>  (9) 
9

>  <SMILES>  (9) 
CCNCCCO/N=C/C[C@H]1[C@H]2CCCN3CCCC(C[NH+]1Cc1ccc(Cl)cc1)C23

>  <Energy>  (9) 
97.4753005169234

>  <Genealogy>  (9) 
CCNCCCON=CCC1C2CCCN3CCCC(C[NH+]1Cc1ccc(Cl)cc1)C23 (protonated)
CCNCCCON=CC[C@H]1[C@H]2CCCN3CCCC(C[NH+]1Cc1ccc(Cl)cc1)C23 (chirality)
CCNCCCO/N=C/C[C@H]1[C@H]2CCCN3CCCC(C[NH+]1Cc1ccc(Cl)cc1)C23 (cis-trans isomerization)
CCNCCCO/N=C/C[C@H]1[C@H]2CCCN3CCCC(C[NH+]1Cc1ccc(Cl)cc1)C23 (3D coordinates assigned)
CCNCCCO/N=C/C[C@H]1[C@H]2CCCN3CCCC(C[NH+]1Cc1ccc(Cl)cc1)C23 (nonaromatic ring conformer: 97.4753005169234 kcal/mol)

>  <smiles>  (9) 
CCNCCCON=CCC1C2CCCN3CCCC(CN1Cc1ccc(Cl)cc1)C23

>  <score_type>  (9) 
oracle

>  <origin>  (9) 
adg

>  <m_score__min__energy>  (9) 
-7.7300000000000004

>  <m_primary>  (9) 
energy

$$$$
9:0
     RDKit          3D

 64 66  0  0  0  0  0  0  0  0999 V2000
   63.2890   33.8190   46.3700 C   0  0  0  0  0  0  0  0  0  0  0  0
   62.2230   33.0020   47.1040 C   0  0  0  0  0  0  0  0  0  0  0  0
   62.2770   33.2100   48.5830 N   0  0  2  0  0  0  0  0  0  0  0  0
   61.2640   34.2040   48.9900 C   0  0  0  0  0  0  0  0  0  0  0  0
   63.6190   33.6600   49.0400 C   0  0  0  0  0  0  0  0  0  0  0  0
   64.4700   32.5200   49.6380 C   0  0  0  0  0  0  0  0  0  0  0  0
   63.8050   31.2740   49.5720 O   0  0  0  0  0  0  0  0  0  0  0  0
   63.6660   30.7100   50.8600 C   0  0  0  0  0  0  0  0  0  0  0  0
   62.2190   30.8430   51.3150 C   0  0  0  0  0  0  0  0  0  0  0  0
   61.3910   30.9540   50.1780 O   0  0  0  0  0  0  0  0  0  0  0  0
   60.0440   31.0840   50.5720 C   0  0  0  0  0  0  0  0  0  0  0  0
   59.2110   31.5200   49.3690 C   0  0  0  0  0  0  0  0  0  0  0  0
   59.8240   31.0790   48.1130 N   0  0  0  0  0  0  0  0  0  0  0  0
   59.0550   30.9840   46.9020 C   0  0  0  0  0  0  0  0  0  0  0  0
   58.6810   32.1680   46.2400 C   0  0  0  0  0  0  0  0  0  0  0  0
   58.8090   33.4220   46.8770 C   0  0  0  0  0  0  0  0  0  0  0  0
   58.5190   34.6020   46.1970 C   0  0  0  0  0  0  0  0  0  0  0  0
   58.1050   34.5560   44.8730 C   0  0  0  0  0  0  0  0  0  0  0  0
   57.9450   33.3290   44.2310 C   0  0  0  0  0  0  0  0  0  0  0  0
   58.1910   32.1060   44.9100 C   0  0  0  0  0  0  0  0  0  0  0  0
   58.0040   30.8830   44.2970 N   0  0  0  0  0  0  0  0  0  0  0  0
   57.2720   30.8100   43.0110 C   0  0  0  0  0  0  0  0  0  0  0  0
   58.4490   29.7230   44.9040 C   0  0  0  0  0  0  0  0  0  0  0  0
   58.5290   28.5040   44.1880 C   0  0  0  0  0  0  0  0  0  0  0  0
   58.8670   27.3170   44.8240 C   0  0  0  0  0  0  0  0  0  0  0  0
   59.0930   27.2980   46.1920 C   0  0  0  0  0  0  0  0  0  0  0  0
   59.0530   28.4830   46.9390 C   0  0  0  0  0  0  0  0  0  0  0  0
   59.1350   28.3450   48.4420 C   0  0  0  0  0  0  0  0  0  0  0  0
   58.8600   29.7330   46.2680 C   0  0  0  0  0  0  0  0  0  0  0  0
   63.9391   34.3173   47.1042 H   0  0  0  0  0  0  0  0  0  0  0  0
   63.8934   33.1506   45.7391 H   0  0  0  0  0  0  0  0  0  0  0  0
   62.8007   34.5763   45.7391 H   0  0  0  0  0  0  0  0  0  0  0  0
   61.2303   33.3043   46.7390 H   0  0  0  0  0  0  0  0  0  0  0  0
   62.4138   31.9373   46.9038 H   0  0  0  0  0  0  0  0  0  0  0  0
   62.0330   32.3250   49.0910 H   0  0  0  0  0  0  0  0  0  0  0  0
   61.2165   34.2506   50.0880 H   0  0  0  0  0  0  0  0  0  0  0  0
   61.5394   35.1920   48.5926 H   0  0  0  0  0  0  0  0  0  0  0  0
   60.2814   33.9099   48.5926 H   0  0  0  0  0  0  0  0  0  0  0  0
   64.1574   34.0842   48.1797 H   0  0  0  0  0  0  0  0  0  0  0  0
   63.4618   34.4032   49.8356 H   0  0  0  0  0  0  0  0  0  0  0  0
   65.4138   32.4493   49.0774 H   0  0  0  0  0  0  0  0  0  0  0  0
   64.6539   32.7521   50.6974 H   0  0  0  0  0  0  0  0  0  0  0  0
   63.9444   29.6463   50.8272 H   0  0  0  0  0  0  0  0  0  0  0  0
   64.3239   31.2379   51.5660 H   0  0  0  0  0  0  0  0  0  0  0  0
   61.9314   29.9543   51.8959 H   0  0  0  0  0  0  0  0  0  0  0  0
   62.1074   31.7370   51.9462 H   0  0  0  0  0  0  0  0  0  0  0  0
   59.6745   30.1174   50.9450 H   0  0  0  0  0  0  0  0  0  0  0  0
   59.9626   31.8358   51.3709 H   0  0  0  0  0  0  0  0  0  0  0  0
   58.2054   31.0817   49.4509 H   0  0  0  0  0  0  0  0  0  0  0  0
   59.1556   32.6186   49.3630 H   0  0  0  0  0  0  0  0  0  0  0  0
   60.7900   30.6820   48.1360 H   0  0  0  0  0  0  0  0  0  0  0  0
   59.1422   33.4671   47.9243 H   0  0  0  0  0  0  0  0  0  0  0  0
   58.6180   35.5705   46.7090 H   0  0  0  0  0  0  0  0  0  0  0  0
   57.9026   35.4903   44.3288 H   0  0  0  0  0  0  0  0  0  0  0  0
   57.6224   33.3076   43.1796 H   0  0  0  0  0  0  0  0  0  0  0  0
   56.1951   30.7026   43.2077 H   0  0  0  0  0  0  0  0  0  0  0  0
   57.4496   31.7303   42.4353 H   0  0  0  0  0  0  0  0  0  0  0  0
   57.6278   29.9429   42.4353 H   0  0  0  0  0  0  0  0  0  0  0  0
   58.3195   28.4973   43.1081 H   0  0  0  0  0  0  0  0  0  0  0  0
   58.9558   26.3886   44.2408 H   0  0  0  0  0  0  0  0  0  0  0  0
   59.3057   26.3435   46.6957 H   0  0  0  0  0  0  0  0  0  0  0  0
   58.6281   29.1981   48.9167 H   0  0  0  0  0  0  0  0  0  0  0  0
   58.6461   27.4095   48.7515 H   0  0  0  0  0  0  0  0  0  0  0  0
   60.1904   28.3270   48.7515 H   0  0  0  0  0  0  0  0  0  0  0  0
  1  2  1  0
  2  3  1  0
  3  4  1  0
  3  5  1  0
  5  6  1  0
  6  7  1  0
  7  8  1  0
  8  9  1  0
  9 10  1  0
 10 11  1  0
 11 12  1  0
 12 13  1  0
 13 14  1  0
 14 15  2  0
 15 16  1  0
 16 17  2  0
 17 18  1  0
 18 19  2  0
 19 20  1  0
 20 21  2  0
 21 22  1  0
 21 23  1  0
 23 24  2  0
 24 25  1  0
 25 26  2  0
 26 27  1  0
 27 28  1  0
 27 29  2  0
 29 14  1  0
 20 15  1  0
 29 23  1  0
  1 30  1  0
  1 31  1  0
  1 32  1  0
  2 33  1  0
  2 34  1  0
  3 35  1  1
  4 36  1  0
  4 37  1  0
  4 38  1  0
  5 39  1  0
  5 40  1  0
  6 41  1  0
  6 42  1  0
  8 43  1  0
  8 44  1  0
  9 45  1  0
  9 46  1  0
 11 47  1  0
 11 48  1  0
 12 49  1  0
 12 50  1  0
 13 51  1  0
 16 52  1  0
 17 53  1  0
 18 54  1  0
 19 55  1  0
 22 56  1  0
 22 57  1  0
 22 58  1  0
 24 59  1  0
 25 60  1  0
 26 61  1  0
 28 62  1  0
 28 63  1  0
 28 64  1  0
M  CHG  2   3   1  21   1
M  END
>  <UniqueID>  (10) 
10

>  <SMILES>  (10) 
CC[N@H+](C)CCOCCOCCNc1c2ccccc2[n+](C)c2cccc(C)c12

>  <Energy>  (10) 
96.89948252949827

>  <Genealogy>  (10) 
CC[NH+](C)CCOCCOCCNc1c2ccccc2[n+](C)c2cccc(C)c12 (protonated)
CC[N@H+](C)CCOCCOCCNc1c2ccccc2[n+](C)c2cccc(C)c12 (chirality)
CC[N@H+](C)CCOCCOCCNc1c2ccccc2[n+](C)c2cccc(C)c12 (3D coordinates assigned)
CC[N@H+](C)CCOCCOCCNc1c2ccccc2[n+](C)c2cccc(C)c12 (optimized conformer: 96.89948252949827 kcal/mol)

>  <smiles>  (10) 
CCN(C)CCOCCOCCNc1c2ccccc2[n+](C)c2cccc(C)c12

>  <score_type>  (10) 
oracle

>  <origin>  (10) 
adg

>  <m_score__min__energy>  (10) 
-4.2199999999999998

>  <m_primary>  (10) 
energy

$$$$
10:0
     RDKit          3D

 73 75  0  0  0  0  0  0  0  0999 V2000
   58.4340   22.2660   44.8250 C   0  0  0  0  0  0  0  0  0  0  0  0
   56.9900   21.8150   45.0300 C   0  0  0  0  0  0  0  0  0  0  0  0
   56.2510   21.8230   43.7450 N   0  0  0  0  0  0  0  0  0  0  0  0
   57.0100   21.1050   42.7060 C   0  0  0  0  0  0  0  0  0  0  0  0
   55.9660   23.2050   43.2990 C   0  0  0  0  0  0  0  0  0  0  0  0
   54.4670   23.5160   43.4100 C   0  0  0  0  0  0  0  0  0  0  0  0
   53.9870   23.2310   44.7110 O   0  0  0  0  0  0  0  0  0  0  0  0
   53.9130   24.3990   45.5110 C   0  0  0  0  0  0  0  0  0  0  0  0
   55.3120   24.8380   45.9360 C   0  0  0  0  0  0  0  0  0  0  0  0
   55.3490   26.2490   46.0330 O   0  0  0  0  0  0  0  0  0  0  0  0
   56.6570   26.7040   46.3260 C   0  0  0  0  0  0  0  0  0  0  0  0
   57.7280   25.8150   45.6790 C   0  0  0  0  0  0  0  0  0  0  0  0
   58.7180   25.4760   46.6310 O   0  0  0  0  0  0  0  0  0  0  0  0
   59.9520   26.1090   46.3460 C   0  0  0  0  0  0  0  0  0  0  0  0
   59.9820   27.5190   46.9380 C   0  0  0  0  0  0  0  0  0  0  0  0
   60.4090   28.4990   45.9370 N   0  0  0  0  0  0  0  0  0  0  0  0
   59.7590   29.7760   45.8080 C   0  0  0  0  0  0  0  0  0  0  0  0
   58.6490   29.9220   44.9540 C   0  0  0  0  0  0  0  0  0  0  0  0
   58.1510   28.8260   44.2150 C   0  0  0  0  0  0  0  0  0  0  0  0
   57.0150   28.9570   43.4230 C   0  0  0  0  0  0  0  0  0  0  0  0
   56.3450   30.1710   43.3620 C   0  0  0  0  0  0  0  0  0  0  0  0
   56.8220   31.2710   44.0720 C   0  0  0  0  0  0  0  0  0  0  0  0
   58.0040   31.1840   44.8540 C   0  0  0  0  0  0  0  0  0  0  0  0
   58.5120   32.2810   45.5230 N   0  0  0  0  0  0  0  0  0  0  0  0
   58.0220   33.6390   45.1960 C   0  0  0  0  0  0  0  0  0  0  0  0
   59.5120   32.1160   46.4640 C   0  0  0  0  0  0  0  0  0  0  0  0
   59.8810   33.1610   47.3480 C   0  0  0  0  0  0  0  0  0  0  0  0
   60.9580   33.0240   48.2370 C   0  0  0  0  0  0  0  0  0  0  0  0
   61.3340   34.1150   49.1010 N   0  0  0  0  0  0  0  0  0  0  0  0
   62.7910   34.2050   49.1980 C   0  0  0  0  0  0  0  0  0  0  0  0
   61.6910   31.8340   48.2380 C   0  0  0  0  0  0  0  0  0  0  0  0
   61.3120   30.7720   47.4220 C   0  0  0  0  0  0  0  0  0  0  0  0
   60.1960   30.8770   46.5690 C   0  0  0  0  0  0  0  0  0  0  0  0
   58.9137   22.4158   45.8035 H   0  0  0  0  0  0  0  0  0  0  0  0
   58.9821   21.4963   44.2619 H   0  0  0  0  0  0  0  0  0  0  0  0
   58.4466   23.2109   44.2619 H   0  0  0  0  0  0  0  0  0  0  0  0
   56.9853   20.7954   45.4429 H   0  0  0  0  0  0  0  0  0  0  0  0
   56.4976   22.5107   45.7254 H   0  0  0  0  0  0  0  0  0  0  0  0
   57.7301   20.4238   43.1828 H   0  0  0  0  0  0  0  0  0  0  0  0
   56.3160   20.5251   42.0798 H   0  0  0  0  0  0  0  0  0  0  0  0
   57.5505   21.8301   42.0798 H   0  0  0  0  0  0  0  0  0  0  0  0
   56.5281   23.9102   43.9288 H   0  0  0  0  0  0  0  0  0  0  0  0
   56.2696   23.3052   42.2465 H   0  0  0  0  0  0  0  0  0  0  0  0
   54.3030   24.5814   43.1910 H   0  0  0  0  0  0  0  0  0  0  0  0
   53.9233   22.8875   42.6893 H   0  0  0  0  0  0  0  0  0  0  0  0
   53.4393   25.2059   44.9326 H   0  0  0  0  0  0  0  0  0  0  0  0
   53.3174   24.1807   46.4097 H   0  0  0  0  0  0  0  0  0  0  0  0
   55.5550   24.3958   46.9135 H   0  0  0  0  0  0  0  0  0  0  0  0
   56.0470   24.5001   45.1907 H   0  0  0  0  0  0  0  0  0  0  0  0
   56.7701   27.7306   45.9473 H   0  0  0  0  0  0  0  0  0  0  0  0
   56.7955   26.6674   47.4166 H   0  0  0  0  0  0  0  0  0  0  0  0
   57.2575   24.8957   45.3001 H   0  0  0  0  0  0  0  0  0  0  0  0
   58.1986   26.3636   44.8498 H   0  0  0  0  0  0  0  0  0  0  0  0
   60.7710   25.5169   46.7803 H   0  0  0  0  0  0  0  0  0  0  0  0
   60.0712   26.1795   45.2548 H   0  0  0  0  0  0  0  0  0  0  0  0
   58.9743   27.7821   47.2921 H   0  0  0  0  0  0  0  0  0  0  0  0
   60.6994   27.5341   47.7718 H   0  0  0  0  0  0  0  0  0  0  0  0
   60.9990   28.1610   45.1440 H   0  0  0  0  0  0  0  0  0  0  0  0
   58.6682   27.8565   44.2665 H   0  0  0  0  0  0  0  0  0  0  0  0
   56.6471   28.0971   42.8441 H   0  0  0  0  0  0  0  0  0  0  0  0
   55.4349   30.2650   42.7514 H   0  0  0  0  0  0  0  0  0  0  0  0
   56.2734   32.2233   44.0259 H   0  0  0  0  0  0  0  0  0  0  0  0
   57.8229   34.1909   46.1265 H   0  0  0  0  0  0  0  0  0  0  0  0
   58.7843   34.1725   44.6093 H   0  0  0  0  0  0  0  0  0  0  0  0
   57.0947   33.5628   44.6093 H   0  0  0  0  0  0  0  0  0  0  0  0
   59.3098   34.1010   47.3368 H   0  0  0  0  0  0  0  0  0  0  0  0
   60.9590   35.0180   48.7260 H   0  0  0  0  0  0  0  0  0  0  0  0
   60.9320   33.9760   50.0580 H   0  0  0  0  0  0  0  0  0  0  0  0
   63.0875   34.2233   50.2571 H   0  0  0  0  0  0  0  0  0  0  0  0
   63.2459   33.3332   48.7049 H   0  0  0  0  0  0  0  0  0  0  0  0
   63.1351   35.1261   48.7049 H   0  0  0  0  0  0  0  0  0  0  0  0
   62.5731   31.7361   48.8878 H   0  0  0  0  0  0  0  0  0  0  0  0
   61.8921   29.8376   47.4436 H   0  0  0  0  0  0  0  0  0  0  0  0
  1  2  1  0
  2  3  1  0
  3  4  1  0
  3  5  1  0
  5  6  1  0
  6  7  1  0
  7  8  1  0
  8  9  1  0
  9 10  1  0
 10 11  1  0
 11 12  1  0
 12 13  1  0
 13 14  1  0
 14 15  1  0
 15 16  1  0
 16 17  1  0
 17 18  2  0
 18 19  1  0
 19 20  2  0
 20 21  1  0
 21 22  2  0
 22 23  1  0
 23 24  2  0
 24 25  1  0
 24 26  1  0
 26 27  2  0
 27 28  1  0
 28 29  1  0
 29 30  1  0
 28 31  2  0
 31 32  1  0
 32 33  2  0
 33 17  1  0
 23 18  1  0
 33 26  1  0
  1 34  1  0
  1 35  1  0
  1 36  1  0
  2 37  1  0
  2 38  1  0
  4 39  1  0
  4 40  1  0
  4 41  1  0
  5 42  1  0
  5 43  1  0
  6 44  1  0
  6 45  1  0
  8 46  1  0
  8 47  1  0
  9 48  1  0
  9 49  1  0
 11 50  1  0
 11 51  1  0
 12 52  1  0
 12 53  1  0
 14 54  1  0
 14 55  1  0
 15 56  1  0
 15 57  1  0
 16 58  1  0
 19 59  1  0
 20 60  1  0
 21 61  1  0
 22 62  1  0
 25 63  1  0
 25 64  1  0
 25 65  1  0
 27 66  1  0
 29 67  1  0
 29 68  1  0
 30 69  1  0
 30 70  1  0
 30 71  1  0
 31 72  1  0
 32 73  1  0
M  CHG  2  24   1  29   1
M  END
>  <UniqueID>  (11) 
11

>  <SMILES>  (11) 
CCN(C)CCOCCOCCOCCNc1c2ccccc2[n+](C)c2cc([NH2+]C)ccc12

>  <Energy>  (11) 
102.27733232558977

>  <Genealogy>  (11) 
CCN(C)CCOCCOCCOCCNc1c2ccccc2[n+](C)c2cc([NH2+]C)ccc12 (protonated)
CCN(C)CCOCCOCCOCCNc1c2ccccc2[n+](C)c2cc([NH2+]C)ccc12 (3D coordinates assigned)
CCN(C)CCOCCOCCOCCNc1c2ccccc2[n+](C)c2cc([NH2+]C)ccc12 (optimized conformer: 102.27733232558977 kcal/mol)

>  <smiles>  (11) 
CCN(C)CCOCCOCCOCCNc1c2ccccc2[n+](C)c2cc(NC)ccc12

>  <score_type>  (11) 
oracle

>  <origin>  (11) 
adg

>  <m_score__min__energy>  (11) 
-4.6200000000000001

>  <m_primary>  (11) 
energy

$$$$
11:0
     RDKit          3D

 41 43  0  0  0  0  0  0  0  0999 V2000
   59.6410   34.5430   49.1800 C   0  0  0  0  0  0  0  0  0  0  0  0
   60.8120   34.1130   48.4190 N   0  0  0  0  0  0  0  0  0  0  0  0
   60.9220   33.9270   47.0670 C   0  0  0  0  0  0  0  0  0  0  0  0
   59.8280   34.1530   46.0880 C   0  0  0  0  0  0  0  0  0  0  0  0
   59.6670   35.3090   45.6070 O   0  0  0  0  0  0  0  0  0  0  0  0
   58.9770   33.0620   45.6460 N   0  0  2  0  0  0  0  0  0  0  0  0
   58.1060   33.4630   44.5110 C   0  0  0  0  0  0  0  0  0  0  0  0
   57.7960   32.3480   43.4860 C   0  0  0  0  0  0  0  0  0  0  0  0
   56.9510   31.2960   44.0660 C   0  0  0  0  0  0  0  0  0  0  0  0
   56.2840   30.4670   44.5210 N   0  0  0  0  0  0  0  0  0  0  0  0
   58.2110   32.4590   46.7660 C   0  0  0  0  0  0  0  0  0  0  0  0
   58.9120   31.2400   47.3230 C   0  0  0  0  0  0  0  0  0  0  0  0
   59.2880   30.1910   46.4670 C   0  0  0  0  0  0  0  0  0  0  0  0
   59.9720   29.0800   46.9720 C   0  0  0  0  0  0  0  0  0  0  0  0
   60.2880   29.0110   48.3310 C   0  0  0  0  0  0  0  0  0  0  0  0
   59.9230   30.0520   49.1880 C   0  0  0  0  0  0  0  0  0  0  0  0
   59.2390   31.1640   48.6880 C   0  0  0  0  0  0  0  0  0  0  0  0
   62.2220   33.5090   46.7280 C   0  0  0  0  0  0  0  0  0  0  0  0
   62.8740   33.4650   47.9330 C   0  0  0  0  0  0  0  0  0  0  0  0
   64.3940   33.1180   48.5380 S   0  0  0  0  0  0  0  0  0  0  0  0
   63.9190   33.4530   50.1490 C   0  0  0  0  0  0  0  0  0  0  0  0
   62.5710   33.8370   50.1890 C   0  0  0  0  0  0  0  0  0  0  0  0
   62.0320   33.8250   48.9060 C   0  0  0  0  0  0  0  0  0  0  0  0
   59.8542   34.4647   50.2563 H   0  0  0  0  0  0  0  0  0  0  0  0
   59.4033   35.5871   48.9283 H   0  0  0  0  0  0  0  0  0  0  0  0
   58.7841   33.9009   48.9283 H   0  0  0  0  0  0  0  0  0  0  0  0
   59.5930   32.3010   45.2750 H   0  0  0  0  0  0  0  0  0  0  0  0
   57.1509   33.8180   44.9253 H   0  0  0  0  0  0  0  0  0  0  0  0
   58.6632   34.2347   43.9597 H   0  0  0  0  0  0  0  0  0  0  0  0
   57.2736   32.7905   42.6251 H   0  0  0  0  0  0  0  0  0  0  0  0
   58.7482   31.8916   43.1776 H   0  0  0  0  0  0  0  0  0  0  0  0
   58.1010   33.2053   47.5666 H   0  0  0  0  0  0  0  0  0  0  0  0
   57.2277   32.1475   46.3838 H   0  0  0  0  0  0  0  0  0  0  0  0
   59.0436   30.2436   45.3958 H   0  0  0  0  0  0  0  0  0  0  0  0
   60.2613   28.2600   46.2983 H   0  0  0  0  0  0  0  0  0  0  0  0
   60.8247   28.1361   48.7266 H   0  0  0  0  0  0  0  0  0  0  0  0
   60.1741   29.9967   50.2575 H   0  0  0  0  0  0  0  0  0  0  0  0
   58.9555   31.9829   49.3656 H   0  0  0  0  0  0  0  0  0  0  0  0
   62.6213   33.2730   45.7306 H   0  0  0  0  0  0  0  0  0  0  0  0
   64.5774   33.3777   51.0270 H   0  0  0  0  0  0  0  0  0  0  0  0
   62.0199   34.1082   51.1015 H   0  0  0  0  0  0  0  0  0  0  0  0
  1  2  1  0
  2  3  1  0
  3  4  1  0
  4  5  2  0
  4  6  1  0
  6  7  1  0
  7  8  1  0
  8  9  1  0
  9 10  3  0
  6 11  1  0
 11 12  1  0
 12 13  2  0
 13 14  1  0
 14 15  2  0
 15 16  1  0
 16 17  2  0
  3 18  2  0
 18 19  1  0
 19 20  1  0
 20 21  1  0
 21 22  2  0
 22 23  1  0
 23  2  1  0
 17 12  1  0
 23 19  2  0
  1 24  1  0
  1 25  1  0
  1 26  1  0
  6 27  1  6
  7 28  1  0
  7 29  1  0
  8 30  1  0
  8 31  1  0
 11 32  1  0
 11 33  1  0
 13 34  1  0
 14 35  1  0
 15 36  1  0
 16 37  1  0
 17 38  1  0
 18 39  1  0
 21 40  1  0
 22 41  1  0
M  CHG  1   6   1
M  END
>  <UniqueID>  (12) 
12

>  <SMILES>  (12) 
Cn1c(C(=O)[N@H+](CCC#N)Cc2ccccc2)cc2sccc21

>  <Energy>  (12) 
122.92148317484133

>  <Genealogy>  (12) 
Cn1c(C(=O)[NH+](CCC#N)Cc2ccccc2)cc2sccc21 (protonated)
Cn1c(C(=O)[N@H+](CCC#N)Cc2ccccc2)cc2sccc21 (chirality)
Cn1c(C(=O)[N@H+](CCC#N)Cc2ccccc2)cc2sccc21 (3D coordinates assigned)
Cn1c(C(=O)[N@H+](CCC#N)Cc2ccccc2)cc2sccc21 (optimized conformer: 122.92148317484133 kcal/mol)

>  <smiles>  (12) 
Cn1c(C(=O)N(CCC#N)Cc2ccccc2)cc2sccc21

>  <score_type>  (12) 
oracle

>  <origin>  (12) 
adg

>  <m_score__min__energy>  (12) 
-6.0599999999999996

>  <m_primary>  (12) 
energy

$$$$
12:0
     RDKit          3D

 66 68  0  0  0  0  0  0  0  0999 V2000
   57.7520   31.7420   51.9430 C   0  0  0  0  0  0  0  0  0  0  0  0
   59.1860   31.3100   51.6560 C   0  0  0  0  0  0  0  0  0  0  0  0
   59.4360   31.3120   50.1960 N   0  0  0  0  0  0  0  0  0  0  0  0
   59.0130   30.0410   49.5670 C   0  0  0  0  0  0  0  0  0  0  0  0
   60.0020   28.9230   49.8960 C   0  0  0  0  0  0  0  0  0  0  0  0
   58.8060   32.4820   49.5350 C   0  0  0  0  0  0  0  0  0  0  0  0
   59.6430   33.7380   49.8040 C   0  0  0  0  0  0  0  0  0  0  0  0
   60.8490   33.7370   49.0650 O   0  0  0  0  0  0  0  0  0  0  0  0
   61.9390   34.2210   49.8300 C   0  0  0  0  0  0  0  0  0  0  0  0
   62.8840   33.0830   50.2510 C   0  0  0  0  0  0  0  0  0  0  0  0
   62.6620   31.9130   49.4860 O   0  0  0  0  0  0  0  0  0  0  0  0
   63.3860   31.9650   48.2720 C   0  0  0  0  0  0  0  0  0  0  0  0
   62.5110   31.4370   47.1370 C   0  0  0  0  0  0  0  0  0  0  0  0
   61.1010   31.3970   47.5190 N   0  0  0  0  0  0  0  0  0  0  0  0
   60.0810   31.2210   46.5210 C   0  0  0  0  0  0  0  0  0  0  0  0
   59.7740   29.9410   46.0350 C   0  0  0  0  0  0  0  0  0  0  0  0
   60.3960   28.8010   46.5830 C   0  0  0  0  0  0  0  0  0  0  0  0
   60.1430   27.5320   46.0680 C   0  0  0  0  0  0  0  0  0  0  0  0
   59.2760   27.3780   44.9940 C   0  0  0  0  0  0  0  0  0  0  0  0
   58.6250   28.4880   44.4550 C   0  0  0  0  0  0  0  0  0  0  0  0
   58.8250   29.7920   44.9870 C   0  0  0  0  0  0  0  0  0  0  0  0
   58.1310   30.8960   44.5120 N   0  0  0  0  0  0  0  0  0  0  0  0
   56.9960   30.7090   43.5720 C   0  0  0  0  0  0  0  0  0  0  0  0
   55.8070   30.0490   44.2680 C   0  0  0  0  0  0  0  0  0  0  0  0
   58.4650   32.1700   44.9510 C   0  0  0  0  0  0  0  0  0  0  0  0
   57.8820   33.3430   44.3950 C   0  0  0  0  0  0  0  0  0  0  0  0
   58.1970   34.6120   44.8830 C   0  0  0  0  0  0  0  0  0  0  0  0
   59.1120   34.7570   45.9170 C   0  0  0  0  0  0  0  0  0  0  0  0
   59.7360   33.6350   46.4560 C   0  0  0  0  0  0  0  0  0  0  0  0
   59.4290   32.3410   45.9840 C   0  0  0  0  0  0  0  0  0  0  0  0
   57.5941   31.7896   53.0306 H   0  0  0  0  0  0  0  0  0  0  0  0
   57.5728   32.7340   51.5027 H   0  0  0  0  0  0  0  0  0  0  0  0
   57.0547   31.0141   51.5027 H   0  0  0  0  0  0  0  0  0  0  0  0
   59.8811   32.0084   52.1450 H   0  0  0  0  0  0  0  0  0  0  0  0
   59.3405   30.2932   52.0462 H   0  0  0  0  0  0  0  0  0  0  0  0
   58.0170   29.7651   49.9437 H   0  0  0  0  0  0  0  0  0  0  0  0
   58.9825   30.1780   48.4760 H   0  0  0  0  0  0  0  0  0  0  0  0
   60.0913   28.8220   50.9877 H   0  0  0  0  0  0  0  0  0  0  0  0
   59.6405   27.9761   49.4685 H   0  0  0  0  0  0  0  0  0  0  0  0
   60.9859   29.1663   49.4685 H   0  0  0  0  0  0  0  0  0  0  0  0
   58.7510   32.3041   48.4509 H   0  0  0  0  0  0  0  0  0  0  0  0
   57.7922   32.6261   49.9367 H   0  0  0  0  0  0  0  0  0  0  0  0
   59.0548   34.6241   49.5233 H   0  0  0  0  0  0  0  0  0  0  0  0
   59.8990   33.7542   50.8737 H   0  0  0  0  0  0  0  0  0  0  0  0
   62.5026   34.9488   49.2278 H   0  0  0  0  0  0  0  0  0  0  0  0
   61.5389   34.6909   50.7405 H   0  0  0  0  0  0  0  0  0  0  0  0
   63.9241   33.4112   50.1082 H   0  0  0  0  0  0  0  0  0  0  0  0
   62.6890   32.8462   51.3074 H   0  0  0  0  0  0  0  0  0  0  0  0
   63.6735   33.0055   48.0603 H   0  0  0  0  0  0  0  0  0  0  0  0
   64.2911   31.3457   48.3570 H   0  0  0  0  0  0  0  0  0  0  0  0
   62.6255   32.0944   46.2625 H   0  0  0  0  0  0  0  0  0  0  0  0
   62.8332   30.4117   46.9024 H   0  0  0  0  0  0  0  0  0  0  0  0
   60.8030   31.6430   48.4880 H   0  0  0  0  0  0  0  0  0  0  0  0
   61.0903   28.9151   47.4285 H   0  0  0  0  0  0  0  0  0  0  0  0
   60.6301   26.6513   46.5120 H   0  0  0  0  0  0  0  0  0  0  0  0
   59.1023   26.3790   44.5676 H   0  0  0  0  0  0  0  0  0  0  0  0
   57.9438   28.3522   43.6020 H   0  0  0  0  0  0  0  0  0  0  0  0
   56.6855   31.6904   43.1842 H   0  0  0  0  0  0  0  0  0  0  0  0
   57.3267   30.0554   42.7514 H   0  0  0  0  0  0  0  0  0  0  0  0
   55.9347   30.1199   45.3583 H   0  0  0  0  0  0  0  0  0  0  0  0
   54.8792   30.5612   43.9735 H   0  0  0  0  0  0  0  0  0  0  0  0
   55.7510   28.9907   43.9735 H   0  0  0  0  0  0  0  0  0  0  0  0
   57.1683   33.2476   43.5634 H   0  0  0  0  0  0  0  0  0  0  0  0
   57.7183   35.5010   44.4465 H   0  0  0  0  0  0  0  0  0  0  0  0
   59.3439   35.7578   46.3103 H   0  0  0  0  0  0  0  0  0  0  0  0
   60.4771   33.7587   47.2594 H   0  0  0  0  0  0  0  0  0  0  0  0
  1  2  1  0
  2  3  1  0
  3  4  1  0
  4  5  1  0
  3  6  1  0
  6  7  1  0
  7  8  1  0
  8  9  1  0
  9 10  1  0
 10 11  1  0
 11 12  1  0
 12 13  1  0
 13 14  1  0
 14 15  1  0
 15 16  2  0
 16 17  1  0
 17 18  2  0
 18 19  1  0
 19 20  2  0
 20 21  1  0
 21 22  2  0
 22 23  1  0
 23 24  1  0
 22 25  1  0
 25 26  2  0
 26 27  1  0
 27 28  2  0
 28 29  1  0
 29 30  2  0
 30 15  1  0
 21 16  1  0
 30 25  1  0
  1 31  1  0
  1 32  1  0
  1 33  1  0
  2 34  1  0
  2 35  1  0
  4 36  1  0
  4 37  1  0
  5 38  1  0
  5 39  1  0
  5 40  1  0
  6 41  1  0
  6 42  1  0
  7 43  1  0
  7 44  1  0
  9 45  1  0
  9 46  1  0
 10 47  1  0
 10 48  1  0
 12 49  1  0
 12 50  1  0
 13 51  1  0
 13 52  1  0
 14 53  1  0
 17 54  1  0
 18 55  1  0
 19 56  1  0
 20 57  1  0
 23 58  1  0
 23 59  1  0
 24 60  1  0
 24 61  1  0
 24 62  1  0
 26 63  1  0
 27 64  1  0
 28 65  1  0
 29 66  1  0
M  CHG  1  22   1
M  END
>  <UniqueID>  (13) 
13

>  <SMILES>  (13) 
CCN(CC)CCOCCOCCNc1c2ccccc2[n+](CC)c2ccccc12

>  <Energy>  (13) 
94.01679837228346

>  <Genealogy>  (13) 
CCN(CC)CCOCCOCCNc1c2ccccc2[n+](CC)c2ccccc12 (3D coordinates assigned)
CCN(CC)CCOCCOCCNc1c2ccccc2[n+](CC)c2ccccc12 (optimized conformer: 94.01679837228346 kcal/mol)

>  <smiles>  (13) 
CCN(CC)CCOCCOCCNc1c2ccccc2[n+](CC)c2ccccc12

>  <score_type>  (13) 
oracle

>  <origin>  (13) 
adg

>  <m_score__min__energy>  (13) 
-6.6900000000000004

>  <m_primary>  (13) 
energy

$$$$
13:0
     RDKit          3D

 57 59  0  0  0  0  0  0  0  0999 V2000
   63.3890   33.8560   46.3900 C   0  0  0  0  0  0  0  0  0  0  0  0
   61.9740   33.6100   46.9070 C   0  0  0  0  0  0  0  0  0  0  0  0
   62.0190   33.0790   48.2870 N   0  0  0  0  0  0  0  0  0  0  0  0
   62.7910   31.8240   48.3330 C   0  0  0  0  0  0  0  0  0  0  0  0
   62.5680   34.0720   49.2420 C   0  0  0  0  0  0  0  0  0  0  0  0
   62.0380   33.7930   50.6480 C   0  0  0  0  0  0  0  0  0  0  0  0
   60.6320   33.6810   50.6150 O   0  0  0  0  0  0  0  0  0  0  0  0
   60.1630   32.9460   51.7310 C   0  0  0  0  0  0  0  0  0  0  0  0
   59.0060   32.0320   51.3020 C   0  0  0  0  0  0  0  0  0  0  0  0
   58.5130   32.3280   49.8690 C   0  0  0  0  0  0  0  0  0  0  0  0
   59.5880   32.3330   48.8500 N   0  0  0  0  0  0  0  0  0  0  0  0
   59.2690   31.5430   47.6650 C   0  0  0  0  0  0  0  0  0  0  0  0
   59.5060   30.1360   47.6180 C   0  0  0  0  0  0  0  0  0  0  0  0
   60.0640   29.4200   48.7100 C   0  0  0  0  0  0  0  0  0  0  0  0
   60.3710   28.0670   48.6070 C   0  0  0  0  0  0  0  0  0  0  0  0
   60.1420   27.3870   47.4220 C   0  0  0  0  0  0  0  0  0  0  0  0
   59.5720   28.0480   46.3440 C   0  0  0  0  0  0  0  0  0  0  0  0
   59.1950   29.4130   46.4280 C   0  0  0  0  0  0  0  0  0  0  0  0
   58.5520   30.0370   45.3790 N   0  0  0  0  0  0  0  0  0  0  0  0
   57.9270   29.2280   44.3050 C   0  0  0  0  0  0  0  0  0  0  0  0
   58.4480   31.4110   45.3440 C   0  0  0  0  0  0  0  0  0  0  0  0
   58.0320   32.0860   44.1650 C   0  0  0  0  0  0  0  0  0  0  0  0
   57.8580   33.4670   44.1440 C   0  0  0  0  0  0  0  0  0  0  0  0
   58.0910   34.2110   45.2880 C   0  0  0  0  0  0  0  0  0  0  0  0
   58.5280   33.5850   46.4510 C   0  0  0  0  0  0  0  0  0  0  0  0
   58.7540   32.1850   46.4980 C   0  0  0  0  0  0  0  0  0  0  0  0
   64.0750   33.9753   47.2416 H   0  0  0  0  0  0  0  0  0  0  0  0
   63.7097   33.0001   45.7779 H   0  0  0  0  0  0  0  0  0  0  0  0
   63.4020   34.7699   45.7779 H   0  0  0  0  0  0  0  0  0  0  0  0
   61.4150   34.5573   46.9003 H   0  0  0  0  0  0  0  0  0  0  0  0
   61.4768   32.8757   46.2561 H   0  0  0  0  0  0  0  0  0  0  0  0
   62.9661   31.5394   49.3810 H   0  0  0  0  0  0  0  0  0  0  0  0
   62.2265   31.0275   47.8261 H   0  0  0  0  0  0  0  0  0  0  0  0
   63.7565   31.9686   47.8261 H   0  0  0  0  0  0  0  0  0  0  0  0
   63.6659   34.0048   49.2465 H   0  0  0  0  0  0  0  0  0  0  0  0
   62.2574   35.0808   48.9325 H   0  0  0  0  0  0  0  0  0  0  0  0
   62.4706   32.8531   51.0215 H   0  0  0  0  0  0  0  0  0  0  0  0
   62.3209   34.6215   51.3139 H   0  0  0  0  0  0  0  0  0  0  0  0
   60.9821   32.3331   52.1352 H   0  0  0  0  0  0  0  0  0  0  0  0
   59.8075   33.6444   52.5029 H   0  0  0  0  0  0  0  0  0  0  0  0
   59.3471   30.9872   51.3481 H   0  0  0  0  0  0  0  0  0  0  0  0
   58.1655   32.2159   51.9873 H   0  0  0  0  0  0  0  0  0  0  0  0
   57.7768   31.5594   49.5910 H   0  0  0  0  0  0  0  0  0  0  0  0
   58.0840   33.3408   49.8834 H   0  0  0  0  0  0  0  0  0  0  0  0
   60.4640   31.9570   49.2780 H   0  0  0  0  0  0  0  0  0  0  0  0
   59.8640   33.3110   48.6370 H   0  0  0  0  0  0  0  0  0  0  0  0
   60.2574   29.9459   49.6566 H   0  0  0  0  0  0  0  0  0  0  0  0
   60.7974   27.5349   49.4702 H   0  0  0  0  0  0  0  0  0  0  0  0
   60.4119   26.3241   47.3361 H   0  0  0  0  0  0  0  0  0  0  0  0
   59.4087   27.5018   45.4033 H   0  0  0  0  0  0  0  0  0  0  0  0
   57.3132   28.4335   44.7544 H   0  0  0  0  0  0  0  0  0  0  0  0
   57.2913   29.8743   43.6819 H   0  0  0  0  0  0  0  0  0  0  0  0
   58.7128   28.7761   43.6819 H   0  0  0  0  0  0  0  0  0  0  0  0
   57.8435   31.5054   43.2499 H   0  0  0  0  0  0  0  0  0  0  0  0
   57.5355   33.9669   43.2188 H   0  0  0  0  0  0  0  0  0  0  0  0
   57.9303   35.2991   45.2774 H   0  0  0  0  0  0  0  0  0  0  0  0
   58.7021   34.1886   47.3539 H   0  0  0  0  0  0  0  0  0  0  0  0
  1  2  1  0
  2  3  1  0
  3  4  1  0
  3  5  1  0
  5  6  1  0
  6  7  1  0
  7  8  1  0
  8  9  1  0
  9 10  1  0
 10 11  1  0
 11 12  1  0
 12 13  2  0
 13 14  1  0
 14 15  2  0
 15 16  1  0
 16 17  2  0
 17 18  1  0
 18 19  2  0
 19 20  1  0
 19 21  1  0
 21 22  2  0
 22 23  1  0
 23 24  2  0
 24 25  1  0
 25 26  2  0
 26 12  1  0
 18 13  1  0
 26 21  1  0
  1 27  1  0
  1 28  1  0
  1 29  1  0
  2 30  1  0
  2 31  1  0
  4 32  1  0
  4 33  1  0
  4 34  1  0
  5 35  1  0
  5 36  1  0
  6 37  1  0
  6 38  1  0
  8 39  1  0
  8 40  1  0
  9 41  1  0
  9 42  1  0
 10 43  1  0
 10 44  1  0
 11 45  1  0
 11 46  1  0
 14 47  1  0
 15 48  1  0
 16 49  1  0
 17 50  1  0
 20 51  1  0
 20 52  1  0
 20 53  1  0
 22 54  1  0
 23 55  1  0
 24 56  1  0
 25 57  1  0
M  CHG  2  11   1  19   1
M  END
>  <UniqueID>  (14) 
14

>  <SMILES>  (14) 
CCN(C)CCOCCC[NH2+]c1c2ccccc2[n+](C)c2ccccc12

>  <Energy>  (14) 
86.53698270822252

>  <Genealogy>  (14) 
CCN(C)CCOCCC[NH2+]c1c2ccccc2[n+](C)c2ccccc12 (protonated)
CCN(C)CCOCCC[NH2+]c1c2ccccc2[n+](C)c2ccccc12 (3D coordinates assigned)
CCN(C)CCOCCC[NH2+]c1c2ccccc2[n+](C)c2ccccc12 (optimized conformer: 86.53698270822252 kcal/mol)

>  <smiles>  (14) 
CCN(C)CCOCCCNc1c2ccccc2[n+](C)c2ccccc12

>  <score_type>  (14) 
oracle

>  <origin>  (14) 
adg

>  <m_score__min__energy>  (14) 
-3.4700000000000002

>  <m_primary>  (14) 
energy

$$$$
14:0
     RDKit          3D

 39 41  0  0  0  0  0  0  0  0999 V2000
   59.7772   35.2249   47.7813 H   0  0  0  0  0  0  0  0  0  0  0  0
   59.3860   34.6340   46.9400 C   0  0  0  0  0  0  0  0  0  0  0  0
   59.6410   35.0480   45.6120 C   0  0  0  0  0  0  0  0  0  0  0  0
   60.2291   35.9591   45.4275 H   0  0  0  0  0  0  0  0  0  0  0  0
   59.1480   34.3030   44.5250 C   0  0  0  0  0  0  0  0  0  0  0  0
   59.3347   34.6165   43.4873 H   0  0  0  0  0  0  0  0  0  0  0  0
   58.4130   33.1510   44.8120 C   0  0  0  0  0  0  0  0  0  0  0  0
   58.1620   32.7540   46.0960 C   0  0  0  0  0  0  0  0  0  0  0  0
   57.4090   31.6380   46.1100 N   0  0  0  0  0  0  0  0  0  0  0  0
   57.2230   31.3880   44.7850 C   0  0  0  0  0  0  0  0  0  0  0  0
   56.5160   30.3920   44.3380 N   0  0  0  0  0  0  0  0  0  0  0  0
   56.6490   29.0080   44.7940 C   0  0  0  0  0  0  0  0  0  0  0  0
   56.7106   28.9958   45.8922 H   0  0  0  0  0  0  0  0  0  0  0  0
   55.7716   28.4406   44.4500 H   0  0  0  0  0  0  0  0  0  0  0  0
   57.9100   28.3550   44.2140 C   0  0  0  0  0  0  0  0  0  0  0  0
   57.6407   27.3885   43.7630 H   0  0  0  0  0  0  0  0  0  0  0  0
   58.3371   29.0264   43.4545 H   0  0  0  0  0  0  0  0  0  0  0  0
   58.9200   28.1320   45.2710 N   0  0  0  0  0  0  0  0  0  0  0  0
   58.3310   28.3390   46.6130 C   0  0  0  0  0  0  0  0  0  0  0  0
   57.7053   29.2435   46.5953 H   0  0  0  0  0  0  0  0  0  0  0  0
   57.7267   27.4565   46.8698 H   0  0  0  0  0  0  0  0  0  0  0  0
   59.4250   28.5070   47.6750 C   0  0  0  0  0  0  0  0  0  0  0  0
   58.9471   28.6354   48.6574 H   0  0  0  0  0  0  0  0  0  0  0  0
   60.0583   27.6080   47.6496 H   0  0  0  0  0  0  0  0  0  0  0  0
   60.2890   29.6740   47.4120 N   0  0  0  0  0  0  0  0  0  0  0  0
   59.9520   30.4790   47.9920 H   0  0  0  0  0  0  0  0  0  0  0  0
   60.2960   30.1060   46.0030 C   0  0  0  0  0  0  0  0  0  0  0  0
   59.4532   30.7929   45.8365 H   0  0  0  0  0  0  0  0  0  0  0  0
   61.2559   30.6040   45.8016 H   0  0  0  0  0  0  0  0  0  0  0  0
   60.1640   28.9140   45.0430 C   0  0  0  0  0  0  0  0  0  0  0  0
   60.1581   29.2923   44.0101 H   0  0  0  0  0  0  0  0  0  0  0  0
   61.0171   28.2437   45.2244 H   0  0  0  0  0  0  0  0  0  0  0  0
   57.8350   32.2820   43.9680 N   0  0  0  0  0  0  0  0  0  0  0  0
   57.7660   32.3630   42.5100 C   0  0  0  0  0  0  0  0  0  0  0  0
   57.0779   33.1707   42.2198 H   0  0  0  0  0  0  0  0  0  0  0  0
   58.7678   32.5721   42.1066 H   0  0  0  0  0  0  0  0  0  0  0  0
   57.4004   31.4072   42.1066 H   0  0  0  0  0  0  0  0  0  0  0  0
   58.6350   33.4710   47.1920 C   0  0  0  0  0  0  0  0  0  0  0  0
   58.4285   33.1394   48.2203 H   0  0  0  0  0  0  0  0  0  0  0  0
  1  2  1  0
  2  3  2  0
  3  4  1  0
  3  5  1  0
  5  6  1  0
  5  7  2  0
  7  8  1  0
  8  9  1  0
  9 10  1  0
 10 11  2  0
 11 12  1  0
 12 13  1  0
 12 14  1  0
 12 15  1  0
 15 16  1  0
 15 17  1  0
 15 18  1  0
 18 19  1  0
 19 20  1  0
 19 21  1  0
 19 22  1  0
 22 23  1  0
 22 24  1  0
 22 25  1  0
 25 26  1  0
 25 27  1  0
 27 28  1  0
 27 29  1  0
 27 30  1  0
 30 31  1  0
 30 32  1  0
 10 33  1  0
 33 34  1  0
 34 35  1  0
 34 36  1  0
 34 37  1  0
  8 38  2  0
 38 39  1  0
 38  2  1  0
 33  7  1  0
 30 18  1  0
M  CHG  1   9  -1
M  END
>  <UniqueID>  (15) 
15

>  <SMILES>  (15) 
Cn1/c(=N/CCN2CCNCC2)[n-]c2ccccc21

>  <Energy>  (15) 
86.09168371209402

>  <Genealogy>  (15) 
Cn1c(=NCCN2CCNCC2)[n-]c2ccccc21 (protonated)
Cn1/c(=N/CCN2CCNCC2)[n-]c2ccccc21 (cis-trans isomerization)
Cn1/c(=N/CCN2CCNCC2)[n-]c2ccccc21 (3D coordinates assigned)
Cn1/c(=N/CCN2CCNCC2)[n-]c2ccccc21 (nonaromatic ring conformer: 86.09168371209402 kcal/mol)

>  <smiles>  (15) 
Cn1c(=NCCN2CCNCC2)[nH]c2ccccc21

>  <score_type>  (15) 
oracle

>  <origin>  (15) 
adg

>  <m_score__min__energy>  (15) 
-8.4000000000000004

>  <m_primary>  (15) 
energy

$$$$
15:0
     RDKit          3D

 26 27  0  0  0  0  0  0  0  0999 V2000
   62.6710   33.8110   47.1000 C   0  0  0  0  0  0  0  0  0  0  0  0
   61.5350   33.7110   46.7080 C   0  0  0  0  0  0  0  0  0  0  0  0
   60.1780   33.5930   46.2410 C   0  0  0  0  0  0  0  0  0  0  0  0
   59.5220   34.6980   45.6890 C   0  0  0  0  0  0  0  0  0  0  0  0
   58.2410   34.5790   45.2530 N   0  0  0  0  0  0  0  0  0  0  0  0
   57.5640   33.4030   45.3340 C   0  0  0  0  0  0  0  0  0  0  0  0
   58.1760   32.2680   45.8720 C   0  0  0  0  0  0  0  0  0  0  0  0
   57.4340   31.0760   45.9350 O   0  0  0  0  0  0  0  0  0  0  0  0
   57.9380   29.7710   45.6490 C   0  0  0  0  0  0  0  0  0  0  0  0
   56.9900   29.0190   44.6920 C   0  0  2  0  0  0  0  0  0  0  0  0
   56.9530   29.5950   43.2860 C   0  0  0  0  0  0  0  0  0  0  0  0
   55.4880   29.8580   43.5790 C   0  0  0  0  0  0  0  0  0  0  0  0
   55.5710   29.3050   44.9320 N   0  0  0  0  0  0  0  0  0  0  0  0
   59.5010   32.3730   46.3350 C   0  0  0  0  0  0  0  0  0  0  0  0
   63.7073   33.9022   47.4576 H   0  0  0  0  0  0  0  0  0  0  0  0
   60.0433   35.6632   45.6079 H   0  0  0  0  0  0  0  0  0  0  0  0
   56.5265   33.3445   44.9733 H   0  0  0  0  0  0  0  0  0  0  0  0
   58.9285   29.8612   45.1792 H   0  0  0  0  0  0  0  0  0  0  0  0
   58.0124   29.2061   46.5899 H   0  0  0  0  0  0  0  0  0  0  0  0
   57.3553   27.9905   44.8288 H   0  0  0  0  0  0  0  0  0  0  0  0
   57.5687   30.4933   43.1311 H   0  0  0  0  0  0  0  0  0  0  0  0
   57.2988   29.0415   42.4005 H   0  0  0  0  0  0  0  0  0  0  0  0
   55.2247   30.9258   43.5601 H   0  0  0  0  0  0  0  0  0  0  0  0
   54.7322   29.4529   42.8900 H   0  0  0  0  0  0  0  0  0  0  0  0
   55.4570   30.0910   45.6160 H   0  0  0  0  0  0  0  0  0  0  0  0
   60.0034   31.4965   46.7702 H   0  0  0  0  0  0  0  0  0  0  0  0
  1  2  3  0
  2  3  1  0
  3  4  2  0
  4  5  1  0
  5  6  2  0
  6  7  1  0
  7  8  1  0
  8  9  1  0
  9 10  1  0
 10 11  1  0
 11 12  1  0
 12 13  1  0
  7 14  2  0
 14  3  1  0
 13 10  1  0
  1 15  1  0
  4 16  1  0
  6 17  1  0
  9 18  1  0
  9 19  1  0
 10 20  1  6
 11 21  1  0
 11 22  1  0
 12 23  1  0
 12 24  1  0
 13 25  1  0
 14 26  1  0
M  END
>  <UniqueID>  (16) 
16

>  <SMILES>  (16) 
C#Cc1cncc(OC[C@@H]2CCN2)c1

>  <Energy>  (16) 
90.23579360927593

>  <Genealogy>  (16) 
C#Cc1cncc(OC[C@@H]2CCN2)c1 (chirality)
C#Cc1cncc(OC[C@@H]2CCN2)c1 (3D coordinates assigned)
C#Cc1cncc(OC[C@@H]2CCN2)c1 (nonaromatic ring conformer: 90.23579360927593 kcal/mol)

>  <smiles>  (16) 
C#Cc1cncc(OCC2CCN2)c1

>  <score_type>  (16) 
oracle

>  <origin>  (16) 
adg

>  <m_score__min__energy>  (16) 
-5.9699999999999998

>  <m_primary>  (16) 
energy

$$$$
16:0
     RDKit          3D

 53 55  0  0  0  0  0  0  0  0999 V2000
   63.3390   33.8880   46.3130 C   0  0  0  0  0  0  0  0  0  0  0  0
   64.0140   33.0070   47.3530 C   0  0  0  0  0  0  0  0  0  0  0  0
   63.4290   31.7220   47.3180 O   0  0  0  0  0  0  0  0  0  0  0  0
   62.5250   31.5830   48.3950 C   0  0  0  0  0  0  0  0  0  0  0  0
   61.2820   32.3240   48.0860 N   0  0  0  0  0  0  0  0  0  0  0  0
   61.0590   33.5630   48.6580 C   0  0  0  0  0  0  0  0  0  0  0  0
   61.9970   34.1590   49.6830 C   0  0  0  0  0  0  0  0  0  0  0  0
   59.9490   34.3260   48.2780 C   0  0  0  0  0  0  0  0  0  0  0  0
   59.0260   33.8230   47.3750 C   0  0  0  0  0  0  0  0  0  0  0  0
   58.0390   34.5360   47.0440 O   0  0  0  0  0  0  0  0  0  0  0  0
   59.1910   32.5310   46.8590 C   0  0  0  0  0  0  0  0  0  0  0  0
   58.2390   31.9840   45.9760 C   0  0  0  0  0  0  0  0  0  0  0  0
   58.3790   30.6800   45.4950 C   0  0  0  0  0  0  0  0  0  0  0  0
   57.1660   29.9990   44.4070 S   0  0  0  0  0  0  0  0  0  0  0  0
   57.4760   30.4200   42.9980 O   0  0  0  0  0  0  0  0  0  0  0  0
   55.8160   30.5540   44.7670 O   0  0  0  0  0  0  0  0  0  0  0  0
   57.1250   28.2510   44.5030 N   0  0  0  0  0  0  0  0  0  0  0  0
   58.1860   27.6970   43.6310 C   0  0  0  0  0  0  0  0  0  0  0  0
   57.8280   26.3600   42.9460 C   0  0  0  0  0  0  0  0  0  0  0  0
   57.6840   25.1630   43.9020 C   0  0  0  0  0  0  0  0  0  0  0  0
   58.0860   25.4320   45.3750 C   0  0  0  0  0  0  0  0  0  0  0  0
   57.1180   26.3190   46.1750 C   0  0  0  0  0  0  0  0  0  0  0  0
   57.2540   27.8400   45.9200 C   0  0  0  0  0  0  0  0  0  0  0  0
   59.4710   29.9110   45.8990 C   0  0  0  0  0  0  0  0  0  0  0  0
   60.4290   30.4400   46.7640 C   0  0  0  0  0  0  0  0  0  0  0  0
   60.3260   31.7690   47.2460 C   0  0  0  0  0  0  0  0  0  0  0  0
   62.7450   34.6633   46.8191 H   0  0  0  0  0  0  0  0  0  0  0  0
   64.1049   34.3652   45.6839 H   0  0  0  0  0  0  0  0  0  0  0  0
   62.6790   33.2727   45.6839 H   0  0  0  0  0  0  0  0  0  0  0  0
   65.0881   32.9292   47.1290 H   0  0  0  0  0  0  0  0  0  0  0  0
   63.8841   33.4469   48.3528 H   0  0  0  0  0  0  0  0  0  0  0  0
   62.2913   30.5185   48.5440 H   0  0  0  0  0  0  0  0  0  0  0  0
   62.9780   31.9876   49.3121 H   0  0  0  0  0  0  0  0  0  0  0  0
   61.6310   33.9265   50.6939 H   0  0  0  0  0  0  0  0  0  0  0  0
   63.0029   33.7340   49.5504 H   0  0  0  0  0  0  0  0  0  0  0  0
   62.0396   35.2502   49.5504 H   0  0  0  0  0  0  0  0  0  0  0  0
   59.8082   35.3324   48.6992 H   0  0  0  0  0  0  0  0  0  0  0  0
   57.3764   32.5902   45.6621 H   0  0  0  0  0  0  0  0  0  0  0  0
   56.1850   27.9880   44.1330 H   0  0  0  0  0  0  0  0  0  0  0  0
   58.4046   28.4360   42.8461 H   0  0  0  0  0  0  0  0  0  0  0  0
   59.0469   27.4901   44.2837 H   0  0  0  0  0  0  0  0  0  0  0  0
   56.8728   26.4918   42.4166 H   0  0  0  0  0  0  0  0  0  0  0  0
   58.6668   26.1214   42.2755 H   0  0  0  0  0  0  0  0  0  0  0  0
   56.6309   24.8454   43.8909 H   0  0  0  0  0  0  0  0  0  0  0  0
   58.3825   24.3972   43.5338 H   0  0  0  0  0  0  0  0  0  0  0  0
   58.1595   24.4620   45.8885 H   0  0  0  0  0  0  0  0  0  0  0  0
   59.0360   25.9848   45.3321 H   0  0  0  0  0  0  0  0  0  0  0  0
   56.0911   26.0211   45.9167 H   0  0  0  0  0  0  0  0  0  0  0  0
   57.3671   26.1638   47.2351 H   0  0  0  0  0  0  0  0  0  0  0  0
   56.4712   28.3541   46.4970 H   0  0  0  0  0  0  0  0  0  0  0  0
   58.2741   28.1133   46.2278 H   0  0  0  0  0  0  0  0  0  0  0  0
   59.5773   28.8793   45.5324 H   0  0  0  0  0  0  0  0  0  0  0  0
   61.2785   29.8154   47.0773 H   0  0  0  0  0  0  0  0  0  0  0  0
  1  2  1  0
  2  3  1  0
  3  4  1  0
  4  5  1  0
  5  6  1  0
  6  7  1  0
  6  8  2  0
  8  9  1  0
  9 10  2  0
  9 11  1  0
 11 12  2  0
 12 13  1  0
 13 14  1  0
 14 15  2  0
 14 16  2  0
 14 17  1  0
 17 18  1  0
 18 19  1  0
 19 20  1  0
 20 21  1  0
 21 22  1  0
 22 23  1  0
 13 24  2  0
 24 25  1  0
 25 26  2  0
 26  5  1  0
 26 11  1  0
 23 17  1  0
  1 27  1  0
  1 28  1  0
  1 29  1  0
  2 30  1  0
  2 31  1  0
  4 32  1  0
  4 33  1  0
  7 34  1  0
  7 35  1  0
  7 36  1  0
  8 37  1  0
 12 38  1  0
 17 39  1  0
 18 40  1  0
 18 41  1  0
 19 42  1  0
 19 43  1  0
 20 44  1  0
 20 45  1  0
 21 46  1  0
 21 47  1  0
 22 48  1  0
 22 49  1  0
 23 50  1  0
 23 51  1  0
 24 52  1  0
 25 53  1  0
M  CHG  1  17   1
M  END
>  <UniqueID>  (17) 
17

>  <SMILES>  (17) 
CCOCn1c(C)cc(=O)c2cc(S(=O)(=O)[NH+]3CCCCCC3)ccc21

>  <Energy>  (17) 
74.93318506472184

>  <Genealogy>  (17) 
CCOCn1c(C)cc(=O)c2cc(S(=O)(=O)[NH+]3CCCCCC3)ccc21 (protonated)
CCOCn1c(C)cc(=O)c2cc(S(=O)(=O)[NH+]3CCCCCC3)ccc21 (3D coordinates assigned)
CCOCn1c(C)cc(=O)c2cc(S(=O)(=O)[NH+]3CCCCCC3)ccc21 (nonaromatic ring conformer: 74.93318506472184 kcal/mol)

>  <smiles>  (17) 
CCOCn1c(C)cc(=O)c2cc(S(=O)(=O)N3CCCCCC3)ccc21

>  <score_type>  (17) 
oracle

>  <origin>  (17) 
adg

>  <m_score__min__energy>  (17) 
-5.29

>  <m_primary>  (17) 
energy

$$$$
17:0
     RDKit          3D

 31 32  0  0  0  0  0  0  0  0999 V2000
   63.3950   32.7680   47.1280 C   0  0  0  0  0  0  0  0  0  0  0  0
   62.4800   33.7210   47.3250 C   0  0  0  0  0  0  0  0  0  0  0  0
   61.2780   33.8520   46.4370 C   0  0  0  0  0  0  0  0  0  0  0  0
   59.7510   33.7160   47.4240 S   0  0  0  0  0  0  0  0  0  0  0  0
   59.1530   32.2810   46.5150 C   0  0  0  0  0  0  0  0  0  0  0  0
   59.9360   31.1720   46.5180 N   0  0  0  0  0  0  0  0  0  0  0  0
   59.5700   30.0380   45.8770 C   0  0  0  0  0  0  0  0  0  0  0  0
   60.4090   28.9180   45.9010 C   0  0  0  0  0  0  0  0  0  0  0  0
   60.0290   27.7450   45.2430 C   0  0  0  0  0  0  0  0  0  0  0  0
   58.8090   27.6880   44.5620 C   0  0  0  0  0  0  0  0  0  0  0  0
   57.9650   28.8030   44.5360 C   0  0  0  0  0  0  0  0  0  0  0  0
   58.3430   29.9890   45.1940 C   0  0  0  0  0  0  0  0  0  0  0  0
   57.5320   31.1370   45.2020 C   0  0  0  0  0  0  0  0  0  0  0  0
   56.4130   31.1110   44.6130 O   0  0  0  0  0  0  0  0  0  0  0  0
   57.9480   32.2780   45.8470 N   0  0  0  0  0  0  0  0  0  0  0  0
   57.0670   33.4650   45.8710 C   0  0  0  0  0  0  0  0  0  0  0  0
   57.5500   34.5110   44.8710 C   0  0  0  0  0  0  0  0  0  0  0  0
   64.2665   32.6959   47.7953 H   0  0  0  0  0  0  0  0  0  0  0  0
   63.2770   32.0553   46.2985 H   0  0  0  0  0  0  0  0  0  0  0  0
   62.6110   34.4268   48.1585 H   0  0  0  0  0  0  0  0  0  0  0  0
   61.3011   34.8309   45.9357 H   0  0  0  0  0  0  0  0  0  0  0  0
   61.2949   33.0469   45.6876 H   0  0  0  0  0  0  0  0  0  0  0  0
   61.3680   28.9610   46.4381 H   0  0  0  0  0  0  0  0  0  0  0  0
   60.6901   26.8660   45.2608 H   0  0  0  0  0  0  0  0  0  0  0  0
   58.5122   26.7634   44.0452 H   0  0  0  0  0  0  0  0  0  0  0  0
   57.0051   28.7533   44.0010 H   0  0  0  0  0  0  0  0  0  0  0  0
   56.0428   33.1606   45.6097 H   0  0  0  0  0  0  0  0  0  0  0  0
   57.0877   33.9023   46.8801 H   0  0  0  0  0  0  0  0  0  0  0  0
   57.9511   35.3796   45.4139 H   0  0  0  0  0  0  0  0  0  0  0  0
   58.3390   34.0773   44.2390 H   0  0  0  0  0  0  0  0  0  0  0  0
   56.7082   34.8303   44.2390 H   0  0  0  0  0  0  0  0  0  0  0  0
  1  2  2  0
  2  3  1  0
  3  4  1  0
  4  5  1  0
  5  6  2  0
  6  7  1  0
  7  8  2  0
  8  9  1  0
  9 10  2  0
 10 11  1  0
 11 12  2  0
 12 13  1  0
 13 14  2  0
 13 15  1  0
 15 16  1  0
 16 17  1  0
 15  5  1  0
 12  7  1  0
  1 18  1  0
  1 19  1  0
  2 20  1  0
  3 21  1  0
  3 22  1  0
  8 23  1  0
  9 24  1  0
 10 25  1  0
 11 26  1  0
 16 27  1  0
 16 28  1  0
 17 29  1  0
 17 30  1  0
 17 31  1  0
M  END
>  <UniqueID>  (18) 
18

>  <SMILES>  (18) 
C=CCSc1nc2ccccc2c(=O)n1CC

>  <Energy>  (18) 
29.87413159533315

>  <Genealogy>  (18) 
C=CCSc1nc2ccccc2c(=O)n1CC (3D coordinates assigned)
C=CCSc1nc2ccccc2c(=O)n1CC (optimized conformer: 29.87413159533315 kcal/mol)

>  <smiles>  (18) 
C=CCSc1nc2ccccc2c(=O)n1CC

>  <score_type>  (18) 
oracle

>  <origin>  (18) 
adg

>  <m_score__min__energy>  (18) 
-6.2699999999999996

>  <m_primary>  (18) 
energy

$$$$
18:0
     RDKit          3D

 38 39  0  0  0  0  0  0  0  0999 V2000
   58.4200   34.6258   47.5179 H   0  0  0  0  0  0  0  0  0  0  0  0
   58.2320   33.7540   46.8740 C   0  0  0  0  0  0  0  0  0  0  0  0
   57.6270   33.9250   45.6260 C   0  0  0  0  0  0  0  0  0  0  0  0
   57.3383   34.9314   45.2886 H   0  0  0  0  0  0  0  0  0  0  0  0
   57.3880   32.8170   44.8050 C   0  0  0  0  0  0  0  0  0  0  0  0
   56.9115   32.9566   43.8235 H   0  0  0  0  0  0  0  0  0  0  0  0
   57.7540   31.5240   45.2280 C   0  0  0  0  0  0  0  0  0  0  0  0
   57.5070   30.3120   44.3490 C   0  0  1  0  0  0  0  0  0  0  0  0
   58.4749   29.8188   44.1759 H   0  0  0  0  0  0  0  0  0  0  0  0
   56.5890   29.3440   45.0490 C   0  0  0  0  0  0  0  0  0  0  0  0
   55.3410   29.5080   44.9620 O   0  0  0  0  0  0  0  0  0  0  0  0
   57.1360   28.2220   45.7620 N   0  0  0  0  0  0  0  0  0  0  0  0
   56.6610   27.0120   45.7680 C   0  0  0  0  0  0  0  0  0  0  0  0
   55.3670   26.6960   46.0000 N   0  0  0  0  0  0  0  0  0  0  0  0
   55.1360   25.3860   45.9450 N   0  0  0  0  0  0  0  0  0  0  0  0
   56.2440   24.6590   45.6800 C   0  0  0  0  0  0  0  0  0  0  0  0
   56.2350   23.1740   45.5050 C   0  0  0  0  0  0  0  0  0  0  0  0
   55.1948   22.8247   45.4283 H   0  0  0  0  0  0  0  0  0  0  0  0
   56.7273   22.7102   46.3725 H   0  0  0  0  0  0  0  0  0  0  0  0
   56.9940   22.7800   44.2350 C   0  0  0  0  0  0  0  0  0  0  0  0
   57.1035   21.6858   44.2071 H   0  0  0  0  0  0  0  0  0  0  0  0
   57.9798   23.2677   44.2525 H   0  0  0  0  0  0  0  0  0  0  0  0
   56.2500   23.2380   42.9840 C   0  0  0  0  0  0  0  0  0  0  0  0
   55.3472   23.7938   43.2772 H   0  0  0  0  0  0  0  0  0  0  0  0
   56.9041   23.8900   42.3865 H   0  0  0  0  0  0  0  0  0  0  0  0
   55.9624   22.3604   42.3865 H   0  0  0  0  0  0  0  0  0  0  0  0
   57.5960   25.6460   45.4720 S   0  0  0  0  0  0  0  0  0  0  0  0
   56.9600   30.7010   42.9570 C   0  0  0  0  0  0  0  0  0  0  0  0
   56.2288   31.5139   43.0780 H   0  0  0  0  0  0  0  0  0  0  0  0
   57.8108   31.0177   42.3358 H   0  0  0  0  0  0  0  0  0  0  0  0
   56.2780   29.5250   42.2560 C   0  0  0  0  0  0  0  0  0  0  0  0
   55.8761   28.8319   43.0097 H   0  0  0  0  0  0  0  0  0  0  0  0
   55.4568   29.8992   41.6271 H   0  0  0  0  0  0  0  0  0  0  0  0
   57.0107   28.9981   41.6271 H   0  0  0  0  0  0  0  0  0  0  0  0
   58.3610   31.3670   46.4870 C   0  0  0  0  0  0  0  0  0  0  0  0
   58.6515   30.3636   46.8316 H   0  0  0  0  0  0  0  0  0  0  0  0
   58.5980   32.4770   47.3040 C   0  0  0  0  0  0  0  0  0  0  0  0
   59.0735   32.3438   48.2869 H   0  0  0  0  0  0  0  0  0  0  0  0
  1  2  1  0
  2  3  2  0
  3  4  1  0
  3  5  1  0
  5  6  1  0
  5  7  2  0
  7  8  1  0
  8  9  1  6
  8 10  1  0
 10 11  2  0
 10 12  1  0
 12 13  2  0
 13 14  1  0
 14 15  1  0
 15 16  2  0
 16 17  1  0
 17 18  1  0
 17 19  1  0
 17 20  1  0
 20 21  1  0
 20 22  1  0
 20 23  1  0
 23 24  1  0
 23 25  1  0
 23 26  1  0
 16 27  1  0
  8 28  1  0
 28 29  1  0
 28 30  1  0
 28 31  1  0
 31 32  1  0
 31 33  1  0
 31 34  1  0
  7 35  1  0
 35 36  1  0
 35 37  2  0
 37 38  1  0
 37  2  1  0
 27 13  1  0
M  CHG  1  14  -1
M  END
>  <UniqueID>  (19) 
19

>  <SMILES>  (19) 
CCCc1n[n-]/c(=N\C(=O)[C@@H](CC)c2ccccc2)s1

>  <Energy>  (19) 
63.968060541868866

>  <Genealogy>  (19) 
CCCc1n[n-]c(=NC(=O)C(CC)c2ccccc2)s1 (protonated)
CCCc1n[n-]c(=NC(=O)[C@@H](CC)c2ccccc2)s1 (chirality)
CCCc1n[n-]/c(=N\C(=O)[C@@H](CC)c2ccccc2)s1 (cis-trans isomerization)
CCCc1n[n-]/c(=N\C(=O)[C@@H](CC)c2ccccc2)s1 (3D coordinates assigned)
CCCc1n[n-]/c(=N\C(=O)[C@@H](CC)c2ccccc2)s1 (optimized conformer: 63.968060541868866 kcal/mol)

>  <smiles>  (19) 
CCCc1n[nH]c(=NC(=O)C(CC)c2ccccc2)s1

>  <score_type>  (19) 
oracle

>  <origin>  (19) 
adg

>  <m_score__min__energy>  (19) 
-10.31

>  <m_primary>  (19) 
energy

$$$$
19:0
     RDKit          3D

 17 16  0  0  0  0  0  0  0  0999 V2000
   59.4530   28.4760   44.5690 C   0  0  0  0  0  0  0  0  0  0  0  0
   58.5060   27.4810   43.9010 C   0  0  0  0  0  0  0  0  0  0  0  0
   57.4330   28.1820   43.1760 N   0  0  0  0  0  0  0  0  0  0  0  0
   56.9270   29.3490   43.9220 C   0  0  0  0  0  0  0  0  0  0  0  0
   56.6440   30.5480   43.0140 C   0  0  0  0  0  0  0  0  0  0  0  0
   59.3676   28.3863   45.6620 H   0  0  0  0  0  0  0  0  0  0  0  0
   60.4873   28.2599   44.2630 H   0  0  0  0  0  0  0  0  0  0  0  0
   59.1861   29.4983   44.2630 H   0  0  0  0  0  0  0  0  0  0  0  0
   59.0754   26.8625   43.1916 H   0  0  0  0  0  0  0  0  0  0  0  0
   58.0508   26.8519   44.6801 H   0  0  0  0  0  0  0  0  0  0  0  0
   56.6470   27.5210   42.9730 H   0  0  0  0  0  0  0  0  0  0  0  0
   57.8140   28.5270   42.2640 H   0  0  0  0  0  0  0  0  0  0  0  0
   55.9945   29.0646   44.4315 H   0  0  0  0  0  0  0  0  0  0  0  0
   57.7047   29.6496   44.6395 H   0  0  0  0  0  0  0  0  0  0  0  0
   56.4349   31.4341   43.6313 H   0  0  0  0  0  0  0  0  0  0  0  0
   57.5210   30.7422   42.3790 H   0  0  0  0  0  0  0  0  0  0  0  0
   55.7727   30.3295   42.3790 H   0  0  0  0  0  0  0  0  0  0  0  0
  1  2  1  0
  2  3  1  0
  3  4  1  0
  4  5  1  0
  1  6  1  0
  1  7  1  0
  1  8  1  0
  2  9  1  0
  2 10  1  0
  3 11  1  0
  3 12  1  0
  4 13  1  0
  4 14  1  0
  5 15  1  0
  5 16  1  0
  5 17  1  0
M  CHG  1   3   1
M  END
>  <UniqueID>  (20) 
20

>  <SMILES>  (20) 
CC[NH2+]CC

>  <Energy>  (20) 
7.6733978031704435

>  <Genealogy>  (20) 
CC[NH2+]CC (protonated)
CC[NH2+]CC (3D coordinates assigned)
CC[NH2+]CC (optimized conformer: 7.6733978031704435 kcal/mol)

>  <smiles>  (20) 
CCNCC

>  <score_type>  (20) 
oracle

>  <origin>  (20) 
adg

>  <m_score__min__energy>  (20) 
-1.29

>  <m_primary>  (20) 
energy

$$$$
20:0
     RDKit          3D

 89 92  0  0  0  0  0  0  0  0999 V2000
   63.4710   33.0540   46.7650 C   0  0  0  0  0  0  0  0  0  0  0  0
   63.2110   33.9730   47.9690 C   0  0  0  0  0  0  0  0  0  0  0  0
   63.3080   33.3080   49.2930 N   0  0  0  0  0  0  0  0  0  0  0  0
   64.1380   32.0890   49.3750 C   0  0  0  0  0  0  0  0  0  0  0  0
   65.4400   32.3690   50.1220 C   0  0  0  0  0  0  0  0  0  0  0  0
   63.4180   34.2140   50.4590 C   0  0  0  0  0  0  0  0  0  0  0  0
   62.6220   33.7710   51.6950 C   0  0  0  0  0  0  0  0  0  0  0  0
   61.9630   32.5410   51.4640 O   0  0  0  0  0  0  0  0  0  0  0  0
   60.5640   32.7050   51.6320 C   0  0  0  0  0  0  0  0  0  0  0  0
   59.8490   32.6480   50.2780 C   0  0  0  0  0  0  0  0  0  0  0  0
   60.7550   32.5010   49.1160 N   0  0  0  0  0  0  0  0  0  0  0  0
   60.1570   31.7610   48.0090 C   0  0  0  0  0  0  0  0  0  0  0  0
   59.4570   32.4880   46.9940 C   0  0  0  0  0  0  0  0  0  0  0  0
   59.2720   33.8960   47.0650 C   0  0  0  0  0  0  0  0  0  0  0  0
   58.6010   34.5930   46.0630 C   0  0  0  0  0  0  0  0  0  0  0  0
   58.0770   33.9140   44.9760 C   0  0  0  0  0  0  0  0  0  0  0  0
   58.2190   32.5350   44.8850 C   0  0  0  0  0  0  0  0  0  0  0  0
   58.9150   31.7970   45.8770 C   0  0  0  0  0  0  0  0  0  0  0  0
   59.0310   30.4320   45.7900 N   0  0  0  0  0  0  0  0  0  0  0  0
   58.7530   29.7460   44.5060 C   0  0  0  0  0  0  0  0  0  0  0  0
   59.4190   29.7000   46.8870 C   0  0  0  0  0  0  0  0  0  0  0  0
   59.1150   28.3220   46.9580 C   0  0  0  0  0  0  0  0  0  0  0  0
   59.5840   27.5340   47.9920 C   0  0  0  0  0  0  0  0  0  0  0  0
   60.4080   28.0810   48.9540 C   0  0  0  0  0  0  0  0  0  0  0  0
   60.7340   29.4510   48.9430 C   0  0  0  0  0  0  0  0  0  0  0  0
   61.7040   29.9180   49.8430 O   0  0  0  0  0  0  0  0  0  0  0  0
   62.0540   29.2980   51.0820 C   0  0  0  0  0  0  0  0  0  0  0  0
   63.4350   29.8140   51.5430 C   0  0  0  0  0  0  0  0  0  0  0  0
   64.1670   28.9410   52.5190 N   0  0  0  0  0  0  0  0  0  0  0  0
   63.5330   29.0380   53.8630 C   0  0  0  0  0  0  0  0  0  0  0  0
   64.0420   27.5220   52.0400 C   0  0  0  0  0  0  0  0  0  0  0  0
   65.2330   26.6430   52.4720 C   0  0  0  0  0  0  0  0  0  0  0  0
   66.5260   27.1180   51.8860 N   0  0  0  0  0  0  0  0  0  0  0  0
   66.7830   26.4120   50.6050 C   0  0  0  0  0  0  0  0  0  0  0  0
   67.6300   26.7830   52.8190 C   0  0  0  0  0  0  0  0  0  0  0  0
   66.5140   28.5940   51.6300 C   0  0  0  0  0  0  0  0  0  0  0  0
   65.6090   29.3490   52.6230 C   0  0  0  0  0  0  0  0  0  0  0  0
   60.1230   30.3210   47.9690 C   0  0  0  0  0  0  0  0  0  0  0  0
   63.7542   32.0529   47.1223 H   0  0  0  0  0  0  0  0  0  0  0  0
   62.5582   32.9811   46.1555 H   0  0  0  0  0  0  0  0  0  0  0  0
   64.2867   33.4701   46.1555 H   0  0  0  0  0  0  0  0  0  0  0  0
   63.9476   34.7895   47.9415 H   0  0  0  0  0  0  0  0  0  0  0  0
   62.1722   34.3218   47.8733 H   0  0  0  0  0  0  0  0  0  0  0  0
   63.5778   31.3064   49.9076 H   0  0  0  0  0  0  0  0  0  0  0  0
   64.3810   31.7585   48.3544 H   0  0  0  0  0  0  0  0  0  0  0  0
   65.2566   32.3296   51.2059 H   0  0  0  0  0  0  0  0  0  0  0  0
   66.1895   31.6115   49.8491 H   0  0  0  0  0  0  0  0  0  0  0  0
   65.8118   33.3676   49.8491 H   0  0  0  0  0  0  0  0  0  0  0  0
   64.4790   34.2815   50.7412 H   0  0  0  0  0  0  0  0  0  0  0  0
   62.9909   35.1776   50.1442 H   0  0  0  0  0  0  0  0  0  0  0  0
   63.3121   33.6547   52.5437 H   0  0  0  0  0  0  0  0  0  0  0  0
   61.8637   34.5371   51.9145 H   0  0  0  0  0  0  0  0  0  0  0  0
   60.1805   31.9012   52.2777 H   0  0  0  0  0  0  0  0  0  0  0  0
   60.3742   33.6857   52.0928 H   0  0  0  0  0  0  0  0  0  0  0  0
   59.1599   31.7906   50.2882 H   0  0  0  0  0  0  0  0  0  0  0  0
   59.3317   33.6109   50.1542 H   0  0  0  0  0  0  0  0  0  0  0  0
   61.1720   33.4130   48.8650 H   0  0  0  0  0  0  0  0  0  0  0  0
   61.6110   31.9900   49.4280 H   0  0  0  0  0  0  0  0  0  0  0  0
   59.6677   34.4472   47.9308 H   0  0  0  0  0  0  0  0  0  0  0  0
   58.4872   35.6847   46.1354 H   0  0  0  0  0  0  0  0  0  0  0  0
   57.5485   34.4662   44.1849 H   0  0  0  0  0  0  0  0  0  0  0  0
   57.7827   32.0042   44.0260 H   0  0  0  0  0  0  0  0  0  0  0  0
   58.3468   28.7436   44.7063 H   0  0  0  0  0  0  0  0  0  0  0  0
   58.0206   30.3300   43.9294 H   0  0  0  0  0  0  0  0  0  0  0  0
   59.6853   29.6553   43.9294 H   0  0  0  0  0  0  0  0  0  0  0  0
   58.4920   27.8669   46.1739 H   0  0  0  0  0  0  0  0  0  0  0  0
   59.3008   26.4725   48.0479 H   0  0  0  0  0  0  0  0  0  0  0  0
   60.8180   27.4350   49.7443 H   0  0  0  0  0  0  0  0  0  0  0  0
   61.2979   29.5445   51.8420 H   0  0  0  0  0  0  0  0  0  0  0  0
   62.0960   28.2071   50.9475 H   0  0  0  0  0  0  0  0  0  0  0  0
   64.0681   29.9266   50.6505 H   0  0  0  0  0  0  0  0  0  0  0  0
   63.2387   30.7566   52.0750 H   0  0  0  0  0  0  0  0  0  0  0  0
   64.3021   28.9203   54.6406 H   0  0  0  0  0  0  0  0  0  0  0  0
   63.0501   30.0205   53.9706 H   0  0  0  0  0  0  0  0  0  0  0  0
   62.7785   28.2448   53.9706 H   0  0  0  0  0  0  0  0  0  0  0  0
   63.1180   27.0909   52.4529 H   0  0  0  0  0  0  0  0  0  0  0  0
   64.0244   27.5420   50.9403 H   0  0  0  0  0  0  0  0  0  0  0  0
   65.3112   26.6661   53.5690 H   0  0  0  0  0  0  0  0  0  0  0  0
   65.0504   25.6219   52.1059 H   0  0  0  0  0  0  0  0  0  0  0  0
   67.1524   25.3971   50.8134 H   0  0  0  0  0  0  0  0  0  0  0  0
   65.8495   26.3508   50.0264 H   0  0  0  0  0  0  0  0  0  0  0  0
   67.5374   26.9652   50.0264 H   0  0  0  0  0  0  0  0  0  0  0  0
   67.2788   26.8896   53.8560 H   0  0  0  0  0  0  0  0  0  0  0  0
   67.9540   25.7461   52.6464 H   0  0  0  0  0  0  0  0  0  0  0  0
   68.4756   27.4650   52.6464 H   0  0  0  0  0  0  0  0  0  0  0  0
   67.5405   28.9782   51.7234 H   0  0  0  0  0  0  0  0  0  0  0  0
   66.1160   28.7583   50.6178 H   0  0  0  0  0  0  0  0  0  0  0  0
   65.9600   29.1437   53.6451 H   0  0  0  0  0  0  0  0  0  0  0  0
   65.6696   30.4200   52.3795 H   0  0  0  0  0  0  0  0  0  0  0  0
  1  2  1  0
  2  3  1  0
  3  4  1  0
  4  5  1  0
  3  6  1  0
  6  7  1  0
  7  8  1  0
  8  9  1  0
  9 10  1  0
 10 11  1  0
 11 12  1  0
 12 13  2  0
 13 14  1  0
 14 15  2  0
 15 16  1  0
 16 17  2  0
 17 18  1  0
 18 19  2  0
 19 20  1  0
 19 21  1  0
 21 22  2  0
 22 23  1  0
 23 24  2  0
 24 25  1  0
 25 26  1  0
 26 27  1  0
 27 28  1  0
 28 29  1  0
 29 30  1  0
 29 31  1  0
 31 32  1  0
 32 33  1  0
 33 34  1  0
 33 35  1  0
 33 36  1  0
 36 37  1  0
 25 38  2  0
 38 12  1  0
 18 13  1  0
 38 21  1  0
 37 29  1  0
  1 39  1  0
  1 40  1  0
  1 41  1  0
  2 42  1  0
  2 43  1  0
  4 44  1  0
  4 45  1  0
  5 46  1  0
  5 47  1  0
  5 48  1  0
  6 49  1  0
  6 50  1  0
  7 51  1  0
  7 52  1  0
  9 53  1  0
  9 54  1  0
 10 55  1  0
 10 56  1  0
 11 57  1  0
 11 58  1  0
 14 59  1  0
 15 60  1  0
 16 61  1  0
 17 62  1  0
 20 63  1  0
 20 64  1  0
 20 65  1  0
 22 66  1  0
 23 67  1  0
 24 68  1  0
 27 69  1  0
 27 70  1  0
 28 71  1  0
 28 72  1  0
 30 73  1  0
 30 74  1  0
 30 75  1  0
 31 76  1  0
 31 77  1  0
 32 78  1  0
 32 79  1  0
 34 80  1  0
 34 81  1  0
 34 82  1  0
 35 83  1  0
 35 84  1  0
 35 85  1  0
 36 86  1  0
 36 87  1  0
 37 88  1  0
 37 89  1  0
M  CHG  4  11   1  19   1  29   1  33   1
M  END
>  <UniqueID>  (21) 
21

>  <SMILES>  (21) 
CCN(CC)CCOCC[NH2+]c1c2ccccc2[n+](C)c2cccc(OCC[N+]3(C)CC[N+](C)(C)CC3)c12

>  <Energy>  (21) 
156.301776624672

>  <Genealogy>  (21) 
CCN(CC)CCOCC[NH2+]c1c2ccccc2[n+](C)c2cccc(OCC[N+]3(C)CC[N+](C)(C)CC3)c12 (protonated)
CCN(CC)CCOCC[NH2+]c1c2ccccc2[n+](C)c2cccc(OCC[N+]3(C)CC[N+](C)(C)CC3)c12 (3D coordinates assigned)
CCN(CC)CCOCC[NH2+]c1c2ccccc2[n+](C)c2cccc(OCC[N+]3(C)CC[N+](C)(C)CC3)c12 (nonaromatic ring conformer: 156.301776624672 kcal/mol)

>  <smiles>  (21) 
CCN(CC)CCOCCNc1c2ccccc2[n+](C)c2cccc(OCC[N+]3(C)CC[N+](C)(C)CC3)c12

>  <score_type>  (21) 
oracle

>  <origin>  (21) 
adg

>  <m_score__min__energy>  (21) 
-2.3399999999999999

>  <m_primary>  (21) 
energy

$$$$
21:0
     RDKit          3D

 44 47  0  0  0  0  0  0  0  0999 V2000
   59.4550   30.0590   47.2600 C   0  0  0  0  0  0  0  0  0  0  0  0
   59.8810   29.4290   46.0180 N   0  0  0  0  0  0  0  0  0  0  0  0
   61.1360   29.2670   45.6380 N   0  0  0  0  0  0  0  0  0  0  0  0
   61.1340   28.5970   44.4970 N   0  0  0  0  0  0  0  0  0  0  0  0
   59.8990   28.2980   44.1200 N   0  0  0  0  0  0  0  0  0  0  0  0
   59.1210   28.8300   45.0840 C   0  0  0  0  0  0  0  0  0  0  0  0
   57.3300   28.6980   45.1250 S   0  0  0  0  0  0  0  0  0  0  0  0
   57.0450   29.8290   43.7130 C   0  0  0  0  0  0  0  0  0  0  0  0
   56.8350   31.2800   44.1610 C   0  0  0  0  0  0  0  0  0  0  0  0
   58.0740   32.1620   43.8810 C   0  0  0  0  0  0  0  0  0  0  0  0
   58.0910   33.4410   44.6290 N   0  0  0  0  0  0  0  0  0  0  0  0
   57.3810   33.3890   45.9200 C   0  0  0  0  0  0  0  0  0  0  0  0
   58.3910   33.5980   47.0400 C   0  0  2  0  0  0  0  0  0  0  0  0
   58.9390   35.0120   47.1900 C   0  0  0  0  0  0  0  0  0  0  0  0
   59.6890   33.9750   46.3650 C   0  0  1  0  0  0  0  0  0  0  0  0
   60.9730   33.4370   46.9450 C   0  0  0  0  0  0  0  0  0  0  0  0
   60.9240   32.6730   48.1210 C   0  0  0  0  0  0  0  0  0  0  0  0
   62.1030   32.2020   48.7080 C   0  0  0  0  0  0  0  0  0  0  0  0
   63.3400   32.5010   48.1300 C   0  0  0  0  0  0  0  0  0  0  0  0
   64.4840   32.0540   48.7060 F   0  0  0  0  0  0  0  0  0  0  0  0
   63.3990   33.2700   46.9640 C   0  0  0  0  0  0  0  0  0  0  0  0
   62.2230   33.7410   46.3750 C   0  0  0  0  0  0  0  0  0  0  0  0
   59.4480   33.9680   44.8650 C   0  0  0  0  0  0  0  0  0  0  0  0
   59.8432   29.4849   48.1143 H   0  0  0  0  0  0  0  0  0  0  0  0
   59.8440   31.0870   47.3019 H   0  0  0  0  0  0  0  0  0  0  0  0
   58.3560   30.0809   47.3019 H   0  0  0  0  0  0  0  0  0  0  0  0
   61.9930   28.3280   43.9690 H   0  0  0  0  0  0  0  0  0  0  0  0
   57.9183   29.7881   43.0455 H   0  0  0  0  0  0  0  0  0  0  0  0
   56.1297   29.5004   43.1989 H   0  0  0  0  0  0  0  0  0  0  0  0
   55.9733   31.6970   43.6191 H   0  0  0  0  0  0  0  0  0  0  0  0
   56.6609   31.2766   45.2471 H   0  0  0  0  0  0  0  0  0  0  0  0
   58.9732   31.5905   44.1546 H   0  0  0  0  0  0  0  0  0  0  0  0
   58.0423   32.4213   42.8125 H   0  0  0  0  0  0  0  0  0  0  0  0
   56.6190   34.1815   45.9558 H   0  0  0  0  0  0  0  0  0  0  0  0
   56.8869   32.4133   46.0375 H   0  0  0  0  0  0  0  0  0  0  0  0
   58.0096   32.8836   47.7844 H   0  0  0  0  0  0  0  0  0  0  0  0
   58.4360   35.8541   46.6921 H   0  0  0  0  0  0  0  0  0  0  0  0
   59.1906   35.6662   48.0378 H   0  0  0  0  0  0  0  0  0  0  0  0
   59.9529   32.4432   48.5838 H   0  0  0  0  0  0  0  0  0  0  0  0
   62.0567   31.5960   49.6249 H   0  0  0  0  0  0  0  0  0  0  0  0
   64.3729   33.5046   46.5096 H   0  0  0  0  0  0  0  0  0  0  0  0
   62.2745   34.3521   45.4618 H   0  0  0  0  0  0  0  0  0  0  0  0
   59.5263   34.9911   44.4686 H   0  0  0  0  0  0  0  0  0  0  0  0
   60.1970   33.3416   44.3584 H   0  0  0  0  0  0  0  0  0  0  0  0
  1  2  1  0
  2  3  1  0
  3  4  2  0
  4  5  1  0
  5  6  2  0
  6  7  1  0
  7  8  1  0
  8  9  1  0
  9 10  1  0
 10 11  1  0
 11 12  1  0
 12 13  1  0
 13 14  1  0
 14 15  1  0
 15 16  1  6
 16 17  2  0
 17 18  1  0
 18 19  2  0
 19 20  1  0
 19 21  1  0
 21 22  2  0
 15 23  1  0
  6  2  1  0
 23 11  1  0
 15 13  1  0
 22 16  1  0
  1 24  1  0
  1 25  1  0
  1 26  1  0
  4 27  1  0
  8 28  1  0
  8 29  1  0
  9 30  1  0
  9 31  1  0
 10 32  1  0
 10 33  1  0
 12 34  1  0
 12 35  1  0
 13 36  1  1
 14 37  1  0
 14 38  1  0
 17 39  1  0
 18 40  1  0
 21 41  1  0
 22 42  1  0
 23 43  1  0
 23 44  1  0
M  CHG  1   4   1
M  END
>  <UniqueID>  (22) 
22

>  <SMILES>  (22) 
Cn1n[nH+]nc1SCCCN1C[C@@H]2C[C@]2(c2ccc(F)cc2)C1

>  <Energy>  (22) 
352.5001604774632

>  <Genealogy>  (22) 
Cn1n[nH+]nc1SCCCN1CC2CC2(c2ccc(F)cc2)C1 (protonated)
Cn1n[nH+]nc1SCCCN1C[C@@H]2C[C@]2(c2ccc(F)cc2)C1 (chirality)
Cn1n[nH+]nc1SCCCN1C[C@@H]2C[C@]2(c2ccc(F)cc2)C1 (3D coordinates assigned)
Cn1n[nH+]nc1SCCCN1C[C@@H]2C[C@]2(c2ccc(F)cc2)C1 (nonaromatic ring conformer: 352.5001604774632 kcal/mol)

>  <smiles>  (22) 
Cn1nnnc1SCCCN1CC2CC2(c2ccc(F)cc2)C1

>  <score_type>  (22) 
oracle

>  <origin>  (22) 
adg

>  <m_score__min__energy>  (22) 
-7.4299999999999997

>  <m_primary>  (22) 
energy

$$$$
22:0
     RDKit          3D

 39 39  0  0  0  0  0  0  0  0999 V2000
   59.7870   30.0210   46.1990 C   0  0  0  0  0  0  0  0  0  0  0  0
   59.5710   29.2560   44.8840 C   0  0  0  0  0  0  0  0  0  0  0  0
   58.2940   28.5050   44.8050 N   0  0  0  0  0  0  0  0  0  0  0  0
   57.7250   28.1130   46.1160 C   0  0  0  0  0  0  0  0  0  0  0  0
   57.0370   26.7450   46.1250 C   0  0  0  0  0  0  0  0  0  0  0  0
   57.3240   29.0300   43.8190 C   0  0  0  0  0  0  0  0  0  0  0  0
   56.2770   29.8670   44.4840 C   0  0  0  0  0  0  0  0  0  0  0  0
   55.2130   29.3300   44.8960 O   0  0  0  0  0  0  0  0  0  0  0  0
   56.4820   31.2750   44.6290 N   0  0  0  0  0  0  0  0  0  0  0  0
   57.6750   31.9620   44.1460 C   0  0  0  0  0  0  0  0  0  0  0  0
   57.6500   33.4460   44.5380 C   0  0  0  0  0  0  0  0  0  0  0  0
   57.3340   33.6700   46.3250 S   0  0  0  0  0  0  0  0  0  0  0  0
   59.0480   33.5350   46.8380 C   0  0  0  0  0  0  0  0  0  0  0  0
   59.3630   33.1350   48.1420 C   0  0  0  0  0  0  0  0  0  0  0  0
   60.6960   33.0890   48.5590 C   0  0  0  0  0  0  0  0  0  0  0  0
   61.7180   33.4640   47.6820 C   0  0  0  0  0  0  0  0  0  0  0  0
   63.5360   33.4440   48.2640 Br  0  0  0  0  0  0  0  0  0  0  0  0
   61.4050   33.8630   46.3770 C   0  0  0  0  0  0  0  0  0  0  0  0
   60.0730   33.8940   45.9530 C   0  0  0  0  0  0  0  0  0  0  0  0
   59.5974   29.3494   47.0493 H   0  0  0  0  0  0  0  0  0  0  0  0
   60.8235   30.3866   46.2445 H   0  0  0  0  0  0  0  0  0  0  0  0
   59.0948   30.8747   46.2445 H   0  0  0  0  0  0  0  0  0  0  0  0
   59.5929   29.9820   44.0579 H   0  0  0  0  0  0  0  0  0  0  0  0
   60.3751   28.5077   44.8248 H   0  0  0  0  0  0  0  0  0  0  0  0
   58.5416   28.0920   46.8527 H   0  0  0  0  0  0  0  0  0  0  0  0
   56.9494   28.8553   46.3555 H   0  0  0  0  0  0  0  0  0  0  0  0
   56.8750   26.4229   47.1642 H   0  0  0  0  0  0  0  0  0  0  0  0
   56.0685   26.8182   45.6086 H   0  0  0  0  0  0  0  0  0  0  0  0
   57.6733   26.0112   45.6086 H   0  0  0  0  0  0  0  0  0  0  0  0
   57.8597   29.6449   43.0808 H   0  0  0  0  0  0  0  0  0  0  0  0
   56.8299   28.1784   43.3284 H   0  0  0  0  0  0  0  0  0  0  0  0
   58.5656   31.4886   44.5850 H   0  0  0  0  0  0  0  0  0  0  0  0
   57.7021   31.8891   43.0488 H   0  0  0  0  0  0  0  0  0  0  0  0
   58.6220   33.8967   44.2889 H   0  0  0  0  0  0  0  0  0  0  0  0
   56.8350   33.9331   43.9826 H   0  0  0  0  0  0  0  0  0  0  0  0
   58.5596   32.8563   48.8398 H   0  0  0  0  0  0  0  0  0  0  0  0
   60.9414   32.7573   49.5787 H   0  0  0  0  0  0  0  0  0  0  0  0
   62.2086   34.1527   45.6839 H   0  0  0  0  0  0  0  0  0  0  0  0
   59.8299   34.2002   44.9248 H   0  0  0  0  0  0  0  0  0  0  0  0
  1  2  1  0
  2  3  1  0
  3  4  1  0
  4  5  1  0
  3  6  1  0
  6  7  1  0
  7  8  2  0
  7  9  1  0
  9 10  1  0
 10 11  1  0
 11 12  1  0
 12 13  1  0
 13 14  2  0
 14 15  1  0
 15 16  2  0
 16 17  1  0
 16 18  1  0
 18 19  2  0
 19 13  1  0
  1 20  1  0
  1 21  1  0
  1 22  1  0
  2 23  1  0
  2 24  1  0
  4 25  1  0
  4 26  1  0
  5 27  1  0
  5 28  1  0
  5 29  1  0
  6 30  1  0
  6 31  1  0
 10 32  1  0
 10 33  1  0
 11 34  1  0
 11 35  1  0
 14 36  1  0
 15 37  1  0
 18 38  1  0
 19 39  1  0
M  CHG  1   9  -1
M  END
>  <UniqueID>  (23) 
23

>  <SMILES>  (23) 
CCN(CC)CC(=O)[N-]CCSc1ccc(Br)cc1

>  <Energy>  (23) 
31.310001676612163

>  <Genealogy>  (23) 
CCN(CC)CC(=O)[N-]CCSc1ccc(Br)cc1 (protonated)
CCN(CC)CC(=O)[N-]CCSc1ccc(Br)cc1 (3D coordinates assigned)
CCN(CC)CC(=O)[N-]CCSc1ccc(Br)cc1 (optimized conformer: 31.310001676612163 kcal/mol)

>  <smiles>  (23) 
CCN(CC)CC(=O)NCCSc1ccc(Br)cc1

>  <score_type>  (23) 
oracle

>  <origin>  (23) 
adg

>  <m_score__min__energy>  (23) 
-8.6699999999999999

>  <m_primary>  (23) 
energy

$$$$
