0:0
     RDKit          3D

 37 38  0  0  0  0  0  0  0  0999 V2000
   61.0570   33.4830   48.4030 C   0  0  0  0  0  0  0  0  0  0  0  0
   60.1420   33.0240   47.2880 C   0  0  0  0  0  0  0  0  0  0  0  0
   59.3910   33.9490   46.5150 C   0  0  0  0  0  0  0  0  0  0  0  0
   59.5760   35.4390   46.7480 C   0  0  0  0  0  0  0  0  0  0  0  0
   58.4770   33.4870   45.5810 N   0  0  0  0  0  0  0  0  0  0  0  0
   57.5810   34.4460   44.9000 C   0  0  0  0  0  0  0  0  0  0  0  0
   58.4360   32.1450   45.2530 C   0  0  0  0  0  0  0  0  0  0  0  0
   57.5720   31.6030   44.1280 C   0  0  0  0  0  0  0  0  0  0  0  0
   56.3900   30.9350   44.6620 N   0  0  0  0  0  0  0  0  0  0  0  0
   56.2670   29.5120   44.7770 C   0  0  0  0  0  0  0  0  0  0  0  0
   55.1490   28.9630   44.5680 O   0  0  0  0  0  0  0  0  0  0  0  0
   57.4420   28.6900   45.1410 C   0  0  0  0  0  0  0  0  0  0  0  0
   58.5660   28.6310   44.2940 C   0  0  0  0  0  0  0  0  0  0  0  0
   59.6770   27.8570   44.6420 C   0  0  0  0  0  0  0  0  0  0  0  0
   59.6810   27.1350   45.8380 C   0  0  0  0  0  0  0  0  0  0  0  0
   60.7610   26.3860   46.1720 F   0  0  0  0  0  0  0  0  0  0  0  0
   58.5730   27.1860   46.6880 C   0  0  0  0  0  0  0  0  0  0  0  0
   58.5750   26.4850   47.8500 F   0  0  0  0  0  0  0  0  0  0  0  0
   57.4590   27.9590   46.3430 C   0  0  0  0  0  0  0  0  0  0  0  0
   59.2290   31.2300   45.9540 C   0  0  0  0  0  0  0  0  0  0  0  0
   60.0620   31.6590   46.9750 C   0  0  0  0  0  0  0  0  0  0  0  0
   60.7510   30.8090   47.6020 O   0  0  0  0  0  0  0  0  0  0  0  0
   60.5958   33.2516   49.3745 H   0  0  0  0  0  0  0  0  0  0  0  0
   62.0228   32.9627   48.3224 H   0  0  0  0  0  0  0  0  0  0  0  0
   61.2174   34.5683   48.3224 H   0  0  0  0  0  0  0  0  0  0  0  0
   59.6010   35.6407   47.8291 H   0  0  0  0  0  0  0  0  0  0  0  0
   60.5217   35.7668   46.2918 H   0  0  0  0  0  0  0  0  0  0  0  0
   58.7391   35.9881   46.2918 H   0  0  0  0  0  0  0  0  0  0  0  0
   57.0327   35.0328   45.6517 H   0  0  0  0  0  0  0  0  0  0  0  0
   58.1781   35.1225   44.2709 H   0  0  0  0  0  0  0  0  0  0  0  0
   56.8656   33.8961   44.2709 H   0  0  0  0  0  0  0  0  0  0  0  0
   57.2556   32.4355   43.4824 H   0  0  0  0  0  0  0  0  0  0  0  0
   58.1595   30.8743   43.5503 H   0  0  0  0  0  0  0  0  0  0  0  0
   58.5696   29.1983   43.3516 H   0  0  0  0  0  0  0  0  0  0  0  0
   60.5493   27.8164   43.9731 H   0  0  0  0  0  0  0  0  0  0  0  0
   56.5901   27.9955   47.0165 H   0  0  0  0  0  0  0  0  0  0  0  0
   59.1910   30.1621   45.6928 H   0  0  0  0  0  0  0  0  0  0  0  0
  1  2  1  0
  2  3  2  0
  3  4  1  0
  3  5  1  0
  5  6  1  0
  5  7  1  0
  7  8  1  0
  8  9  1  0
  9 10  1  0
 10 11  2  0
 10 12  1  0
 12 13  2  0
 13 14  1  0
 14 15  2  0
 15 16  1  0
 15 17  1  0
 17 18  1  0
 17 19  2  0
  7 20  2  0
 20 21  1  0
 21 22  2  0
 21  2  1  0
 19 12  1  0
  1 23  1  0
  1 24  1  0
  1 25  1  0
  4 26  1  0
  4 27  1  0
  4 28  1  0
  6 29  1  0
  6 30  1  0
  6 31  1  0
  8 32  1  0
  8 33  1  0
 13 34  1  0
 14 35  1  0
 19 36  1  0
 20 37  1  0
M  CHG  1   9  -1
M  END
>  <UniqueID>  (1) 
1

>  <SMILES>  (1) 
Cc1c(C)n(C)c(C[N-]C(=O)c2ccc(F)c(F)c2)cc1=O

>  <Energy>  (1) 
46.97107781078547

>  <Genealogy>  (1) 
Cc1c(C)n(C)c(C[N-]C(=O)c2ccc(F)c(F)c2)cc1=O (protonated)
Cc1c(C)n(C)c(C[N-]C(=O)c2ccc(F)c(F)c2)cc1=O (3D coordinates assigned)
Cc1c(C)n(C)c(C[N-]C(=O)c2ccc(F)c(F)c2)cc1=O (optimized conformer: 46.97107781078547 kcal/mol)

>  <smiles>  (1) 
Cc1c(C)n(C)c(CNC(=O)c2ccc(F)c(F)c2)cc1=O

>  <score_type>  (1) 
oracle

>  <origin>  (1) 
adg

>  <m_score__min__energy>  (1) 
-8.8100000000000005

>  <m_primary>  (1) 
energy

$$$$
1:0
     RDKit          3D

 74 76  0  0  0  0  0  0  0  0999 V2000
   63.0820   34.2410   49.5430 C   0  0  0  0  0  0  0  0  0  0  0  0
   64.0160   33.0690   49.2010 C   0  0  0  0  0  0  0  0  0  0  0  0
   63.7100   32.3870   47.9120 N   0  0  0  0  0  0  0  0  0  0  0  0
   63.5480   33.3270   46.7700 C   0  0  0  0  0  0  0  0  0  0  0  0
   62.0830   33.5440   46.3780 C   0  0  0  0  0  0  0  0  0  0  0  0
   62.5270   31.4940   48.0390 C   0  0  0  0  0  0  0  0  0  0  0  0
   62.0620   31.3450   49.5030 C   0  0  0  0  0  0  0  0  0  0  0  0
   61.3670   30.0010   49.7700 C   0  0  0  0  0  0  0  0  0  0  0  0
   61.1110   29.2000   48.4830 C   0  0  0  0  0  0  0  0  0  0  0  0
   59.6150   28.9950   48.2080 C   0  0  0  0  0  0  0  0  0  0  0  0
   58.8800   30.2600   48.2740 N   0  0  0  0  0  0  0  0  0  0  0  0
   58.5930   31.0430   47.1060 C   0  0  0  0  0  0  0  0  0  0  0  0
   58.0200   30.4180   45.9810 C   0  0  0  0  0  0  0  0  0  0  0  0
   57.6010   29.0700   46.0360 C   0  0  0  0  0  0  0  0  0  0  0  0
   57.0180   28.4570   44.9290 C   0  0  0  0  0  0  0  0  0  0  0  0
   56.8280   29.1780   43.7560 C   0  0  0  0  0  0  0  0  0  0  0  0
   57.2410   30.5060   43.6760 C   0  0  0  0  0  0  0  0  0  0  0  0
   57.8750   31.1460   44.7730 C   0  0  0  0  0  0  0  0  0  0  0  0
   58.3410   32.4430   44.6880 N   0  0  0  0  0  0  0  0  0  0  0  0
   58.4870   33.0900   43.3660 C   0  0  0  0  0  0  0  0  0  0  0  0
   58.6890   33.1290   45.8380 C   0  0  0  0  0  0  0  0  0  0  0  0
   58.8750   34.5350   45.8240 C   0  0  0  0  0  0  0  0  0  0  0  0
   59.2570   35.2250   46.9660 C   0  0  0  0  0  0  0  0  0  0  0  0
   59.4240   34.5490   48.1650 C   0  0  0  0  0  0  0  0  0  0  0  0
   59.1970   33.1690   48.2470 C   0  0  0  0  0  0  0  0  0  0  0  0
   59.3370   32.5260   49.4850 O   0  0  0  0  0  0  0  0  0  0  0  0
   59.2640   33.1880   50.7450 C   0  0  0  0  0  0  0  0  0  0  0  0
   58.2050   32.5220   51.6390 C   0  0  0  0  0  0  0  0  0  0  0  0
   57.7580   31.1820   51.1880 N   0  0  0  0  0  0  0  0  0  0  0  0
   56.3900   30.8450   51.6160 C   0  0  0  0  0  0  0  0  0  0  0  0
   58.7050   30.1070   51.5210 C   0  0  0  0  0  0  0  0  0  0  0  0
   58.8480   32.4350   47.0740 C   0  0  0  0  0  0  0  0  0  0  0  0
   63.0030   34.3401   50.6357 H   0  0  0  0  0  0  0  0  0  0  0  0
   63.4897   35.1705   49.1190 H   0  0  0  0  0  0  0  0  0  0  0  0
   62.0849   34.0510   49.1190 H   0  0  0  0  0  0  0  0  0  0  0  0
   65.0450   33.4543   49.1494 H   0  0  0  0  0  0  0  0  0  0  0  0
   63.8755   32.3176   49.9920 H   0  0  0  0  0  0  0  0  0  0  0  0
   64.5420   31.7860   47.7100 H   0  0  0  0  0  0  0  0  0  0  0  0
   63.9836   34.2975   47.0500 H   0  0  0  0  0  0  0  0  0  0  0  0
   64.0589   32.8832   45.9028 H   0  0  0  0  0  0  0  0  0  0  0  0
   61.4699   33.6348   47.2867 H   0  0  0  0  0  0  0  0  0  0  0  0
   61.9952   34.4649   45.7829 H   0  0  0  0  0  0  0  0  0  0  0  0
   61.7320   32.6880   45.7829 H   0  0  0  0  0  0  0  0  0  0  0  0
   61.7011   31.9141   47.4462 H   0  0  0  0  0  0  0  0  0  0  0  0
   62.8161   30.4974   47.6740 H   0  0  0  0  0  0  0  0  0  0  0  0
   62.9400   31.4241   50.1610 H   0  0  0  0  0  0  0  0  0  0  0  0
   61.3312   32.1426   49.7025 H   0  0  0  0  0  0  0  0  0  0  0  0
   62.0042   29.4016   50.4368 H   0  0  0  0  0  0  0  0  0  0  0  0
   60.3900   30.2169   50.2271 H   0  0  0  0  0  0  0  0  0  0  0  0
   61.5547   29.7427   47.6353 H   0  0  0  0  0  0  0  0  0  0  0  0
   61.5673   28.2072   48.6100 H   0  0  0  0  0  0  0  0  0  0  0  0
   59.4919   28.5618   47.2044 H   0  0  0  0  0  0  0  0  0  0  0  0
   59.2115   28.3203   48.9773 H   0  0  0  0  0  0  0  0  0  0  0  0
   58.4450   30.5460   49.1840 H   0  0  0  0  0  0  0  0  0  0  0  0
   57.7368   28.4968   46.9650 H   0  0  0  0  0  0  0  0  0  0  0  0
   56.7082   27.4029   44.9833 H   0  0  0  0  0  0  0  0  0  0  0  0
   56.3503   28.6988   42.8887 H   0  0  0  0  0  0  0  0  0  0  0  0
   57.0728   31.0688   42.7460 H   0  0  0  0  0  0  0  0  0  0  0  0
   58.7272   34.1546   43.5033 H   0  0  0  0  0  0  0  0  0  0  0  0
   59.2973   32.6006   42.8057 H   0  0  0  0  0  0  0  0  0  0  0  0
   57.5451   32.9960   42.8057 H   0  0  0  0  0  0  0  0  0  0  0  0
   58.7131   35.0902   44.8883 H   0  0  0  0  0  0  0  0  0  0  0  0
   59.4277   36.3107   46.9198 H   0  0  0  0  0  0  0  0  0  0  0  0
   59.7383   35.1026   49.0621 H   0  0  0  0  0  0  0  0  0  0  0  0
   60.2442   33.1324   51.2411 H   0  0  0  0  0  0  0  0  0  0  0  0
   58.9830   34.2387   50.5806 H   0  0  0  0  0  0  0  0  0  0  0  0
   58.6273   32.4188   52.6495 H   0  0  0  0  0  0  0  0  0  0  0  0
   57.3178   33.1712   51.6010 H   0  0  0  0  0  0  0  0  0  0  0  0
   56.3421   30.8332   52.7149 H   0  0  0  0  0  0  0  0  0  0  0  0
   55.6882   31.5971   51.2264 H   0  0  0  0  0  0  0  0  0  0  0  0
   56.1178   29.8530   51.2264 H   0  0  0  0  0  0  0  0  0  0  0  0
   58.7859   30.0152   52.6142 H   0  0  0  0  0  0  0  0  0  0  0  0
   58.3448   29.1572   51.0989 H   0  0  0  0  0  0  0  0  0  0  0  0
   59.6926   30.3446   51.0989 H   0  0  0  0  0  0  0  0  0  0  0  0
  1  2  1  0
  2  3  1  0
  3  4  1  0
  4  5  1  0
  3  6  1  0
  6  7  1  0
  7  8  1  0
  8  9  1  0
  9 10  1  0
 10 11  1  0
 11 12  1  0
 12 13  2  0
 13 14  1  0
 14 15  2  0
 15 16  1  0
 16 17  2  0
 17 18  1  0
 18 19  2  0
 19 20  1  0
 19 21  1  0
 21 22  2  0
 22 23  1  0
 23 24  2  0
 24 25  1  0
 25 26  1  0
 26 27  1  0
 27 28  1  0
 28 29  1  0
 29 30  1  0
 29 31  1  0
 25 32  2  0
 32 12  1  0
 18 13  1  0
 32 21  1  0
  1 33  1  0
  1 34  1  0
  1 35  1  0
  2 36  1  0
  2 37  1  0
  3 38  1  0
  4 39  1  0
  4 40  1  0
  5 41  1  0
  5 42  1  0
  5 43  1  0
  6 44  1  0
  6 45  1  0
  7 46  1  0
  7 47  1  0
  8 48  1  0
  8 49  1  0
  9 50  1  0
  9 51  1  0
 10 52  1  0
 10 53  1  0
 11 54  1  0
 14 55  1  0
 15 56  1  0
 16 57  1  0
 17 58  1  0
 20 59  1  0
 20 60  1  0
 20 61  1  0
 22 62  1  0
 23 63  1  0
 24 64  1  0
 27 65  1  0
 27 66  1  0
 28 67  1  0
 28 68  1  0
 30 69  1  0
 30 70  1  0
 30 71  1  0
 31 72  1  0
 31 73  1  0
 31 74  1  0
M  CHG  2   3   1  19   1
M  END
>  <UniqueID>  (2) 
2

>  <SMILES>  (2) 
CC[NH+](CC)CCCCCNc1c2ccccc2[n+](C)c2cccc(OCCN(C)C)c12

>  <Energy>  (2) 
105.98913093693731

>  <Genealogy>  (2) 
CC[NH+](CC)CCCCCNc1c2ccccc2[n+](C)c2cccc(OCCN(C)C)c12 (protonated)
CC[NH+](CC)CCCCCNc1c2ccccc2[n+](C)c2cccc(OCCN(C)C)c12 (3D coordinates assigned)
CC[NH+](CC)CCCCCNc1c2ccccc2[n+](C)c2cccc(OCCN(C)C)c12 (optimized conformer: 105.98913093693731 kcal/mol)

>  <smiles>  (2) 
CCN(CC)CCCCCNc1c2ccccc2[n+](C)c2cccc(OCCN(C)C)c12

>  <score_type>  (2) 
oracle

>  <origin>  (2) 
adg

>  <m_score__min__energy>  (2) 
-4.2699999999999996

>  <m_primary>  (2) 
energy

$$$$
2:0
     RDKit          3D

 38 39  0  0  0  0  0  0  0  0999 V2000
   59.6240   34.3010   47.8620 C   0  0  0  0  0  0  0  0  0  0  0  0
   59.1260   34.2040   46.4210 C   0  0  0  0  0  0  0  0  0  0  0  0
   58.8120   32.8160   46.0500 N   0  0  0  0  0  0  0  0  0  0  0  0
   58.4610   32.6390   44.6300 C   0  0  0  0  0  0  0  0  0  0  0  0
   57.7830   31.2820   44.3260 C   0  0  0  0  0  0  0  0  0  0  0  0
   57.3990   30.5480   45.5400 N   0  0  0  0  0  0  0  0  0  0  0  0
   57.7310   29.1700   45.8160 C   0  0  0  0  0  0  0  0  0  0  0  0
   59.0220   28.7790   46.2430 C   0  0  0  0  0  0  0  0  0  0  0  0
   60.1110   29.7260   46.3080 C   0  0  0  0  0  0  0  0  0  0  0  0
   60.9880   30.4790   46.3730 N   0  0  0  0  0  0  0  0  0  0  0  0
   59.2690   27.4690   46.5390 N   0  0  0  0  0  0  0  0  0  0  0  0
   60.5290   27.1010   46.9650 O   0  0  0  0  0  0  0  0  0  0  0  0
   58.2940   26.5220   46.4100 C   0  0  0  0  0  0  0  0  0  0  0  0
   58.5410   25.1740   46.7290 C   0  0  0  0  0  0  0  0  0  0  0  0
   57.5370   24.2160   46.5840 C   0  0  0  0  0  0  0  0  0  0  0  0
   56.2740   24.5810   46.1040 C   0  0  0  0  0  0  0  0  0  0  0  0
   55.1850   23.5530   45.9860 C   0  0  0  0  0  0  0  0  0  0  0  0
   56.0120   25.9230   45.7990 C   0  0  0  0  0  0  0  0  0  0  0  0
   57.0150   26.9010   45.9430 C   0  0  0  0  0  0  0  0  0  0  0  0
   56.7710   28.2120   45.6450 N   0  0  0  0  0  0  0  0  0  0  0  0
   55.5260   28.5860   45.1830 O   0  0  0  0  0  0  0  0  0  0  0  0
   58.7833   34.1373   48.5523 H   0  0  0  0  0  0  0  0  0  0  0  0
   60.3953   33.5362   48.0356 H   0  0  0  0  0  0  0  0  0  0  0  0
   60.0519   35.2994   48.0356 H   0  0  0  0  0  0  0  0  0  0  0  0
   58.2182   34.8161   46.3149 H   0  0  0  0  0  0  0  0  0  0  0  0
   59.9236   34.5664   45.7558 H   0  0  0  0  0  0  0  0  0  0  0  0
   59.6370   32.2130   46.2780 H   0  0  0  0  0  0  0  0  0  0  0  0
   57.7720   33.4454   44.3386 H   0  0  0  0  0  0  0  0  0  0  0  0
   59.4007   32.6662   44.0588 H   0  0  0  0  0  0  0  0  0  0  0  0
   56.8787   31.4680   43.7279 H   0  0  0  0  0  0  0  0  0  0  0  0
   58.5132   30.6631   43.7840 H   0  0  0  0  0  0  0  0  0  0  0  0
   57.0250   31.1220   46.3290 H   0  0  0  0  0  0  0  0  0  0  0  0
   59.5335   24.8731   47.0956 H   0  0  0  0  0  0  0  0  0  0  0  0
   57.7393   23.1676   46.8485 H   0  0  0  0  0  0  0  0  0  0  0  0
   54.8600   23.2462   46.9911 H   0  0  0  0  0  0  0  0  0  0  0  0
   54.3323   23.9832   45.4403 H   0  0  0  0  0  0  0  0  0  0  0  0
   55.5653   22.6769   45.4403 H   0  0  0  0  0  0  0  0  0  0  0  0
   55.0130   26.2157   45.4435 H   0  0  0  0  0  0  0  0  0  0  0  0
  1  2  1  0
  2  3  1  0
  3  4  1  0
  4  5  1  0
  5  6  1  0
  6  7  1  0
  7  8  2  0
  8  9  1  0
  9 10  3  0
  8 11  1  0
 11 12  1  0
 11 13  2  0
 13 14  1  0
 14 15  2  0
 15 16  1  0
 16 17  1  0
 16 18  2  0
 18 19  1  0
 19 20  2  0
 20 21  1  0
 20  7  1  0
 19 13  1  0
  1 22  1  0
  1 23  1  0
  1 24  1  0
  2 25  1  0
  2 26  1  0
  3 27  1  0
  4 28  1  0
  4 29  1  0
  5 30  1  0
  5 31  1  0
  6 32  1  0
 14 33  1  0
 15 34  1  0
 17 35  1  0
 17 36  1  0
 17 37  1  0
 18 38  1  0
M  CHG  4  11   1  12  -1  20   1  21  -1
M  END
>  <UniqueID>  (3) 
3

>  <SMILES>  (3) 
CCNCCNc1c(C#N)[n+]([O-])c2ccc(C)cc2[n+]1[O-]

>  <Energy>  (3) 
47.77097910389216

>  <Genealogy>  (3) 
CCNCCNc1c(C#N)[n+]([O-])c2ccc(C)cc2[n+]1[O-] (3D coordinates assigned)
CCNCCNc1c(C#N)[n+]([O-])c2ccc(C)cc2[n+]1[O-] (optimized conformer: 47.77097910389216 kcal/mol)

>  <smiles>  (3) 
CCNCCNc1c(C#N)[n+]([O-])c2ccc(C)cc2[n+]1[O-]

>  <score_type>  (3) 
oracle

>  <origin>  (3) 
adg

>  <m_score__min__energy>  (3) 
-6.7000000000000002

>  <m_primary>  (3) 
energy

$$$$
3:0
     RDKit          3D

 55 57  0  0  0  0  0  0  0  0999 V2000
   66.1180   32.7320   50.1150 C   0  0  0  0  0  0  0  0  0  0  0  0
   64.6450   32.3600   49.9750 C   0  0  0  0  0  0  0  0  0  0  0  0
   64.2080   32.4860   48.5830 N   0  0  0  0  0  0  0  0  0  0  0  0
   63.0020   33.1510   48.1580 C   0  0  0  0  0  0  0  0  0  0  0  0
   62.8070   33.4070   46.7970 C   0  0  0  0  0  0  0  0  0  0  0  0
   61.6440   34.0440   46.3660 C   0  0  0  0  0  0  0  0  0  0  0  0
   60.6760   34.4180   47.2590 N   0  0  0  0  0  0  0  0  0  0  0  0
   59.4450   35.0570   46.7610 C   0  0  0  0  0  0  0  0  0  0  0  0
   58.1680   34.2150   47.0360 C   0  0  0  0  0  0  0  0  0  0  0  0
   58.2200   32.7800   46.6460 N   0  0  0  0  0  0  0  0  0  0  0  0
   58.8400   31.9170   47.6930 C   0  0  0  0  0  0  0  0  0  0  0  0
   59.5510   30.6730   47.1260 C   0  0  0  0  0  0  0  0  0  0  0  0
   58.8550   30.1820   45.9330 N   0  0  0  0  0  0  0  0  0  0  0  0
   58.5470   28.7860   45.7920 C   0  0  0  0  0  0  0  0  0  0  0  0
   59.5530   27.8250   45.9840 C   0  0  0  0  0  0  0  0  0  0  0  0
   59.2650   26.4650   45.8540 C   0  0  0  0  0  0  0  0  0  0  0  0
   57.9730   26.0530   45.5290 C   0  0  0  0  0  0  0  0  0  0  0  0
   56.9640   26.9990   45.3270 C   0  0  0  0  0  0  0  0  0  0  0  0
   57.2430   28.3750   45.4510 C   0  0  0  0  0  0  0  0  0  0  0  0
   56.2630   29.3540   45.2300 O   0  0  0  0  0  0  0  0  0  0  0  0
   55.8380   29.7980   43.9450 C   0  0  0  0  0  0  0  0  0  0  0  0
   58.5360   31.1120   44.8450 C   0  0  0  0  0  0  0  0  0  0  0  0
   58.7720   32.5630   45.2890 C   0  0  0  0  0  0  0  0  0  0  0  0
   60.8630   34.2090   48.6030 C   0  0  0  0  0  0  0  0  0  0  0  0
   60.0000   34.5900   49.4400 O   0  0  0  0  0  0  0  0  0  0  0  0
   62.0200   33.5720   49.0670 C   0  0  0  0  0  0  0  0  0  0  0  0
   66.3797   32.7981   51.1814 H   0  0  0  0  0  0  0  0  0  0  0  0
   66.7381   31.9622   49.6323 H   0  0  0  0  0  0  0  0  0  0  0  0
   66.2982   33.7039   49.6323 H   0  0  0  0  0  0  0  0  0  0  0  0
   64.5024   31.3205   50.3053 H   0  0  0  0  0  0  0  0  0  0  0  0
   64.0476   33.0438   50.5959 H   0  0  0  0  0  0  0  0  0  0  0  0
   64.8210   32.0560   47.8540 H   0  0  0  0  0  0  0  0  0  0  0  0
   63.5717   33.1056   46.0660 H   0  0  0  0  0  0  0  0  0  0  0  0
   61.5024   34.2487   45.2945 H   0  0  0  0  0  0  0  0  0  0  0  0
   59.3333   36.0339   47.2541 H   0  0  0  0  0  0  0  0  0  0  0  0
   59.5445   35.1559   45.6700 H   0  0  0  0  0  0  0  0  0  0  0  0
   57.9645   34.2602   48.1161 H   0  0  0  0  0  0  0  0  0  0  0  0
   57.3855   34.6595   46.4035 H   0  0  0  0  0  0  0  0  0  0  0  0
   57.2150   32.4830   46.5920 H   0  0  0  0  0  0  0  0  0  0  0  0
   59.5775   32.5170   48.2463 H   0  0  0  0  0  0  0  0  0  0  0  0
   58.0250   31.5567   48.3380 H   0  0  0  0  0  0  0  0  0  0  0  0
   60.5847   30.9375   46.8587 H   0  0  0  0  0  0  0  0  0  0  0  0
   59.5471   29.8821   47.8905 H   0  0  0  0  0  0  0  0  0  0  0  0
   60.5740   28.1457   46.2383 H   0  0  0  0  0  0  0  0  0  0  0  0
   60.0577   25.7181   46.0080 H   0  0  0  0  0  0  0  0  0  0  0  0
   57.7473   24.9808   45.4314 H   0  0  0  0  0  0  0  0  0  0  0  0
   55.9470   26.6679   45.0699 H   0  0  0  0  0  0  0  0  0  0  0  0
   55.0817   30.5881   44.0617 H   0  0  0  0  0  0  0  0  0  0  0  0
   56.7009   30.1954   43.3905 H   0  0  0  0  0  0  0  0  0  0  0  0
   55.4033   28.9533   43.3905 H   0  0  0  0  0  0  0  0  0  0  0  0
   59.1774   30.8897   43.9794 H   0  0  0  0  0  0  0  0  0  0  0  0
   57.4768   30.9914   44.5740 H   0  0  0  0  0  0  0  0  0  0  0  0
   59.8526   32.7684   45.2994 H   0  0  0  0  0  0  0  0  0  0  0  0
   58.2672   33.2401   44.5842 H   0  0  0  0  0  0  0  0  0  0  0  0
   62.1592   33.4015   50.1448 H   0  0  0  0  0  0  0  0  0  0  0  0
  1  2  1  0
  2  3  1  0
  3  4  1  0
  4  5  1  0
  5  6  2  0
  6  7  1  0
  7  8  1  0
  8  9  1  0
  9 10  1  0
 10 11  1  0
 11 12  1  0
 12 13  1  0
 13 14  1  0
 14 15  2  0
 15 16  1  0
 16 17  2  0
 17 18  1  0
 18 19  2  0
 19 20  1  0
 20 21  1  0
 13 22  1  0
 22 23  1  0
  7 24  1  0
 24 25  2  0
 24 26  1  0
 26  4  2  0
 23 10  1  0
 19 14  1  0
  1 27  1  0
  1 28  1  0
  1 29  1  0
  2 30  1  0
  2 31  1  0
  3 32  1  0
  5 33  1  0
  6 34  1  0
  8 35  1  0
  8 36  1  0
  9 37  1  0
  9 38  1  0
 10 39  1  0
 11 40  1  0
 11 41  1  0
 12 42  1  0
 12 43  1  0
 15 44  1  0
 16 45  1  0
 17 46  1  0
 18 47  1  0
 21 48  1  0
 21 49  1  0
 21 50  1  0
 22 51  1  0
 22 52  1  0
 23 53  1  0
 23 54  1  0
 26 55  1  0
M  CHG  1  10   1
M  END
>  <UniqueID>  (4) 
4

>  <SMILES>  (4) 
CCNc1ccn(CC[NH+]2CCN(c3ccccc3OC)CC2)c(=O)c1

>  <Energy>  (4) 
69.53044274424401

>  <Genealogy>  (4) 
CCNc1ccn(CC[NH+]2CCN(c3ccccc3OC)CC2)c(=O)c1 (protonated)
CCNc1ccn(CC[NH+]2CCN(c3ccccc3OC)CC2)c(=O)c1 (3D coordinates assigned)
CCNc1ccn(CC[NH+]2CCN(c3ccccc3OC)CC2)c(=O)c1 (nonaromatic ring conformer: 69.53044274424401 kcal/mol)

>  <smiles>  (4) 
CCNc1ccn(CCN2CCN(c3ccccc3OC)CC2)c(=O)c1

>  <score_type>  (4) 
oracle

>  <origin>  (4) 
adg

>  <m_score__min__energy>  (4) 
-5.6200000000000001

>  <m_primary>  (4) 
energy

$$$$
4:0
     RDKit          3D

 47 50  0  0  0  0  0  0  0  0999 V2000
   60.8030   29.3370   46.4040 C   0  0  0  0  0  0  0  0  0  0  0  0
   60.7040   28.6200   45.0780 C   0  0  0  0  0  0  0  0  0  0  0  0
   59.3140   28.6210   44.6670 N   0  0  0  0  0  0  0  0  0  0  0  0
   58.6760   27.5350   44.2030 C   0  0  0  0  0  0  0  0  0  0  0  0
   57.4070   27.9000   43.9200 N   0  0  0  0  0  0  0  0  0  0  0  0
   57.2540   29.2170   44.2070 C   0  0  0  0  0  0  0  0  0  0  0  0
   56.2110   30.1060   44.1230 C   0  0  0  0  0  0  0  0  0  0  0  0
   55.0870   29.7410   43.6980 O   0  0  0  0  0  0  0  0  0  0  0  0
   56.4170   31.3780   44.5040 N   0  0  0  0  0  0  0  0  0  0  0  0
   57.5990   31.8240   44.9670 C   0  0  0  0  0  0  0  0  0  0  0  0
   57.6920   33.2580   45.3570 C   0  0  0  0  0  0  0  0  0  0  0  0
   59.0470   33.8080   45.0960 C   0  0  0  0  0  0  0  0  0  0  0  0
   59.5820   34.7650   46.0970 C   0  0  0  0  0  0  0  0  0  0  0  0
   59.1360   34.5960   47.4370 N   0  0  0  0  0  0  0  0  0  0  0  0
   60.2470   34.6270   48.3840 C   0  0  0  0  0  0  0  0  0  0  0  0
   61.3890   33.7850   47.9450 C   0  0  0  0  0  0  0  0  0  0  0  0
   61.4510   32.4980   48.4590 C   0  0  0  0  0  0  0  0  0  0  0  0
   62.4990   31.6570   48.0880 C   0  0  0  0  0  0  0  0  0  0  0  0
   63.4610   32.1270   47.2070 C   0  0  0  0  0  0  0  0  0  0  0  0
   63.3450   33.4020   46.7370 C   0  0  0  0  0  0  0  0  0  0  0  0
   62.3380   34.2170   47.0920 N   0  0  0  0  0  0  0  0  0  0  0  0
   58.5160   33.2890   47.6340 C   0  0  0  0  0  0  0  0  0  0  0  0
   57.2500   33.3540   46.7930 C   0  0  0  0  0  0  0  0  0  0  0  0
   58.6310   30.9690   45.0570 N   0  0  0  0  0  0  0  0  0  0  0  0
   58.4680   29.6830   44.6840 C   0  0  0  0  0  0  0  0  0  0  0  0
   60.7025   28.6093   47.2227 H   0  0  0  0  0  0  0  0  0  0  0  0
   61.7790   29.8391   46.4774 H   0  0  0  0  0  0  0  0  0  0  0  0
   59.9996   30.0848   46.4774 H   0  0  0  0  0  0  0  0  0  0  0  0
   61.3153   29.1408   44.3262 H   0  0  0  0  0  0  0  0  0  0  0  0
   61.0715   27.5877   45.1751 H   0  0  0  0  0  0  0  0  0  0  0  0
   59.1079   26.5313   44.0764 H   0  0  0  0  0  0  0  0  0  0  0  0
   57.0307   33.8871   44.7432 H   0  0  0  0  0  0  0  0  0  0  0  0
   59.7456   32.9602   45.0387 H   0  0  0  0  0  0  0  0  0  0  0  0
   58.9499   34.3868   44.1656 H   0  0  0  0  0  0  0  0  0  0  0  0
   60.6781   34.6727   46.0953 H   0  0  0  0  0  0  0  0  0  0  0  0
   59.2065   35.7514   45.7870 H   0  0  0  0  0  0  0  0  0  0  0  0
   60.5935   35.6658   48.4881 H   0  0  0  0  0  0  0  0  0  0  0  0
   59.8829   34.2256   49.3413 H   0  0  0  0  0  0  0  0  0  0  0  0
   60.6773   32.1430   49.1556 H   0  0  0  0  0  0  0  0  0  0  0  0
   62.5619   30.6345   48.4887 H   0  0  0  0  0  0  0  0  0  0  0  0
   64.2986   31.4862   46.8943 H   0  0  0  0  0  0  0  0  0  0  0  0
   64.1071   33.7783   46.0388 H   0  0  0  0  0  0  0  0  0  0  0  0
   59.1786   32.4845   47.2822 H   0  0  0  0  0  0  0  0  0  0  0  0
   58.3112   33.0719   48.6927 H   0  0  0  0  0  0  0  0  0  0  0  0
   56.5830   32.5158   47.0432 H   0  0  0  0  0  0  0  0  0  0  0  0
   56.6935   34.2845   46.9789 H   0  0  0  0  0  0  0  0  0  0  0  0
   59.5550   31.3100   45.4170 H   0  0  0  0  0  0  0  0  0  0  0  0
  1  2  1  0
  2  3  1  0
  3  4  1  0
  4  5  2  0
  5  6  1  0
  6  7  1  0
  7  8  2  0
  7  9  1  0
  9 10  2  0
 10 11  1  0
 11 12  1  0
 12 13  1  0
 13 14  1  0
 14 15  1  0
 15 16  1  0
 16 17  2  0
 17 18  1  0
 18 19  2  0
 19 20  1  0
 20 21  2  0
 14 22  1  0
 22 23  1  0
 10 24  1  0
 24 25  1  0
 25  3  1  0
 25  6  2  0
 23 11  1  0
 21 16  1  0
  1 26  1  0
  1 27  1  0
  1 28  1  0
  2 29  1  0
  2 30  1  0
  4 31  1  0
 11 32  1  0
 12 33  1  0
 12 34  1  0
 13 35  1  0
 13 36  1  0
 15 37  1  0
 15 38  1  0
 17 39  1  0
 18 40  1  0
 19 41  1  0
 20 42  1  0
 22 43  1  0
 22 44  1  0
 23 45  1  0
 23 46  1  0
 24 47  1  0
M  END
>  <smiles>  (5) 
CCn1cnc2c(=O)nc(C3CCN(Cc4ccccn4)CC3)[nH]c21

>  <score_type>  (5) 
oracle

>  <origin>  (5) 
adg

>  <m_score__min__energy>  (5) 
-8.6199999999999992

>  <m_primary>  (5) 
energy

$$$$
5:0
     RDKit          3D

 25 26  0  0  0  0  0  0  0  0999 V2000
   58.5390   34.2880   44.8950 C   0  0  0  0  0  0  0  0  0  0  0  0
   57.7090   33.1100   45.1920 N   0  0  0  0  0  0  0  0  0  0  0  0
   57.8480   32.7100   46.6010 C   0  0  0  0  0  0  0  0  0  0  0  0
   57.9670   31.9890   44.2600 C   0  0  0  0  0  0  0  0  0  0  0  0
   57.1730   30.7510   44.5780 C   0  0  0  0  0  0  0  0  0  0  0  0
   55.8300   30.6820   44.4940 N   0  0  0  0  0  0  0  0  0  0  0  0
   55.5360   29.4740   44.8660 O   0  0  0  0  0  0  0  0  0  0  0  0
   56.6340   28.8280   45.1680 C   0  0  0  0  0  0  0  0  0  0  0  0
   56.6660   27.4380   45.6310 C   0  0  0  0  0  0  0  0  0  0  0  0
   57.7940   26.6500   45.7570 C   0  0  0  0  0  0  0  0  0  0  0  0
   57.3440   25.4330   46.2220 C   0  0  0  0  0  0  0  0  0  0  0  0
   55.9740   25.5540   46.3500 C   0  0  0  0  0  0  0  0  0  0  0  0
   55.6010   26.7620   45.9900 O   0  0  0  0  0  0  0  0  0  0  0  0
   57.7280   29.5970   45.0040 N   0  0  0  0  0  0  0  0  0  0  0  0
   58.8664   34.7527   45.8367 H   0  0  0  0  0  0  0  0  0  0  0  0
   59.4198   33.9787   44.3131 H   0  0  0  0  0  0  0  0  0  0  0  0
   57.9514   35.0133   44.3131 H   0  0  0  0  0  0  0  0  0  0  0  0
   57.5566   33.5485   47.2506 H   0  0  0  0  0  0  0  0  0  0  0  0
   57.1973   31.8464   46.8029 H   0  0  0  0  0  0  0  0  0  0  0  0
   58.8940   32.4360   46.8029 H   0  0  0  0  0  0  0  0  0  0  0  0
   57.7095   32.3161   43.2418 H   0  0  0  0  0  0  0  0  0  0  0  0
   59.0306   31.7256   44.3563 H   0  0  0  0  0  0  0  0  0  0  0  0
   58.8328   26.9342   45.5332 H   0  0  0  0  0  0  0  0  0  0  0  0
   57.9530   24.5447   46.4460 H   0  0  0  0  0  0  0  0  0  0  0  0
   55.2978   24.7601   46.7000 H   0  0  0  0  0  0  0  0  0  0  0  0
  1  2  1  0
  2  3  1  0
  2  4  1  0
  4  5  1  0
  5  6  2  0
  6  7  1  0
  7  8  1  0
  8  9  1  0
  9 10  2  0
 10 11  1  0
 11 12  2  0
 12 13  1  0
  8 14  2  0
 14  5  1  0
 13  9  1  0
  1 15  1  0
  1 16  1  0
  1 17  1  0
  3 18  1  0
  3 19  1  0
  3 20  1  0
  4 21  1  0
  4 22  1  0
 10 23  1  0
 11 24  1  0
 12 25  1  0
M  END
>  <UniqueID>  (6) 
5

>  <SMILES>  (6) 
CN(C)Cc1noc(-c2ccco2)n1

>  <Energy>  (6) 
83.8036567415405

>  <Genealogy>  (6) 
CN(C)Cc1noc(-c2ccco2)n1 (3D coordinates assigned)
CN(C)Cc1noc(-c2ccco2)n1 (optimized conformer: 83.8036567415405 kcal/mol)

>  <smiles>  (6) 
CN(C)Cc1noc(-c2ccco2)n1

>  <score_type>  (6) 
oracle

>  <origin>  (6) 
adg

>  <m_score__min__energy>  (6) 
-6.1900000000000004

>  <m_primary>  (6) 
energy

$$$$
6:0
     RDKit          3D

 48 50  0  0  0  0  0  0  0  0999 V2000
   59.6220   33.4710   49.7590 C   0  0  0  0  0  0  0  0  0  0  0  0
   58.5530   32.3980   49.5150 C   0  0  0  0  0  0  0  0  0  0  0  0
   58.9080   31.0630   50.0480 N   0  0  0  0  0  0  0  0  0  0  0  0
   58.0090   30.6400   51.1370 C   0  0  0  0  0  0  0  0  0  0  0  0
   60.3380   30.9600   50.4210 C   0  0  0  0  0  0  0  0  0  0  0  0
   60.9220   29.5840   50.0670 C   0  0  0  0  0  0  0  0  0  0  0  0
   61.1380   29.4410   48.6240 N   0  0  0  0  0  0  0  0  0  0  0  0
   60.7790   30.4750   47.6910 C   0  0  0  0  0  0  0  0  0  0  0  0
   61.5930   31.6130   47.5560 C   0  0  0  0  0  0  0  0  0  0  0  0
   62.8300   31.7010   48.2290 C   0  0  0  0  0  0  0  0  0  0  0  0
   63.6430   32.8210   48.0760 C   0  0  0  0  0  0  0  0  0  0  0  0
   63.2460   33.8610   47.2430 C   0  0  0  0  0  0  0  0  0  0  0  0
   62.0220   33.8010   46.5800 C   0  0  0  0  0  0  0  0  0  0  0  0
   61.1520   32.6940   46.7480 C   0  0  0  0  0  0  0  0  0  0  0  0
   59.9060   32.6470   46.1490 N   0  0  0  0  0  0  0  0  0  0  0  0
   59.3150   33.8770   45.5760 C   0  0  0  0  0  0  0  0  0  0  0  0
   59.2050   31.4550   46.1060 C   0  0  0  0  0  0  0  0  0  0  0  0
   58.0750   31.2840   45.2650 C   0  0  0  0  0  0  0  0  0  0  0  0
   57.3490   30.0820   45.2470 C   0  0  0  0  0  0  0  0  0  0  0  0
   56.1970   29.9300   44.3940 N   0  0  0  0  0  0  0  0  0  0  0  0
   55.1590   29.3790   44.8150 O   0  0  0  0  0  0  0  0  0  0  0  0
   56.2250   30.3840   43.0940 O   0  0  0  0  0  0  0  0  0  0  0  0
   57.7700   29.0220   46.0560 C   0  0  0  0  0  0  0  0  0  0  0  0
   58.8980   29.1510   46.8600 C   0  0  0  0  0  0  0  0  0  0  0  0
   59.6240   30.3560   46.9000 C   0  0  0  0  0  0  0  0  0  0  0  0
   59.7611   33.6106   50.8412 H   0  0  0  0  0  0  0  0  0  0  0  0
   60.5720   33.1520   49.3054 H   0  0  0  0  0  0  0  0  0  0  0  0
   59.2994   34.4198   49.3054 H   0  0  0  0  0  0  0  0  0  0  0  0
   57.6187   32.7249   49.9949 H   0  0  0  0  0  0  0  0  0  0  0  0
   58.4535   32.2896   48.4249 H   0  0  0  0  0  0  0  0  0  0  0  0
   58.4786   30.8610   52.1069 H   0  0  0  0  0  0  0  0  0  0  0  0
   57.0564   31.1844   51.0584 H   0  0  0  0  0  0  0  0  0  0  0  0
   57.8211   29.5590   51.0584 H   0  0  0  0  0  0  0  0  0  0  0  0
   60.9030   31.7357   49.8833 H   0  0  0  0  0  0  0  0  0  0  0  0
   60.4181   31.0957   51.5097 H   0  0  0  0  0  0  0  0  0  0  0  0
   61.8844   29.4613   50.5853 H   0  0  0  0  0  0  0  0  0  0  0  0
   60.2025   28.8146   50.3837 H   0  0  0  0  0  0  0  0  0  0  0  0
   61.6290   28.5900   48.2690 H   0  0  0  0  0  0  0  0  0  0  0  0
   63.1553   30.8768   48.8809 H   0  0  0  0  0  0  0  0  0  0  0  0
   64.6001   32.8830   48.6146 H   0  0  0  0  0  0  0  0  0  0  0  0
   63.9007   34.7344   47.1069 H   0  0  0  0  0  0  0  0  0  0  0  0
   61.7257   34.6259   45.9154 H   0  0  0  0  0  0  0  0  0  0  0  0
   58.9947   34.5436   46.3903 H   0  0  0  0  0  0  0  0  0  0  0  0
   60.0651   34.3897   44.9559 H   0  0  0  0  0  0  0  0  0  0  0  0
   58.4460   33.6118   44.9559 H   0  0  0  0  0  0  0  0  0  0  0  0
   57.7605   32.1117   44.6123 H   0  0  0  0  0  0  0  0  0  0  0  0
   57.2047   28.0784   46.0567 H   0  0  0  0  0  0  0  0  0  0  0  0
   59.2271   28.2991   47.4731 H   0  0  0  0  0  0  0  0  0  0  0  0
  1  2  1  0
  2  3  1  0
  3  4  1  0
  3  5  1  0
  5  6  1  0
  6  7  1  0
  7  8  1  0
  8  9  2  0
  9 10  1  0
 10 11  2  0
 11 12  1  0
 12 13  2  0
 13 14  1  0
 14 15  2  0
 15 16  1  0
 15 17  1  0
 17 18  2  0
 18 19  1  0
 19 20  1  0
 20 21  2  0
 20 22  1  0
 19 23  2  0
 23 24  1  0
 24 25  2  0
 25  8  1  0
 14  9  1  0
 25 17  1  0
  1 26  1  0
  1 27  1  0
  1 28  1  0
  2 29  1  0
  2 30  1  0
  4 31  1  0
  4 32  1  0
  4 33  1  0
  5 34  1  0
  5 35  1  0
  6 36  1  0
  6 37  1  0
  7 38  1  0
 10 39  1  0
 11 40  1  0
 12 41  1  0
 13 42  1  0
 16 43  1  0
 16 44  1  0
 16 45  1  0
 18 46  1  0
 23 47  1  0
 24 48  1  0
M  CHG  3  15   1  20   1  22  -1
M  END
>  <UniqueID>  (7) 
6

>  <SMILES>  (7) 
CCN(C)CCNc1c2ccccc2[n+](C)c2cc([N+](=O)[O-])ccc12

>  <Energy>  (7) 
75.00402083916198

>  <Genealogy>  (7) 
CCN(C)CCNc1c2ccccc2[n+](C)c2cc([N+](=O)[O-])ccc12 (3D coordinates assigned)
CCN(C)CCNc1c2ccccc2[n+](C)c2cc([N+](=O)[O-])ccc12 (optimized conformer: 75.00402083916198 kcal/mol)

>  <smiles>  (7) 
CCN(C)CCNc1c2ccccc2[n+](C)c2cc([N+](=O)[O-])ccc12

>  <score_type>  (7) 
oracle

>  <origin>  (7) 
adg

>  <m_score__min__energy>  (7) 
-5.6299999999999999

>  <m_primary>  (7) 
energy

$$$$
7:0
     RDKit          3D

 69 72  0  0  0  0  0  0  0  0999 V2000
   59.6620   34.3510   49.5030 C   0  0  0  0  0  0  0  0  0  0  0  0
   60.7100   33.8690   50.5030 C   0  0  0  0  0  0  0  0  0  0  0  0
   60.0820   33.0280   51.5440 N   0  0  0  0  0  0  0  0  0  0  0  0
   61.0150   32.6480   52.6310 C   0  0  0  0  0  0  0  0  0  0  0  0
   62.5000   32.7670   52.2510 C   0  0  0  0  0  0  0  0  0  0  0  0
   58.7930   33.5650   52.0410 C   0  0  0  0  0  0  0  0  0  0  0  0
   58.0210   32.4650   52.7620 C   0  0  0  0  0  0  0  0  0  0  0  0
   56.7210   32.3660   52.2070 O   0  0  0  0  0  0  0  0  0  0  0  0
   56.3570   31.0140   52.0030 C   0  0  0  0  0  0  0  0  0  0  0  0
   57.5460   30.0930   52.2710 C   0  0  0  0  0  0  0  0  0  0  0  0
   58.1180   29.7040   51.0400 O   0  0  0  0  0  0  0  0  0  0  0  0
   59.3130   28.9800   51.2680 C   0  0  0  0  0  0  0  0  0  0  0  0
   60.4060   29.4720   50.3030 C   0  0  0  0  0  0  0  0  0  0  0  0
   60.3230   30.9210   50.0240 N   0  0  0  0  0  0  0  0  0  0  0  0
   60.3560   31.2300   48.6010 C   0  0  0  0  0  0  0  0  0  0  0  0
   59.4960   30.5140   47.7610 C   0  0  0  0  0  0  0  0  0  0  0  0
   59.1280   30.9290   46.4980 C   0  0  0  0  0  0  0  0  0  0  0  0
   58.1590   30.3420   45.7060 C   0  0  0  0  0  0  0  0  0  0  0  0
   57.5610   29.0800   45.7800 C   0  0  0  0  0  0  0  0  0  0  0  0
   56.5380   28.7780   44.8640 C   0  0  0  0  0  0  0  0  0  0  0  0
   56.1270   29.7340   43.9120 C   0  0  0  0  0  0  0  0  0  0  0  0
   56.7320   31.0030   43.8720 C   0  0  0  0  0  0  0  0  0  0  0  0
   57.7460   31.2800   44.7880 C   0  0  0  0  0  0  0  0  0  0  0  0
   58.3780   32.4580   44.9320 N   0  0  0  0  0  0  0  0  0  0  0  0
   59.2460   32.2830   45.9610 C   0  0  0  0  0  0  0  0  0  0  0  0
   60.1070   33.2560   46.3750 N   0  0  0  0  0  0  0  0  0  0  0  0
   59.8540   34.6210   45.8740 C   0  0  0  0  0  0  0  0  0  0  0  0
   61.2960   32.9710   47.0160 C   0  0  0  0  0  0  0  0  0  0  0  0
   62.4500   33.7160   46.6550 C   0  0  0  0  0  0  0  0  0  0  0  0
   63.6770   33.5190   47.2780 C   0  0  0  0  0  0  0  0  0  0  0  0
   63.8000   32.5770   48.2820 C   0  0  0  0  0  0  0  0  0  0  0  0
   62.6950   31.8330   48.6770 C   0  0  0  0  0  0  0  0  0  0  0  0
   61.4240   32.0040   48.0740 C   0  0  0  0  0  0  0  0  0  0  0  0
   58.7931   34.7506   50.0464 H   0  0  0  0  0  0  0  0  0  0  0  0
   60.0942   35.1408   48.8710 H   0  0  0  0  0  0  0  0  0  0  0  0
   59.3436   33.5089   48.8710 H   0  0  0  0  0  0  0  0  0  0  0  0
   61.4727   33.2799   49.9727 H   0  0  0  0  0  0  0  0  0  0  0  0
   61.1734   34.7436   50.9830 H   0  0  0  0  0  0  0  0  0  0  0  0
   60.8254   33.3029   53.4942 H   0  0  0  0  0  0  0  0  0  0  0  0
   60.8279   31.5873   52.8546 H   0  0  0  0  0  0  0  0  0  0  0  0
   63.1097   32.8159   53.1653 H   0  0  0  0  0  0  0  0  0  0  0  0
   62.7981   31.8899   51.6579 H   0  0  0  0  0  0  0  0  0  0  0  0
   62.6547   33.6804   51.6579 H   0  0  0  0  0  0  0  0  0  0  0  0
   58.9867   34.3931   52.7386 H   0  0  0  0  0  0  0  0  0  0  0  0
   58.1983   33.9295   51.1904 H   0  0  0  0  0  0  0  0  0  0  0  0
   58.5467   31.5065   52.6403 H   0  0  0  0  0  0  0  0  0  0  0  0
   57.9478   32.7065   53.8327 H   0  0  0  0  0  0  0  0  0  0  0  0
   55.5358   30.7532   52.6868 H   0  0  0  0  0  0  0  0  0  0  0  0
   56.0363   30.8858   50.9586 H   0  0  0  0  0  0  0  0  0  0  0  0
   58.2962   30.6264   52.8732 H   0  0  0  0  0  0  0  0  0  0  0  0
   57.2071   29.2017   52.8194 H   0  0  0  0  0  0  0  0  0  0  0  0
   59.6433   29.1359   52.3056 H   0  0  0  0  0  0  0  0  0  0  0  0
   59.1297   27.9089   51.0973 H   0  0  0  0  0  0  0  0  0  0  0  0
   61.3887   29.2568   50.7479 H   0  0  0  0  0  0  0  0  0  0  0  0
   60.2622   28.9451   49.3481 H   0  0  0  0  0  0  0  0  0  0  0  0
   59.4330   31.2540   50.4620 H   0  0  0  0  0  0  0  0  0  0  0  0
   61.1190   31.4080   50.4980 H   0  0  0  0  0  0  0  0  0  0  0  0
   59.0883   29.5615   48.1306 H   0  0  0  0  0  0  0  0  0  0  0  0
   57.8817   28.3450   46.5330 H   0  0  0  0  0  0  0  0  0  0  0  0
   56.0552   27.7900   44.8900 H   0  0  0  0  0  0  0  0  0  0  0  0
   55.3289   29.4857   43.1969 H   0  0  0  0  0  0  0  0  0  0  0  0
   56.4136   31.7572   43.1373 H   0  0  0  0  0  0  0  0  0  0  0  0
   59.7270   35.3063   46.7250 H   0  0  0  0  0  0  0  0  0  0  0  0
   60.7063   34.9507   45.2618 H   0  0  0  0  0  0  0  0  0  0  0  0
   58.9401   34.6234   45.2618 H   0  0  0  0  0  0  0  0  0  0  0  0
   62.3706   34.4711   45.8590 H   0  0  0  0  0  0  0  0  0  0  0  0
   64.5506   34.1132   46.9718 H   0  0  0  0  0  0  0  0  0  0  0  0
   64.7733   32.4162   48.7686 H   0  0  0  0  0  0  0  0  0  0  0  0
   62.8100   31.0904   49.4803 H   0  0  0  0  0  0  0  0  0  0  0  0
  1  2  1  0
  2  3  1  0
  3  4  1  0
  4  5  1  0
  3  6  1  0
  6  7  1  0
  7  8  1  0
  8  9  1  0
  9 10  1  0
 10 11  1  0
 11 12  1  0
 12 13  1  0
 13 14  1  0
 14 15  1  0
 15 16  2  0
 16 17  1  0
 17 18  2  0
 18 19  1  0
 19 20  2  0
 20 21  1  0
 21 22  2  0
 22 23  1  0
 23 24  2  0
 24 25  1  0
 25 26  2  0
 26 27  1  0
 26 28  1  0
 28 29  2  0
 29 30  1  0
 30 31  2  0
 31 32  1  0
 32 33  2  0
 33 15  1  0
 25 17  1  0
 33 28  1  0
 23 18  1  0
  1 34  1  0
  1 35  1  0
  1 36  1  0
  2 37  1  0
  2 38  1  0
  4 39  1  0
  4 40  1  0
  5 41  1  0
  5 42  1  0
  5 43  1  0
  6 44  1  0
  6 45  1  0
  7 46  1  0
  7 47  1  0
  9 48  1  0
  9 49  1  0
 10 50  1  0
 10 51  1  0
 12 52  1  0
 12 53  1  0
 13 54  1  0
 13 55  1  0
 14 56  1  0
 14 57  1  0
 16 58  1  0
 19 59  1  0
 20 60  1  0
 21 61  1  0
 22 62  1  0
 27 63  1  0
 27 64  1  0
 27 65  1  0
 29 66  1  0
 30 67  1  0
 31 68  1  0
 32 69  1  0
M  CHG  2  14   1  26   1
M  END
>  <UniqueID>  (8) 
7

>  <SMILES>  (8) 
CCN(CC)CCOCCOCC[NH2+]c1cc2c3ccccc3nc-2[n+](C)c2ccccc12

>  <Energy>  (8) 
148.8746665844995

>  <Genealogy>  (8) 
CCN(CC)CCOCCOCC[NH2+]c1cc2c3ccccc3nc-2[n+](C)c2ccccc12 (protonated)
CCN(CC)CCOCCOCC[NH2+]c1cc2c3ccccc3nc-2[n+](C)c2ccccc12 (3D coordinates assigned)
CCN(CC)CCOCCOCC[NH2+]c1cc2c3ccccc3nc-2[n+](C)c2ccccc12 (optimized conformer: 148.8746665844995 kcal/mol)

>  <smiles>  (8) 
CCN(CC)CCOCCOCCNc1cc2c3ccccc3nc-2[n+](C)c2ccccc12

>  <score_type>  (8) 
oracle

>  <origin>  (8) 
adg

>  <m_score__min__energy>  (8) 
-5.25

>  <m_primary>  (8) 
energy

$$$$
8:0
     RDKit          3D

 33 34  0  0  0  0  0  0  0  0999 V2000
   59.4260   28.6690   44.8680 Cl  0  0  0  0  0  0  0  0  0  0  0  0
   58.0250   28.6020   45.9700 C   0  0  0  0  0  0  0  0  0  0  0  0
   56.7610   28.1800   45.2210 C   0  0  0  0  0  0  0  0  0  0  0  0
   55.8840   29.3360   44.9760 N   0  0  0  0  0  0  0  0  0  0  0  0
   56.0620   29.8680   43.6200 C   0  0  0  0  0  0  0  0  0  0  0  0
   57.0420   31.0360   43.6430 C   0  0  0  0  0  0  0  0  0  0  0  0
   57.1690   31.5200   44.9780 O   0  0  0  0  0  0  0  0  0  0  0  0
   57.9000   32.6620   45.3490 C   0  0  0  0  0  0  0  0  0  0  0  0
   57.9730   33.7950   44.5160 C   0  0  0  0  0  0  0  0  0  0  0  0
   58.7060   34.9180   44.9050 C   0  0  0  0  0  0  0  0  0  0  0  0
   59.3770   34.9330   46.1270 C   0  0  0  0  0  0  0  0  0  0  0  0
   59.3200   33.8190   46.9750 C   0  0  0  0  0  0  0  0  0  0  0  0
   59.9950   33.8320   48.2070 C   0  0  0  0  0  0  0  0  0  0  0  0
   59.9370   32.7200   49.0510 C   0  0  0  0  0  0  0  0  0  0  0  0
   59.2090   31.5900   48.6750 C   0  0  0  0  0  0  0  0  0  0  0  0
   58.5320   31.5630   47.4520 C   0  0  0  0  0  0  0  0  0  0  0  0
   58.5780   32.6730   46.5880 C   0  0  0  0  0  0  0  0  0  0  0  0
   58.2299   27.8743   46.7691 H   0  0  0  0  0  0  0  0  0  0  0  0
   57.8638   29.6039   46.3945 H   0  0  0  0  0  0  0  0  0  0  0  0
   57.0460   27.7337   44.2569 H   0  0  0  0  0  0  0  0  0  0  0  0
   56.2154   27.4498   45.8367 H   0  0  0  0  0  0  0  0  0  0  0  0
   56.1590   30.0900   45.6490 H   0  0  0  0  0  0  0  0  0  0  0  0
   56.4551   29.0754   42.9663 H   0  0  0  0  0  0  0  0  0  0  0  0
   55.0913   30.2183   43.2390 H   0  0  0  0  0  0  0  0  0  0  0  0
   58.0240   30.6986   43.2798 H   0  0  0  0  0  0  0  0  0  0  0  0
   56.6694   31.8417   42.9934 H   0  0  0  0  0  0  0  0  0  0  0  0
   57.4476   33.7954   43.5496 H   0  0  0  0  0  0  0  0  0  0  0  0
   58.7543   35.7957   44.2437 H   0  0  0  0  0  0  0  0  0  0  0  0
   59.9525   35.8214   46.4261 H   0  0  0  0  0  0  0  0  0  0  0  0
   60.5706   34.7198   48.5079 H   0  0  0  0  0  0  0  0  0  0  0  0
   60.4668   32.7351   50.0149 H   0  0  0  0  0  0  0  0  0  0  0  0
   59.1678   30.7174   49.3434 H   0  0  0  0  0  0  0  0  0  0  0  0
   57.9600   30.6688   47.1634 H   0  0  0  0  0  0  0  0  0  0  0  0
  1  2  1  0
  2  3  1  0
  3  4  1  0
  4  5  1  0
  5  6  1  0
  6  7  1  0
  7  8  1  0
  8  9  2  0
  9 10  1  0
 10 11  2  0
 11 12  1  0
 12 13  2  0
 13 14  1  0
 14 15  2  0
 15 16  1  0
 16 17  2  0
 17  8  1  0
 17 12  1  0
  2 18  1  0
  2 19  1  0
  3 20  1  0
  3 21  1  0
  4 22  1  0
  5 23  1  0
  5 24  1  0
  6 25  1  0
  6 26  1  0
  9 27  1  0
 10 28  1  0
 11 29  1  0
 13 30  1  0
 14 31  1  0
 15 32  1  0
 16 33  1  0
M  END
>  <UniqueID>  (9) 
8

>  <SMILES>  (9) 
ClCCNCCOc1cccc2ccccc12

>  <Energy>  (9) 
31.35279838222278

>  <Genealogy>  (9) 
ClCCNCCOc1cccc2ccccc12 (3D coordinates assigned)
ClCCNCCOc1cccc2ccccc12 (optimized conformer: 31.35279838222278 kcal/mol)

>  <smiles>  (9) 
ClCCNCCOc1cccc2ccccc12

>  <score_type>  (9) 
oracle

>  <origin>  (9) 
adg

>  <m_score__min__energy>  (9) 
-6.4500000000000002

>  <m_primary>  (9) 
energy

$$$$
9:0
     RDKit          3D

 72 74  0  0  0  0  0  0  0  0999 V2000
   63.0790   34.2160   49.8990 C   0  0  0  0  0  0  0  0  0  0  0  0
   62.4880   33.0700   50.7280 C   0  0  0  0  0  0  0  0  0  0  0  0
   62.4440   31.7780   49.9920 N   0  0  0  0  0  0  0  0  0  0  0  0
   63.0930   31.9470   48.6640 C   0  0  0  0  0  0  0  0  0  0  0  0
   62.3150   31.2980   47.5140 C   0  0  0  0  0  0  0  0  0  0  0  0
   62.9840   30.6330   50.7810 C   0  0  0  0  0  0  0  0  0  0  0  0
   61.9440   29.5610   51.1640 C   0  0  0  0  0  0  0  0  0  0  0  0
   60.8310   29.6360   50.2950 O   0  0  0  0  0  0  0  0  0  0  0  0
   60.7780   28.5150   49.4400 C   0  0  0  0  0  0  0  0  0  0  0  0
   59.8690   28.8320   48.2550 C   0  0  0  0  0  0  0  0  0  0  0  0
   59.0640   30.0270   48.5100 N   0  0  0  0  0  0  0  0  0  0  0  0
   58.7130   30.9090   47.4330 C   0  0  0  0  0  0  0  0  0  0  0  0
   58.1430   30.3680   46.2660 C   0  0  0  0  0  0  0  0  0  0  0  0
   57.8390   28.9920   46.1840 C   0  0  0  0  0  0  0  0  0  0  0  0
   57.3290   28.4440   45.0100 C   0  0  0  0  0  0  0  0  0  0  0  0
   57.1240   29.2500   43.8980 C   0  0  0  0  0  0  0  0  0  0  0  0
   57.3960   30.6160   43.9630 C   0  0  0  0  0  0  0  0  0  0  0  0
   57.8740   31.2130   45.1590 C   0  0  0  0  0  0  0  0  0  0  0  0
   58.0990   32.5720   45.2550 N   0  0  0  0  0  0  0  0  0  0  0  0
   57.5700   33.4810   44.2100 C   0  0  0  0  0  0  0  0  0  0  0  0
   58.7840   33.0910   46.3380 C   0  0  0  0  0  0  0  0  0  0  0  0
   59.2670   34.4220   46.3310 C   0  0  0  0  0  0  0  0  0  0  0  0
   59.8780   34.9720   47.4490 C   0  0  0  0  0  0  0  0  0  0  0  0
   60.0250   34.2240   48.6050 C   0  0  0  0  0  0  0  0  0  0  0  0
   59.6110   32.8810   48.6500 C   0  0  0  0  0  0  0  0  0  0  0  0
   59.7360   32.1320   49.8360 O   0  0  0  0  0  0  0  0  0  0  0  0
   59.0260   32.3490   51.0560 C   0  0  0  0  0  0  0  0  0  0  0  0
   57.5560   31.9390   50.9090 C   0  0  0  0  0  0  0  0  0  0  0  0
   57.3800   30.5050   51.2280 N   0  0  0  0  0  0  0  0  0  0  0  0
   56.1590   30.3070   52.0230 C   0  0  0  0  0  0  0  0  0  0  0  0
   58.5400   29.9810   51.9720 C   0  0  0  0  0  0  0  0  0  0  0  0
   59.0360   32.2860   47.4880 C   0  0  0  0  0  0  0  0  0  0  0  0
   63.4774   34.9886   50.5731 H   0  0  0  0  0  0  0  0  0  0  0  0
   63.8901   33.8292   49.2645 H   0  0  0  0  0  0  0  0  0  0  0  0
   62.2936   34.6525   49.2645 H   0  0  0  0  0  0  0  0  0  0  0  0
   63.1029   32.9378   51.6304 H   0  0  0  0  0  0  0  0  0  0  0  0
   61.4508   33.3434   50.9719 H   0  0  0  0  0  0  0  0  0  0  0  0
   61.4340   31.5690   49.8070 H   0  0  0  0  0  0  0  0  0  0  0  0
   63.1863   33.0233   48.4570 H   0  0  0  0  0  0  0  0  0  0  0  0
   64.0703   31.4448   48.7162 H   0  0  0  0  0  0  0  0  0  0  0  0
   61.5313   30.6443   47.9245 H   0  0  0  0  0  0  0  0  0  0  0  0
   61.8523   32.0817   46.8961 H   0  0  0  0  0  0  0  0  0  0  0  0
   63.0030   30.7023   46.8961 H   0  0  0  0  0  0  0  0  0  0  0  0
   63.7710   30.1481   50.1847 H   0  0  0  0  0  0  0  0  0  0  0  0
   63.3531   31.0567   51.7267 H   0  0  0  0  0  0  0  0  0  0  0  0
   62.4020   28.5640   51.0844 H   0  0  0  0  0  0  0  0  0  0  0  0
   61.6085   29.7355   52.1970 H   0  0  0  0  0  0  0  0  0  0  0  0
   61.7894   28.2814   49.0760 H   0  0  0  0  0  0  0  0  0  0  0  0
   60.3813   27.6486   49.9896 H   0  0  0  0  0  0  0  0  0  0  0  0
   60.4891   29.0010   47.3623 H   0  0  0  0  0  0  0  0  0  0  0  0
   59.1895   27.9810   48.1000 H   0  0  0  0  0  0  0  0  0  0  0  0
   58.7290   30.2580   49.4740 H   0  0  0  0  0  0  0  0  0  0  0  0
   58.0070   28.3452   47.0577 H   0  0  0  0  0  0  0  0  0  0  0  0
   57.0883   27.3717   44.9634 H   0  0  0  0  0  0  0  0  0  0  0  0
   56.7461   28.8097   42.9635 H   0  0  0  0  0  0  0  0  0  0  0  0
   57.2375   31.2418   43.0723 H   0  0  0  0  0  0  0  0  0  0  0  0
   57.0715   34.3376   44.6872 H   0  0  0  0  0  0  0  0  0  0  0  0
   58.3993   33.8417   43.5837 H   0  0  0  0  0  0  0  0  0  0  0  0
   56.8467   32.9382   43.5837 H   0  0  0  0  0  0  0  0  0  0  0  0
   59.1558   35.0316   45.4221 H   0  0  0  0  0  0  0  0  0  0  0  0
   60.2475   36.0076   47.4167 H   0  0  0  0  0  0  0  0  0  0  0  0
   60.4708   34.6857   49.4984 H   0  0  0  0  0  0  0  0  0  0  0  0
   59.4894   31.7509   51.8545 H   0  0  0  0  0  0  0  0  0  0  0  0
   59.0709   33.4195   51.3052 H   0  0  0  0  0  0  0  0  0  0  0  0
   56.9427   32.5400   51.5965 H   0  0  0  0  0  0  0  0  0  0  0  0
   57.2424   32.1116   49.8689 H   0  0  0  0  0  0  0  0  0  0  0  0
   56.4080   30.3474   53.0937 H   0  0  0  0  0  0  0  0  0  0  0  0
   55.4340   31.0993   51.7850 H   0  0  0  0  0  0  0  0  0  0  0  0
   55.7215   29.3262   51.7850 H   0  0  0  0  0  0  0  0  0  0  0  0
   58.3515   30.0661   53.0524 H   0  0  0  0  0  0  0  0  0  0  0  0
   58.6972   28.9245   51.7094 H   0  0  0  0  0  0  0  0  0  0  0  0
   59.4367   30.5615   51.7094 H   0  0  0  0  0  0  0  0  0  0  0  0
  1  2  1  0
  2  3  1  0
  3  4  1  0
  4  5  1  0
  3  6  1  0
  6  7  1  0
  7  8  1  0
  8  9  1  0
  9 10  1  0
 10 11  1  0
 11 12  1  0
 12 13  2  0
 13 14  1  0
 14 15  2  0
 15 16  1  0
 16 17  2  0
 17 18  1  0
 18 19  2  0
 19 20  1  0
 19 21  1  0
 21 22  2  0
 22 23  1  0
 23 24  2  0
 24 25  1  0
 25 26  1  0
 26 27  1  0
 27 28  1  0
 28 29  1  0
 29 30  1  0
 29 31  1  0
 25 32  2  0
 32 12  1  0
 18 13  1  0
 32 21  1  0
  1 33  1  0
  1 34  1  0
  1 35  1  0
  2 36  1  0
  2 37  1  0
  3 38  1  0
  4 39  1  0
  4 40  1  0
  5 41  1  0
  5 42  1  0
  5 43  1  0
  6 44  1  0
  6 45  1  0
  7 46  1  0
  7 47  1  0
  9 48  1  0
  9 49  1  0
 10 50  1  0
 10 51  1  0
 11 52  1  0
 14 53  1  0
 15 54  1  0
 16 55  1  0
 17 56  1  0
 20 57  1  0
 20 58  1  0
 20 59  1  0
 22 60  1  0
 23 61  1  0
 24 62  1  0
 27 63  1  0
 27 64  1  0
 28 65  1  0
 28 66  1  0
 30 67  1  0
 30 68  1  0
 30 69  1  0
 31 70  1  0
 31 71  1  0
 31 72  1  0
M  CHG  2   3   1  19   1
M  END
>  <UniqueID>  (10) 
9

>  <SMILES>  (10) 
CC[NH+](CC)CCOCCNc1c2ccccc2[n+](C)c2cccc(OCCN(C)C)c12

>  <Energy>  (10) 
101.11349056087118

>  <Genealogy>  (10) 
CC[NH+](CC)CCOCCNc1c2ccccc2[n+](C)c2cccc(OCCN(C)C)c12 (protonated)
CC[NH+](CC)CCOCCNc1c2ccccc2[n+](C)c2cccc(OCCN(C)C)c12 (3D coordinates assigned)
CC[NH+](CC)CCOCCNc1c2ccccc2[n+](C)c2cccc(OCCN(C)C)c12 (optimized conformer: 101.11349056087118 kcal/mol)

>  <smiles>  (10) 
CCN(CC)CCOCCNc1c2ccccc2[n+](C)c2cccc(OCCN(C)C)c12

>  <score_type>  (10) 
oracle

>  <origin>  (10) 
adg

>  <m_score__min__energy>  (10) 
-3.2599999999999998

>  <m_primary>  (10) 
energy

$$$$
10:0
     RDKit          3D

 73 75  0  0  0  0  0  0  0  0999 V2000
   63.3140   33.8880   46.5810 C   0  0  0  0  0  0  0  0  0  0  0  0
   62.6130   33.8400   47.9370 C   0  0  0  0  0  0  0  0  0  0  0  0
   62.5390   32.4450   48.4300 N   0  0  0  0  0  0  0  0  0  0  0  0
   63.5400   31.6120   47.7420 C   0  0  0  0  0  0  0  0  0  0  0  0
   62.7330   32.3830   49.8990 C   0  0  0  0  0  0  0  0  0  0  0  0
   62.9230   30.9340   50.3660 C   0  0  0  0  0  0  0  0  0  0  0  0
   61.9110   30.0940   49.8290 O   0  0  0  0  0  0  0  0  0  0  0  0
   60.6370   30.4420   50.3460 C   0  0  0  0  0  0  0  0  0  0  0  0
   59.7600   31.0350   49.2290 C   0  0  0  0  0  0  0  0  0  0  0  0
   60.4080   31.0250   47.9040 N   0  0  0  0  0  0  0  0  0  0  0  0
   59.4450   30.9980   46.8070 C   0  0  0  0  0  0  0  0  0  0  0  0
   59.1010   32.2060   46.1320 C   0  0  0  0  0  0  0  0  0  0  0  0
   59.6500   33.4610   46.5110 C   0  0  0  0  0  0  0  0  0  0  0  0
   59.2580   34.6410   45.8850 C   0  0  0  0  0  0  0  0  0  0  0  0
   58.3020   34.6110   44.8790 C   0  0  0  0  0  0  0  0  0  0  0  0
   57.7620   33.3960   44.4650 C   0  0  0  0  0  0  0  0  0  0  0  0
   58.1670   32.1710   45.0590 C   0  0  0  0  0  0  0  0  0  0  0  0
   57.6460   30.9710   44.6310 N   0  0  0  0  0  0  0  0  0  0  0  0
   56.9610   30.8850   43.3230 C   0  0  0  0  0  0  0  0  0  0  0  0
   57.7780   29.8450   45.4120 C   0  0  0  0  0  0  0  0  0  0  0  0
   56.9570   28.7110   45.1920 C   0  0  0  0  0  0  0  0  0  0  0  0
   57.1210   27.5360   45.9210 C   0  0  0  0  0  0  0  0  0  0  0  0
   56.2430   26.4680   45.6680 O   0  0  0  0  0  0  0  0  0  0  0  0
   56.3730   25.1520   46.2040 C   0  0  0  0  0  0  0  0  0  0  0  0
   55.9690   24.0930   45.1520 C   0  0  0  0  0  0  0  0  0  0  0  0
   57.0390   23.7400   44.1700 N   0  0  0  0  0  0  0  0  0  0  0  0
   56.5670   22.7200   43.2010 C   0  0  0  0  0  0  0  0  0  0  0  0
   58.2550   23.2470   44.8630 C   0  0  0  0  0  0  0  0  0  0  0  0
   57.3980   24.9690   43.4200 C   0  0  0  0  0  0  0  0  0  0  0  0
   58.1410   27.4660   46.8730 C   0  0  0  0  0  0  0  0  0  0  0  0
   58.9440   28.5720   47.1300 C   0  0  0  0  0  0  0  0  0  0  0  0
   58.7410   29.8050   46.4590 C   0  0  0  0  0  0  0  0  0  0  0  0
   64.4010   33.9624   46.7326 H   0  0  0  0  0  0  0  0  0  0  0  0
   63.0843   32.9720   46.0169 H   0  0  0  0  0  0  0  0  0  0  0  0
   62.9616   34.7641   46.0169 H   0  0  0  0  0  0  0  0  0  0  0  0
   63.1765   34.4501   48.6583 H   0  0  0  0  0  0  0  0  0  0  0  0
   61.5921   34.2341   47.8255 H   0  0  0  0  0  0  0  0  0  0  0  0
   64.1616   31.0947   48.4877 H   0  0  0  0  0  0  0  0  0  0  0  0
   63.0285   30.8692   47.1122 H   0  0  0  0  0  0  0  0  0  0  0  0
   64.1775   32.2499   47.1122 H   0  0  0  0  0  0  0  0  0  0  0  0
   63.6242   32.9683   50.1695 H   0  0  0  0  0  0  0  0  0  0  0  0
   61.8388   32.7956   50.3891 H   0  0  0  0  0  0  0  0  0  0  0  0
   63.9066   30.5731   50.0308 H   0  0  0  0  0  0  0  0  0  0  0  0
   62.8585   30.9061   51.4638 H   0  0  0  0  0  0  0  0  0  0  0  0
   60.1508   29.5429   50.7524 H   0  0  0  0  0  0  0  0  0  0  0  0
   60.7625   31.1904   51.1424 H   0  0  0  0  0  0  0  0  0  0  0  0
   58.8315   30.4484   49.1669 H   0  0  0  0  0  0  0  0  0  0  0  0
   59.5723   32.0871   49.4893 H   0  0  0  0  0  0  0  0  0  0  0  0
   61.0990   31.7990   47.8450 H   0  0  0  0  0  0  0  0  0  0  0  0
   61.0330   30.1870   47.8340 H   0  0  0  0  0  0  0  0  0  0  0  0
   60.3996   33.5007   47.3150 H   0  0  0  0  0  0  0  0  0  0  0  0
   59.7065   35.5986   46.1880 H   0  0  0  0  0  0  0  0  0  0  0  0
   57.9705   35.5483   44.4082 H   0  0  0  0  0  0  0  0  0  0  0  0
   57.0084   33.3847   43.6637 H   0  0  0  0  0  0  0  0  0  0  0  0
   55.8811   30.7494   43.4828 H   0  0  0  0  0  0  0  0  0  0  0  0
   57.1343   31.8120   42.7567 H   0  0  0  0  0  0  0  0  0  0  0  0
   57.3581   30.0297   42.7567 H   0  0  0  0  0  0  0  0  0  0  0  0
   56.1697   28.7603   44.4254 H   0  0  0  0  0  0  0  0  0  0  0  0
   57.4186   24.9848   46.5021 H   0  0  0  0  0  0  0  0  0  0  0  0
   55.7088   25.0571   47.0757 H   0  0  0  0  0  0  0  0  0  0  0  0
   55.6785   23.1757   45.6850 H   0  0  0  0  0  0  0  0  0  0  0  0
   55.1489   24.5362   44.5680 H   0  0  0  0  0  0  0  0  0  0  0  0
   56.1660   21.8534   43.7470 H   0  0  0  0  0  0  0  0  0  0  0  0
   55.7775   23.1524   42.5688 H   0  0  0  0  0  0  0  0  0  0  0  0
   57.4077   22.3981   42.5688 H   0  0  0  0  0  0  0  0  0  0  0  0
   58.1066   23.3072   45.9513 H   0  0  0  0  0  0  0  0  0  0  0  0
   58.4424   22.2019   44.5757 H   0  0  0  0  0  0  0  0  0  0  0  0
   59.1174   23.8665   44.5757 H   0  0  0  0  0  0  0  0  0  0  0  0
   57.6337   25.7758   44.1295 H   0  0  0  0  0  0  0  0  0  0  0  0
   58.2753   24.7693   42.7872 H   0  0  0  0  0  0  0  0  0  0  0  0
   56.5511   25.2729   42.7872 H   0  0  0  0  0  0  0  0  0  0  0  0
   58.3103   26.5289   47.4236 H   0  0  0  0  0  0  0  0  0  0  0  0
   59.7540   28.4888   47.8696 H   0  0  0  0  0  0  0  0  0  0  0  0
  1  2  1  0
  2  3  1  0
  3  4  1  0
  3  5  1  0
  5  6  1  0
  6  7  1  0
  7  8  1  0
  8  9  1  0
  9 10  1  0
 10 11  1  0
 11 12  2  0
 12 13  1  0
 13 14  2  0
 14 15  1  0
 15 16  2  0
 16 17  1  0
 17 18  2  0
 18 19  1  0
 18 20  1  0
 20 21  2  0
 21 22  1  0
 22 23  1  0
 23 24  1  0
 24 25  1  0
 25 26  1  0
 26 27  1  0
 26 28  1  0
 26 29  1  0
 22 30  2  0
 30 31  1  0
 31 32  2  0
 32 11  1  0
 17 12  1  0
 32 20  1  0
  1 33  1  0
  1 34  1  0
  1 35  1  0
  2 36  1  0
  2 37  1  0
  4 38  1  0
  4 39  1  0
  4 40  1  0
  5 41  1  0
  5 42  1  0
  6 43  1  0
  6 44  1  0
  8 45  1  0
  8 46  1  0
  9 47  1  0
  9 48  1  0
 10 49  1  0
 10 50  1  0
 13 51  1  0
 14 52  1  0
 15 53  1  0
 16 54  1  0
 19 55  1  0
 19 56  1  0
 19 57  1  0
 21 58  1  0
 24 59  1  0
 24 60  1  0
 25 61  1  0
 25 62  1  0
 27 63  1  0
 27 64  1  0
 27 65  1  0
 28 66  1  0
 28 67  1  0
 28 68  1  0
 29 69  1  0
 29 70  1  0
 29 71  1  0
 30 72  1  0
 31 73  1  0
M  CHG  3  10   1  18   1  26   1
M  END
>  <UniqueID>  (11) 
10

>  <SMILES>  (11) 
CCN(C)CCOCC[NH2+]c1c2ccccc2[n+](C)c2cc(OCC[N+](C)(C)C)ccc12

>  <Energy>  (11) 
108.59109449320962

>  <Genealogy>  (11) 
CCN(C)CCOCC[NH2+]c1c2ccccc2[n+](C)c2cc(OCC[N+](C)(C)C)ccc12 (protonated)
CCN(C)CCOCC[NH2+]c1c2ccccc2[n+](C)c2cc(OCC[N+](C)(C)C)ccc12 (3D coordinates assigned)
CCN(C)CCOCC[NH2+]c1c2ccccc2[n+](C)c2cc(OCC[N+](C)(C)C)ccc12 (optimized conformer: 108.59109449320962 kcal/mol)

>  <smiles>  (11) 
CCN(C)CCOCCNc1c2ccccc2[n+](C)c2cc(OCC[N+](C)(C)C)ccc12

>  <score_type>  (11) 
oracle

>  <origin>  (11) 
adg

>  <m_score__min__energy>  (11) 
-2.8500000000000001

>  <m_primary>  (11) 
energy

$$$$
11:0
     RDKit          3D

 55 57  0  0  0  0  0  0  0  0999 V2000
   53.3680   30.0940   51.5110 C   0  0  0  0  0  0  0  0  0  0  0  0
   54.7290   30.7750   51.7270 C   0  0  0  0  0  0  0  0  0  0  0  0
   55.7720   29.9360   52.3880 N   0  0  2  0  0  0  0  0  0  0  0  0
   55.2600   28.9740   53.3820 C   0  0  0  0  0  0  0  0  0  0  0  0
   56.9410   30.7100   52.8820 C   0  0  0  0  0  0  0  0  0  0  0  0
   58.1530   30.7850   51.9270 C   0  0  0  0  0  0  0  0  0  0  0  0
   58.1400   29.6950   50.9410 N   0  0  0  0  0  0  0  0  0  0  0  0
   59.5100   29.4130   50.4860 C   0  0  0  0  0  0  0  0  0  0  0  0
   59.7280   29.8830   49.0390 C   0  0  0  0  0  0  0  0  0  0  0  0
   58.6540   30.7610   48.5630 N   0  0  0  0  0  0  0  0  0  0  0  0
   58.5270   31.2080   47.2000 C   0  0  0  0  0  0  0  0  0  0  0  0
   58.8170   32.5470   46.8770 C   0  0  0  0  0  0  0  0  0  0  0  0
   59.2620   33.4470   47.8690 C   0  0  0  0  0  0  0  0  0  0  0  0
   59.5960   34.7590   47.5440 C   0  0  0  0  0  0  0  0  0  0  0  0
   59.5010   35.1950   46.2290 C   0  0  0  0  0  0  0  0  0  0  0  0
   59.0540   34.3290   45.2320 C   0  0  0  0  0  0  0  0  0  0  0  0
   58.6760   32.9940   45.5340 C   0  0  0  0  0  0  0  0  0  0  0  0
   58.2070   32.1330   44.5600 N   0  0  0  0  0  0  0  0  0  0  0  0
   57.8420   32.6570   43.2240 C   0  0  0  0  0  0  0  0  0  0  0  0
   58.0430   30.7890   44.8420 C   0  0  0  0  0  0  0  0  0  0  0  0
   57.8050   29.8350   43.8200 C   0  0  0  0  0  0  0  0  0  0  0  0
   57.5280   28.5040   44.1270 C   0  0  0  0  0  0  0  0  0  0  0  0
   57.4750   28.0900   45.4530 C   0  0  0  0  0  0  0  0  0  0  0  0
   57.0320   26.2790   45.8710 Br  0  0  0  0  0  0  0  0  0  0  0  0
   57.7620   28.9920   46.4760 C   0  0  0  0  0  0  0  0  0  0  0  0
   58.1190   30.3250   46.1820 C   0  0  0  0  0  0  0  0  0  0  0  0
   52.9130   29.8663   52.4863 H   0  0  0  0  0  0  0  0  0  0  0  0
   52.7066   30.7674   50.9461 H   0  0  0  0  0  0  0  0  0  0  0  0
   53.5104   29.1610   50.9461 H   0  0  0  0  0  0  0  0  0  0  0  0
   55.1142   31.0812   50.7432 H   0  0  0  0  0  0  0  0  0  0  0  0
   54.5400   31.6151   52.4115 H   0  0  0  0  0  0  0  0  0  0  0  0
   56.1680   29.3360   51.6240 H   0  0  0  0  0  0  0  0  0  0  0  0
   55.4611   29.3518   54.3953 H   0  0  0  0  0  0  0  0  0  0  0  0
   54.1757   28.8484   53.2460 H   0  0  0  0  0  0  0  0  0  0  0  0
   55.7614   28.0044   53.2460 H   0  0  0  0  0  0  0  0  0  0  0  0
   56.6046   31.7382   53.0810 H   0  0  0  0  0  0  0  0  0  0  0  0
   57.2976   30.1739   53.7739 H   0  0  0  0  0  0  0  0  0  0  0  0
   58.1275   31.7471   51.3944 H   0  0  0  0  0  0  0  0  0  0  0  0
   59.0687   30.6902   52.5290 H   0  0  0  0  0  0  0  0  0  0  0  0
   57.5880   30.0270   50.1150 H   0  0  0  0  0  0  0  0  0  0  0  0
   60.2202   29.9362   51.1431 H   0  0  0  0  0  0  0  0  0  0  0  0
   59.6708   28.3255   50.5248 H   0  0  0  0  0  0  0  0  0  0  0  0
   60.6803   30.4310   48.9863 H   0  0  0  0  0  0  0  0  0  0  0  0
   59.7375   28.9901   48.3967 H   0  0  0  0  0  0  0  0  0  0  0  0
   58.0270   31.1960   49.2770 H   0  0  0  0  0  0  0  0  0  0  0  0
   59.3460   33.1076   48.9120 H   0  0  0  0  0  0  0  0  0  0  0  0
   59.9353   35.4505   48.3293 H   0  0  0  0  0  0  0  0  0  0  0  0
   59.7796   36.2279   45.9729 H   0  0  0  0  0  0  0  0  0  0  0  0
   58.9931   34.6861   44.1934 H   0  0  0  0  0  0  0  0  0  0  0  0
   57.2168   33.5545   43.3404 H   0  0  0  0  0  0  0  0  0  0  0  0
   58.7560   32.9162   42.6696 H   0  0  0  0  0  0  0  0  0  0  0  0
   57.2820   31.8895   42.6696 H   0  0  0  0  0  0  0  0  0  0  0  0
   57.8396   30.1509   42.7669 H   0  0  0  0  0  0  0  0  0  0  0  0
   57.3510   27.7796   43.3184 H   0  0  0  0  0  0  0  0  0  0  0  0
   57.7096   28.6611   47.5238 H   0  0  0  0  0  0  0  0  0  0  0  0
  1  2  1  0
  2  3  1  0
  3  4  1  0
  3  5  1  0
  5  6  1  0
  6  7  1  0
  7  8  1  0
  8  9  1  0
  9 10  1  0
 10 11  1  0
 11 12  2  0
 12 13  1  0
 13 14  2  0
 14 15  1  0
 15 16  2  0
 16 17  1  0
 17 18  2  0
 18 19  1  0
 18 20  1  0
 20 21  2  0
 21 22  1  0
 22 23  2  0
 23 24  1  0
 23 25  1  0
 25 26  2  0
 26 11  1  0
 17 12  1  0
 26 20  1  0
  1 27  1  0
  1 28  1  0
  1 29  1  0
  2 30  1  0
  2 31  1  0
  3 32  1  6
  4 33  1  0
  4 34  1  0
  4 35  1  0
  5 36  1  0
  5 37  1  0
  6 38  1  0
  6 39  1  0
  7 40  1  0
  8 41  1  0
  8 42  1  0
  9 43  1  0
  9 44  1  0
 10 45  1  0
 13 46  1  0
 14 47  1  0
 15 48  1  0
 16 49  1  0
 19 50  1  0
 19 51  1  0
 19 52  1  0
 21 53  1  0
 22 54  1  0
 25 55  1  0
M  CHG  2   3   1  18   1
M  END
>  <UniqueID>  (12) 
11

>  <SMILES>  (12) 
CC[N@H+](C)CCNCCNc1c2ccccc2[n+](C)c2ccc(Br)cc12

>  <Energy>  (12) 
83.31245946492686

>  <Genealogy>  (12) 
CC[NH+](C)CCNCCNc1c2ccccc2[n+](C)c2ccc(Br)cc12 (protonated)
CC[N@H+](C)CCNCCNc1c2ccccc2[n+](C)c2ccc(Br)cc12 (chirality)
CC[N@H+](C)CCNCCNc1c2ccccc2[n+](C)c2ccc(Br)cc12 (3D coordinates assigned)
CC[N@H+](C)CCNCCNc1c2ccccc2[n+](C)c2ccc(Br)cc12 (optimized conformer: 83.31245946492686 kcal/mol)

>  <smiles>  (12) 
CCN(C)CCNCCNc1c2ccccc2[n+](C)c2ccc(Br)cc12

>  <score_type>  (12) 
oracle

>  <origin>  (12) 
adg

>  <m_score__min__energy>  (12) 
-4.71

>  <m_primary>  (12) 
energy

$$$$
12:0
     RDKit          3D

 43 45  0  0  0  0  0  0  0  0999 V2000
   63.5906   34.6317   49.5016 H   0  0  0  0  0  0  0  0  0  0  0  0
   62.8750   34.0340   48.9180 C   0  0  0  0  0  0  0  0  0  0  0  0
   61.5020   34.2200   49.0930 C   0  0  0  0  0  0  0  0  0  0  0  0
   61.1374   34.9640   49.8165 H   0  0  0  0  0  0  0  0  0  0  0  0
   60.5900   33.4640   48.3520 C   0  0  0  0  0  0  0  0  0  0  0  0
   59.5102   33.6169   48.4955 H   0  0  0  0  0  0  0  0  0  0  0  0
   61.0430   32.5080   47.4230 C   0  0  0  0  0  0  0  0  0  0  0  0
   60.0780   31.7020   46.6350 C   0  0  0  0  0  0  0  0  0  0  0  0
   58.7560   32.0370   46.3640 C   0  0  0  0  0  0  0  0  0  0  0  0
   58.2047   32.9308   46.6914 H   0  0  0  0  0  0  0  0  0  0  0  0
   58.2910   30.9860   45.5860 C   0  0  0  0  0  0  0  0  0  0  0  0
   57.1080   30.8470   45.0550 N   0  0  0  0  0  0  0  0  0  0  0  0
   56.6850   31.0400   43.6620 C   0  0  0  0  0  0  0  0  0  0  0  0
   55.7864   31.6741   43.6801 H   0  0  0  0  0  0  0  0  0  0  0  0
   56.2660   29.7210   43.0040 C   0  0  0  0  0  0  0  0  0  0  0  0
   56.0309   28.9810   43.7832 H   0  0  0  0  0  0  0  0  0  0  0  0
   55.3772   29.8895   42.3782 H   0  0  0  0  0  0  0  0  0  0  0  0
   57.0891   29.3457   42.3782 H   0  0  0  0  0  0  0  0  0  0  0  0
   57.7300   31.8070   42.8450 C   0  0  0  0  0  0  0  0  0  0  0  0
   58.4259   32.3177   43.5269 H   0  0  0  0  0  0  0  0  0  0  0  0
   58.2886   31.1029   42.2108 H   0  0  0  0  0  0  0  0  0  0  0  0
   57.2257   32.5510   42.2108 H   0  0  0  0  0  0  0  0  0  0  0  0
   59.2790   30.0830   45.4240 N   0  0  0  0  0  0  0  0  0  0  0  0
   59.2390   28.8720   44.6060 C   0  0  0  0  0  0  0  0  0  0  0  0
   58.6297   29.0570   43.7091 H   0  0  0  0  0  0  0  0  0  0  0  0
   60.2626   28.6002   44.3088 H   0  0  0  0  0  0  0  0  0  0  0  0
   58.6350   27.7440   45.3960 C   0  0  0  0  0  0  0  0  0  0  0  0
   57.2740   27.4310   45.2520 C   0  0  0  0  0  0  0  0  0  0  0  0
   56.6563   27.9899   44.5336 H   0  0  0  0  0  0  0  0  0  0  0  0
   56.7010   26.4120   46.0180 C   0  0  0  0  0  0  0  0  0  0  0  0
   55.6365   26.1640   45.8938 H   0  0  0  0  0  0  0  0  0  0  0  0
   57.4780   25.7080   46.9410 C   0  0  0  0  0  0  0  0  0  0  0  0
   57.0252   24.9063   47.5429 H   0  0  0  0  0  0  0  0  0  0  0  0
   58.8310   26.0220   47.1000 C   0  0  0  0  0  0  0  0  0  0  0  0
   59.4420   25.4681   47.8279 H   0  0  0  0  0  0  0  0  0  0  0  0
   59.4080   27.0400   46.3340 C   0  0  0  0  0  0  0  0  0  0  0  0
   60.4709   27.2902   46.4666 H   0  0  0  0  0  0  0  0  0  0  0  0
   60.3620   30.5200   46.0470 N   0  0  0  0  0  0  0  0  0  0  0  0
   61.2720   30.0090   46.0690 H   0  0  0  0  0  0  0  0  0  0  0  0
   62.4300   32.3270   47.2570 C   0  0  0  0  0  0  0  0  0  0  0  0
   62.8016   31.5824   46.5377 H   0  0  0  0  0  0  0  0  0  0  0  0
   63.3380   33.0880   48.0010 C   0  0  0  0  0  0  0  0  0  0  0  0
   64.4194   32.9408   47.8633 H   0  0  0  0  0  0  0  0  0  0  0  0
  1  2  1  0
  2  3  2  0
  3  4  1  0
  3  5  1  0
  5  6  1  0
  5  7  2  0
  7  8  1  0
  8  9  2  0
  9 10  1  0
  9 11  1  0
 11 12  2  0
 12 13  1  0
 13 14  1  0
 13 15  1  0
 15 16  1  0
 15 17  1  0
 15 18  1  0
 13 19  1  0
 19 20  1  0
 19 21  1  0
 19 22  1  0
 11 23  1  0
 23 24  1  0
 24 25  1  0
 24 26  1  0
 24 27  1  0
 27 28  2  0
 28 29  1  0
 28 30  1  0
 30 31  1  0
 30 32  2  0
 32 33  1  0
 32 34  1  0
 34 35  1  0
 34 36  2  0
 36 37  1  0
 23 38  1  0
 38 39  1  0
  7 40  1  0
 40 41  1  0
 40 42  2  0
 42 43  1  0
 42  2  1  0
 38  8  1  0
 36 27  1  0
M  END
>  <UniqueID>  (13) 
12

>  <SMILES>  (13) 
CC(C)/N=c1\cc(-c2ccccc2)[nH]n1Cc1ccccc1

>  <Energy>  (13) 
76.39166674214178

>  <Genealogy>  (13) 
CC(C)/N=c1\cc(-c2ccccc2)[nH]n1Cc1ccccc1 (cis-trans isomerization)
CC(C)/N=c1\cc(-c2ccccc2)[nH]n1Cc1ccccc1 (3D coordinates assigned)
CC(C)/N=c1\cc(-c2ccccc2)[nH]n1Cc1ccccc1 (optimized conformer: 76.39166674214178 kcal/mol)

>  <smiles>  (13) 
CC(C)N=c1cc(-c2ccccc2)[nH]n1Cc1ccccc1

>  <score_type>  (13) 
oracle

>  <origin>  (13) 
adg

>  <m_score__min__energy>  (13) 
-7

>  <m_primary>  (13) 
energy

$$$$
13:0
     RDKit          3D

 55 57  0  0  0  0  0  0  0  0999 V2000
   59.7340   28.6860   44.8660 C   0  0  0  0  0  0  0  0  0  0  0  0
   59.1450   30.1000   44.9350 C   0  0  0  0  0  0  0  0  0  0  0  0
   58.0930   30.3350   43.9100 N   0  0  0  0  0  0  0  0  0  0  0  0
   56.9880   29.3490   44.0470 C   0  0  0  0  0  0  0  0  0  0  0  0
   55.6080   29.9540   43.7560 C   0  0  0  0  0  0  0  0  0  0  0  0
   57.6040   31.7350   43.9810 C   0  0  0  0  0  0  0  0  0  0  0  0
   58.5040   32.5770   44.7870 N   0  0  0  0  0  0  0  0  0  0  0  0
   57.7720   33.7000   45.3830 C   0  0  0  0  0  0  0  0  0  0  0  0
   57.9750   33.7100   46.8980 C   0  0  0  0  0  0  0  0  0  0  0  0
   58.8230   32.5950   47.3140 N   0  0  0  0  0  0  0  0  0  0  0  0
   59.7720   32.7700   48.3770 C   0  0  0  0  0  0  0  0  0  0  0  0
   59.3930   32.5560   49.7120 C   0  0  0  0  0  0  0  0  0  0  0  0
   58.1090   32.0640   50.0260 C   0  0  0  0  0  0  0  0  0  0  0  0
   57.7540   31.7990   51.3450 C   0  0  0  0  0  0  0  0  0  0  0  0
   58.6710   32.0080   52.3690 C   0  0  0  0  0  0  0  0  0  0  0  0
   59.9440   32.5000   52.0830 C   0  0  0  0  0  0  0  0  0  0  0  0
   60.3260   32.8100   50.7530 C   0  0  0  0  0  0  0  0  0  0  0  0
   61.5760   33.3240   50.4530 N   0  0  0  0  0  0  0  0  0  0  0  0
   62.4370   33.8560   51.5340 C   0  0  0  0  0  0  0  0  0  0  0  0
   62.0130   33.3610   49.1420 C   0  0  0  0  0  0  0  0  0  0  0  0
   63.3670   33.6240   48.8100 C   0  0  0  0  0  0  0  0  0  0  0  0
   63.7800   33.7100   47.4810 C   0  0  0  0  0  0  0  0  0  0  0  0
   62.8650   33.5250   46.4510 C   0  0  0  0  0  0  0  0  0  0  0  0
   61.5360   33.2290   46.7430 C   0  0  0  0  0  0  0  0  0  0  0  0
   61.1010   33.1160   48.0800 C   0  0  0  0  0  0  0  0  0  0  0  0
   59.8928   28.3048   45.8855 H   0  0  0  0  0  0  0  0  0  0  0  0
   59.0368   28.0240   44.3315 H   0  0  0  0  0  0  0  0  0  0  0  0
   60.6950   28.7148   44.3315 H   0  0  0  0  0  0  0  0  0  0  0  0
   58.7045   30.2493   45.9318 H   0  0  0  0  0  0  0  0  0  0  0  0
   59.9624   30.8100   44.7406 H   0  0  0  0  0  0  0  0  0  0  0  0
   58.5280   30.2150   42.9620 H   0  0  0  0  0  0  0  0  0  0  0  0
   57.1650   28.5234   43.3420 H   0  0  0  0  0  0  0  0  0  0  0  0
   56.9828   29.0021   45.0909 H   0  0  0  0  0  0  0  0  0  0  0  0
   55.0982   30.1775   44.7047 H   0  0  0  0  0  0  0  0  0  0  0  0
   55.7290   30.8816   43.1773 H   0  0  0  0  0  0  0  0  0  0  0  0
   55.0077   29.2365   43.1773 H   0  0  0  0  0  0  0  0  0  0  0  0
   57.5457   32.1461   42.9624 H   0  0  0  0  0  0  0  0  0  0  0  0
   56.6126   31.7322   44.4575 H   0  0  0  0  0  0  0  0  0  0  0  0
   59.2350   32.9710   44.1480 H   0  0  0  0  0  0  0  0  0  0  0  0
   58.1448   34.6441   44.9591 H   0  0  0  0  0  0  0  0  0  0  0  0
   56.6999   33.5903   45.1627 H   0  0  0  0  0  0  0  0  0  0  0  0
   58.4530   34.6561   47.1918 H   0  0  0  0  0  0  0  0  0  0  0  0
   56.9945   33.6093   47.3864 H   0  0  0  0  0  0  0  0  0  0  0  0
   58.9050   31.7430   46.7120 H   0  0  0  0  0  0  0  0  0  0  0  0
   57.3811   31.8881   49.2202 H   0  0  0  0  0  0  0  0  0  0  0  0
   56.7466   31.4237   51.5779 H   0  0  0  0  0  0  0  0  0  0  0  0
   58.3911   31.7843   53.4090 H   0  0  0  0  0  0  0  0  0  0  0  0
   60.6631   32.6500   52.9018 H   0  0  0  0  0  0  0  0  0  0  0  0
   62.0061   33.5898   52.5105 H   0  0  0  0  0  0  0  0  0  0  0  0
   63.4443   33.4226   51.4473 H   0  0  0  0  0  0  0  0  0  0  0  0
   62.5001   34.9508   51.4473 H   0  0  0  0  0  0  0  0  0  0  0  0
   64.1038   33.7625   49.6150 H   0  0  0  0  0  0  0  0  0  0  0  0
   64.8331   33.9249   47.2469 H   0  0  0  0  0  0  0  0  0  0  0  0
   63.1911   33.6125   45.4041 H   0  0  0  0  0  0  0  0  0  0  0  0
   60.8181   33.0818   45.9227 H   0  0  0  0  0  0  0  0  0  0  0  0
  1  2  1  0
  2  3  1  0
  3  4  1  0
  4  5  1  0
  3  6  1  0
  6  7  1  0
  7  8  1  0
  8  9  1  0
  9 10  1  0
 10 11  1  0
 11 12  2  0
 12 13  1  0
 13 14  2  0
 14 15  1  0
 15 16  2  0
 16 17  1  0
 17 18  2  0
 18 19  1  0
 18 20  1  0
 20 21  2  0
 21 22  1  0
 22 23  2  0
 23 24  1  0
 24 25  2  0
 25 11  1  0
 17 12  1  0
 25 20  1  0
  1 26  1  0
  1 27  1  0
  1 28  1  0
  2 29  1  0
  2 30  1  0
  3 31  1  0
  4 32  1  0
  4 33  1  0
  5 34  1  0
  5 35  1  0
  5 36  1  0
  6 37  1  0
  6 38  1  0
  7 39  1  0
  8 40  1  0
  8 41  1  0
  9 42  1  0
  9 43  1  0
 10 44  1  0
 13 45  1  0
 14 46  1  0
 15 47  1  0
 16 48  1  0
 19 49  1  0
 19 50  1  0
 19 51  1  0
 21 52  1  0
 22 53  1  0
 23 54  1  0
 24 55  1  0
M  CHG  2   3   1  18   1
M  END
>  <UniqueID>  (14) 
13

>  <SMILES>  (14) 
CC[NH+](CC)CNCCNc1c2ccccc2[n+](C)c2ccccc12

>  <Energy>  (14) 
81.66924121896395

>  <Genealogy>  (14) 
CC[NH+](CC)CNCCNc1c2ccccc2[n+](C)c2ccccc12 (protonated)
CC[NH+](CC)CNCCNc1c2ccccc2[n+](C)c2ccccc12 (3D coordinates assigned)
CC[NH+](CC)CNCCNc1c2ccccc2[n+](C)c2ccccc12 (optimized conformer: 81.66924121896395 kcal/mol)

>  <smiles>  (14) 
CCN(CC)CNCCNc1c2ccccc2[n+](C)c2ccccc12

>  <score_type>  (14) 
oracle

>  <origin>  (14) 
adg

>  <m_score__min__energy>  (14) 
-4.3099999999999996

>  <m_primary>  (14) 
energy

$$$$
14:0
     RDKit          3D

 54 56  0  0  0  0  0  0  0  0999 V2000
   65.1180   32.3530   49.7620 C   0  0  0  0  0  0  0  0  0  0  0  0
   63.9280   33.2350   50.1510 C   0  0  0  0  0  0  0  0  0  0  0  0
   62.8580   33.2770   49.1290 N   0  0  0  0  0  0  0  0  0  0  0  0
   63.2210   34.0200   47.9030 C   0  0  0  0  0  0  0  0  0  0  0  0
   63.6900   33.0670   46.8070 C   0  0  0  0  0  0  0  0  0  0  0  0
   61.4900   33.4950   49.6710 C   0  0  0  0  0  0  0  0  0  0  0  0
   60.4730   32.3800   49.3290 C   0  0  0  0  0  0  0  0  0  0  0  0
   60.9320   31.5190   48.2220 N   0  0  0  0  0  0  0  0  0  0  0  0
   59.9350   31.4120   47.1610 C   0  0  0  0  0  0  0  0  0  0  0  0
   59.5530   32.5670   46.4210 C   0  0  0  0  0  0  0  0  0  0  0  0
   60.1380   33.8370   46.6650 C   0  0  0  0  0  0  0  0  0  0  0  0
   59.7970   34.9480   45.8980 C   0  0  0  0  0  0  0  0  0  0  0  0
   58.8810   34.8260   44.8660 C   0  0  0  0  0  0  0  0  0  0  0  0
   58.2720   33.6010   44.6150 C   0  0  0  0  0  0  0  0  0  0  0  0
   58.5600   32.4600   45.4090 C   0  0  0  0  0  0  0  0  0  0  0  0
   57.9060   31.2650   45.2000 N   0  0  0  0  0  0  0  0  0  0  0  0
   56.6590   31.2380   44.4000 C   0  0  0  0  0  0  0  0  0  0  0  0
   58.3830   30.1030   45.7680 C   0  0  0  0  0  0  0  0  0  0  0  0
   57.9220   28.8340   45.3290 C   0  0  0  0  0  0  0  0  0  0  0  0
   58.3210   27.6490   45.9620 C   0  0  0  0  0  0  0  0  0  0  0  0
   57.8700   26.3790   45.5630 O   0  0  0  0  0  0  0  0  0  0  0  0
   56.6480   25.7670   45.9710 C   0  0  0  0  0  0  0  0  0  0  0  0
   56.3300   24.7250   45.1180 F   0  0  0  0  0  0  0  0  0  0  0  0
   55.6270   26.6980   45.9810 F   0  0  0  0  0  0  0  0  0  0  0  0
   56.8040   25.2640   47.2480 F   0  0  0  0  0  0  0  0  0  0  0  0
   59.1970   27.7220   47.0370 C   0  0  0  0  0  0  0  0  0  0  0  0
   59.7120   28.9440   47.4530 C   0  0  0  0  0  0  0  0  0  0  0  0
   59.3580   30.1560   46.8060 C   0  0  0  0  0  0  0  0  0  0  0  0
   65.6145   31.9850   50.6719 H   0  0  0  0  0  0  0  0  0  0  0  0
   64.7623   31.4987   49.1673 H   0  0  0  0  0  0  0  0  0  0  0  0
   65.8319   32.9418   49.1673 H   0  0  0  0  0  0  0  0  0  0  0  0
   63.4993   32.8466   51.0866 H   0  0  0  0  0  0  0  0  0  0  0  0
   64.3102   34.2609   50.2579 H   0  0  0  0  0  0  0  0  0  0  0  0
   62.3417   34.5756   47.5450 H   0  0  0  0  0  0  0  0  0  0  0  0
   64.0420   34.7121   48.1418 H   0  0  0  0  0  0  0  0  0  0  0  0
   64.1315   32.1698   47.2654 H   0  0  0  0  0  0  0  0  0  0  0  0
   62.8324   32.7756   46.1828 H   0  0  0  0  0  0  0  0  0  0  0  0
   64.4441   33.5687   46.1828 H   0  0  0  0  0  0  0  0  0  0  0  0
   61.5631   33.5678   50.7662 H   0  0  0  0  0  0  0  0  0  0  0  0
   61.1124   34.4146   49.2000 H   0  0  0  0  0  0  0  0  0  0  0  0
   60.3199   31.7558   50.2217 H   0  0  0  0  0  0  0  0  0  0  0  0
   59.5385   32.8651   49.0107 H   0  0  0  0  0  0  0  0  0  0  0  0
   61.2510   30.6030   48.5960 H   0  0  0  0  0  0  0  0  0  0  0  0
   61.8190   31.9050   47.8310 H   0  0  0  0  0  0  0  0  0  0  0  0
   60.8743   33.9456   47.4750 H   0  0  0  0  0  0  0  0  0  0  0  0
   60.2559   35.9245   46.1120 H   0  0  0  0  0  0  0  0  0  0  0  0
   58.6349   35.6993   44.2441 H   0  0  0  0  0  0  0  0  0  0  0  0
   57.5541   33.5147   43.7861 H   0  0  0  0  0  0  0  0  0  0  0  0
   55.7907   31.2192   45.0750 H   0  0  0  0  0  0  0  0  0  0  0  0
   56.6109   32.1353   43.7656 H   0  0  0  0  0  0  0  0  0  0  0  0
   56.6498   30.3394   43.7656 H   0  0  0  0  0  0  0  0  0  0  0  0
   57.2352   28.7796   44.4715 H   0  0  0  0  0  0  0  0  0  0  0  0
   59.4867   26.8018   47.5655 H   0  0  0  0  0  0  0  0  0  0  0  0
   60.4097   28.9721   48.3029 H   0  0  0  0  0  0  0  0  0  0  0  0
  1  2  1  0
  2  3  1  0
  3  4  1  0
  4  5  1  0
  3  6  1  0
  6  7  1  0
  7  8  1  0
  8  9  1  0
  9 10  2  0
 10 11  1  0
 11 12  2  0
 12 13  1  0
 13 14  2  0
 14 15  1  0
 15 16  2  0
 16 17  1  0
 16 18  1  0
 18 19  2  0
 19 20  1  0
 20 21  1  0
 21 22  1  0
 22 23  1  0
 22 24  1  0
 22 25  1  0
 20 26  2  0
 26 27  1  0
 27 28  2  0
 28  9  1  0
 15 10  1  0
 28 18  1  0
  1 29  1  0
  1 30  1  0
  1 31  1  0
  2 32  1  0
  2 33  1  0
  4 34  1  0
  4 35  1  0
  5 36  1  0
  5 37  1  0
  5 38  1  0
  6 39  1  0
  6 40  1  0
  7 41  1  0
  7 42  1  0
  8 43  1  0
  8 44  1  0
 11 45  1  0
 12 46  1  0
 13 47  1  0
 14 48  1  0
 17 49  1  0
 17 50  1  0
 17 51  1  0
 19 52  1  0
 26 53  1  0
 27 54  1  0
M  CHG  2   8   1  16   1
M  END
>  <UniqueID>  (15) 
14

>  <SMILES>  (15) 
CCN(CC)CC[NH2+]c1c2ccccc2[n+](C)c2cc(OC(F)(F)F)ccc12

>  <Energy>  (15) 
90.11065467180363

>  <Genealogy>  (15) 
CCN(CC)CC[NH2+]c1c2ccccc2[n+](C)c2cc(OC(F)(F)F)ccc12 (protonated)
CCN(CC)CC[NH2+]c1c2ccccc2[n+](C)c2cc(OC(F)(F)F)ccc12 (3D coordinates assigned)
CCN(CC)CC[NH2+]c1c2ccccc2[n+](C)c2cc(OC(F)(F)F)ccc12 (optimized conformer: 90.11065467180363 kcal/mol)

>  <smiles>  (15) 
CCN(CC)CCNc1c2ccccc2[n+](C)c2cc(OC(F)(F)F)ccc12

>  <score_type>  (15) 
oracle

>  <origin>  (15) 
adg

>  <m_score__min__energy>  (15) 
-3.5899999999999999

>  <m_primary>  (15) 
energy

$$$$
15:0
     RDKit          3D

 53 55  0  0  0  0  0  0  0  0999 V2000
   63.3940   33.8720   47.0090 C   0  0  0  0  0  0  0  0  0  0  0  0
   63.3930   32.3490   47.0910 C   0  0  0  0  0  0  0  0  0  0  0  0
   63.7740   31.9040   48.4400 N   0  0  0  0  0  0  0  0  0  0  0  0
   63.1370   32.7260   49.4770 C   0  0  0  0  0  0  0  0  0  0  0  0
   62.5050   31.8280   50.5410 C   0  0  0  0  0  0  0  0  0  0  0  0
   62.5570   30.4730   50.1330 O   0  0  0  0  0  0  0  0  0  0  0  0
   61.3500   29.7960   50.4350 C   0  0  0  0  0  0  0  0  0  0  0  0
   60.4610   29.7190   49.1930 C   0  0  0  0  0  0  0  0  0  0  0  0
   60.9930   30.5720   48.1300 N   0  0  0  0  0  0  0  0  0  0  0  0
   60.1770   30.9800   47.0180 C   0  0  0  0  0  0  0  0  0  0  0  0
   59.7720   32.3210   46.8900 C   0  0  0  0  0  0  0  0  0  0  0  0
   60.1980   33.2980   47.8150 C   0  0  0  0  0  0  0  0  0  0  0  0
   59.7390   34.6110   47.7280 C   0  0  0  0  0  0  0  0  0  0  0  0
   58.8490   34.9710   46.7230 C   0  0  0  0  0  0  0  0  0  0  0  0
   58.4460   34.0320   45.7750 C   0  0  0  0  0  0  0  0  0  0  0  0
   58.9350   32.7000   45.8060 C   0  0  0  0  0  0  0  0  0  0  0  0
   58.6090   31.7820   44.8250 N   0  0  0  0  0  0  0  0  0  0  0  0
   57.9910   32.2410   43.5610 C   0  0  0  0  0  0  0  0  0  0  0  0
   58.8990   30.4420   45.0050 C   0  0  0  0  0  0  0  0  0  0  0  0
   58.3660   29.4420   44.1500 C   0  0  0  0  0  0  0  0  0  0  0  0
   58.7180   28.0950   44.2960 C   0  0  0  0  0  0  0  0  0  0  0  0
   58.1180   27.0570   43.3930 C   0  0  0  0  0  0  0  0  0  0  0  0
   59.5720   27.7140   45.3320 C   0  0  0  0  0  0  0  0  0  0  0  0
   60.0710   28.6680   46.2150 C   0  0  0  0  0  0  0  0  0  0  0  0
   59.7300   30.0290   46.0810 C   0  0  0  0  0  0  0  0  0  0  0  0
   63.3943   34.2939   48.0249 H   0  0  0  0  0  0  0  0  0  0  0  0
   64.2924   34.2097   46.4715 H   0  0  0  0  0  0  0  0  0  0  0  0
   62.4961   34.2109   46.4715 H   0  0  0  0  0  0  0  0  0  0  0  0
   62.3852   31.9749   46.8579 H   0  0  0  0  0  0  0  0  0  0  0  0
   64.1217   31.9540   46.3678 H   0  0  0  0  0  0  0  0  0  0  0  0
   63.4290   30.9220   48.5600 H   0  0  0  0  0  0  0  0  0  0  0  0
   63.8943   33.3705   49.9472 H   0  0  0  0  0  0  0  0  0  0  0  0
   62.3539   33.3459   49.0160 H   0  0  0  0  0  0  0  0  0  0  0  0
   63.0545   31.9437   51.4869 H   0  0  0  0  0  0  0  0  0  0  0  0
   61.4536   32.1207   50.6784 H   0  0  0  0  0  0  0  0  0  0  0  0
   61.5815   28.7773   50.7796 H   0  0  0  0  0  0  0  0  0  0  0  0
   60.8172   30.3479   51.2234 H   0  0  0  0  0  0  0  0  0  0  0  0
   60.4239   28.6785   48.8381 H   0  0  0  0  0  0  0  0  0  0  0  0
   59.4507   30.0656   49.4559 H   0  0  0  0  0  0  0  0  0  0  0  0
   62.0320   30.6660   48.0490 H   0  0  0  0  0  0  0  0  0  0  0  0
   60.9008   33.0198   48.6142 H   0  0  0  0  0  0  0  0  0  0  0  0
   60.0811   35.3625   48.4548 H   0  0  0  0  0  0  0  0  0  0  0  0
   58.4617   35.9995   46.6756 H   0  0  0  0  0  0  0  0  0  0  0  0
   57.7362   34.3287   44.9887 H   0  0  0  0  0  0  0  0  0  0  0  0
   57.1268   32.8829   43.7873 H   0  0  0  0  0  0  0  0  0  0  0  0
   58.7289   32.8117   42.9781 H   0  0  0  0  0  0  0  0  0  0  0  0
   57.6579   31.3696   42.9781 H   0  0  0  0  0  0  0  0  0  0  0  0
   57.6617   29.7316   43.3562 H   0  0  0  0  0  0  0  0  0  0  0  0
   57.6592   26.2632   44.0008 H   0  0  0  0  0  0  0  0  0  0  0  0
   57.3500   27.5230   42.7582 H   0  0  0  0  0  0  0  0  0  0  0  0
   58.9051   26.6240   42.7582 H   0  0  0  0  0  0  0  0  0  0  0  0
   59.8517   26.6569   45.4513 H   0  0  0  0  0  0  0  0  0  0  0  0
   60.7412   28.3549   47.0291 H   0  0  0  0  0  0  0  0  0  0  0  0
  1  2  1  0
  2  3  1  0
  3  4  1  0
  4  5  1  0
  5  6  1  0
  6  7  1  0
  7  8  1  0
  8  9  1  0
  9 10  1  0
 10 11  2  0
 11 12  1  0
 12 13  2  0
 13 14  1  0
 14 15  2  0
 15 16  1  0
 16 17  2  0
 17 18  1  0
 17 19  1  0
 19 20  2  0
 20 21  1  0
 21 22  1  0
 21 23  2  0
 23 24  1  0
 24 25  2  0
 25 10  1  0
 16 11  1  0
 25 19  1  0
  1 26  1  0
  1 27  1  0
  1 28  1  0
  2 29  1  0
  2 30  1  0
  3 31  1  0
  4 32  1  0
  4 33  1  0
  5 34  1  0
  5 35  1  0
  7 36  1  0
  7 37  1  0
  8 38  1  0
  8 39  1  0
  9 40  1  0
 12 41  1  0
 13 42  1  0
 14 43  1  0
 15 44  1  0
 18 45  1  0
 18 46  1  0
 18 47  1  0
 20 48  1  0
 22 49  1  0
 22 50  1  0
 22 51  1  0
 23 52  1  0
 24 53  1  0
M  CHG  1  17   1
M  END
>  <UniqueID>  (16) 
15

>  <SMILES>  (16) 
CCNCCOCCNc1c2ccccc2[n+](C)c2cc(C)ccc12

>  <Energy>  (16) 
76.00545655794089

>  <Genealogy>  (16) 
CCNCCOCCNc1c2ccccc2[n+](C)c2cc(C)ccc12 (3D coordinates assigned)
CCNCCOCCNc1c2ccccc2[n+](C)c2cc(C)ccc12 (optimized conformer: 76.00545655794089 kcal/mol)

>  <smiles>  (16) 
CCNCCOCCNc1c2ccccc2[n+](C)c2cc(C)ccc12

>  <score_type>  (16) 
oracle

>  <origin>  (16) 
adg

>  <m_score__min__energy>  (16) 
-6.54

>  <m_primary>  (16) 
energy

$$$$
16:0
     RDKit          3D

 45 48  0  0  0  0  0  0  0  0999 V2000
   63.5410   33.1220   46.8020 C   0  0  0  0  0  0  0  0  0  0  0  0
   62.6680   34.0240   47.4730 O   0  0  0  0  0  0  0  0  0  0  0  0
   62.1840   33.8440   48.7790 C   0  0  0  0  0  0  0  0  0  0  0  0
   63.0150   33.9830   49.9080 C   0  0  0  0  0  0  0  0  0  0  0  0
   62.5090   33.8220   51.1600 N   0  0  0  0  0  0  0  0  0  0  0  0
   61.2010   33.5180   51.3640 C   0  0  0  0  0  0  0  0  0  0  0  0
   60.3390   33.3650   50.2810 C   0  0  0  0  0  0  0  0  0  0  0  0
   60.8240   33.5300   48.9750 C   0  0  0  0  0  0  0  0  0  0  0  0
   59.9120   33.3470   47.8250 C   0  0  0  0  0  0  0  0  0  0  0  0
   59.4910   34.3350   46.9380 C   0  0  0  0  0  0  0  0  0  0  0  0
   58.6880   33.8020   45.9880 N   0  0  0  0  0  0  0  0  0  0  0  0
   58.0610   34.5200   44.8820 C   0  0  0  0  0  0  0  0  0  0  0  0
   58.5930   32.4870   46.2620 C   0  0  0  0  0  0  0  0  0  0  0  0
   57.8640   31.5170   45.5680 C   0  0  0  0  0  0  0  0  0  0  0  0
   57.8950   30.1930   46.0490 C   0  0  0  0  0  0  0  0  0  0  0  0
   57.0200   28.9180   45.2070 S   0  0  0  0  0  0  0  0  0  0  0  0
   55.5960   29.3530   45.0070 O   0  0  0  0  0  0  0  0  0  0  0  0
   57.6390   28.6410   43.8660 O   0  0  0  0  0  0  0  0  0  0  0  0
   57.0460   27.4650   46.1560 N   0  0  0  0  0  0  0  0  0  0  0  0
   56.4860   26.3540   45.7870 C   0  0  0  0  0  0  0  0  0  0  0  0
   57.2150   25.3590   45.2060 N   0  0  0  0  0  0  0  0  0  0  0  0
   56.6320   24.1940   44.8250 C   0  0  0  0  0  0  0  0  0  0  0  0
   55.2660   24.0020   45.0270 C   0  0  0  0  0  0  0  0  0  0  0  0
   54.5330   25.0280   45.6210 C   0  0  0  0  0  0  0  0  0  0  0  0
   55.1530   26.1800   45.9880 N   0  0  0  0  0  0  0  0  0  0  0  0
   58.6380   29.8770   47.2100 C   0  0  0  0  0  0  0  0  0  0  0  0
   59.3610   30.8730   47.8890 C   0  0  0  0  0  0  0  0  0  0  0  0
   59.3280   32.1710   47.3790 C   0  0  0  0  0  0  0  0  0  0  0  0
   64.1059   32.5383   47.5438 H   0  0  0  0  0  0  0  0  0  0  0  0
   62.9505   32.4407   46.1718 H   0  0  0  0  0  0  0  0  0  0  0  0
   64.2413   33.6899   46.1718 H   0  0  0  0  0  0  0  0  0  0  0  0
   64.0803   34.2234   49.7760 H   0  0  0  0  0  0  0  0  0  0  0  0
   63.1420   33.9300   51.9840 H   0  0  0  0  0  0  0  0  0  0  0  0
   60.8211   33.3922   52.3886 H   0  0  0  0  0  0  0  0  0  0  0  0
   59.2809   33.1155   50.4491 H   0  0  0  0  0  0  0  0  0  0  0  0
   59.7712   35.3969   47.0007 H   0  0  0  0  0  0  0  0  0  0  0  0
   57.3868   35.2920   45.2813 H   0  0  0  0  0  0  0  0  0  0  0  0
   58.8384   34.9952   44.2657 H   0  0  0  0  0  0  0  0  0  0  0  0
   57.4854   33.8137   44.2657 H   0  0  0  0  0  0  0  0  0  0  0  0
   57.2827   31.7798   44.6719 H   0  0  0  0  0  0  0  0  0  0  0  0
   57.2363   23.4026   44.3576 H   0  0  0  0  0  0  0  0  0  0  0  0
   54.7784   23.0634   44.7249 H   0  0  0  0  0  0  0  0  0  0  0  0
   53.4534   24.9052   45.7925 H   0  0  0  0  0  0  0  0  0  0  0  0
   58.6503   28.8429   47.5849 H   0  0  0  0  0  0  0  0  0  0  0  0
   59.9361   30.6358   48.7962 H   0  0  0  0  0  0  0  0  0  0  0  0
  1  2  1  0
  2  3  1  0
  3  4  2  0
  4  5  1  0
  5  6  2  0
  6  7  1  0
  7  8  2  0
  8  9  1  0
  9 10  2  0
 10 11  1  0
 11 12  1  0
 11 13  1  0
 13 14  2  0
 14 15  1  0
 15 16  1  0
 16 17  2  0
 16 18  2  0
 16 19  1  0
 19 20  2  3
 20 21  1  0
 21 22  2  0
 22 23  1  0
 23 24  2  0
 24 25  1  0
 15 26  2  0
 26 27  1  0
 27 28  2  0
  8  3  1  0
 28  9  1  0
 28 13  1  0
 25 20  1  0
  1 29  1  0
  1 30  1  0
  1 31  1  0
  4 32  1  0
  5 33  1  0
  6 34  1  0
  7 35  1  0
 10 36  1  0
 12 37  1  0
 12 38  1  0
 12 39  1  0
 14 40  1  0
 22 41  1  0
 23 42  1  0
 24 43  1  0
 26 44  1  0
 27 45  1  0
M  CHG  2   5   1  25  -1
M  END
>  <UniqueID>  (17) 
16

>  <SMILES>  (17) 
COc1c[nH+]ccc1-c1cn(C)c2cc(S(=O)(=O)N=c3nccc[n-]3)ccc12

>  <Energy>  (17) 
91.14512938242376

>  <Genealogy>  (17) 
COc1c[nH+]ccc1-c1cn(C)c2cc(S(=O)(=O)N=c3nccc[n-]3)ccc12 (protonated)
COc1c[nH+]ccc1-c1cn(C)c2cc(S(=O)(=O)N=c3nccc[n-]3)ccc12 (3D coordinates assigned)
COc1c[nH+]ccc1-c1cn(C)c2cc(S(=O)(=O)N=c3nccc[n-]3)ccc12 (optimized conformer: 91.14512938242376 kcal/mol)

>  <smiles>  (17) 
COc1cnccc1-c1cn(C)c2cc(S(=O)(=O)N=c3nccc[nH]3)ccc12

>  <score_type>  (17) 
oracle

>  <origin>  (17) 
adg

>  <m_score__min__energy>  (17) 
-9.3499999999999996

>  <m_primary>  (17) 
energy

$$$$
17:0
     RDKit          3D

 44 47  0  0  0  0  0  0  0  0999 V2000
   56.6710   23.3160   45.3750 C   0  0  0  0  0  0  0  0  0  0  0  0
   56.8040   24.6990   45.8080 N   0  0  0  0  0  0  0  0  0  0  0  0
   57.9080   25.2530   46.3410 C   0  0  0  0  0  0  0  0  0  0  0  0
   57.6010   26.5510   46.6880 C   0  0  0  0  0  0  0  0  0  0  0  0
   58.4930   27.5460   47.3630 C   0  0  0  0  0  0  0  0  0  0  0  0
   59.5290   28.0250   46.4220 N   0  0  0  0  0  0  0  0  0  0  0  0
   59.8780   29.4420   46.6400 C   0  0  0  0  0  0  0  0  0  0  0  0
   58.6940   30.3820   46.3660 C   0  0  0  0  0  0  0  0  0  0  0  0
   57.9480   30.0230   45.1030 C   0  0  0  0  0  0  0  0  0  0  0  0
   58.1290   28.7600   44.4950 C   0  0  0  0  0  0  0  0  0  0  0  0
   57.4010   28.4330   43.3440 C   0  0  0  0  0  0  0  0  0  0  0  0
   56.4720   29.3300   42.8180 C   0  0  0  0  0  0  0  0  0  0  0  0
   56.2670   30.5660   43.4300 C   0  0  0  0  0  0  0  0  0  0  0  0
   56.9980   30.9240   44.5780 C   0  0  0  0  0  0  0  0  0  0  0  0
   56.8080   32.1580   45.2260 O   0  0  0  0  0  0  0  0  0  0  0  0
   57.4540   33.3840   44.8820 C   0  0  0  0  0  0  0  0  0  0  0  0
   58.3720   33.8210   45.9790 C   0  0  0  0  0  0  0  0  0  0  0  0
   58.2910   33.3630   47.2470 N   0  0  0  0  0  0  0  0  0  0  0  0
   59.2150   33.9490   48.0560 C   0  0  0  0  0  0  0  0  0  0  0  0
   60.0300   34.8890   47.4370 C   0  0  0  0  0  0  0  0  0  0  0  0
   59.5730   34.9850   45.8210 S   0  0  0  0  0  0  0  0  0  0  0  0
   59.1680   27.7890   45.0090 C   0  0  0  0  0  0  0  0  0  0  0  0
   56.2710   26.7160   46.3520 C   0  0  0  0  0  0  0  0  0  0  0  0
   55.8040   25.5690   45.8220 N   0  0  0  0  0  0  0  0  0  0  0  0
   56.6080   22.6604   46.2560 H   0  0  0  0  0  0  0  0  0  0  0  0
   55.7582   23.2071   44.7708 H   0  0  0  0  0  0  0  0  0  0  0  0
   57.5463   23.0351   44.7708 H   0  0  0  0  0  0  0  0  0  0  0  0
   58.8813   24.7586   46.4757 H   0  0  0  0  0  0  0  0  0  0  0  0
   57.8906   28.4002   47.7056 H   0  0  0  0  0  0  0  0  0  0  0  0
   58.9835   27.0637   48.2214 H   0  0  0  0  0  0  0  0  0  0  0  0
   60.1980   29.5710   47.6845 H   0  0  0  0  0  0  0  0  0  0  0  0
   60.6842   29.7022   45.9383 H   0  0  0  0  0  0  0  0  0  0  0  0
   57.9966   30.3269   47.2149 H   0  0  0  0  0  0  0  0  0  0  0  0
   59.0973   31.3973   46.2377 H   0  0  0  0  0  0  0  0  0  0  0  0
   57.5631   27.4626   42.8520 H   0  0  0  0  0  0  0  0  0  0  0  0
   55.8994   29.0619   41.9179 H   0  0  0  0  0  0  0  0  0  0  0  0
   55.5286   31.2663   43.0125 H   0  0  0  0  0  0  0  0  0  0  0  0
   58.0358   33.2397   43.9597 H   0  0  0  0  0  0  0  0  0  0  0  0
   56.6877   34.1586   44.7311 H   0  0  0  0  0  0  0  0  0  0  0  0
   59.3099   33.6969   49.1225 H   0  0  0  0  0  0  0  0  0  0  0  0
   60.8320   35.4678   47.9185 H   0  0  0  0  0  0  0  0  0  0  0  0
   58.7705   26.7677   44.9145 H   0  0  0  0  0  0  0  0  0  0  0  0
   60.0783   27.9323   44.4083 H   0  0  0  0  0  0  0  0  0  0  0  0
   55.6867   27.6370   46.4945 H   0  0  0  0  0  0  0  0  0  0  0  0
  1  2  1  0
  2  3  1  0
  3  4  2  0
  4  5  1  0
  5  6  1  0
  6  7  1  0
  7  8  1  0
  8  9  1  0
  9 10  2  0
 10 11  1  0
 11 12  2  0
 12 13  1  0
 13 14  2  0
 14 15  1  0
 15 16  1  0
 16 17  1  0
 17 18  2  0
 18 19  1  0
 19 20  2  0
 20 21  1  0
 10 22  1  0
  4 23  1  0
 23 24  2  0
 24  2  1  0
 22  6  1  0
 14  9  1  0
 21 17  1  0
  1 25  1  0
  1 26  1  0
  1 27  1  0
  3 28  1  0
  5 29  1  0
  5 30  1  0
  7 31  1  0
  7 32  1  0
  8 33  1  0
  8 34  1  0
 11 35  1  0
 12 36  1  0
 13 37  1  0
 16 38  1  0
 16 39  1  0
 19 40  1  0
 20 41  1  0
 22 42  1  0
 22 43  1  0
 23 44  1  0
M  END
>  <UniqueID>  (18) 
17

>  <SMILES>  (18) 
Cn1cc(CN2CCc3c(cccc3OCc3nccs3)C2)cn1

>  <Energy>  (18) 
109.96812365952732

>  <Genealogy>  (18) 
Cn1cc(CN2CCc3c(cccc3OCc3nccs3)C2)cn1 (3D coordinates assigned)
Cn1cc(CN2CCc3c(cccc3OCc3nccs3)C2)cn1 (nonaromatic ring conformer: 109.96812365952732 kcal/mol)

>  <smiles>  (18) 
Cn1cc(CN2CCc3c(cccc3OCc3nccs3)C2)cn1

>  <score_type>  (18) 
oracle

>  <origin>  (18) 
adg

>  <m_score__min__energy>  (18) 
-7.75

>  <m_primary>  (18) 
energy

$$$$
18:0
     RDKit          3D

 40 43  0  0  0  0  0  0  0  0999 V2000
   58.8680   28.2330   48.6540 C   0  0  0  0  0  0  0  0  0  0  0  0
   59.8960   29.2200   48.1730 C   0  0  0  0  0  0  0  0  0  0  0  0
   60.7250   29.8710   49.1020 C   0  0  0  0  0  0  0  0  0  0  0  0
   61.6950   30.7790   48.6700 C   0  0  0  0  0  0  0  0  0  0  0  0
   61.8530   31.0400   47.3070 C   0  0  0  0  0  0  0  0  0  0  0  0
   61.0450   30.3890   46.3730 C   0  0  0  0  0  0  0  0  0  0  0  0
   60.0700   29.4730   46.7940 C   0  0  0  0  0  0  0  0  0  0  0  0
   59.2630   28.7990   45.8100 N   0  0  0  0  0  0  0  0  0  0  0  0
   59.4970   27.4800   45.5220 C   0  0  0  0  0  0  0  0  0  0  0  0
   60.4160   26.8440   46.1080 O   0  0  0  0  0  0  0  0  0  0  0  0
   58.7150   26.8250   44.5640 C   0  0  0  0  0  0  0  0  0  0  0  0
   57.7240   27.4980   43.9220 N   0  0  0  0  0  0  0  0  0  0  0  0
   57.4800   28.8070   44.2040 C   0  0  0  0  0  0  0  0  0  0  0  0
   56.4660   29.5190   43.5570 C   0  0  0  0  0  0  0  0  0  0  0  0
   56.2530   30.8220   43.8700 N   0  0  0  0  0  0  0  0  0  0  0  0
   57.0040   31.4560   44.8140 C   0  0  0  0  0  0  0  0  0  0  0  0
   56.7960   32.8060   45.1200 O   0  0  0  0  0  0  0  0  0  0  0  0
   57.7430   33.6580   45.7050 C   0  0  0  0  0  0  0  0  0  0  0  0
   58.4850   34.5070   44.8720 C   0  0  0  0  0  0  0  0  0  0  0  0
   59.4470   35.3660   45.4130 C   0  0  0  0  0  0  0  0  0  0  0  0
   59.6850   35.3720   46.7900 C   0  0  0  0  0  0  0  0  0  0  0  0
   58.9670   34.5150   47.6260 C   0  0  0  0  0  0  0  0  0  0  0  0
   58.0020   33.6550   47.0890 C   0  0  0  0  0  0  0  0  0  0  0  0
   58.0000   30.7810   45.4450 N   0  0  0  0  0  0  0  0  0  0  0  0
   58.2590   29.4730   45.1680 C   0  0  0  0  0  0  0  0  0  0  0  0
   58.8566   28.2221   49.7539 H   0  0  0  0  0  0  0  0  0  0  0  0
   57.8757   28.5254   48.2799 H   0  0  0  0  0  0  0  0  0  0  0  0
   59.1198   27.2297   48.2799 H   0  0  0  0  0  0  0  0  0  0  0  0
   60.6096   29.6645   50.1763 H   0  0  0  0  0  0  0  0  0  0  0  0
   62.3354   31.2892   49.4046 H   0  0  0  0  0  0  0  0  0  0  0  0
   62.6143   31.7587   46.9694 H   0  0  0  0  0  0  0  0  0  0  0  0
   61.1739   30.5958   45.3003 H   0  0  0  0  0  0  0  0  0  0  0  0
   58.9022   25.7664   44.3308 H   0  0  0  0  0  0  0  0  0  0  0  0
   57.1510   26.9950   43.2080 H   0  0  0  0  0  0  0  0  0  0  0  0
   55.8430   29.0249   42.7969 H   0  0  0  0  0  0  0  0  0  0  0  0
   58.3095   34.4975   43.7861 H   0  0  0  0  0  0  0  0  0  0  0  0
   60.0168   36.0375   44.7540 H   0  0  0  0  0  0  0  0  0  0  0  0
   60.4380   36.0519   47.2151 H   0  0  0  0  0  0  0  0  0  0  0  0
   59.1600   34.5156   48.7089 H   0  0  0  0  0  0  0  0  0  0  0  0
   57.4445   32.9750   47.7499 H   0  0  0  0  0  0  0  0  0  0  0  0
  1  2  1  0
  2  3  2  0
  3  4  1  0
  4  5  2  0
  5  6  1  0
  6  7  2  0
  7  8  1  0
  8  9  1  0
  9 10  2  0
  9 11  1  0
 11 12  2  0
 12 13  1  0
 13 14  2  0
 14 15  1  0
 15 16  2  0
 16 17  1  0
 17 18  1  0
 18 19  2  0
 19 20  1  0
 20 21  2  0
 21 22  1  0
 22 23  2  0
 16 24  1  0
 24 25  2  0
  7  2  1  0
 25  8  1  0
 25 13  1  0
 23 18  1  0
  1 26  1  0
  1 27  1  0
  1 28  1  0
  3 29  1  0
  4 30  1  0
  5 31  1  0
  6 32  1  0
 11 33  1  0
 12 34  1  0
 14 35  1  0
 19 36  1  0
 20 37  1  0
 21 38  1  0
 22 39  1  0
 23 40  1  0
M  CHG  1  12   1
M  END
>  <UniqueID>  (19) 
18

>  <SMILES>  (19) 
Cc1ccccc1-n1c(=O)c[nH+]c2cnc(Oc3ccccc3)nc21

>  <Energy>  (19) 
63.706024926443135

>  <Genealogy>  (19) 
Cc1ccccc1-n1c(=O)c[nH+]c2cnc(Oc3ccccc3)nc21 (protonated)
Cc1ccccc1-n1c(=O)c[nH+]c2cnc(Oc3ccccc3)nc21 (3D coordinates assigned)
Cc1ccccc1-n1c(=O)c[nH+]c2cnc(Oc3ccccc3)nc21 (optimized conformer: 63.706024926443135 kcal/mol)

>  <smiles>  (19) 
Cc1ccccc1-n1c(=O)cnc2cnc(Oc3ccccc3)nc21

>  <score_type>  (19) 
oracle

>  <origin>  (19) 
adg

>  <m_score__min__energy>  (19) 
-6.3399999999999999

>  <m_primary>  (19) 
energy

$$$$
19:0
     RDKit          3D

 45 47  0  0  0  0  0  0  0  0999 V2000
   55.5160   29.7000   46.0800 H   0  0  0  0  0  0  0  0  0  0  0  0
   56.0560   29.5370   45.2410 O   0  0  0  0  0  0  0  0  0  0  0  0
   57.0090   30.4480   44.8480 N   0  0  0  0  0  0  0  0  0  0  0  0
   57.9590   30.8370   45.6420 C   0  0  0  0  0  0  0  0  0  0  0  0
   58.3680   32.2610   45.6450 C   0  0  0  0  0  0  0  0  0  0  0  0
   59.6540   32.6790   46.0670 C   0  0  0  0  0  0  0  0  0  0  0  0
   60.6600   31.7630   46.4020 O   0  0  0  0  0  0  0  0  0  0  0  0
   61.7820   32.0690   47.1890 C   0  0  0  0  0  0  0  0  0  0  0  0
   62.6540   33.0710   46.7540 C   0  0  0  0  0  0  0  0  0  0  0  0
   62.4591   33.5906   45.8042 H   0  0  0  0  0  0  0  0  0  0  0  0
   63.7720   33.4170   47.5180 C   0  0  0  0  0  0  0  0  0  0  0  0
   64.4445   34.2146   47.1693 H   0  0  0  0  0  0  0  0  0  0  0  0
   64.0440   32.7580   48.7230 C   0  0  0  0  0  0  0  0  0  0  0  0
   65.1760   33.1550   49.4530 O   0  0  0  0  0  0  0  0  0  0  0  0
   66.0380   32.2850   50.1870 C   0  0  0  0  0  0  0  0  0  0  0  0
   66.3623   31.4624   49.5327 H   0  0  0  0  0  0  0  0  0  0  0  0
   65.4865   31.8905   51.0532 H   0  0  0  0  0  0  0  0  0  0  0  0
   67.2650   33.0370   50.6900 C   0  0  0  0  0  0  0  0  0  0  0  0
   67.2684   33.0391   51.7900 H   0  0  0  0  0  0  0  0  0  0  0  0
   68.1753   32.5415   50.3215 H   0  0  0  0  0  0  0  0  0  0  0  0
   67.2367   34.0730   50.3215 H   0  0  0  0  0  0  0  0  0  0  0  0
   63.1740   31.7380   49.1560 C   0  0  0  0  0  0  0  0  0  0  0  0
   63.3746   31.2123   50.1012 H   0  0  0  0  0  0  0  0  0  0  0  0
   62.0580   31.3910   48.3910 C   0  0  0  0  0  0  0  0  0  0  0  0
   61.3917   30.5840   48.7297 H   0  0  0  0  0  0  0  0  0  0  0  0
   59.9350   34.0080   46.1550 N   0  0  0  0  0  0  0  0  0  0  0  0
   59.0320   34.9620   45.8110 C   0  0  0  0  0  0  0  0  0  0  0  0
   59.2967   36.0261   45.8989 H   0  0  0  0  0  0  0  0  0  0  0  0
   57.7710   34.5950   45.3470 C   0  0  0  0  0  0  0  0  0  0  0  0
   57.0442   35.3641   45.0466 H   0  0  0  0  0  0  0  0  0  0  0  0
   57.4390   33.2430   45.2670 C   0  0  0  0  0  0  0  0  0  0  0  0
   56.4438   32.9445   44.9058 H   0  0  0  0  0  0  0  0  0  0  0  0
   58.6260   29.8960   46.4990 N   0  0  0  0  0  0  0  0  0  0  0  0
   59.4050   28.7770   45.9990 C   0  0  0  0  0  0  0  0  0  0  0  0
   58.7634   28.0825   45.4368 H   0  0  0  0  0  0  0  0  0  0  0  0
   60.1988   29.1064   45.3125 H   0  0  0  0  0  0  0  0  0  0  0  0
   59.9740   28.0940   47.2350 C   0  0  0  0  0  0  0  0  0  0  0  0
   59.4017   27.1835   47.4663 H   0  0  0  0  0  0  0  0  0  0  0  0
   61.0204   27.7912   47.0825 H   0  0  0  0  0  0  0  0  0  0  0  0
   59.8440   29.1060   48.3720 C   0  0  0  0  0  0  0  0  0  0  0  0
   59.5354   28.6015   49.2995 H   0  0  0  0  0  0  0  0  0  0  0  0
   60.8014   29.6074   48.5770 H   0  0  0  0  0  0  0  0  0  0  0  0
   58.7770   30.0990   47.9290 C   0  0  0  0  0  0  0  0  0  0  0  0
   57.8277   29.8997   48.4477 H   0  0  0  0  0  0  0  0  0  0  0  0
   59.0609   31.1350   48.1658 H   0  0  0  0  0  0  0  0  0  0  0  0
  1  2  1  0
  2  3  1  0
  3  4  2  0
  4  5  1  0
  5  6  1  0
  6  7  1  0
  7  8  1  0
  8  9  2  0
  9 10  1  0
  9 11  1  0
 11 12  1  0
 11 13  2  0
 13 14  1  0
 14 15  1  0
 15 16  1  0
 15 17  1  0
 15 18  1  0
 18 19  1  0
 18 20  1  0
 18 21  1  0
 13 22  1  0
 22 23  1  0
 22 24  2  0
 24 25  1  0
  6 26  2  0
 26 27  1  0
 27 28  1  0
 27 29  2  0
 29 30  1  0
 29 31  1  0
 31 32  1  0
  4 33  1  0
 33 34  1  0
 34 35  1  0
 34 36  1  0
 34 37  1  0
 37 38  1  0
 37 39  1  0
 37 40  1  0
 40 41  1  0
 40 42  1  0
 40 43  1  0
 43 44  1  0
 43 45  1  0
 31  5  2  0
 43 33  1  0
 24  8  1  0
M  END
>  <UniqueID>  (20) 
19

>  <SMILES>  (20) 
CCOc1ccc(Oc2ncccc2/C(=N/O)N2CCCC2)cc1

>  <Energy>  (20) 
58.32495035382331

>  <Genealogy>  (20) 
CCOc1ccc(Oc2ncccc2/C(=N/O)N2CCCC2)cc1 (cis-trans isomerization)
CCOc1ccc(Oc2ncccc2/C(=N/O)N2CCCC2)cc1 (3D coordinates assigned)
CCOc1ccc(Oc2ncccc2/C(=N/O)N2CCCC2)cc1 (nonaromatic ring conformer: 58.32495035382331 kcal/mol)

>  <smiles>  (20) 
CCOc1ccc(Oc2ncccc2C(=NO)N2CCCC2)cc1

>  <score_type>  (20) 
oracle

>  <origin>  (20) 
adg

>  <m_score__min__energy>  (20) 
-7.9900000000000002

>  <m_primary>  (20) 
energy

$$$$
20:0
     RDKit          3D

 49 51  0  0  0  0  0  0  0  0999 V2000
   59.4060   35.2080   46.1550 C   0  0  0  0  0  0  0  0  0  0  0  0
   59.1860   33.9230   45.8630 C   0  0  0  0  0  0  0  0  0  0  0  0
   59.9020   32.8700   46.5240 N   0  0  0  0  0  0  0  0  0  0  0  0
   59.4040   31.6520   45.9620 C   0  0  0  0  0  0  0  0  0  0  0  0
   59.8570   30.3980   46.3710 C   0  0  0  0  0  0  0  0  0  0  0  0
   60.8460   30.3080   47.4040 N   0  0  0  0  0  0  0  0  0  0  0  0
   60.4720   30.5240   48.8010 C   0  0  0  0  0  0  0  0  0  0  0  0
   61.2790   31.6810   49.4070 C   0  0  0  0  0  0  0  0  0  0  0  0
   61.6920   32.6630   48.3790 N   0  0  0  0  0  0  0  0  0  0  0  0
   61.4920   34.0610   48.8250 C   0  0  0  0  0  0  0  0  0  0  0  0
   60.1120   34.2070   49.4540 C   0  0  0  0  0  0  0  0  0  0  0  0
   63.0450   32.4390   47.8070 C   0  0  0  0  0  0  0  0  0  0  0  0
   63.4590   33.4630   46.7380 C   0  0  0  0  0  0  0  0  0  0  0  0
   59.3280   29.2470   45.7580 C   0  0  0  0  0  0  0  0  0  0  0  0
   59.8050   27.9650   46.0950 C   0  0  0  0  0  0  0  0  0  0  0  0
   59.2780   26.8290   45.4850 C   0  0  0  0  0  0  0  0  0  0  0  0
   58.2740   26.9510   44.5300 C   0  0  0  0  0  0  0  0  0  0  0  0
   57.7960   28.2120   44.1680 C   0  0  0  0  0  0  0  0  0  0  0  0
   58.3120   29.3870   44.7660 C   0  0  0  0  0  0  0  0  0  0  0  0
   57.8610   30.6470   44.4060 N   0  0  0  0  0  0  0  0  0  0  0  0
   56.8010   30.7960   43.3900 C   0  0  0  0  0  0  0  0  0  0  0  0
   58.4210   31.7570   44.9920 C   0  0  0  0  0  0  0  0  0  0  0  0
   57.9810   33.4520   44.6210 S   0  0  0  0  0  0  0  0  0  0  0  0
   58.8425   35.9950   45.6325 H   0  0  0  0  0  0  0  0  0  0  0  0
   60.1506   35.4790   46.9179 H   0  0  0  0  0  0  0  0  0  0  0  0
   59.7010   32.8970   47.5510 H   0  0  0  0  0  0  0  0  0  0  0  0
   60.9260   32.9600   46.3290 H   0  0  0  0  0  0  0  0  0  0  0  0
   61.8530   30.3080   47.1230 H   0  0  0  0  0  0  0  0  0  0  0  0
   59.4000   30.7647   48.8546 H   0  0  0  0  0  0  0  0  0  0  0  0
   60.6867   29.6074   49.3700 H   0  0  0  0  0  0  0  0  0  0  0  0
   60.6590   32.1920   50.1584 H   0  0  0  0  0  0  0  0  0  0  0  0
   62.1880   31.2612   49.8625 H   0  0  0  0  0  0  0  0  0  0  0  0
   62.2613   34.3218   49.5667 H   0  0  0  0  0  0  0  0  0  0  0  0
   61.5706   34.7345   47.9588 H   0  0  0  0  0  0  0  0  0  0  0  0
   60.2057   34.1971   50.5500 H   0  0  0  0  0  0  0  0  0  0  0  0
   59.6615   35.1578   49.1331 H   0  0  0  0  0  0  0  0  0  0  0  0
   59.4725   33.3715   49.1331 H   0  0  0  0  0  0  0  0  0  0  0  0
   63.7769   32.4825   48.6270 H   0  0  0  0  0  0  0  0  0  0  0  0
   63.0174   31.4585   47.3091 H   0  0  0  0  0  0  0  0  0  0  0  0
   63.8281   34.3759   47.2282 H   0  0  0  0  0  0  0  0  0  0  0  0
   64.2553   33.0363   46.1104 H   0  0  0  0  0  0  0  0  0  0  0  0
   62.5899   33.7096   46.1104 H   0  0  0  0  0  0  0  0  0  0  0  0
   60.6010   27.8601   46.8469 H   0  0  0  0  0  0  0  0  0  0  0  0
   59.6566   25.8333   45.7591 H   0  0  0  0  0  0  0  0  0  0  0  0
   57.8548   26.0502   44.0580 H   0  0  0  0  0  0  0  0  0  0  0  0
   57.0064   28.2938   43.4065 H   0  0  0  0  0  0  0  0  0  0  0  0
   55.8306   30.9324   43.8898 H   0  0  0  0  0  0  0  0  0  0  0  0
   57.0162   31.6727   42.7615 H   0  0  0  0  0  0  0  0  0  0  0  0
   56.7661   29.8939   42.7615 H   0  0  0  0  0  0  0  0  0  0  0  0
  1  2  2  0
  2  3  1  0
  3  4  1  0
  4  5  2  0
  5  6  1  0
  6  7  1  0
  7  8  1  0
  8  9  1  0
  9 10  1  0
 10 11  1  0
  9 12  1  0
 12 13  1  0
  5 14  1  0
 14 15  2  0
 15 16  1  0
 16 17  2  0
 17 18  1  0
 18 19  2  0
 19 20  1  0
 20 21  1  0
 20 22  2  0
 22 23  1  0
 23  2  1  0
 22  4  1  0
 19 14  1  0
  1 24  1  0
  1 25  1  0
  3 26  1  0
  3 27  1  0
  6 28  1  0
  7 29  1  0
  7 30  1  0
  8 31  1  0
  8 32  1  0
 10 33  1  0
 10 34  1  0
 11 35  1  0
 11 36  1  0
 11 37  1  0
 12 38  1  0
 12 39  1  0
 13 40  1  0
 13 41  1  0
 13 42  1  0
 15 43  1  0
 16 44  1  0
 17 45  1  0
 18 46  1  0
 21 47  1  0
 21 48  1  0
 21 49  1  0
M  CHG  2   3   1  20   1
M  END
>  <UniqueID>  (21) 
20

>  <SMILES>  (21) 
C=C1[NH2+]c2c(NCCN(CC)CC)c3ccccc3[n+](C)c2S1

>  <Energy>  (21) 
82.16570677203312

>  <Genealogy>  (21) 
C=C1[NH2+]c2c(NCCN(CC)CC)c3ccccc3[n+](C)c2S1 (protonated)
C=C1[NH2+]c2c(NCCN(CC)CC)c3ccccc3[n+](C)c2S1 (3D coordinates assigned)
C=C1[NH2+]c2c(NCCN(CC)CC)c3ccccc3[n+](C)c2S1 (nonaromatic ring conformer: 82.16570677203312 kcal/mol)

>  <smiles>  (21) 
C=C1Nc2c(NCCN(CC)CC)c3ccccc3[n+](C)c2S1

>  <score_type>  (21) 
oracle

>  <origin>  (21) 
adg

>  <m_score__min__energy>  (21) 
-3.54

>  <m_primary>  (21) 
energy

$$$$
21:0
     RDKit          3D

 76 78  0  0  0  0  0  0  0  0999 V2000
   59.2710   29.5360   52.8550 C   0  0  0  0  0  0  0  0  0  0  0  0
   59.5240   31.0180   52.5870 C   0  0  0  0  0  0  0  0  0  0  0  0
   58.7410   31.5070   51.4290 N   0  0  0  0  0  0  0  0  0  0  0  0
   57.3660   30.9590   51.3470 C   0  0  0  0  0  0  0  0  0  0  0  0
   56.3810   31.5840   52.3440 C   0  0  0  0  0  0  0  0  0  0  0  0
   58.7700   32.9840   51.3240 C   0  0  0  0  0  0  0  0  0  0  0  0
   60.0080   33.4260   50.5470 C   0  0  0  0  0  0  0  0  0  0  0  0
   60.0740   32.7450   49.2910 O   0  0  0  0  0  0  0  0  0  0  0  0
   59.6960   33.2570   48.0380 C   0  0  0  0  0  0  0  0  0  0  0  0
   59.8860   34.6160   47.7440 C   0  0  0  0  0  0  0  0  0  0  0  0
   59.6370   35.1070   46.4740 C   0  0  0  0  0  0  0  0  0  0  0  0
   59.1630   34.2660   45.4790 C   0  0  0  0  0  0  0  0  0  0  0  0
   58.8690   32.9050   45.7430 C   0  0  0  0  0  0  0  0  0  0  0  0
   59.1580   32.3850   47.0410 C   0  0  0  0  0  0  0  0  0  0  0  0
   58.9000   31.0130   47.2950 C   0  0  0  0  0  0  0  0  0  0  0  0
   59.0570   30.4680   48.6200 N   0  0  0  0  0  0  0  0  0  0  0  0
   59.5450   29.1100   48.8730 C   0  0  0  0  0  0  0  0  0  0  0  0
   60.8120   29.1410   49.7270 C   0  0  0  0  0  0  0  0  0  0  0  0
   61.2860   30.5230   49.8700 N   0  0  0  0  0  0  0  0  0  0  0  0
   62.5970   30.5710   50.5350 C   0  0  0  0  0  0  0  0  0  0  0  0
   63.5010   31.6730   49.9460 C   0  0  0  0  0  0  0  0  0  0  0  0
   62.7770   32.5650   48.9970 N   0  0  1  0  0  0  0  0  0  0  0  0
   63.0560   33.9790   49.3210 C   0  0  0  0  0  0  0  0  0  0  0  0
   63.1630   32.2760   47.5890 C   0  0  0  0  0  0  0  0  0  0  0  0
   63.3480   33.5510   46.7610 C   0  0  0  0  0  0  0  0  0  0  0  0
   58.4470   30.1820   46.2480 C   0  0  0  0  0  0  0  0  0  0  0  0
   58.1660   28.8140   46.4650 C   0  0  0  0  0  0  0  0  0  0  0  0
   57.8180   27.9780   45.4060 C   0  0  0  0  0  0  0  0  0  0  0  0
   57.7380   28.4860   44.1170 C   0  0  0  0  0  0  0  0  0  0  0  0
   57.9460   29.8450   43.8890 C   0  0  0  0  0  0  0  0  0  0  0  0
   58.2450   30.7320   44.9570 C   0  0  0  0  0  0  0  0  0  0  0  0
   58.3260   32.0940   44.7640 N   0  0  0  0  0  0  0  0  0  0  0  0
   57.7770   32.6940   43.5250 C   0  0  0  0  0  0  0  0  0  0  0  0
   59.2409   29.3596   53.9403 H   0  0  0  0  0  0  0  0  0  0  0  0
   58.3096   29.2416   52.4088 H   0  0  0  0  0  0  0  0  0  0  0  0
   60.0803   28.9393   52.4088 H   0  0  0  0  0  0  0  0  0  0  0  0
   59.2393   31.5952   53.4791 H   0  0  0  0  0  0  0  0  0  0  0  0
   60.5920   31.1474   52.3578 H   0  0  0  0  0  0  0  0  0  0  0  0
   56.9850   31.1332   50.3299 H   0  0  0  0  0  0  0  0  0  0  0  0
   57.4354   29.8903   51.5979 H   0  0  0  0  0  0  0  0  0  0  0  0
   56.7146   31.3723   53.3706 H   0  0  0  0  0  0  0  0  0  0  0  0
   56.3424   32.6722   52.1880 H   0  0  0  0  0  0  0  0  0  0  0  0
   55.3800   31.1555   52.1880 H   0  0  0  0  0  0  0  0  0  0  0  0
   57.8673   33.3301   50.7992 H   0  0  0  0  0  0  0  0  0  0  0  0
   58.8025   33.4181   52.3342 H   0  0  0  0  0  0  0  0  0  0  0  0
   59.9574   34.5104   50.3698 H   0  0  0  0  0  0  0  0  0  0  0  0
   60.9055   33.1821   51.1343 H   0  0  0  0  0  0  0  0  0  0  0  0
   60.2368   35.2988   48.5318 H   0  0  0  0  0  0  0  0  0  0  0  0
   59.8161   36.1696   46.2532 H   0  0  0  0  0  0  0  0  0  0  0  0
   59.0121   34.6630   44.4643 H   0  0  0  0  0  0  0  0  0  0  0  0
   58.8030   31.0720   49.4340 H   0  0  0  0  0  0  0  0  0  0  0  0
   58.7672   28.5396   49.4017 H   0  0  0  0  0  0  0  0  0  0  0  0
   59.7797   28.6336   47.9097 H   0  0  0  0  0  0  0  0  0  0  0  0
   60.5913   28.7266   50.7218 H   0  0  0  0  0  0  0  0  0  0  0  0
   61.5926   28.5398   49.2378 H   0  0  0  0  0  0  0  0  0  0  0  0
   60.6000   31.0290   50.4780 H   0  0  0  0  0  0  0  0  0  0  0  0
   62.4453   30.7703   51.6061 H   0  0  0  0  0  0  0  0  0  0  0  0
   63.0943   29.6024   50.3782 H   0  0  0  0  0  0  0  0  0  0  0  0
   63.8950   32.2836   50.7718 H   0  0  0  0  0  0  0  0  0  0  0  0
   64.3074   31.1769   49.3860 H   0  0  0  0  0  0  0  0  0  0  0  0
   61.7440   32.4250   49.1130 H   0  0  0  0  0  0  0  0  0  0  0  0
   63.0812   34.1068   50.4133 H   0  0  0  0  0  0  0  0  0  0  0  0
   64.0284   34.2677   48.8955 H   0  0  0  0  0  0  0  0  0  0  0  0
   62.2661   34.6154   48.8955 H   0  0  0  0  0  0  0  0  0  0  0  0
   64.1092   31.7151   47.5901 H   0  0  0  0  0  0  0  0  0  0  0  0
   62.3499   31.6937   47.1311 H   0  0  0  0  0  0  0  0  0  0  0  0
   63.4728   34.4112   47.4352 H   0  0  0  0  0  0  0  0  0  0  0  0
   64.2409   33.4498   46.1265 H   0  0  0  0  0  0  0  0  0  0  0  0
   62.4632   33.7078   46.1265 H   0  0  0  0  0  0  0  0  0  0  0  0
   58.2228   28.4036   47.4840 H   0  0  0  0  0  0  0  0  0  0  0  0
   57.6065   26.9146   45.5918 H   0  0  0  0  0  0  0  0  0  0  0  0
   57.5103   27.8158   43.2750 H   0  0  0  0  0  0  0  0  0  0  0  0
   57.8774   30.2376   42.8637 H   0  0  0  0  0  0  0  0  0  0  0  0
   57.0559   33.4821   43.7876 H   0  0  0  0  0  0  0  0  0  0  0  0
   58.5964   33.1289   42.9339 H   0  0  0  0  0  0  0  0  0  0  0  0
   57.2712   31.9163   42.9339 H   0  0  0  0  0  0  0  0  0  0  0  0
  1  2  1  0
  2  3  1  0
  3  4  1  0
  4  5  1  0
  3  6  1  0
  6  7  1  0
  7  8  1  0
  8  9  1  0
  9 10  2  0
 10 11  1  0
 11 12  2  0
 12 13  1  0
 13 14  2  0
 14 15  1  0
 15 16  1  0
 16 17  1  0
 17 18  1  0
 18 19  1  0
 19 20  1  0
 20 21  1  0
 21 22  1  0
 22 23  1  0
 22 24  1  0
 24 25  1  0
 15 26  2  0
 26 27  1  0
 27 28  2  0
 28 29  1  0
 29 30  2  0
 30 31  1  0
 31 32  2  0
 32 33  1  0
 14  9  1  0
 31 26  1  0
 32 13  1  0
  1 34  1  0
  1 35  1  0
  1 36  1  0
  2 37  1  0
  2 38  1  0
  4 39  1  0
  4 40  1  0
  5 41  1  0
  5 42  1  0
  5 43  1  0
  6 44  1  0
  6 45  1  0
  7 46  1  0
  7 47  1  0
 10 48  1  0
 11 49  1  0
 12 50  1  0
 16 51  1  0
 17 52  1  0
 17 53  1  0
 18 54  1  0
 18 55  1  0
 19 56  1  0
 20 57  1  0
 20 58  1  0
 21 59  1  0
 21 60  1  0
 22 61  1  6
 23 62  1  0
 23 63  1  0
 23 64  1  0
 24 65  1  0
 24 66  1  0
 25 67  1  0
 25 68  1  0
 25 69  1  0
 27 70  1  0
 28 71  1  0
 29 72  1  0
 30 73  1  0
 33 74  1  0
 33 75  1  0
 33 76  1  0
M  CHG  2  22   1  32   1
M  END
>  <UniqueID>  (22) 
21

>  <SMILES>  (22) 
CCN(CC)CCOc1cccc2c1c(NCCNCC[N@@H+](C)CC)c1ccccc1[n+]2C

>  <Energy>  (22) 
103.1216969666531

>  <Genealogy>  (22) 
CCN(CC)CCOc1cccc2c1c(NCCNCC[NH+](C)CC)c1ccccc1[n+]2C (protonated)
CCN(CC)CCOc1cccc2c1c(NCCNCC[N@@H+](C)CC)c1ccccc1[n+]2C (chirality)
CCN(CC)CCOc1cccc2c1c(NCCNCC[N@@H+](C)CC)c1ccccc1[n+]2C (3D coordinates assigned)
CCN(CC)CCOc1cccc2c1c(NCCNCC[N@@H+](C)CC)c1ccccc1[n+]2C (optimized conformer: 103.1216969666531 kcal/mol)

>  <smiles>  (22) 
CCN(C)CCNCCNc1c2ccccc2[n+](C)c2cccc(OCCN(CC)CC)c12

>  <score_type>  (22) 
oracle

>  <origin>  (22) 
adg

>  <m_score__min__energy>  (22) 
-3.4500000000000002

>  <m_primary>  (22) 
energy

$$$$
22:0
     RDKit          3D

 51 53  0  0  0  0  0  0  0  0999 V2000
   58.1420   27.0750   43.2020 C   0  0  0  0  0  0  0  0  0  0  0  0
   59.1220   27.7830   44.1340 C   0  0  0  0  0  0  0  0  0  0  0  0
   58.7580   27.5200   45.5470 N   0  0  0  0  0  0  0  0  0  0  0  0
   57.3690   27.0340   45.6320 C   0  0  0  0  0  0  0  0  0  0  0  0
   59.6780   26.5330   46.1620 C   0  0  0  0  0  0  0  0  0  0  0  0
   60.2740   27.0970   47.4590 C   0  0  0  0  0  0  0  0  0  0  0  0
   59.9330   28.5830   47.6530 C   0  0  0  0  0  0  0  0  0  0  0  0
   60.5460   29.4160   46.6140 N   0  0  0  0  0  0  0  0  0  0  0  0
   60.3380   30.8420   46.5790 C   0  0  0  0  0  0  0  0  0  0  0  0
   61.3010   31.7110   47.1230 C   0  0  0  0  0  0  0  0  0  0  0  0
   62.4500   31.2030   47.7740 C   0  0  0  0  0  0  0  0  0  0  0  0
   63.4300   32.0620   48.2660 C   0  0  0  0  0  0  0  0  0  0  0  0
   63.2900   33.4380   48.1140 C   0  0  0  0  0  0  0  0  0  0  0  0
   62.1490   33.9640   47.5000 C   0  0  0  0  0  0  0  0  0  0  0  0
   61.1080   33.1160   47.0390 C   0  0  0  0  0  0  0  0  0  0  0  0
   59.9330   33.6240   46.5130 N   0  0  0  0  0  0  0  0  0  0  0  0
   59.6120   35.0660   46.6740 C   0  0  0  0  0  0  0  0  0  0  0  0
   59.0390   32.7840   45.8720 C   0  0  0  0  0  0  0  0  0  0  0  0
   57.9620   33.2940   45.1060 C   0  0  0  0  0  0  0  0  0  0  0  0
   57.0300   32.4420   44.5160 C   0  0  0  0  0  0  0  0  0  0  0  0
   57.1400   31.0520   44.6540 C   0  0  0  0  0  0  0  0  0  0  0  0
   56.1550   30.1790   44.0640 N   0  0  0  0  0  0  0  0  0  0  0  0
   56.0960   30.0420   42.8250 O   0  0  0  0  0  0  0  0  0  0  0  0
   55.2770   29.4700   44.8620 O   0  0  0  0  0  0  0  0  0  0  0  0
   58.2350   30.5270   45.3550 C   0  0  0  0  0  0  0  0  0  0  0  0
   59.2010   31.3740   45.9430 C   0  0  0  0  0  0  0  0  0  0  0  0
   57.3934   26.5341   43.7995 H   0  0  0  0  0  0  0  0  0  0  0  0
   57.6373   27.8184   42.5675 H   0  0  0  0  0  0  0  0  0  0  0  0
   58.6892   26.3623   42.5675 H   0  0  0  0  0  0  0  0  0  0  0  0
   60.1393   27.4099   43.9444 H   0  0  0  0  0  0  0  0  0  0  0  0
   59.0808   28.8660   43.9461 H   0  0  0  0  0  0  0  0  0  0  0  0
   57.0799   26.9329   46.6885 H   0  0  0  0  0  0  0  0  0  0  0  0
   56.6986   27.7510   45.1355 H   0  0  0  0  0  0  0  0  0  0  0  0
   57.2919   26.0555   45.1355 H   0  0  0  0  0  0  0  0  0  0  0  0
   59.1224   25.6111   46.3887 H   0  0  0  0  0  0  0  0  0  0  0  0
   60.4944   26.3170   45.4572 H   0  0  0  0  0  0  0  0  0  0  0  0
   59.8739   26.5271   48.3105 H   0  0  0  0  0  0  0  0  0  0  0  0
   61.3684   27.0057   47.3969 H   0  0  0  0  0  0  0  0  0  0  0  0
   58.8408   28.7072   47.6122 H   0  0  0  0  0  0  0  0  0  0  0  0
   60.3278   28.9027   48.6286 H   0  0  0  0  0  0  0  0  0  0  0  0
   61.2720   28.9970   45.9990 H   0  0  0  0  0  0  0  0  0  0  0  0
   62.5709   30.1162   47.8931 H   0  0  0  0  0  0  0  0  0  0  0  0
   64.3150   31.6523   48.7749 H   0  0  0  0  0  0  0  0  0  0  0  0
   64.0784   34.1134   48.4775 H   0  0  0  0  0  0  0  0  0  0  0  0
   62.0566   35.0526   47.3721 H   0  0  0  0  0  0  0  0  0  0  0  0
   59.5572   35.3121   47.7447 H   0  0  0  0  0  0  0  0  0  0  0  0
   60.3973   35.6718   46.1982 H   0  0  0  0  0  0  0  0  0  0  0  0
   58.6439   35.2815   46.1982 H   0  0  0  0  0  0  0  0  0  0  0  0
   57.8595   34.3813   44.9746 H   0  0  0  0  0  0  0  0  0  0  0  0
   56.1978   32.8660   43.9349 H   0  0  0  0  0  0  0  0  0  0  0  0
   58.3439   29.4364   45.4488 H   0  0  0  0  0  0  0  0  0  0  0  0
  1  2  1  0
  2  3  1  0
  3  4  1  0
  3  5  1  0
  5  6  1  0
  6  7  1  0
  7  8  1  0
  8  9  1  0
  9 10  2  0
 10 11  1  0
 11 12  2  0
 12 13  1  0
 13 14  2  0
 14 15  1  0
 15 16  2  0
 16 17  1  0
 16 18  1  0
 18 19  2  0
 19 20  1  0
 20 21  2  0
 21 22  1  0
 22 23  2  0
 22 24  1  0
 21 25  1  0
 25 26  2  0
 26  9  1  0
 15 10  1  0
 26 18  1  0
  1 27  1  0
  1 28  1  0
  1 29  1  0
  2 30  1  0
  2 31  1  0
  4 32  1  0
  4 33  1  0
  4 34  1  0
  5 35  1  0
  5 36  1  0
  6 37  1  0
  6 38  1  0
  7 39  1  0
  7 40  1  0
  8 41  1  0
 11 42  1  0
 12 43  1  0
 13 44  1  0
 14 45  1  0
 17 46  1  0
 17 47  1  0
 17 48  1  0
 19 49  1  0
 20 50  1  0
 25 51  1  0
M  CHG  3  16   1  22   1  24  -1
M  END
>  <UniqueID>  (23) 
22

>  <SMILES>  (23) 
CCN(C)CCCNc1c2ccccc2[n+](C)c2ccc([N+](=O)[O-])cc12

>  <Energy>  (23) 
77.11069528524548

>  <Genealogy>  (23) 
CCN(C)CCCNc1c2ccccc2[n+](C)c2ccc([N+](=O)[O-])cc12 (3D coordinates assigned)
CCN(C)CCCNc1c2ccccc2[n+](C)c2ccc([N+](=O)[O-])cc12 (optimized conformer: 77.11069528524548 kcal/mol)

>  <smiles>  (23) 
CCN(C)CCCNc1c2ccccc2[n+](C)c2ccc([N+](=O)[O-])cc12

>  <score_type>  (23) 
oracle

>  <origin>  (23) 
adg

>  <m_score__min__energy>  (23) 
-6.5800000000000001

>  <m_primary>  (23) 
energy

$$$$
23:0
     RDKit          3D

 20 19  0  0  0  0  0  0  0  0999 V2000
   58.1200   27.0070   42.6250 C   0  0  0  0  0  0  0  0  0  0  0  0
   58.1800   27.4760   44.0820 C   0  0  0  0  0  0  0  0  0  0  0  0
   58.3660   28.9470   44.1860 N   0  0  2  0  0  0  0  0  0  0  0  0
   59.0940   29.2960   45.4170 C   0  0  0  0  0  0  0  0  0  0  0  0
   56.8290   29.7840   44.1840 S   0  0  0  0  0  0  0  0  0  0  0  0
   56.2650   30.1020   42.5260 C   0  0  0  0  0  0  0  0  0  0  0  0
   56.9770   31.1050   44.8890 O   0  0  0  0  0  0  0  0  0  0  0  0
   55.7930   28.9620   44.9020 O   0  0  0  0  0  0  0  0  0  0  0  0
   57.9805   25.9163   42.5964 H   0  0  0  0  0  0  0  0  0  0  0  0
   57.2773   27.4979   42.1162 H   0  0  0  0  0  0  0  0  0  0  0  0
   59.0591   27.2700   42.1162 H   0  0  0  0  0  0  0  0  0  0  0  0
   57.2401   27.2006   44.5828 H   0  0  0  0  0  0  0  0  0  0  0  0
   59.0429   26.9897   44.5603 H   0  0  0  0  0  0  0  0  0  0  0  0
   58.9270   29.3100   43.3780 H   0  0  0  0  0  0  0  0  0  0  0  0
   58.4933   29.0080   46.2924 H   0  0  0  0  0  0  0  0  0  0  0  0
   60.0546   28.7605   45.4392 H   0  0  0  0  0  0  0  0  0  0  0  0
   59.2781   30.3803   45.4392 H   0  0  0  0  0  0  0  0  0  0  0  0
   55.3073   30.6420   42.5617 H   0  0  0  0  0  0  0  0  0  0  0  0
   57.0107   30.7126   41.9958 H   0  0  0  0  0  0  0  0  0  0  0  0
   56.1285   29.1479   41.9958 H   0  0  0  0  0  0  0  0  0  0  0  0
  1  2  1  0
  2  3  1  0
  3  4  1  0
  3  5  1  0
  5  6  1  0
  5  7  2  0
  5  8  2  0
  1  9  1  0
  1 10  1  0
  1 11  1  0
  2 12  1  0
  2 13  1  0
  3 14  1  6
  4 15  1  0
  4 16  1  0
  4 17  1  0
  6 18  1  0
  6 19  1  0
  6 20  1  0
M  CHG  1   3   1
M  END
>  <UniqueID>  (24) 
23

>  <SMILES>  (24) 
CC[N@H+](C)S(C)(=O)=O

>  <Energy>  (24) 
10.390867372686158

>  <Genealogy>  (24) 
CC[NH+](C)S(C)(=O)=O (protonated)
CC[N@H+](C)S(C)(=O)=O (chirality)
CC[N@H+](C)S(C)(=O)=O (3D coordinates assigned)
CC[N@H+](C)S(C)(=O)=O (optimized conformer: 10.390867372686158 kcal/mol)

>  <smiles>  (24) 
CCN(C)S(C)(=O)=O

>  <score_type>  (24) 
oracle

>  <origin>  (24) 
adg

>  <m_score__min__energy>  (24) 
-2.9399999999999999

>  <m_primary>  (24) 
energy

$$$$
24:0
     RDKit          3D

 50 52  0  0  0  0  0  0  0  0999 V2000
   56.3230   29.7030   42.7260 C   0  0  0  0  0  0  0  0  0  0  0  0
   55.8030   29.9770   44.1320 C   0  0  0  0  0  0  0  0  0  0  0  0
   56.6600   30.9590   44.8070 N   0  0  0  0  0  0  0  0  0  0  0  0
   57.6540   31.5530   43.8940 C   0  0  0  0  0  0  0  0  0  0  0  0
   57.9380   33.0310   44.2000 C   0  0  0  0  0  0  0  0  0  0  0  0
   57.4090   33.3720   45.4630 O   0  0  0  0  0  0  0  0  0  0  0  0
   58.4110   33.9830   46.2470 C   0  0  0  0  0  0  0  0  0  0  0  0
   59.1980   32.9090   46.9920 C   0  0  0  0  0  0  0  0  0  0  0  0
   58.3720   31.7230   47.2120 N   0  0  0  0  0  0  0  0  0  0  0  0
   58.8750   30.5960   47.9520 C   0  0  0  0  0  0  0  0  0  0  0  0
   59.1510   29.3820   47.2980 C   0  0  0  0  0  0  0  0  0  0  0  0
   58.8940   29.2240   45.9190 C   0  0  0  0  0  0  0  0  0  0  0  0
   59.1290   28.0080   45.2830 C   0  0  0  0  0  0  0  0  0  0  0  0
   59.6120   26.9260   46.0090 C   0  0  0  0  0  0  0  0  0  0  0  0
   59.8920   27.0610   47.3680 C   0  0  0  0  0  0  0  0  0  0  0  0
   59.7050   28.3000   48.0350 C   0  0  0  0  0  0  0  0  0  0  0  0
   60.0350   28.4660   49.3680 N   0  0  0  0  0  0  0  0  0  0  0  0
   60.8750   27.4580   50.0530 C   0  0  0  0  0  0  0  0  0  0  0  0
   59.5970   29.5830   50.0540 C   0  0  0  0  0  0  0  0  0  0  0  0
   59.6700   29.6660   51.4690 C   0  0  0  0  0  0  0  0  0  0  0  0
   59.2510   30.8100   52.1460 C   0  0  0  0  0  0  0  0  0  0  0  0
   58.7310   31.8910   51.4410 C   0  0  0  0  0  0  0  0  0  0  0  0
   58.1470   33.4490   52.3790 Br  0  0  0  0  0  0  0  0  0  0  0  0
   58.6130   31.8250   50.0550 C   0  0  0  0  0  0  0  0  0  0  0  0
   59.0360   30.6790   49.3470 C   0  0  0  0  0  0  0  0  0  0  0  0
   57.2946   29.1910   42.7877 H   0  0  0  0  0  0  0  0  0  0  0  0
   55.6062   29.0655   42.1877 H   0  0  0  0  0  0  0  0  0  0  0  0
   56.4435   30.6547   42.1877 H   0  0  0  0  0  0  0  0  0  0  0  0
   54.7779   30.3712   44.0699 H   0  0  0  0  0  0  0  0  0  0  0  0
   55.8105   29.0390   44.7066 H   0  0  0  0  0  0  0  0  0  0  0  0
   56.0660   31.7080   45.2340 H   0  0  0  0  0  0  0  0  0  0  0  0
   58.5941   30.9890   43.9837 H   0  0  0  0  0  0  0  0  0  0  0  0
   57.2405   31.5001   42.8760 H   0  0  0  0  0  0  0  0  0  0  0  0
   59.0249   33.2003   44.2024 H   0  0  0  0  0  0  0  0  0  0  0  0
   57.4649   33.6570   43.4291 H   0  0  0  0  0  0  0  0  0  0  0  0
   59.0915   34.5507   45.5953 H   0  0  0  0  0  0  0  0  0  0  0  0
   57.9442   34.6656   46.9724 H   0  0  0  0  0  0  0  0  0  0  0  0
   60.0800   32.6296   46.3971 H   0  0  0  0  0  0  0  0  0  0  0  0
   59.5079   33.3105   47.9681 H   0  0  0  0  0  0  0  0  0  0  0  0
   57.5200   31.5970   46.6210 H   0  0  0  0  0  0  0  0  0  0  0  0
   58.5028   30.0730   45.3391 H   0  0  0  0  0  0  0  0  0  0  0  0
   58.9323   27.9037   44.2058 H   0  0  0  0  0  0  0  0  0  0  0  0
   59.7740   25.9594   45.5095 H   0  0  0  0  0  0  0  0  0  0  0  0
   60.2639   26.1933   47.9326 H   0  0  0  0  0  0  0  0  0  0  0  0
   60.7758   27.5770   51.1420 H   0  0  0  0  0  0  0  0  0  0  0  0
   60.5467   26.4490   49.7630 H   0  0  0  0  0  0  0  0  0  0  0  0
   61.9267   27.5989   49.7630 H   0  0  0  0  0  0  0  0  0  0  0  0
   60.0639   28.8130   52.0410 H   0  0  0  0  0  0  0  0  0  0  0  0
   59.3317   30.8584   53.2420 H   0  0  0  0  0  0  0  0  0  0  0  0
   58.1850   32.6761   49.5051 H   0  0  0  0  0  0  0  0  0  0  0  0
  1  2  1  0
  2  3  1  0
  3  4  1  0
  4  5  1  0
  5  6  1  0
  6  7  1  0
  7  8  1  0
  8  9  1  0
  9 10  1  0
 10 11  2  0
 11 12  1  0
 12 13  2  0
 13 14  1  0
 14 15  2  0
 15 16  1  0
 16 17  2  0
 17 18  1  0
 17 19  1  0
 19 20  2  0
 20 21  1  0
 21 22  2  0
 22 23  1  0
 22 24  1  0
 24 25  2  0
 25 10  1  0
 16 11  1  0
 25 19  1  0
  1 26  1  0
  1 27  1  0
  1 28  1  0
  2 29  1  0
  2 30  1  0
  3 31  1  0
  4 32  1  0
  4 33  1  0
  5 34  1  0
  5 35  1  0
  7 36  1  0
  7 37  1  0
  8 38  1  0
  8 39  1  0
  9 40  1  0
 12 41  1  0
 13 42  1  0
 14 43  1  0
 15 44  1  0
 18 45  1  0
 18 46  1  0
 18 47  1  0
 20 48  1  0
 21 49  1  0
 24 50  1  0
M  CHG  1  17   1
M  END
>  <UniqueID>  (25) 
24

>  <SMILES>  (25) 
CCNCCOCCNc1c2ccccc2[n+](C)c2ccc(Br)cc12

>  <Energy>  (25) 
69.78121966032786

>  <Genealogy>  (25) 
CCNCCOCCNc1c2ccccc2[n+](C)c2ccc(Br)cc12 (3D coordinates assigned)
CCNCCOCCNc1c2ccccc2[n+](C)c2ccc(Br)cc12 (optimized conformer: 69.78121966032786 kcal/mol)

>  <smiles>  (25) 
CCNCCOCCNc1c2ccccc2[n+](C)c2ccc(Br)cc12

>  <score_type>  (25) 
oracle

>  <origin>  (25) 
adg

>  <m_score__min__energy>  (25) 
-6.2000000000000002

>  <m_primary>  (25) 
energy

$$$$
25:0
     RDKit          3D

 63 65  0  0  0  0  0  0  0  0999 V2000
   62.4060   29.9240   51.3250 C   0  0  0  0  0  0  0  0  0  0  0  0
   63.1040   31.2830   51.2900 C   0  0  0  0  0  0  0  0  0  0  0  0
   62.8680   31.9670   50.0100 N   0  0  0  0  0  0  0  0  0  0  0  0
   64.1330   32.1380   49.2780 C   0  0  0  0  0  0  0  0  0  0  0  0
   64.1290   33.4020   48.3970 C   0  0  0  0  0  0  0  0  0  0  0  0
   62.9370   33.4650   47.4220 C   0  0  0  0  0  0  0  0  0  0  0  0
   61.6920   33.0520   48.0860 N   0  0  0  0  0  0  0  0  0  0  0  0
   61.0050   34.2150   48.6640 C   0  0  0  0  0  0  0  0  0  0  0  0
   60.0750   33.7750   49.7940 C   0  0  0  0  0  0  0  0  0  0  0  0
   60.3160   32.3640   50.1170 N   0  0  0  0  0  0  0  0  0  0  0  0
   59.0570   31.6490   50.3510 C   0  0  0  0  0  0  0  0  0  0  0  0
   58.8800   30.5360   49.3160 C   0  0  0  0  0  0  0  0  0  0  0  0
   59.6560   30.8170   48.1070 N   0  0  0  0  0  0  0  0  0  0  0  0
   59.0540   30.7350   46.8010 C   0  0  0  0  0  0  0  0  0  0  0  0
   58.5750   31.8930   46.1630 C   0  0  0  0  0  0  0  0  0  0  0  0
   58.7810   33.1740   46.7230 C   0  0  0  0  0  0  0  0  0  0  0  0
   58.3340   34.3180   46.0670 C   0  0  0  0  0  0  0  0  0  0  0  0
   57.6780   34.2090   44.8460 C   0  0  0  0  0  0  0  0  0  0  0  0
   57.4470   32.9550   44.2840 C   0  0  0  0  0  0  0  0  0  0  0  0
   57.8570   31.7690   44.9430 C   0  0  0  0  0  0  0  0  0  0  0  0
   57.5850   30.5170   44.4230 N   0  0  0  0  0  0  0  0  0  0  0  0
   56.5810   30.3670   43.3470 C   0  0  0  0  0  0  0  0  0  0  0  0
   58.2360   29.4060   44.9250 C   0  0  0  0  0  0  0  0  0  0  0  0
   58.2220   28.1620   44.2420 C   0  0  0  0  0  0  0  0  0  0  0  0
   58.8650   27.0430   44.7730 C   0  0  0  0  0  0  0  0  0  0  0  0
   59.5520   27.1360   45.9780 C   0  0  0  0  0  0  0  0  0  0  0  0
   59.6120   28.3520   46.6550 C   0  0  0  0  0  0  0  0  0  0  0  0
   58.9620   29.4950   46.1420 C   0  0  0  0  0  0  0  0  0  0  0  0
   62.2494   29.6191   52.3702 H   0  0  0  0  0  0  0  0  0  0  0  0
   61.4342   29.9977   50.8150 H   0  0  0  0  0  0  0  0  0  0  0  0
   63.0320   29.1770   50.8150 H   0  0  0  0  0  0  0  0  0  0  0  0
   62.7155   31.9075   52.1079 H   0  0  0  0  0  0  0  0  0  0  0  0
   64.1861   31.1229   51.4060 H   0  0  0  0  0  0  0  0  0  0  0  0
   62.4450   32.9070   50.1990 H   0  0  0  0  0  0  0  0  0  0  0  0
   62.2070   31.3980   49.4300 H   0  0  0  0  0  0  0  0  0  0  0  0
   64.9552   32.2152   50.0047 H   0  0  0  0  0  0  0  0  0  0  0  0
   64.2622   31.2671   48.6186 H   0  0  0  0  0  0  0  0  0  0  0  0
   64.0898   34.2841   49.0530 H   0  0  0  0  0  0  0  0  0  0  0  0
   65.0451   33.3766   47.7886 H   0  0  0  0  0  0  0  0  0  0  0  0
   62.8250   34.4965   47.0567 H   0  0  0  0  0  0  0  0  0  0  0  0
   63.1322   32.7791   46.5845 H   0  0  0  0  0  0  0  0  0  0  0  0
   61.0510   32.6270   47.3760 H   0  0  0  0  0  0  0  0  0  0  0  0
   61.7525   34.9170   49.0620 H   0  0  0  0  0  0  0  0  0  0  0  0
   60.4083   34.7039   47.8798 H   0  0  0  0  0  0  0  0  0  0  0  0
   60.2664   34.3911   50.6849 H   0  0  0  0  0  0  0  0  0  0  0  0
   59.0303   33.9002   49.4733 H   0  0  0  0  0  0  0  0  0  0  0  0
   60.7870   31.9200   49.2920 H   0  0  0  0  0  0  0  0  0  0  0  0
   59.0713   31.2087   51.3589 H   0  0  0  0  0  0  0  0  0  0  0  0
   58.2204   32.3576   50.2621 H   0  0  0  0  0  0  0  0  0  0  0  0
   59.2208   29.5841   49.7493 H   0  0  0  0  0  0  0  0  0  0  0  0
   57.8159   30.4759   49.0439 H   0  0  0  0  0  0  0  0  0  0  0  0
   60.5810   31.2950   48.2100 H   0  0  0  0  0  0  0  0  0  0  0  0
   59.3004   33.2685   47.6881 H   0  0  0  0  0  0  0  0  0  0  0  0
   58.5000   35.3088   46.5151 H   0  0  0  0  0  0  0  0  0  0  0  0
   57.3403   35.1154   44.3221 H   0  0  0  0  0  0  0  0  0  0  0  0
   56.9374   32.8843   43.3117 H   0  0  0  0  0  0  0  0  0  0  0  0
   55.5861   30.2184   43.7920 H   0  0  0  0  0  0  0  0  0  0  0  0
   56.5725   31.2738   42.7244 H   0  0  0  0  0  0  0  0  0  0  0  0
   56.8379   29.4973   42.7244 H   0  0  0  0  0  0  0  0  0  0  0  0
   57.6963   28.0786   43.2794 H   0  0  0  0  0  0  0  0  0  0  0  0
   58.8281   26.0837   44.2360 H   0  0  0  0  0  0  0  0  0  0  0  0
   60.0487   26.2486   46.3973 H   0  0  0  0  0  0  0  0  0  0  0  0
   60.1718   28.4221   47.5993 H   0  0  0  0  0  0  0  0  0  0  0  0
  1  2  1  0
  2  3  1  0
  3  4  1  0
  4  5  1  0
  5  6  1  0
  6  7  1  0
  7  8  1  0
  8  9  1  0
  9 10  1  0
 10 11  1  0
 11 12  1  0
 12 13  1  0
 13 14  1  0
 14 15  2  0
 15 16  1  0
 16 17  2  0
 17 18  1  0
 18 19  2  0
 19 20  1  0
 20 21  2  0
 21 22  1  0
 21 23  1  0
 23 24  2  0
 24 25  1  0
 25 26  2  0
 26 27  1  0
 27 28  2  0
 28 14  1  0
 20 15  1  0
 28 23  1  0
  1 29  1  0
  1 30  1  0
  1 31  1  0
  2 32  1  0
  2 33  1  0
  3 34  1  0
  3 35  1  0
  4 36  1  0
  4 37  1  0
  5 38  1  0
  5 39  1  0
  6 40  1  0
  6 41  1  0
  7 42  1  0
  8 43  1  0
  8 44  1  0
  9 45  1  0
  9 46  1  0
 10 47  1  0
 11 48  1  0
 11 49  1  0
 12 50  1  0
 12 51  1  0
 13 52  1  0
 16 53  1  0
 17 54  1  0
 18 55  1  0
 19 56  1  0
 22 57  1  0
 22 58  1  0
 22 59  1  0
 24 60  1  0
 25 61  1  0
 26 62  1  0
 27 63  1  0
M  CHG  2   3   1  21   1
M  END
>  <UniqueID>  (26) 
25

>  <SMILES>  (26) 
CC[NH2+]CCCNCCNCCNc1c2ccccc2[n+](C)c2ccccc12

>  <Energy>  (26) 
75.05454137913198

>  <Genealogy>  (26) 
CC[NH2+]CCCNCCNCCNc1c2ccccc2[n+](C)c2ccccc12 (protonated)
CC[NH2+]CCCNCCNCCNc1c2ccccc2[n+](C)c2ccccc12 (3D coordinates assigned)
CC[NH2+]CCCNCCNCCNc1c2ccccc2[n+](C)c2ccccc12 (optimized conformer: 75.05454137913198 kcal/mol)

>  <smiles>  (26) 
CCNCCCNCCNCCNc1c2ccccc2[n+](C)c2ccccc12

>  <score_type>  (26) 
oracle

>  <origin>  (26) 
adg

>  <m_score__min__energy>  (26) 
-5.7800000000000002

>  <m_primary>  (26) 
energy

$$$$
26:0
     RDKit          3D

 38 40  0  0  0  0  0  0  0  0999 V2000
   57.8500   26.4870   43.0250 C   0  0  0  0  0  0  0  0  0  0  0  0
   57.7830   27.5150   44.0610 N   0  0  0  0  0  0  0  0  0  0  0  0
   57.9970   28.8010   43.8320 N   0  0  0  0  0  0  0  0  0  0  0  0
   57.7800   29.4880   44.9740 C   0  0  0  0  0  0  0  0  0  0  0  0
   57.9030   30.9610   45.1140 C   0  0  0  0  0  0  0  0  0  0  0  0
   57.7350   31.8050   43.9990 C   0  0  0  0  0  0  0  0  0  0  0  0
   57.8520   33.1910   44.1360 C   0  0  0  0  0  0  0  0  0  0  0  0
   58.1350   33.7520   45.3820 C   0  0  0  0  0  0  0  0  0  0  0  0
   58.3010   32.9270   46.4960 C   0  0  0  0  0  0  0  0  0  0  0  0
   58.1860   31.5390   46.3670 C   0  0  0  0  0  0  0  0  0  0  0  0
   57.4040   28.5950   45.9670 C   0  0  0  0  0  0  0  0  0  0  0  0
   57.4110   27.3570   45.3500 C   0  0  0  0  0  0  0  0  0  0  0  0
   57.0100   26.0590   46.0060 C   0  0  0  0  0  0  0  0  0  0  0  0
   55.5520   25.8530   46.0000 N   0  0  0  0  0  0  0  0  0  0  0  0
   55.1690   24.4340   46.0600 C   0  0  0  0  0  0  0  0  0  0  0  0
   55.9360   23.6280   45.0570 C   0  0  0  0  0  0  0  0  0  0  0  0
   55.6670   23.5520   43.6970 C   0  0  0  0  0  0  0  0  0  0  0  0
   56.5700   22.7370   43.0040 C   0  0  0  0  0  0  0  0  0  0  0  0
   57.5490   22.1740   43.8140 C   0  0  0  0  0  0  0  0  0  0  0  0
   57.2920   22.6910   45.3930 S   0  0  0  0  0  0  0  0  0  0  0  0
   57.9146   25.4952   43.4963 H   0  0  0  0  0  0  0  0  0  0  0  0
   56.9467   26.5375   42.3994 H   0  0  0  0  0  0  0  0  0  0  0  0
   58.7391   26.6543   42.3994 H   0  0  0  0  0  0  0  0  0  0  0  0
   58.2530   29.1970   42.9010 H   0  0  0  0  0  0  0  0  0  0  0  0
   57.5102   31.3704   43.0138 H   0  0  0  0  0  0  0  0  0  0  0  0
   57.7206   33.8417   43.2589 H   0  0  0  0  0  0  0  0  0  0  0  0
   58.2272   34.8431   45.4864 H   0  0  0  0  0  0  0  0  0  0  0  0
   58.5229   33.3699   47.4781 H   0  0  0  0  0  0  0  0  0  0  0  0
   58.3173   30.8951   47.2491 H   0  0  0  0  0  0  0  0  0  0  0  0
   57.1551   28.8216   47.0143 H   0  0  0  0  0  0  0  0  0  0  0  0
   57.4862   25.2280   45.4650 H   0  0  0  0  0  0  0  0  0  0  0  0
   57.3385   26.0984   47.0551 H   0  0  0  0  0  0  0  0  0  0  0  0
   55.1330   26.3420   46.8240 H   0  0  0  0  0  0  0  0  0  0  0  0
   55.3785   24.0472   47.0682 H   0  0  0  0  0  0  0  0  0  0  0  0
   54.0965   24.3505   45.8303 H   0  0  0  0  0  0  0  0  0  0  0  0
   54.8305   24.0780   43.2138 H   0  0  0  0  0  0  0  0  0  0  0  0
   56.5103   22.5589   41.9202 H   0  0  0  0  0  0  0  0  0  0  0  0
   58.3547   21.5042   43.4791 H   0  0  0  0  0  0  0  0  0  0  0  0
  1  2  1  0
  2  3  1  0
  3  4  2  0
  4  5  1  0
  5  6  2  0
  6  7  1  0
  7  8  2  0
  8  9  1  0
  9 10  2  0
  4 11  1  0
 11 12  2  0
 12 13  1  0
 13 14  1  0
 14 15  1  0
 15 16  1  0
 16 17  2  0
 17 18  1  0
 18 19  2  0
 19 20  1  0
 12  2  1  0
 20 16  1  0
 10  5  1  0
  1 21  1  0
  1 22  1  0
  1 23  1  0
  3 24  1  0
  6 25  1  0
  7 26  1  0
  8 27  1  0
  9 28  1  0
 10 29  1  0
 11 30  1  0
 13 31  1  0
 13 32  1  0
 14 33  1  0
 15 34  1  0
 15 35  1  0
 17 36  1  0
 18 37  1  0
 19 38  1  0
M  CHG  1   3   1
M  END
>  <UniqueID>  (27) 
26

>  <SMILES>  (27) 
Cn1[nH+]c(-c2ccccc2)cc1CNCc1cccs1

>  <Energy>  (27) 
96.67470655017851

>  <Genealogy>  (27) 
Cn1[nH+]c(-c2ccccc2)cc1CNCc1cccs1 (protonated)
Cn1[nH+]c(-c2ccccc2)cc1CNCc1cccs1 (3D coordinates assigned)
Cn1[nH+]c(-c2ccccc2)cc1CNCc1cccs1 (optimized conformer: 96.67470655017851 kcal/mol)

>  <smiles>  (27) 
Cn1nc(-c2ccccc2)cc1CNCc1cccs1

>  <score_type>  (27) 
oracle

>  <origin>  (27) 
adg

>  <m_score__min__energy>  (27) 
-6.0999999999999996

>  <m_primary>  (27) 
energy

$$$$
27:0
     RDKit          3D

 52 54  0  0  0  0  0  0  0  0999 V2000
   56.6180   29.9830   43.0690 C   0  0  0  0  0  0  0  0  0  0  0  0
   57.3550   30.7210   44.1610 C   0  0  0  0  0  0  0  0  0  0  0  0
   57.3990   32.1160   44.1050 C   0  0  0  0  0  0  0  0  0  0  0  0
   58.1390   32.8490   45.0290 C   0  0  0  0  0  0  0  0  0  0  0  0
   58.2640   34.2380   44.8600 C   0  0  0  0  0  0  0  0  0  0  0  0
   59.1150   34.9730   45.6810 C   0  0  0  0  0  0  0  0  0  0  0  0
   59.8800   34.3230   46.6430 C   0  0  0  0  0  0  0  0  0  0  0  0
   59.7540   32.9460   46.8290 C   0  0  0  0  0  0  0  0  0  0  0  0
   58.8120   32.1900   46.0940 C   0  0  0  0  0  0  0  0  0  0  0  0
   58.5940   30.7880   46.2990 C   0  0  0  0  0  0  0  0  0  0  0  0
   58.9320   30.0830   47.5060 C   0  0  0  0  0  0  0  0  0  0  0  0
   59.1050   30.7430   48.8620 C   0  0  0  0  0  0  0  0  0  0  0  0
   60.3750   30.2580   49.5830 C   0  0  0  0  0  0  0  0  0  0  0  0
   61.4230   31.2780   49.4890 N   0  0  0  0  0  0  0  0  0  0  0  0
   61.2760   32.2870   50.5450 C   0  0  0  0  0  0  0  0  0  0  0  0
   62.2980   33.4120   50.3370 C   0  0  0  0  0  0  0  0  0  0  0  0
   62.2380   33.9960   48.9170 C   0  0  0  0  0  0  0  0  0  0  0  0
   62.9270   33.1000   47.9610 N   0  0  0  0  0  0  0  0  0  0  0  0
   64.1200   32.4940   48.5750 C   0  0  0  0  0  0  0  0  0  0  0  0
   63.3110   33.8270   46.7400 C   0  0  0  0  0  0  0  0  0  0  0  0
   58.9040   28.6810   47.5150 C   0  0  0  0  0  0  0  0  0  0  0  0
   58.4500   27.9660   46.4170 C   0  0  0  0  0  0  0  0  0  0  0  0
   57.9450   28.6360   45.3120 C   0  0  0  0  0  0  0  0  0  0  0  0
   57.9680   30.0450   45.2470 C   0  0  0  0  0  0  0  0  0  0  0  0
   55.9091   29.2731   43.5202 H   0  0  0  0  0  0  0  0  0  0  0  0
   56.0685   30.7038   42.4457 H   0  0  0  0  0  0  0  0  0  0  0  0
   57.3395   29.4345   42.4457 H   0  0  0  0  0  0  0  0  0  0  0  0
   56.8401   32.6439   43.3183 H   0  0  0  0  0  0  0  0  0  0  0  0
   57.6864   34.7477   44.0748 H   0  0  0  0  0  0  0  0  0  0  0  0
   59.1820   36.0652   45.5688 H   0  0  0  0  0  0  0  0  0  0  0  0
   60.5874   34.8967   47.2599 H   0  0  0  0  0  0  0  0  0  0  0  0
   60.3996   32.4390   47.5612 H   0  0  0  0  0  0  0  0  0  0  0  0
   59.1710   31.8319   48.7208 H   0  0  0  0  0  0  0  0  0  0  0  0
   58.2383   30.4734   49.4834 H   0  0  0  0  0  0  0  0  0  0  0  0
   60.1437   30.0694   50.6417 H   0  0  0  0  0  0  0  0  0  0  0  0
   60.7288   29.3308   49.1085 H   0  0  0  0  0  0  0  0  0  0  0  0
   61.3310   31.7610   48.5650 H   0  0  0  0  0  0  0  0  0  0  0  0
   60.2596   32.7063   50.5101 H   0  0  0  0  0  0  0  0  0  0  0  0
   61.4499   31.8156   51.5235 H   0  0  0  0  0  0  0  0  0  0  0  0
   62.0921   34.2156   51.0594 H   0  0  0  0  0  0  0  0  0  0  0  0
   63.3020   32.9876   50.4853 H   0  0  0  0  0  0  0  0  0  0  0  0
   61.1861   34.1079   48.6153 H   0  0  0  0  0  0  0  0  0  0  0  0
   62.7388   34.9754   48.9125 H   0  0  0  0  0  0  0  0  0  0  0  0
   64.0315   32.5390   49.6705 H   0  0  0  0  0  0  0  0  0  0  0  0
   64.2032   31.4444   48.2566 H   0  0  0  0  0  0  0  0  0  0  0  0
   65.0167   33.0459   48.2566 H   0  0  0  0  0  0  0  0  0  0  0  0
   63.8084   34.7687   47.0151 H   0  0  0  0  0  0  0  0  0  0  0  0
   63.9999   33.2083   46.1462 H   0  0  0  0  0  0  0  0  0  0  0  0
   62.4116   34.0472   46.1462 H   0  0  0  0  0  0  0  0  0  0  0  0
   59.2481   28.1391   48.4083 H   0  0  0  0  0  0  0  0  0  0  0  0
   58.4903   26.8667   46.4221 H   0  0  0  0  0  0  0  0  0  0  0  0
   57.5211   28.0609   44.4756 H   0  0  0  0  0  0  0  0  0  0  0  0
  1  2  1  0
  2  3  2  0
  3  4  1  0
  4  5  2  0
  5  6  1  0
  6  7  2  0
  7  8  1  0
  8  9  2  0
  9 10  1  0
 10 11  2  0
 11 12  1  0
 12 13  1  0
 13 14  1  0
 14 15  1  0
 15 16  1  0
 16 17  1  0
 17 18  1  0
 18 19  1  0
 18 20  1  0
 11 21  1  0
 21 22  2  0
 22 23  1  0
 23 24  2  0
 24  2  1  0
  9  4  1  0
 24 10  1  0
  1 25  1  0
  1 26  1  0
  1 27  1  0
  3 28  1  0
  5 29  1  0
  6 30  1  0
  7 31  1  0
  8 32  1  0
 12 33  1  0
 12 34  1  0
 13 35  1  0
 13 36  1  0
 14 37  1  0
 15 38  1  0
 15 39  1  0
 16 40  1  0
 16 41  1  0
 17 42  1  0
 17 43  1  0
 19 44  1  0
 19 45  1  0
 19 46  1  0
 20 47  1  0
 20 48  1  0
 20 49  1  0
 21 50  1  0
 22 51  1  0
 23 52  1  0
M  END
>  <UniqueID>  (28) 
27

>  <SMILES>  (28) 
Cc1cc2ccccc2c2c(CCNCCCN(C)C)cccc12

>  <Energy>  (28) 
74.5731002272291

>  <Genealogy>  (28) 
Cc1cc2ccccc2c2c(CCNCCCN(C)C)cccc12 (3D coordinates assigned)
Cc1cc2ccccc2c2c(CCNCCCN(C)C)cccc12 (optimized conformer: 74.5731002272291 kcal/mol)

>  <smiles>  (28) 
Cc1cc2ccccc2c2c(CCNCCCN(C)C)cccc12

>  <score_type>  (28) 
oracle

>  <origin>  (28) 
adg

>  <m_score__min__energy>  (28) 
-8.2400000000000002

>  <m_primary>  (28) 
energy

$$$$
28:0
     RDKit          3D

 34 34  0  0  0  0  0  0  0  0999 V2000
   58.0140   28.5090   46.2740 C   0  0  0  0  0  0  0  0  0  0  0  0
   57.0540   28.2370   45.1130 C   0  0  0  0  0  0  0  0  0  0  0  0
   55.8120   29.0200   45.2100 N   0  0  0  0  0  0  0  0  0  0  0  0
   55.4840   29.7030   43.9510 C   0  0  0  0  0  0  0  0  0  0  0  0
   56.7660   30.0420   43.1780 C   0  0  0  0  0  0  0  0  0  0  0  0
   57.5950   31.1410   43.8560 C   0  0  0  0  0  0  0  0  0  0  0  0
   57.1020   31.3910   45.2180 N   0  0  0  0  0  0  0  0  0  0  0  0
   57.3890   32.7630   45.6640 C   0  0  0  0  0  0  0  0  0  0  0  0
   58.8260   32.9310   46.0990 C   0  0  0  0  0  0  0  0  0  0  0  0
   59.4590   34.1810   45.9960 C   0  0  0  0  0  0  0  0  0  0  0  0
   60.7810   34.3390   46.4230 C   0  0  0  0  0  0  0  0  0  0  0  0
   61.4790   33.2510   46.9590 C   0  0  0  0  0  0  0  0  0  0  0  0
   63.2840   33.4690   47.5440 Br  0  0  0  0  0  0  0  0  0  0  0  0
   60.8530   32.0060   47.0700 C   0  0  0  0  0  0  0  0  0  0  0  0
   59.5310   31.8450   46.6440 C   0  0  0  0  0  0  0  0  0  0  0  0
   57.4872   28.3597   47.2280 H   0  0  0  0  0  0  0  0  0  0  0  0
   58.8671   27.8172   46.2141 H   0  0  0  0  0  0  0  0  0  0  0  0
   58.3775   29.5455   46.2141 H   0  0  0  0  0  0  0  0  0  0  0  0
   57.5595   28.4937   44.1704 H   0  0  0  0  0  0  0  0  0  0  0  0
   56.7802   27.1723   45.1498 H   0  0  0  0  0  0  0  0  0  0  0  0
   55.9080   29.7310   45.9710 H   0  0  0  0  0  0  0  0  0  0  0  0
   54.8525   29.0454   43.3355 H   0  0  0  0  0  0  0  0  0  0  0  0
   54.9474   30.6356   44.1796 H   0  0  0  0  0  0  0  0  0  0  0  0
   57.3815   29.1335   43.1022 H   0  0  0  0  0  0  0  0  0  0  0  0
   56.4670   30.4156   42.1875 H   0  0  0  0  0  0  0  0  0  0  0  0
   58.6470   30.8232   43.9044 H   0  0  0  0  0  0  0  0  0  0  0  0
   57.5055   32.0673   43.2695 H   0  0  0  0  0  0  0  0  0  0  0  0
   56.0680   31.2300   45.2420 H   0  0  0  0  0  0  0  0  0  0  0  0
   57.1867   33.4554   44.8336 H   0  0  0  0  0  0  0  0  0  0  0  0
   56.7458   32.9789   46.5299 H   0  0  0  0  0  0  0  0  0  0  0  0
   58.9123   35.0390   45.5777 H   0  0  0  0  0  0  0  0  0  0  0  0
   61.2727   35.3193   46.3375 H   0  0  0  0  0  0  0  0  0  0  0  0
   61.4014   31.1515   47.4932 H   0  0  0  0  0  0  0  0  0  0  0  0
   59.0412   30.8644   46.7360 H   0  0  0  0  0  0  0  0  0  0  0  0
  1  2  1  0
  2  3  1  0
  3  4  1  0
  4  5  1  0
  5  6  1  0
  6  7  1  0
  7  8  1  0
  8  9  1  0
  9 10  2  0
 10 11  1  0
 11 12  2  0
 12 13  1  0
 12 14  1  0
 14 15  2  0
 15  9  1  0
  1 16  1  0
  1 17  1  0
  1 18  1  0
  2 19  1  0
  2 20  1  0
  3 21  1  0
  4 22  1  0
  4 23  1  0
  5 24  1  0
  5 25  1  0
  6 26  1  0
  6 27  1  0
  7 28  1  0
  8 29  1  0
  8 30  1  0
 10 31  1  0
 11 32  1  0
 14 33  1  0
 15 34  1  0
M  END
>  <UniqueID>  (29) 
28

>  <SMILES>  (29) 
CCNCCCNCc1ccc(Br)cc1

>  <Energy>  (29) 
24.934968383647913

>  <Genealogy>  (29) 
CCNCCCNCc1ccc(Br)cc1 (3D coordinates assigned)
CCNCCCNCc1ccc(Br)cc1 (optimized conformer: 24.934968383647913 kcal/mol)

>  <smiles>  (29) 
CCNCCCNCc1ccc(Br)cc1

>  <score_type>  (29) 
oracle

>  <origin>  (29) 
adg

>  <m_score__min__energy>  (29) 
-6.46

>  <m_primary>  (29) 
energy

$$$$
29:0
     RDKit          3D

 49 52  0  0  0  0  0  0  0  0999 V2000
   63.1440   33.8360   46.1640 C   0  0  0  0  0  0  0  0  0  0  0  0
   62.3690   33.6910   47.4440 C   0  0  0  0  0  0  0  0  0  0  0  0
   62.8680   33.1330   48.5830 N   0  0  0  0  0  0  0  0  0  0  0  0
   64.2010   32.5590   48.7730 C   0  0  0  0  0  0  0  0  0  0  0  0
   61.8720   33.2500   49.4860 C   0  0  0  0  0  0  0  0  0  0  0  0
   61.8390   32.8490   50.8260 C   0  0  0  0  0  0  0  0  0  0  0  0
   60.6620   33.0960   51.5560 C   0  0  0  0  0  0  0  0  0  0  0  0
   59.5600   33.7340   50.9460 C   0  0  0  0  0  0  0  0  0  0  0  0
   59.6230   34.1310   49.6000 C   0  0  0  0  0  0  0  0  0  0  0  0
   60.8020   33.8690   48.8970 C   0  0  0  0  0  0  0  0  0  0  0  0
   61.0990   34.1550   47.6140 N   0  0  0  0  0  0  0  0  0  0  0  0
   60.2290   34.8030   46.6250 C   0  0  0  0  0  0  0  0  0  0  0  0
   59.2610   33.8090   46.0380 C   0  0  0  0  0  0  0  0  0  0  0  0
   58.9000   33.8870   44.6820 C   0  0  0  0  0  0  0  0  0  0  0  0
   58.0030   32.9640   44.1360 C   0  0  0  0  0  0  0  0  0  0  0  0
   57.4470   31.9650   44.9410 C   0  0  0  0  0  0  0  0  0  0  0  0
   56.2820   30.7880   44.2450 S   0  0  0  0  0  0  0  0  0  0  0  0
   57.5530   29.5720   43.7500 C   0  0  0  0  0  0  0  0  0  0  0  0
   58.3070   29.0560   44.9450 C   0  0  0  0  0  0  0  0  0  0  0  0
   57.6430   28.3060   45.9280 C   0  0  0  0  0  0  0  0  0  0  0  0
   58.3500   27.7990   47.0230 C   0  0  0  0  0  0  0  0  0  0  0  0
   59.7230   28.0380   47.1440 C   0  0  0  0  0  0  0  0  0  0  0  0
   60.3910   28.7810   46.1670 C   0  0  0  0  0  0  0  0  0  0  0  0
   59.6880   29.2890   45.0700 C   0  0  0  0  0  0  0  0  0  0  0  0
   57.8040   31.8800   46.2920 C   0  0  0  0  0  0  0  0  0  0  0  0
   58.7010   32.8010   46.8400 C   0  0  0  0  0  0  0  0  0  0  0  0
   64.2010   34.0338   46.3957 H   0  0  0  0  0  0  0  0  0  0  0  0
   63.0642   32.9073   45.5798 H   0  0  0  0  0  0  0  0  0  0  0  0
   62.7339   34.6730   45.5798 H   0  0  0  0  0  0  0  0  0  0  0  0
   64.4113   32.4685   49.8489 H   0  0  0  0  0  0  0  0  0  0  0  0
   64.2415   31.5637   48.3064 H   0  0  0  0  0  0  0  0  0  0  0  0
   64.9520   33.2135   48.3064 H   0  0  0  0  0  0  0  0  0  0  0  0
   62.7047   32.3569   51.2933 H   0  0  0  0  0  0  0  0  0  0  0  0
   60.5997   32.7896   52.6106 H   0  0  0  0  0  0  0  0  0  0  0  0
   58.6460   33.9214   51.5287 H   0  0  0  0  0  0  0  0  0  0  0  0
   58.7720   34.6318   49.1152 H   0  0  0  0  0  0  0  0  0  0  0  0
   59.6652   35.6112   47.1139 H   0  0  0  0  0  0  0  0  0  0  0  0
   60.8535   35.2100   45.8160 H   0  0  0  0  0  0  0  0  0  0  0  0
   59.3253   34.6782   44.0471 H   0  0  0  0  0  0  0  0  0  0  0  0
   57.7341   33.0238   43.0710 H   0  0  0  0  0  0  0  0  0  0  0  0
   57.0634   28.7276   43.2427 H   0  0  0  0  0  0  0  0  0  0  0  0
   58.2664   30.0687   43.0760 H   0  0  0  0  0  0  0  0  0  0  0  0
   56.5633   28.1164   45.8369 H   0  0  0  0  0  0  0  0  0  0  0  0
   57.8254   27.2111   47.7906 H   0  0  0  0  0  0  0  0  0  0  0  0
   60.2766   27.6413   48.0078 H   0  0  0  0  0  0  0  0  0  0  0  0
   61.4712   28.9665   46.2609 H   0  0  0  0  0  0  0  0  0  0  0  0
   60.2171   29.8728   44.3024 H   0  0  0  0  0  0  0  0  0  0  0  0
   57.3776   31.0867   46.9235 H   0  0  0  0  0  0  0  0  0  0  0  0
   58.9698   32.7362   47.9047 H   0  0  0  0  0  0  0  0  0  0  0  0
  1  2  1  0
  2  3  1  0
  3  4  1  0
  3  5  1  0
  5  6  2  0
  6  7  1  0
  7  8  2  0
  8  9  1  0
  9 10  2  0
 10 11  1  0
 11 12  1  0
 12 13  1  0
 13 14  2  0
 14 15  1  0
 15 16  2  0
 16 17  1  0
 17 18  1  0
 18 19  1  0
 19 20  2  0
 20 21  1  0
 21 22  2  0
 22 23  1  0
 23 24  2  0
 16 25  1  0
 25 26  2  0
 11  2  2  0
 26 13  1  0
 10  5  1  0
 24 19  1  0
  1 27  1  0
  1 28  1  0
  1 29  1  0
  4 30  1  0
  4 31  1  0
  4 32  1  0
  6 33  1  0
  7 34  1  0
  8 35  1  0
  9 36  1  0
 12 37  1  0
 12 38  1  0
 14 39  1  0
 15 40  1  0
 18 41  1  0
 18 42  1  0
 20 43  1  0
 21 44  1  0
 22 45  1  0
 23 46  1  0
 24 47  1  0
 25 48  1  0
 26 49  1  0
M  CHG  1  11   1
M  END
>  <UniqueID>  (30) 
29

>  <SMILES>  (30) 
Cc1n(C)c2ccccc2[n+]1Cc1ccc(SCc2ccccc2)cc1

>  <Energy>  (30) 
86.56582615494173

>  <Genealogy>  (30) 
Cc1n(C)c2ccccc2[n+]1Cc1ccc(SCc2ccccc2)cc1 (3D coordinates assigned)
Cc1n(C)c2ccccc2[n+]1Cc1ccc(SCc2ccccc2)cc1 (optimized conformer: 86.56582615494173 kcal/mol)

>  <smiles>  (30) 
Cc1n(C)c2ccccc2[n+]1Cc1ccc(SCc2ccccc2)cc1

>  <score_type>  (30) 
oracle

>  <origin>  (30) 
adg

>  <m_score__min__energy>  (30) 
-7.4699999999999998

>  <m_primary>  (30) 
energy

$$$$
30:0
     RDKit          3D

 77 79  0  0  0  0  0  0  0  0999 V2000
   63.5250   32.7200   50.1280 C   0  0  0  0  0  0  0  0  0  0  0  0
   63.0090   31.5940   49.2310 C   0  0  0  0  0  0  0  0  0  0  0  0
   62.1490   32.0470   48.1120 N   0  0  0  0  0  0  0  0  0  0  0  0
   62.4620   33.3910   47.5710 C   0  0  0  0  0  0  0  0  0  0  0  0
   63.7460   33.4610   46.7350 C   0  0  0  0  0  0  0  0  0  0  0  0
   61.7410   31.0350   47.1110 C   0  0  0  0  0  0  0  0  0  0  0  0
   60.4230   31.4330   46.4010 C   0  0  0  0  0  0  0  0  0  0  0  0
   59.1580   31.2430   47.1680 N   0  0  0  0  0  0  0  0  0  0  0  0
   59.2610   30.7020   48.5190 C   0  0  0  0  0  0  0  0  0  0  0  0
   59.4170   31.5820   49.6530 C   0  0  0  0  0  0  0  0  0  0  0  0
   59.2670   33.0130   49.5780 C   0  0  0  0  0  0  0  0  0  0  0  0
   58.9480   33.6420   48.3610 O   0  0  0  0  0  0  0  0  0  0  0  0
   59.5370   34.8240   47.8190 C   0  0  0  0  0  0  0  0  0  0  0  0
   59.2560   34.9280   46.3170 C   0  0  0  0  0  0  0  0  0  0  0  0
   58.5650   33.7150   45.8280 N   0  0  0  0  0  0  0  0  0  0  0  0
   57.1120   33.8080   46.0540 C   0  0  0  0  0  0  0  0  0  0  0  0
   58.8250   33.5310   44.3900 C   0  0  0  0  0  0  0  0  0  0  0  0
   59.4330   33.7980   50.7320 C   0  0  0  0  0  0  0  0  0  0  0  0
   59.7540   33.2240   51.9450 C   0  0  0  0  0  0  0  0  0  0  0  0
   59.9160   31.8540   52.0430 C   0  0  0  0  0  0  0  0  0  0  0  0
   59.7380   31.0030   50.9240 C   0  0  0  0  0  0  0  0  0  0  0  0
   59.9370   29.6470   51.0510 N   0  0  0  0  0  0  0  0  0  0  0  0
   60.0280   29.0240   52.3920 C   0  0  0  0  0  0  0  0  0  0  0  0
   60.0300   28.8550   49.9340 C   0  0  0  0  0  0  0  0  0  0  0  0
   60.6820   27.5990   49.9880 C   0  0  0  0  0  0  0  0  0  0  0  0
   60.7230   26.7630   48.8800 C   0  0  0  0  0  0  0  0  0  0  0  0
   60.0260   27.1070   47.7330 C   0  0  0  0  0  0  0  0  0  0  0  0
   59.3400   28.3240   47.6590 C   0  0  0  0  0  0  0  0  0  0  0  0
   58.2770   28.3920   46.6380 C   0  0  0  0  0  0  0  0  0  0  0  0
   57.2940   27.6070   46.7100 O   0  0  0  0  0  0  0  0  0  0  0  0
   58.2740   29.4200   45.6370 N   0  0  0  0  0  0  0  0  0  0  0  0
   57.7990   29.2520   44.2610 C   0  0  0  0  0  0  0  0  0  0  0  0
   58.0370   27.8110   43.8130 C   0  0  0  0  0  0  0  0  0  0  0  0
   56.3060   29.5800   44.1760 C   0  0  0  0  0  0  0  0  0  0  0  0
   59.5010   29.3000   48.6960 C   0  0  0  0  0  0  0  0  0  0  0  0
   63.3953   32.4370   51.1830 H   0  0  0  0  0  0  0  0  0  0  0  0
   64.5919   32.8923   49.9231 H   0  0  0  0  0  0  0  0  0  0  0  0
   62.9589   33.6406   49.9231 H   0  0  0  0  0  0  0  0  0  0  0  0
   63.8765   31.0674   48.8066 H   0  0  0  0  0  0  0  0  0  0  0  0
   62.3838   30.9489   49.8658 H   0  0  0  0  0  0  0  0  0  0  0  0
   61.6219   33.7093   46.9363 H   0  0  0  0  0  0  0  0  0  0  0  0
   62.6201   34.0470   48.4397 H   0  0  0  0  0  0  0  0  0  0  0  0
   64.6174   33.5085   47.4046 H   0  0  0  0  0  0  0  0  0  0  0  0
   63.8196   32.5655   46.1004 H   0  0  0  0  0  0  0  0  0  0  0  0
   63.7218   34.3592   46.1004 H   0  0  0  0  0  0  0  0  0  0  0  0
   62.5366   30.9372   46.3577 H   0  0  0  0  0  0  0  0  0  0  0  0
   61.5753   30.0816   47.6340 H   0  0  0  0  0  0  0  0  0  0  0  0
   60.4957   32.4989   46.1391 H   0  0  0  0  0  0  0  0  0  0  0  0
   60.3427   30.7498   45.5427 H   0  0  0  0  0  0  0  0  0  0  0  0
   58.4770   30.6760   46.6170 H   0  0  0  0  0  0  0  0  0  0  0  0
   58.6380   32.1450   47.1790 H   0  0  0  0  0  0  0  0  0  0  0  0
   59.1151   35.7036   48.3272 H   0  0  0  0  0  0  0  0  0  0  0  0
   60.6252   34.7801   47.9734 H   0  0  0  0  0  0  0  0  0  0  0  0
   58.6206   35.8060   46.1287 H   0  0  0  0  0  0  0  0  0  0  0  0
   60.2134   35.0278   45.7847 H   0  0  0  0  0  0  0  0  0  0  0  0
   56.9092   33.8210   47.1351 H   0  0  0  0  0  0  0  0  0  0  0  0
   56.7284   34.7325   45.5978 H   0  0  0  0  0  0  0  0  0  0  0  0
   56.6137   32.9399   45.5978 H   0  0  0  0  0  0  0  0  0  0  0  0
   59.7162   32.9003   44.2563 H   0  0  0  0  0  0  0  0  0  0  0  0
   57.9576   33.0445   43.9199 H   0  0  0  0  0  0  0  0  0  0  0  0
   58.9953   34.5108   43.9199 H   0  0  0  0  0  0  0  0  0  0  0  0
   59.3048   34.8886   50.6670 H   0  0  0  0  0  0  0  0  0  0  0  0
   59.8813   33.8571   52.8355 H   0  0  0  0  0  0  0  0  0  0  0  0
   60.1897   31.4142   53.0134 H   0  0  0  0  0  0  0  0  0  0  0  0
   59.9148   29.7987   53.1647 H   0  0  0  0  0  0  0  0  0  0  0  0
   59.2297   28.2755   52.5035 H   0  0  0  0  0  0  0  0  0  0  0  0
   61.0071   28.5352   52.5035 H   0  0  0  0  0  0  0  0  0  0  0  0
   61.1643   27.2802   50.9238 H   0  0  0  0  0  0  0  0  0  0  0  0
   61.3066   25.8312   48.9128 H   0  0  0  0  0  0  0  0  0  0  0  0
   60.0119   26.4187   46.8750 H   0  0  0  0  0  0  0  0  0  0  0  0
   58.3518   29.9378   43.6021 H   0  0  0  0  0  0  0  0  0  0  0  0
   58.1437   27.1651   44.6970 H   0  0  0  0  0  0  0  0  0  0  0  0
   57.1832   27.4688   43.2097 H   0  0  0  0  0  0  0  0  0  0  0  0
   58.9555   27.7615   43.2097 H   0  0  0  0  0  0  0  0  0  0  0  0
   55.8922   29.6709   45.1911 H   0  0  0  0  0  0  0  0  0  0  0  0
   56.1693   30.5296   43.6379 H   0  0  0  0  0  0  0  0  0  0  0  0
   55.7838   28.7752   43.6379 H   0  0  0  0  0  0  0  0  0  0  0  0
  1  2  1  0
  2  3  1  0
  3  4  1  0
  4  5  1  0
  3  6  1  0
  6  7  1  0
  7  8  1  0
  8  9  1  0
  9 10  2  0
 10 11  1  0
 11 12  1  0
 12 13  1  0
 13 14  1  0
 14 15  1  0
 15 16  1  0
 15 17  1  0
 11 18  2  0
 18 19  1  0
 19 20  2  0
 20 21  1  0
 21 22  2  0
 22 23  1  0
 22 24  1  0
 24 25  2  0
 25 26  1  0
 26 27  2  0
 27 28  1  0
 28 29  1  0
 29 30  2  0
 29 31  1  0
 31 32  1  0
 32 33  1  0
 32 34  1  0
 28 35  2  0
 35  9  1  0
 21 10  1  0
 35 24  1  0
  1 36  1  0
  1 37  1  0
  1 38  1  0
  2 39  1  0
  2 40  1  0
  4 41  1  0
  4 42  1  0
  5 43  1  0
  5 44  1  0
  5 45  1  0
  6 46  1  0
  6 47  1  0
  7 48  1  0
  7 49  1  0
  8 50  1  0
  8 51  1  0
 13 52  1  0
 13 53  1  0
 14 54  1  0
 14 55  1  0
 16 56  1  0
 16 57  1  0
 16 58  1  0
 17 59  1  0
 17 60  1  0
 17 61  1  0
 18 62  1  0
 19 63  1  0
 20 64  1  0
 23 65  1  0
 23 66  1  0
 23 67  1  0
 25 68  1  0
 26 69  1  0
 27 70  1  0
 32 71  1  0
 33 72  1  0
 33 73  1  0
 33 74  1  0
 34 75  1  0
 34 76  1  0
 34 77  1  0
M  CHG  3   8   1  22   1  31  -1
M  END
>  <UniqueID>  (31) 
30

>  <SMILES>  (31) 
CCN(CC)CC[NH2+]c1c2c(OCCN(C)C)cccc2[n+](C)c2cccc(C(=O)[N-]C(C)C)c12

>  <Energy>  (31) 
137.111708524149

>  <Genealogy>  (31) 
CCN(CC)CC[NH2+]c1c2c(OCCN(C)C)cccc2[n+](C)c2cccc(C(=O)[N-]C(C)C)c12 (protonated)
CCN(CC)CC[NH2+]c1c2c(OCCN(C)C)cccc2[n+](C)c2cccc(C(=O)[N-]C(C)C)c12 (3D coordinates assigned)
CCN(CC)CC[NH2+]c1c2c(OCCN(C)C)cccc2[n+](C)c2cccc(C(=O)[N-]C(C)C)c12 (optimized conformer: 137.111708524149 kcal/mol)

>  <smiles>  (31) 
CCN(CC)CCNc1c2c(OCCN(C)C)cccc2[n+](C)c2cccc(C(=O)NC(C)C)c12

>  <score_type>  (31) 
oracle

>  <origin>  (31) 
adg

>  <m_score__min__energy>  (31) 
-5.4199999999999999

>  <m_primary>  (31) 
energy

$$$$
31:0
     RDKit          3D

 46 46  0  0  0  0  0  0  0  0999 V2000
   60.4130   28.0260   45.6170 C   0  0  0  0  0  0  0  0  0  0  0  0
   60.0010   29.3430   44.9800 C   0  0  0  0  0  0  0  0  0  0  0  0
   58.9240   29.8940   45.7090 O   0  0  0  0  0  0  0  0  0  0  0  0
   58.1200   28.8540   46.2220 C   0  0  0  0  0  0  0  0  0  0  0  0
   56.9850   28.5590   45.2390 C   0  0  0  0  0  0  0  0  0  0  0  0
   56.3100   29.7500   44.8850 O   0  0  0  0  0  0  0  0  0  0  0  0
   56.7810   30.2620   43.6530 C   0  0  0  0  0  0  0  0  0  0  0  0
   57.3230   31.6720   43.8740 C   0  0  0  0  0  0  0  0  0  0  0  0
   57.0160   32.1160   45.2400 N   0  0  0  0  0  0  0  0  0  0  0  0
   57.2530   33.5560   45.4310 C   0  0  0  0  0  0  0  0  0  0  0  0
   58.7110   33.8990   45.7950 C   0  0  0  0  0  0  0  0  0  0  0  0
   59.4400   32.7290   46.2920 N   0  0  0  0  0  0  0  0  0  0  0  0
   60.8160   32.7440   46.7190 C   0  0  0  0  0  0  0  0  0  0  0  0
   61.6720   33.8140   46.3880 C   0  0  0  0  0  0  0  0  0  0  0  0
   63.0050   33.8090   46.8000 C   0  0  0  0  0  0  0  0  0  0  0  0
   63.5070   32.7400   47.5400 C   0  0  0  0  0  0  0  0  0  0  0  0
   62.6740   31.6720   47.8790 C   0  0  0  0  0  0  0  0  0  0  0  0
   61.3230   31.6650   47.4770 C   0  0  0  0  0  0  0  0  0  0  0  0
   60.4550   30.6160   47.8250 O   0  0  0  0  0  0  0  0  0  0  0  0
   59.4470   30.6980   48.8290 C   0  0  0  0  0  0  0  0  0  0  0  0
   60.3826   28.1231   46.7123 H   0  0  0  0  0  0  0  0  0  0  0  0
   59.7201   27.2327   45.2999 H   0  0  0  0  0  0  0  0  0  0  0  0
   61.4345   27.7690   45.2999 H   0  0  0  0  0  0  0  0  0  0  0  0
   60.8510   30.0410   44.9952 H   0  0  0  0  0  0  0  0  0  0  0  0
   59.6923   29.1695   43.9386 H   0  0  0  0  0  0  0  0  0  0  0  0
   58.7318   27.9501   46.3586 H   0  0  0  0  0  0  0  0  0  0  0  0
   57.6978   29.1589   47.1909 H   0  0  0  0  0  0  0  0  0  0  0  0
   57.4031   28.0974   44.3323 H   0  0  0  0  0  0  0  0  0  0  0  0
   56.2693   27.8754   45.7191 H   0  0  0  0  0  0  0  0  0  0  0  0
   57.5828   29.6151   43.2674 H   0  0  0  0  0  0  0  0  0  0  0  0
   55.9577   30.2909   42.9240 H   0  0  0  0  0  0  0  0  0  0  0  0
   58.4131   31.6712   43.7269 H   0  0  0  0  0  0  0  0  0  0  0  0
   56.8519   32.3584   43.1551 H   0  0  0  0  0  0  0  0  0  0  0  0
   57.5990   31.5730   45.9210 H   0  0  0  0  0  0  0  0  0  0  0  0
   56.9959   34.0775   44.4972 H   0  0  0  0  0  0  0  0  0  0  0  0
   56.6258   33.8766   46.2759 H   0  0  0  0  0  0  0  0  0  0  0  0
   59.2209   34.2812   44.8984 H   0  0  0  0  0  0  0  0  0  0  0  0
   58.6940   34.6548   46.5941 H   0  0  0  0  0  0  0  0  0  0  0  0
   58.8960   31.8410   46.3820 H   0  0  0  0  0  0  0  0  0  0  0  0
   61.2859   34.6598   45.8001 H   0  0  0  0  0  0  0  0  0  0  0  0
   63.6621   34.6519   46.5398 H   0  0  0  0  0  0  0  0  0  0  0  0
   64.5603   32.7377   47.8572 H   0  0  0  0  0  0  0  0  0  0  0  0
   63.0746   30.8307   48.4635 H   0  0  0  0  0  0  0  0  0  0  0  0
   59.9159   30.6599   49.8233 H   0  0  0  0  0  0  0  0  0  0  0  0
   58.8963   31.6439   48.7193 H   0  0  0  0  0  0  0  0  0  0  0  0
   58.7507   29.8535   48.7193 H   0  0  0  0  0  0  0  0  0  0  0  0
  1  2  1  0
  2  3  1  0
  3  4  1  0
  4  5  1  0
  5  6  1  0
  6  7  1  0
  7  8  1  0
  8  9  1  0
  9 10  1  0
 10 11  1  0
 11 12  1  0
 12 13  1  0
 13 14  2  0
 14 15  1  0
 15 16  2  0
 16 17  1  0
 17 18  2  0
 18 19  1  0
 19 20  1  0
 18 13  1  0
  1 21  1  0
  1 22  1  0
  1 23  1  0
  2 24  1  0
  2 25  1  0
  4 26  1  0
  4 27  1  0
  5 28  1  0
  5 29  1  0
  7 30  1  0
  7 31  1  0
  8 32  1  0
  8 33  1  0
  9 34  1  0
 10 35  1  0
 10 36  1  0
 11 37  1  0
 11 38  1  0
 12 39  1  0
 14 40  1  0
 15 41  1  0
 16 42  1  0
 17 43  1  0
 20 44  1  0
 20 45  1  0
 20 46  1  0
M  END
>  <UniqueID>  (32) 
31

>  <SMILES>  (32) 
CCOCCOCCNCCNc1ccccc1OC

>  <Energy>  (32) 
35.127182089124204

>  <Genealogy>  (32) 
CCOCCOCCNCCNc1ccccc1OC (3D coordinates assigned)
CCOCCOCCNCCNc1ccccc1OC (optimized conformer: 35.127182089124204 kcal/mol)

>  <smiles>  (32) 
CCOCCOCCNCCNc1ccccc1OC

>  <score_type>  (32) 
oracle

>  <origin>  (32) 
adg

>  <m_score__min__energy>  (32) 
-4.1299999999999999

>  <m_primary>  (32) 
energy

$$$$
32:0
     RDKit          3D

 26 28  0  0  0  0  0  0  0  0999 V2000
   60.7200   26.6310   46.2210 C   0  0  0  0  0  0  0  0  0  0  0  0
   59.2540   26.6410   46.1970 N   0  0  0  0  0  0  0  0  0  0  0  0
   58.5220   25.4730   46.2590 C   0  0  0  0  0  0  0  0  0  0  0  0
   59.1030   24.3590   46.3730 O   0  0  0  0  0  0  0  0  0  0  0  0
   57.1510   25.5060   46.1940 N   0  0  0  0  0  0  0  0  0  0  0  0
   56.4690   26.6800   46.0540 C   0  0  0  0  0  0  0  0  0  0  0  0
   55.2130   26.6940   45.9920 O   0  0  0  0  0  0  0  0  0  0  0  0
   57.2110   27.8440   45.9770 C   0  0  0  0  0  0  0  0  0  0  0  0
   56.8210   29.1170   45.8120 N   0  0  0  0  0  0  0  0  0  0  0  0
   57.9550   29.8170   45.7940 N   0  0  0  0  0  0  0  0  0  0  0  0
   58.0200   31.2400   45.5870 C   0  0  0  0  0  0  0  0  0  0  0  0
   58.4300   32.0680   46.6500 C   0  0  0  0  0  0  0  0  0  0  0  0
   58.5250   33.4510   46.4810 C   0  0  0  0  0  0  0  0  0  0  0  0
   58.2060   34.0280   45.2520 C   0  0  0  0  0  0  0  0  0  0  0  0
   57.7840   33.2250   44.1930 C   0  0  0  0  0  0  0  0  0  0  0  0
   57.6830   31.8360   44.3480 C   0  0  0  0  0  0  0  0  0  0  0  0
   56.9980   30.8360   42.8590 Br  0  0  0  0  0  0  0  0  0  0  0  0
   59.0400   29.0490   45.9210 N   0  0  0  0  0  0  0  0  0  0  0  0
   58.5580   27.8020   46.0430 C   0  0  0  0  0  0  0  0  0  0  0  0
   61.0696   26.6286   47.2640 H   0  0  0  0  0  0  0  0  0  0  0  0
   61.0890   25.7303   45.7085 H   0  0  0  0  0  0  0  0  0  0  0  0
   61.1012   27.5266   45.7085 H   0  0  0  0  0  0  0  0  0  0  0  0
   58.6780   31.6205   47.6238 H   0  0  0  0  0  0  0  0  0  0  0  0
   58.8517   34.0858   47.3179 H   0  0  0  0  0  0  0  0  0  0  0  0
   58.2873   35.1168   45.1181 H   0  0  0  0  0  0  0  0  0  0  0  0
   57.5282   33.6859   43.2275 H   0  0  0  0  0  0  0  0  0  0  0  0
  1  2  1  0
  2  3  1  0
  3  4  2  0
  3  5  1  0
  5  6  1  0
  6  7  2  0
  6  8  1  0
  8  9  2  0
  9 10  1  0
 10 11  1  0
 11 12  2  0
 12 13  1  0
 13 14  2  0
 14 15  1  0
 15 16  2  0
 16 17  1  0
 10 18  1  0
 18 19  2  0
 19  2  1  0
 19  8  1  0
 16 11  1  0
  1 20  1  0
  1 21  1  0
  1 22  1  0
 12 23  1  0
 13 24  1  0
 14 25  1  0
 15 26  1  0
M  CHG  1   5  -1
M  END
>  <UniqueID>  (33) 
32

>  <SMILES>  (33) 
Cn1c(=O)[n-]c(=O)c2nn(-c3ccccc3Br)nc21

>  <Energy>  (33) 
81.56296162090861

>  <Genealogy>  (33) 
Cn1c(=O)[n-]c(=O)c2nn(-c3ccccc3Br)nc21 (protonated)
Cn1c(=O)[n-]c(=O)c2nn(-c3ccccc3Br)nc21 (3D coordinates assigned)
Cn1c(=O)[n-]c(=O)c2nn(-c3ccccc3Br)nc21 (optimized conformer: 81.56296162090861 kcal/mol)

>  <smiles>  (33) 
Cn1c(=O)[nH]c(=O)c2nn(-c3ccccc3Br)nc21

>  <score_type>  (33) 
oracle

>  <origin>  (33) 
adg

>  <m_score__min__energy>  (33) 
-8.6400000000000006

>  <m_primary>  (33) 
energy

$$$$
33:0
     RDKit          3D

 39 40  0  0  0  0  0  0  0  0999 V2000
   58.9070   34.6000   46.8290 C   0  0  0  0  0  0  0  0  0  0  0  0
   58.3780   34.2330   45.4440 C   0  0  0  0  0  0  0  0  0  0  0  0
   58.7970   32.9210   45.0650 O   0  0  0  0  0  0  0  0  0  0  0  0
   58.0400   32.0020   44.3170 C   0  0  0  0  0  0  0  0  0  0  0  0
   57.7620   32.1900   42.9470 C   0  0  0  0  0  0  0  0  0  0  0  0
   57.0200   31.2410   42.2410 C   0  0  0  0  0  0  0  0  0  0  0  0
   56.5430   30.1020   42.8880 C   0  0  0  0  0  0  0  0  0  0  0  0
   56.7980   29.9110   44.2470 C   0  0  0  0  0  0  0  0  0  0  0  0
   57.5400   30.8640   44.9730 C   0  0  0  0  0  0  0  0  0  0  0  0
   57.7900   30.7210   46.3470 O   0  0  0  0  0  0  0  0  0  0  0  0
   58.5760   29.6780   46.9210 C   0  0  0  0  0  0  0  0  0  0  0  0
   60.0340   30.1300   47.0680 C   0  0  0  0  0  0  0  0  0  0  0  0
   60.2410   31.5350   46.6730 N   0  0  0  0  0  0  0  0  0  0  0  0
   61.4670   32.0730   47.2130 C   0  0  0  0  0  0  0  0  0  0  0  0
   62.1530   31.3950   48.2360 C   0  0  0  0  0  0  0  0  0  0  0  0
   63.3380   31.9190   48.7600 C   0  0  0  0  0  0  0  0  0  0  0  0
   63.8520   33.1200   48.2660 C   0  0  0  0  0  0  0  0  0  0  0  0
   63.1770   33.8040   47.2510 C   0  0  0  0  0  0  0  0  0  0  0  0
   61.9890   33.2870   46.7270 C   0  0  0  0  0  0  0  0  0  0  0  0
   58.2613   34.1520   47.5987 H   0  0  0  0  0  0  0  0  0  0  0  0
   59.9323   34.2182   46.9429 H   0  0  0  0  0  0  0  0  0  0  0  0
   58.9084   35.6941   46.9429 H   0  0  0  0  0  0  0  0  0  0  0  0
   57.2787   34.2691   45.4580 H   0  0  0  0  0  0  0  0  0  0  0  0
   58.7789   34.9523   44.7147 H   0  0  0  0  0  0  0  0  0  0  0  0
   58.1317   33.0890   42.4321 H   0  0  0  0  0  0  0  0  0  0  0  0
   56.8113   31.3925   41.1717 H   0  0  0  0  0  0  0  0  0  0  0  0
   55.9650   29.3529   42.3269 H   0  0  0  0  0  0  0  0  0  0  0  0
   56.4178   29.0119   44.7539 H   0  0  0  0  0  0  0  0  0  0  0  0
   58.1732   29.4237   47.9125 H   0  0  0  0  0  0  0  0  0  0  0  0
   58.5388   28.7979   46.2622 H   0  0  0  0  0  0  0  0  0  0  0  0
   60.3334   30.0133   48.1200 H   0  0  0  0  0  0  0  0  0  0  0  0
   60.6427   29.5053   46.3978 H   0  0  0  0  0  0  0  0  0  0  0  0
   59.4180   32.1120   46.9660 H   0  0  0  0  0  0  0  0  0  0  0  0
   60.2900   31.5820   45.6290 H   0  0  0  0  0  0  0  0  0  0  0  0
   61.7548   30.4467   48.6262 H   0  0  0  0  0  0  0  0  0  0  0  0
   63.8668   31.3845   49.5629 H   0  0  0  0  0  0  0  0  0  0  0  0
   64.7880   33.5276   48.6757 H   0  0  0  0  0  0  0  0  0  0  0  0
   63.5815   34.7509   46.8640 H   0  0  0  0  0  0  0  0  0  0  0  0
   61.4593   33.8311   45.9311 H   0  0  0  0  0  0  0  0  0  0  0  0
  1  2  1  0
  2  3  1  0
  3  4  1  0
  4  5  2  0
  5  6  1  0
  6  7  2  0
  7  8  1  0
  8  9  2  0
  9 10  1  0
 10 11  1  0
 11 12  1  0
 12 13  1  0
 13 14  1  0
 14 15  2  0
 15 16  1  0
 16 17  2  0
 17 18  1  0
 18 19  2  0
  9  4  1  0
 19 14  1  0
  1 20  1  0
  1 21  1  0
  1 22  1  0
  2 23  1  0
  2 24  1  0
  5 25  1  0
  6 26  1  0
  7 27  1  0
  8 28  1  0
 11 29  1  0
 11 30  1  0
 12 31  1  0
 12 32  1  0
 13 33  1  0
 13 34  1  0
 15 35  1  0
 16 36  1  0
 17 37  1  0
 18 38  1  0
 19 39  1  0
M  CHG  1  13   1
M  END
>  <UniqueID>  (34) 
33

>  <SMILES>  (34) 
CCOc1ccccc1OCC[NH2+]c1ccccc1

>  <Energy>  (34) 
34.19687119301509

>  <Genealogy>  (34) 
CCOc1ccccc1OCC[NH2+]c1ccccc1 (protonated)
CCOc1ccccc1OCC[NH2+]c1ccccc1 (3D coordinates assigned)
CCOc1ccccc1OCC[NH2+]c1ccccc1 (optimized conformer: 34.19687119301509 kcal/mol)

>  <smiles>  (34) 
CCOc1ccccc1OCCNc1ccccc1

>  <score_type>  (34) 
oracle

>  <origin>  (34) 
adg

>  <m_score__min__energy>  (34) 
-3.98

>  <m_primary>  (34) 
energy

$$$$
34:0
     RDKit          3D

 46 48  0  0  0  0  0  0  0  0999 V2000
   57.3540   31.9180   51.6590 C   0  0  0  0  0  0  0  0  0  0  0  0
   58.0190   30.5780   51.3600 C   0  0  0  0  0  0  0  0  0  0  0  0
   58.1870   30.3980   49.9540 O   0  0  0  0  0  0  0  0  0  0  0  0
   58.9140   31.2470   49.1040 C   0  0  0  0  0  0  0  0  0  0  0  0
   60.3010   31.0270   48.9770 C   0  0  0  0  0  0  0  0  0  0  0  0
   61.0820   31.8330   48.1360 C   0  0  0  0  0  0  0  0  0  0  0  0
   60.4510   32.8520   47.4250 C   0  0  0  0  0  0  0  0  0  0  0  0
   59.1020   33.0760   47.5250 C   0  0  0  0  0  0  0  0  0  0  0  0
   58.3080   32.2930   48.3690 C   0  0  0  0  0  0  0  0  0  0  0  0
   58.6580   34.2120   46.6470 C   0  0  2  0  0  0  0  0  0  0  0  0
   57.5410   33.8220   45.6480 C   0  0  0  0  0  0  0  0  0  0  0  0
   57.7580   32.5430   44.8150 C   0  0  0  0  0  0  0  0  0  0  0  0
   56.7370   31.5250   45.1140 N   0  0  0  0  0  0  0  0  0  0  0  0
   56.6350   30.4960   44.0650 C   0  0  0  0  0  0  0  0  0  0  0  0
   56.7470   29.0980   44.6780 C   0  0  0  0  0  0  0  0  0  0  0  0
   58.0190   28.9290   45.4490 C   0  0  0  0  0  0  0  0  0  0  0  0
   58.1540   28.2580   46.6570 C   0  0  0  0  0  0  0  0  0  0  0  0
   59.4780   28.1980   47.1090 C   0  0  0  0  0  0  0  0  0  0  0  0
   60.3850   28.8150   46.2570 C   0  0  0  0  0  0  0  0  0  0  0  0
   59.5400   29.4310   44.9390 S   0  0  0  0  0  0  0  0  0  0  0  0
   59.9660   34.7190   45.9740 C   0  0  0  0  0  0  0  0  0  0  0  0
   61.0200   33.7970   46.4950 C   0  0  0  0  0  0  0  0  0  0  0  0
   62.2370   33.8470   46.1740 O   0  0  0  0  0  0  0  0  0  0  0  0
   57.2845   32.0580   52.7478 H   0  0  0  0  0  0  0  0  0  0  0  0
   57.9535   32.7304   51.2224 H   0  0  0  0  0  0  0  0  0  0  0  0
   56.3445   31.9319   51.2224 H   0  0  0  0  0  0  0  0  0  0  0  0
   59.0045   30.5477   51.8477 H   0  0  0  0  0  0  0  0  0  0  0  0
   57.3766   29.7720   51.7443 H   0  0  0  0  0  0  0  0  0  0  0  0
   60.7762   30.2133   49.5445 H   0  0  0  0  0  0  0  0  0  0  0  0
   62.1649   31.6651   48.0401 H   0  0  0  0  0  0  0  0  0  0  0  0
   57.2291   32.4874   48.4600 H   0  0  0  0  0  0  0  0  0  0  0  0
   58.1718   35.0114   47.2255 H   0  0  0  0  0  0  0  0  0  0  0  0
   56.6133   33.6888   46.2239 H   0  0  0  0  0  0  0  0  0  0  0  0
   57.5191   34.6398   44.9127 H   0  0  0  0  0  0  0  0  0  0  0  0
   57.7054   32.7990   43.7465 H   0  0  0  0  0  0  0  0  0  0  0  0
   58.7443   32.1281   45.0700 H   0  0  0  0  0  0  0  0  0  0  0  0
   57.0210   31.0440   46.0000 H   0  0  0  0  0  0  0  0  0  0  0  0
   55.6647   30.5921   43.5559 H   0  0  0  0  0  0  0  0  0  0  0  0
   57.4546   30.6372   43.3450 H   0  0  0  0  0  0  0  0  0  0  0  0
   55.8958   28.9373   45.3559 H   0  0  0  0  0  0  0  0  0  0  0  0
   56.7440   28.3642   43.8585 H   0  0  0  0  0  0  0  0  0  0  0  0
   57.3068   27.8181   47.2036 H   0  0  0  0  0  0  0  0  0  0  0  0
   59.7718   27.7088   48.0494 H   0  0  0  0  0  0  0  0  0  0  0  0
   61.4709   28.8884   46.4168 H   0  0  0  0  0  0  0  0  0  0  0  0
   59.8939   34.6514   44.8784 H   0  0  0  0  0  0  0  0  0  0  0  0
   60.1771   35.7747   46.1997 H   0  0  0  0  0  0  0  0  0  0  0  0
  1  2  1  0
  2  3  1  0
  3  4  1  0
  4  5  2  0
  5  6  1  0
  6  7  2  0
  7  8  1  0
  8  9  2  0
  8 10  1  0
 10 11  1  0
 11 12  1  0
 12 13  1  0
 13 14  1  0
 14 15  1  0
 15 16  1  0
 16 17  2  0
 17 18  1  0
 18 19  2  0
 19 20  1  0
 10 21  1  0
 21 22  1  0
 22 23  2  0
  9  4  1  0
 20 16  1  0
 22  7  1  0
  1 24  1  0
  1 25  1  0
  1 26  1  0
  2 27  1  0
  2 28  1  0
  5 29  1  0
  6 30  1  0
  9 31  1  0
 10 32  1  1
 11 33  1  0
 11 34  1  0
 12 35  1  0
 12 36  1  0
 13 37  1  0
 14 38  1  0
 14 39  1  0
 15 40  1  0
 15 41  1  0
 17 42  1  0
 18 43  1  0
 19 44  1  0
 21 45  1  0
 21 46  1  0
M  END
>  <UniqueID>  (35) 
34

>  <SMILES>  (35) 
CCOc1ccc2c(c1)[C@H](CCNCCc1cccs1)CC2=O

>  <Energy>  (35) 
79.96404732967918

>  <Genealogy>  (35) 
CCOc1ccc2c(c1)[C@H](CCNCCc1cccs1)CC2=O (chirality)
CCOc1ccc2c(c1)[C@H](CCNCCc1cccs1)CC2=O (3D coordinates assigned)
CCOc1ccc2c(c1)[C@H](CCNCCc1cccs1)CC2=O (nonaromatic ring conformer: 79.96404732967918 kcal/mol)

>  <smiles>  (35) 
CCOc1ccc2c(c1)C(CCNCCc1cccs1)CC2=O

>  <score_type>  (35) 
oracle

>  <origin>  (35) 
adg

>  <m_score__min__energy>  (35) 
-7.3799999999999999

>  <m_primary>  (35) 
energy

$$$$
35:0
     RDKit          3D

 53 56  0  0  0  0  0  0  0  0999 V2000
   56.5420   22.3360   48.7790 C   0  0  0  0  0  0  0  0  0  0  0  0
   57.3890   21.7500   47.8180 O   0  0  0  0  0  0  0  0  0  0  0  0
   56.7710   20.6180   47.2310 C   0  0  0  0  0  0  0  0  0  0  0  0
   56.6560   20.8200   45.7190 C   0  0  0  0  0  0  0  0  0  0  0  0
   55.8580   21.9640   45.4140 O   0  0  0  0  0  0  0  0  0  0  0  0
   56.3350   23.2760   45.2580 C   0  0  0  0  0  0  0  0  0  0  0  0
   55.7900   24.2740   46.0700 C   0  0  0  0  0  0  0  0  0  0  0  0
   56.2210   25.5990   45.9580 C   0  0  0  0  0  0  0  0  0  0  0  0
   57.2170   25.9520   45.0300 C   0  0  0  0  0  0  0  0  0  0  0  0
   57.6690   27.3630   44.9150 C   0  0  0  0  0  0  0  0  0  0  0  0
   57.8630   28.0920   43.7390 C   0  0  0  0  0  0  0  0  0  0  0  0
   58.2960   29.3680   43.9230 N   0  0  0  0  0  0  0  0  0  0  0  0
   58.4430   29.6900   45.2280 C   0  0  0  0  0  0  0  0  0  0  0  0
   58.9570   30.9770   45.7330 C   0  0  0  0  0  0  0  0  0  0  0  0
   60.0920   31.0530   46.4600 N   0  0  0  0  0  0  0  0  0  0  0  0
   60.2450   32.3650   46.7240 C   0  0  0  0  0  0  0  0  0  0  0  0
   61.3780   32.8950   47.5160 C   0  0  0  0  0  0  0  0  0  0  0  0
   61.1620   33.6700   48.6700 C   0  0  0  0  0  0  0  0  0  0  0  0
   62.2470   34.1440   49.4150 C   0  0  0  0  0  0  0  0  0  0  0  0
   63.5520   33.8380   49.0240 C   0  0  0  0  0  0  0  0  0  0  0  0
   63.7760   33.0510   47.8910 C   0  0  0  0  0  0  0  0  0  0  0  0
   62.6940   32.5760   47.1440 C   0  0  0  0  0  0  0  0  0  0  0  0
   59.2060   33.0730   46.1380 C   0  0  0  0  0  0  0  0  0  0  0  0
   59.0180   34.5630   46.1250 C   0  0  0  0  0  0  0  0  0  0  0  0
   58.3770   32.1870   45.5460 N   0  0  0  0  0  0  0  0  0  0  0  0
   57.1150   32.4890   44.8700 C   0  0  0  0  0  0  0  0  0  0  0  0
   58.0720   28.3760   46.2060 S   0  0  0  0  0  0  0  0  0  0  0  0
   57.7660   24.9460   44.2150 C   0  0  0  0  0  0  0  0  0  0  0  0
   57.3320   23.6210   44.3280 C   0  0  0  0  0  0  0  0  0  0  0  0
   56.9034   22.0860   49.7874 H   0  0  0  0  0  0  0  0  0  0  0  0
   56.5416   23.4284   48.6500 H   0  0  0  0  0  0  0  0  0  0  0  0
   55.5196   21.9512   48.6500 H   0  0  0  0  0  0  0  0  0  0  0  0
   57.3773   19.7232   47.4354 H   0  0  0  0  0  0  0  0  0  0  0  0
   55.7659   20.4886   47.6589 H   0  0  0  0  0  0  0  0  0  0  0  0
   57.6622   20.9608   45.2975 H   0  0  0  0  0  0  0  0  0  0  0  0
   56.1757   19.9318   45.2827 H   0  0  0  0  0  0  0  0  0  0  0  0
   55.0138   24.0143   46.8049 H   0  0  0  0  0  0  0  0  0  0  0  0
   55.7770   26.3727   46.6016 H   0  0  0  0  0  0  0  0  0  0  0  0
   57.6797   27.6667   42.7413 H   0  0  0  0  0  0  0  0  0  0  0  0
   58.5350   29.9990   43.1280 H   0  0  0  0  0  0  0  0  0  0  0  0
   60.1354   33.9043   48.9880 H   0  0  0  0  0  0  0  0  0  0  0  0
   62.0718   34.7587   50.3102 H   0  0  0  0  0  0  0  0  0  0  0  0
   64.4040   34.2164   49.6078 H   0  0  0  0  0  0  0  0  0  0  0  0
   64.8042   32.8052   47.5869 H   0  0  0  0  0  0  0  0  0  0  0  0
   62.8747   31.9482   46.2590 H   0  0  0  0  0  0  0  0  0  0  0  0
   58.9710   34.9357   47.1589 H   0  0  0  0  0  0  0  0  0  0  0  0
   59.8637   35.0347   45.6033 H   0  0  0  0  0  0  0  0  0  0  0  0
   58.0816   34.8099   45.6033 H   0  0  0  0  0  0  0  0  0  0  0  0
   56.3328   32.6762   45.6204 H   0  0  0  0  0  0  0  0  0  0  0  0
   57.2408   33.3824   44.2407 H   0  0  0  0  0  0  0  0  0  0  0  0
   56.8227   31.6354   44.2407 H   0  0  0  0  0  0  0  0  0  0  0  0
   58.5443   25.2035   43.4815 H   0  0  0  0  0  0  0  0  0  0  0  0
   57.7730   22.8444   43.6858 H   0  0  0  0  0  0  0  0  0  0  0  0
  1  2  1  0
  2  3  1  0
  3  4  1  0
  4  5  1  0
  5  6  1  0
  6  7  2  0
  7  8  1  0
  8  9  2  0
  9 10  1  0
 10 11  2  0
 11 12  1  0
 12 13  2  0
 13 14  1  0
 14 15  2  0
 15 16  1  0
 16 17  1  0
 17 18  2  0
 18 19  1  0
 19 20  2  0
 20 21  1  0
 21 22  2  0
 16 23  2  0
 23 24  1  0
 23 25  1  0
 25 26  1  0
 13 27  1  0
  9 28  1  0
 28 29  2  0
 29  6  1  0
 27 10  1  0
 25 14  1  0
 22 17  1  0
  1 30  1  0
  1 31  1  0
  1 32  1  0
  3 33  1  0
  3 34  1  0
  4 35  1  0
  4 36  1  0
  7 37  1  0
  8 38  1  0
 11 39  1  0
 12 40  1  0
 18 41  1  0
 19 42  1  0
 20 43  1  0
 21 44  1  0
 22 45  1  0
 24 46  1  0
 24 47  1  0
 24 48  1  0
 26 49  1  0
 26 50  1  0
 26 51  1  0
 28 52  1  0
 29 53  1  0
M  CHG  1  12   1
M  END
>  <UniqueID>  (36) 
35

>  <SMILES>  (36) 
COCCOc1ccc(-c2c[nH+]c(-c3nc(-c4ccccc4)c(C)n3C)s2)cc1

>  <Energy>  (36) 
125.7642832207986

>  <Genealogy>  (36) 
COCCOc1ccc(-c2c[nH+]c(-c3nc(-c4ccccc4)c(C)n3C)s2)cc1 (protonated)
COCCOc1ccc(-c2c[nH+]c(-c3nc(-c4ccccc4)c(C)n3C)s2)cc1 (3D coordinates assigned)
COCCOc1ccc(-c2c[nH+]c(-c3nc(-c4ccccc4)c(C)n3C)s2)cc1 (optimized conformer: 125.7642832207986 kcal/mol)

>  <smiles>  (36) 
COCCOc1ccc(-c2cnc(-c3nc(-c4ccccc4)c(C)n3C)s2)cc1

>  <score_type>  (36) 
oracle

>  <origin>  (36) 
adg

>  <m_score__min__energy>  (36) 
-6.8600000000000003

>  <m_primary>  (36) 
energy

$$$$
