0:0
     RDKit          3D

 49 50  0  0  0  0  0  0  0  0999 V2000
   64.6690   32.7960   49.5260 C   0  0  0  0  0  0  0  0  0  0  0  0
   63.4030   31.9430   49.5230 C   0  0  0  0  0  0  0  0  0  0  0  0
   62.5270   32.3300   48.3920 N   0  0  0  0  0  0  0  0  0  0  0  0
   63.3310   32.4800   47.1520 C   0  0  0  0  0  0  0  0  0  0  0  0
   63.1090   33.8500   46.5150 C   0  0  0  0  0  0  0  0  0  0  0  0
   61.7570   33.5730   48.6870 C   0  0  0  0  0  0  0  0  0  0  0  0
   60.2870   33.3540   48.6630 N   0  0  2  0  0  0  0  0  0  0  0  0
   59.7300   33.2710   49.9790 C   0  0  0  0  0  0  0  0  0  0  0  0
   59.7540   34.2170   50.7530 O   0  0  0  0  0  0  0  0  0  0  0  0
   59.0360   32.0090   50.3080 C   0  0  0  0  0  0  0  0  0  0  0  0
   59.1680   31.1910   49.0320 C   0  0  0  0  0  0  0  0  0  0  0  0
   59.8790   32.0900   47.9930 C   0  0  1  0  0  0  0  0  0  0  0  0
   59.0090   32.3510   46.7630 C   0  0  0  0  0  0  0  0  0  0  0  0
   58.1990   31.3110   46.2670 C   0  0  0  0  0  0  0  0  0  0  0  0
   57.3910   31.5010   45.1330 C   0  0  0  0  0  0  0  0  0  0  0  0
   56.5710   30.4870   44.6130 O   0  0  0  0  0  0  0  0  0  0  0  0
   56.6220   30.0180   43.2700 C   0  0  0  0  0  0  0  0  0  0  0  0
   57.3970   32.7390   44.4900 C   0  0  0  0  0  0  0  0  0  0  0  0
   58.1980   33.7800   44.9630 C   0  0  0  0  0  0  0  0  0  0  0  0
   59.0130   33.5990   46.0960 C   0  0  0  0  0  0  0  0  0  0  0  0
   59.8340   34.6320   46.5790 O   0  0  0  0  0  0  0  0  0  0  0  0
   59.9680   35.9130   45.9740 C   0  0  0  0  0  0  0  0  0  0  0  0
   64.9714   32.9997   50.5638 H   0  0  0  0  0  0  0  0  0  0  0  0
   65.4758   32.2566   49.0082 H   0  0  0  0  0  0  0  0  0  0  0  0
   64.4721   33.7463   49.0082 H   0  0  0  0  0  0  0  0  0  0  0  0
   63.6794   30.8831   49.4222 H   0  0  0  0  0  0  0  0  0  0  0  0
   62.8612   32.1020   50.4670 H   0  0  0  0  0  0  0  0  0  0  0  0
   64.3969   32.3672   47.3992 H   0  0  0  0  0  0  0  0  0  0  0  0
   63.0162   31.7067   46.4359 H   0  0  0  0  0  0  0  0  0  0  0  0
   62.9865   34.6060   47.3046 H   0  0  0  0  0  0  0  0  0  0  0  0
   63.9769   34.1091   45.8908 H   0  0  0  0  0  0  0  0  0  0  0  0
   62.2037   33.8218   45.8908 H   0  0  0  0  0  0  0  0  0  0  0  0
   62.0429   33.9359   49.6853 H   0  0  0  0  0  0  0  0  0  0  0  0
   61.9973   34.3074   47.9041 H   0  0  0  0  0  0  0  0  0  0  0  0
   59.8540   34.1860   48.1950 H   0  0  0  0  0  0  0  0  0  0  0  0
   59.5229   31.5009   51.1534 H   0  0  0  0  0  0  0  0  0  0  0  0
   57.9905   32.1611   50.6144 H   0  0  0  0  0  0  0  0  0  0  0  0
   59.7656   30.2873   49.2222 H   0  0  0  0  0  0  0  0  0  0  0  0
   58.1814   30.8709   48.6659 H   0  0  0  0  0  0  0  0  0  0  0  0
   60.7723   31.5698   47.6169 H   0  0  0  0  0  0  0  0  0  0  0  0
   58.1988   30.3353   46.7749 H   0  0  0  0  0  0  0  0  0  0  0  0
   56.7409   28.9244   43.2678 H   0  0  0  0  0  0  0  0  0  0  0  0
   55.6894   30.2865   42.7522 H   0  0  0  0  0  0  0  0  0  0  0  0
   57.4751   30.4807   42.7522 H   0  0  0  0  0  0  0  0  0  0  0  0
   56.7655   32.8962   43.6032 H   0  0  0  0  0  0  0  0  0  0  0  0
   58.1921   34.7506   44.4454 H   0  0  0  0  0  0  0  0  0  0  0  0
   60.0484   36.6816   46.7568 H   0  0  0  0  0  0  0  0  0  0  0  0
   60.8729   35.9304   45.3488 H   0  0  0  0  0  0  0  0  0  0  0  0
   59.0863   36.1172   45.3488 H   0  0  0  0  0  0  0  0  0  0  0  0
  1  2  1  0
  2  3  1  0
  3  4  1  0
  4  5  1  0
  3  6  1  0
  6  7  1  0
  7  8  1  0
  8  9  2  0
  8 10  1  0
 10 11  1  0
 11 12  1  0
 12 13  1  0
 13 14  2  0
 14 15  1  0
 15 16  1  0
 16 17  1  0
 15 18  2  0
 18 19  1  0
 19 20  2  0
 20 21  1  0
 21 22  1  0
 12  7  1  0
 20 13  1  0
  1 23  1  0
  1 24  1  0
  1 25  1  0
  2 26  1  0
  2 27  1  0
  4 28  1  0
  4 29  1  0
  5 30  1  0
  5 31  1  0
  5 32  1  0
  6 33  1  0
  6 34  1  0
  7 35  1  6
 10 36  1  0
 10 37  1  0
 11 38  1  0
 11 39  1  0
 12 40  1  6
 14 41  1  0
 17 42  1  0
 17 43  1  0
 17 44  1  0
 18 45  1  0
 19 46  1  0
 22 47  1  0
 22 48  1  0
 22 49  1  0
M  CHG  1   7   1
M  END
>  <UniqueID>  (1) 
1

>  <SMILES>  (1) 
CCN(CC)C[N@@H+]1C(=O)CC[C@H]1c1cc(OC)ccc1OC

>  <Energy>  (1) 
54.33474816821987

>  <Genealogy>  (1) 
CCN(CC)C[NH+]1C(=O)CCC1c1cc(OC)ccc1OC (protonated)
CCN(CC)C[N@@H+]1C(=O)CC[C@H]1c1cc(OC)ccc1OC (chirality)
CCN(CC)C[N@@H+]1C(=O)CC[C@H]1c1cc(OC)ccc1OC (3D coordinates assigned)
CCN(CC)C[N@@H+]1C(=O)CC[C@H]1c1cc(OC)ccc1OC (nonaromatic ring conformer: 54.33474816821987 kcal/mol)

>  <smiles>  (1) 
CCN(CC)CN1C(=O)CCC1c1cc(OC)ccc1OC

>  <score_type>  (1) 
oracle

>  <origin>  (1) 
adg

>  <m_score__min__energy>  (1) 
-4.5599999999999996

>  <m_primary>  (1) 
energy

$$$$
1:0
     RDKit          3D

 49 52  0  0  0  0  0  0  0  0999 V2000
   65.3010   32.8360   49.7650 C   0  0  0  0  0  0  0  0  0  0  0  0
   64.1780   31.8460   49.4370 C   0  0  0  0  0  0  0  0  0  0  0  0
   63.0220   32.5000   48.7750 N   0  0  0  0  0  0  0  0  0  0  0  0
   63.2990   32.7720   47.3390 C   0  0  0  0  0  0  0  0  0  0  0  0
   62.3670   33.8490   46.7460 C   0  0  0  0  0  0  0  0  0  0  0  0
   61.1300   33.9290   47.5380 N   0  0  0  0  0  0  0  0  0  0  0  0
   60.0380   34.6780   46.8760 C   0  0  0  0  0  0  0  0  0  0  0  0
   58.6320   34.0810   47.0880 C   0  0  0  0  0  0  0  0  0  0  0  0
   58.5540   32.7490   46.4700 N   0  0  0  0  0  0  0  0  0  0  0  0
   59.2690   31.6360   47.0420 C   0  0  0  0  0  0  0  0  0  0  0  0
   59.9890   31.8040   48.0650 O   0  0  0  0  0  0  0  0  0  0  0  0
   59.1560   30.2910   46.4310 C   0  0  0  0  0  0  0  0  0  0  0  0
   59.8720   29.2050   46.9610 C   0  0  0  0  0  0  0  0  0  0  0  0
   59.7660   27.9370   46.3860 C   0  0  0  0  0  0  0  0  0  0  0  0
   58.9450   27.7340   45.2770 C   0  0  0  0  0  0  0  0  0  0  0  0
   58.2200   28.8020   44.7320 C   0  0  0  0  0  0  0  0  0  0  0  0
   57.3910   28.5960   43.6190 C   0  0  0  0  0  0  0  0  0  0  0  0
   56.6660   29.6580   43.0790 C   0  0  0  0  0  0  0  0  0  0  0  0
   56.7590   30.9320   43.6390 C   0  0  0  0  0  0  0  0  0  0  0  0
   57.5840   31.1640   44.7540 C   0  0  0  0  0  0  0  0  0  0  0  0
   58.3210   30.0940   45.3080 C   0  0  0  0  0  0  0  0  0  0  0  0
   57.6810   32.5170   45.3490 C   0  0  0  0  0  0  0  0  0  0  0  0
   56.9950   33.4640   44.8740 O   0  0  0  0  0  0  0  0  0  0  0  0
   61.3900   34.3820   48.9190 C   0  0  0  0  0  0  0  0  0  0  0  0
   62.6790   33.7490   49.4900 C   0  0  0  0  0  0  0  0  0  0  0  0
   65.4032   32.9261   50.8565 H   0  0  0  0  0  0  0  0  0  0  0  0
   66.2469   32.4725   49.3369 H   0  0  0  0  0  0  0  0  0  0  0  0
   65.0590   33.8200   49.3369 H   0  0  0  0  0  0  0  0  0  0  0  0
   64.5760   31.0698   48.7668 H   0  0  0  0  0  0  0  0  0  0  0  0
   63.8223   31.4165   50.3852 H   0  0  0  0  0  0  0  0  0  0  0  0
   62.1990   31.8530   48.8450 H   0  0  0  0  0  0  0  0  0  0  0  0
   64.3397   33.1142   47.2401 H   0  0  0  0  0  0  0  0  0  0  0  0
   63.1230   31.8386   46.7843 H   0  0  0  0  0  0  0  0  0  0  0  0
   62.8766   34.8236   46.7654 H   0  0  0  0  0  0  0  0  0  0  0  0
   62.1172   33.5817   45.7086 H   0  0  0  0  0  0  0  0  0  0  0  0
   60.0380   35.7050   47.2700 H   0  0  0  0  0  0  0  0  0  0  0  0
   60.2376   34.6315   45.7953 H   0  0  0  0  0  0  0  0  0  0  0  0
   58.4313   33.9949   48.1661 H   0  0  0  0  0  0  0  0  0  0  0  0
   57.8852   34.7403   46.6216 H   0  0  0  0  0  0  0  0  0  0  0  0
   60.5215   29.3546   47.8361 H   0  0  0  0  0  0  0  0  0  0  0  0
   60.3325   27.0945   46.8095 H   0  0  0  0  0  0  0  0  0  0  0  0
   58.8664   26.7325   44.8289 H   0  0  0  0  0  0  0  0  0  0  0  0
   57.3127   27.5943   43.1712 H   0  0  0  0  0  0  0  0  0  0  0  0
   56.0173   29.4899   42.2067 H   0  0  0  0  0  0  0  0  0  0  0  0
   56.1823   31.7621   43.2050 H   0  0  0  0  0  0  0  0  0  0  0  0
   61.4980   35.4767   48.9216 H   0  0  0  0  0  0  0  0  0  0  0  0
   60.5441   34.0702   49.5493 H   0  0  0  0  0  0  0  0  0  0  0  0
   63.5082   34.4637   49.3823 H   0  0  0  0  0  0  0  0  0  0  0  0
   62.5100   33.5091   50.5501 H   0  0  0  0  0  0  0  0  0  0  0  0
  1  2  1  0
  2  3  1  0
  3  4  1  0
  4  5  1  0
  5  6  1  0
  6  7  1  0
  7  8  1  0
  8  9  1  0
  9 10  1  0
 10 11  2  0
 10 12  1  0
 12 13  2  0
 13 14  1  0
 14 15  2  0
 15 16  1  0
 16 17  2  0
 17 18  1  0
 18 19  2  0
 19 20  1  0
 20 21  2  0
 20 22  1  0
 22 23  2  0
  6 24  1  0
 24 25  1  0
 25  3  1  0
 22  9  1  0
 21 12  1  0
 21 16  1  0
  1 26  1  0
  1 27  1  0
  1 28  1  0
  2 29  1  0
  2 30  1  0
  3 31  1  0
  4 32  1  0
  4 33  1  0
  5 34  1  0
  5 35  1  0
  7 36  1  0
  7 37  1  0
  8 38  1  0
  8 39  1  0
 13 40  1  0
 14 41  1  0
 15 42  1  0
 17 43  1  0
 18 44  1  0
 19 45  1  0
 24 46  1  0
 24 47  1  0
 25 48  1  0
 25 49  1  0
M  CHG  1   3   1
M  END
>  <UniqueID>  (2) 
2

>  <SMILES>  (2) 
CC[NH+]1CCN(CCN2C(=O)c3cccc4cccc(c34)C2=O)CC1

>  <Energy>  (2) 
67.4647261408674

>  <Genealogy>  (2) 
CC[NH+]1CCN(CCN2C(=O)c3cccc4cccc(c34)C2=O)CC1 (protonated)
CC[NH+]1CCN(CCN2C(=O)c3cccc4cccc(c34)C2=O)CC1 (3D coordinates assigned)
CC[NH+]1CCN(CCN2C(=O)c3cccc4cccc(c34)C2=O)CC1 (nonaromatic ring conformer: 67.4647261408674 kcal/mol)

>  <smiles>  (2) 
CC[N+]1CCN(CCN2C(=O)c3cccc4cccc(c34)C2=O)CC1

>  <score_type>  (2) 
oracle

>  <origin>  (2) 
adg

>  <m_score__min__energy>  (2) 
-6.6799999999999997

>  <m_primary>  (2) 
energy

$$$$
2:0
     RDKit          3D

 52 54  0  0  0  0  0  0  0  0999 V2000
   59.3160   29.6430   49.2200 C   0  0  0  0  0  0  0  0  0  0  0  0
   59.6460   28.5030   48.2430 C   0  0  0  0  0  0  0  0  0  0  0  0
   58.9760   28.6070   46.9260 N   0  0  0  0  0  0  0  0  0  0  0  0
   59.8880   28.4620   45.7790 C   0  0  0  0  0  0  0  0  0  0  0  0
   59.1810   28.9290   44.4910 C   0  0  0  0  0  0  0  0  0  0  0  0
   57.7020   28.9450   44.6380 N   0  0  0  0  0  0  0  0  0  0  0  0
   57.0270   29.0480   43.3250 C   0  0  0  0  0  0  0  0  0  0  0  0
   56.4310   30.4440   43.0870 C   0  0  0  0  0  0  0  0  0  0  0  0
   57.4170   31.5630   43.4470 C   0  0  0  0  0  0  0  0  0  0  0  0
   57.4470   31.7620   44.8940 N   0  0  0  0  0  0  0  0  0  0  0  0
   57.2760   33.0540   45.4940 C   0  0  0  0  0  0  0  0  0  0  0  0
   56.9740   34.0520   44.7820 O   0  0  0  0  0  0  0  0  0  0  0  0
   57.4620   33.2350   46.9710 C   0  0  0  0  0  0  0  0  0  0  0  0
   58.8890   33.4160   47.2830 N   0  0  0  0  0  0  0  0  0  0  0  0
   59.2940   34.5950   47.8500 C   0  0  0  0  0  0  0  0  0  0  0  0
   60.5950   34.7910   48.1850 N   0  0  0  0  0  0  0  0  0  0  0  0
   61.5270   33.8300   47.9760 C   0  0  0  0  0  0  0  0  0  0  0  0
   62.8230   34.0530   48.3210 N   0  0  0  0  0  0  0  0  0  0  0  0
   63.7870   33.1100   48.1310 C   0  0  0  0  0  0  0  0  0  0  0  0
   63.4580   31.8740   47.5700 C   0  0  0  0  0  0  0  0  0  0  0  0
   62.1340   31.6150   47.2060 C   0  0  0  0  0  0  0  0  0  0  0  0
   61.1500   32.6000   47.4070 C   0  0  0  0  0  0  0  0  0  0  0  0
   59.7980   32.4080   47.0680 C   0  0  0  0  0  0  0  0  0  0  0  0
   59.4260   31.3080   46.5710 O   0  0  0  0  0  0  0  0  0  0  0  0
   57.2400   27.7420   45.3580 C   0  0  0  0  0  0  0  0  0  0  0  0
   57.7970   27.7260   46.7970 C   0  0  0  0  0  0  0  0  0  0  0  0
   59.4206   29.2818   50.2537 H   0  0  0  0  0  0  0  0  0  0  0  0
   60.0084   30.4812   49.0527 H   0  0  0  0  0  0  0  0  0  0  0  0
   58.2829   29.9818   49.0527 H   0  0  0  0  0  0  0  0  0  0  0  0
   60.7332   28.4984   48.0756 H   0  0  0  0  0  0  0  0  0  0  0  0
   59.2775   27.5769   48.7083 H   0  0  0  0  0  0  0  0  0  0  0  0
   60.7860   29.0750   45.9460 H   0  0  0  0  0  0  0  0  0  0  0  0
   60.1762   27.4056   45.6739 H   0  0  0  0  0  0  0  0  0  0  0  0
   59.5240   29.9453   44.2469 H   0  0  0  0  0  0  0  0  0  0  0  0
   59.4336   28.2187   43.6900 H   0  0  0  0  0  0  0  0  0  0  0  0
   57.7596   28.8357   42.5324 H   0  0  0  0  0  0  0  0  0  0  0  0
   56.2012   28.3214   43.3118 H   0  0  0  0  0  0  0  0  0  0  0  0
   56.1609   30.5377   42.0248 H   0  0  0  0  0  0  0  0  0  0  0  0
   55.5483   30.5498   43.7348 H   0  0  0  0  0  0  0  0  0  0  0  0
   58.4228   31.2876   43.0971 H   0  0  0  0  0  0  0  0  0  0  0  0
   57.0936   32.4962   42.9627 H   0  0  0  0  0  0  0  0  0  0  0  0
   57.5850   30.9290   45.5070 H   0  0  0  0  0  0  0  0  0  0  0  0
   56.9019   34.1219   47.3022 H   0  0  0  0  0  0  0  0  0  0  0  0
   57.0901   32.3409   47.4928 H   0  0  0  0  0  0  0  0  0  0  0  0
   58.5579   35.3910   48.0358 H   0  0  0  0  0  0  0  0  0  0  0  0
   64.8269   33.3222   48.4200 H   0  0  0  0  0  0  0  0  0  0  0  0
   64.2349   31.1106   47.4160 H   0  0  0  0  0  0  0  0  0  0  0  0
   61.8623   30.6450   46.7641 H   0  0  0  0  0  0  0  0  0  0  0  0
   56.1406   27.7424   45.3954 H   0  0  0  0  0  0  0  0  0  0  0  0
   57.6011   26.8490   44.8269 H   0  0  0  0  0  0  0  0  0  0  0  0
   57.0141   28.0716   47.4881 H   0  0  0  0  0  0  0  0  0  0  0  0
   58.1037   26.6978   47.0392 H   0  0  0  0  0  0  0  0  0  0  0  0
  1  2  1  0
  2  3  1  0
  3  4  1  0
  4  5  1  0
  5  6  1  0
  6  7  1  0
  7  8  1  0
  8  9  1  0
  9 10  1  0
 10 11  1  0
 11 12  2  0
 11 13  1  0
 13 14  1  0
 14 15  1  0
 15 16  2  0
 16 17  1  0
 17 18  2  0
 18 19  1  0
 19 20  2  0
 20 21  1  0
 21 22  2  0
 22 23  1  0
 23 24  2  0
  6 25  1  0
 25 26  1  0
 26  3  1  0
 23 14  1  0
 22 17  1  0
  1 27  1  0
  1 28  1  0
  1 29  1  0
  2 30  1  0
  2 31  1  0
  4 32  1  0
  4 33  1  0
  5 34  1  0
  5 35  1  0
  7 36  1  0
  7 37  1  0
  8 38  1  0
  8 39  1  0
  9 40  1  0
  9 41  1  0
 10 42  1  0
 13 43  1  0
 13 44  1  0
 15 45  1  0
 19 46  1  0
 20 47  1  0
 21 48  1  0
 25 49  1  0
 25 50  1  0
 26 51  1  0
 26 52  1  0
M  END
>  <UniqueID>  (3) 
3

>  <SMILES>  (3) 
CCN1CCN(CCCNC(=O)Cn2cnc3ncccc3c2=O)CC1

>  <Energy>  (3) 
63.46716211381991

>  <Genealogy>  (3) 
CCN1CCN(CCCNC(=O)Cn2cnc3ncccc3c2=O)CC1 (3D coordinates assigned)
CCN1CCN(CCCNC(=O)Cn2cnc3ncccc3c2=O)CC1 (nonaromatic ring conformer: 63.46716211381991 kcal/mol)

>  <smiles>  (3) 
CCN1CCN(CCCNC(=O)Cn2cnc3ncccc3c2=O)CC1

>  <score_type>  (3) 
oracle

>  <origin>  (3) 
adg

>  <m_score__min__energy>  (3) 
-7.3600000000000003

>  <m_primary>  (3) 
energy

$$$$
3:0
     RDKit          3D

 48 49  0  0  0  0  0  0  0  0999 V2000
   57.8570   30.9060   51.1270 C   0  0  0  0  0  0  0  0  0  0  0  0
   58.7290   30.2080   50.0740 C   0  0  0  0  0  0  0  0  0  0  0  0
   58.9000   30.9730   48.8140 N   0  0  0  0  0  0  0  0  0  0  0  0
   59.9640   30.4390   47.9340 C   0  0  0  0  0  0  0  0  0  0  0  0
   59.4830   30.3250   46.5180 C   0  0  0  0  0  0  0  0  0  0  0  0
   60.3200   30.1110   45.5990 O   0  0  0  0  0  0  0  0  0  0  0  0
   58.0870   30.4580   46.2140 N   0  0  0  0  0  0  0  0  0  0  0  0
   57.5820   30.5370   44.8720 C   0  0  0  0  0  0  0  0  0  0  0  0
   58.1000   31.5090   44.0070 C   0  0  0  0  0  0  0  0  0  0  0  0
   57.6330   31.6130   42.6950 C   0  0  0  0  0  0  0  0  0  0  0  0
   56.6530   30.7340   42.2330 C   0  0  0  0  0  0  0  0  0  0  0  0
   56.1470   29.7410   43.0750 C   0  0  0  0  0  0  0  0  0  0  0  0
   56.6140   29.6230   44.4000 C   0  0  0  0  0  0  0  0  0  0  0  0
   56.1630   28.6050   45.2550 O   0  0  0  0  0  0  0  0  0  0  0  0
   56.9250   27.4600   45.6240 C   0  0  0  0  0  0  0  0  0  0  0  0
   59.0640   32.4220   49.0540 C   0  0  0  0  0  0  0  0  0  0  0  0
   58.9350   33.1810   47.7550 C   0  0  0  0  0  0  0  0  0  0  0  0
   57.6740   33.2660   47.1420 C   0  0  0  0  0  0  0  0  0  0  0  0
   57.5180   33.9410   45.9310 C   0  0  0  0  0  0  0  0  0  0  0  0
   58.6200   34.5340   45.3160 C   0  0  0  0  0  0  0  0  0  0  0  0
   59.8820   34.4530   45.9080 C   0  0  0  0  0  0  0  0  0  0  0  0
   60.0560   33.7740   47.1310 C   0  0  0  0  0  0  0  0  0  0  0  0
   61.3160   33.6690   47.7430 O   0  0  0  0  0  0  0  0  0  0  0  0
   62.5310   33.3920   47.0530 C   0  0  0  0  0  0  0  0  0  0  0  0
   58.2041   30.6282   52.1331 H   0  0  0  0  0  0  0  0  0  0  0  0
   57.9323   31.9962   51.0012 H   0  0  0  0  0  0  0  0  0  0  0  0
   56.8097   30.5938   51.0012 H   0  0  0  0  0  0  0  0  0  0  0  0
   59.7242   30.0369   50.5102 H   0  0  0  0  0  0  0  0  0  0  0  0
   58.2114   29.2749   49.8066 H   0  0  0  0  0  0  0  0  0  0  0  0
   60.8308   31.1155   47.9662 H   0  0  0  0  0  0  0  0  0  0  0  0
   60.2441   29.4369   48.2909 H   0  0  0  0  0  0  0  0  0  0  0  0
   57.4000   30.3530   46.9930 H   0  0  0  0  0  0  0  0  0  0  0  0
   58.8812   32.1962   44.3640 H   0  0  0  0  0  0  0  0  0  0  0  0
   58.0375   32.3872   42.0264 H   0  0  0  0  0  0  0  0  0  0  0  0
   56.2778   30.8232   41.2028 H   0  0  0  0  0  0  0  0  0  0  0  0
   55.3795   29.0469   42.7020 H   0  0  0  0  0  0  0  0  0  0  0  0
   56.9723   27.3889   46.7207 H   0  0  0  0  0  0  0  0  0  0  0  0
   56.4479   26.5557   45.2182 H   0  0  0  0  0  0  0  0  0  0  0  0
   57.9434   27.5509   45.2182 H   0  0  0  0  0  0  0  0  0  0  0  0
   58.2881   32.7649   49.7543 H   0  0  0  0  0  0  0  0  0  0  0  0
   60.0610   32.6057   49.4808 H   0  0  0  0  0  0  0  0  0  0  0  0
   56.8021   32.7964   47.6208 H   0  0  0  0  0  0  0  0  0  0  0  0
   56.5254   34.0054   45.4613 H   0  0  0  0  0  0  0  0  0  0  0  0
   58.4948   35.0670   44.3620 H   0  0  0  0  0  0  0  0  0  0  0  0
   60.7468   34.9225   45.4164 H   0  0  0  0  0  0  0  0  0  0  0  0
   63.3335   33.2090   47.7827 H   0  0  0  0  0  0  0  0  0  0  0  0
   62.3992   32.5009   46.4217 H   0  0  0  0  0  0  0  0  0  0  0  0
   62.7985   34.2522   46.4217 H   0  0  0  0  0  0  0  0  0  0  0  0
  1  2  1  0
  2  3  1  0
  3  4  1  0
  4  5  1  0
  5  6  2  0
  5  7  1  0
  7  8  1  0
  8  9  2  0
  9 10  1  0
 10 11  2  0
 11 12  1  0
 12 13  2  0
 13 14  1  0
 14 15  1  0
  3 16  1  0
 16 17  1  0
 17 18  2  0
 18 19  1  0
 19 20  2  0
 20 21  1  0
 21 22  2  0
 22 23  1  0
 23 24  1  0
 13  8  1  0
 22 17  1  0
  1 25  1  0
  1 26  1  0
  1 27  1  0
  2 28  1  0
  2 29  1  0
  4 30  1  0
  4 31  1  0
  7 32  1  0
  9 33  1  0
 10 34  1  0
 11 35  1  0
 12 36  1  0
 15 37  1  0
 15 38  1  0
 15 39  1  0
 16 40  1  0
 16 41  1  0
 18 42  1  0
 19 43  1  0
 20 44  1  0
 21 45  1  0
 24 46  1  0
 24 47  1  0
 24 48  1  0
M  END
>  <UniqueID>  (4) 
4

>  <SMILES>  (4) 
CCN(CC(=O)Nc1ccccc1OC)Cc1ccccc1OC

>  <Energy>  (4) 
52.92542521828577

>  <Genealogy>  (4) 
CCN(CC(=O)Nc1ccccc1OC)Cc1ccccc1OC (3D coordinates assigned)
CCN(CC(=O)Nc1ccccc1OC)Cc1ccccc1OC (optimized conformer: 52.92542521828577 kcal/mol)

>  <smiles>  (4) 
CCN(CC(=O)Nc1ccccc1OC)Cc1ccccc1OC

>  <score_type>  (4) 
oracle

>  <origin>  (4) 
adg

>  <m_score__min__energy>  (4) 
-7.29

>  <m_primary>  (4) 
energy

$$$$
4:0
     RDKit          3D

 66 69  0  0  0  0  0  0  0  0999 V2000
   59.9530   22.2060   44.9020 C   0  0  0  0  0  0  0  0  0  0  0  0
   58.4740   21.8320   44.9940 C   0  0  0  0  0  0  0  0  0  0  0  0
   58.0430   21.0970   43.7930 N   0  0  0  0  0  0  0  0  0  0  0  0
   56.9270   21.7670   43.1010 C   0  0  0  0  0  0  0  0  0  0  0  0
   56.8080   23.2530   43.4850 C   0  0  0  0  0  0  0  0  0  0  0  0
   55.4750   23.5290   44.1940 C   0  0  0  0  0  0  0  0  0  0  0  0
   55.5940   23.3630   45.7090 C   0  0  0  0  0  0  0  0  0  0  0  0
   55.4330   24.6260   46.3530 O   0  0  0  0  0  0  0  0  0  0  0  0
   56.4300   25.6090   46.4470 C   0  0  0  0  0  0  0  0  0  0  0  0
   57.4760   25.3970   47.3430 C   0  0  0  0  0  0  0  0  0  0  0  0
   58.4920   26.3380   47.4780 C   0  0  0  0  0  0  0  0  0  0  0  0
   58.4800   27.5150   46.7140 C   0  0  0  0  0  0  0  0  0  0  0  0
   59.5170   28.4370   46.8730 C   0  0  0  0  0  0  0  0  0  0  0  0
   59.5530   29.6240   46.1370 C   0  0  0  0  0  0  0  0  0  0  0  0
   60.6650   30.5250   46.3030 N   0  0  0  0  0  0  0  0  0  0  0  0
   60.5980   31.7300   47.1320 C   0  0  0  0  0  0  0  0  0  0  0  0
   59.1590   32.0030   47.6030 C   0  0  0  0  0  0  0  0  0  0  0  0
   58.8650   33.4560   47.6250 N   0  0  0  0  0  0  0  0  0  0  0  0
   59.9590   34.2240   47.0110 C   0  0  0  0  0  0  0  0  0  0  0  0
   59.6500   34.3690   45.5290 C   0  0  0  0  0  0  0  0  0  0  0  0
   58.1560   34.1330   45.4080 C   0  0  0  0  0  0  0  0  0  0  0  0
   57.6840   33.7930   46.8150 C   0  0  0  0  0  0  0  0  0  0  0  0
   58.5200   29.9020   45.2110 C   0  0  0  0  0  0  0  0  0  0  0  0
   58.5220   31.1100   44.4780 C   0  0  0  0  0  0  0  0  0  0  0  0
   57.5120   31.3950   43.5670 C   0  0  0  0  0  0  0  0  0  0  0  0
   56.4780   30.4880   43.3670 C   0  0  0  0  0  0  0  0  0  0  0  0
   56.4410   29.2940   44.0840 C   0  0  0  0  0  0  0  0  0  0  0  0
   57.4500   28.9710   45.0270 C   0  0  0  0  0  0  0  0  0  0  0  0
   57.4310   27.7630   45.7900 C   0  0  0  0  0  0  0  0  0  0  0  0
   56.4080   26.7870   45.6740 C   0  0  0  0  0  0  0  0  0  0  0  0
   60.3684   22.3110   45.9151 H   0  0  0  0  0  0  0  0  0  0  0  0
   60.4978   21.4173   44.3623 H   0  0  0  0  0  0  0  0  0  0  0  0
   60.0574   23.1588   44.3623 H   0  0  0  0  0  0  0  0  0  0  0  0
   58.3169   21.1988   45.8797 H   0  0  0  0  0  0  0  0  0  0  0  0
   57.8818   22.7556   45.0726 H   0  0  0  0  0  0  0  0  0  0  0  0
   57.7140   20.1460   44.0840 H   0  0  0  0  0  0  0  0  0  0  0  0
   58.8510   20.9770   43.1380 H   0  0  0  0  0  0  0  0  0  0  0  0
   57.0894   21.6942   42.0155 H   0  0  0  0  0  0  0  0  0  0  0  0
   55.9953   21.2662   43.4028 H   0  0  0  0  0  0  0  0  0  0  0  0
   57.6362   23.5186   44.1585 H   0  0  0  0  0  0  0  0  0  0  0  0
   56.8506   23.8582   42.5674 H   0  0  0  0  0  0  0  0  0  0  0  0
   55.1601   24.5594   43.9722 H   0  0  0  0  0  0  0  0  0  0  0  0
   54.7351   22.8024   43.8270 H   0  0  0  0  0  0  0  0  0  0  0  0
   54.8142   22.6722   46.0620 H   0  0  0  0  0  0  0  0  0  0  0  0
   56.5881   22.9588   45.9507 H   0  0  0  0  0  0  0  0  0  0  0  0
   57.4986   24.4787   47.9482 H   0  0  0  0  0  0  0  0  0  0  0  0
   59.3114   26.1578   48.1895 H   0  0  0  0  0  0  0  0  0  0  0  0
   60.3216   28.2243   47.5922 H   0  0  0  0  0  0  0  0  0  0  0  0
   61.6060   30.2180   45.9680 H   0  0  0  0  0  0  0  0  0  0  0  0
   61.2441   31.5962   48.0121 H   0  0  0  0  0  0  0  0  0  0  0  0
   60.9352   32.5862   46.5293 H   0  0  0  0  0  0  0  0  0  0  0  0
   58.4573   31.5059   46.9171 H   0  0  0  0  0  0  0  0  0  0  0  0
   59.0484   31.6112   48.6249 H   0  0  0  0  0  0  0  0  0  0  0  0
   60.0269   35.2176   47.4781 H   0  0  0  0  0  0  0  0  0  0  0  0
   60.9193   33.7071   47.1546 H   0  0  0  0  0  0  0  0  0  0  0  0
   59.9106   35.3783   45.1778 H   0  0  0  0  0  0  0  0  0  0  0  0
   60.2285   33.6607   44.9177 H   0  0  0  0  0  0  0  0  0  0  0  0
   57.6518   35.0394   45.0417 H   0  0  0  0  0  0  0  0  0  0  0  0
   57.9259   33.3283   44.6942 H   0  0  0  0  0  0  0  0  0  0  0  0
   57.1658   34.6585   47.2536 H   0  0  0  0  0  0  0  0  0  0  0  0
   56.9859   32.9433   46.7876 H   0  0  0  0  0  0  0  0  0  0  0  0
   59.3348   31.8353   44.6307 H   0  0  0  0  0  0  0  0  0  0  0  0
   57.5309   32.3395   43.0035 H   0  0  0  0  0  0  0  0  0  0  0  0
   55.6849   30.7140   42.6390 H   0  0  0  0  0  0  0  0  0  0  0  0
   55.6139   28.5887   43.9156 H   0  0  0  0  0  0  0  0  0  0  0  0
   55.5817   26.9530   44.9671 H   0  0  0  0  0  0  0  0  0  0  0  0
  1  2  1  0
  2  3  1  0
  3  4  1  0
  4  5  1  0
  5  6  1  0
  6  7  1  0
  7  8  1  0
  8  9  1  0
  9 10  2  0
 10 11  1  0
 11 12  2  0
 12 13  1  0
 13 14  2  0
 14 15  1  0
 15 16  1  0
 16 17  1  0
 17 18  1  0
 18 19  1  0
 19 20  1  0
 20 21  1  0
 21 22  1  0
 14 23  1  0
 23 24  2  0
 24 25  1  0
 25 26  2  0
 26 27  1  0
 27 28  2  0
 28 29  1  0
 29 30  2  0
 30  9  1  0
 29 12  1  0
 22 18  1  0
 28 23  1  0
  1 31  1  0
  1 32  1  0
  1 33  1  0
  2 34  1  0
  2 35  1  0
  3 36  1  0
  3 37  1  0
  4 38  1  0
  4 39  1  0
  5 40  1  0
  5 41  1  0
  6 42  1  0
  6 43  1  0
  7 44  1  0
  7 45  1  0
 10 46  1  0
 11 47  1  0
 13 48  1  0
 15 49  1  0
 16 50  1  0
 16 51  1  0
 17 52  1  0
 17 53  1  0
 19 54  1  0
 19 55  1  0
 20 56  1  0
 20 57  1  0
 21 58  1  0
 21 59  1  0
 22 60  1  0
 22 61  1  0
 24 62  1  0
 25 63  1  0
 26 64  1  0
 27 65  1  0
 30 66  1  0
M  CHG  1   3   1
M  END
>  <UniqueID>  (5) 
5

>  <SMILES>  (5) 
CC[NH2+]CCCCOc1ccc2cc(NCCN3CCCC3)c3ccccc3c2c1

>  <Energy>  (5) 
78.68391069199971

>  <Genealogy>  (5) 
CC[NH2+]CCCCOc1ccc2cc(NCCN3CCCC3)c3ccccc3c2c1 (protonated)
CC[NH2+]CCCCOc1ccc2cc(NCCN3CCCC3)c3ccccc3c2c1 (3D coordinates assigned)
CC[NH2+]CCCCOc1ccc2cc(NCCN3CCCC3)c3ccccc3c2c1 (nonaromatic ring conformer: 78.68391069199971 kcal/mol)

>  <smiles>  (5) 
CCNCCCCOc1ccc2cc(NCCN3CCCC3)c3ccccc3c2c1

>  <score_type>  (5) 
oracle

>  <origin>  (5) 
adg

>  <m_score__min__energy>  (5) 
-7.7599999999999998

>  <m_primary>  (5) 
energy

$$$$
5:0
     RDKit          3D

 32 32  0  0  0  0  0  0  0  0999 V2000
   57.9250   24.9712   43.6773 H   0  0  0  0  0  0  0  0  0  0  0  0
   57.7450   25.9900   44.0510 C   0  0  0  0  0  0  0  0  0  0  0  0
   57.1780   26.1370   45.2590 C   0  0  0  0  0  0  0  0  0  0  0  0
   56.8305   25.2376   45.7884 H   0  0  0  0  0  0  0  0  0  0  0  0
   56.9960   27.4750   45.9220 C   0  0  0  0  0  0  0  0  0  0  0  0
   56.7465   27.3266   46.9830 H   0  0  0  0  0  0  0  0  0  0  0  0
   57.9284   28.0527   45.8396 H   0  0  0  0  0  0  0  0  0  0  0  0
   55.9190   28.2020   45.2690 N   0  0  0  0  0  0  0  0  0  0  0  0
   56.0890   29.5080   44.7130 C   0  0  0  0  0  0  0  0  0  0  0  0
   55.1160   30.1090   44.1810 O   0  0  0  0  0  0  0  0  0  0  0  0
   57.4470   30.1340   44.7080 C   0  0  0  0  0  0  0  0  0  0  0  0
   58.2061   29.3550   44.8722 H   0  0  0  0  0  0  0  0  0  0  0  0
   57.6118   30.6225   43.7363 H   0  0  0  0  0  0  0  0  0  0  0  0
   57.5460   31.1130   45.7420 O   0  0  0  0  0  0  0  0  0  0  0  0
   58.7740   31.6350   46.1720 C   0  0  0  0  0  0  0  0  0  0  0  0
   59.0290   33.0070   46.0010 C   0  0  0  0  0  0  0  0  0  0  0  0
   57.7100   34.1600   45.2320 Br  0  0  0  0  0  0  0  0  0  0  0  0
   60.2640   33.5440   46.3740 C   0  0  0  0  0  0  0  0  0  0  0  0
   60.4617   34.6165   46.2301 H   0  0  0  0  0  0  0  0  0  0  0  0
   61.2480   32.7230   46.9290 C   0  0  0  0  0  0  0  0  0  0  0  0
   62.9400   33.4600   47.4200 Br  0  0  0  0  0  0  0  0  0  0  0  0
   60.9920   31.3650   47.1320 C   0  0  0  0  0  0  0  0  0  0  0  0
   61.7694   30.7229   47.5718 H   0  0  0  0  0  0  0  0  0  0  0  0
   59.7500   30.8130   46.7790 C   0  0  0  0  0  0  0  0  0  0  0  0
   59.5030   29.3520   47.0360 C   0  0  0  0  0  0  0  0  0  0  0  0
   59.4723   29.1705   48.1205 H   0  0  0  0  0  0  0  0  0  0  0  0
   58.5424   29.0581   46.5877 H   0  0  0  0  0  0  0  0  0  0  0  0
   60.3136   28.7587   46.5877 H   0  0  0  0  0  0  0  0  0  0  0  0
   58.1450   27.1500   43.1860 C   0  0  0  0  0  0  0  0  0  0  0  0
   58.4375   27.9982   43.8224 H   0  0  0  0  0  0  0  0  0  0  0  0
   58.9944   26.8581   42.5509 H   0  0  0  0  0  0  0  0  0  0  0  0
   57.2962   27.4437   42.5509 H   0  0  0  0  0  0  0  0  0  0  0  0
  1  2  1  0
  2  3  2  0
  3  4  1  0
  3  5  1  0
  5  6  1  0
  5  7  1  0
  5  8  1  0
  8  9  1  0
  9 10  2  0
  9 11  1  0
 11 12  1  0
 11 13  1  0
 11 14  1  0
 14 15  1  0
 15 16  2  0
 16 17  1  0
 16 18  1  0
 18 19  1  0
 18 20  2  0
 20 21  1  0
 20 22  1  0
 22 23  1  0
 22 24  2  0
 24 25  1  0
 25 26  1  0
 25 27  1  0
 25 28  1  0
  2 29  1  0
 29 30  1  0
 29 31  1  0
 29 32  1  0
 24 15  1  0
M  CHG  1   8  -1
M  END
>  <UniqueID>  (6) 
6

>  <SMILES>  (6) 
C/C=C\C[N-]C(=O)COc1c(C)cc(Br)cc1Br

>  <Energy>  (6) 
27.1776032744176

>  <Genealogy>  (6) 
CC=CC[N-]C(=O)COc1c(C)cc(Br)cc1Br (protonated)
C/C=C\C[N-]C(=O)COc1c(C)cc(Br)cc1Br (cis-trans isomerization)
C/C=C\C[N-]C(=O)COc1c(C)cc(Br)cc1Br (3D coordinates assigned)
C/C=C\C[N-]C(=O)COc1c(C)cc(Br)cc1Br (optimized conformer: 27.1776032744176 kcal/mol)

>  <smiles>  (6) 
CC=CCNC(=O)COc1c(C)cc(Br)cc1Br

>  <score_type>  (6) 
oracle

>  <origin>  (6) 
adg

>  <m_score__min__energy>  (6) 
-8.8499999999999996

>  <m_primary>  (6) 
energy

$$$$
6:0
     RDKit          3D

 91 96  0  0  0  0  0  0  0  0999 V2000
   59.5610   28.1530   44.1810 C   0  0  0  0  0  0  0  0  0  0  0  0
   58.3080   27.4590   44.5210 N   0  0  0  0  0  0  0  0  0  0  0  0
   58.5740   26.3120   45.4170 C   0  0  0  0  0  0  0  0  0  0  0  0
   59.7700   26.5800   46.3360 C   0  0  0  0  0  0  0  0  0  0  0  0
   59.3310   26.4470   47.7290 N   0  0  0  0  0  0  0  0  0  0  0  0
   59.6050   27.6570   48.5150 C   0  0  0  0  0  0  0  0  0  0  0  0
   60.5210   28.6430   47.7560 C   0  0  0  0  0  0  0  0  0  0  0  0
   60.3730   30.0510   48.1860 N   0  0  0  0  0  0  0  0  0  0  0  0
   61.5150   30.5340   48.9540 C   0  0  0  0  0  0  0  0  0  0  0  0
   61.8480   29.9780   50.2180 C   0  0  0  0  0  0  0  0  0  0  0  0
   61.4370   28.6760   50.6030 C   0  0  0  0  0  0  0  0  0  0  0  0
   61.7200   28.1800   51.8720 C   0  0  0  0  0  0  0  0  0  0  0  0
   62.4570   28.9390   52.7700 C   0  0  0  0  0  0  0  0  0  0  0  0
   62.9300   30.1930   52.3980 C   0  0  0  0  0  0  0  0  0  0  0  0
   62.6340   30.7440   51.1240 C   0  0  0  0  0  0  0  0  0  0  0  0
   63.1060   31.9860   50.7520 N   0  0  0  0  0  0  0  0  0  0  0  0
   63.6360   32.9180   51.7720 C   0  0  0  0  0  0  0  0  0  0  0  0
   63.0840   32.3550   49.4230 C   0  0  0  0  0  0  0  0  0  0  0  0
   63.8660   33.4340   48.9440 C   0  0  0  0  0  0  0  0  0  0  0  0
   63.8100   33.8260   47.6090 C   0  0  0  0  0  0  0  0  0  0  0  0
   62.9840   33.1510   46.7200 C   0  0  0  0  0  0  0  0  0  0  0  0
   62.2230   32.0700   47.1530 C   0  0  0  0  0  0  0  0  0  0  0  0
   62.2650   31.6480   48.5030 C   0  0  0  0  0  0  0  0  0  0  0  0
   57.2540   28.3960   44.9990 C   0  0  0  0  0  0  0  0  0  0  0  0
   57.6100   29.8720   44.8660 C   0  0  0  0  0  0  0  0  0  0  0  0
   57.4750   30.5090   43.6310 C   0  0  0  0  0  0  0  0  0  0  0  0
   57.8680   31.8070   43.4470 N   0  0  0  0  0  0  0  0  0  0  0  0
   57.7480   32.3770   42.0950 C   0  0  0  0  0  0  0  0  0  0  0  0
   58.3700   32.5440   44.4990 C   0  0  0  0  0  0  0  0  0  0  0  0
   58.7740   33.8910   44.3290 C   0  0  0  0  0  0  0  0  0  0  0  0
   59.2530   34.6350   45.4030 C   0  0  0  0  0  0  0  0  0  0  0  0
   59.3350   34.0690   46.6700 C   0  0  0  0  0  0  0  0  0  0  0  0
   58.9410   32.7450   46.8770 C   0  0  0  0  0  0  0  0  0  0  0  0
   59.0250   32.2230   48.1680 O   0  0  0  0  0  0  0  0  0  0  0  0
   59.0400   33.0710   49.3140 C   0  0  0  0  0  0  0  0  0  0  0  0
   59.4950   32.2770   50.5530 C   0  0  0  0  0  0  0  0  0  0  0  0
   58.5680   31.0710   50.8290 C   0  0  0  0  0  0  0  0  0  0  0  0
   57.2120   31.4940   51.4050 C   0  0  0  0  0  0  0  0  0  0  0  0
   57.3890   32.3450   52.6670 C   0  0  0  0  0  0  0  0  0  0  0  0
   58.2620   33.5690   52.3880 C   0  0  0  0  0  0  0  0  0  0  0  0
   59.6260   33.1650   51.8090 C   0  0  0  0  0  0  0  0  0  0  0  0
   58.4690   31.9600   45.7940 C   0  0  0  0  0  0  0  0  0  0  0  0
   58.0760   30.6150   45.9620 C   0  0  0  0  0  0  0  0  0  0  0  0
   58.1310   30.0710   47.0970 O   0  0  0  0  0  0  0  0  0  0  0  0
   60.0826   28.4419   45.1054 H   0  0  0  0  0  0  0  0  0  0  0  0
   60.2035   27.4821   43.5918 H   0  0  0  0  0  0  0  0  0  0  0  0
   59.3332   29.0535   43.5918 H   0  0  0  0  0  0  0  0  0  0  0  0
   57.6830   26.1278   46.0352 H   0  0  0  0  0  0  0  0  0  0  0  0
   58.8080   25.4359   44.7943 H   0  0  0  0  0  0  0  0  0  0  0  0
   60.5674   25.8514   46.1279 H   0  0  0  0  0  0  0  0  0  0  0  0
   60.1581   27.5941   46.1603 H   0  0  0  0  0  0  0  0  0  0  0  0
   58.2930   26.2860   47.7320 H   0  0  0  0  0  0  0  0  0  0  0  0
   58.6520   28.1583   48.7397 H   0  0  0  0  0  0  0  0  0  0  0  0
   60.1214   27.3540   49.4378 H   0  0  0  0  0  0  0  0  0  0  0  0
   61.5659   28.3395   47.9177 H   0  0  0  0  0  0  0  0  0  0  0  0
   60.2279   28.6002   46.6966 H   0  0  0  0  0  0  0  0  0  0  0  0
   59.5030   30.1530   48.7490 H   0  0  0  0  0  0  0  0  0  0  0  0
   60.1960   30.6010   47.3250 H   0  0  0  0  0  0  0  0  0  0  0  0
   60.8859   28.0485   49.8871 H   0  0  0  0  0  0  0  0  0  0  0  0
   61.3583   27.1831   52.1642 H   0  0  0  0  0  0  0  0  0  0  0  0
   62.6673   28.5487   53.7767 H   0  0  0  0  0  0  0  0  0  0  0  0
   63.5454   30.7688   53.1049 H   0  0  0  0  0  0  0  0  0  0  0  0
   63.4140   32.5275   52.7761 H   0  0  0  0  0  0  0  0  0  0  0  0
   64.7247   33.0156   51.6490 H   0  0  0  0  0  0  0  0  0  0  0  0
   63.1633   33.9036   51.6490 H   0  0  0  0  0  0  0  0  0  0  0  0
   64.5288   33.9715   49.6381 H   0  0  0  0  0  0  0  0  0  0  0  0
   64.4206   34.6711   47.2583 H   0  0  0  0  0  0  0  0  0  0  0  0
   62.9312   33.4723   45.6693 H   0  0  0  0  0  0  0  0  0  0  0  0
   61.5805   31.5366   46.4370 H   0  0  0  0  0  0  0  0  0  0  0  0
   56.3395   28.2097   44.4167 H   0  0  0  0  0  0  0  0  0  0  0  0
   57.1278   28.2012   46.0742 H   0  0  0  0  0  0  0  0  0  0  0  0
   57.0423   29.9542   42.7854 H   0  0  0  0  0  0  0  0  0  0  0  0
   57.5219   33.4510   42.1686 H   0  0  0  0  0  0  0  0  0  0  0  0
   58.6951   32.2380   41.5531 H   0  0  0  0  0  0  0  0  0  0  0  0
   56.9373   31.8679   41.5531 H   0  0  0  0  0  0  0  0  0  0  0  0
   58.7082   34.3554   43.3340 H   0  0  0  0  0  0  0  0  0  0  0  0
   59.5687   35.6773   45.2484 H   0  0  0  0  0  0  0  0  0  0  0  0
   59.7118   34.6664   47.5133 H   0  0  0  0  0  0  0  0  0  0  0  0
   59.7358   33.9051   49.1405 H   0  0  0  0  0  0  0  0  0  0  0  0
   58.0259   33.4601   49.4877 H   0  0  0  0  0  0  0  0  0  0  0  0
   60.4989   31.8922   50.3204 H   0  0  0  0  0  0  0  0  0  0  0  0
   58.3980   30.5331   49.8847 H   0  0  0  0  0  0  0  0  0  0  0  0
   59.0635   30.4317   51.5745 H   0  0  0  0  0  0  0  0  0  0  0  0
   56.6682   32.0804   50.6498 H   0  0  0  0  0  0  0  0  0  0  0  0
   56.6480   30.5879   51.6713 H   0  0  0  0  0  0  0  0  0  0  0  0
   56.4011   32.6804   53.0156 H   0  0  0  0  0  0  0  0  0  0  0  0
   57.8826   31.7318   53.4353 H   0  0  0  0  0  0  0  0  0  0  0  0
   57.7458   34.2198   51.6669 H   0  0  0  0  0  0  0  0  0  0  0  0
   58.4320   34.0965   53.3382 H   0  0  0  0  0  0  0  0  0  0  0  0
   60.1793   34.0769   51.5402 H   0  0  0  0  0  0  0  0  0  0  0  0
   60.1559   32.5822   52.5768 H   0  0  0  0  0  0  0  0  0  0  0  0
  1  2  1  0
  2  3  1  0
  3  4  1  0
  4  5  1  0
  5  6  1  0
  6  7  1  0
  7  8  1  0
  8  9  1  0
  9 10  1  0
 10 11  2  0
 11 12  1  0
 12 13  2  0
 13 14  1  0
 14 15  2  0
 15 16  1  0
 16 17  1  0
 16 18  2  0
 18 19  1  0
 19 20  2  0
 20 21  1  0
 21 22  2  0
 22 23  1  0
  2 24  1  0
 24 25  1  0
 25 26  2  0
 26 27  1  0
 27 28  1  0
 27 29  1  0
 29 30  2  0
 30 31  1  0
 31 32  2  0
 32 33  1  0
 33 34  1  0
 34 35  1  0
 35 36  1  0
 36 37  1  0
 37 38  1  0
 38 39  1  0
 39 40  1  0
 40 41  1  0
 33 42  2  0
 42 43  1  0
 43 44  2  0
 23  9  2  0
 43 25  1  0
 15 10  1  0
 23 18  1  0
 42 29  1  0
 41 36  1  0
  1 45  1  0
  1 46  1  0
  1 47  1  0
  3 48  1  0
  3 49  1  0
  4 50  1  0
  4 51  1  0
  5 52  1  0
  6 53  1  0
  6 54  1  0
  7 55  1  0
  7 56  1  0
  8 57  1  0
  8 58  1  0
 11 59  1  0
 12 60  1  0
 13 61  1  0
 14 62  1  0
 17 63  1  0
 17 64  1  0
 17 65  1  0
 19 66  1  0
 20 67  1  0
 21 68  1  0
 22 69  1  0
 24 70  1  0
 24 71  1  0
 26 72  1  0
 28 73  1  0
 28 74  1  0
 28 75  1  0
 30 76  1  0
 31 77  1  0
 32 78  1  0
 35 79  1  0
 35 80  1  0
 36 81  1  0
 37 82  1  0
 37 83  1  0
 38 84  1  0
 38 85  1  0
 39 86  1  0
 39 87  1  0
 40 88  1  0
 40 89  1  0
 41 90  1  0
 41 91  1  0
M  CHG  2   8   1  16   1
M  END
>  <UniqueID>  (7) 
7

>  <SMILES>  (7) 
CN(CCNCC[NH2+]c1c2ccccc2[n+](C)c2ccccc12)Cc1cn(C)c2cccc(OCC3CCCCC3)c2c1=O

>  <Energy>  (7) 
134.7014264459796

>  <Genealogy>  (7) 
CN(CCNCC[NH2+]c1c2ccccc2[n+](C)c2ccccc12)Cc1cn(C)c2cccc(OCC3CCCCC3)c2c1=O (protonated)
CN(CCNCC[NH2+]c1c2ccccc2[n+](C)c2ccccc12)Cc1cn(C)c2cccc(OCC3CCCCC3)c2c1=O (3D coordinates assigned)
CN(CCNCC[NH2+]c1c2ccccc2[n+](C)c2ccccc12)Cc1cn(C)c2cccc(OCC3CCCCC3)c2c1=O (nonaromatic ring conformer: 134.7014264459796 kcal/mol)

>  <smiles>  (7) 
CN(CCNCCNc1c2ccccc2[n+](C)c2ccccc12)Cc1cn(C)c2cccc(OCC3CCCCC3)c2c1=O

>  <score_type>  (7) 
oracle

>  <origin>  (7) 
adg

>  <m_score__min__energy>  (7) 
-6.7400000000000002

>  <m_primary>  (7) 
energy

$$$$
7:0
     RDKit          3D

 63 66  0  0  0  0  0  0  0  0999 V2000
   58.8740   34.5930   45.8750 C   0  0  0  0  0  0  0  0  0  0  0  0
   58.9850   33.9250   44.5010 C   0  0  0  0  0  0  0  0  0  0  0  0
   57.7720   33.0480   44.1510 C   0  0  0  0  0  0  0  0  0  0  0  0
   58.1120   31.7020   43.4880 C   0  0  0  0  0  0  0  0  0  0  0  0
   57.1090   30.3390   44.0770 S   0  0  0  0  0  0  0  0  0  0  0  0
   55.8220   30.8750   44.6440 O   0  0  0  0  0  0  0  0  0  0  0  0
   56.7680   29.3990   42.9550 O   0  0  0  0  0  0  0  0  0  0  0  0
   58.0180   29.4700   45.2900 N   0  0  0  0  0  0  0  0  0  0  0  0
   58.6010   30.0110   46.3980 C   0  0  0  0  0  0  0  0  0  0  0  0
   58.5360   31.4600   46.8040 C   0  0  0  0  0  0  0  0  0  0  0  0
   59.0030   31.6550   48.2680 C   0  0  0  0  0  0  0  0  0  0  0  0
   60.4350   32.0580   48.4260 N   0  0  2  0  0  0  0  0  0  0  0  0
   61.0580   32.1100   47.0760 C   0  0  0  0  0  0  0  0  0  0  0  0
   62.5460   32.5180   47.1780 C   0  0  0  0  0  0  0  0  0  0  0  0
   62.9230   32.7760   48.5970 N   0  0  2  0  0  0  0  0  0  0  0  0
   64.3630   33.1810   48.6250 C   0  0  0  0  0  0  0  0  0  0  0  0
   65.1850   32.6500   49.8130 C   0  0  0  0  0  0  0  0  0  0  0  0
   62.6870   31.5280   49.3740 C   0  0  0  0  0  0  0  0  0  0  0  0
   61.2080   31.0850   49.2500 C   0  0  0  0  0  0  0  0  0  0  0  0
   62.0350   33.8510   49.1210 C   0  0  0  0  0  0  0  0  0  0  0  0
   60.5490   33.4140   49.0350 C   0  0  0  0  0  0  0  0  0  0  0  0
   59.2070   29.0270   47.1710 C   0  0  0  0  0  0  0  0  0  0  0  0
   58.9620   27.8470   46.5110 C   0  0  0  0  0  0  0  0  0  0  0  0
   59.2970   26.5420   46.8680 C   0  0  0  0  0  0  0  0  0  0  0  0
   58.8700   25.5020   46.0270 C   0  0  0  0  0  0  0  0  0  0  0  0
   58.1190   25.7850   44.8670 C   0  0  0  0  0  0  0  0  0  0  0  0
   57.7920   27.1120   44.5330 C   0  0  0  0  0  0  0  0  0  0  0  0
   58.2390   28.1380   45.3780 C   0  0  0  0  0  0  0  0  0  0  0  0
   58.9999   33.8352   46.6624 H   0  0  0  0  0  0  0  0  0  0  0  0
   59.6572   35.3590   45.9747 H   0  0  0  0  0  0  0  0  0  0  0  0
   57.8852   35.0645   45.9747 H   0  0  0  0  0  0  0  0  0  0  0  0
   59.0794   34.7111   43.7373 H   0  0  0  0  0  0  0  0  0  0  0  0
   59.8656   33.2664   44.5293 H   0  0  0  0  0  0  0  0  0  0  0  0
   57.2212   32.8410   45.0804 H   0  0  0  0  0  0  0  0  0  0  0  0
   57.1859   33.6148   43.4126 H   0  0  0  0  0  0  0  0  0  0  0  0
   57.9616   31.8010   42.4028 H   0  0  0  0  0  0  0  0  0  0  0  0
   59.1558   31.4697   43.7461 H   0  0  0  0  0  0  0  0  0  0  0  0
   59.1857   32.0480   46.1391 H   0  0  0  0  0  0  0  0  0  0  0  0
   57.4918   31.7966   46.7246 H   0  0  0  0  0  0  0  0  0  0  0  0
   58.3765   32.4351   48.7251 H   0  0  0  0  0  0  0  0  0  0  0  0
   58.9039   30.6741   48.7558 H   0  0  0  0  0  0  0  0  0  0  0  0
   60.9867   31.1177   46.6066 H   0  0  0  0  0  0  0  0  0  0  0  0
   60.5264   32.8575   46.4689 H   0  0  0  0  0  0  0  0  0  0  0  0
   63.1717   31.7058   46.7796 H   0  0  0  0  0  0  0  0  0  0  0  0
   62.7021   33.4386   46.5965 H   0  0  0  0  0  0  0  0  0  0  0  0
   64.8338   32.8178   47.6996 H   0  0  0  0  0  0  0  0  0  0  0  0
   64.3635   34.2763   48.7271 H   0  0  0  0  0  0  0  0  0  0  0  0
   64.7084   32.9579   50.7554 H   0  0  0  0  0  0  0  0  0  0  0  0
   65.2297   31.5519   49.7663 H   0  0  0  0  0  0  0  0  0  0  0  0
   66.2044   33.0608   49.7663 H   0  0  0  0  0  0  0  0  0  0  0  0
   63.3377   30.7308   48.9854 H   0  0  0  0  0  0  0  0  0  0  0  0
   62.9141   31.7193   50.4332 H   0  0  0  0  0  0  0  0  0  0  0  0
   61.1662   30.0945   48.7734 H   0  0  0  0  0  0  0  0  0  0  0  0
   60.7654   31.0427   50.2561 H   0  0  0  0  0  0  0  0  0  0  0  0
   62.2928   34.0546   50.1708 H   0  0  0  0  0  0  0  0  0  0  0  0
   62.1761   34.7579   48.5146 H   0  0  0  0  0  0  0  0  0  0  0  0
   60.1193   33.3929   50.0474 H   0  0  0  0  0  0  0  0  0  0  0  0
   60.0040   34.1325   48.4051 H   0  0  0  0  0  0  0  0  0  0  0  0
   59.7635   29.1638   48.1099 H   0  0  0  0  0  0  0  0  0  0  0  0
   59.8771   26.3337   47.7791 H   0  0  0  0  0  0  0  0  0  0  0  0
   59.1226   24.4603   46.2742 H   0  0  0  0  0  0  0  0  0  0  0  0
   57.7863   24.9614   44.2182 H   0  0  0  0  0  0  0  0  0  0  0  0
   57.2015   27.3387   43.6331 H   0  0  0  0  0  0  0  0  0  0  0  0
  1  2  1  0
  2  3  1  0
  3  4  1  0
  4  5  1  0
  5  6  2  0
  5  7  2  0
  5  8  1  0
  8  9  1  0
  9 10  1  0
 10 11  1  0
 12 11  1  6
 12 13  1  0
 13 14  1  0
 14 15  1  0
 15 16  1  6
 16 17  1  0
 15 18  1  0
 18 19  1  0
 15 20  1  0
 20 21  1  0
  9 22  2  0
 22 23  1  0
 23 24  2  0
 24 25  1  0
 25 26  2  0
 26 27  1  0
 27 28  2  0
 28  8  1  0
 19 12  1  0
 28 23  1  0
 21 12  1  0
  1 29  1  0
  1 30  1  0
  1 31  1  0
  2 32  1  0
  2 33  1  0
  3 34  1  0
  3 35  1  0
  4 36  1  0
  4 37  1  0
 10 38  1  0
 10 39  1  0
 11 40  1  0
 11 41  1  0
 13 42  1  0
 13 43  1  0
 14 44  1  0
 14 45  1  0
 16 46  1  0
 16 47  1  0
 17 48  1  0
 17 49  1  0
 17 50  1  0
 18 51  1  0
 18 52  1  0
 19 53  1  0
 19 54  1  0
 20 55  1  0
 20 56  1  0
 21 57  1  0
 21 58  1  0
 22 59  1  0
 24 60  1  0
 25 61  1  0
 26 62  1  0
 27 63  1  0
M  CHG  2  12   1  15   1
M  END
>  <UniqueID>  (8) 
8

>  <SMILES>  (8) 
CCCCS(=O)(=O)n1c(CC[N+]23CC[N+](CC)(CC2)CC3)cc2ccccc21

>  <Energy>  (8) 
119.67456551958279

>  <Genealogy>  (8) 
CCCCS(=O)(=O)n1c(CC[N+]23CC[N+](CC)(CC2)CC3)cc2ccccc21 (3D coordinates assigned)
CCCCS(=O)(=O)n1c(CC[N+]23CC[N+](CC)(CC2)CC3)cc2ccccc21 (nonaromatic ring conformer: 119.67456551958279 kcal/mol)

>  <smiles>  (8) 
CCCCS(=O)(=O)n1c(CC[N+]23CC[N+](CC)(CC2)CC3)cc2ccccc21

>  <score_type>  (8) 
oracle

>  <origin>  (8) 
adg

>  <m_score__min__energy>  (8) 
-6.2800000000000002

>  <m_primary>  (8) 
energy

$$$$
8:0
     RDKit          3D

 32 33  0  0  0  0  0  0  0  0999 V2000
   57.5280   27.8540   46.6620 C   0  0  0  0  0  0  0  0  0  0  0  0
   57.0830   28.1900   45.2360 C   0  0  0  0  0  0  0  0  0  0  0  0
   55.8730   29.0270   45.2040 N   0  0  0  0  0  0  0  0  0  0  0  0
   55.7320   29.7570   43.9380 C   0  0  0  0  0  0  0  0  0  0  0  0
   56.6420   30.9890   43.9240 C   0  0  0  0  0  0  0  0  0  0  0  0
   56.7950   31.5290   45.2390 O   0  0  0  0  0  0  0  0  0  0  0  0
   58.0100   31.7760   45.8980 C   0  0  0  0  0  0  0  0  0  0  0  0
   59.0200   30.8130   45.7910 C   0  0  0  0  0  0  0  0  0  0  0  0
   60.2550   30.9960   46.4200 C   0  0  0  0  0  0  0  0  0  0  0  0
   60.4950   32.1550   47.1750 C   0  0  0  0  0  0  0  0  0  0  0  0
   61.7200   32.3880   47.8240 C   0  0  0  0  0  0  0  0  0  0  0  0
   62.6650   31.5570   47.7510 O   0  0  0  0  0  0  0  0  0  0  0  0
   61.8890   33.5630   48.5600 C   0  0  0  0  0  0  0  0  0  0  0  0
   60.8350   34.4750   48.6340 C   0  0  0  0  0  0  0  0  0  0  0  0
   59.6860   34.2310   48.0110 O   0  0  0  0  0  0  0  0  0  0  0  0
   59.4780   33.1280   47.2960 C   0  0  0  0  0  0  0  0  0  0  0  0
   58.2440   32.9350   46.6650 C   0  0  0  0  0  0  0  0  0  0  0  0
   56.8637   28.3556   47.3812 H   0  0  0  0  0  0  0  0  0  0  0  0
   57.4788   26.7658   46.8146 H   0  0  0  0  0  0  0  0  0  0  0  0
   58.5612   28.1993   46.8146 H   0  0  0  0  0  0  0  0  0  0  0  0
   57.8978   28.7289   44.7303 H   0  0  0  0  0  0  0  0  0  0  0  0
   56.8470   27.2431   44.7284 H   0  0  0  0  0  0  0  0  0  0  0  0
   55.9090   29.7160   45.9930 H   0  0  0  0  0  0  0  0  0  0  0  0
   56.0082   29.0937   43.1051 H   0  0  0  0  0  0  0  0  0  0  0  0
   54.6876   30.0854   43.8315 H   0  0  0  0  0  0  0  0  0  0  0  0
   57.6304   30.7016   43.5361 H   0  0  0  0  0  0  0  0  0  0  0  0
   56.1836   31.7555   43.2819 H   0  0  0  0  0  0  0  0  0  0  0  0
   58.8397   29.9002   45.2043 H   0  0  0  0  0  0  0  0  0  0  0  0
   61.0395   30.2311   46.3232 H   0  0  0  0  0  0  0  0  0  0  0  0
   62.8398   33.7668   49.0743 H   0  0  0  0  0  0  0  0  0  0  0  0
   60.9559   35.4029   49.2123 H   0  0  0  0  0  0  0  0  0  0  0  0
   57.4525   33.6918   46.7682 H   0  0  0  0  0  0  0  0  0  0  0  0
  1  2  1  0
  2  3  1  0
  3  4  1  0
  4  5  1  0
  5  6  1  0
  6  7  1  0
  7  8  2  0
  8  9  1  0
  9 10  2  0
 10 11  1  0
 11 12  2  0
 11 13  1  0
 13 14  2  0
 14 15  1  0
 15 16  1  0
 16 17  2  0
 17  7  1  0
 16 10  1  0
  1 18  1  0
  1 19  1  0
  1 20  1  0
  2 21  1  0
  2 22  1  0
  3 23  1  0
  4 24  1  0
  4 25  1  0
  5 26  1  0
  5 27  1  0
  8 28  1  0
  9 29  1  0
 13 30  1  0
 14 31  1  0
 17 32  1  0
M  END
>  <UniqueID>  (9) 
9

>  <SMILES>  (9) 
CCNCCOc1ccc2c(=O)ccoc2c1

>  <Energy>  (9) 
34.68089015682485

>  <Genealogy>  (9) 
CCNCCOc1ccc2c(=O)ccoc2c1 (3D coordinates assigned)
CCNCCOc1ccc2c(=O)ccoc2c1 (optimized conformer: 34.68089015682485 kcal/mol)

>  <smiles>  (9) 
CCNCCOc1ccc2c(=O)ccoc2c1

>  <score_type>  (9) 
oracle

>  <origin>  (9) 
adg

>  <m_score__min__energy>  (9) 
-5.6900000000000004

>  <m_primary>  (9) 
energy

$$$$
9:0
     RDKit          3D

 61 63  0  0  0  0  0  0  0  0999 V2000
   63.1220   33.9700   46.3660 C   0  0  0  0  0  0  0  0  0  0  0  0
   63.7720   33.4270   47.6390 C   0  0  0  0  0  0  0  0  0  0  0  0
   63.4270   31.9480   47.8960 C   0  0  0  0  0  0  0  0  0  0  0  0
   61.9990   31.5710   47.4690 C   0  0  0  0  0  0  0  0  0  0  0  0
   61.2720   30.8680   48.5380 N   0  0  0  0  0  0  0  0  0  0  0  0
   60.9480   31.7430   49.6770 C   0  0  0  0  0  0  0  0  0  0  0  0
   59.5070   32.2740   49.6160 C   0  0  0  0  0  0  0  0  0  0  0  0
   59.3840   33.3220   48.5510 C   0  0  0  0  0  0  0  0  0  0  0  0
   59.9520   34.5930   48.5600 C   0  0  0  0  0  0  0  0  0  0  0  0
   59.6980   35.2290   47.3930 N   0  0  0  0  0  0  0  0  0  0  0  0
   58.9880   34.3660   46.6460 C   0  0  0  0  0  0  0  0  0  0  0  0
   58.5170   34.5580   45.3500 C   0  0  0  0  0  0  0  0  0  0  0  0
   57.8220   33.5020   44.7340 C   0  0  0  0  0  0  0  0  0  0  0  0
   57.6190   32.2690   45.4200 C   0  0  0  0  0  0  0  0  0  0  0  0
   56.9510   31.1720   44.8490 O   0  0  0  0  0  0  0  0  0  0  0  0
   56.9310   30.8120   43.4670 C   0  0  0  0  0  0  0  0  0  0  0  0
   57.0050   29.2900   43.2810 C   0  0  0  0  0  0  0  0  0  0  0  0
   57.0540   28.4990   44.6100 C   0  0  0  0  0  0  0  0  0  0  0  0
   58.2890   28.7680   45.3930 N   0  0  0  0  0  0  0  0  0  0  0  0
   58.4770   27.7560   46.4560 C   0  0  0  0  0  0  0  0  0  0  0  0
   59.6820   28.1130   47.3540 C   0  0  0  0  0  0  0  0  0  0  0  0
   60.6770   28.9570   46.6720 N   0  0  0  0  0  0  0  0  0  0  0  0
   60.8050   28.6030   45.2560 C   0  0  0  0  0  0  0  0  0  0  0  0
   59.4720   28.7880   44.4960 C   0  0  0  0  0  0  0  0  0  0  0  0
   58.0980   32.1240   46.7360 C   0  0  0  0  0  0  0  0  0  0  0  0
   58.7800   33.1920   47.3160 C   0  0  0  0  0  0  0  0  0  0  0  0
   62.3035   34.6538   46.6352 H   0  0  0  0  0  0  0  0  0  0  0  0
   63.8733   34.5127   45.7735 H   0  0  0  0  0  0  0  0  0  0  0  0
   62.7216   33.1342   45.7735 H   0  0  0  0  0  0  0  0  0  0  0  0
   64.8638   33.5229   47.5455 H   0  0  0  0  0  0  0  0  0  0  0  0
   63.3843   34.0115   48.4863 H   0  0  0  0  0  0  0  0  0  0  0  0
   64.1357   31.3219   47.3341 H   0  0  0  0  0  0  0  0  0  0  0  0
   63.4958   31.7824   48.9813 H   0  0  0  0  0  0  0  0  0  0  0  0
   61.4511   32.4894   47.2114 H   0  0  0  0  0  0  0  0  0  0  0  0
   62.0700   30.8946   46.6045 H   0  0  0  0  0  0  0  0  0  0  0  0
   60.3900   30.4650   48.1430 H   0  0  0  0  0  0  0  0  0  0  0  0
   61.0750   31.1720   50.6086 H   0  0  0  0  0  0  0  0  0  0  0  0
   61.6263   32.6081   49.6391 H   0  0  0  0  0  0  0  0  0  0  0  0
   58.8233   31.4430   49.3882 H   0  0  0  0  0  0  0  0  0  0  0  0
   59.2479   32.7191   50.5880 H   0  0  0  0  0  0  0  0  0  0  0  0
   60.5254   35.0193   49.3964 H   0  0  0  0  0  0  0  0  0  0  0  0
   60.0100   36.1890   47.1250 H   0  0  0  0  0  0  0  0  0  0  0  0
   58.6838   35.5089   44.8227 H   0  0  0  0  0  0  0  0  0  0  0  0
   57.4314   33.6286   43.7135 H   0  0  0  0  0  0  0  0  0  0  0  0
   55.9993   31.1825   43.0146 H   0  0  0  0  0  0  0  0  0  0  0  0
   57.8087   31.2623   42.9803 H   0  0  0  0  0  0  0  0  0  0  0  0
   56.1176   28.9661   42.7174 H   0  0  0  0  0  0  0  0  0  0  0  0
   57.9435   29.0781   42.7478 H   0  0  0  0  0  0  0  0  0  0  0  0
   56.1827   28.7807   45.2194 H   0  0  0  0  0  0  0  0  0  0  0  0
   57.0463   27.4279   44.3595 H   0  0  0  0  0  0  0  0  0  0  0  0
   58.2050   29.7090   45.8440 H   0  0  0  0  0  0  0  0  0  0  0  0
   57.5684   27.7110   47.0745 H   0  0  0  0  0  0  0  0  0  0  0  0
   58.6696   26.7821   45.9823 H   0  0  0  0  0  0  0  0  0  0  0  0
   59.3124   28.6521   48.2388 H   0  0  0  0  0  0  0  0  0  0  0  0
   60.1804   27.1709   47.6260 H   0  0  0  0  0  0  0  0  0  0  0  0
   60.3780   29.9570   46.7380 H   0  0  0  0  0  0  0  0  0  0  0  0
   61.5696   29.2461   44.7958 H   0  0  0  0  0  0  0  0  0  0  0  0
   61.0906   27.5426   45.1929 H   0  0  0  0  0  0  0  0  0  0  0  0
   59.4983   29.7542   43.9709 H   0  0  0  0  0  0  0  0  0  0  0  0
   59.3706   27.9452   43.7964 H   0  0  0  0  0  0  0  0  0  0  0  0
   57.9376   31.1894   47.2934 H   0  0  0  0  0  0  0  0  0  0  0  0
  1  2  1  0
  2  3  1  0
  3  4  1  0
  4  5  1  0
  5  6  1  0
  6  7  1  0
  7  8  1  0
  8  9  2  0
  9 10  1  0
 10 11  1  0
 11 12  2  0
 12 13  1  0
 13 14  2  0
 14 15  1  0
 15 16  1  0
 16 17  1  0
 17 18  1  0
 18 19  1  0
 19 20  1  0
 20 21  1  0
 21 22  1  0
 22 23  1  0
 23 24  1  0
 14 25  1  0
 25 26  2  0
 26  8  1  0
 26 11  1  0
 24 19  1  0
  1 27  1  0
  1 28  1  0
  1 29  1  0
  2 30  1  0
  2 31  1  0
  3 32  1  0
  3 33  1  0
  4 34  1  0
  4 35  1  0
  5 36  1  0
  6 37  1  0
  6 38  1  0
  7 39  1  0
  7 40  1  0
  9 41  1  0
 10 42  1  0
 12 43  1  0
 13 44  1  0
 16 45  1  0
 16 46  1  0
 17 47  1  0
 17 48  1  0
 18 49  1  0
 18 50  1  0
 19 51  1  0
 20 52  1  0
 20 53  1  0
 21 54  1  0
 21 55  1  0
 22 56  1  0
 23 57  1  0
 23 58  1  0
 24 59  1  0
 24 60  1  0
 25 61  1  0
M  CHG  1  19   1
M  END
>  <UniqueID>  (10) 
10

>  <SMILES>  (10) 
CCCCNCCc1c[nH]c2ccc(OCCC[NH+]3CCNCC3)cc12

>  <Energy>  (10) 
93.94786757525782

>  <Genealogy>  (10) 
CCCCNCCc1c[nH]c2ccc(OCCC[NH+]3CCNCC3)cc12 (protonated)
CCCCNCCc1c[nH]c2ccc(OCCC[NH+]3CCNCC3)cc12 (3D coordinates assigned)
CCCCNCCc1c[nH]c2ccc(OCCC[NH+]3CCNCC3)cc12 (nonaromatic ring conformer: 93.94786757525782 kcal/mol)

>  <smiles>  (10) 
CCCCNCCc1c[nH]c2ccc(OCCCN3CCNCC3)cc12

>  <score_type>  (10) 
oracle

>  <origin>  (10) 
adg

>  <m_score__min__energy>  (10) 
-5.2300000000000004

>  <m_primary>  (10) 
energy

$$$$
10:0
     RDKit          3D

 53 57  0  0  0  0  0  0  0  0999 V2000
   57.0910   30.4540   44.3470 C   0  0  0  0  0  0  0  0  0  0  0  0
   57.1860   29.5920   45.5360 N   0  0  0  0  0  0  0  0  0  0  0  0
   56.6720   28.2420   45.2570 C   0  0  0  0  0  0  0  0  0  0  0  0
   58.5390   29.5830   46.1360 C   0  0  0  0  0  0  0  0  0  0  0  0
   58.5530   29.4170   47.6690 C   0  0  0  0  0  0  0  0  0  0  0  0
   58.6740   30.7180   48.3240 N   0  0  0  0  0  0  0  0  0  0  0  0
   59.6550   31.6610   47.8820 C   0  0  0  0  0  0  0  0  0  0  0  0
   60.9370   31.6490   48.4200 C   0  0  0  0  0  0  0  0  0  0  0  0
   61.8930   32.5700   48.0240 C   0  0  0  0  0  0  0  0  0  0  0  0
   61.6590   33.4570   47.0030 N   0  0  0  0  0  0  0  0  0  0  0  0
   62.7800   34.1980   46.4030 C   0  0  0  0  0  0  0  0  0  0  0  0
   60.3650   33.5790   46.5170 C   0  0  0  0  0  0  0  0  0  0  0  0
   60.0010   34.6140   45.6230 C   0  0  0  0  0  0  0  0  0  0  0  0
   58.7030   34.7030   45.1180 C   0  0  0  0  0  0  0  0  0  0  0  0
   57.7340   33.7780   45.4980 C   0  0  0  0  0  0  0  0  0  0  0  0
   58.0480   32.7660   46.4030 C   0  0  0  0  0  0  0  0  0  0  0  0
   59.3490   32.6570   46.9320 C   0  0  0  0  0  0  0  0  0  0  0  0
   63.1190   32.3260   48.8250 C   0  0  0  0  0  0  0  0  0  0  0  0
   64.2900   33.0700   49.0000 C   0  0  0  0  0  0  0  0  0  0  0  0
   65.2450   32.6050   49.9250 C   0  0  0  0  0  0  0  0  0  0  0  0
   66.4510   33.2950   50.1170 C   0  0  0  0  0  0  0  0  0  0  0  0
   67.3890   32.8260   51.0440 C   0  0  0  0  0  0  0  0  0  0  0  0
   69.0310   33.7680   51.2970 Br  0  0  0  0  0  0  0  0  0  0  0  0
   67.1250   31.6720   51.7880 C   0  0  0  0  0  0  0  0  0  0  0  0
   65.9250   30.9790   51.6140 C   0  0  0  0  0  0  0  0  0  0  0  0
   64.9750   31.4320   50.6860 C   0  0  0  0  0  0  0  0  0  0  0  0
   63.7870   30.7710   50.5320 N   0  0  0  0  0  0  0  0  0  0  0  0
   62.8860   31.2200   49.6210 C   0  0  0  0  0  0  0  0  0  0  0  0
   61.5310   30.7480   49.4050 C   0  0  0  0  0  0  0  0  0  0  0  0
   60.9860   29.7520   49.9530 O   0  0  0  0  0  0  0  0  0  0  0  0
   56.9755   31.5016   44.6619 H   0  0  0  0  0  0  0  0  0  0  0  0
   58.0060   30.3507   43.7452 H   0  0  0  0  0  0  0  0  0  0  0  0
   56.2205   30.1540   43.7452 H   0  0  0  0  0  0  0  0  0  0  0  0
   56.4739   27.7218   46.2057 H   0  0  0  0  0  0  0  0  0  0  0  0
   55.7395   28.3170   44.6783 H   0  0  0  0  0  0  0  0  0  0  0  0
   57.4183   27.6779   44.6783 H   0  0  0  0  0  0  0  0  0  0  0  0
   59.1061   28.7504   45.6943 H   0  0  0  0  0  0  0  0  0  0  0  0
   58.9848   30.5655   45.9218 H   0  0  0  0  0  0  0  0  0  0  0  0
   57.6171   28.9361   47.9895 H   0  0  0  0  0  0  0  0  0  0  0  0
   59.4152   28.7951   47.9515 H   0  0  0  0  0  0  0  0  0  0  0  0
   58.1700   30.9120   49.2190 H   0  0  0  0  0  0  0  0  0  0  0  0
   63.4120   34.6158   47.2005 H   0  0  0  0  0  0  0  0  0  0  0  0
   63.3782   33.5168   45.7800 H   0  0  0  0  0  0  0  0  0  0  0  0
   62.3877   35.0153   45.7800 H   0  0  0  0  0  0  0  0  0  0  0  0
   60.7520   35.3591   45.3218 H   0  0  0  0  0  0  0  0  0  0  0  0
   58.4438   35.5088   44.4155 H   0  0  0  0  0  0  0  0  0  0  0  0
   56.7177   33.8464   45.0826 H   0  0  0  0  0  0  0  0  0  0  0  0
   57.2736   32.0463   46.7068 H   0  0  0  0  0  0  0  0  0  0  0  0
   64.4610   33.9950   48.4297 H   0  0  0  0  0  0  0  0  0  0  0  0
   66.6600   34.2065   49.5379 H   0  0  0  0  0  0  0  0  0  0  0  0
   67.8665   31.3079   52.5144 H   0  0  0  0  0  0  0  0  0  0  0  0
   65.7238   30.0745   52.2068 H   0  0  0  0  0  0  0  0  0  0  0  0
   63.5590   29.9350   51.1170 H   0  0  0  0  0  0  0  0  0  0  0  0
  1  2  1  0
  2  3  1  0
  2  4  1  0
  4  5  1  0
  5  6  1  0
  6  7  1  0
  7  8  2  0
  8  9  1  0
  9 10  2  0
 10 11  1  0
 10 12  1  0
 12 13  2  0
 13 14  1  0
 14 15  2  0
 15 16  1  0
 16 17  2  0
  9 18  1  0
 18 19  2  0
 19 20  1  0
 20 21  2  0
 21 22  1  0
 22 23  1  0
 22 24  2  0
 24 25  1  0
 25 26  2  0
 26 27  1  0
 27 28  2  0
 28 29  1  0
 29 30  2  0
 17  7  1  0
 28 18  1  0
 29  8  1  0
 17 12  1  0
 26 20  1  0
  1 31  1  0
  1 32  1  0
  1 33  1  0
  3 34  1  0
  3 35  1  0
  3 36  1  0
  4 37  1  0
  4 38  1  0
  5 39  1  0
  5 40  1  0
  6 41  1  0
 11 42  1  0
 11 43  1  0
 11 44  1  0
 13 45  1  0
 14 46  1  0
 15 47  1  0
 16 48  1  0
 19 49  1  0
 21 50  1  0
 24 51  1  0
 25 52  1  0
 27 53  1  0
M  CHG  2  10   1  27   1
M  END
>  <UniqueID>  (11) 
11

>  <SMILES>  (11) 
CN(C)CCNc1c2c([n+](C)c3ccccc13)-c1cc3cc(Br)ccc3[nH+]c1C2=O

>  <Energy>  (11) 
117.94070314126049

>  <Genealogy>  (11) 
CN(C)CCNc1c2c([n+](C)c3ccccc13)-c1cc3cc(Br)ccc3[nH+]c1C2=O (protonated)
CN(C)CCNc1c2c([n+](C)c3ccccc13)-c1cc3cc(Br)ccc3[nH+]c1C2=O (3D coordinates assigned)
CN(C)CCNc1c2c([n+](C)c3ccccc13)-c1cc3cc(Br)ccc3[nH+]c1C2=O (nonaromatic ring conformer: 117.94070314126049 kcal/mol)

>  <smiles>  (11) 
CN(C)CCNc1c2c([n+](C)c3ccccc13)-c1cc3cc(Br)ccc3nc1C2=O

>  <score_type>  (11) 
oracle

>  <origin>  (11) 
adg

>  <m_score__min__energy>  (11) 
-5.9400000000000004

>  <m_primary>  (11) 
energy

$$$$
11:0
     RDKit          3D

 58 60  0  0  0  0  0  0  0  0999 V2000
   63.1930   33.8490   46.3920 C   0  0  0  0  0  0  0  0  0  0  0  0
   63.7700   32.7490   47.2810 C   0  0  0  0  0  0  0  0  0  0  0  0
   62.7300   32.2070   48.1660 N   0  0  0  0  0  0  0  0  0  0  0  0
   63.2820   31.9780   49.5100 C   0  0  0  0  0  0  0  0  0  0  0  0
   62.1760   32.0590   50.5750 C   0  0  0  0  0  0  0  0  0  0  0  0
   60.9050   32.3590   50.0240 O   0  0  0  0  0  0  0  0  0  0  0  0
   59.9640   31.3420   50.3180 C   0  0  0  0  0  0  0  0  0  0  0  0
   59.7900   30.4550   49.0830 C   0  0  0  0  0  0  0  0  0  0  0  0
   60.4670   30.9960   47.8860 N   0  0  0  0  0  0  0  0  0  0  0  0
   59.6700   30.8460   46.6720 C   0  0  0  0  0  0  0  0  0  0  0  0
   59.5330   29.5850   46.0270 C   0  0  0  0  0  0  0  0  0  0  0  0
   58.7560   29.4780   44.8500 C   0  0  0  0  0  0  0  0  0  0  0  0
   58.0400   30.5570   44.3690 N   0  0  0  0  0  0  0  0  0  0  0  0
   57.0340   30.3500   43.2950 C   0  0  0  0  0  0  0  0  0  0  0  0
   55.7370   29.7560   43.8550 C   0  0  0  0  0  0  0  0  0  0  0  0
   58.2360   31.8140   44.9120 C   0  0  0  0  0  0  0  0  0  0  0  0
   57.6680   32.9770   44.3180 C   0  0  0  0  0  0  0  0  0  0  0  0
   57.8360   34.2370   44.8840 C   0  0  0  0  0  0  0  0  0  0  0  0
   58.5810   34.3840   46.0440 C   0  0  0  0  0  0  0  0  0  0  0  0
   59.1770   33.2770   46.6380 C   0  0  0  0  0  0  0  0  0  0  0  0
   59.0340   31.9770   46.0840 C   0  0  0  0  0  0  0  0  0  0  0  0
   58.8110   28.1300   44.1330 C   0  0  0  0  0  0  0  0  0  0  0  0
   58.5080   26.9900   45.1130 C   0  0  0  0  0  0  0  0  0  0  0  0
   59.2920   27.1020   46.4370 C   0  0  0  0  0  0  0  0  0  0  0  0
   60.2400   28.3110   46.4910 C   0  0  0  0  0  0  0  0  0  0  0  0
   62.7741   34.6476   47.0220 H   0  0  0  0  0  0  0  0  0  0  0  0
   63.9900   34.2630   45.7569 H   0  0  0  0  0  0  0  0  0  0  0  0
   62.3993   33.4286   45.7569 H   0  0  0  0  0  0  0  0  0  0  0  0
   64.1642   31.9407   46.6476 H   0  0  0  0  0  0  0  0  0  0  0  0
   64.5762   33.1743   47.8968 H   0  0  0  0  0  0  0  0  0  0  0  0
   61.9730   32.9300   48.2500 H   0  0  0  0  0  0  0  0  0  0  0  0
   63.7441   30.9804   49.5450 H   0  0  0  0  0  0  0  0  0  0  0  0
   64.0320   32.7547   49.7204 H   0  0  0  0  0  0  0  0  0  0  0  0
   62.1150   31.0905   51.0929 H   0  0  0  0  0  0  0  0  0  0  0  0
   62.4391   32.8743   51.2650 H   0  0  0  0  0  0  0  0  0  0  0  0
   60.3275   30.7350   51.1603 H   0  0  0  0  0  0  0  0  0  0  0  0
   58.9992   31.7947   50.5905 H   0  0  0  0  0  0  0  0  0  0  0  0
   60.2072   29.4613   49.3031 H   0  0  0  0  0  0  0  0  0  0  0  0
   58.7139   30.4072   48.8601 H   0  0  0  0  0  0  0  0  0  0  0  0
   61.3860   30.5140   47.7640 H   0  0  0  0  0  0  0  0  0  0  0  0
   60.7670   31.9750   48.0630 H   0  0  0  0  0  0  0  0  0  0  0  0
   56.8102   31.3176   42.8221 H   0  0  0  0  0  0  0  0  0  0  0  0
   57.4502   29.6452   42.5602 H   0  0  0  0  0  0  0  0  0  0  0  0
   55.7712   29.7717   44.9544 H   0  0  0  0  0  0  0  0  0  0  0  0
   54.8804   30.3516   43.5063 H   0  0  0  0  0  0  0  0  0  0  0  0
   55.6284   28.7184   43.5063 H   0  0  0  0  0  0  0  0  0  0  0  0
   57.0836   32.8771   43.3914 H   0  0  0  0  0  0  0  0  0  0  0  0
   57.3772   35.1175   44.4105 H   0  0  0  0  0  0  0  0  0  0  0  0
   58.7010   35.3797   46.4959 H   0  0  0  0  0  0  0  0  0  0  0  0
   59.7705   33.4106   47.5544 H   0  0  0  0  0  0  0  0  0  0  0  0
   58.0663   28.1195   43.3235 H   0  0  0  0  0  0  0  0  0  0  0  0
   59.8205   27.9866   43.7202 H   0  0  0  0  0  0  0  0  0  0  0  0
   57.4321   27.0023   45.3417 H   0  0  0  0  0  0  0  0  0  0  0  0
   58.8169   26.0519   44.6287 H   0  0  0  0  0  0  0  0  0  0  0  0
   58.5700   27.1892   47.2623 H   0  0  0  0  0  0  0  0  0  0  0  0
   59.9154   26.1995   46.5198 H   0  0  0  0  0  0  0  0  0  0  0  0
   60.5876   28.4493   47.5254 H   0  0  0  0  0  0  0  0  0  0  0  0
   61.0904   28.1189   45.8203 H   0  0  0  0  0  0  0  0  0  0  0  0
  1  2  1  0
  2  3  1  0
  3  4  1  0
  4  5  1  0
  5  6  1  0
  6  7  1  0
  7  8  1  0
  8  9  1  0
  9 10  1  0
 10 11  2  0
 11 12  1  0
 12 13  2  0
 13 14  1  0
 14 15  1  0
 13 16  1  0
 16 17  2  0
 17 18  1  0
 18 19  2  0
 19 20  1  0
 20 21  2  0
 12 22  1  0
 22 23  1  0
 23 24  1  0
 24 25  1  0
 21 10  1  0
 25 11  1  0
 21 16  1  0
  1 26  1  0
  1 27  1  0
  1 28  1  0
  2 29  1  0
  2 30  1  0
  3 31  1  0
  4 32  1  0
  4 33  1  0
  5 34  1  0
  5 35  1  0
  7 36  1  0
  7 37  1  0
  8 38  1  0
  8 39  1  0
  9 40  1  0
  9 41  1  0
 14 42  1  0
 14 43  1  0
 15 44  1  0
 15 45  1  0
 15 46  1  0
 17 47  1  0
 18 48  1  0
 19 49  1  0
 20 50  1  0
 22 51  1  0
 22 52  1  0
 23 53  1  0
 23 54  1  0
 24 55  1  0
 24 56  1  0
 25 57  1  0
 25 58  1  0
M  CHG  2   9   1  13   1
M  END
>  <UniqueID>  (12) 
12

>  <SMILES>  (12) 
CCNCCOCC[NH2+]c1c2c([n+](CC)c3ccccc13)CCCC2

>  <Energy>  (12) 
82.44813918112958

>  <Genealogy>  (12) 
CCNCCOCC[NH2+]c1c2c([n+](CC)c3ccccc13)CCCC2 (protonated)
CCNCCOCC[NH2+]c1c2c([n+](CC)c3ccccc13)CCCC2 (3D coordinates assigned)
CCNCCOCC[NH2+]c1c2c([n+](CC)c3ccccc13)CCCC2 (nonaromatic ring conformer: 82.44813918112958 kcal/mol)

>  <smiles>  (12) 
CCNCCOCCNc1c2c([n+](CC)c3ccccc13)CCCC2

>  <score_type>  (12) 
oracle

>  <origin>  (12) 
adg

>  <m_score__min__energy>  (12) 
-3.8599999999999999

>  <m_primary>  (12) 
energy

$$$$
12:0
     RDKit          3D

 49 51  0  0  0  0  0  0  0  0999 V2000
   63.3950   33.4690   47.0980 C   0  0  0  0  0  0  0  0  0  0  0  0
   63.2030   33.0160   48.4860 N   0  0  0  0  0  0  0  0  0  0  0  0
   64.4450   32.4950   49.0740 C   0  0  0  0  0  0  0  0  0  0  0  0
   62.4730   33.9760   49.3490 C   0  0  0  0  0  0  0  0  0  0  0  0
   60.9910   34.2320   48.9890 C   0  0  0  0  0  0  0  0  0  0  0  0
   60.0030   33.3670   49.7850 C   0  0  0  0  0  0  0  0  0  0  0  0
   60.1550   31.8820   49.4460 C   0  0  0  0  0  0  0  0  0  0  0  0
   60.6360   31.7230   48.0740 N   0  0  0  0  0  0  0  0  0  0  0  0
   59.7490   31.3110   47.0170 C   0  0  0  0  0  0  0  0  0  0  0  0
   59.0630   32.2720   46.2540 C   0  0  0  0  0  0  0  0  0  0  0  0
   59.2780   33.6520   46.4660 C   0  0  0  0  0  0  0  0  0  0  0  0
   58.5500   34.6030   45.7560 C   0  0  0  0  0  0  0  0  0  0  0  0
   57.5960   34.2000   44.8310 C   0  0  0  0  0  0  0  0  0  0  0  0
   57.3920   32.8450   44.5780 C   0  0  0  0  0  0  0  0  0  0  0  0
   58.1520   31.8520   45.2480 C   0  0  0  0  0  0  0  0  0  0  0  0
   58.0180   30.5070   44.9510 N   0  0  0  0  0  0  0  0  0  0  0  0
   57.2930   30.0880   43.7300 C   0  0  0  0  0  0  0  0  0  0  0  0
   58.5910   29.5550   45.7740 C   0  0  0  0  0  0  0  0  0  0  0  0
   58.2710   28.1770   45.6550 C   0  0  0  0  0  0  0  0  0  0  0  0
   58.8950   27.2190   46.4550 C   0  0  0  0  0  0  0  0  0  0  0  0
   58.4820   25.5220   46.2790 Cl  0  0  0  0  0  0  0  0  0  0  0  0
   59.8410   27.6070   47.3980 C   0  0  0  0  0  0  0  0  0  0  0  0
   60.1440   28.9540   47.5680 C   0  0  0  0  0  0  0  0  0  0  0  0
   59.5090   29.9430   46.7860 C   0  0  0  0  0  0  0  0  0  0  0  0
   63.8243   34.4818   47.0989 H   0  0  0  0  0  0  0  0  0  0  0  0
   64.0790   32.7813   46.5792 H   0  0  0  0  0  0  0  0  0  0  0  0
   62.4251   33.4823   46.5792 H   0  0  0  0  0  0  0  0  0  0  0  0
   64.3722   32.5255   50.1712 H   0  0  0  0  0  0  0  0  0  0  0  0
   64.5988   31.4565   48.7455 H   0  0  0  0  0  0  0  0  0  0  0  0
   65.2936   33.1130   48.7455 H   0  0  0  0  0  0  0  0  0  0  0  0
   62.5060   33.5924   50.3794 H   0  0  0  0  0  0  0  0  0  0  0  0
   62.9801   34.9418   49.2071 H   0  0  0  0  0  0  0  0  0  0  0  0
   60.7635   35.2899   49.1867 H   0  0  0  0  0  0  0  0  0  0  0  0
   60.8678   33.9667   47.9286 H   0  0  0  0  0  0  0  0  0  0  0  0
   60.1897   33.5088   50.8597 H   0  0  0  0  0  0  0  0  0  0  0  0
   58.9818   33.6780   49.5195 H   0  0  0  0  0  0  0  0  0  0  0  0
   60.8756   31.4232   50.1390 H   0  0  0  0  0  0  0  0  0  0  0  0
   59.1757   31.3902   49.5419 H   0  0  0  0  0  0  0  0  0  0  0  0
   61.6660   31.6190   47.9270 H   0  0  0  0  0  0  0  0  0  0  0  0
   60.0290   33.9789   47.2003 H   0  0  0  0  0  0  0  0  0  0  0  0
   58.7307   35.6743   45.9279 H   0  0  0  0  0  0  0  0  0  0  0  0
   56.9991   34.9532   44.2959 H   0  0  0  0  0  0  0  0  0  0  0  0
   56.6290   32.5402   43.8466 H   0  0  0  0  0  0  0  0  0  0  0  0
   56.3729   29.5563   44.0142 H   0  0  0  0  0  0  0  0  0  0  0  0
   57.0343   30.9758   43.1343 H   0  0  0  0  0  0  0  0  0  0  0  0
   57.9331   29.4206   43.1343 H   0  0  0  0  0  0  0  0  0  0  0  0
   57.5178   27.8588   44.9191 H   0  0  0  0  0  0  0  0  0  0  0  0
   60.3501   26.8479   48.0100 H   0  0  0  0  0  0  0  0  0  0  0  0
   60.8879   29.2523   48.3214 H   0  0  0  0  0  0  0  0  0  0  0  0
  1  2  1  0
  2  3  1  0
  2  4  1  0
  4  5  1  0
  5  6  1  0
  6  7  1  0
  7  8  1  0
  8  9  1  0
  9 10  2  0
 10 11  1  0
 11 12  2  0
 12 13  1  0
 13 14  2  0
 14 15  1  0
 15 16  2  0
 16 17  1  0
 16 18  1  0
 18 19  2  0
 19 20  1  0
 20 21  1  0
 20 22  2  0
 22 23  1  0
 23 24  2  0
 24  9  1  0
 15 10  1  0
 24 18  1  0
  1 25  1  0
  1 26  1  0
  1 27  1  0
  3 28  1  0
  3 29  1  0
  3 30  1  0
  4 31  1  0
  4 32  1  0
  5 33  1  0
  5 34  1  0
  6 35  1  0
  6 36  1  0
  7 37  1  0
  7 38  1  0
  8 39  1  0
 11 40  1  0
 12 41  1  0
 13 42  1  0
 14 43  1  0
 17 44  1  0
 17 45  1  0
 17 46  1  0
 19 47  1  0
 22 48  1  0
 23 49  1  0
M  CHG  1  16   1
M  END
>  <UniqueID>  (13) 
13

>  <SMILES>  (13) 
CN(C)CCCCNc1c2ccccc2[n+](C)c2cc(Cl)ccc12

>  <Energy>  (13) 
77.43382607382658

>  <Genealogy>  (13) 
CN(C)CCCCNc1c2ccccc2[n+](C)c2cc(Cl)ccc12 (3D coordinates assigned)
CN(C)CCCCNc1c2ccccc2[n+](C)c2cc(Cl)ccc12 (optimized conformer: 77.43382607382658 kcal/mol)

>  <smiles>  (13) 
CN(C)CCCCNc1c2ccccc2[n+](C)c2cc(Cl)ccc12

>  <score_type>  (13) 
oracle

>  <origin>  (13) 
adg

>  <m_score__min__energy>  (13) 
-5.5199999999999996

>  <m_primary>  (13) 
energy

$$$$
13:0
     RDKit          3D

 33 35  0  0  0  0  0  0  0  0999 V2000
   58.1010   26.5790   43.5840 C   0  0  0  0  0  0  0  0  0  0  0  0
   57.9180   28.0550   43.7410 C   0  0  0  0  0  0  0  0  0  0  0  0
   58.6380   28.7290   44.6780 N   0  0  0  0  0  0  0  0  0  0  0  0
   58.4830   30.0660   44.8560 C   0  0  0  0  0  0  0  0  0  0  0  0
   59.2350   30.7420   45.8220 C   0  0  0  0  0  0  0  0  0  0  0  0
   59.0780   32.1290   46.0050 C   0  0  0  0  0  0  0  0  0  0  0  0
   59.8760   32.8480   47.0310 C   0  0  0  0  0  0  0  0  0  0  0  0
   59.2430   33.6560   47.9910 C   0  0  0  0  0  0  0  0  0  0  0  0
   59.9930   34.3200   48.9630 C   0  0  0  0  0  0  0  0  0  0  0  0
   61.3830   34.1940   48.9860 C   0  0  0  0  0  0  0  0  0  0  0  0
   62.0420   33.4140   48.0200 C   0  0  0  0  0  0  0  0  0  0  0  0
   63.5390   33.2340   48.0740 C   0  0  0  0  0  0  0  0  0  0  0  0
   64.1430   33.8130   46.9720 F   0  0  0  0  0  0  0  0  0  0  0  0
   64.0270   33.8320   49.2220 F   0  0  0  0  0  0  0  0  0  0  0  0
   63.8680   31.8900   48.0910 F   0  0  0  0  0  0  0  0  0  0  0  0
   61.2780   32.7250   47.0610 C   0  0  0  0  0  0  0  0  0  0  0  0
   58.1530   32.8250   45.2030 C   0  0  0  0  0  0  0  0  0  0  0  0
   57.3990   32.1520   44.2380 C   0  0  0  0  0  0  0  0  0  0  0  0
   57.5610   30.7720   44.0610 C   0  0  0  0  0  0  0  0  0  0  0  0
   56.8260   30.0610   43.1080 C   0  0  0  0  0  0  0  0  0  0  0  0
   57.0150   28.7220   42.9680 N   0  0  0  0  0  0  0  0  0  0  0  0
   58.1593   26.1091   44.5769 H   0  0  0  0  0  0  0  0  0  0  0  0
   57.2479   26.1606   43.0298 H   0  0  0  0  0  0  0  0  0  0  0  0
   59.0305   26.3817   43.0298 H   0  0  0  0  0  0  0  0  0  0  0  0
   59.9536   30.1866   46.4426 H   0  0  0  0  0  0  0  0  0  0  0  0
   58.1486   33.7659   47.9763 H   0  0  0  0  0  0  0  0  0  0  0  0
   59.4869   34.9448   49.7136 H   0  0  0  0  0  0  0  0  0  0  0  0
   61.9659   34.7080   49.7645 H   0  0  0  0  0  0  0  0  0  0  0  0
   61.7825   32.0818   46.3250 H   0  0  0  0  0  0  0  0  0  0  0  0
   58.0228   33.9090   45.3375 H   0  0  0  0  0  0  0  0  0  0  0  0
   56.6787   32.7056   43.6178 H   0  0  0  0  0  0  0  0  0  0  0  0
   56.0961   30.5839   42.4726 H   0  0  0  0  0  0  0  0  0  0  0  0
   56.4550   28.2030   42.2530 H   0  0  0  0  0  0  0  0  0  0  0  0
  1  2  1  0
  2  3  2  0
  3  4  1  0
  4  5  2  0
  5  6  1  0
  6  7  1  0
  7  8  2  0
  8  9  1  0
  9 10  2  0
 10 11  1  0
 11 12  1  0
 12 13  1  0
 12 14  1  0
 12 15  1  0
 11 16  2  0
  6 17  2  0
 17 18  1  0
 18 19  2  0
 19 20  1  0
 20 21  2  0
 21  2  1  0
 19  4  1  0
 16  7  1  0
  1 22  1  0
  1 23  1  0
  1 24  1  0
  5 25  1  0
  8 26  1  0
  9 27  1  0
 10 28  1  0
 16 29  1  0
 17 30  1  0
 18 31  1  0
 20 32  1  0
 21 33  1  0
M  CHG  1  21   1
M  END
>  <UniqueID>  (14) 
14

>  <SMILES>  (14) 
Cc1nc2cc(-c3cccc(C(F)(F)F)c3)ccc2c[nH+]1

>  <Energy>  (14) 
42.922119697030354

>  <Genealogy>  (14) 
Cc1nc2cc(-c3cccc(C(F)(F)F)c3)ccc2c[nH+]1 (protonated)
Cc1nc2cc(-c3cccc(C(F)(F)F)c3)ccc2c[nH+]1 (3D coordinates assigned)
Cc1nc2cc(-c3cccc(C(F)(F)F)c3)ccc2c[nH+]1 (optimized conformer: 42.922119697030354 kcal/mol)

>  <smiles>  (14) 
Cc1ncc2ccc(-c3cccc(C(F)(F)F)c3)cc2n1

>  <score_type>  (14) 
oracle

>  <origin>  (14) 
adg

>  <m_score__min__energy>  (14) 
-5.8799999999999999

>  <m_primary>  (14) 
energy

$$$$
14:0
     RDKit          3D

 63 65  0  0  0  0  0  0  0  0999 V2000
   54.6850   23.6180   44.3870 C   0  0  0  0  0  0  0  0  0  0  0  0
   54.3100   24.4780   45.5970 C   0  0  0  0  0  0  0  0  0  0  0  0
   55.3080   25.5200   45.8820 N   0  0  0  0  0  0  0  0  0  0  0  0
   56.6790   24.9890   45.8950 C   0  0  0  0  0  0  0  0  0  0  0  0
   57.6800   26.1450   45.8250 C   0  0  0  0  0  0  0  0  0  0  0  0
   57.0350   27.4650   46.2830 C   0  0  0  0  0  0  0  0  0  0  0  0
   56.1590   28.0470   45.2520 N   0  0  0  0  0  0  0  0  0  0  0  0
   56.3930   29.4860   45.0760 C   0  0  0  0  0  0  0  0  0  0  0  0
   56.8260   29.7940   43.6360 C   0  0  0  0  0  0  0  0  0  0  0  0
   58.1000   30.5370   43.5520 N   0  0  0  0  0  0  0  0  0  0  0  0
   58.6350   30.8560   44.8710 C   0  0  0  0  0  0  0  0  0  0  0  0
   58.4360   32.1290   45.4700 C   0  0  0  0  0  0  0  0  0  0  0  0
   58.9100   32.3620   46.7780 C   0  0  0  0  0  0  0  0  0  0  0  0
   59.3680   31.3210   47.5570 N   0  0  0  0  0  0  0  0  0  0  0  0
   59.7080   31.5930   48.9740 C   0  0  0  0  0  0  0  0  0  0  0  0
   59.5790   30.0740   47.0000 C   0  0  0  0  0  0  0  0  0  0  0  0
   59.3380   29.8670   45.6140 C   0  0  0  0  0  0  0  0  0  0  0  0
   59.8050   28.5890   44.9240 C   0  0  0  0  0  0  0  0  0  0  0  0
   60.7650   27.7540   45.7640 C   0  0  0  0  0  0  0  0  0  0  0  0
   60.1880   27.5750   47.1520 C   0  0  0  0  0  0  0  0  0  0  0  0
   60.1080   28.9260   47.8610 C   0  0  0  0  0  0  0  0  0  0  0  0
   58.8320   33.7960   47.2970 C   0  0  0  0  0  0  0  0  0  0  0  0
   59.2610   34.7890   46.2080 C   0  0  0  0  0  0  0  0  0  0  0  0
   58.5290   34.5800   44.8660 C   0  0  0  0  0  0  0  0  0  0  0  0
   57.7020   33.2880   44.8060 C   0  0  0  0  0  0  0  0  0  0  0  0
   55.1024   22.6608   44.7327 H   0  0  0  0  0  0  0  0  0  0  0  0
   53.7877   23.4287   43.7795 H   0  0  0  0  0  0  0  0  0  0  0  0
   55.4343   24.1467   43.7795 H   0  0  0  0  0  0  0  0  0  0  0  0
   53.3423   24.9620   45.3988 H   0  0  0  0  0  0  0  0  0  0  0  0
   54.2606   23.8156   46.4738 H   0  0  0  0  0  0  0  0  0  0  0  0
   55.2390   26.2760   45.1610 H   0  0  0  0  0  0  0  0  0  0  0  0
   56.8420   24.4197   46.8220 H   0  0  0  0  0  0  0  0  0  0  0  0
   56.8227   24.3293   45.0266 H   0  0  0  0  0  0  0  0  0  0  0  0
   58.5365   25.9185   46.4770 H   0  0  0  0  0  0  0  0  0  0  0  0
   58.0082   26.2602   44.7814 H   0  0  0  0  0  0  0  0  0  0  0  0
   56.4380   27.2720   47.1865 H   0  0  0  0  0  0  0  0  0  0  0  0
   57.8440   28.1834   46.4815 H   0  0  0  0  0  0  0  0  0  0  0  0
   56.3130   27.5560   44.3400 H   0  0  0  0  0  0  0  0  0  0  0  0
   55.4646   30.0325   45.2985 H   0  0  0  0  0  0  0  0  0  0  0  0
   57.1946   29.7999   45.7608 H   0  0  0  0  0  0  0  0  0  0  0  0
   56.9409   28.8428   43.0956 H   0  0  0  0  0  0  0  0  0  0  0  0
   56.0479   30.4330   43.1929 H   0  0  0  0  0  0  0  0  0  0  0  0
   58.7770   29.9460   43.0240 H   0  0  0  0  0  0  0  0  0  0  0  0
   58.0090   31.3660   42.9330 H   0  0  0  0  0  0  0  0  0  0  0  0
   59.0180   31.0410   49.6291 H   0  0  0  0  0  0  0  0  0  0  0  0
   60.7402   31.2686   49.1722 H   0  0  0  0  0  0  0  0  0  0  0  0
   59.6181   32.6713   49.1722 H   0  0  0  0  0  0  0  0  0  0  0  0
   58.9212   27.9757   44.6942 H   0  0  0  0  0  0  0  0  0  0  0  0
   60.3515   28.8937   44.0193 H   0  0  0  0  0  0  0  0  0  0  0  0
   60.9038   26.7693   45.2938 H   0  0  0  0  0  0  0  0  0  0  0  0
   61.7365   28.2655   45.8316 H   0  0  0  0  0  0  0  0  0  0  0  0
   59.1791   27.1436   47.0746 H   0  0  0  0  0  0  0  0  0  0  0  0
   60.8377   26.9011   47.7298 H   0  0  0  0  0  0  0  0  0  0  0  0
   59.4435   28.8168   48.7308 H   0  0  0  0  0  0  0  0  0  0  0  0
   61.1398   29.1938   48.1326 H   0  0  0  0  0  0  0  0  0  0  0  0
   57.7972   34.0154   47.5989 H   0  0  0  0  0  0  0  0  0  0  0  0
   59.5095   33.8990   48.1575 H   0  0  0  0  0  0  0  0  0  0  0  0
   59.0523   35.8087   46.5640 H   0  0  0  0  0  0  0  0  0  0  0  0
   60.3327   34.6248   46.0225 H   0  0  0  0  0  0  0  0  0  0  0  0
   57.8530   35.4324   44.7033 H   0  0  0  0  0  0  0  0  0  0  0  0
   59.3026   34.5017   44.0879 H   0  0  0  0  0  0  0  0  0  0  0  0
   56.7455   33.4504   45.3245 H   0  0  0  0  0  0  0  0  0  0  0  0
   57.5336   33.0324   43.7494 H   0  0  0  0  0  0  0  0  0  0  0  0
  1  2  1  0
  2  3  1  0
  3  4  1  0
  4  5  1  0
  5  6  1  0
  6  7  1  0
  7  8  1  0
  8  9  1  0
  9 10  1  0
 10 11  1  0
 11 12  2  0
 12 13  1  0
 13 14  2  0
 14 15  1  0
 14 16  1  0
 16 17  2  0
 17 18  1  0
 18 19  1  0
 19 20  1  0
 20 21  1  0
 13 22  1  0
 22 23  1  0
 23 24  1  0
 24 25  1  0
 17 11  1  0
 25 12  1  0
 21 16  1  0
  1 26  1  0
  1 27  1  0
  1 28  1  0
  2 29  1  0
  2 30  1  0
  3 31  1  0
  4 32  1  0
  4 33  1  0
  5 34  1  0
  5 35  1  0
  6 36  1  0
  6 37  1  0
  7 38  1  0
  8 39  1  0
  8 40  1  0
  9 41  1  0
  9 42  1  0
 10 43  1  0
 10 44  1  0
 15 45  1  0
 15 46  1  0
 15 47  1  0
 18 48  1  0
 18 49  1  0
 19 50  1  0
 19 51  1  0
 20 52  1  0
 20 53  1  0
 21 54  1  0
 21 55  1  0
 22 56  1  0
 22 57  1  0
 23 58  1  0
 23 59  1  0
 24 60  1  0
 24 61  1  0
 25 62  1  0
 25 63  1  0
M  CHG  2  10   1  14   1
M  END
>  <UniqueID>  (15) 
15

>  <SMILES>  (15) 
CCNCCCNCC[NH2+]c1c2c([n+](C)c3c1CCCC3)CCCC2

>  <Energy>  (15) 
80.87828477588836

>  <Genealogy>  (15) 
CCNCCCNCC[NH2+]c1c2c([n+](C)c3c1CCCC3)CCCC2 (protonated)
CCNCCCNCC[NH2+]c1c2c([n+](C)c3c1CCCC3)CCCC2 (3D coordinates assigned)
CCNCCCNCC[NH2+]c1c2c([n+](C)c3c1CCCC3)CCCC2 (nonaromatic ring conformer: 80.87828477588836 kcal/mol)

>  <smiles>  (15) 
CCNCCCNCCNc1c2c([n+](C)c3c1CCCC3)CCCC2

>  <score_type>  (15) 
oracle

>  <origin>  (15) 
adg

>  <m_score__min__energy>  (15) 
-5.5300000000000002

>  <m_primary>  (15) 
energy

$$$$
15:0
     RDKit          3D

 49 50  0  0  0  0  0  0  0  0999 V2000
   59.7139   34.7485   49.2051 H   0  0  0  0  0  0  0  0  0  0  0  0
   60.0770   33.7410   48.9540 C   0  0  0  0  0  0  0  0  0  0  0  0
   59.2380   32.7070   49.1240 C   0  0  0  0  0  0  0  0  0  0  0  0
   58.6400   32.5570   50.3330 F   0  0  0  0  0  0  0  0  0  0  0  0
   58.8850   31.7190   48.0360 C   0  0  0  0  0  0  0  0  0  0  0  0
   58.0417   32.1200   47.4546 H   0  0  0  0  0  0  0  0  0  0  0  0
   58.6239   30.7662   48.5197 H   0  0  0  0  0  0  0  0  0  0  0  0
   59.9670   31.4750   47.1580 O   0  0  0  0  0  0  0  0  0  0  0  0
   59.6410   30.4850   46.1990 C   0  0  0  0  0  0  0  0  0  0  0  0
   60.1623   29.5500   46.4521 H   0  0  0  0  0  0  0  0  0  0  0  0
   59.9538   30.8358   45.2045 H   0  0  0  0  0  0  0  0  0  0  0  0
   58.1260   30.2310   46.1830 C   0  0  0  0  0  0  0  0  0  0  0  0
   57.7270   30.4746   47.1787 H   0  0  0  0  0  0  0  0  0  0  0  0
   57.9905   29.1741   45.9099 H   0  0  0  0  0  0  0  0  0  0  0  0
   57.3780   31.0220   45.1800 N   0  0  0  0  0  0  0  0  0  0  0  0
   57.6810   32.4750   45.1380 C   0  0  0  0  0  0  0  0  0  0  0  0
   58.4736   32.6795   45.8729 H   0  0  0  0  0  0  0  0  0  0  0  0
   56.7357   32.9922   45.3590 H   0  0  0  0  0  0  0  0  0  0  0  0
   58.1480   33.0010   43.7770 C   0  0  0  0  0  0  0  0  0  0  0  0
   58.8715   33.8159   43.9274 H   0  0  0  0  0  0  0  0  0  0  0  0
   58.6256   32.1861   43.2132 H   0  0  0  0  0  0  0  0  0  0  0  0
   57.2823   33.3787   43.2132 H   0  0  0  0  0  0  0  0  0  0  0  0
   57.1050   30.3290   43.9030 C   0  0  0  0  0  0  0  0  0  0  0  0
   57.1908   31.0499   43.0766 H   0  0  0  0  0  0  0  0  0  0  0  0
   57.8358   29.5159   43.7814 H   0  0  0  0  0  0  0  0  0  0  0  0
   55.7020   29.7280   43.8980 C   0  0  0  0  0  0  0  0  0  0  0  0
   55.3618   29.5823   44.9339 H   0  0  0  0  0  0  0  0  0  0  0  0
   55.0129   30.4099   43.3783 H   0  0  0  0  0  0  0  0  0  0  0  0
   55.7202   28.7587   43.3783 H   0  0  0  0  0  0  0  0  0  0  0  0
   61.4610   33.6060   48.4490 C   0  0  0  0  0  0  0  0  0  0  0  0
   61.6700   33.8240   47.0730 C   0  0  0  0  0  0  0  0  0  0  0  0
   60.3780   34.3660   46.0000 Cl  0  0  0  0  0  0  0  0  0  0  0  0
   62.9300   33.6290   46.5230 C   0  0  0  0  0  0  0  0  0  0  0  0
   63.0862   33.7887   45.4459 H   0  0  0  0  0  0  0  0  0  0  0  0
   63.9670   33.2440   47.3020 N   0  0  0  0  0  0  0  0  0  0  0  0
   64.8940   33.0940   46.8410 H   0  0  0  0  0  0  0  0  0  0  0  0
   63.8350   33.0720   48.6470 C   0  0  0  0  0  0  0  0  0  0  0  0
   64.9580   32.6860   49.3900 C   0  0  0  0  0  0  0  0  0  0  0  0
   65.9179   32.5208   48.8788 H   0  0  0  0  0  0  0  0  0  0  0  0
   64.8730   32.5100   50.7620 C   0  0  0  0  0  0  0  0  0  0  0  0
   65.7579   32.1867   51.3299 H   0  0  0  0  0  0  0  0  0  0  0  0
   63.6730   32.7410   51.4210 C   0  0  0  0  0  0  0  0  0  0  0  0
   63.6224   32.6072   52.5117 H   0  0  0  0  0  0  0  0  0  0  0  0
   62.5200   33.1430   50.7210 C   0  0  0  0  0  0  0  0  0  0  0  0
   61.3060   33.4600   51.5590 C   0  0  0  0  0  0  0  0  0  0  0  0
   61.5683   33.3915   52.6251 H   0  0  0  0  0  0  0  0  0  0  0  0
   60.9592   34.4788   51.3314 H   0  0  0  0  0  0  0  0  0  0  0  0
   60.5054   32.7408   51.3314 H   0  0  0  0  0  0  0  0  0  0  0  0
   62.5760   33.2820   49.2890 C   0  0  0  0  0  0  0  0  0  0  0  0
  1  2  1  0
  2  3  2  0
  3  4  1  0
  3  5  1  0
  5  6  1  0
  5  7  1  0
  5  8  1  0
  8  9  1  0
  9 10  1  0
  9 11  1  0
  9 12  1  0
 12 13  1  0
 12 14  1  0
 12 15  1  0
 15 16  1  0
 16 17  1  0
 16 18  1  0
 16 19  1  0
 19 20  1  0
 19 21  1  0
 19 22  1  0
 15 23  1  0
 23 24  1  0
 23 25  1  0
 23 26  1  0
 26 27  1  0
 26 28  1  0
 26 29  1  0
  2 30  1  0
 30 31  2  0
 31 32  1  0
 31 33  1  0
 33 34  1  0
 33 35  2  0
 35 36  1  0
 35 37  1  0
 37 38  2  0
 38 39  1  0
 38 40  1  0
 40 41  1  0
 40 42  2  0
 42 43  1  0
 42 44  1  0
 44 45  1  0
 45 46  1  0
 45 47  1  0
 45 48  1  0
 44 49  2  0
 49 30  1  0
 49 37  1  0
M  CHG  1  35   1
M  END
>  <UniqueID>  (16) 
16

>  <SMILES>  (16) 
CCN(CC)CCOC/C(F)=C\c1c(Cl)c[nH+]c2cccc(C)c12

>  <Energy>  (16) 
73.87385147781463

>  <Genealogy>  (16) 
CCN(CC)CCOCC(F)=Cc1c(Cl)c[nH+]c2cccc(C)c12 (protonated)
CCN(CC)CCOC/C(F)=C\c1c(Cl)c[nH+]c2cccc(C)c12 (cis-trans isomerization)
CCN(CC)CCOC/C(F)=C\c1c(Cl)c[nH+]c2cccc(C)c12 (3D coordinates assigned)
CCN(CC)CCOC/C(F)=C\c1c(Cl)c[nH+]c2cccc(C)c12 (optimized conformer: 73.87385147781463 kcal/mol)

>  <smiles>  (16) 
CCN(CC)CCOCC(F)=Cc1c(Cl)cnc2cccc(C)c12

>  <score_type>  (16) 
oracle

>  <origin>  (16) 
adg

>  <m_score__min__energy>  (16) 
-5.7800000000000002

>  <m_primary>  (16) 
energy

$$$$
16:0
     RDKit          3D

 43 45  0  0  0  0  0  0  0  0999 V2000
   59.1160   31.9660   49.2490 C   0  0  0  0  0  0  0  0  0  0  0  0
   58.8590   32.4440   47.8540 C   0  0  0  0  0  0  0  0  0  0  0  0
   58.0990   31.7510   46.9800 N   0  0  0  0  0  0  0  0  0  0  0  0
   58.1290   32.4900   45.8540 C   0  0  0  0  0  0  0  0  0  0  0  0
   57.4170   32.1000   44.5930 C   0  0  0  0  0  0  0  0  0  0  0  0
   56.3750   31.1020   44.8570 N   0  0  0  0  0  0  0  0  0  0  0  0
   56.2690   29.9200   43.5810 S   0  0  0  0  0  0  0  0  0  0  0  0
   54.8680   29.3750   43.5550 O   0  0  0  0  0  0  0  0  0  0  0  0
   56.5470   30.5800   42.2600 O   0  0  0  0  0  0  0  0  0  0  0  0
   57.4560   28.5950   43.8270 C   0  0  0  0  0  0  0  0  0  0  0  0
   58.6880   29.0010   44.6170 C   0  0  0  0  0  0  0  0  0  0  0  0
   57.6280   28.1220   45.2620 C   0  0  0  0  0  0  0  0  0  0  0  0
   58.9200   33.6070   46.0500 C   0  0  0  0  0  0  0  0  0  0  0  0
   59.1620   34.7160   45.0690 C   0  0  0  0  0  0  0  0  0  0  0  0
   59.3690   33.5820   47.3230 N   0  0  0  0  0  0  0  0  0  0  0  0
   60.2030   34.5890   47.9910 C   0  0  0  0  0  0  0  0  0  0  0  0
   61.5970   34.0640   48.2070 C   0  0  0  0  0  0  0  0  0  0  0  0
   62.1590   34.0590   49.4950 C   0  0  0  0  0  0  0  0  0  0  0  0
   63.4570   33.5790   49.6970 C   0  0  0  0  0  0  0  0  0  0  0  0
   64.2010   33.0980   48.6160 C   0  0  0  0  0  0  0  0  0  0  0  0
   63.6490   33.0940   47.3330 C   0  0  0  0  0  0  0  0  0  0  0  0
   62.3510   33.5740   47.1270 C   0  0  0  0  0  0  0  0  0  0  0  0
   58.7213   32.7002   49.9667 H   0  0  0  0  0  0  0  0  0  0  0  0
   58.6167   30.9980   49.4027 H   0  0  0  0  0  0  0  0  0  0  0  0
   60.1989   31.8486   49.4027 H   0  0  0  0  0  0  0  0  0  0  0  0
   56.9531   32.9946   44.1520 H   0  0  0  0  0  0  0  0  0  0  0  0
   58.1509   31.6614   43.9010 H   0  0  0  0  0  0  0  0  0  0  0  0
   56.6490   30.5840   45.7240 H   0  0  0  0  0  0  0  0  0  0  0  0
   57.2655   28.0928   42.8670 H   0  0  0  0  0  0  0  0  0  0  0  0
   59.6704   28.5785   44.3593 H   0  0  0  0  0  0  0  0  0  0  0  0
   59.1666   29.9575   44.8739 H   0  0  0  0  0  0  0  0  0  0  0  0
   57.8432   27.0636   45.4704 H   0  0  0  0  0  0  0  0  0  0  0  0
   57.0218   28.1788   46.1782 H   0  0  0  0  0  0  0  0  0  0  0  0
   59.3657   35.6496   45.6139 H   0  0  0  0  0  0  0  0  0  0  0  0
   60.0264   34.4643   44.4369 H   0  0  0  0  0  0  0  0  0  0  0  0
   58.2714   34.8473   44.4369 H   0  0  0  0  0  0  0  0  0  0  0  0
   60.2499   35.4924   47.3651 H   0  0  0  0  0  0  0  0  0  0  0  0
   59.7580   34.8260   48.9686 H   0  0  0  0  0  0  0  0  0  0  0  0
   61.5752   34.4344   50.3484 H   0  0  0  0  0  0  0  0  0  0  0  0
   63.8925   33.5800   50.7071 H   0  0  0  0  0  0  0  0  0  0  0  0
   65.2224   32.7222   48.7758 H   0  0  0  0  0  0  0  0  0  0  0  0
   64.2353   32.7131   46.4837 H   0  0  0  0  0  0  0  0  0  0  0  0
   61.9189   33.5678   46.1154 H   0  0  0  0  0  0  0  0  0  0  0  0
  1  2  1  0
  2  3  2  0
  3  4  1  0
  4  5  1  0
  5  6  1  0
  6  7  1  0
  7  8  2  0
  7  9  2  0
  7 10  1  0
 10 11  1  0
 11 12  1  0
  4 13  2  0
 13 14  1  0
 13 15  1  0
 15 16  1  0
 16 17  1  0
 17 18  2  0
 18 19  1  0
 19 20  2  0
 20 21  1  0
 21 22  2  0
 15  2  1  0
 22 17  1  0
 12 10  1  0
  1 23  1  0
  1 24  1  0
  1 25  1  0
  5 26  1  0
  5 27  1  0
  6 28  1  0
 10 29  1  0
 11 30  1  0
 11 31  1  0
 12 32  1  0
 12 33  1  0
 14 34  1  0
 14 35  1  0
 14 36  1  0
 16 37  1  0
 16 38  1  0
 18 39  1  0
 19 40  1  0
 20 41  1  0
 21 42  1  0
 22 43  1  0
M  END
>  <UniqueID>  (17) 
17

>  <SMILES>  (17) 
Cc1nc(CNS(=O)(=O)C2CC2)c(C)n1Cc1ccccc1

>  <Energy>  (17) 
328.5776371291436

>  <Genealogy>  (17) 
Cc1nc(CNS(=O)(=O)C2CC2)c(C)n1Cc1ccccc1 (3D coordinates assigned)
Cc1nc(CNS(=O)(=O)C2CC2)c(C)n1Cc1ccccc1 (nonaromatic ring conformer: 328.5776371291436 kcal/mol)

>  <smiles>  (17) 
Cc1nc(CNS(=O)(=O)C2CC2)c(C)n1Cc1ccccc1

>  <score_type>  (17) 
oracle

>  <origin>  (17) 
adg

>  <m_score__min__energy>  (17) 
-8.6799999999999997

>  <m_primary>  (17) 
energy

$$$$
