0:0
     RDKit          3D

 44 46  0  0  0  0  0  0  0  0999 V2000
   63.6799   34.6836   48.8690 H   0  0  0  0  0  0  0  0  0  0  0  0
   63.0580   33.8280   48.5670 C   0  0  0  0  0  0  0  0  0  0  0  0
   63.6400   32.7340   47.9250 C   0  0  0  0  0  0  0  0  0  0  0  0
   64.7206   32.7292   47.7191 H   0  0  0  0  0  0  0  0  0  0  0  0
   62.8520   31.6440   47.5430 C   0  0  0  0  0  0  0  0  0  0  0  0
   63.3169   30.7854   47.0364 H   0  0  0  0  0  0  0  0  0  0  0  0
   61.4670   31.6370   47.8020 C   0  0  0  0  0  0  0  0  0  0  0  0
   60.6480   30.5170   47.4030 N   0  0  0  0  0  0  0  0  0  0  0  0
   60.2780   30.3540   45.9910 C   0  0  0  0  0  0  0  0  0  0  0  0
   61.1650   30.5275   45.3640 H   0  0  0  0  0  0  0  0  0  0  0  0
   59.4881   31.0801   45.7487 H   0  0  0  0  0  0  0  0  0  0  0  0
   59.7440   28.9430   45.7250 C   0  0  0  0  0  0  0  0  0  0  0  0
   60.5565   28.2158   45.8702 H   0  0  0  0  0  0  0  0  0  0  0  0
   59.3697   28.8948   44.6918 H   0  0  0  0  0  0  0  0  0  0  0  0
   58.6320   28.6220   46.6510 N   0  0  0  0  0  0  0  0  0  0  0  0
   57.8540   29.2740   46.3870 H   0  0  0  0  0  0  0  0  0  0  0  0
   58.0850   27.2620   46.4080 C   0  0  0  0  0  0  0  0  0  0  0  0
   58.1959   26.6789   47.3341 H   0  0  0  0  0  0  0  0  0  0  0  0
   58.6529   26.8484   45.5616 H   0  0  0  0  0  0  0  0  0  0  0  0
   56.6210   27.2230   45.9980 C   0  0  0  0  0  0  0  0  0  0  0  0
   55.9080   26.2310   46.2990 O   0  0  0  0  0  0  0  0  0  0  0  0
   56.0050   28.3010   45.2730 N   0  0  0  0  0  0  0  0  0  0  0  0
   56.5770   29.3800   44.8270 C   0  0  0  0  0  0  0  0  0  0  0  0
   57.0220   30.3930   45.6040 N   0  0  0  0  0  0  0  0  0  0  0  0
   57.5330   31.4010   44.9000 N   0  0  0  0  0  0  0  0  0  0  0  0
   57.5010   31.1910   43.5650 C   0  0  0  0  0  0  0  0  0  0  0  0
   57.9570   32.1990   42.5590 C   0  0  0  0  0  0  0  0  0  0  0  0
   59.0061   31.9983   42.2962 H   0  0  0  0  0  0  0  0  0  0  0  0
   57.8593   33.2041   42.9951 H   0  0  0  0  0  0  0  0  0  0  0  0
   57.1020   32.1250   41.2990 C   0  0  0  0  0  0  0  0  0  0  0  0
   56.0424   32.0333   41.5798 H   0  0  0  0  0  0  0  0  0  0  0  0
   57.2459   33.0390   40.7040 H   0  0  0  0  0  0  0  0  0  0  0  0
   57.4008   31.2494   40.7040 H   0  0  0  0  0  0  0  0  0  0  0  0
   56.7880   29.7080   43.1910 S   0  0  0  0  0  0  0  0  0  0  0  0
   58.9240   28.8830   48.0930 C   0  0  0  0  0  0  0  0  0  0  0  0
   58.8212   27.9362   48.6434 H   0  0  0  0  0  0  0  0  0  0  0  0
   58.2088   29.6485   48.4285 H   0  0  0  0  0  0  0  0  0  0  0  0
   60.3330   29.4450   48.3560 C   0  0  0  0  0  0  0  0  0  0  0  0
   61.0708   28.6364   48.2474 H   0  0  0  0  0  0  0  0  0  0  0  0
   60.3662   29.8560   49.3758 H   0  0  0  0  0  0  0  0  0  0  0  0
   60.8930   32.7490   48.4460 C   0  0  0  0  0  0  0  0  0  0  0  0
   59.8125   32.7627   48.6519 H   0  0  0  0  0  0  0  0  0  0  0  0
   61.6850   33.8360   48.8260 C   0  0  0  0  0  0  0  0  0  0  0  0
   61.2265   34.6996   49.3300 H   0  0  0  0  0  0  0  0  0  0  0  0
  1  2  1  0
  2  3  2  0
  3  4  1  0
  3  5  1  0
  5  6  1  0
  5  7  2  0
  7  8  1  0
  8  9  1  0
  9 10  1  0
  9 11  1  0
  9 12  1  0
 12 13  1  0
 12 14  1  0
 12 15  1  0
 15 16  1  0
 15 17  1  0
 17 18  1  0
 17 19  1  0
 17 20  1  0
 20 21  2  0
 20 22  1  0
 22 23  2  0
 23 24  1  0
 24 25  1  0
 25 26  2  0
 26 27  1  0
 27 28  1  0
 27 29  1  0
 27 30  1  0
 30 31  1  0
 30 32  1  0
 30 33  1  0
 26 34  1  0
 15 35  1  0
 35 36  1  0
 35 37  1  0
 35 38  1  0
 38 39  1  0
 38 40  1  0
  7 41  1  0
 41 42  1  0
 41 43  2  0
 43 44  1  0
 43  2  1  0
 38  8  1  0
 34 23  1  0
M  CHG  2  15   1  24  -1
M  END
>  <UniqueID>  (1) 
1

>  <SMILES>  (1) 
CCc1n[n-]/c(=N\C(=O)C[NH+]2CCN(c3ccccc3)CC2)s1

>  <Energy>  (1) 
93.96602355388262

>  <Genealogy>  (1) 
CCc1n[n-]c(=NC(=O)C[NH+]2CCN(c3ccccc3)CC2)s1 (protonated)
CCc1n[n-]/c(=N\C(=O)C[NH+]2CCN(c3ccccc3)CC2)s1 (cis-trans isomerization)
CCc1n[n-]/c(=N\C(=O)C[NH+]2CCN(c3ccccc3)CC2)s1 (3D coordinates assigned)
CCc1n[n-]/c(=N\C(=O)C[NH+]2CCN(c3ccccc3)CC2)s1 (nonaromatic ring conformer: 93.96602355388262 kcal/mol)

>  <smiles>  (1) 
CCc1n[nH]c(=NC(=O)CN2CCN(c3ccccc3)CC2)s1

>  <score_type>  (1) 
oracle

>  <origin>  (1) 
adg

>  <m_score__min__energy>  (1) 
-8.3699999999999992

>  <m_primary>  (1) 
energy

$$$$
1:0
     RDKit          3D

 46 49  0  0  0  0  0  0  0  0999 V2000
   57.8690   28.9690   44.6810 C   0  0  0  0  0  0  0  0  0  0  0  0
   56.4850   29.0080   44.5680 C   0  0  0  0  0  0  0  0  0  0  0  0
   56.0330   30.5700   44.1340 S   0  0  0  0  0  0  0  0  0  0  0  0
   57.5910   31.2000   44.0800 C   0  0  0  0  0  0  0  0  0  0  0  0
   57.9370   32.6240   43.7660 C   0  0  0  0  0  0  0  0  0  0  0  0
   57.6620   33.4890   44.9320 N   0  0  0  0  0  0  0  0  0  0  0  0
   58.6720   34.5510   45.0840 C   0  0  0  0  0  0  0  0  0  0  0  0
   60.0250   34.0120   45.5840 C   0  0  0  0  0  0  0  0  0  0  0  0
   59.9270   32.9910   46.7850 C   0  0  0  0  0  0  0  0  0  0  0  0
   60.3470   31.5630   46.3710 C   0  0  0  0  0  0  0  0  0  0  0  0
   60.8750   30.9170   47.6440 C   0  0  0  0  0  0  0  0  0  0  0  0
   60.9650   32.0420   48.6660 C   0  0  0  0  0  0  0  0  0  0  0  0
   60.8180   33.3200   47.9390 N   0  0  0  0  0  0  0  0  0  0  0  0
   62.1610   33.8560   47.5740 C   0  0  0  0  0  0  0  0  0  0  0  0
   63.1530   33.5320   48.6500 C   0  0  0  0  0  0  0  0  0  0  0  0
   63.1000   33.9330   49.9680 C   0  0  0  0  0  0  0  0  0  0  0  0
   64.1210   33.3880   50.5900 O   0  0  0  0  0  0  0  0  0  0  0  0
   64.7830   32.6670   49.7110 C   0  0  0  0  0  0  0  0  0  0  0  0
   64.2130   32.7210   48.4920 N   0  0  0  0  0  0  0  0  0  0  0  0
   58.4540   32.9780   47.3010 C   0  0  0  0  0  0  0  0  0  0  0  0
   57.4130   32.7330   46.1860 C   0  0  0  0  0  0  0  0  0  0  0  0
   58.4900   30.1940   44.4100 C   0  0  0  0  0  0  0  0  0  0  0  0
   58.4247   28.0609   44.9575 H   0  0  0  0  0  0  0  0  0  0  0  0
   55.8013   28.1624   44.7339 H   0  0  0  0  0  0  0  0  0  0  0  0
   59.0047   32.6897   43.5095 H   0  0  0  0  0  0  0  0  0  0  0  0
   57.3235   32.9620   42.9178 H   0  0  0  0  0  0  0  0  0  0  0  0
   58.8242   35.0351   44.1081 H   0  0  0  0  0  0  0  0  0  0  0  0
   58.2980   35.2625   45.8349 H   0  0  0  0  0  0  0  0  0  0  0  0
   60.5234   33.5059   44.7441 H   0  0  0  0  0  0  0  0  0  0  0  0
   60.5849   34.8808   45.9604 H   0  0  0  0  0  0  0  0  0  0  0  0
   59.4824   31.0035   45.9846 H   0  0  0  0  0  0  0  0  0  0  0  0
   61.1021   31.5724   45.5712 H   0  0  0  0  0  0  0  0  0  0  0  0
   60.1843   30.1353   47.9931 H   0  0  0  0  0  0  0  0  0  0  0  0
   61.8503   30.4349   47.4819 H   0  0  0  0  0  0  0  0  0  0  0  0
   60.1606   31.9387   49.4091 H   0  0  0  0  0  0  0  0  0  0  0  0
   61.9292   32.0072   49.1944 H   0  0  0  0  0  0  0  0  0  0  0  0
   62.4893   33.4019   46.6274 H   0  0  0  0  0  0  0  0  0  0  0  0
   62.0950   34.9482   47.4612 H   0  0  0  0  0  0  0  0  0  0  0  0
   62.3407   34.5900   50.4173 H   0  0  0  0  0  0  0  0  0  0  0  0
   65.6907   32.0907   49.9432 H   0  0  0  0  0  0  0  0  0  0  0  0
   64.5260   32.2350   47.6230 H   0  0  0  0  0  0  0  0  0  0  0  0
   58.3549   32.1799   48.0514 H   0  0  0  0  0  0  0  0  0  0  0  0
   58.2495   33.9736   47.7217 H   0  0  0  0  0  0  0  0  0  0  0  0
   57.4136   31.6596   45.9456 H   0  0  0  0  0  0  0  0  0  0  0  0
   56.4475   33.0864   46.5771 H   0  0  0  0  0  0  0  0  0  0  0  0
   59.5788   30.3445   44.4539 H   0  0  0  0  0  0  0  0  0  0  0  0
  1  2  2  0
  2  3  1  0
  3  4  1  0
  4  5  1  0
  5  6  1  0
  6  7  1  0
  7  8  1  0
  8  9  1  0
  9 10  1  0
 10 11  1  0
 11 12  1  0
 12 13  1  0
 13 14  1  0
 14 15  1  0
 15 16  2  0
 16 17  1  0
 17 18  1  0
 18 19  2  0
  9 20  1  0
 20 21  1  0
  4 22  2  0
 22  1  1  0
 21  6  1  0
 13  9  1  0
 19 15  1  0
  1 23  1  0
  2 24  1  0
  5 25  1  0
  5 26  1  0
  7 27  1  0
  7 28  1  0
  8 29  1  0
  8 30  1  0
 10 31  1  0
 10 32  1  0
 11 33  1  0
 11 34  1  0
 12 35  1  0
 12 36  1  0
 14 37  1  0
 14 38  1  0
 16 39  1  0
 18 40  1  0
 19 41  1  0
 20 42  1  0
 20 43  1  0
 21 44  1  0
 21 45  1  0
 22 46  1  0
M  CHG  1  19   1
M  END
>  <UniqueID>  (2) 
2

>  <SMILES>  (2) 
c1csc(CN2CCC3(CCCN3Cc3coc[nH+]3)CC2)c1

>  <Energy>  (2) 
130.4972787498182

>  <Genealogy>  (2) 
c1csc(CN2CCC3(CCCN3Cc3coc[nH+]3)CC2)c1 (protonated)
c1csc(CN2CCC3(CCCN3Cc3coc[nH+]3)CC2)c1 (3D coordinates assigned)
c1csc(CN2CCC3(CCCN3Cc3coc[nH+]3)CC2)c1 (nonaromatic ring conformer: 130.4972787498182 kcal/mol)

>  <smiles>  (2) 
c1csc(CN2CCC3(CCCN3Cc3cocn3)CC2)c1

>  <score_type>  (2) 
oracle

>  <origin>  (2) 
adg

>  <m_score__min__energy>  (2) 
-6.2599999999999998

>  <m_primary>  (2) 
energy

$$$$
2:0
     RDKit          3D

 38 40  0  0  0  0  0  0  0  0999 V2000
   59.7599   36.0731   47.0579 H   0  0  0  0  0  0  0  0  0  0  0  0
   59.6810   34.9840   46.9250 C   0  0  0  0  0  0  0  0  0  0  0  0
   60.8330   34.1940   46.9250 C   0  0  0  0  0  0  0  0  0  0  0  0
   61.8189   34.6623   47.0616 H   0  0  0  0  0  0  0  0  0  0  0  0
   60.7370   32.8100   46.7520 C   0  0  0  0  0  0  0  0  0  0  0  0
   61.6481   32.1936   46.7571 H   0  0  0  0  0  0  0  0  0  0  0  0
   59.4790   32.2000   46.5710 C   0  0  0  0  0  0  0  0  0  0  0  0
   59.3320   30.7770   46.3900 N   0  0  0  0  0  0  0  0  0  0  0  0
   59.4090   30.1700   47.2380 H   0  0  0  0  0  0  0  0  0  0  0  0
   59.1310   30.1110   45.1000 C   0  0  1  0  0  0  0  0  0  0  0  0
   59.6894   30.6232   44.3026 H   0  0  0  0  0  0  0  0  0  0  0  0
   59.6470   28.6980   45.1900 C   0  0  0  0  0  0  0  0  0  0  0  0
   60.8690   28.4780   44.9660 O   0  0  0  0  0  0  0  0  0  0  0  0
   58.7610   27.5860   45.6010 C   0  0  0  0  0  0  0  0  0  0  0  0
   59.3040   26.3570   46.0180 C   0  0  0  0  0  0  0  0  0  0  0  0
   60.3952   26.2188   46.0339 H   0  0  0  0  0  0  0  0  0  0  0  0
   58.4660   25.3110   46.4120 C   0  0  0  0  0  0  0  0  0  0  0  0
   58.8985   24.3539   46.7391 H   0  0  0  0  0  0  0  0  0  0  0  0
   57.0810   25.4790   46.3910 C   0  0  0  0  0  0  0  0  0  0  0  0
   56.4231   24.6553   46.7050 H   0  0  0  0  0  0  0  0  0  0  0  0
   56.5290   26.6910   45.9720 C   0  0  0  0  0  0  0  0  0  0  0  0
   55.4364   26.8167   45.9536 H   0  0  0  0  0  0  0  0  0  0  0  0
   57.3620   27.7530   45.5730 C   0  0  0  0  0  0  0  0  0  0  0  0
   56.7800   29.0250   45.0890 C   0  0  0  0  0  0  0  0  0  0  0  0
   55.5300   29.1410   44.9630 O   0  0  0  0  0  0  0  0  0  0  0  0
   57.6560   30.1610   44.7370 C   0  0  0  0  0  0  0  0  0  0  0  0
   57.1010   31.2330   44.2390 N   0  0  0  0  0  0  0  0  0  0  0  0
   57.7610   32.2990   43.4840 C   0  0  0  0  0  0  0  0  0  0  0  0
   58.8088   32.3779   43.8095 H   0  0  0  0  0  0  0  0  0  0  0  0
   57.2337   33.2462   43.6706 H   0  0  0  0  0  0  0  0  0  0  0  0
   57.7210   31.9980   41.9890 C   0  0  0  0  0  0  0  0  0  0  0  0
   57.5775   30.9182   41.8361 H   0  0  0  0  0  0  0  0  0  0  0  0
   56.8880   32.5477   41.5265 H   0  0  0  0  0  0  0  0  0  0  0  0
   58.6686   32.3111   41.5265 H   0  0  0  0  0  0  0  0  0  0  0  0
   58.3280   33.0050   46.5830 C   0  0  0  0  0  0  0  0  0  0  0  0
   57.3382   32.5426   46.4552 H   0  0  0  0  0  0  0  0  0  0  0  0
   58.4290   34.3890   46.7560 C   0  0  0  0  0  0  0  0  0  0  0  0
   57.5210   35.0098   46.7590 H   0  0  0  0  0  0  0  0  0  0  0  0
  1  2  1  0
  2  3  2  0
  3  4  1  0
  3  5  1  0
  5  6  1  0
  5  7  2  0
  7  8  1  0
  8  9  1  0
  8 10  1  0
 10 11  1  6
 10 12  1  0
 12 13  2  0
 12 14  1  0
 14 15  2  0
 15 16  1  0
 15 17  1  0
 17 18  1  0
 17 19  2  0
 19 20  1  0
 19 21  1  0
 21 22  1  0
 21 23  2  0
 23 24  1  0
 24 25  2  0
 24 26  1  0
 26 27  2  0
 27 28  1  0
 28 29  1  0
 28 30  1  0
 28 31  1  0
 31 32  1  0
 31 33  1  0
 31 34  1  0
  7 35  1  0
 35 36  1  0
 35 37  2  0
 37 38  1  0
 37  2  1  0
 26 10  1  0
 23 14  1  0
M  END
>  <UniqueID>  (3) 
3

>  <SMILES>  (3) 
CC/N=C1/C(=O)c2ccccc2C(=O)[C@@H]1Nc1ccccc1

>  <Energy>  (3) 
42.84896430686704

>  <Genealogy>  (3) 
CCN=C1C(=O)c2ccccc2C(=O)[C@@H]1Nc1ccccc1 (chirality)
CC/N=C1/C(=O)c2ccccc2C(=O)[C@@H]1Nc1ccccc1 (cis-trans isomerization)
CC/N=C1/C(=O)c2ccccc2C(=O)[C@@H]1Nc1ccccc1 (3D coordinates assigned)
CC/N=C1/C(=O)c2ccccc2C(=O)[C@@H]1Nc1ccccc1 (nonaromatic ring conformer: 42.84896430686704 kcal/mol)

>  <smiles>  (3) 
CCN=C1C(=O)c2ccccc2C(=O)C1Nc1ccccc1

>  <score_type>  (3) 
oracle

>  <origin>  (3) 
adg

>  <m_score__min__energy>  (3) 
-7.8700000000000001

>  <m_primary>  (3) 
energy

$$$$
3:0
     RDKit          3D

 31 33  0  0  0  0  0  0  0  0999 V2000
   57.6910   30.7120   51.8360 C   0  0  0  0  0  0  0  0  0  0  0  0
   56.2700   30.5370   52.3070 C   0  0  0  0  0  0  0  0  0  0  0  0
   55.2670   31.1730   51.6330 N   0  0  0  0  0  0  0  0  0  0  0  0
   53.9630   31.0710   52.0140 C   0  0  0  0  0  0  0  0  0  0  0  0
   52.9620   31.7520   51.2990 C   0  0  0  0  0  0  0  0  0  0  0  0
   51.6240   31.6530   51.6890 C   0  0  0  0  0  0  0  0  0  0  0  0
   50.6410   32.3290   50.9770 O   0  0  0  0  0  0  0  0  0  0  0  0
   51.2720   30.8730   52.7930 C   0  0  0  0  0  0  0  0  0  0  0  0
   52.2560   30.1890   53.5120 C   0  0  0  0  0  0  0  0  0  0  0  0
   53.6090   30.2810   53.1300 C   0  0  0  0  0  0  0  0  0  0  0  0
   54.6200   29.6000   53.8300 C   0  0  0  0  0  0  0  0  0  0  0  0
   54.3280   28.8730   54.8210 O   0  0  0  0  0  0  0  0  0  0  0  0
   55.9610   29.7150   53.4160 C   0  0  0  0  0  0  0  0  0  0  0  0
   57.0210   28.9810   54.1490 C   0  0  0  0  0  0  0  0  0  0  0  0
   57.2340   27.6150   53.9030 C   0  0  0  0  0  0  0  0  0  0  0  0
   58.2350   26.9250   54.5920 C   0  0  0  0  0  0  0  0  0  0  0  0
   59.0320   27.5940   55.5250 C   0  0  0  0  0  0  0  0  0  0  0  0
   58.8300   28.9550   55.7700 C   0  0  0  0  0  0  0  0  0  0  0  0
   57.8300   29.6490   55.0830 C   0  0  0  0  0  0  0  0  0  0  0  0
   58.3583   30.7942   52.7066 H   0  0  0  0  0  0  0  0  0  0  0  0
   57.9856   29.8434   51.2288 H   0  0  0  0  0  0  0  0  0  0  0  0
   57.7661   31.6262   51.2288 H   0  0  0  0  0  0  0  0  0  0  0  0
   55.5080   31.7610   50.8030 H   0  0  0  0  0  0  0  0  0  0  0  0
   53.2338   32.3661   50.4278 H   0  0  0  0  0  0  0  0  0  0  0  0
   50.2176   30.7969   53.0972 H   0  0  0  0  0  0  0  0  0  0  0  0
   51.9728   29.5759   54.3803 H   0  0  0  0  0  0  0  0  0  0  0  0
   56.6113   27.0867   53.1660 H   0  0  0  0  0  0  0  0  0  0  0  0
   58.3959   25.8539   54.3998 H   0  0  0  0  0  0  0  0  0  0  0  0
   59.8189   27.0489   56.0669 H   0  0  0  0  0  0  0  0  0  0  0  0
   59.4585   29.4805   56.5041 H   0  0  0  0  0  0  0  0  0  0  0  0
   57.6761   30.7213   55.2743 H   0  0  0  0  0  0  0  0  0  0  0  0
  1  2  1  0
  2  3  1  0
  3  4  1  0
  4  5  2  0
  5  6  1  0
  6  7  1  0
  6  8  2  0
  8  9  1  0
  9 10  2  0
 10 11  1  0
 11 12  2  0
 11 13  1  0
 13 14  1  0
 14 15  2  0
 15 16  1  0
 16 17  2  0
 17 18  1  0
 18 19  2  0
 13  2  2  0
 19 14  1  0
 10  4  1  0
  1 20  1  0
  1 21  1  0
  1 22  1  0
  3 23  1  0
  5 24  1  0
  8 25  1  0
  9 26  1  0
 15 27  1  0
 16 28  1  0
 17 29  1  0
 18 30  1  0
 19 31  1  0
M  CHG  1   7  -1
M  END
>  <UniqueID>  (4) 
4

>  <SMILES>  (4) 
Cc1[nH]c2cc([O-])ccc2c(=O)c1-c1ccccc1

>  <Energy>  (4) 
46.96135771934454

>  <Genealogy>  (4) 
Cc1[nH]c2cc([O-])ccc2c(=O)c1-c1ccccc1 (protonated)
Cc1[nH]c2cc([O-])ccc2c(=O)c1-c1ccccc1 (3D coordinates assigned)
Cc1[nH]c2cc([O-])ccc2c(=O)c1-c1ccccc1 (optimized conformer: 46.96135771934454 kcal/mol)

>  <smiles>  (4) 
Cc1[nH]c2cc(O)ccc2c(=O)c1-c1ccccc1

>  <score_type>  (4) 
oracle

>  <origin>  (4) 
adg

>  <m_score__min__energy>  (4) 
-9.5399999999999991

>  <m_primary>  (4) 
energy

$$$$
4:0
     RDKit          3D

 31 32  0  0  0  0  0  0  0  0999 V2000
   58.2430   28.2240   47.3720 C   0  0  0  0  0  0  0  0  0  0  0  0
   58.1500   26.9390   46.5960 C   0  0  0  0  0  0  0  0  0  0  0  0
   59.1640   25.9720   46.7180 C   0  0  0  0  0  0  0  0  0  0  0  0
   59.0900   24.7770   46.0010 C   0  0  0  0  0  0  0  0  0  0  0  0
   58.0110   24.5390   45.1490 C   0  0  0  0  0  0  0  0  0  0  0  0
   56.9960   25.4890   45.0200 C   0  0  0  0  0  0  0  0  0  0  0  0
   57.0440   26.6880   45.7570 C   0  0  0  0  0  0  0  0  0  0  0  0
   56.0220   27.6890   45.6220 N   0  0  0  0  0  0  0  0  0  0  0  0
   56.1180   28.9130   44.8820 C   0  0  0  0  0  0  0  0  0  0  0  0
   55.1460   29.7120   44.8260 O   0  0  0  0  0  0  0  0  0  0  0  0
   57.3940   29.2450   44.1760 C   0  0  0  0  0  0  0  0  0  0  0  0
   57.7890   30.6630   44.4760 C   0  0  0  0  0  0  0  0  0  0  0  0
   57.7590   31.6350   43.4640 C   0  0  0  0  0  0  0  0  0  0  0  0
   58.1660   32.9450   43.7330 C   0  0  0  0  0  0  0  0  0  0  0  0
   58.6160   33.2960   45.0100 C   0  0  0  0  0  0  0  0  0  0  0  0
   59.1210   34.9540   45.3060 Cl  0  0  0  0  0  0  0  0  0  0  0  0
   58.6630   32.3260   46.0250 C   0  0  0  0  0  0  0  0  0  0  0  0
   59.2840   32.7480   47.7880 Br  0  0  0  0  0  0  0  0  0  0  0  0
   58.2540   31.0150   45.7530 C   0  0  0  0  0  0  0  0  0  0  0  0
   58.2270   28.0036   48.4496 H   0  0  0  0  0  0  0  0  0  0  0  0
   59.1808   28.7393   47.1170 H   0  0  0  0  0  0  0  0  0  0  0  0
   57.3892   28.8690   47.1170 H   0  0  0  0  0  0  0  0  0  0  0  0
   60.0205   26.1587   47.3825 H   0  0  0  0  0  0  0  0  0  0  0  0
   59.8830   24.0221   46.1076 H   0  0  0  0  0  0  0  0  0  0  0  0
   57.9599   23.6005   44.5775 H   0  0  0  0  0  0  0  0  0  0  0  0
   56.1536   25.2997   44.3384 H   0  0  0  0  0  0  0  0  0  0  0  0
   58.1880   28.5648   44.5180 H   0  0  0  0  0  0  0  0  0  0  0  0
   57.2488   29.1307   43.0916 H   0  0  0  0  0  0  0  0  0  0  0  0
   57.4138   31.3649   42.4551 H   0  0  0  0  0  0  0  0  0  0  0  0
   58.1322   33.7032   42.9368 H   0  0  0  0  0  0  0  0  0  0  0  0
   58.2974   30.2544   46.5465 H   0  0  0  0  0  0  0  0  0  0  0  0
  1  2  1  0
  2  3  2  0
  3  4  1  0
  4  5  2  0
  5  6  1  0
  6  7  2  0
  7  8  1  0
  8  9  1  0
  9 10  2  0
  9 11  1  0
 11 12  1  0
 12 13  2  0
 13 14  1  0
 14 15  2  0
 15 16  1  0
 15 17  1  0
 17 18  1  0
 17 19  2  0
  7  2  1  0
 19 12  1  0
  1 20  1  0
  1 21  1  0
  1 22  1  0
  3 23  1  0
  4 24  1  0
  5 25  1  0
  6 26  1  0
 11 27  1  0
 11 28  1  0
 13 29  1  0
 14 30  1  0
 19 31  1  0
M  CHG  1   8  -1
M  END
>  <UniqueID>  (5) 
5

>  <SMILES>  (5) 
Cc1ccccc1[N-]C(=O)Cc1ccc(Cl)c(Br)c1

>  <Energy>  (5) 
33.70994729580471

>  <Genealogy>  (5) 
Cc1ccccc1[N-]C(=O)Cc1ccc(Cl)c(Br)c1 (protonated)
Cc1ccccc1[N-]C(=O)Cc1ccc(Cl)c(Br)c1 (3D coordinates assigned)
Cc1ccccc1[N-]C(=O)Cc1ccc(Cl)c(Br)c1 (optimized conformer: 33.70994729580471 kcal/mol)

>  <smiles>  (5) 
Cc1ccccc1NC(=O)Cc1ccc(Cl)c(Br)c1

>  <score_type>  (5) 
oracle

>  <origin>  (5) 
adg

>  <m_score__min__energy>  (5) 
-9.7100000000000009

>  <m_primary>  (5) 
energy

$$$$
5:0
     RDKit          3D

 35 38  0  0  0  0  0  0  0  0999 V2000
   57.5760   27.3270   45.7580 N   0  0  0  0  0  0  0  0  0  0  0  0
   57.3990   28.5610   45.4660 C   0  0  0  0  0  0  0  0  0  0  0  0
   56.4000   28.9540   44.6850 N   0  0  0  0  0  0  0  0  0  0  0  0
   56.2390   30.2550   44.3980 C   0  0  0  0  0  0  0  0  0  0  0  0
   57.0470   31.2260   44.8600 N   0  0  0  0  0  0  0  0  0  0  0  0
   58.0700   30.8510   45.6560 C   0  0  0  0  0  0  0  0  0  0  0  0
   58.2510   29.5210   45.9620 C   0  0  0  0  0  0  0  0  0  0  0  0
   59.3140   29.4430   46.7490 N   0  0  0  0  0  0  0  0  0  0  0  0
   59.8380   30.6670   46.9710 C   0  0  0  0  0  0  0  0  0  0  0  0
   61.0110   30.9560   47.7900 C   0  0  0  0  0  0  0  0  0  0  0  0
   62.0730   31.5920   47.1550 C   0  0  0  0  0  0  0  0  0  0  0  0
   63.2390   31.9250   47.7950 C   0  0  0  0  0  0  0  0  0  0  0  0
   63.3280   31.5970   49.1410 C   0  0  0  0  0  0  0  0  0  0  0  0
   62.2860   30.9640   49.7910 C   0  0  0  0  0  0  0  0  0  0  0  0
   61.1020   30.6300   49.1240 C   0  0  0  0  0  0  0  0  0  0  0  0
   59.0550   31.5210   46.2870 N   0  0  0  0  0  0  0  0  0  0  0  0
   59.2190   32.9320   46.2220 C   0  0  0  0  0  0  0  0  0  0  0  0
   59.1200   33.6530   45.0490 C   0  0  0  0  0  0  0  0  0  0  0  0
   59.3040   35.0230   45.1380 C   0  0  0  0  0  0  0  0  0  0  0  0
   59.5720   35.6750   46.3050 C   0  0  0  0  0  0  0  0  0  0  0  0
   59.6700   34.9560   47.4750 C   0  0  0  0  0  0  0  0  0  0  0  0
   59.4910   33.5850   47.4140 C   0  0  0  0  0  0  0  0  0  0  0  0
   58.3730   27.0150   46.3720 H   0  0  0  0  0  0  0  0  0  0  0  0
   55.7340   28.2630   44.2890 H   0  0  0  0  0  0  0  0  0  0  0  0
   55.3993   30.5434   43.7486 H   0  0  0  0  0  0  0  0  0  0  0  0
   61.9724   31.8397   46.0880 H   0  0  0  0  0  0  0  0  0  0  0  0
   64.0634   32.4274   47.2678 H   0  0  0  0  0  0  0  0  0  0  0  0
   64.2429   31.8451   49.6990 H   0  0  0  0  0  0  0  0  0  0  0  0
   62.3895   30.7168   50.8578 H   0  0  0  0  0  0  0  0  0  0  0  0
   60.2754   30.1260   49.6461 H   0  0  0  0  0  0  0  0  0  0  0  0
   58.9050   33.1624   44.0882 H   0  0  0  0  0  0  0  0  0  0  0  0
   59.2298   35.6180   44.2158 H   0  0  0  0  0  0  0  0  0  0  0  0
   59.7088   36.7664   46.3117 H   0  0  0  0  0  0  0  0  0  0  0  0
   59.8844   35.4567   48.4307 H   0  0  0  0  0  0  0  0  0  0  0  0
   59.5669   32.9956   48.3397 H   0  0  0  0  0  0  0  0  0  0  0  0
  1  2  2  3
  2  3  1  0
  3  4  1  0
  4  5  2  0
  5  6  1  0
  6  7  2  0
  7  8  1  0
  8  9  2  0
  9 10  1  0
 10 11  2  0
 11 12  1  0
 12 13  2  0
 13 14  1  0
 14 15  2  0
  9 16  1  0
 16 17  1  0
 17 18  2  0
 18 19  1  0
 19 20  2  0
 20 21  1  0
 21 22  2  0
  7  2  1  0
 15 10  1  0
 22 17  1  0
 16  6  1  0
  1 23  1  0
  3 24  1  0
  4 25  1  0
 11 26  1  0
 12 27  1  0
 13 28  1  0
 14 29  1  0
 15 30  1  0
 18 31  1  0
 19 32  1  0
 20 33  1  0
 21 34  1  0
 22 35  1  0
M  END
>  <smiles>  (6) 
N=c1[nH]cnc2c1nc(-c1ccccc1)n2-c1ccccc1

>  <score_type>  (6) 
oracle

>  <origin>  (6) 
adg

>  <m_score__min__energy>  (6) 
-7.2300000000000004

>  <m_primary>  (6) 
energy

$$$$
6:0
     RDKit          3D

 27 29  0  0  0  0  0  0  0  0999 V2000
   58.1370   27.0510   46.1830 C   0  0  0  0  0  0  0  0  0  0  0  0
   59.2290   27.7910   45.4190 C   0  0  0  0  0  0  0  0  0  0  0  0
   58.8310   29.1890   45.1770 N   0  0  0  0  0  0  0  0  0  0  0  0
   59.3250   30.2170   45.9510 C   0  0  0  0  0  0  0  0  0  0  0  0
   60.1530   29.9700   46.8730 O   0  0  0  0  0  0  0  0  0  0  0  0
   58.9110   31.5560   45.7230 C   0  0  0  0  0  0  0  0  0  0  0  0
   59.4020   32.6320   46.4870 C   0  0  0  0  0  0  0  0  0  0  0  0
   58.9640   33.9340   46.2300 C   0  0  0  0  0  0  0  0  0  0  0  0
   58.0360   34.1800   45.2160 C   0  0  0  0  0  0  0  0  0  0  0  0
   57.5360   33.1240   44.4490 C   0  0  0  0  0  0  0  0  0  0  0  0
   57.9680   31.8110   44.6970 C   0  0  0  0  0  0  0  0  0  0  0  0
   57.5120   30.7480   43.9860 N   0  0  0  0  0  0  0  0  0  0  0  0
   56.6250   30.6330   42.9800 C   0  0  0  0  0  0  0  0  0  0  0  0
   56.5100   29.3370   42.6220 N   0  0  0  0  0  0  0  0  0  0  0  0
   57.3130   28.6080   43.3880 N   0  0  0  0  0  0  0  0  0  0  0  0
   57.9160   29.4910   44.2110 C   0  0  0  0  0  0  0  0  0  0  0  0
   58.3046   27.1646   47.2642 H   0  0  0  0  0  0  0  0  0  0  0  0
   57.1554   27.4707   45.9180 H   0  0  0  0  0  0  0  0  0  0  0  0
   58.1630   25.9837   45.9180 H   0  0  0  0  0  0  0  0  0  0  0  0
   60.1576   27.7756   46.0085 H   0  0  0  0  0  0  0  0  0  0  0  0
   59.3868   27.2928   44.4511 H   0  0  0  0  0  0  0  0  0  0  0  0
   60.1324   32.4473   47.2885 H   0  0  0  0  0  0  0  0  0  0  0  0
   59.3526   34.7700   46.8301 H   0  0  0  0  0  0  0  0  0  0  0  0
   57.6974   35.2081   45.0203 H   0  0  0  0  0  0  0  0  0  0  0  0
   56.8045   33.3213   43.6515 H   0  0  0  0  0  0  0  0  0  0  0  0
   56.0772   31.4685   42.5197 H   0  0  0  0  0  0  0  0  0  0  0  0
   55.8950   28.9530   41.8730 H   0  0  0  0  0  0  0  0  0  0  0  0
  1  2  1  0
  2  3  1  0
  3  4  1  0
  4  5  2  0
  4  6  1  0
  6  7  2  0
  7  8  1  0
  8  9  2  0
  9 10  1  0
 10 11  2  0
 11 12  1  0
 12 13  1  0
 13 14  2  0
 14 15  1  0
 15 16  2  0
 16  3  1  0
 11  6  1  0
 16 12  1  0
  1 17  1  0
  1 18  1  0
  1 19  1  0
  2 20  1  0
  2 21  1  0
  7 22  1  0
  8 23  1  0
  9 24  1  0
 10 25  1  0
 13 26  1  0
 14 27  1  0
M  CHG  1  14   1
M  END
>  <UniqueID>  (7) 
6

>  <SMILES>  (7) 
CCn1c(=O)c2ccccc2n2c[nH+]nc12

>  <Energy>  (7) 
75.6359543199637

>  <Genealogy>  (7) 
CCn1c(=O)c2ccccc2n2c[nH+]nc12 (protonated)
CCn1c(=O)c2ccccc2n2c[nH+]nc12 (3D coordinates assigned)
CCn1c(=O)c2ccccc2n2c[nH+]nc12 (optimized conformer: 75.6359543199637 kcal/mol)

>  <smiles>  (7) 
CCn1c(=O)c2ccccc2n2cnnc12

>  <score_type>  (7) 
oracle

>  <origin>  (7) 
adg

>  <m_score__min__energy>  (7) 
-4.6500000000000004

>  <m_primary>  (7) 
energy

$$$$
7:0
     RDKit          3D

 51 54  0  0  0  0  0  0  0  0999 V2000
   59.6510   27.7690   46.2350 C   0  0  0  0  0  0  0  0  0  0  0  0
   58.4570   26.8540   46.3170 C   0  0  0  0  0  0  0  0  0  0  0  0
   58.6250   25.5880   46.9100 C   0  0  0  0  0  0  0  0  0  0  0  0
   57.5460   24.7130   47.0440 C   0  0  0  0  0  0  0  0  0  0  0  0
   57.7250   23.5000   47.6230 F   0  0  0  0  0  0  0  0  0  0  0  0
   56.2850   25.0860   46.5870 C   0  0  0  0  0  0  0  0  0  0  0  0
   56.0970   26.3320   45.9860 C   0  0  0  0  0  0  0  0  0  0  0  0
   57.1720   27.2280   45.8290 C   0  0  0  0  0  0  0  0  0  0  0  0
   56.9000   28.5260   45.1610 C   0  0  0  0  0  0  0  0  0  0  0  0
   57.8510   29.3760   44.7180 N   0  0  0  0  0  0  0  0  0  0  0  0
   57.1430   30.3920   44.1920 C   0  0  0  0  0  0  0  0  0  0  0  0
   57.7580   31.6260   43.5850 C   0  0  0  0  0  0  0  0  0  0  0  0
   58.3850   32.5160   44.5850 N   0  0  0  0  0  0  0  0  0  0  0  0
   57.4480   33.5280   45.1220 C   0  0  0  0  0  0  0  0  0  0  0  0
   58.0440   34.2080   46.3570 C   0  0  0  0  0  0  0  0  0  0  0  0
   58.2610   33.2430   47.4650 N   0  0  0  0  0  0  0  0  0  0  0  0
   59.3230   33.7040   48.3850 C   0  0  0  0  0  0  0  0  0  0  0  0
   60.6750   33.2130   47.9350 C   0  0  0  0  0  0  0  0  0  0  0  0
   61.1950   32.0140   48.4490 C   0  0  0  0  0  0  0  0  0  0  0  0
   62.4590   31.5670   48.0530 C   0  0  0  0  0  0  0  0  0  0  0  0
   63.2150   32.3150   47.1460 C   0  0  0  0  0  0  0  0  0  0  0  0
   62.7070   33.5120   46.6350 C   0  0  0  0  0  0  0  0  0  0  0  0
   61.4430   33.9640   47.0280 C   0  0  0  0  0  0  0  0  0  0  0  0
   58.5080   31.8540   47.0010 C   0  0  0  0  0  0  0  0  0  0  0  0
   59.1780   31.8070   45.6180 C   0  0  0  0  0  0  0  0  0  0  0  0
   55.8000   30.1290   44.3210 C   0  0  0  0  0  0  0  0  0  0  0  0
   55.6830   28.9710   44.9200 O   0  0  0  0  0  0  0  0  0  0  0  0
   59.9864   28.0260   47.2506 H   0  0  0  0  0  0  0  0  0  0  0  0
   60.4655   27.2616   45.6973 H   0  0  0  0  0  0  0  0  0  0  0  0
   59.3729   28.6874   45.6973 H   0  0  0  0  0  0  0  0  0  0  0  0
   59.6186   25.2850   47.2720 H   0  0  0  0  0  0  0  0  0  0  0  0
   55.4347   24.3973   46.6997 H   0  0  0  0  0  0  0  0  0  0  0  0
   55.0960   26.6176   45.6304 H   0  0  0  0  0  0  0  0  0  0  0  0
   58.5273   31.3144   42.8631 H   0  0  0  0  0  0  0  0  0  0  0  0
   56.9469   32.1934   43.1052 H   0  0  0  0  0  0  0  0  0  0  0  0
   57.2529   34.2866   44.3497 H   0  0  0  0  0  0  0  0  0  0  0  0
   56.5106   33.0287   45.4082 H   0  0  0  0  0  0  0  0  0  0  0  0
   59.0089   34.6602   46.0841 H   0  0  0  0  0  0  0  0  0  0  0  0
   57.3337   34.9732   46.7032 H   0  0  0  0  0  0  0  0  0  0  0  0
   59.3282   34.8038   48.4068 H   0  0  0  0  0  0  0  0  0  0  0  0
   59.1186   33.3008   49.3878 H   0  0  0  0  0  0  0  0  0  0  0  0
   60.6053   31.4241   49.1662 H   0  0  0  0  0  0  0  0  0  0  0  0
   62.8593   30.6250   48.4559 H   0  0  0  0  0  0  0  0  0  0  0  0
   64.2091   31.9615   46.8348 H   0  0  0  0  0  0  0  0  0  0  0  0
   63.3027   34.1005   45.9217 H   0  0  0  0  0  0  0  0  0  0  0  0
   61.0490   34.9093   46.6265 H   0  0  0  0  0  0  0  0  0  0  0  0
   59.1624   31.3502   47.7276 H   0  0  0  0  0  0  0  0  0  0  0  0
   57.5336   31.3504   46.9182 H   0  0  0  0  0  0  0  0  0  0  0  0
   60.1692   32.2787   45.6888 H   0  0  0  0  0  0  0  0  0  0  0  0
   59.2562   30.7518   45.3173 H   0  0  0  0  0  0  0  0  0  0  0  0
   54.9751   30.7733   43.9829 H   0  0  0  0  0  0  0  0  0  0  0  0
  1  2  1  0
  2  3  2  0
  3  4  1  0
  4  5  1  0
  4  6  2  0
  6  7  1  0
  7  8  2  0
  8  9  1  0
  9 10  2  0
 10 11  1  0
 11 12  1  0
 12 13  1  0
 13 14  1  0
 14 15  1  0
 15 16  1  0
 16 17  1  0
 17 18  1  0
 18 19  2  0
 19 20  1  0
 20 21  2  0
 21 22  1  0
 22 23  2  0
 16 24  1  0
 24 25  1  0
 11 26  2  0
 26 27  1  0
  8  2  1  0
 27  9  1  0
 25 13  1  0
 23 18  1  0
  1 28  1  0
  1 29  1  0
  1 30  1  0
  3 31  1  0
  6 32  1  0
  7 33  1  0
 12 34  1  0
 12 35  1  0
 14 36  1  0
 14 37  1  0
 15 38  1  0
 15 39  1  0
 17 40  1  0
 17 41  1  0
 19 42  1  0
 20 43  1  0
 21 44  1  0
 22 45  1  0
 23 46  1  0
 24 47  1  0
 24 48  1  0
 25 49  1  0
 25 50  1  0
 26 51  1  0
M  END
>  <UniqueID>  (8) 
7

>  <SMILES>  (8) 
Cc1cc(F)ccc1-c1nc(CN2CCN(Cc3ccccc3)CC2)co1

>  <Energy>  (8) 
100.29418105414072

>  <Genealogy>  (8) 
Cc1cc(F)ccc1-c1nc(CN2CCN(Cc3ccccc3)CC2)co1 (3D coordinates assigned)
Cc1cc(F)ccc1-c1nc(CN2CCN(Cc3ccccc3)CC2)co1 (nonaromatic ring conformer: 100.29418105414072 kcal/mol)

>  <smiles>  (8) 
Cc1cc(F)ccc1-c1nc(CN2CCN(Cc3ccccc3)CC2)co1

>  <score_type>  (8) 
oracle

>  <origin>  (8) 
adg

>  <m_score__min__energy>  (8) 
-9.0500000000000007

>  <m_primary>  (8) 
energy

$$$$
8:0
     RDKit          3D

 29 31  0  0  1  0  0  0  0  0999 V2000
   59.2990   34.9550   48.9630 O   0  0  0  0  0  0  0  0  0  0  0  0
   59.5830   34.2600   48.0210 C   0  0  0  0  0  0  0  0  0  0  0  0
   60.1230   34.6950   46.6780 C   0  0  1  0  0  0  0  0  0  0  0  0
   61.0980   33.5760   46.3600 C   0  0  0  0  0  0  0  0  0  0  0  0
   60.8800   32.4790   47.3670 C   0  0  0  0  0  0  0  0  0  0  0  0
   59.4880   32.7590   47.8870 C   0  0  2  0  0  0  0  0  0  0  0  0
   58.4500   32.4650   46.8620 C   0  0  0  0  0  0  0  0  0  0  0  0
   58.6030   33.1720   45.6290 N   0  0  0  0  0  0  0  0  0  0  0  0
   57.4190   32.9110   44.8720 C   0  0  0  0  0  0  0  0  0  0  0  0
   57.2300   31.4780   44.4980 C   0  0  0  0  0  0  0  0  0  0  0  0
   58.2870   30.6790   44.1150 C   0  0  0  0  0  0  0  0  0  0  0  0
   57.4560   29.0300   43.7830 S   0  0  0  0  0  0  0  0  0  0  0  0
   55.7990   29.8100   44.2530 C   0  0  0  0  0  0  0  0  0  0  0  0
   56.0740   30.8510   44.5000 N   0  0  0  0  0  0  0  0  0  0  0  0
   58.9400   34.5530   45.7360 C   0  0  0  0  0  0  0  0  0  0  0  0
   60.5667   35.7001   46.6251 H   0  0  0  0  0  0  0  0  0  0  0  0
   62.1308   33.9481   46.4291 H   0  0  0  0  0  0  0  0  0  0  0  0
   60.9335   33.2002   45.3393 H   0  0  0  0  0  0  0  0  0  0  0  0
   61.6222   32.5340   48.1771 H   0  0  0  0  0  0  0  0  0  0  0  0
   60.9856   31.4719   46.9374 H   0  0  0  0  0  0  0  0  0  0  0  0
   59.2169   32.1795   48.7818 H   0  0  0  0  0  0  0  0  0  0  0  0
   57.4687   32.7252   47.2854 H   0  0  0  0  0  0  0  0  0  0  0  0
   58.5507   31.3969   46.6192 H   0  0  0  0  0  0  0  0  0  0  0  0
   56.5516   33.2280   45.4696 H   0  0  0  0  0  0  0  0  0  0  0  0
   57.5184   33.4709   43.9304 H   0  0  0  0  0  0  0  0  0  0  0  0
   59.3512   30.9427   44.0264 H   0  0  0  0  0  0  0  0  0  0  0  0
   54.8040   29.3415   44.2751 H   0  0  0  0  0  0  0  0  0  0  0  0
   58.0812   35.1137   46.1335 H   0  0  0  0  0  0  0  0  0  0  0  0
   59.2006   34.9527   44.7449 H   0  0  0  0  0  0  0  0  0  0  0  0
  1  2  2  0
  2  3  1  0
  3  4  1  0
  4  5  1  0
  5  6  1  0
  6  7  1  0
  7  8  1  0
  8  9  1  0
  9 10  1  0
 10 11  2  0
 11 12  1  0
 12 13  1  0
 13 14  2  0
  8 15  1  0
  6  2  1  0
 14 10  1  0
 15  3  1  0
  3 16  1  1
  4 17  1  0
  4 18  1  0
  5 19  1  0
  5 20  1  0
  6 21  1  1
  7 22  1  0
  7 23  1  0
  9 24  1  0
  9 25  1  0
 11 26  1  0
 13 27  1  0
 15 28  1  0
 15 29  1  0
M  END
>  <smiles>  (9) 
O=C1C2CCC1CN(Cc1cscn1)C2

>  <score_type>  (9) 
oracle

>  <origin>  (9) 
adg

>  <m_score__min__energy>  (9) 
-6.29

>  <m_primary>  (9) 
energy

$$$$
9:0
     RDKit          3D

 55 59  0  0  0  0  0  0  0  0999 V2000
   57.4300   25.2110   44.0450 C   0  0  0  0  0  0  0  0  0  0  0  0
   56.8820   25.8720   45.3050 C   0  0  0  0  0  0  0  0  0  0  0  0
   57.8260   26.8670   45.8030 N   0  0  0  0  0  0  0  0  0  0  0  0
   58.7890   27.4770   45.0710 C   0  0  0  0  0  0  0  0  0  0  0  0
   59.3810   28.4110   45.8860 C   0  0  0  0  0  0  0  0  0  0  0  0
   60.3850   29.3430   45.6580 C   0  0  0  0  0  0  0  0  0  0  0  0
   60.7060   30.2210   46.7100 C   0  0  0  0  0  0  0  0  0  0  0  0
   60.0280   30.1520   47.9530 C   0  0  0  0  0  0  0  0  0  0  0  0
   60.3760   31.0890   48.9390 O   0  0  0  0  0  0  0  0  0  0  0  0
   59.4720   31.8680   49.7240 C   0  0  0  0  0  0  0  0  0  0  0  0
   58.4350   32.5890   48.8490 C   0  0  0  0  0  0  0  0  0  0  0  0
   59.0160   33.1520   47.6170 N   0  0  0  0  0  0  0  0  0  0  0  0
   59.8840   34.3380   47.7120 C   0  0  0  0  0  0  0  0  0  0  0  0
   61.3040   33.9570   48.0320 C   0  0  0  0  0  0  0  0  0  0  0  0
   61.8280   34.1710   49.3190 C   0  0  0  0  0  0  0  0  0  0  0  0
   63.1330   33.7750   49.6240 C   0  0  0  0  0  0  0  0  0  0  0  0
   63.9250   33.1590   48.6520 C   0  0  0  0  0  0  0  0  0  0  0  0
   65.1900   32.7780   48.9490 F   0  0  0  0  0  0  0  0  0  0  0  0
   63.4160   32.9510   47.3660 C   0  0  0  0  0  0  0  0  0  0  0  0
   62.1120   33.3520   47.0550 C   0  0  0  0  0  0  0  0  0  0  0  0
   58.5090   32.7320   46.3330 C   0  0  0  0  0  0  0  0  0  0  0  0
   57.7810   31.5990   46.1590 N   0  0  0  0  0  0  0  0  0  0  0  0
   57.4850   31.4040   44.8490 C   0  0  0  0  0  0  0  0  0  0  0  0
   56.7570   30.3200   44.3590 C   0  0  0  0  0  0  0  0  0  0  0  0
   56.5340   30.2280   42.9730 C   0  0  0  0  0  0  0  0  0  0  0  0
   57.0390   31.2130   42.1010 C   0  0  0  0  0  0  0  0  0  0  0  0
   57.7670   32.3000   42.6070 C   0  0  0  0  0  0  0  0  0  0  0  0
   57.9730   32.3680   43.9820 C   0  0  0  0  0  0  0  0  0  0  0  0
   58.8100   33.5250   44.8610 S   0  0  0  0  0  0  0  0  0  0  0  0
   59.0370   29.1590   48.1490 C   0  0  0  0  0  0  0  0  0  0  0  0
   58.7310   28.3190   47.0840 C   0  0  0  0  0  0  0  0  0  0  0  0
   57.7740   27.3790   47.0280 N   0  0  0  0  0  0  0  0  0  0  0  0
   58.1088   24.3923   44.3260 H   0  0  0  0  0  0  0  0  0  0  0  0
   56.5969   24.8087   43.4500 H   0  0  0  0  0  0  0  0  0  0  0  0
   57.9797   25.9552   43.4500 H   0  0  0  0  0  0  0  0  0  0  0  0
   55.9259   26.3631   45.0713 H   0  0  0  0  0  0  0  0  0  0  0  0
   56.7302   25.1031   46.0769 H   0  0  0  0  0  0  0  0  0  0  0  0
   59.0477   27.2647   44.0231 H   0  0  0  0  0  0  0  0  0  0  0  0
   60.9092   29.3930   44.6922 H   0  0  0  0  0  0  0  0  0  0  0  0
   61.4957   30.9729   46.5654 H   0  0  0  0  0  0  0  0  0  0  0  0
   58.9462   31.2040   50.4259 H   0  0  0  0  0  0  0  0  0  0  0  0
   60.0547   32.6296   50.2629 H   0  0  0  0  0  0  0  0  0  0  0  0
   57.6503   31.8702   48.5704 H   0  0  0  0  0  0  0  0  0  0  0  0
   58.0325   33.4270   49.4370 H   0  0  0  0  0  0  0  0  0  0  0  0
   59.8652   34.8728   46.7509 H   0  0  0  0  0  0  0  0  0  0  0  0
   59.5069   34.9780   48.5233 H   0  0  0  0  0  0  0  0  0  0  0  0
   61.2078   34.6524   50.0895 H   0  0  0  0  0  0  0  0  0  0  0  0
   63.5376   33.9488   50.6320 H   0  0  0  0  0  0  0  0  0  0  0  0
   64.0413   32.4717   46.5984 H   0  0  0  0  0  0  0  0  0  0  0  0
   61.7177   33.1927   46.0405 H   0  0  0  0  0  0  0  0  0  0  0  0
   56.3651   29.5524   45.0425 H   0  0  0  0  0  0  0  0  0  0  0  0
   55.9613   29.3811   42.5671 H   0  0  0  0  0  0  0  0  0  0  0  0
   56.8615   31.1291   41.0187 H   0  0  0  0  0  0  0  0  0  0  0  0
   58.1638   33.0765   41.9364 H   0  0  0  0  0  0  0  0  0  0  0  0
   58.5239   29.0553   49.1165 H   0  0  0  0  0  0  0  0  0  0  0  0
  1  2  1  0
  2  3  1  0
  3  4  1  0
  4  5  2  0
  5  6  1  0
  6  7  2  0
  7  8  1  0
  8  9  1  0
  9 10  1  0
 10 11  1  0
 11 12  1  0
 12 13  1  0
 13 14  1  0
 14 15  2  0
 15 16  1  0
 16 17  2  0
 17 18  1  0
 17 19  1  0
 19 20  2  0
 12 21  1  0
 21 22  2  0
 22 23  1  0
 23 24  2  0
 24 25  1  0
 25 26  2  0
 26 27  1  0
 27 28  2  0
 28 29  1  0
  8 30  2  0
 30 31  1  0
 31 32  2  0
 32  3  1  0
 31  5  1  0
 20 14  1  0
 29 21  1  0
 28 23  1  0
  1 33  1  0
  1 34  1  0
  1 35  1  0
  2 36  1  0
  2 37  1  0
  4 38  1  0
  6 39  1  0
  7 40  1  0
 10 41  1  0
 10 42  1  0
 11 43  1  0
 11 44  1  0
 13 45  1  0
 13 46  1  0
 15 47  1  0
 16 48  1  0
 19 49  1  0
 20 50  1  0
 24 51  1  0
 25 52  1  0
 26 53  1  0
 27 54  1  0
 30 55  1  0
M  END
>  <UniqueID>  (10) 
8

>  <SMILES>  (10) 
CCn1cc2ccc(OCCN(Cc3ccc(F)cc3)c3nc4ccccc4s3)cc2n1

>  <Energy>  (10) 
122.68875339413135

>  <Genealogy>  (10) 
CCn1cc2ccc(OCCN(Cc3ccc(F)cc3)c3nc4ccccc4s3)cc2n1 (3D coordinates assigned)
CCn1cc2ccc(OCCN(Cc3ccc(F)cc3)c3nc4ccccc4s3)cc2n1 (optimized conformer: 122.68875339413135 kcal/mol)

>  <smiles>  (10) 
CCn1cc2ccc(OCCN(Cc3ccc(F)cc3)c3nc4ccccc4s3)cc2n1

>  <score_type>  (10) 
oracle

>  <origin>  (10) 
adg

>  <m_score__min__energy>  (10) 
-8.6099999999999994

>  <m_primary>  (10) 
energy

$$$$
10:0
     RDKit          3D

 39 41  0  0  0  0  0  0  0  0999 V2000
   60.8430   28.6340   44.5090 C   0  0  0  0  0  0  0  0  0  0  0  0
   60.3870   28.0920   45.8620 C   0  0  0  0  0  0  0  0  0  0  0  0
   59.0840   27.3360   45.7330 C   0  0  0  0  0  0  0  0  0  0  0  0
   59.1370   25.9320   45.7910 C   0  0  0  0  0  0  0  0  0  0  0  0
   57.9710   25.1630   45.7250 C   0  0  0  0  0  0  0  0  0  0  0  0
   58.0680   23.4060   45.7900 S   0  0  0  0  0  0  0  0  0  0  0  0
   57.0720   22.7120   44.4910 C   0  0  0  0  0  0  0  0  0  0  0  0
   59.4960   22.9700   45.6200 O   0  0  0  0  0  0  0  0  0  0  0  0
   57.5700   22.9140   47.1210 O   0  0  0  0  0  0  0  0  0  0  0  0
   56.7350   25.7950   45.5830 C   0  0  0  0  0  0  0  0  0  0  0  0
   56.6620   27.1850   45.5080 C   0  0  0  0  0  0  0  0  0  0  0  0
   57.8240   27.9770   45.5630 C   0  0  0  0  0  0  0  0  0  0  0  0
   57.6630   29.4480   45.4390 C   0  0  0  0  0  0  0  0  0  0  0  0
   56.6000   30.0570   44.8770 N   0  0  0  0  0  0  0  0  0  0  0  0
   56.8230   31.3280   45.0180 O   0  0  0  0  0  0  0  0  0  0  0  0
   57.9600   31.5090   45.6430 C   0  0  0  0  0  0  0  0  0  0  0  0
   58.5250   32.8320   45.9750 C   0  0  0  0  0  0  0  0  0  0  0  0
   58.8110   33.1750   47.3080 C   0  0  0  0  0  0  0  0  0  0  0  0
   59.3460   34.4300   47.6140 C   0  0  0  0  0  0  0  0  0  0  0  0
   59.6000   35.3520   46.5950 C   0  0  0  0  0  0  0  0  0  0  0  0
   59.3180   35.0190   45.2670 C   0  0  0  0  0  0  0  0  0  0  0  0
   58.7830   33.7650   44.9560 C   0  0  0  0  0  0  0  0  0  0  0  0
   58.5460   30.3350   45.9480 N   0  0  0  0  0  0  0  0  0  0  0  0
   61.5440   29.4672   44.6652 H   0  0  0  0  0  0  0  0  0  0  0  0
   61.3440   27.8344   43.9437 H   0  0  0  0  0  0  0  0  0  0  0  0
   59.9695   28.9908   43.9437 H   0  0  0  0  0  0  0  0  0  0  0  0
   61.1584   27.4141   46.2562 H   0  0  0  0  0  0  0  0  0  0  0  0
   60.2331   28.9404   46.5450 H   0  0  0  0  0  0  0  0  0  0  0  0
   60.1111   25.4307   45.8899 H   0  0  0  0  0  0  0  0  0  0  0  0
   56.2449   22.1357   44.9312 H   0  0  0  0  0  0  0  0  0  0  0  0
   56.6640   23.5224   43.8691 H   0  0  0  0  0  0  0  0  0  0  0  0
   57.6909   22.0486   43.8691 H   0  0  0  0  0  0  0  0  0  0  0  0
   55.8151   25.1942   45.5301 H   0  0  0  0  0  0  0  0  0  0  0  0
   55.6805   27.6706   45.4042 H   0  0  0  0  0  0  0  0  0  0  0  0
   58.6130   32.4529   48.1138 H   0  0  0  0  0  0  0  0  0  0  0  0
   59.5675   34.6922   48.6591 H   0  0  0  0  0  0  0  0  0  0  0  0
   60.0214   36.3387   46.8377 H   0  0  0  0  0  0  0  0  0  0  0  0
   59.5174   35.7449   44.4649 H   0  0  0  0  0  0  0  0  0  0  0  0
   58.5631   33.5077   43.9094 H   0  0  0  0  0  0  0  0  0  0  0  0
  1  2  1  0
  2  3  1  0
  3  4  2  0
  4  5  1  0
  5  6  1  0
  6  7  1  0
  6  8  2  0
  6  9  2  0
  5 10  2  0
 10 11  1  0
 11 12  2  0
 12 13  1  0
 13 14  2  0
 14 15  1  0
 15 16  1  0
 16 17  1  0
 17 18  2  0
 18 19  1  0
 19 20  2  0
 20 21  1  0
 21 22  2  0
 16 23  2  0
 12  3  1  0
 23 13  1  0
 22 17  1  0
  1 24  1  0
  1 25  1  0
  1 26  1  0
  2 27  1  0
  2 28  1  0
  4 29  1  0
  7 30  1  0
  7 31  1  0
  7 32  1  0
 10 33  1  0
 11 34  1  0
 18 35  1  0
 19 36  1  0
 20 37  1  0
 21 38  1  0
 22 39  1  0
M  END
>  <UniqueID>  (11) 
9

>  <SMILES>  (11) 
CCc1cc(S(C)(=O)=O)ccc1-c1noc(-c2ccccc2)n1

>  <Energy>  (11) 
74.36867511771246

>  <Genealogy>  (11) 
CCc1cc(S(C)(=O)=O)ccc1-c1noc(-c2ccccc2)n1 (3D coordinates assigned)
CCc1cc(S(C)(=O)=O)ccc1-c1noc(-c2ccccc2)n1 (optimized conformer: 74.36867511771246 kcal/mol)

>  <smiles>  (11) 
CCc1cc(S(C)(=O)=O)ccc1-c1noc(-c2ccccc2)n1

>  <score_type>  (11) 
oracle

>  <origin>  (11) 
adg

>  <m_score__min__energy>  (11) 
-8.6500000000000004

>  <m_primary>  (11) 
energy

$$$$
11:0
     RDKit          3D

 52 55  0  0  0  0  0  0  0  0999 V2000
   53.5910   23.4550   45.3620 C   0  0  0  0  0  0  0  0  0  0  0  0
   54.8350   24.1810   45.7620 C   0  0  0  0  0  0  0  0  0  0  0  0
   56.0540   23.5070   45.8600 C   0  0  0  0  0  0  0  0  0  0  0  0
   57.1990   24.2170   46.2120 C   0  0  0  0  0  0  0  0  0  0  0  0
   57.1110   25.5980   46.4540 C   0  0  0  0  0  0  0  0  0  0  0  0
   58.2680   26.3760   46.8400 N   0  0  0  0  0  0  0  0  0  0  0  0
   58.1140   27.5830   47.6710 C   0  0  0  0  0  0  0  0  0  0  0  0
   59.3800   28.4540   47.6580 C   0  0  0  0  0  0  0  0  0  0  0  0
   59.9840   28.5560   46.2430 C   0  0  0  0  0  0  0  0  0  0  0  0
   59.1260   29.3850   45.3820 N   0  0  0  0  0  0  0  0  0  0  0  0
   58.9590   30.7170   45.5090 C   0  0  0  0  0  0  0  0  0  0  0  0
   57.9840   31.1250   44.6170 C   0  0  0  0  0  0  0  0  0  0  0  0
   57.3850   32.4950   44.5190 C   0  0  0  0  0  0  0  0  0  0  0  0
   58.1190   33.4510   45.4210 C   0  0  0  0  0  0  0  0  0  0  0  0
   58.0470   33.3120   46.8180 C   0  0  0  0  0  0  0  0  0  0  0  0
   58.7580   34.1830   47.6500 C   0  0  0  0  0  0  0  0  0  0  0  0
   59.5480   35.1930   47.0950 C   0  0  0  0  0  0  0  0  0  0  0  0
   59.6300   35.3340   45.7060 C   0  0  0  0  0  0  0  0  0  0  0  0
   58.9210   34.4660   44.8710 C   0  0  0  0  0  0  0  0  0  0  0  0
   57.5770   29.9650   43.9740 C   0  0  0  0  0  0  0  0  0  0  0  0
   56.4420   29.8200   43.0130 C   0  0  0  0  0  0  0  0  0  0  0  0
   58.2800   28.9290   44.4680 N   0  0  0  0  0  0  0  0  0  0  0  0
   60.2630   27.1650   45.6090 C   0  0  0  0  0  0  0  0  0  0  0  0
   59.6130   26.0030   46.3760 C   0  0  0  0  0  0  0  0  0  0  0  0
   55.8950   26.1990   46.3310 N   0  0  0  0  0  0  0  0  0  0  0  0
   54.7990   25.5190   45.9940 N   0  0  0  0  0  0  0  0  0  0  0  0
   53.0462   23.1370   46.2632 H   0  0  0  0  0  0  0  0  0  0  0  0
   52.9530   24.1226   44.7642 H   0  0  0  0  0  0  0  0  0  0  0  0
   53.8584   22.5712   44.7642 H   0  0  0  0  0  0  0  0  0  0  0  0
   56.1092   22.4265   45.6612 H   0  0  0  0  0  0  0  0  0  0  0  0
   58.1659   23.7000   46.3000 H   0  0  0  0  0  0  0  0  0  0  0  0
   57.2711   28.1751   47.2850 H   0  0  0  0  0  0  0  0  0  0  0  0
   57.9320   27.2621   48.7073 H   0  0  0  0  0  0  0  0  0  0  0  0
   59.1222   29.4638   48.0098 H   0  0  0  0  0  0  0  0  0  0  0  0
   60.1260   27.9868   48.3178 H   0  0  0  0  0  0  0  0  0  0  0  0
   60.9643   29.0464   46.3360 H   0  0  0  0  0  0  0  0  0  0  0  0
   59.5063   31.3695   46.2052 H   0  0  0  0  0  0  0  0  0  0  0  0
   57.4563   32.8489   43.4799 H   0  0  0  0  0  0  0  0  0  0  0  0
   56.3307   32.4479   44.8291 H   0  0  0  0  0  0  0  0  0  0  0  0
   57.4293   32.5154   47.2584 H   0  0  0  0  0  0  0  0  0  0  0  0
   58.6951   34.0727   48.7426 H   0  0  0  0  0  0  0  0  0  0  0  0
   60.1058   35.8776   47.7509 H   0  0  0  0  0  0  0  0  0  0  0  0
   60.2531   36.1289   45.2703 H   0  0  0  0  0  0  0  0  0  0  0  0
   58.9909   34.5776   43.7789 H   0  0  0  0  0  0  0  0  0  0  0  0
   55.5019   29.6999   43.5713 H   0  0  0  0  0  0  0  0  0  0  0  0
   56.3805   30.7176   42.3801 H   0  0  0  0  0  0  0  0  0  0  0  0
   56.6081   28.9358   42.3801 H   0  0  0  0  0  0  0  0  0  0  0  0
   58.1530   27.9260   44.2070 H   0  0  0  0  0  0  0  0  0  0  0  0
   59.8723   27.1658   44.5807 H   0  0  0  0  0  0  0  0  0  0  0  0
   61.3510   27.0063   45.6404 H   0  0  0  0  0  0  0  0  0  0  0  0
   59.5368   25.1294   45.7119 H   0  0  0  0  0  0  0  0  0  0  0  0
   60.2357   25.7635   47.2506 H   0  0  0  0  0  0  0  0  0  0  0  0
  1  2  1  0
  2  3  2  0
  3  4  1  0
  4  5  2  0
  5  6  1  0
  6  7  1  0
  7  8  1  0
  8  9  1  0
  9 10  1  0
 10 11  1  0
 11 12  2  0
 12 13  1  0
 13 14  1  0
 14 15  2  0
 15 16  1  0
 16 17  2  0
 17 18  1  0
 18 19  2  0
 12 20  1  0
 20 21  1  0
 20 22  2  0
  9 23  1  0
 23 24  1  0
  5 25  1  0
 25 26  2  0
 26  2  1  0
 24  6  1  0
 22 10  1  0
 19 14  1  0
  1 27  1  0
  1 28  1  0
  1 29  1  0
  3 30  1  0
  4 31  1  0
  7 32  1  0
  7 33  1  0
  8 34  1  0
  8 35  1  0
  9 36  1  0
 11 37  1  0
 13 38  1  0
 13 39  1  0
 15 40  1  0
 16 41  1  0
 17 42  1  0
 18 43  1  0
 19 44  1  0
 21 45  1  0
 21 46  1  0
 21 47  1  0
 22 48  1  0
 23 49  1  0
 23 50  1  0
 24 51  1  0
 24 52  1  0
M  CHG  1  22   1
M  END
>  <UniqueID>  (12) 
10

>  <SMILES>  (12) 
Cc1ccc(N2CCC(n3cc(Cc4ccccc4)c(C)[nH+]3)CC2)nn1

>  <Energy>  (12) 
86.269527017556

>  <Genealogy>  (12) 
Cc1ccc(N2CCC(n3cc(Cc4ccccc4)c(C)[nH+]3)CC2)nn1 (protonated)
Cc1ccc(N2CCC(n3cc(Cc4ccccc4)c(C)[nH+]3)CC2)nn1 (3D coordinates assigned)
Cc1ccc(N2CCC(n3cc(Cc4ccccc4)c(C)[nH+]3)CC2)nn1 (nonaromatic ring conformer: 86.269527017556 kcal/mol)

>  <smiles>  (12) 
Cc1ccc(N2CCC(n3cc(Cc4ccccc4)c(C)n3)CC2)nn1

>  <score_type>  (12) 
oracle

>  <origin>  (12) 
adg

>  <m_score__min__energy>  (12) 
-7.8300000000000001

>  <m_primary>  (12) 
energy

$$$$
12:0
     RDKit          3D

 45 47  0  0  0  0  0  0  0  0999 V2000
   63.7140   33.4950   47.7330 C   0  0  0  0  0  0  0  0  0  0  0  0
   63.2860   33.8520   49.1510 C   0  0  0  0  0  0  0  0  0  0  0  0
   61.9650   34.3880   49.1580 O   0  0  0  0  0  0  0  0  0  0  0  0
   60.8460   33.6930   49.6360 C   0  0  0  0  0  0  0  0  0  0  0  0
   60.4420   33.8390   50.9280 N   0  0  0  0  0  0  0  0  0  0  0  0
   59.3640   33.1740   51.4130 C   0  0  0  0  0  0  0  0  0  0  0  0
   58.9690   33.3380   52.7450 C   0  0  0  0  0  0  0  0  0  0  0  0
   57.8560   32.6460   53.2330 C   0  0  0  0  0  0  0  0  0  0  0  0
   57.1390   31.7880   52.3920 C   0  0  0  0  0  0  0  0  0  0  0  0
   57.5290   31.6190   51.0600 C   0  0  0  0  0  0  0  0  0  0  0  0
   58.6430   32.3110   50.5620 C   0  0  0  0  0  0  0  0  0  0  0  0
   59.0430   32.1630   49.2680 N   0  0  0  0  0  0  0  0  0  0  0  0
   60.1310   32.8330   48.7820 C   0  0  0  0  0  0  0  0  0  0  0  0
   60.5730   32.6170   47.3550 C   0  0  0  0  0  0  0  0  0  0  0  0
   59.4420   32.8990   46.3940 C   0  0  0  0  0  0  0  0  0  0  0  0
   59.3680   34.1520   45.7690 C   0  0  0  0  0  0  0  0  0  0  0  0
   58.3530   34.4280   44.8580 C   0  0  0  0  0  0  0  0  0  0  0  0
   57.4000   33.4590   44.5560 C   0  0  0  0  0  0  0  0  0  0  0  0
   57.4460   32.1900   45.1660 C   0  0  0  0  0  0  0  0  0  0  0  0
   56.4820   31.2140   44.8660 O   0  0  0  0  0  0  0  0  0  0  0  0
   56.5340   30.3310   43.7490 C   0  0  0  0  0  0  0  0  0  0  0  0
   58.4830   31.9030   46.0950 C   0  0  0  0  0  0  0  0  0  0  0  0
   58.6130   30.6630   46.7510 O   0  0  0  0  0  0  0  0  0  0  0  0
   59.0650   29.4400   46.1810 C   0  0  0  0  0  0  0  0  0  0  0  0
   64.5582   32.7908   47.7711 H   0  0  0  0  0  0  0  0  0  0  0  0
   62.8711   33.0285   47.2021 H   0  0  0  0  0  0  0  0  0  0  0  0
   64.0217   34.4079   47.2021 H   0  0  0  0  0  0  0  0  0  0  0  0
   63.3117   32.9464   49.7749 H   0  0  0  0  0  0  0  0  0  0  0  0
   63.9773   34.6092   49.5494 H   0  0  0  0  0  0  0  0  0  0  0  0
   59.5333   34.0105   53.4078 H   0  0  0  0  0  0  0  0  0  0  0  0
   57.5438   32.7765   54.2797 H   0  0  0  0  0  0  0  0  0  0  0  0
   56.2651   31.2443   52.7802 H   0  0  0  0  0  0  0  0  0  0  0  0
   56.9622   30.9434   50.4025 H   0  0  0  0  0  0  0  0  0  0  0  0
   58.5070   31.5260   48.6360 H   0  0  0  0  0  0  0  0  0  0  0  0
   61.4126   33.2916   47.1316 H   0  0  0  0  0  0  0  0  0  0  0  0
   60.8824   31.5680   47.2369 H   0  0  0  0  0  0  0  0  0  0  0  0
   60.1180   34.9226   46.0006 H   0  0  0  0  0  0  0  0  0  0  0  0
   58.3034   35.4150   44.3749 H   0  0  0  0  0  0  0  0  0  0  0  0
   56.6026   33.6867   43.8333 H   0  0  0  0  0  0  0  0  0  0  0  0
   56.5952   29.2921   44.1054 H   0  0  0  0  0  0  0  0  0  0  0  0
   55.6269   30.4568   43.1396 H   0  0  0  0  0  0  0  0  0  0  0  0
   57.4201   30.5624   43.1396 H   0  0  0  0  0  0  0  0  0  0  0  0
   59.3255   28.7352   46.9844 H   0  0  0  0  0  0  0  0  0  0  0  0
   58.2670   29.0083   45.5590 H   0  0  0  0  0  0  0  0  0  0  0  0
   59.9519   29.6311   45.5590 H   0  0  0  0  0  0  0  0  0  0  0  0
  1  2  1  0
  2  3  1  0
  3  4  1  0
  4  5  2  0
  5  6  1  0
  6  7  2  0
  7  8  1  0
  8  9  2  0
  9 10  1  0
 10 11  2  0
 11 12  1  0
 12 13  2  0
 13 14  1  0
 14 15  1  0
 15 16  2  0
 16 17  1  0
 17 18  2  0
 18 19  1  0
 19 20  1  0
 20 21  1  0
 19 22  2  0
 22 23  1  0
 23 24  1  0
 13  4  1  0
 22 15  1  0
 11  6  1  0
  1 25  1  0
  1 26  1  0
  1 27  1  0
  2 28  1  0
  2 29  1  0
  7 30  1  0
  8 31  1  0
  9 32  1  0
 10 33  1  0
 12 34  1  0
 14 35  1  0
 14 36  1  0
 16 37  1  0
 17 38  1  0
 18 39  1  0
 21 40  1  0
 21 41  1  0
 21 42  1  0
 24 43  1  0
 24 44  1  0
 24 45  1  0
M  CHG  1  12   1
M  END
>  <UniqueID>  (13) 
11

>  <SMILES>  (13) 
CCOc1nc2ccccc2[nH+]c1Cc1cccc(OC)c1OC

>  <Energy>  (13) 
47.5140190027508

>  <Genealogy>  (13) 
CCOc1nc2ccccc2[nH+]c1Cc1cccc(OC)c1OC (protonated)
CCOc1nc2ccccc2[nH+]c1Cc1cccc(OC)c1OC (3D coordinates assigned)
CCOc1nc2ccccc2[nH+]c1Cc1cccc(OC)c1OC (optimized conformer: 47.5140190027508 kcal/mol)

>  <smiles>  (13) 
CCOc1nc2ccccc2nc1Cc1cccc(OC)c1OC

>  <score_type>  (13) 
oracle

>  <origin>  (13) 
adg

>  <m_score__min__energy>  (13) 
-6.2300000000000004

>  <m_primary>  (13) 
energy

$$$$
13:0
     RDKit          3D

 57 60  0  0  0  0  0  0  0  0999 V2000
   54.9170   30.4520   52.0170 C   0  0  0  0  0  0  0  0  0  0  0  0
   56.2520   30.1310   51.6370 O   0  0  0  0  0  0  0  0  0  0  0  0
   57.3850   30.8540   52.0410 C   0  0  0  0  0  0  0  0  0  0  0  0
   58.1430   30.3600   53.1080 C   0  0  0  0  0  0  0  0  0  0  0  0
   59.2780   31.0450   53.5470 C   0  0  0  0  0  0  0  0  0  0  0  0
   59.6720   32.2280   52.9180 C   0  0  0  0  0  0  0  0  0  0  0  0
   58.9330   32.7340   51.8360 C   0  0  0  0  0  0  0  0  0  0  0  0
   59.3540   34.0080   51.1480 C   0  0  0  0  0  0  0  0  0  0  0  0
   60.1300   33.7100   49.8790 C   0  0  0  0  0  0  0  0  0  0  0  0
   59.4260   33.5220   48.7230 N   0  0  0  0  0  0  0  0  0  0  0  0
   60.0260   33.2080   47.5390 C   0  0  0  0  0  0  0  0  0  0  0  0
   59.2070   32.9870   46.3210 C   0  0  0  0  0  0  0  0  0  0  0  0
   59.2600   33.9050   45.2590 C   0  0  0  0  0  0  0  0  0  0  0  0
   58.4900   33.7010   44.1110 C   0  0  0  0  0  0  0  0  0  0  0  0
   57.6620   32.5810   44.0100 C   0  0  0  0  0  0  0  0  0  0  0  0
   57.5970   31.6510   45.0630 C   0  0  0  0  0  0  0  0  0  0  0  0
   56.7820   30.5100   45.0090 O   0  0  0  0  0  0  0  0  0  0  0  0
   56.5840   29.7190   43.8430 C   0  0  0  0  0  0  0  0  0  0  0  0
   58.3700   31.8620   46.2110 C   0  0  0  0  0  0  0  0  0  0  0  0
   61.4180   33.0720   47.4870 C   0  0  0  0  0  0  0  0  0  0  0  0
   62.1790   33.2450   48.6460 C   0  0  0  0  0  0  0  0  0  0  0  0
   63.5730   33.0890   48.5970 C   0  0  0  0  0  0  0  0  0  0  0  0
   64.3520   33.2390   49.7580 C   0  0  0  0  0  0  0  0  0  0  0  0
   65.7470   33.0860   49.7430 O   0  0  0  0  0  0  0  0  0  0  0  0
   66.4610   32.1050   50.4890 C   0  0  0  0  0  0  0  0  0  0  0  0
   63.7300   33.5470   50.9740 C   0  0  0  0  0  0  0  0  0  0  0  0
   64.5370   33.6810   52.1160 O   0  0  0  0  0  0  0  0  0  0  0  0
   65.2720   34.8530   52.4560 C   0  0  0  0  0  0  0  0  0  0  0  0
   62.3340   33.7120   51.0240 C   0  0  0  0  0  0  0  0  0  0  0  0
   61.5420   33.5630   49.8670 C   0  0  0  0  0  0  0  0  0  0  0  0
   57.7820   32.0480   51.4100 C   0  0  0  0  0  0  0  0  0  0  0  0
   54.8424   30.4699   53.1143 H   0  0  0  0  0  0  0  0  0  0  0  0
   54.6489   31.4402   51.6150 H   0  0  0  0  0  0  0  0  0  0  0  0
   54.2290   29.6937   51.6150 H   0  0  0  0  0  0  0  0  0  0  0  0
   57.8429   29.4255   53.6046 H   0  0  0  0  0  0  0  0  0  0  0  0
   59.8636   30.6515   54.3910 H   0  0  0  0  0  0  0  0  0  0  0  0
   60.5644   32.7655   53.2712 H   0  0  0  0  0  0  0  0  0  0  0  0
   58.4575   34.5920   50.8926 H   0  0  0  0  0  0  0  0  0  0  0  0
   60.0031   34.5766   51.8302 H   0  0  0  0  0  0  0  0  0  0  0  0
   58.3860   33.6350   48.7420 H   0  0  0  0  0  0  0  0  0  0  0  0
   59.9109   34.7888   45.3315 H   0  0  0  0  0  0  0  0  0  0  0  0
   58.5362   34.4250   43.2841 H   0  0  0  0  0  0  0  0  0  0  0  0
   57.0585   32.4256   43.1036 H   0  0  0  0  0  0  0  0  0  0  0  0
   56.3266   28.6907   44.1369 H   0  0  0  0  0  0  0  0  0  0  0  0
   55.7649   30.1455   43.2453 H   0  0  0  0  0  0  0  0  0  0  0  0
   57.5074   29.7093   43.2453 H   0  0  0  0  0  0  0  0  0  0  0  0
   58.3221   31.1383   47.0380 H   0  0  0  0  0  0  0  0  0  0  0  0
   61.9124   32.8292   46.5348 H   0  0  0  0  0  0  0  0  0  0  0  0
   64.0608   32.8471   47.6412 H   0  0  0  0  0  0  0  0  0  0  0  0
   66.3252   32.2916   51.5645 H   0  0  0  0  0  0  0  0  0  0  0  0
   66.0785   31.1043   50.2393 H   0  0  0  0  0  0  0  0  0  0  0  0
   67.5308   32.1614   50.2393 H   0  0  0  0  0  0  0  0  0  0  0  0
   65.3297   34.9450   53.5506 H   0  0  0  0  0  0  0  0  0  0  0  0
   66.2878   34.7823   52.0400 H   0  0  0  0  0  0  0  0  0  0  0  0
   64.7660   35.7367   52.0400 H   0  0  0  0  0  0  0  0  0  0  0  0
   61.8524   33.9613   51.9811 H   0  0  0  0  0  0  0  0  0  0  0  0
   57.1864   32.4479   50.5761 H   0  0  0  0  0  0  0  0  0  0  0  0
  1  2  1  0
  2  3  1  0
  3  4  2  0
  4  5  1  0
  5  6  2  0
  6  7  1  0
  7  8  1  0
  8  9  1  0
  9 10  2  0
 10 11  1  0
 11 12  1  0
 12 13  2  0
 13 14  1  0
 14 15  2  0
 15 16  1  0
 16 17  1  0
 17 18  1  0
 16 19  2  0
 11 20  2  0
 20 21  1  0
 21 22  2  0
 22 23  1  0
 23 24  1  0
 24 25  1  0
 23 26  2  0
 26 27  1  0
 27 28  1  0
 26 29  1  0
 29 30  2  0
  7 31  2  0
 31  3  1  0
 30  9  1  0
 19 12  1  0
 30 21  1  0
  1 32  1  0
  1 33  1  0
  1 34  1  0
  4 35  1  0
  5 36  1  0
  6 37  1  0
  8 38  1  0
  8 39  1  0
 10 40  1  0
 13 41  1  0
 14 42  1  0
 15 43  1  0
 18 44  1  0
 18 45  1  0
 18 46  1  0
 19 47  1  0
 20 48  1  0
 22 49  1  0
 25 50  1  0
 25 51  1  0
 25 52  1  0
 28 53  1  0
 28 54  1  0
 28 55  1  0
 29 56  1  0
 31 57  1  0
M  CHG  1  10   1
M  END
>  <UniqueID>  (14) 
12

>  <SMILES>  (14) 
COc1cccc(Cc2[nH+]c(-c3cccc(OC)c3)cc3cc(OC)c(OC)cc23)c1

>  <Energy>  (14) 
67.81731774327518

>  <Genealogy>  (14) 
COc1cccc(Cc2[nH+]c(-c3cccc(OC)c3)cc3cc(OC)c(OC)cc23)c1 (protonated)
COc1cccc(Cc2[nH+]c(-c3cccc(OC)c3)cc3cc(OC)c(OC)cc23)c1 (3D coordinates assigned)
COc1cccc(Cc2[nH+]c(-c3cccc(OC)c3)cc3cc(OC)c(OC)cc23)c1 (optimized conformer: 67.81731774327518 kcal/mol)

>  <smiles>  (14) 
COc1cccc(Cc2nc(-c3cccc(OC)c3)cc3cc(OC)c(OC)cc23)c1

>  <score_type>  (14) 
oracle

>  <origin>  (14) 
adg

>  <m_score__min__energy>  (14) 
-6.4699999999999998

>  <m_primary>  (14) 
energy

$$$$
14:0
     RDKit          3D

 58 61  0  0  1  0  0  0  0  0999 V2000
   56.2650   22.0170   48.9840 C   0  0  0  0  0  0  0  0  0  0  0  0
   57.2040   22.2340   47.9580 O   0  0  0  0  0  0  0  0  0  0  0  0
   57.0100   23.1090   46.9100 C   0  0  0  0  0  0  0  0  0  0  0  0
   56.7870   24.4390   47.1880 C   0  0  0  0  0  0  0  0  0  0  0  0
   56.5980   25.2770   46.1080 C   0  0  0  0  0  0  0  0  0  0  0  0
   56.3980   26.5090   46.3190 N   0  0  0  0  0  0  0  0  0  0  0  0
   57.0350   27.8140   45.3890 S   0  0  0  0  0  0  0  0  0  0  0  0
   56.0270   28.8330   45.0120 O   0  0  0  0  0  0  0  0  0  0  0  0
   57.7030   27.2640   44.1700 O   0  0  0  0  0  0  0  0  0  0  0  0
   58.3300   28.5250   46.3680 C   0  0  0  0  0  0  0  0  0  0  0  0
   59.1710   29.4180   45.7430 C   0  0  0  0  0  0  0  0  0  0  0  0
   60.1810   29.9880   46.4910 C   0  0  0  0  0  0  0  0  0  0  0  0
   60.3910   29.7140   47.8190 C   0  0  0  0  0  0  0  0  0  0  0  0
   61.3750   30.2660   48.6240 N   0  0  0  0  0  0  0  0  0  0  0  0
   61.1840   30.4590   49.8630 C   0  0  0  0  0  0  0  0  0  0  0  0
   60.6090   31.6340   50.5260 C   0  0  0  0  0  0  0  0  0  0  0  0
   59.2050   31.7750   50.0240 C   0  0  0  0  0  0  0  0  0  0  0  0
   58.2070   31.3630   50.6600 O   0  0  0  0  0  0  0  0  0  0  0  0
   59.0270   32.4290   48.7310 C   0  0  0  0  0  0  0  0  0  0  0  0
   59.5850   33.6390   48.3680 C   0  0  0  0  0  0  0  0  0  0  0  0
   59.1820   33.9100   47.0690 C   0  0  0  0  0  0  0  0  0  0  0  0
   59.4060   34.9360   46.1750 C   0  0  0  0  0  0  0  0  0  0  0  0
   58.8540   34.9240   44.9120 C   0  0  0  0  0  0  0  0  0  0  0  0
   58.0680   33.8590   44.5510 C   0  0  0  0  0  0  0  0  0  0  0  0
   57.8320   32.8210   45.4360 C   0  0  0  0  0  0  0  0  0  0  0  0
   57.0240   31.7230   45.0800 O   0  0  0  0  0  0  0  0  0  0  0  0
   57.0610   31.1810   43.7810 C   0  0  0  0  0  0  0  0  0  0  0  0
   58.3870   32.8370   46.7000 C   0  0  0  0  0  0  0  0  0  0  0  0
   58.3250   32.0040   47.6940 O   0  0  0  0  0  0  0  0  0  0  0  0
   59.5080   28.7990   48.4050 C   0  0  0  0  0  0  0  0  0  0  0  0
   58.4870   28.2040   47.7000 C   0  0  0  0  0  0  0  0  0  0  0  0
   56.6340   24.7930   44.8430 N   0  0  0  0  0  0  0  0  0  0  0  0
   56.8530   23.4910   44.6080 C   0  0  0  0  0  0  0  0  0  0  0  0
   56.8740   23.0820   43.2860 O   0  0  0  0  0  0  0  0  0  0  0  0
   57.0380   21.7230   42.9410 C   0  0  0  0  0  0  0  0  0  0  0  0
   57.0440   22.6320   45.6480 N   0  0  0  0  0  0  0  0  0  0  0  0
   56.7569   22.1307   49.9613 H   0  0  0  0  0  0  0  0  0  0  0  0
   55.4499   22.7505   48.8962 H   0  0  0  0  0  0  0  0  0  0  0  0
   55.8544   21.0003   48.8962 H   0  0  0  0  0  0  0  0  0  0  0  0
   56.7608   24.8154   48.2213 H   0  0  0  0  0  0  0  0  0  0  0  0
   59.0419   29.6695   44.6799 H   0  0  0  0  0  0  0  0  0  0  0  0
   60.8552   30.7017   45.9950 H   0  0  0  0  0  0  0  0  0  0  0  0
   61.4897   29.6373   50.5273 H   0  0  0  0  0  0  0  0  0  0  0  0
   60.6079   31.4899   51.6165 H   0  0  0  0  0  0  0  0  0  0  0  0
   61.1977   32.5368   50.3061 H   0  0  0  0  0  0  0  0  0  0  0  0
   60.2308   34.2719   48.9944 H   0  0  0  0  0  0  0  0  0  0  0  0
   60.0395   35.7831   46.4767 H   0  0  0  0  0  0  0  0  0  0  0  0
   59.0395   35.7497   44.2093 H   0  0  0  0  0  0  0  0  0  0  0  0
   57.6202   33.8296   43.5467 H   0  0  0  0  0  0  0  0  0  0  0  0
   57.1358   30.0853   43.8429 H   0  0  0  0  0  0  0  0  0  0  0  0
   56.1420   31.4560   43.2426 H   0  0  0  0  0  0  0  0  0  0  0  0
   57.9341   31.5783   43.2426 H   0  0  0  0  0  0  0  0  0  0  0  0
   59.6351   28.5465   49.4680 H   0  0  0  0  0  0  0  0  0  0  0  0
   57.8103   27.4875   48.1885 H   0  0  0  0  0  0  0  0  0  0  0  0
   56.4860   25.4530   44.0410 H   0  0  0  0  0  0  0  0  0  0  0  0
   57.1110   21.1184   43.8570 H   0  0  0  0  0  0  0  0  0  0  0  0
   56.1737   21.3882   42.3486 H   0  0  0  0  0  0  0  0  0  0  0  0
   57.9571   21.6034   42.3486 H   0  0  0  0  0  0  0  0  0  0  0  0
  1  2  1  0
  2  3  1  0
  3  4  2  0
  4  5  1  0
  5  6  2  0
  6  7  1  0
  7  8  2  0
  7  9  2  0
  7 10  1  0
 10 11  2  0
 11 12  1  0
 12 13  2  0
 13 14  1  0
 14 15  2  0
 15 16  1  0
 16 17  1  0
 17 18  2  0
 17 19  1  0
 19 20  2  0
 20 21  1  0
 21 22  2  0
 22 23  1  0
 23 24  2  0
 24 25  1  0
 25 26  1  0
 26 27  1  0
 25 28  2  0
 28 29  1  0
 13 30  1  0
 30 31  2  0
  5 32  1  0
 32 33  1  0
 33 34  1  0
 34 35  1  0
 33 36  2  0
 36  3  1  0
 31 10  1  0
 29 19  1  0
 28 21  1  0
  1 37  1  0
  1 38  1  0
  1 39  1  0
  4 40  1  0
 11 41  1  0
 12 42  1  0
 15 43  1  0
 16 44  1  0
 16 45  1  0
 20 46  1  0
 22 47  1  0
 23 48  1  0
 24 49  1  0
 27 50  1  0
 27 51  1  0
 27 52  1  0
 30 53  1  0
 31 54  1  0
 32 55  1  0
 35 56  1  0
 35 57  1  0
 35 58  1  0
M  END
>  <smiles>  (15) 
COc1cc(=NS(=O)(=O)c2ccc(N=CCC(=O)c3cc4cccc(OC)c4o3)cc2)[nH]c(OC)n1

>  <score_type>  (15) 
oracle

>  <origin>  (15) 
adg

>  <m_score__min__energy>  (15) 
-10.19

>  <m_primary>  (15) 
energy

$$$$
15:0
     RDKit          3D

 47 51  0  0  0  0  0  0  0  0999 V2000
   62.0510   31.6750   48.3880 C   0  0  0  0  0  0  0  0  0  0  0  0
   61.2050   30.8710   47.5170 N   0  0  0  0  0  0  0  0  0  0  0  0
   60.3700   31.3690   46.5600 C   0  0  0  0  0  0  0  0  0  0  0  0
   59.7380   30.2830   46.0100 C   0  0  0  0  0  0  0  0  0  0  0  0
   60.2070   29.2240   46.6660 C   0  0  0  0  0  0  0  0  0  0  0  0
   61.1080   29.5420   47.6050 N   0  0  0  0  0  0  0  0  0  0  0  0
   59.7040   28.0760   46.2760 O   0  0  0  0  0  0  0  0  0  0  0  0
   58.8650   28.4130   45.3030 C   0  0  0  0  0  0  0  0  0  0  0  0
   58.0590   27.5890   44.5260 C   0  0  0  0  0  0  0  0  0  0  0  0
   58.0430   26.1170   44.7070 C   0  0  0  0  0  0  0  0  0  0  0  0
   58.6620   25.5220   45.8220 C   0  0  0  0  0  0  0  0  0  0  0  0
   58.6460   24.1330   45.9810 C   0  0  0  0  0  0  0  0  0  0  0  0
   58.0160   23.3250   45.0310 C   0  0  0  0  0  0  0  0  0  0  0  0
   57.4030   23.9050   43.9180 C   0  0  0  0  0  0  0  0  0  0  0  0
   57.4170   25.2940   43.7530 C   0  0  0  0  0  0  0  0  0  0  0  0
   57.2710   28.1890   43.5790 N   0  0  0  0  0  0  0  0  0  0  0  0
   57.2770   29.5490   43.3750 C   0  0  0  0  0  0  0  0  0  0  0  0
   56.5440   30.0340   42.4700 O   0  0  0  0  0  0  0  0  0  0  0  0
   58.0740   30.3740   44.1400 N   0  0  0  0  0  0  0  0  0  0  0  0
   58.1370   31.8240   43.8820 C   0  0  0  0  0  0  0  0  0  0  0  0
   57.2670   32.6060   44.8770 C   0  0  0  0  0  0  0  0  0  0  0  0
   58.0990   33.4570   45.8000 C   0  0  0  0  0  0  0  0  0  0  0  0
   58.9670   34.4330   45.2780 C   0  0  0  0  0  0  0  0  0  0  0  0
   59.7920   35.1710   46.1320 C   0  0  0  0  0  0  0  0  0  0  0  0
   59.7560   34.9440   47.5100 C   0  0  0  0  0  0  0  0  0  0  0  0
   58.8920   33.9800   48.0380 C   0  0  0  0  0  0  0  0  0  0  0  0
   58.0660   33.2390   47.1880 C   0  0  0  0  0  0  0  0  0  0  0  0
   58.8420   29.7810   45.0970 C   0  0  0  0  0  0  0  0  0  0  0  0
   61.8144   31.4501   49.4384 H   0  0  0  0  0  0  0  0  0  0  0  0
   63.1075   31.4400   48.1917 H   0  0  0  0  0  0  0  0  0  0  0  0
   61.8701   32.7421   48.1917 H   0  0  0  0  0  0  0  0  0  0  0  0
   60.2318   32.4252   46.2856 H   0  0  0  0  0  0  0  0  0  0  0  0
   59.1610   26.1529   46.5723 H   0  0  0  0  0  0  0  0  0  0  0  0
   59.1305   23.6753   46.8560 H   0  0  0  0  0  0  0  0  0  0  0  0
   58.0028   22.2326   45.1596 H   0  0  0  0  0  0  0  0  0  0  0  0
   56.9083   23.2683   43.1698 H   0  0  0  0  0  0  0  0  0  0  0  0
   56.9360   25.7452   42.8726 H   0  0  0  0  0  0  0  0  0  0  0  0
   56.6640   27.5990   42.9670 H   0  0  0  0  0  0  0  0  0  0  0  0
   59.1801   32.1599   43.9770 H   0  0  0  0  0  0  0  0  0  0  0  0
   57.7584   32.0128   42.8666 H   0  0  0  0  0  0  0  0  0  0  0  0
   56.5807   33.2566   44.3150 H   0  0  0  0  0  0  0  0  0  0  0  0
   56.7118   31.8801   45.4893 H   0  0  0  0  0  0  0  0  0  0  0  0
   58.9968   34.6163   44.1938 H   0  0  0  0  0  0  0  0  0  0  0  0
   60.4705   35.9316   45.7183 H   0  0  0  0  0  0  0  0  0  0  0  0
   60.4078   35.5240   48.1799 H   0  0  0  0  0  0  0  0  0  0  0  0
   58.8622   33.8045   49.1235 H   0  0  0  0  0  0  0  0  0  0  0  0
   57.3871   32.4819   47.6073 H   0  0  0  0  0  0  0  0  0  0  0  0
  1  2  1  0
  2  3  1  0
  3  4  2  0
  4  5  1  0
  5  6  2  0
  5  7  1  0
  7  8  1  0
  8  9  1  0
  9 10  1  0
 10 11  2  0
 11 12  1  0
 12 13  2  0
 13 14  1  0
 14 15  2  0
  9 16  2  0
 16 17  1  0
 17 18  2  0
 17 19  1  0
 19 20  1  0
 20 21  1  0
 21 22  1  0
 22 23  2  0
 23 24  1  0
 24 25  2  0
 25 26  1  0
 26 27  2  0
 19 28  1  0
  6  2  1  0
 28  8  2  0
 28  4  1  0
 15 10  1  0
 27 22  1  0
  1 29  1  0
  1 30  1  0
  1 31  1  0
  3 32  1  0
 11 33  1  0
 12 34  1  0
 13 35  1  0
 14 36  1  0
 15 37  1  0
 16 38  1  0
 20 39  1  0
 20 40  1  0
 21 41  1  0
 21 42  1  0
 23 43  1  0
 24 44  1  0
 25 45  1  0
 26 46  1  0
 27 47  1  0
M  CHG  1  16   1
M  END
>  <UniqueID>  (16) 
13

>  <SMILES>  (16) 
Cn1cc2c(n1)oc1c(-c3ccccc3)[nH+]c(=O)n(CCc3ccccc3)c12

>  <Energy>  (16) 
154.5433172875614

>  <Genealogy>  (16) 
Cn1cc2c(n1)oc1c(-c3ccccc3)[nH+]c(=O)n(CCc3ccccc3)c12 (protonated)
Cn1cc2c(n1)oc1c(-c3ccccc3)[nH+]c(=O)n(CCc3ccccc3)c12 (3D coordinates assigned)
Cn1cc2c(n1)oc1c(-c3ccccc3)[nH+]c(=O)n(CCc3ccccc3)c12 (optimized conformer: 154.5433172875614 kcal/mol)

>  <smiles>  (16) 
Cn1cc2c(n1)oc1c(-c3ccccc3)nc(=O)n(CCc3ccccc3)c12

>  <score_type>  (16) 
oracle

>  <origin>  (16) 
adg

>  <m_score__min__energy>  (16) 
-7.21

>  <m_primary>  (16) 
energy

$$$$
16:0
     RDKit          3D

 26 27  0  0  0  0  0  0  0  0999 V2000
   57.7630   32.2950   41.7420 Cl  0  0  0  0  0  0  0  0  0  0  0  0
   58.0560   32.3030   43.4720 C   0  0  0  0  0  0  0  0  0  0  0  0
   57.8540   31.1410   44.2210 C   0  0  0  0  0  0  0  0  0  0  0  0
   58.0870   31.1440   45.5990 C   0  0  0  0  0  0  0  0  0  0  0  0
   58.5290   32.3170   46.2440 C   0  0  0  0  0  0  0  0  0  0  0  0
   58.7790   32.3700   47.6250 O   0  0  0  0  0  0  0  0  0  0  0  0
   59.9480   31.8740   48.2790 C   0  0  0  0  0  0  0  0  0  0  0  0
   60.8360   33.0220   48.7660 C   0  0  0  0  0  0  0  0  0  0  0  0
   62.0180   33.1470   47.9190 N   0  0  0  0  0  0  0  0  0  0  0  0
   63.0920   32.3370   47.9110 C   0  0  0  0  0  0  0  0  0  0  0  0
   63.9500   32.7160   46.9500 N   0  0  0  0  0  0  0  0  0  0  0  0
   63.3480   33.7770   46.3780 C   0  0  0  0  0  0  0  0  0  0  0  0
   62.1600   34.0460   46.9580 N   0  0  0  0  0  0  0  0  0  0  0  0
   58.7230   33.4820   45.4830 C   0  0  0  0  0  0  0  0  0  0  0  0
   59.2810   34.9620   46.2490 Cl  0  0  0  0  0  0  0  0  0  0  0  0
   58.4890   33.4730   44.1030 C   0  0  0  0  0  0  0  0  0  0  0  0
   57.5106   30.2213   43.7248 H   0  0  0  0  0  0  0  0  0  0  0  0
   57.9247   30.2263   46.1834 H   0  0  0  0  0  0  0  0  0  0  0  0
   59.6449   31.2632   49.1422 H   0  0  0  0  0  0  0  0  0  0  0  0
   60.5209   31.2700   47.5600 H   0  0  0  0  0  0  0  0  0  0  0  0
   60.2648   33.9614   48.7317 H   0  0  0  0  0  0  0  0  0  0  0  0
   61.1570   32.8115   49.7969 H   0  0  0  0  0  0  0  0  0  0  0  0
   63.2452   31.4874   48.5928 H   0  0  0  0  0  0  0  0  0  0  0  0
   64.8650   32.2830   46.6970 H   0  0  0  0  0  0  0  0  0  0  0  0
   63.7724   34.3524   45.5420 H   0  0  0  0  0  0  0  0  0  0  0  0
   58.6461   34.3885   43.5137 H   0  0  0  0  0  0  0  0  0  0  0  0
  1  2  1  0
  2  3  2  0
  3  4  1  0
  4  5  2  0
  5  6  1  0
  6  7  1  0
  7  8  1  0
  8  9  1  0
  9 10  1  0
 10 11  2  0
 11 12  1  0
 12 13  2  0
  5 14  1  0
 14 15  1  0
 14 16  2  0
 16  2  1  0
 13  9  1  0
  3 17  1  0
  4 18  1  0
  7 19  1  0
  7 20  1  0
  8 21  1  0
  8 22  1  0
 10 23  1  0
 11 24  1  0
 12 25  1  0
 16 26  1  0
M  CHG  1  11   1
M  END
>  <UniqueID>  (17) 
14

>  <SMILES>  (17) 
Clc1ccc(OCCn2c[nH+]cn2)c(Cl)c1

>  <Energy>  (17) 
57.499173736741675

>  <Genealogy>  (17) 
Clc1ccc(OCCn2c[nH+]cn2)c(Cl)c1 (protonated)
Clc1ccc(OCCn2c[nH+]cn2)c(Cl)c1 (3D coordinates assigned)
Clc1ccc(OCCn2c[nH+]cn2)c(Cl)c1 (optimized conformer: 57.499173736741675 kcal/mol)

>  <smiles>  (17) 
Clc1ccc(OCCn2cncn2)c(Cl)c1

>  <score_type>  (17) 
oracle

>  <origin>  (17) 
adg

>  <m_score__min__energy>  (17) 
-4.71

>  <m_primary>  (17) 
energy

$$$$
17:0
     RDKit          3D

 52 55  0  0  0  0  0  0  0  0999 V2000
   59.0950   33.8070   51.6650 C   0  0  0  0  0  0  0  0  0  0  0  0
   60.1600   33.8240   50.6220 C   0  0  0  0  0  0  0  0  0  0  0  0
   61.4570   33.5570   50.9670 N   0  0  0  0  0  0  0  0  0  0  0  0
   62.4470   33.5320   50.0300 C   0  0  0  0  0  0  0  0  0  0  0  0
   64.1000   33.1890   50.5040 Cl  0  0  0  0  0  0  0  0  0  0  0  0
   62.1080   33.7760   48.7010 C   0  0  0  0  0  0  0  0  0  0  0  0
   60.8130   34.0280   48.3800 C   0  0  0  0  0  0  0  0  0  0  0  0
   59.8320   34.0490   49.3160 N   0  0  0  0  0  0  0  0  0  0  0  0
   60.6410   34.2430   46.9930 N   0  0  0  0  0  0  0  0  0  0  0  0
   59.3560   34.3100   46.2970 C   0  0  0  0  0  0  0  0  0  0  0  0
   58.8770   32.9250   45.9610 C   0  0  0  0  0  0  0  0  0  0  0  0
   59.0630   31.8770   46.8730 C   0  0  0  0  0  0  0  0  0  0  0  0
   58.5830   30.5960   46.5850 C   0  0  0  0  0  0  0  0  0  0  0  0
   57.9030   30.3430   45.3810 C   0  0  0  0  0  0  0  0  0  0  0  0
   57.3780   28.9910   45.0720 C   0  0  0  0  0  0  0  0  0  0  0  0
   56.1390   28.7700   45.1610 O   0  0  0  0  0  0  0  0  0  0  0  0
   58.2580   27.9360   44.6540 N   0  0  0  0  0  0  0  0  0  0  0  0
   57.8270   26.5690   44.5770 C   0  0  0  0  0  0  0  0  0  0  0  0
   57.7660   25.9590   43.3170 C   0  0  0  0  0  0  0  0  0  0  0  0
   57.3190   24.6470   43.1860 C   0  0  0  0  0  0  0  0  0  0  0  0
   56.9230   23.9270   44.3120 C   0  0  0  0  0  0  0  0  0  0  0  0
   56.9860   24.5060   45.5900 C   0  0  0  0  0  0  0  0  0  0  0  0
   56.5580   23.6840   46.7780 C   0  0  0  0  0  0  0  0  0  0  0  0
   57.4890   25.8250   45.7370 C   0  0  0  0  0  0  0  0  0  0  0  0
   57.6560   26.4330   47.1120 C   0  0  0  0  0  0  0  0  0  0  0  0
   57.6980   31.4040   44.4790 C   0  0  0  0  0  0  0  0  0  0  0  0
   58.1810   32.6830   44.7690 C   0  0  0  0  0  0  0  0  0  0  0  0
   61.9410   34.0660   46.3400 C   0  0  0  0  0  0  0  0  0  0  0  0
   62.9610   33.7960   47.4790 C   0  0  0  0  0  0  0  0  0  0  0  0
   59.5586   33.8144   52.6625 H   0  0  0  0  0  0  0  0  0  0  0  0
   58.4560   34.6951   51.5510 H   0  0  0  0  0  0  0  0  0  0  0  0
   58.4846   32.8990   51.5510 H   0  0  0  0  0  0  0  0  0  0  0  0
   58.6166   34.8034   46.9450 H   0  0  0  0  0  0  0  0  0  0  0  0
   59.4802   34.8834   45.3665 H   0  0  0  0  0  0  0  0  0  0  0  0
   59.5896   32.0635   47.8206 H   0  0  0  0  0  0  0  0  0  0  0  0
   58.7386   29.7799   47.3059 H   0  0  0  0  0  0  0  0  0  0  0  0
   59.1500   28.1930   44.1720 H   0  0  0  0  0  0  0  0  0  0  0  0
   58.0740   26.5217   42.4234 H   0  0  0  0  0  0  0  0  0  0  0  0
   57.2782   24.1776   42.1920 H   0  0  0  0  0  0  0  0  0  0  0  0
   56.5577   22.8956   44.1985 H   0  0  0  0  0  0  0  0  0  0  0  0
   56.8315   24.2092   47.7050 H   0  0  0  0  0  0  0  0  0  0  0  0
   55.4684   23.5361   46.7482 H   0  0  0  0  0  0  0  0  0  0  0  0
   57.0616   22.7065   46.7482 H   0  0  0  0  0  0  0  0  0  0  0  0
   57.4468   25.6713   47.8776 H   0  0  0  0  0  0  0  0  0  0  0  0
   58.6874   26.7970   47.2292 H   0  0  0  0  0  0  0  0  0  0  0  0
   56.9553   27.2728   47.2292 H   0  0  0  0  0  0  0  0  0  0  0  0
   57.1541   31.2253   43.5397 H   0  0  0  0  0  0  0  0  0  0  0  0
   58.0138   33.5048   44.0572 H   0  0  0  0  0  0  0  0  0  0  0  0
   61.9073   33.2122   45.6473 H   0  0  0  0  0  0  0  0  0  0  0  0
   62.2199   34.9531   45.7523 H   0  0  0  0  0  0  0  0  0  0  0  0
   63.4668   32.8299   47.3350 H   0  0  0  0  0  0  0  0  0  0  0  0
   63.7646   34.5457   47.5256 H   0  0  0  0  0  0  0  0  0  0  0  0
  1  2  1  0
  2  3  2  0
  3  4  1  0
  4  5  1  0
  4  6  2  0
  6  7  1  0
  7  8  2  0
  7  9  1  0
  9 10  1  0
 10 11  1  0
 11 12  2  0
 12 13  1  0
 13 14  2  0
 14 15  1  0
 15 16  2  0
 15 17  1  0
 17 18  1  0
 18 19  2  0
 19 20  1  0
 20 21  2  0
 21 22  1  0
 22 23  1  0
 22 24  2  0
 24 25  1  0
 14 26  1  0
 26 27  2  0
  9 28  1  0
 28 29  1  0
  8  2  1  0
 27 11  1  0
 29  6  1  0
 24 18  1  0
  1 30  1  0
  1 31  1  0
  1 32  1  0
 10 33  1  0
 10 34  1  0
 12 35  1  0
 13 36  1  0
 17 37  1  0
 19 38  1  0
 20 39  1  0
 21 40  1  0
 23 41  1  0
 23 42  1  0
 23 43  1  0
 25 44  1  0
 25 45  1  0
 25 46  1  0
 26 47  1  0
 27 48  1  0
 28 49  1  0
 28 50  1  0
 29 51  1  0
 29 52  1  0
M  END
>  <UniqueID>  (18) 
15

>  <SMILES>  (18) 
Cc1nc(Cl)c2c(n1)N(Cc1ccc(C(=O)Nc3cccc(C)c3C)cc1)CC2

>  <Energy>  (18) 
78.30187542982138

>  <Genealogy>  (18) 
Cc1nc(Cl)c2c(n1)N(Cc1ccc(C(=O)Nc3cccc(C)c3C)cc1)CC2 (3D coordinates assigned)
Cc1nc(Cl)c2c(n1)N(Cc1ccc(C(=O)Nc3cccc(C)c3C)cc1)CC2 (nonaromatic ring conformer: 78.30187542982138 kcal/mol)

>  <smiles>  (18) 
Cc1nc(Cl)c2c(n1)N(Cc1ccc(C(=O)Nc3cccc(C)c3C)cc1)CC2

>  <score_type>  (18) 
oracle

>  <origin>  (18) 
adg

>  <m_score__min__energy>  (18) 
-8.8699999999999992

>  <m_primary>  (18) 
energy

$$$$
18:0
     RDKit          3D

 30 32  0  0  0  0  0  0  0  0999 V2000
   56.9026   31.3525   46.5102 H   0  0  0  0  0  0  0  0  0  0  0  0
   57.4150   31.8540   45.6760 C   0  0  0  0  0  0  0  0  0  0  0  0
   57.2480   31.3940   44.4230 C   0  0  0  0  0  0  0  0  0  0  0  0
   56.3610   30.2450   44.1300 C   0  0  0  0  0  0  0  0  0  0  0  0
   55.3811   30.4579   43.6778 H   0  0  0  0  0  0  0  0  0  0  0  0
   56.6680   28.9640   44.3770 C   0  0  0  0  0  0  0  0  0  0  0  0
   55.8770   28.1650   45.2630 N   0  0  0  0  0  0  0  0  0  0  0  0
   56.3690   26.9870   45.9100 C   0  0  0  0  0  0  0  0  0  0  0  0
   55.5770   26.2940   46.6000 O   0  0  0  0  0  0  0  0  0  0  0  0
   57.8010   26.5410   45.7720 C   0  0  0  0  0  0  0  0  0  0  0  0
   58.1525   26.1786   46.7493 H   0  0  0  0  0  0  0  0  0  0  0  0
   57.8303   25.7483   45.0099 H   0  0  0  0  0  0  0  0  0  0  0  0
   58.7270   27.6660   45.3050 C   0  0  0  0  0  0  0  0  0  0  0  0
   58.7010   28.4884   46.0351 H   0  0  0  0  0  0  0  0  0  0  0  0
   59.7542   27.2819   45.2195 H   0  0  0  0  0  0  0  0  0  0  0  0
   58.1740   28.2780   43.6840 S   0  0  0  0  0  0  0  0  0  0  0  0
   57.9960   32.0220   43.2640 C   0  0  0  0  0  0  0  0  0  0  0  0
   57.3131   32.0945   42.4047 H   0  0  0  0  0  0  0  0  0  0  0  0
   58.8635   31.3812   43.0475 H   0  0  0  0  0  0  0  0  0  0  0  0
   58.4950   33.3300   43.5610 O   0  0  0  0  0  0  0  0  0  0  0  0
   58.7830   33.7450   44.8640 C   0  0  0  0  0  0  0  0  0  0  0  0
   59.5510   34.8930   45.0870 C   0  0  0  0  0  0  0  0  0  0  0  0
   59.9404   35.4692   44.2348 H   0  0  0  0  0  0  0  0  0  0  0  0
   59.8230   35.3070   46.3950 C   0  0  0  0  0  0  0  0  0  0  0  0
   60.4341   36.2044   46.5718 H   0  0  0  0  0  0  0  0  0  0  0  0
   59.3180   34.5800   47.4790 C   0  0  0  0  0  0  0  0  0  0  0  0
   59.5341   34.9058   48.5072 H   0  0  0  0  0  0  0  0  0  0  0  0
   58.5390   33.4400   47.2570 C   0  0  0  0  0  0  0  0  0  0  0  0
   58.1352   32.8748   48.1099 H   0  0  0  0  0  0  0  0  0  0  0  0
   58.2730   33.0180   45.9470 C   0  0  0  0  0  0  0  0  0  0  0  0
  1  2  1  0
  2  3  2  0
  3  4  1  0
  4  5  1  0
  4  6  2  0
  6  7  1  0
  7  8  1  0
  8  9  2  0
  8 10  1  0
 10 11  1  0
 10 12  1  0
 10 13  1  0
 13 14  1  0
 13 15  1  0
 13 16  1  0
  3 17  1  0
 17 18  1  0
 17 19  1  0
 17 20  1  0
 20 21  1  0
 21 22  2  0
 22 23  1  0
 22 24  1  0
 24 25  1  0
 24 26  2  0
 26 27  1  0
 26 28  1  0
 28 29  1  0
 28 30  2  0
 30  2  1  0
 16  6  1  0
 30 21  1  0
M  CHG  1   7  -1
M  END
>  <UniqueID>  (19) 
16

>  <SMILES>  (19) 
O=C1CCS/C(=C/C2=Cc3ccccc3OC2)[N-]1

>  <Energy>  (19) 
39.39985750515845

>  <Genealogy>  (19) 
O=C1CCSC(=CC2=Cc3ccccc3OC2)[N-]1 (protonated)
O=C1CCS/C(=C/C2=Cc3ccccc3OC2)[N-]1 (cis-trans isomerization)
O=C1CCS/C(=C/C2=Cc3ccccc3OC2)[N-]1 (3D coordinates assigned)
O=C1CCS/C(=C/C2=Cc3ccccc3OC2)[N-]1 (nonaromatic ring conformer: 39.39985750515845 kcal/mol)

>  <smiles>  (19) 
O=C1CCSC(=CC2=Cc3ccccc3OC2)N1

>  <score_type>  (19) 
oracle

>  <origin>  (19) 
adg

>  <m_score__min__energy>  (19) 
-9.9199999999999999

>  <m_primary>  (19) 
energy

$$$$
19:0
     RDKit          3D

 46 48  0  0  0  0  0  0  0  0999 V2000
   60.3690   32.7690   49.8630 C   0  0  0  0  0  0  0  0  0  0  0  0
   61.5270   32.8400   48.9060 C   0  0  0  0  0  0  0  0  0  0  0  0
   62.3300   33.9920   48.8610 C   0  0  0  0  0  0  0  0  0  0  0  0
   63.4000   34.0730   47.9660 C   0  0  0  0  0  0  0  0  0  0  0  0
   63.6700   33.0110   47.1030 C   0  0  0  0  0  0  0  0  0  0  0  0
   62.8810   31.8590   47.1390 C   0  0  0  0  0  0  0  0  0  0  0  0
   61.8180   31.7530   48.0540 C   0  0  0  0  0  0  0  0  0  0  0  0
   60.9750   30.5900   48.0920 N   0  0  0  0  0  0  0  0  0  0  0  0
   60.2770   29.9970   46.9900 C   0  0  0  0  0  0  0  0  0  0  0  0
   60.9070   29.4830   46.0280 O   0  0  0  0  0  0  0  0  0  0  0  0
   58.7850   29.9080   47.0320 C   0  0  0  0  0  0  0  0  0  0  0  0
   58.2510   29.7150   45.6800 N   0  0  0  0  0  0  0  0  0  0  0  0
   58.0760   28.3870   45.1550 C   0  0  0  0  0  0  0  0  0  0  0  0
   57.6930   27.3300   45.9990 C   0  0  0  0  0  0  0  0  0  0  0  0
   57.5370   26.0390   45.4850 C   0  0  0  0  0  0  0  0  0  0  0  0
   57.7560   25.7940   44.1280 C   0  0  0  0  0  0  0  0  0  0  0  0
   58.1340   26.8400   43.2810 C   0  0  0  0  0  0  0  0  0  0  0  0
   58.2950   28.1320   43.7910 C   0  0  0  0  0  0  0  0  0  0  0  0
   57.6120   31.0790   44.8060 S   0  0  0  0  0  0  0  0  0  0  0  0
   58.0440   31.0060   43.3690 O   0  0  0  0  0  0  0  0  0  0  0  0
   56.1100   31.0570   44.8620 O   0  0  0  0  0  0  0  0  0  0  0  0
   58.2140   32.5810   45.5010 C   0  0  0  0  0  0  0  0  0  0  0  0
   58.9000   33.4990   44.6950 C   0  0  0  0  0  0  0  0  0  0  0  0
   59.4040   34.6800   45.2480 C   0  0  0  0  0  0  0  0  0  0  0  0
   59.2300   34.9450   46.6110 C   0  0  0  0  0  0  0  0  0  0  0  0
   58.5540   34.0280   47.4200 C   0  0  0  0  0  0  0  0  0  0  0  0
   58.0480   32.8470   46.8690 C   0  0  0  0  0  0  0  0  0  0  0  0
   60.7454   32.7921   50.8963 H   0  0  0  0  0  0  0  0  0  0  0  0
   59.7024   33.6280   49.6963 H   0  0  0  0  0  0  0  0  0  0  0  0
   59.8123   31.8350   49.6963 H   0  0  0  0  0  0  0  0  0  0  0  0
   62.1151   34.8350   49.5342 H   0  0  0  0  0  0  0  0  0  0  0  0
   64.0296   34.9747   47.9420 H   0  0  0  0  0  0  0  0  0  0  0  0
   64.5065   33.0809   46.3921 H   0  0  0  0  0  0  0  0  0  0  0  0
   63.0922   31.0298   46.4477 H   0  0  0  0  0  0  0  0  0  0  0  0
   58.4894   29.0578   47.6642 H   0  0  0  0  0  0  0  0  0  0  0  0
   58.3812   30.8431   47.4473 H   0  0  0  0  0  0  0  0  0  0  0  0
   57.5153   27.5193   47.0679 H   0  0  0  0  0  0  0  0  0  0  0  0
   57.2412   25.2150   46.1509 H   0  0  0  0  0  0  0  0  0  0  0  0
   57.6311   24.7780   43.7254 H   0  0  0  0  0  0  0  0  0  0  0  0
   58.3050   26.6464   42.2118 H   0  0  0  0  0  0  0  0  0  0  0  0
   58.5943   28.9519   43.1215 H   0  0  0  0  0  0  0  0  0  0  0  0
   59.0424   33.2900   43.6245 H   0  0  0  0  0  0  0  0  0  0  0  0
   59.9375   35.4012   44.6114 H   0  0  0  0  0  0  0  0  0  0  0  0
   59.6253   35.8750   47.0454 H   0  0  0  0  0  0  0  0  0  0  0  0
   58.4198   34.2356   48.4919 H   0  0  0  0  0  0  0  0  0  0  0  0
   57.5190   32.1252   47.5086 H   0  0  0  0  0  0  0  0  0  0  0  0
  1  2  1  0
  2  3  2  0
  3  4  1  0
  4  5  2  0
  5  6  1  0
  6  7  2  0
  7  8  1  0
  8  9  1  0
  9 10  2  0
  9 11  1  0
 11 12  1  0
 12 13  1  0
 13 14  2  0
 14 15  1  0
 15 16  2  0
 16 17  1  0
 17 18  2  0
 12 19  1  0
 19 20  2  0
 19 21  2  0
 19 22  1  0
 22 23  2  0
 23 24  1  0
 24 25  2  0
 25 26  1  0
 26 27  2  0
  7  2  1  0
 18 13  1  0
 27 22  1  0
  1 28  1  0
  1 29  1  0
  1 30  1  0
  3 31  1  0
  4 32  1  0
  5 33  1  0
  6 34  1  0
 11 35  1  0
 11 36  1  0
 14 37  1  0
 15 38  1  0
 16 39  1  0
 17 40  1  0
 18 41  1  0
 23 42  1  0
 24 43  1  0
 25 44  1  0
 26 45  1  0
 27 46  1  0
M  CHG  1   8  -1
M  END
>  <UniqueID>  (20) 
17

>  <SMILES>  (20) 
Cc1ccccc1[N-]C(=O)CN(c1ccccc1)S(=O)(=O)c1ccccc1

>  <Energy>  (20) 
54.490917400903875

>  <Genealogy>  (20) 
Cc1ccccc1[N-]C(=O)CN(c1ccccc1)S(=O)(=O)c1ccccc1 (protonated)
Cc1ccccc1[N-]C(=O)CN(c1ccccc1)S(=O)(=O)c1ccccc1 (3D coordinates assigned)
Cc1ccccc1[N-]C(=O)CN(c1ccccc1)S(=O)(=O)c1ccccc1 (optimized conformer: 54.490917400903875 kcal/mol)

>  <smiles>  (20) 
Cc1ccccc1NC(=O)CN(c1ccccc1)S(=O)(=O)c1ccccc1

>  <score_type>  (20) 
oracle

>  <origin>  (20) 
adg

>  <m_score__min__energy>  (20) 
-10.59

>  <m_primary>  (20) 
energy

$$$$
20:0
     RDKit          3D

 40 42  0  0  0  0  0  0  0  0999 V2000
   56.3800   25.2000   45.6840 C   0  0  0  0  0  0  0  0  0  0  0  0
   56.0330   26.5480   45.9830 O   0  0  0  0  0  0  0  0  0  0  0  0
   56.9260   27.6280   45.9250 C   0  0  0  0  0  0  0  0  0  0  0  0
   57.9110   27.7270   46.9100 C   0  0  0  0  0  0  0  0  0  0  0  0
   58.8160   28.7890   46.9040 C   0  0  0  0  0  0  0  0  0  0  0  0
   58.7670   29.7680   45.8950 C   0  0  0  0  0  0  0  0  0  0  0  0
   57.7880   29.6610   44.8880 C   0  0  0  0  0  0  0  0  0  0  0  0
   56.8650   28.6050   44.9160 C   0  0  0  0  0  0  0  0  0  0  0  0
   57.7300   30.6060   43.8170 N   0  0  0  0  0  0  0  0  0  0  0  0
   57.3800   31.9950   44.0820 C   0  0  0  0  0  0  0  0  0  0  0  0
   58.5590   32.7600   44.6980 C   0  0  0  0  0  0  0  0  0  0  0  0
   58.9620   32.2870   46.0470 N   0  0  2  0  0  0  0  0  0  0  0  0
   59.6360   33.2930   46.8610 C   0  0  0  0  0  0  0  0  0  0  0  0
   59.0210   34.3360   47.2200 O   0  0  0  0  0  0  0  0  0  0  0  0
   61.0690   33.1910   47.2300 C   0  0  0  0  0  0  0  0  0  0  0  0
   62.0120   33.8550   46.4280 C   0  0  0  0  0  0  0  0  0  0  0  0
   63.3740   33.7970   46.7360 C   0  0  0  0  0  0  0  0  0  0  0  0
   63.8100   33.0580   47.8360 C   0  0  0  0  0  0  0  0  0  0  0  0
   62.8880   32.3650   48.6220 C   0  0  0  0  0  0  0  0  0  0  0  0
   61.5210   32.4150   48.3230 C   0  0  0  0  0  0  0  0  0  0  0  0
   60.4300   31.4370   49.2980 Cl  0  0  0  0  0  0  0  0  0  0  0  0
   59.6740   30.9820   45.9930 C   0  0  0  0  0  0  0  0  0  0  0  0
   56.5237   24.6419   46.6210 H   0  0  0  0  0  0  0  0  0  0  0  0
   55.5724   24.7344   45.1000 H   0  0  0  0  0  0  0  0  0  0  0  0
   57.3120   25.1822   45.1000 H   0  0  0  0  0  0  0  0  0  0  0  0
   57.9739   26.9613   47.6972 H   0  0  0  0  0  0  0  0  0  0  0  0
   59.5756   28.8614   47.6964 H   0  0  0  0  0  0  0  0  0  0  0  0
   56.0865   28.5408   44.1415 H   0  0  0  0  0  0  0  0  0  0  0  0
   58.2400   30.3900   42.9310 H   0  0  0  0  0  0  0  0  0  0  0  0
   57.0938   32.4789   43.1365 H   0  0  0  0  0  0  0  0  0  0  0  0
   56.5441   32.0118   44.7968 H   0  0  0  0  0  0  0  0  0  0  0  0
   59.4236   32.6582   44.0256 H   0  0  0  0  0  0  0  0  0  0  0  0
   58.2278   33.8021   44.8176 H   0  0  0  0  0  0  0  0  0  0  0  0
   58.0680   32.0760   46.5450 H   0  0  0  0  0  0  0  0  0  0  0  0
   61.6755   34.4256   45.5499 H   0  0  0  0  0  0  0  0  0  0  0  0
   64.1024   34.3342   46.1109 H   0  0  0  0  0  0  0  0  0  0  0  0
   64.8810   33.0214   48.0840 H   0  0  0  0  0  0  0  0  0  0  0  0
   63.2377   31.7755   49.4823 H   0  0  0  0  0  0  0  0  0  0  0  0
   60.3345   30.9882   45.1134 H   0  0  0  0  0  0  0  0  0  0  0  0
   60.2197   30.8862   46.9433 H   0  0  0  0  0  0  0  0  0  0  0  0
  1  2  1  0
  2  3  1  0
  3  4  2  0
  4  5  1  0
  5  6  2  0
  6  7  1  0
  7  8  2  0
  7  9  1  0
  9 10  1  0
 10 11  1  0
 11 12  1  0
 12 13  1  0
 13 14  2  0
 13 15  1  0
 15 16  2  0
 16 17  1  0
 17 18  2  0
 18 19  1  0
 19 20  2  0
 20 21  1  0
 12 22  1  0
  8  3  1  0
 20 15  1  0
 22  6  1  0
  1 23  1  0
  1 24  1  0
  1 25  1  0
  4 26  1  0
  5 27  1  0
  8 28  1  0
  9 29  1  0
 10 30  1  0
 10 31  1  0
 11 32  1  0
 11 33  1  0
 12 34  1  1
 16 35  1  0
 17 36  1  0
 18 37  1  0
 19 38  1  0
 22 39  1  0
 22 40  1  0
M  CHG  1  12   1
M  END
>  <UniqueID>  (21) 
18

>  <SMILES>  (21) 
COc1ccc2c(c1)NCC[N@H+](C(=O)c1ccccc1Cl)C2

>  <Energy>  (21) 
64.30269718215571

>  <Genealogy>  (21) 
COc1ccc2c(c1)NCC[NH+](C(=O)c1ccccc1Cl)C2 (protonated)
COc1ccc2c(c1)NCC[N@H+](C(=O)c1ccccc1Cl)C2 (chirality)
COc1ccc2c(c1)NCC[N@H+](C(=O)c1ccccc1Cl)C2 (3D coordinates assigned)
COc1ccc2c(c1)NCC[N@H+](C(=O)c1ccccc1Cl)C2 (nonaromatic ring conformer: 64.30269718215571 kcal/mol)

>  <smiles>  (21) 
COc1ccc2c(c1)NCCN(C(=O)c1ccccc1Cl)C2

>  <score_type>  (21) 
oracle

>  <origin>  (21) 
adg

>  <m_score__min__energy>  (21) 
-4.3300000000000001

>  <m_primary>  (21) 
energy

$$$$
21:0
     RDKit          3D

 35 38  0  0  0  0  0  0  0  0999 V2000
   55.1440   28.1910   44.9190 H   0  0  0  0  0  0  0  0  0  0  0  0
   55.5520   29.0580   44.5020 N   0  0  0  0  0  0  0  0  0  0  0  0
   56.6070   29.6220   45.0020 C   0  0  0  0  0  0  0  0  0  0  0  0
   56.6650   30.9840   45.0660 N   0  0  0  0  0  0  0  0  0  0  0  0
   57.7560   31.5910   45.5890 C   0  0  0  0  0  0  0  0  0  0  0  0
   58.8310   30.8760   46.0710 C   0  0  0  0  0  0  0  0  0  0  0  0
   58.8170   29.4700   46.0750 C   0  0  0  0  0  0  0  0  0  0  0  0
   57.6890   28.8290   45.4790 C   0  0  0  0  0  0  0  0  0  0  0  0
   57.5930   27.3170   45.4230 C   0  0  0  0  0  0  0  0  0  0  0  0
   56.9307   26.9760   46.2324 H   0  0  0  0  0  0  0  0  0  0  0  0
   57.1978   27.0450   44.4331 H   0  0  0  0  0  0  0  0  0  0  0  0
   58.9510   26.6350   45.5820 C   0  0  0  0  0  0  0  0  0  0  0  0
   58.8032   25.5515   45.7009 H   0  0  0  0  0  0  0  0  0  0  0  0
   59.5615   26.8314   44.6883 H   0  0  0  0  0  0  0  0  0  0  0  0
   59.6680   27.1850   46.8100 C   0  0  0  0  0  0  0  0  0  0  0  0
   59.0261   27.0507   47.6931 H   0  0  0  0  0  0  0  0  0  0  0  0
   60.6149   26.6405   46.9398 H   0  0  0  0  0  0  0  0  0  0  0  0
   59.9770   28.6750   46.6350 C   0  0  0  0  0  0  0  0  0  0  0  0
   60.2439   29.0930   47.6169 H   0  0  0  0  0  0  0  0  0  0  0  0
   60.8016   28.7518   45.9110 H   0  0  0  0  0  0  0  0  0  0  0  0
   59.7630   31.8370   46.4590 C   0  0  0  0  0  0  0  0  0  0  0  0
   61.0690   31.7450   46.9560 C   0  0  0  0  0  0  0  0  0  0  0  0
   61.5367   30.7663   47.1387 H   0  0  0  0  0  0  0  0  0  0  0  0
   61.7660   32.9390   47.2150 C   0  0  0  0  0  0  0  0  0  0  0  0
   62.7883   32.8965   47.6188 H   0  0  0  0  0  0  0  0  0  0  0  0
   61.1670   34.1890   46.9620 C   0  0  0  0  0  0  0  0  0  0  0  0
   61.7246   35.1136   47.1720 H   0  0  0  0  0  0  0  0  0  0  0  0
   59.8640   34.2640   46.4440 C   0  0  0  0  0  0  0  0  0  0  0  0
   59.3936   35.2362   46.2352 H   0  0  0  0  0  0  0  0  0  0  0  0
   59.1810   33.0680   46.2010 C   0  0  0  0  0  0  0  0  0  0  0  0
   57.9430   32.9240   45.6780 N   0  0  0  0  0  0  0  0  0  0  0  0
   57.0510   33.9790   45.2020 C   0  0  0  0  0  0  0  0  0  0  0  0
   56.6091   34.5017   46.0631 H   0  0  0  0  0  0  0  0  0  0  0  0
   57.6221   34.6946   44.5923 H   0  0  0  0  0  0  0  0  0  0  0  0
   56.2504   33.5349   44.5923 H   0  0  0  0  0  0  0  0  0  0  0  0
  1  2  1  0
  2  3  2  0
  3  4  1  0
  4  5  1  0
  5  6  2  0
  6  7  1  0
  7  8  2  0
  8  9  1  0
  9 10  1  0
  9 11  1  0
  9 12  1  0
 12 13  1  0
 12 14  1  0
 12 15  1  0
 15 16  1  0
 15 17  1  0
 15 18  1  0
 18 19  1  0
 18 20  1  0
  6 21  1  0
 21 22  2  0
 22 23  1  0
 22 24  1  0
 24 25  1  0
 24 26  2  0
 26 27  1  0
 26 28  1  0
 28 29  1  0
 28 30  2  0
 30 31  1  0
 31 32  1  0
 32 33  1  0
 32 34  1  0
 32 35  1  0
  8  3  1  0
 30 21  1  0
 31  5  1  0
 18  7  1  0
M  CHG  1   4  -1
M  END
>  <UniqueID>  (22) 
19

>  <SMILES>  (22) 
[H]/N=c1\[n-]c2c(c3c1CCCC3)c1ccccc1n2C

>  <Energy>  (22) 
83.66551030475584

>  <Genealogy>  (22) 
Cn1c2ccccc2c2c3c(c(=N)[n-]c21)CCCC3 (protonated)
[H]/N=c1\[n-]c2c(c3c1CCCC3)c1ccccc1n2C (cis-trans isomerization)
[H]/N=c1\[n-]c2c(c3c1CCCC3)c1ccccc1n2C (3D coordinates assigned)
[H]/N=c1\[n-]c2c(c3c1CCCC3)c1ccccc1n2C (nonaromatic ring conformer: 83.66551030475584 kcal/mol)

>  <smiles>  (22) 
Cn1c2ccccc2c2c3c(c(=N)[nH]c21)CCCC3

>  <score_type>  (22) 
oracle

>  <origin>  (22) 
adg

>  <m_score__min__energy>  (22) 
-9.75

>  <m_primary>  (22) 
energy

$$$$
22:0
     RDKit          3D

 39 40  0  0  0  0  0  0  0  0999 V2000
   56.2620   29.9960   43.3220 C   0  0  0  0  0  0  0  0  0  0  0  0
   57.4500   30.7460   43.9120 C   0  0  0  0  0  0  0  0  0  0  0  0
   57.4020   30.7250   45.3370 O   0  0  0  0  0  0  0  0  0  0  0  0
   58.3270   30.0350   46.1290 C   0  0  0  0  0  0  0  0  0  0  0  0
   57.9730   29.0330   46.8100 O   0  0  0  0  0  0  0  0  0  0  0  0
   59.7350   30.5310   46.2130 C   0  0  0  0  0  0  0  0  0  0  0  0
   60.1380   30.8510   47.6580 C   0  0  0  0  0  0  0  0  0  0  0  0
   61.3440   31.7660   47.7220 C   0  0  0  0  0  0  0  0  0  0  0  0
   62.6050   31.2320   47.4240 C   0  0  0  0  0  0  0  0  0  0  0  0
   63.7150   32.0060   47.4910 N   0  0  0  0  0  0  0  0  0  0  0  0
   63.6340   33.3110   47.8460 C   0  0  0  0  0  0  0  0  0  0  0  0
   62.4310   33.8640   48.1450 N   0  0  0  0  0  0  0  0  0  0  0  0
   61.2780   33.1320   48.1020 C   0  0  0  0  0  0  0  0  0  0  0  0
   59.9710   33.8290   48.4150 C   0  0  0  0  0  0  0  0  0  0  0  0
   59.1050   33.9640   47.1870 C   0  0  0  0  0  0  0  0  0  0  0  0
   59.6080   34.5740   46.0240 C   0  0  0  0  0  0  0  0  0  0  0  0
   58.8100   34.6820   44.8810 C   0  0  0  0  0  0  0  0  0  0  0  0
   57.5100   34.1710   44.8840 C   0  0  0  0  0  0  0  0  0  0  0  0
   57.0070   33.5460   46.0280 C   0  0  0  0  0  0  0  0  0  0  0  0
   57.8010   33.4360   47.1730 C   0  0  0  0  0  0  0  0  0  0  0  0
   55.6366   29.6012   44.1362 H   0  0  0  0  0  0  0  0  0  0  0  0
   55.6664   30.6822   42.7019 H   0  0  0  0  0  0  0  0  0  0  0  0
   56.6254   29.1632   42.7019 H   0  0  0  0  0  0  0  0  0  0  0  0
   58.3819   30.2686   43.5750 H   0  0  0  0  0  0  0  0  0  0  0  0
   57.4123   31.7915   43.5722 H   0  0  0  0  0  0  0  0  0  0  0  0
   60.4097   29.7574   45.8176 H   0  0  0  0  0  0  0  0  0  0  0  0
   59.8084   31.4567   45.6233 H   0  0  0  0  0  0  0  0  0  0  0  0
   59.2925   31.3422   48.1619 H   0  0  0  0  0  0  0  0  0  0  0  0
   60.4024   29.9055   48.1541 H   0  0  0  0  0  0  0  0  0  0  0  0
   62.6944   30.1749   47.1331 H   0  0  0  0  0  0  0  0  0  0  0  0
   64.5460   33.9243   47.8921 H   0  0  0  0  0  0  0  0  0  0  0  0
   62.4040   34.8740   48.4110 H   0  0  0  0  0  0  0  0  0  0  0  0
   59.4276   33.2451   49.1725 H   0  0  0  0  0  0  0  0  0  0  0  0
   60.2002   34.8386   48.7868 H   0  0  0  0  0  0  0  0  0  0  0  0
   60.6348   34.9683   46.0135 H   0  0  0  0  0  0  0  0  0  0  0  0
   59.2064   35.1699   43.9783 H   0  0  0  0  0  0  0  0  0  0  0  0
   56.8820   34.2607   43.9854 H   0  0  0  0  0  0  0  0  0  0  0  0
   55.9847   33.1400   46.0275 H   0  0  0  0  0  0  0  0  0  0  0  0
   57.4043   32.9340   48.0678 H   0  0  0  0  0  0  0  0  0  0  0  0
  1  2  1  0
  2  3  1  0
  3  4  1  0
  4  5  2  0
  4  6  1  0
  6  7  1  0
  7  8  1  0
  8  9  2  0
  9 10  1  0
 10 11  2  0
 11 12  1  0
 12 13  2  0
 13 14  1  0
 14 15  1  0
 15 16  2  0
 16 17  1  0
 17 18  2  0
 18 19  1  0
 19 20  2  0
 13  8  1  0
 20 15  1  0
  1 21  1  0
  1 22  1  0
  1 23  1  0
  2 24  1  0
  2 25  1  0
  6 26  1  0
  6 27  1  0
  7 28  1  0
  7 29  1  0
  9 30  1  0
 11 31  1  0
 12 32  1  0
 14 33  1  0
 14 34  1  0
 16 35  1  0
 17 36  1  0
 18 37  1  0
 19 38  1  0
 20 39  1  0
M  CHG  1  12   1
M  END
>  <UniqueID>  (23) 
20

>  <SMILES>  (23) 
CCOC(=O)CCc1cnc[nH+]c1Cc1ccccc1

>  <Energy>  (23) 
32.55928391660081

>  <Genealogy>  (23) 
CCOC(=O)CCc1cnc[nH+]c1Cc1ccccc1 (protonated)
CCOC(=O)CCc1cnc[nH+]c1Cc1ccccc1 (3D coordinates assigned)
CCOC(=O)CCc1cnc[nH+]c1Cc1ccccc1 (optimized conformer: 32.55928391660081 kcal/mol)

>  <smiles>  (23) 
CCOC(=O)CCc1cncnc1Cc1ccccc1

>  <score_type>  (23) 
oracle

>  <origin>  (23) 
adg

>  <m_score__min__energy>  (23) 
-5.4299999999999997

>  <m_primary>  (23) 
energy

$$$$
23:0
     RDKit          3D

 47 49  0  0  0  0  0  0  0  0999 V2000
   60.8099   35.5957   46.0307 H   0  0  0  0  0  0  0  0  0  0  0  0
   60.3510   34.6450   46.3400 C   0  0  0  0  0  0  0  0  0  0  0  0
   59.5690   34.0220   45.4370 C   0  0  0  0  0  0  0  0  0  0  0  0
   59.7119   34.3213   44.3882 H   0  0  0  0  0  0  0  0  0  0  0  0
   58.5030   32.9460   45.6900 C   0  0  2  0  0  0  0  0  0  0  0  0
   57.4750   33.3900   46.7530 C   0  0  0  0  0  0  0  0  0  0  0  0
   57.8864   33.2123   47.7576 H   0  0  0  0  0  0  0  0  0  0  0  0
   57.2592   34.4615   46.6294 H   0  0  0  0  0  0  0  0  0  0  0  0
   56.5470   32.8125   46.6294 H   0  0  0  0  0  0  0  0  0  0  0  0
   59.1230   31.6180   46.0940 C   0  0  0  0  0  0  0  0  0  0  0  0
   60.3320   31.5570   46.4420 O   0  0  0  0  0  0  0  0  0  0  0  0
   58.3020   30.3820   46.0090 C   0  0  0  0  0  0  0  0  0  0  0  0
   57.1690   30.4230   45.1700 C   0  0  0  0  0  0  0  0  0  0  0  0
   56.3440   29.3040   45.0440 C   0  0  0  0  0  0  0  0  0  0  0  0
   55.4554   29.3490   44.3972 H   0  0  0  0  0  0  0  0  0  0  0  0
   56.6410   28.1300   45.7340 C   0  0  0  0  0  0  0  0  0  0  0  0
   55.8230   27.0160   45.5910 O   0  0  0  0  0  0  0  0  0  0  0  0
   57.7570   28.0740   46.5700 C   0  0  0  0  0  0  0  0  0  0  0  0
   57.9870   27.1421   47.1073 H   0  0  0  0  0  0  0  0  0  0  0  0
   58.5910   29.1940   46.7340 C   0  0  0  0  0  0  0  0  0  0  0  0
   59.7540   29.0950   47.6860 C   0  0  0  0  0  0  0  0  0  0  0  0
   59.3840   29.1265   48.7214 H   0  0  0  0  0  0  0  0  0  0  0  0
   60.2875   28.1482   47.5159 H   0  0  0  0  0  0  0  0  0  0  0  0
   60.4399   29.9380   47.5159 H   0  0  0  0  0  0  0  0  0  0  0  0
   56.8500   31.5900   44.4660 O   0  0  0  0  0  0  0  0  0  0  0  0
   57.7550   32.6910   44.3560 C   0  0  0  0  0  0  0  0  0  0  0  0
   57.1882   33.5941   44.0855 H   0  0  0  0  0  0  0  0  0  0  0  0
   58.4996   32.4503   43.5829 H   0  0  0  0  0  0  0  0  0  0  0  0
   60.6490   34.1720   47.7030 C   0  0  0  0  0  0  0  0  0  0  0  0
   59.6600   34.2690   48.6950 C   0  0  0  0  0  0  0  0  0  0  0  0
   58.6693   34.6732   48.4396 H   0  0  0  0  0  0  0  0  0  0  0  0
   59.9250   33.8540   50.0120 C   0  0  0  0  0  0  0  0  0  0  0  0
   58.9520   33.8870   51.0220 O   0  0  0  0  0  0  0  0  0  0  0  0
   58.8120   32.8970   52.0370 C   0  0  0  0  0  0  0  0  0  0  0  0
   58.8794   33.3738   53.0260 H   0  0  0  0  0  0  0  0  0  0  0  0
   57.8349   32.4022   51.9343 H   0  0  0  0  0  0  0  0  0  0  0  0
   59.6135   32.1507   51.9343 H   0  0  0  0  0  0  0  0  0  0  0  0
   61.2030   33.3900   50.3360 C   0  0  0  0  0  0  0  0  0  0  0  0
   61.4155   33.0478   51.3596 H   0  0  0  0  0  0  0  0  0  0  0  0
   62.2120   33.3570   49.3720 C   0  0  0  0  0  0  0  0  0  0  0  0
   63.2175   33.0045   49.6453 H   0  0  0  0  0  0  0  0  0  0  0  0
   61.9510   33.7720   48.0520 C   0  0  0  0  0  0  0  0  0  0  0  0
   62.9600   33.8070   47.0750 O   0  0  0  0  0  0  0  0  0  0  0  0
   63.8120   32.7140   46.7530 C   0  0  0  0  0  0  0  0  0  0  0  0
   64.1759   32.2472   47.6802 H   0  0  0  0  0  0  0  0  0  0  0  0
   63.2511   31.9727   46.1649 H   0  0  0  0  0  0  0  0  0  0  0  0
   64.6678   33.0770   46.1649 H   0  0  0  0  0  0  0  0  0  0  0  0
  1  2  1  0
  2  3  2  0
  3  4  1  0
  3  5  1  0
  5  6  1  1
  6  7  1  0
  6  8  1  0
  6  9  1  0
  5 10  1  0
 10 11  2  0
 10 12  1  0
 12 13  2  0
 13 14  1  0
 14 15  1  0
 14 16  2  0
 16 17  1  0
 16 18  1  0
 18 19  1  0
 18 20  2  0
 20 21  1  0
 21 22  1  0
 21 23  1  0
 21 24  1  0
 13 25  1  0
 25 26  1  0
 26 27  1  0
 26 28  1  0
  2 29  1  0
 29 30  2  0
 30 31  1  0
 30 32  1  0
 32 33  1  0
 33 34  1  0
 34 35  1  0
 34 36  1  0
 34 37  1  0
 32 38  2  0
 38 39  1  0
 38 40  1  0
 40 41  1  0
 40 42  2  0
 42 43  1  0
 43 44  1  0
 44 45  1  0
 44 46  1  0
 44 47  1  0
 26  5  1  0
 42 29  1  0
 20 12  1  0
M  CHG  1  17  -1
M  END
>  <UniqueID>  (24) 
21

>  <SMILES>  (24) 
COc1ccc(OC)c(/C=C\[C@@]2(C)COc3cc([O-])cc(C)c3C2=O)c1

>  <Energy>  (24) 
65.45211394125026

>  <Genealogy>  (24) 
COc1ccc(OC)c(C=CC2(C)COc3cc([O-])cc(C)c3C2=O)c1 (protonated)
COc1ccc(OC)c(C=C[C@@]2(C)COc3cc([O-])cc(C)c3C2=O)c1 (chirality)
COc1ccc(OC)c(/C=C\[C@@]2(C)COc3cc([O-])cc(C)c3C2=O)c1 (cis-trans isomerization)
COc1ccc(OC)c(/C=C\[C@@]2(C)COc3cc([O-])cc(C)c3C2=O)c1 (3D coordinates assigned)
COc1ccc(OC)c(/C=C\[C@@]2(C)COc3cc([O-])cc(C)c3C2=O)c1 (nonaromatic ring conformer: 65.45211394125026 kcal/mol)

>  <smiles>  (24) 
COc1ccc(OC)c(C=CC2(C)COc3cc(O)cc(C)c3C2=O)c1

>  <score_type>  (24) 
oracle

>  <origin>  (24) 
adg

>  <m_score__min__energy>  (24) 
-10.220000000000001

>  <m_primary>  (24) 
energy

$$$$
24:0
     RDKit          3D

 56 59  0  0  0  0  0  0  0  0999 V2000
   60.0150   34.6220   46.9850 C   0  0  0  0  0  0  0  0  0  0  0  0
   59.0200   33.7440   47.4980 O   0  0  0  0  0  0  0  0  0  0  0  0
   58.0240   33.1810   46.6920 C   0  0  0  0  0  0  0  0  0  0  0  0
   56.9490   33.8070   46.4720 O   0  0  0  0  0  0  0  0  0  0  0  0
   58.2210   31.8200   46.1510 C   0  0  0  0  0  0  0  0  0  0  0  0
   57.9990   31.4960   44.8490 C   0  0  0  0  0  0  0  0  0  0  0  0
   57.9050   32.5490   43.8000 C   0  0  0  0  0  0  0  0  0  0  0  0
   58.2740   33.7280   44.0500 O   0  0  0  0  0  0  0  0  0  0  0  0
   57.3210   32.2540   42.5630 O   0  0  0  0  0  0  0  0  0  0  0  0
   58.0310   32.3590   41.3330 C   0  0  0  0  0  0  0  0  0  0  0  0
   57.9990   30.0330   44.3970 C   0  0  2  0  0  0  0  0  0  0  0  0
   56.5960   29.5980   44.0580 C   0  0  0  0  0  0  0  0  0  0  0  0
   55.9320   30.0390   43.0830 O   0  0  0  0  0  0  0  0  0  0  0  0
   56.0890   28.5930   44.9100 N   0  0  0  0  0  0  0  0  0  0  0  0
   57.1390   28.2520   45.7850 C   0  0  0  0  0  0  0  0  0  0  0  0
   57.0080   27.3830   46.6880 O   0  0  0  0  0  0  0  0  0  0  0  0
   58.4090   29.0060   45.5070 C   0  0  1  0  0  0  0  0  0  0  0  0
   59.5490   28.0360   45.1380 C   0  0  0  0  0  0  0  0  0  0  0  0
   60.2360   27.6930   46.4760 C   0  0  0  0  0  0  0  0  0  0  0  0
   59.8820   28.7740   47.3860 N   0  0  0  0  0  0  0  0  0  0  0  0
   60.1820   28.7610   48.8190 C   0  0  0  0  0  0  0  0  0  0  0  0
   59.9450   30.1160   49.4320 C   0  0  0  0  0  0  0  0  0  0  0  0
   60.9040   31.1300   49.2910 C   0  0  0  0  0  0  0  0  0  0  0  0
   60.6710   32.3990   49.8280 C   0  0  0  0  0  0  0  0  0  0  0  0
   59.4670   32.6750   50.5050 C   0  0  0  0  0  0  0  0  0  0  0  0
   59.1900   33.9410   51.0470 O   0  0  0  0  0  0  0  0  0  0  0  0
   58.8780   34.1840   52.4160 C   0  0  0  0  0  0  0  0  0  0  0  0
   58.4990   31.6660   50.6450 C   0  0  0  0  0  0  0  0  0  0  0  0
   57.3060   31.9730   51.3210 O   0  0  0  0  0  0  0  0  0  0  0  0
   56.4920   31.0210   51.9980 C   0  0  0  0  0  0  0  0  0  0  0  0
   58.7430   30.3890   50.1050 C   0  0  0  0  0  0  0  0  0  0  0  0
   58.9200   29.6060   46.7570 C   0  0  0  0  0  0  0  0  0  0  0  0
   58.8110   30.8630   47.0390 N   0  0  0  0  0  0  0  0  0  0  0  0
   60.5518   35.0957   47.8201 H   0  0  0  0  0  0  0  0  0  0  0  0
   60.7255   34.0511   46.3691 H   0  0  0  0  0  0  0  0  0  0  0  0
   59.5370   35.3980   46.3691 H   0  0  0  0  0  0  0  0  0  0  0  0
   59.0999   32.5171   41.5390 H   0  0  0  0  0  0  0  0  0  0  0  0
   57.9021   31.4320   40.7550 H   0  0  0  0  0  0  0  0  0  0  0  0
   57.6394   33.2090   40.7550 H   0  0  0  0  0  0  0  0  0  0  0  0
   58.7158   30.0208   43.5627 H   0  0  0  0  0  0  0  0  0  0  0  0
   55.1300   28.1760   44.8870 H   0  0  0  0  0  0  0  0  0  0  0  0
   59.1454   27.1274   44.6674 H   0  0  0  0  0  0  0  0  0  0  0  0
   60.2508   28.4810   44.4173 H   0  0  0  0  0  0  0  0  0  0  0  0
   59.8678   26.7307   46.8612 H   0  0  0  0  0  0  0  0  0  0  0  0
   61.3259   27.5976   46.3615 H   0  0  0  0  0  0  0  0  0  0  0  0
   59.5345   28.0233   49.3155 H   0  0  0  0  0  0  0  0  0  0  0  0
   61.2411   28.4959   48.9531 H   0  0  0  0  0  0  0  0  0  0  0  0
   61.8430   30.9255   48.7557 H   0  0  0  0  0  0  0  0  0  0  0  0
   61.4317   33.1864   49.7214 H   0  0  0  0  0  0  0  0  0  0  0  0
   59.5838   33.6343   53.0561 H   0  0  0  0  0  0  0  0  0  0  0  0
   58.9566   35.2612   52.6244 H   0  0  0  0  0  0  0  0  0  0  0  0
   57.8528   33.8440   52.6244 H   0  0  0  0  0  0  0  0  0  0  0  0
   56.6028   31.1506   53.0847 H   0  0  0  0  0  0  0  0  0  0  0  0
   55.4395   31.1721   51.7162 H   0  0  0  0  0  0  0  0  0  0  0  0
   56.8048   30.0048   51.7162 H   0  0  0  0  0  0  0  0  0  0  0  0
   57.9857   29.5983   50.2111 H   0  0  0  0  0  0  0  0  0  0  0  0
  1  2  1  0
  2  3  1  0
  3  4  2  0
  3  5  1  0
  5  6  2  0
  6  7  1  0
  7  8  2  0
  7  9  1  0
  9 10  1  0
  6 11  1  0
 11 12  1  0
 12 13  2  0
 12 14  1  0
 14 15  1  0
 15 16  2  0
 15 17  1  0
 17 18  1  6
 18 19  1  0
 19 20  1  0
 20 21  1  0
 21 22  1  0
 22 23  2  0
 23 24  1  0
 24 25  2  0
 25 26  1  0
 26 27  1  0
 25 28  1  0
 28 29  1  0
 29 30  1  0
 28 31  2  0
 20 32  1  0
 32 33  2  0
 33  5  1  0
 17 11  1  0
 31 22  1  0
 32 17  1  0
  1 34  1  0
  1 35  1  0
  1 36  1  0
 10 37  1  0
 10 38  1  0
 10 39  1  0
 11 40  1  6
 14 41  1  0
 18 42  1  0
 18 43  1  0
 19 44  1  0
 19 45  1  0
 21 46  1  0
 21 47  1  0
 23 48  1  0
 24 49  1  0
 27 50  1  0
 27 51  1  0
 27 52  1  0
 30 53  1  0
 30 54  1  0
 30 55  1  0
 31 56  1  0
M  END
>  <UniqueID>  (25) 
22

>  <SMILES>  (25) 
COC(=O)C1=C(C(=O)OC)[C@@H]2C(=O)NC(=O)[C@@]23CCN(Cc2ccc(OC)c(OC)c2)C3=N1

>  <Energy>  (25) 
90.06558267390017

>  <Genealogy>  (25) 
COC(=O)C1=C(C(=O)OC)[C@@H]2C(=O)NC(=O)[C@@]23CCN(Cc2ccc(OC)c(OC)c2)C3=N1 (chirality)
COC(=O)C1=C(C(=O)OC)[C@@H]2C(=O)NC(=O)[C@@]23CCN(Cc2ccc(OC)c(OC)c2)C3=N1 (3D coordinates assigned)
COC(=O)C1=C(C(=O)OC)[C@@H]2C(=O)NC(=O)[C@@]23CCN(Cc2ccc(OC)c(OC)c2)C3=N1 (nonaromatic ring conformer: 90.06558267390017 kcal/mol)

>  <smiles>  (25) 
COC(=O)C1=C(C(=O)OC)C2C(=O)NC(=O)C23CCN(Cc2ccc(OC)c(OC)c2)C3=N1

>  <score_type>  (25) 
oracle

>  <origin>  (25) 
adg

>  <m_score__min__energy>  (25) 
-8.2699999999999996

>  <m_primary>  (25) 
energy

$$$$
25:0
     RDKit          3D

 27 28  0  0  1  0  0  0  0  0999 V2000
   59.7100   35.3980   45.9940 C   0  0  0  0  0  0  0  0  0  0  0  0
   59.1310   34.3450   46.7830 O   0  0  0  0  0  0  0  0  0  0  0  0
   58.0240   33.6500   46.2710 C   0  0  0  0  0  0  0  0  0  0  0  0
   57.2670   33.2020   47.1530 O   0  0  0  0  0  0  0  0  0  0  0  0
   57.9220   33.5540   44.8450 C   0  0  0  0  0  0  0  0  0  0  0  0
   57.7480   32.4880   44.1320 C   0  0  0  0  0  0  0  0  0  0  0  0
   57.7140   31.1180   44.5230 C   0  0  0  0  0  0  0  0  0  0  0  0
   58.6580   30.3370   45.1080 C   0  0  0  0  0  0  0  0  0  0  0  0
   58.4110   29.0340   45.5680 C   0  0  0  0  0  0  0  0  0  0  0  0
   57.1530   28.4810   45.4300 C   0  0  0  0  0  0  0  0  0  0  0  0
   56.8860   27.1300   45.9040 C   0  0  0  0  0  0  0  0  0  0  0  0
   57.7670   26.1820   46.2030 N   0  0  0  0  0  0  0  0  0  0  0  0
   57.0320   25.1180   46.5930 C   0  0  0  0  0  0  0  0  0  0  0  0
   57.5960   24.0290   46.9510 O   0  0  0  0  0  0  0  0  0  0  0  0
   55.7680   25.3910   46.5360 O   0  0  0  0  0  0  0  0  0  0  0  0
   55.6650   26.6000   46.1240 N   0  0  0  0  0  0  0  0  0  0  0  0
   56.2250   29.2600   44.8450 N   0  0  0  0  0  0  0  0  0  0  0  0
   56.4400   30.5030   44.4030 C   0  0  0  0  0  0  0  0  0  0  0  0
   60.1319   36.1654   46.6597 H   0  0  0  0  0  0  0  0  0  0  0  0
   60.5076   34.9844   45.3593 H   0  0  0  0  0  0  0  0  0  0  0  0
   58.9335   35.8499   45.3593 H   0  0  0  0  0  0  0  0  0  0  0  0
   58.0011   34.5001   44.2895 H   0  0  0  0  0  0  0  0  0  0  0  0
   57.6039   32.6674   43.0563 H   0  0  0  0  0  0  0  0  0  0  0  0
   59.6714   30.7476   45.2280 H   0  0  0  0  0  0  0  0  0  0  0  0
   59.2188   28.4538   46.0380 H   0  0  0  0  0  0  0  0  0  0  0  0
   54.7540   27.0870   45.9840 H   0  0  0  0  0  0  0  0  0  0  0  0
   55.6138   31.0602   43.9372 H   0  0  0  0  0  0  0  0  0  0  0  0
  1  2  1  0
  2  3  1  0
  3  4  2  0
  3  5  1  0
  5  6  2  0
  6  7  1  0
  7  8  2  0
  8  9  1  0
  9 10  2  0
 10 11  1  0
 11 12  2  0
 12 13  1  0
 13 14  2  0
 13 15  1  0
 15 16  1  0
 10 17  1  0
 17 18  2  0
 18  7  1  0
 16 11  1  0
  1 19  1  0
  1 20  1  0
  1 21  1  0
  5 22  1  0
  6 23  1  0
  8 24  1  0
  9 25  1  0
 16 26  1  0
 18 27  1  0
M  END
>  <smiles>  (26) 
COC(=O)C=Cc1ccc(-c2nc(=O)o[nH]2)nc1

>  <score_type>  (26) 
oracle

>  <origin>  (26) 
adg

>  <m_score__min__energy>  (26) 
-6.79

>  <m_primary>  (26) 
energy

$$$$
26:0
     RDKit          3D

 46 48  0  0  0  0  0  0  0  0999 V2000
   57.0400   24.8820   45.0230 C   0  0  0  0  0  0  0  0  0  0  0  0
   56.6470   25.6110   46.6430 S   0  0  0  0  0  0  0  0  0  0  0  0
   58.0670   26.7140   46.6260 C   0  0  0  0  0  0  0  0  0  0  0  0
   59.1370   26.4600   47.4920 C   0  0  0  0  0  0  0  0  0  0  0  0
   60.2540   27.2990   47.4960 C   0  0  0  0  0  0  0  0  0  0  0  0
   60.3040   28.3990   46.6380 C   0  0  0  0  0  0  0  0  0  0  0  0
   59.2420   28.6570   45.7670 C   0  0  0  0  0  0  0  0  0  0  0  0
   58.1230   27.8050   45.7390 C   0  0  0  0  0  0  0  0  0  0  0  0
   57.0140   28.0620   44.8630 N   0  0  0  0  0  0  0  0  0  0  0  0
   56.3250   29.3100   44.7150 C   0  0  0  0  0  0  0  0  0  0  0  0
   55.1460   29.4030   45.1490 O   0  0  0  0  0  0  0  0  0  0  0  0
   56.9350   30.4620   44.0050 C   0  0  0  0  0  0  0  0  0  0  0  0
   56.8500   30.5360   42.6040 C   0  0  0  0  0  0  0  0  0  0  0  0
   57.4090   31.6130   41.9150 C   0  0  0  0  0  0  0  0  0  0  0  0
   58.0530   32.6310   42.6160 C   0  0  0  0  0  0  0  0  0  0  0  0
   58.1410   32.5770   44.0090 C   0  0  0  0  0  0  0  0  0  0  0  0
   57.5820   31.4950   44.7200 C   0  0  0  0  0  0  0  0  0  0  0  0
   57.6710   31.3960   46.1200 O   0  0  0  0  0  0  0  0  0  0  0  0
   58.5510   32.1410   46.9650 C   0  0  0  0  0  0  0  0  0  0  0  0
   60.0070   31.9760   46.5040 C   0  0  0  0  0  0  0  0  0  0  0  0
   60.9760   32.7830   47.3970 C   0  0  0  0  0  0  0  0  0  0  0  0
   60.3280   33.9160   48.0890 N   0  0  0  0  0  0  0  0  0  0  0  0
   59.3210   34.5750   47.2460 C   0  0  0  0  0  0  0  0  0  0  0  0
   58.1470   33.6270   46.9210 C   0  0  0  0  0  0  0  0  0  0  0  0
   57.5574   23.9223   45.1686 H   0  0  0  0  0  0  0  0  0  0  0  0
   56.1095   24.7153   44.4605 H   0  0  0  0  0  0  0  0  0  0  0  0
   57.6907   25.5677   44.4605 H   0  0  0  0  0  0  0  0  0  0  0  0
   59.0982   25.5963   48.1721 H   0  0  0  0  0  0  0  0  0  0  0  0
   61.0942   27.0928   48.1753 H   0  0  0  0  0  0  0  0  0  0  0  0
   61.1805   29.0636   46.6475 H   0  0  0  0  0  0  0  0  0  0  0  0
   59.2813   29.5308   45.0999 H   0  0  0  0  0  0  0  0  0  0  0  0
   56.3384   29.7380   42.0459 H   0  0  0  0  0  0  0  0  0  0  0  0
   57.3414   31.6586   40.8180 H   0  0  0  0  0  0  0  0  0  0  0  0
   58.4931   33.4791   42.0709 H   0  0  0  0  0  0  0  0  0  0  0  0
   58.6502   33.3845   44.5555 H   0  0  0  0  0  0  0  0  0  0  0  0
   58.4726   31.7645   47.9956 H   0  0  0  0  0  0  0  0  0  0  0  0
   60.2790   30.9112   46.5517 H   0  0  0  0  0  0  0  0  0  0  0  0
   60.0891   32.3541   45.4743 H   0  0  0  0  0  0  0  0  0  0  0  0
   61.3977   32.1063   48.1548 H   0  0  0  0  0  0  0  0  0  0  0  0
   61.7508   33.2037   46.7392 H   0  0  0  0  0  0  0  0  0  0  0  0
   61.0610   34.6160   48.3480 H   0  0  0  0  0  0  0  0  0  0  0  0
   59.8790   33.5810   48.9740 H   0  0  0  0  0  0  0  0  0  0  0  0
   58.9321   35.4566   47.7767 H   0  0  0  0  0  0  0  0  0  0  0  0
   59.8006   34.8672   46.3001 H   0  0  0  0  0  0  0  0  0  0  0  0
   57.3455   33.7954   47.6553 H   0  0  0  0  0  0  0  0  0  0  0  0
   57.8146   33.8500   45.8964 H   0  0  0  0  0  0  0  0  0  0  0  0
  1  2  1  0
  2  3  1  0
  3  4  2  0
  4  5  1  0
  5  6  2  0
  6  7  1  0
  7  8  2  0
  8  9  1  0
  9 10  1  0
 10 11  2  0
 10 12  1  0
 12 13  2  0
 13 14  1  0
 14 15  2  0
 15 16  1  0
 16 17  2  0
 17 18  1  0
 18 19  1  0
 19 20  1  0
 20 21  1  0
 21 22  1  0
 22 23  1  0
 23 24  1  0
  8  3  1  0
 17 12  1  0
 24 19  1  0
  1 25  1  0
  1 26  1  0
  1 27  1  0
  4 28  1  0
  5 29  1  0
  6 30  1  0
  7 31  1  0
 13 32  1  0
 14 33  1  0
 15 34  1  0
 16 35  1  0
 19 36  1  0
 20 37  1  0
 20 38  1  0
 21 39  1  0
 21 40  1  0
 22 41  1  0
 22 42  1  0
 23 43  1  0
 23 44  1  0
 24 45  1  0
 24 46  1  0
M  CHG  2   9  -1  22   1
M  END
>  <UniqueID>  (27) 
23

>  <SMILES>  (27) 
CSc1ccccc1[N-]C(=O)c1ccccc1OC1CC[NH2+]CC1

>  <Energy>  (27) 
55.81117291028464

>  <Genealogy>  (27) 
CSc1ccccc1[N-]C(=O)c1ccccc1OC1CC[NH2+]CC1 (protonated)
CSc1ccccc1[N-]C(=O)c1ccccc1OC1CC[NH2+]CC1 (3D coordinates assigned)
CSc1ccccc1[N-]C(=O)c1ccccc1OC1CC[NH2+]CC1 (nonaromatic ring conformer: 55.81117291028464 kcal/mol)

>  <smiles>  (27) 
CSc1ccccc1NC(=O)c1ccccc1OC1CCNCC1

>  <score_type>  (27) 
oracle

>  <origin>  (27) 
adg

>  <m_score__min__energy>  (27) 
-8.5099999999999998

>  <m_primary>  (27) 
energy

$$$$
27:0
     RDKit          3D

 45 48  0  0  1  0  0  0  0  0999 V2000
   57.1610   26.4940   45.5570 C   0  0  0  0  0  0  0  0  0  0  0  0
   56.8570   27.7900   45.9740 O   0  0  0  0  0  0  0  0  0  0  0  0
   57.0590   28.8800   45.1450 C   0  0  0  0  0  0  0  0  0  0  0  0
   56.1170   29.3840   44.2860 C   0  0  0  0  0  0  0  0  0  0  0  0
   56.3220   30.4710   43.4620 C   0  0  0  0  0  0  0  0  0  0  0  0
   57.5680   31.0750   43.5260 C   0  0  0  0  0  0  0  0  0  0  0  0
   58.5120   30.5700   44.3880 C   0  0  0  0  0  0  0  0  0  0  0  0
   58.3070   29.4900   45.2060 C   0  0  0  0  0  0  0  0  0  0  0  0
   59.3420   28.9640   46.1270 C   0  0  0  0  0  0  0  0  0  0  0  0
   58.7920   28.6920   47.4370 N   0  0  0  0  0  0  0  0  0  0  0  0
   58.7280   29.6350   48.4850 C   0  0  0  0  0  0  0  0  0  0  0  0
   58.8800   30.9730   48.1390 C   0  0  0  0  0  0  0  0  0  0  0  0
   58.8430   31.9730   49.0860 C   0  0  0  0  0  0  0  0  0  0  0  0
   58.9820   33.2280   48.7350 N   0  0  0  0  0  0  0  0  0  0  0  0
   58.7150   33.6580   47.4010 C   0  0  0  0  0  0  0  0  0  0  0  0
   59.7710   34.3310   46.7760 C   0  0  0  0  0  0  0  0  0  0  0  0
   59.5670   34.7730   45.4850 C   0  0  0  0  0  0  0  0  0  0  0  0
   58.3730   34.5610   44.8330 C   0  0  0  0  0  0  0  0  0  0  0  0
   57.3620   33.9050   45.4570 C   0  0  0  0  0  0  0  0  0  0  0  0
   57.5120   33.4360   46.7670 C   0  0  0  0  0  0  0  0  0  0  0  0
   58.6520   31.6110   50.3670 N   0  0  0  0  0  0  0  0  0  0  0  0
   58.5820   32.4240   51.4460 C   0  0  0  0  0  0  0  0  0  0  0  0
   58.3760   31.5900   52.5460 C   0  0  0  0  0  0  0  0  0  0  0  0
   58.3340   30.3390   52.0610 N   0  0  0  0  0  0  0  0  0  0  0  0
   58.5010   30.3270   50.7280 C   0  0  0  0  0  0  0  0  0  0  0  0
   58.5430   29.3600   49.7710 N   0  0  0  0  0  0  0  0  0  0  0  0
   57.3117   25.8515   46.4371 H   0  0  0  0  0  0  0  0  0  0  0  0
   56.3311   26.0991   44.9526 H   0  0  0  0  0  0  0  0  0  0  0  0
   58.0799   26.5094   44.9526 H   0  0  0  0  0  0  0  0  0  0  0  0
   55.1348   28.8899   44.2517 H   0  0  0  0  0  0  0  0  0  0  0  0
   55.5355   30.8403   42.7874 H   0  0  0  0  0  0  0  0  0  0  0  0
   57.7981   31.9465   42.8956 H   0  0  0  0  0  0  0  0  0  0  0  0
   59.4942   31.0641   44.4234 H   0  0  0  0  0  0  0  0  0  0  0  0
   59.7521   28.0323   45.7103 H   0  0  0  0  0  0  0  0  0  0  0  0
   60.1304   29.7237   46.2328 H   0  0  0  0  0  0  0  0  0  0  0  0
   58.4020   27.7290   47.6600 H   0  0  0  0  0  0  0  0  0  0  0  0
   59.0336   31.2398   47.0830 H   0  0  0  0  0  0  0  0  0  0  0  0
   60.7265   34.5010   47.2939 H   0  0  0  0  0  0  0  0  0  0  0  0
   60.3763   35.3066   44.9651 H   0  0  0  0  0  0  0  0  0  0  0  0
   58.2382   34.9243   43.8035 H   0  0  0  0  0  0  0  0  0  0  0  0
   56.4127   33.7398   44.9264 H   0  0  0  0  0  0  0  0  0  0  0  0
   56.6934   32.9057   47.2756 H   0  0  0  0  0  0  0  0  0  0  0  0
   58.6697   33.5205   51.4547 H   0  0  0  0  0  0  0  0  0  0  0  0
   58.2696   31.8958   53.5973 H   0  0  0  0  0  0  0  0  0  0  0  0
   58.1890   29.4800   52.6710 H   0  0  0  0  0  0  0  0  0  0  0  0
  1  2  1  0
  2  3  1  0
  3  4  2  0
  4  5  1  0
  5  6  2  0
  6  7  1  0
  7  8  2  0
  8  9  1  0
  9 10  1  0
 10 11  1  0
 11 12  2  0
 12 13  1  0
 13 14  2  0
 14 15  1  0
 15 16  2  0
 16 17  1  0
 17 18  2  0
 18 19  1  0
 19 20  2  0
 13 21  1  0
 21 22  1  0
 22 23  2  0
 23 24  1  0
 24 25  1  0
 25 26  2  0
  8  3  1  0
 26 11  1  0
 20 15  1  0
 25 21  1  0
  1 27  1  0
  1 28  1  0
  1 29  1  0
  4 30  1  0
  5 31  1  0
  6 32  1  0
  7 33  1  0
  9 34  1  0
  9 35  1  0
 10 36  1  0
 12 37  1  0
 16 38  1  0
 17 39  1  0
 18 40  1  0
 19 41  1  0
 20 42  1  0
 22 43  1  0
 23 44  1  0
 24 45  1  0
M  END
>  <smiles>  (28) 
COc1ccccc1CNc1cc(=Nc2ccccc2)n2cc[nH]c2n1

>  <score_type>  (28) 
oracle

>  <origin>  (28) 
adg

>  <m_score__min__energy>  (28) 
-7.4400000000000004

>  <m_primary>  (28) 
energy

$$$$
28:0
     RDKit          3D

 52 56  0  0  0  0  0  0  0  0999 V2000
   57.6340   31.5190   44.7490 C   0  0  0  0  0  0  0  0  0  0  0  0
   58.9520   31.2400   45.4660 C   0  0  0  0  0  0  0  0  0  0  0  0
   58.7720   31.2510   46.9680 C   0  0  0  0  0  0  0  0  0  0  0  0
   58.9300   30.0440   47.6710 C   0  0  0  0  0  0  0  0  0  0  0  0
   58.8170   30.0040   49.0600 C   0  0  0  0  0  0  0  0  0  0  0  0
   58.5270   31.1700   49.7800 C   0  0  0  0  0  0  0  0  0  0  0  0
   58.4280   31.1520   51.2530 C   0  0  0  0  0  0  0  0  0  0  0  0
   59.4600   31.4550   52.0770 N   0  0  0  0  0  0  0  0  0  0  0  0
   59.0610   31.3470   53.3400 N   0  0  0  0  0  0  0  0  0  0  0  0
   57.7680   30.9820   53.3200 C   0  0  0  0  0  0  0  0  0  0  0  0
   56.9320   30.7650   54.4100 C   0  0  0  0  0  0  0  0  0  0  0  0
   55.5910   30.4240   54.1500 C   0  0  0  0  0  0  0  0  0  0  0  0
   55.1100   30.3440   52.8210 C   0  0  0  0  0  0  0  0  0  0  0  0
   53.7450   29.9620   52.5980 N   0  0  0  0  0  0  0  0  0  0  0  0
   52.7500   30.7330   52.2510 C   0  0  0  0  0  0  0  0  0  0  0  0
   51.9030   31.2210   53.2550 C   0  0  0  0  0  0  0  0  0  0  0  0
   50.8340   32.0560   52.9180 C   0  0  0  0  0  0  0  0  0  0  0  0
   50.6240   32.4060   51.6230 N   0  0  0  0  0  0  0  0  0  0  0  0
   51.4370   31.9670   50.6260 C   0  0  0  0  0  0  0  0  0  0  0  0
   52.5170   31.1300   50.9180 C   0  0  0  0  0  0  0  0  0  0  0  0
   55.9990   30.5430   51.7380 C   0  0  0  0  0  0  0  0  0  0  0  0
   57.3270   30.8550   52.0330 C   0  0  0  0  0  0  0  0  0  0  0  0
   58.3890   32.3820   49.0910 C   0  0  0  0  0  0  0  0  0  0  0  0
   58.5250   32.4450   47.6930 C   0  0  0  0  0  0  0  0  0  0  0  0
   58.4250   33.7150   47.0230 N   0  0  0  0  0  0  0  0  0  0  0  0
   59.8060   34.5260   46.3550 S   0  0  0  0  0  0  0  0  0  0  0  0
   59.9060   34.2220   44.8870 O   0  0  0  0  0  0  0  0  0  0  0  0
   59.6500   36.0100   46.5430 O   0  0  0  0  0  0  0  0  0  0  0  0
   61.2730   33.9730   47.1440 C   0  0  0  0  0  0  0  0  0  0  0  0
   61.4100   33.7070   48.4970 C   0  0  0  0  0  0  0  0  0  0  0  0
   62.7140   33.3460   48.8530 C   0  0  0  0  0  0  0  0  0  0  0  0
   63.6000   33.3320   47.7820 C   0  0  0  0  0  0  0  0  0  0  0  0
   62.7610   33.7720   46.3920 S   0  0  0  0  0  0  0  0  0  0  0  0
   56.8407   31.6869   45.4922 H   0  0  0  0  0  0  0  0  0  0  0  0
   57.7417   32.4143   44.1190 H   0  0  0  0  0  0  0  0  0  0  0  0
   57.3697   30.6569   44.1190 H   0  0  0  0  0  0  0  0  0  0  0  0
   59.3264   30.2529   45.1569 H   0  0  0  0  0  0  0  0  0  0  0  0
   59.6688   32.0294   45.1958 H   0  0  0  0  0  0  0  0  0  0  0  0
   59.1458   29.1182   47.1175 H   0  0  0  0  0  0  0  0  0  0  0  0
   58.9563   29.0520   49.5932 H   0  0  0  0  0  0  0  0  0  0  0  0
   57.3059   30.8567   55.4404 H   0  0  0  0  0  0  0  0  0  0  0  0
   54.9097   30.2175   54.9886 H   0  0  0  0  0  0  0  0  0  0  0  0
   52.0790   30.9476   54.3058 H   0  0  0  0  0  0  0  0  0  0  0  0
   50.1613   32.4304   53.7037 H   0  0  0  0  0  0  0  0  0  0  0  0
   51.2442   32.2715   49.5867 H   0  0  0  0  0  0  0  0  0  0  0  0
   53.1815   30.7828   50.1130 H   0  0  0  0  0  0  0  0  0  0  0  0
   55.6544   30.4546   50.6971 H   0  0  0  0  0  0  0  0  0  0  0  0
   58.1702   33.3013   49.6541 H   0  0  0  0  0  0  0  0  0  0  0  0
   57.4930   34.1330   46.8120 H   0  0  0  0  0  0  0  0  0  0  0  0
   60.5802   33.7728   49.2161 H   0  0  0  0  0  0  0  0  0  0  0  0
   63.0100   33.0969   49.8827 H   0  0  0  0  0  0  0  0  0  0  0  0
   64.6686   33.0765   47.8345 H   0  0  0  0  0  0  0  0  0  0  0  0
  1  2  1  0
  2  3  1  0
  3  4  2  0
  4  5  1  0
  5  6  2  0
  6  7  1  0
  7  8  1  0
  8  9  1  0
  9 10  2  0
 10 11  1  0
 11 12  2  0
 12 13  1  0
 13 14  1  0
 14 15  2  3
 15 16  1  0
 16 17  2  0
 17 18  1  0
 18 19  1  0
 19 20  2  0
 13 21  2  0
 21 22  1  0
  6 23  1  0
 23 24  2  0
 24 25  1  0
 25 26  1  0
 26 27  2  0
 26 28  2  0
 26 29  1  0
 29 30  2  0
 30 31  1  0
 31 32  2  0
 32 33  1  0
 24  3  1  0
 33 29  1  0
 22  7  2  0
 22 10  1  0
 20 15  1  0
  1 34  1  0
  1 35  1  0
  1 36  1  0
  2 37  1  0
  2 38  1  0
  4 39  1  0
  5 40  1  0
 11 41  1  0
 12 42  1  0
 16 43  1  0
 17 44  1  0
 19 45  1  0
 20 46  1  0
 21 47  1  0
 23 48  1  0
 25 49  1  0
 30 50  1  0
 31 51  1  0
 32 52  1  0
M  CHG  2   8  -1  18  -1
M  END
>  <UniqueID>  (29) 
24

>  <SMILES>  (29) 
CCc1ccc(-c2[n-]nc3ccc(N=c4cc[n-]cc4)cc23)cc1NS(=O)(=O)c1cccs1

>  <Energy>  (29) 
137.92265209848176

>  <Genealogy>  (29) 
CCc1ccc(-c2[n-]nc3ccc(N=c4cc[n-]cc4)cc23)cc1NS(=O)(=O)c1cccs1 (protonated)
CCc1ccc(-c2[n-]nc3ccc(N=c4cc[n-]cc4)cc23)cc1NS(=O)(=O)c1cccs1 (3D coordinates assigned)
CCc1ccc(-c2[n-]nc3ccc(N=c4cc[n-]cc4)cc23)cc1NS(=O)(=O)c1cccs1 (optimized conformer: 137.92265209848176 kcal/mol)

>  <smiles>  (29) 
CCc1ccc(-c2[nH]nc3ccc(N=c4cc[nH]cc4)cc23)cc1NS(=O)(=O)c1cccs1

>  <score_type>  (29) 
oracle

>  <origin>  (29) 
adg

>  <m_score__min__energy>  (29) 
-12.859999999999999

>  <m_primary>  (29) 
energy

$$$$
29:0
     RDKit          3D

 48 51  0  0  1  0  0  0  0  0999 V2000
   61.8590   33.2100   46.7740 C   0  0  0  0  0  0  0  0  0  0  0  0
   60.7970   34.1040   47.1710 N   0  0  0  0  0  0  0  0  0  0  0  0
   60.1580   33.7510   48.4030 C   0  0  0  0  0  0  0  0  0  0  0  0
   58.9440   32.8970   48.2490 C   0  0  0  0  0  0  0  0  0  0  0  0
   58.1160   33.2710   47.1250 N   0  0  0  0  0  0  0  0  0  0  0  0
   58.2020   32.2730   46.0890 C   0  0  0  0  0  0  0  0  0  0  0  0
   57.3750   32.6390   44.8890 C   0  0  0  0  0  0  0  0  0  0  0  0
   57.0510   31.4260   44.0450 C   0  0  0  0  0  0  0  0  0  0  0  0
   56.6650   30.2910   44.8600 N   0  0  0  0  0  0  0  0  0  0  0  0
   57.1520   29.1270   44.6460 C   0  0  0  0  0  0  0  0  0  0  0  0
   58.0510   28.7170   43.7370 N   0  0  0  0  0  0  0  0  0  0  0  0
   58.2250   27.4210   43.9200 N   0  0  0  0  0  0  0  0  0  0  0  0
   57.4380   27.0010   44.9460 C   0  0  0  0  0  0  0  0  0  0  0  0
   57.3590   25.6310   45.4420 C   0  0  0  0  0  0  0  0  0  0  0  0
   57.3860   24.5380   44.5730 C   0  0  0  0  0  0  0  0  0  0  0  0
   57.3090   23.2430   45.0690 C   0  0  0  0  0  0  0  0  0  0  0  0
   57.2050   23.0510   46.4350 C   0  0  0  0  0  0  0  0  0  0  0  0
   57.1780   24.1390   47.3000 C   0  0  0  0  0  0  0  0  0  0  0  0
   57.2550   25.4420   46.8130 C   0  0  0  0  0  0  0  0  0  0  0  0
   57.0690   23.6360   48.6080 O   0  0  0  0  0  0  0  0  0  0  0  0
   56.5900   22.2970   48.4980 C   0  0  0  0  0  0  0  0  0  0  0  0
   57.1120   21.9200   47.2320 O   0  0  0  0  0  0  0  0  0  0  0  0
   56.7940   28.0730   45.3690 O   0  0  0  0  0  0  0  0  0  0  0  0
   58.5120   34.5850   46.6580 C   0  0  0  0  0  0  0  0  0  0  0  0
   59.9180   34.4590   46.1130 C   0  0  0  0  0  0  0  0  0  0  0  0
   62.3468   32.7993   47.6703 H   0  0  0  0  0  0  0  0  0  0  0  0
   61.4412   32.3877   46.1746 H   0  0  0  0  0  0  0  0  0  0  0  0
   62.5980   33.7619   46.1746 H   0  0  0  0  0  0  0  0  0  0  0  0
   60.8849   33.2059   49.0230 H   0  0  0  0  0  0  0  0  0  0  0  0
   59.8215   34.6926   48.8614 H   0  0  0  0  0  0  0  0  0  0  0  0
   59.2666   31.8543   48.1123 H   0  0  0  0  0  0  0  0  0  0  0  0
   58.3372   33.0298   49.1568 H   0  0  0  0  0  0  0  0  0  0  0  0
   59.2526   32.1713   45.7794 H   0  0  0  0  0  0  0  0  0  0  0  0
   57.8149   31.3265   46.4942 H   0  0  0  0  0  0  0  0  0  0  0  0
   56.4353   33.0982   45.2297 H   0  0  0  0  0  0  0  0  0  0  0  0
   57.9549   33.3419   44.2729 H   0  0  0  0  0  0  0  0  0  0  0  0
   56.2220   31.6755   43.3664 H   0  0  0  0  0  0  0  0  0  0  0  0
   57.9543   31.1506   43.4809 H   0  0  0  0  0  0  0  0  0  0  0  0
   58.4830   29.3690   43.0490 H   0  0  0  0  0  0  0  0  0  0  0  0
   57.4688   24.7039   43.4887 H   0  0  0  0  0  0  0  0  0  0  0  0
   57.3304   22.3818   44.3850 H   0  0  0  0  0  0  0  0  0  0  0  0
   57.2339   26.3013   47.4994 H   0  0  0  0  0  0  0  0  0  0  0  0
   56.9855   21.6601   49.3029 H   0  0  0  0  0  0  0  0  0  0  0  0
   55.4976   22.2001   48.5828 H   0  0  0  0  0  0  0  0  0  0  0  0
   57.8293   34.9252   45.8655 H   0  0  0  0  0  0  0  0  0  0  0  0
   58.4739   35.3190   47.4764 H   0  0  0  0  0  0  0  0  0  0  0  0
   59.9435   33.6806   45.3362 H   0  0  0  0  0  0  0  0  0  0  0  0
   60.2330   35.4179   45.6757 H   0  0  0  0  0  0  0  0  0  0  0  0
  1  2  1  0
  2  3  1  0
  3  4  1  0
  4  5  1  0
  5  6  1  0
  6  7  1  0
  7  8  1  0
  8  9  1  0
  9 10  2  0
 10 11  1  0
 11 12  1  0
 12 13  2  0
 13 14  1  0
 14 15  2  0
 15 16  1  0
 16 17  2  0
 17 18  1  0
 18 19  2  0
 18 20  1  0
 20 21  1  0
 21 22  1  0
 13 23  1  0
  5 24  1  0
 24 25  1  0
 25  2  1  0
 23 10  1  0
 19 14  1  0
 22 17  1  0
  1 26  1  0
  1 27  1  0
  1 28  1  0
  3 29  1  0
  3 30  1  0
  4 31  1  0
  4 32  1  0
  6 33  1  0
  6 34  1  0
  7 35  1  0
  7 36  1  0
  8 37  1  0
  8 38  1  0
 11 39  1  0
 15 40  1  0
 16 41  1  0
 19 42  1  0
 21 43  1  0
 21 44  1  0
 24 45  1  0
 24 46  1  0
 25 47  1  0
 25 48  1  0
M  END
>  <smiles>  (30) 
CN1CCN(CCCN=c2[nH]nc(-c3ccc4c(c3)OCO4)o2)CC1

>  <score_type>  (30) 
oracle

>  <origin>  (30) 
adg

>  <m_score__min__energy>  (30) 
-7.8300000000000001

>  <m_primary>  (30) 
energy

$$$$
30:0
     RDKit          3D

 35 37  0  0  0  0  0  0  0  0999 V2000
   60.7620   26.3470   46.4370 C   0  0  0  0  0  0  0  0  0  0  0  0
   59.7330   27.2930   45.8940 C   0  0  0  0  0  0  0  0  0  0  0  0
   58.3750   27.1100   46.1950 C   0  0  0  0  0  0  0  0  0  0  0  0
   57.4140   27.9760   45.6670 C   0  0  0  0  0  0  0  0  0  0  0  0
   57.7980   29.0250   44.8210 C   0  0  0  0  0  0  0  0  0  0  0  0
   56.5920   30.1730   44.2460 S   0  0  0  0  0  0  0  0  0  0  0  0
   56.8880   30.5490   42.8220 O   0  0  0  0  0  0  0  0  0  0  0  0
   55.2210   29.5620   44.3120 O   0  0  0  0  0  0  0  0  0  0  0  0
   56.6480   31.5930   45.2330 N   0  0  0  0  0  0  0  0  0  0  0  0
   57.8610   32.3400   45.3450 C   0  0  0  0  0  0  0  0  0  0  0  0
   58.0570   33.4420   44.5080 C   0  0  0  0  0  0  0  0  0  0  0  0
   59.2000   34.2280   44.6340 C   0  0  0  0  0  0  0  0  0  0  0  0
   60.1580   33.9300   45.6040 C   0  0  0  0  0  0  0  0  0  0  0  0
   59.9860   32.8300   46.4650 C   0  0  0  0  0  0  0  0  0  0  0  0
   60.9340   32.5220   47.4670 C   0  0  0  0  0  0  0  0  0  0  0  0
   62.3940   33.4800   47.7120 Cl  0  0  0  0  0  0  0  0  0  0  0  0
   60.7250   31.4270   48.3110 C   0  0  0  0  0  0  0  0  0  0  0  0
   59.5920   30.6280   48.1690 C   0  0  0  0  0  0  0  0  0  0  0  0
   58.6500   30.9160   47.1830 C   0  0  0  0  0  0  0  0  0  0  0  0
   58.8260   32.0180   46.3260 C   0  0  0  0  0  0  0  0  0  0  0  0
   59.1510   29.1990   44.5040 C   0  0  0  0  0  0  0  0  0  0  0  0
   60.1140   28.3320   45.0310 C   0  0  0  0  0  0  0  0  0  0  0  0
   60.7371   26.3699   47.5365 H   0  0  0  0  0  0  0  0  0  0  0  0
   60.5440   25.3274   46.0864 H   0  0  0  0  0  0  0  0  0  0  0  0
   61.7597   26.6498   46.0864 H   0  0  0  0  0  0  0  0  0  0  0  0
   58.0656   26.2816   46.8492 H   0  0  0  0  0  0  0  0  0  0  0  0
   56.3521   27.8338   45.9163 H   0  0  0  0  0  0  0  0  0  0  0  0
   57.3042   33.6900   43.7453 H   0  0  0  0  0  0  0  0  0  0  0  0
   59.3484   35.0885   43.9651 H   0  0  0  0  0  0  0  0  0  0  0  0
   61.0550   34.5600   45.6964 H   0  0  0  0  0  0  0  0  0  0  0  0
   61.4615   31.1941   49.0941 H   0  0  0  0  0  0  0  0  0  0  0  0
   59.4407   29.7674   48.8372 H   0  0  0  0  0  0  0  0  0  0  0  0
   57.7616   30.2765   47.0739 H   0  0  0  0  0  0  0  0  0  0  0  0
   59.4573   30.0197   43.8387 H   0  0  0  0  0  0  0  0  0  0  0  0
   61.1738   28.4651   44.7680 H   0  0  0  0  0  0  0  0  0  0  0  0
  1  2  1  0
  2  3  2  0
  3  4  1  0
  4  5  2  0
  5  6  1  0
  6  7  2  0
  6  8  2  0
  6  9  1  0
  9 10  1  0
 10 11  2  0
 11 12  1  0
 12 13  2  0
 13 14  1  0
 14 15  2  0
 15 16  1  0
 15 17  1  0
 17 18  2  0
 18 19  1  0
 19 20  2  0
  5 21  1  0
 21 22  2  0
 22  2  1  0
 20 10  1  0
 20 14  1  0
  1 23  1  0
  1 24  1  0
  1 25  1  0
  3 26  1  0
  4 27  1  0
 11 28  1  0
 12 29  1  0
 13 30  1  0
 17 31  1  0
 18 32  1  0
 19 33  1  0
 21 34  1  0
 22 35  1  0
M  CHG  1   9  -1
M  END
>  <UniqueID>  (31) 
25

>  <SMILES>  (31) 
Cc1ccc(S(=O)(=O)[N-]c2cccc3c(Cl)cccc23)cc1

>  <Energy>  (31) 
50.3460939434839

>  <Genealogy>  (31) 
Cc1ccc(S(=O)(=O)[N-]c2cccc3c(Cl)cccc23)cc1 (protonated)
Cc1ccc(S(=O)(=O)[N-]c2cccc3c(Cl)cccc23)cc1 (3D coordinates assigned)
Cc1ccc(S(=O)(=O)[N-]c2cccc3c(Cl)cccc23)cc1 (optimized conformer: 50.3460939434839 kcal/mol)

>  <smiles>  (31) 
Cc1ccc(S(=O)(=O)Nc2cccc3c(Cl)cccc23)cc1

>  <score_type>  (31) 
oracle

>  <origin>  (31) 
adg

>  <m_score__min__energy>  (31) 
-9.7300000000000004

>  <m_primary>  (31) 
energy

$$$$
31:0
     RDKit          3D

 50 52  0  0  0  0  0  0  0  0999 V2000
   57.4690   31.9940   41.7990 C   0  0  0  0  0  0  0  0  0  0  0  0
   57.4030   31.4690   43.1690 N   0  0  0  0  0  0  0  0  0  0  0  0
   56.6130   30.2580   43.4260 C   0  0  0  0  0  0  0  0  0  0  0  0
   58.1020   32.1370   44.2510 C   0  0  0  0  0  0  0  0  0  0  0  0
   58.5010   33.4830   44.1330 C   0  0  0  0  0  0  0  0  0  0  0  0
   59.1740   34.1230   45.1750 C   0  0  0  0  0  0  0  0  0  0  0  0
   59.4910   33.4430   46.3640 C   0  0  0  0  0  0  0  0  0  0  0  0
   60.2100   34.2200   47.4750 C   0  0  1  0  0  0  0  0  0  0  0  0
   59.4090   34.4510   48.7020 N   0  0  0  0  0  0  0  0  0  0  0  0
   59.6520   33.4700   49.7800 C   0  0  0  0  0  0  0  0  0  0  0  0
   58.6750   32.2940   49.6840 C   0  0  0  0  0  0  0  0  0  0  0  0
   59.4070   31.0520   49.4480 N   0  0  0  0  0  0  0  0  0  0  0  0
   60.6740   30.7930   49.8200 C   0  0  0  0  0  0  0  0  0  0  0  0
   60.9960   29.4910   49.4970 C   0  0  0  0  0  0  0  0  0  0  0  0
   59.8700   28.9370   48.9170 C   0  0  0  0  0  0  0  0  0  0  0  0
   58.9050   29.9230   48.9090 C   0  0  0  0  0  0  0  0  0  0  0  0
   61.5810   33.6390   47.8070 C   0  0  0  0  0  0  0  0  0  0  0  0
   62.3450   34.2090   48.8400 C   0  0  0  0  0  0  0  0  0  0  0  0
   63.5890   33.6720   49.1840 C   0  0  0  0  0  0  0  0  0  0  0  0
   64.0790   32.5510   48.5090 C   0  0  0  0  0  0  0  0  0  0  0  0
   63.3230   31.9620   47.4930 C   0  0  0  0  0  0  0  0  0  0  0  0
   62.0780   32.4980   47.1450 C   0  0  0  0  0  0  0  0  0  0  0  0
   59.0660   32.1050   46.4950 C   0  0  0  0  0  0  0  0  0  0  0  0
   58.3920   31.4620   45.4530 C   0  0  0  0  0  0  0  0  0  0  0  0
   57.6062   33.0850   41.8306 H   0  0  0  0  0  0  0  0  0  0  0  0
   58.3163   31.5331   41.2701 H   0  0  0  0  0  0  0  0  0  0  0  0
   56.5340   31.7572   41.2701 H   0  0  0  0  0  0  0  0  0  0  0  0
   56.5149   30.1077   44.5113 H   0  0  0  0  0  0  0  0  0  0  0  0
   55.6139   30.3704   42.9796 H   0  0  0  0  0  0  0  0  0  0  0  0
   57.1184   29.3889   42.9796 H   0  0  0  0  0  0  0  0  0  0  0  0
   58.2795   34.0363   43.2085 H   0  0  0  0  0  0  0  0  0  0  0  0
   59.4617   35.1789   45.0638 H   0  0  0  0  0  0  0  0  0  0  0  0
   60.3598   35.2180   47.0373 H   0  0  0  0  0  0  0  0  0  0  0  0
   58.3930   34.4960   48.4530 H   0  0  0  0  0  0  0  0  0  0  0  0
   59.6540   35.3990   49.0750 H   0  0  0  0  0  0  0  0  0  0  0  0
   60.6810   33.0904   49.6954 H   0  0  0  0  0  0  0  0  0  0  0  0
   59.5036   33.9702   50.7484 H   0  0  0  0  0  0  0  0  0  0  0  0
   58.1116   32.2112   50.6251 H   0  0  0  0  0  0  0  0  0  0  0  0
   57.9823   32.4685   48.8475 H   0  0  0  0  0  0  0  0  0  0  0  0
   61.3503   31.5105   50.3076 H   0  0  0  0  0  0  0  0  0  0  0  0
   61.9608   28.9910   49.6677 H   0  0  0  0  0  0  0  0  0  0  0  0
   59.7641   27.9105   48.5362 H   0  0  0  0  0  0  0  0  0  0  0  0
   57.8821   29.8057   48.5219 H   0  0  0  0  0  0  0  0  0  0  0  0
   61.9606   35.0853   49.3825 H   0  0  0  0  0  0  0  0  0  0  0  0
   64.1829   34.1326   49.9872 H   0  0  0  0  0  0  0  0  0  0  0  0
   65.0601   32.1324   48.7778 H   0  0  0  0  0  0  0  0  0  0  0  0
   63.7066   31.0760   46.9659 H   0  0  0  0  0  0  0  0  0  0  0  0
   61.4831   32.0257   46.3494 H   0  0  0  0  0  0  0  0  0  0  0  0
   59.2675   31.5603   47.4292 H   0  0  0  0  0  0  0  0  0  0  0  0
   58.0833   30.4131   45.5733 H   0  0  0  0  0  0  0  0  0  0  0  0
  1  2  1  0
  2  3  1  0
  2  4  1  0
  4  5  2  0
  5  6  1  0
  6  7  2  0
  7  8  1  0
  8  9  1  0
  9 10  1  0
 10 11  1  0
 11 12  1  0
 12 13  1  0
 13 14  2  0
 14 15  1  0
 15 16  2  0
  8 17  1  0
 17 18  2  0
 18 19  1  0
 19 20  2  0
 20 21  1  0
 21 22  2  0
  7 23  1  0
 23 24  2  0
 24  4  1  0
 16 12  1  0
 22 17  1  0
  1 25  1  0
  1 26  1  0
  1 27  1  0
  3 28  1  0
  3 29  1  0
  3 30  1  0
  5 31  1  0
  6 32  1  0
  8 33  1  6
  9 34  1  0
  9 35  1  0
 10 36  1  0
 10 37  1  0
 11 38  1  0
 11 39  1  0
 13 40  1  0
 14 41  1  0
 15 42  1  0
 16 43  1  0
 18 44  1  0
 19 45  1  0
 20 46  1  0
 21 47  1  0
 22 48  1  0
 23 49  1  0
 24 50  1  0
M  CHG  1   9   1
M  END
>  <UniqueID>  (32) 
26

>  <SMILES>  (32) 
CN(C)c1ccc([C@@H]([NH2+]CCn2cccc2)c2ccccc2)cc1

>  <Energy>  (32) 
84.18614595660688

>  <Genealogy>  (32) 
CN(C)c1ccc(C([NH2+]CCn2cccc2)c2ccccc2)cc1 (protonated)
CN(C)c1ccc([C@@H]([NH2+]CCn2cccc2)c2ccccc2)cc1 (chirality)
CN(C)c1ccc([C@@H]([NH2+]CCn2cccc2)c2ccccc2)cc1 (3D coordinates assigned)
CN(C)c1ccc([C@@H]([NH2+]CCn2cccc2)c2ccccc2)cc1 (optimized conformer: 84.18614595660688 kcal/mol)

>  <smiles>  (32) 
CN(C)c1ccc(C(NCCn2cccc2)c2ccccc2)cc1

>  <score_type>  (32) 
oracle

>  <origin>  (32) 
adg

>  <m_score__min__energy>  (32) 
-5.2300000000000004

>  <m_primary>  (32) 
energy

$$$$
32:0
     RDKit          3D

 37 39  0  0  0  0  0  0  0  0999 V2000
   58.2150   25.9030   47.4760 C   0  0  0  0  0  0  0  0  0  0  0  0
   58.6710   26.9060   46.4580 C   0  0  0  0  0  0  0  0  0  0  0  0
   59.9630   27.4480   46.5280 C   0  0  0  0  0  0  0  0  0  0  0  0
   60.3980   28.3550   45.5600 C   0  0  0  0  0  0  0  0  0  0  0  0
   59.5550   28.7130   44.5050 C   0  0  0  0  0  0  0  0  0  0  0  0
   58.2720   28.1620   44.4020 C   0  0  0  0  0  0  0  0  0  0  0  0
   57.4730   28.5430   43.3090 O   0  0  0  0  0  0  0  0  0  0  0  0
   56.8810   29.8280   43.1250 C   0  0  0  0  0  0  0  0  0  0  0  0
   56.0720   30.2080   44.3250 C   0  0  0  0  0  0  0  0  0  0  0  0
   55.3470   29.3410   44.8830 O   0  0  0  0  0  0  0  0  0  0  0  0
   56.1910   31.5270   44.8710 N   0  0  0  0  0  0  0  0  0  0  0  0
   57.4030   32.1950   45.2470 C   0  0  0  0  0  0  0  0  0  0  0  0
   57.6700   33.5360   44.8680 C   0  0  0  0  0  0  0  0  0  0  0  0
   58.8760   34.1570   45.2390 C   0  0  0  0  0  0  0  0  0  0  0  0
   59.8120   33.4270   45.9700 C   0  0  0  0  0  0  0  0  0  0  0  0
   61.0080   33.9130   46.3880 N   0  0  0  0  0  0  0  0  0  0  0  0
   61.7070   32.9660   47.0620 C   0  0  0  0  0  0  0  0  0  0  0  0
   63.0300   33.2260   47.6960 C   0  0  0  0  0  0  0  0  0  0  0  0
   60.8560   31.5070   47.1870 S   0  0  0  0  0  0  0  0  0  0  0  0
   59.5540   32.1120   46.3190 C   0  0  0  0  0  0  0  0  0  0  0  0
   58.3700   31.4720   45.9680 C   0  0  0  0  0  0  0  0  0  0  0  0
   57.8320   27.2560   45.3880 C   0  0  0  0  0  0  0  0  0  0  0  0
   58.3948   26.2985   48.4866 H   0  0  0  0  0  0  0  0  0  0  0  0
   57.1403   25.7092   47.3440 H   0  0  0  0  0  0  0  0  0  0  0  0
   58.7755   24.9658   47.3440 H   0  0  0  0  0  0  0  0  0  0  0  0
   60.6356   27.1573   47.3484 H   0  0  0  0  0  0  0  0  0  0  0  0
   61.4066   28.7887   45.6281 H   0  0  0  0  0  0  0  0  0  0  0  0
   59.9019   29.4333   43.7495 H   0  0  0  0  0  0  0  0  0  0  0  0
   57.6749   30.5740   42.9724 H   0  0  0  0  0  0  0  0  0  0  0  0
   56.2201   29.7931   42.2464 H   0  0  0  0  0  0  0  0  0  0  0  0
   56.9275   34.0945   44.2791 H   0  0  0  0  0  0  0  0  0  0  0  0
   59.0773   35.2010   44.9572 H   0  0  0  0  0  0  0  0  0  0  0  0
   62.9226   33.2049   48.7905 H   0  0  0  0  0  0  0  0  0  0  0  0
   63.7453   32.4513   47.3828 H   0  0  0  0  0  0  0  0  0  0  0  0
   63.3989   34.2138   47.3828 H   0  0  0  0  0  0  0  0  0  0  0  0
   58.1938   30.4230   46.2483 H   0  0  0  0  0  0  0  0  0  0  0  0
   56.8244   26.8202   45.3187 H   0  0  0  0  0  0  0  0  0  0  0  0
  1  2  1  0
  2  3  2  0
  3  4  1  0
  4  5  2  0
  5  6  1  0
  6  7  1  0
  7  8  1  0
  8  9  1  0
  9 10  2  0
  9 11  1  0
 11 12  1  0
 12 13  2  0
 13 14  1  0
 14 15  2  0
 15 16  1  0
 16 17  2  0
 17 18  1  0
 17 19  1  0
 19 20  1  0
 20 21  2  0
  6 22  2  0
 22  2  1  0
 21 12  1  0
 20 15  1  0
  1 23  1  0
  1 24  1  0
  1 25  1  0
  3 26  1  0
  4 27  1  0
  5 28  1  0
  8 29  1  0
  8 30  1  0
 13 31  1  0
 14 32  1  0
 18 33  1  0
 18 34  1  0
 18 35  1  0
 21 36  1  0
 22 37  1  0
M  CHG  1  11  -1
M  END
>  <UniqueID>  (33) 
27

>  <SMILES>  (33) 
Cc1cccc(OCC(=O)[N-]c2ccc3nc(C)sc3c2)c1

>  <Energy>  (33) 
73.54421679009374

>  <Genealogy>  (33) 
Cc1cccc(OCC(=O)[N-]c2ccc3nc(C)sc3c2)c1 (protonated)
Cc1cccc(OCC(=O)[N-]c2ccc3nc(C)sc3c2)c1 (3D coordinates assigned)
Cc1cccc(OCC(=O)[N-]c2ccc3nc(C)sc3c2)c1 (optimized conformer: 73.54421679009374 kcal/mol)

>  <smiles>  (33) 
Cc1cccc(OCC(=O)Nc2ccc3nc(C)sc3c2)c1

>  <score_type>  (33) 
oracle

>  <origin>  (33) 
adg

>  <m_score__min__energy>  (33) 
-9.0800000000000001

>  <m_primary>  (33) 
energy

$$$$
33:0
     RDKit          3D

 40 43  0  0  1  0  0  0  0  0999 V2000
   58.1670   33.9540   46.7690 C   0  0  0  0  0  0  0  0  0  0  0  0
   58.2890   33.6990   45.2820 C   0  0  0  0  0  0  0  0  0  0  0  0
   57.9820   32.2830   45.0760 N   0  0  0  0  0  0  0  0  0  0  0  0
   57.4210   31.8480   43.9240 C   0  0  0  0  0  0  0  0  0  0  0  0
   57.2800   30.4850   44.0840 C   0  0  0  0  0  0  0  0  0  0  0  0
   56.7150   29.6400   43.0720 C   0  0  0  0  0  0  0  0  0  0  0  0
   56.2670   28.9730   42.2410 N   0  0  0  0  0  0  0  0  0  0  0  0
   57.7490   30.0910   45.3200 C   0  0  0  0  0  0  0  0  0  0  0  0
   57.7830   28.7450   45.8840 C   0  0  0  0  0  0  0  0  0  0  0  0
   58.9390   28.3220   46.5070 C   0  0  0  0  0  0  0  0  0  0  0  0
   59.0770   27.0690   47.0720 C   0  0  0  0  0  0  0  0  0  0  0  0
   57.9990   26.2570   46.9840 N   0  0  0  0  0  0  0  0  0  0  0  0
   56.8560   26.6720   46.3700 C   0  0  0  0  0  0  0  0  0  0  0  0
   55.8950   25.8150   46.3460 N   0  0  0  0  0  0  0  0  0  0  0  0
   56.1700   24.5080   45.8540 C   0  0  0  0  0  0  0  0  0  0  0  0
   56.6810   23.5000   46.6480 C   0  0  0  0  0  0  0  0  0  0  0  0
   56.8970   22.2800   46.0320 C   0  0  0  0  0  0  0  0  0  0  0  0
   56.6320   22.0410   44.7070 C   0  0  0  0  0  0  0  0  0  0  0  0
   56.7440   20.9850   43.8790 N   0  0  0  0  0  0  0  0  0  0  0  0
   56.3250   21.3260   42.6520 N   0  0  0  0  0  0  0  0  0  0  0  0
   55.9270   22.6070   42.6270 C   0  0  0  0  0  0  0  0  0  0  0  0
   56.1220   23.0610   43.9340 C   0  0  0  0  0  0  0  0  0  0  0  0
   55.8870   24.2980   44.4990 C   0  0  0  0  0  0  0  0  0  0  0  0
   56.7400   27.8970   45.8250 N   0  0  0  0  0  0  0  0  0  0  0  0
   58.1870   31.2650   45.9200 C   0  0  0  0  0  0  0  0  0  0  0  0
   58.5772   33.0967   47.3229 H   0  0  0  0  0  0  0  0  0  0  0  0
   58.7278   34.8629   47.0324 H   0  0  0  0  0  0  0  0  0  0  0  0
   57.1074   34.0877   47.0324 H   0  0  0  0  0  0  0  0  0  0  0  0
   57.5749   34.3269   44.7290 H   0  0  0  0  0  0  0  0  0  0  0  0
   59.2977   33.9441   44.9181 H   0  0  0  0  0  0  0  0  0  0  0  0
   57.1383   32.4512   43.0486 H   0  0  0  0  0  0  0  0  0  0  0  0
   59.7914   29.0155   46.5562 H   0  0  0  0  0  0  0  0  0  0  0  0
   60.0079   26.7507   47.5640 H   0  0  0  0  0  0  0  0  0  0  0  0
   58.0720   25.2880   47.4090 H   0  0  0  0  0  0  0  0  0  0  0  0
   56.9044   23.6586   47.7133 H   0  0  0  0  0  0  0  0  0  0  0  0
   57.3034   21.4566   46.6376 H   0  0  0  0  0  0  0  0  0  0  0  0
   57.1010   20.0530   44.1610 H   0  0  0  0  0  0  0  0  0  0  0  0
   55.5348   23.1733   41.7693 H   0  0  0  0  0  0  0  0  0  0  0  0
   55.4789   25.1159   43.8871 H   0  0  0  0  0  0  0  0  0  0  0  0
   58.6296   31.3446   46.9239 H   0  0  0  0  0  0  0  0  0  0  0  0
  1  2  1  0
  2  3  1  0
  3  4  1  0
  4  5  2  0
  5  6  1  0
  6  7  3  0
  5  8  1  0
  8  9  1  0
  9 10  1  0
 10 11  2  0
 11 12  1  0
 12 13  1  0
 13 14  2  0
 14 15  1  0
 15 16  2  0
 16 17  1  0
 17 18  2  0
 18 19  1  0
 19 20  1  0
 20 21  2  0
 21 22  1  0
 22 23  2  0
 13 24  1  0
  8 25  2  0
 25  3  1  0
 24  9  2  0
 23 15  1  0
 22 18  1  0
  1 26  1  0
  1 27  1  0
  1 28  1  0
  2 29  1  0
  2 30  1  0
  4 31  1  0
 10 32  1  0
 11 33  1  0
 12 34  1  0
 16 35  1  0
 17 36  1  0
 19 37  1  0
 21 38  1  0
 23 39  1  0
 25 40  1  0
M  END
>  <smiles>  (34) 
CCn1cc(C#N)c(-c2cc[nH]c(=Nc3ccc4[nH]ncc4c3)n2)c1

>  <score_type>  (34) 
oracle

>  <origin>  (34) 
adg

>  <m_score__min__energy>  (34) 
-8.1400000000000006

>  <m_primary>  (34) 
energy

$$$$
34:0
     RDKit          3D

 42 43  0  0  0  0  0  0  0  0999 V2000
   62.6000   34.2140   49.6400 C   0  0  0  0  0  0  0  0  0  0  0  0
   63.7140   33.2940   49.1420 C   0  0  0  0  0  0  0  0  0  0  0  0
   63.6850   33.1080   47.6190 C   0  0  0  0  0  0  0  0  0  0  0  0
   62.2850   32.9120   47.1090 C   0  0  0  0  0  0  0  0  0  0  0  0
   61.6550   31.6500   47.2070 C   0  0  0  0  0  0  0  0  0  0  0  0
   60.3320   31.5140   46.7600 C   0  0  0  0  0  0  0  0  0  0  0  0
   59.6430   30.2620   46.8600 N   0  0  0  0  0  0  0  0  0  0  0  0
   59.2720   29.7610   48.1820 C   0  0  0  0  0  0  0  0  0  0  0  0
   59.2870   29.5250   45.6450 C   0  0  0  0  0  0  0  0  0  0  0  0
   57.7700   29.3200   45.5590 C   0  0  0  0  0  0  0  0  0  0  0  0
   57.1300   30.5390   45.2350 O   0  0  0  0  0  0  0  0  0  0  0  0
   56.6710   30.5140   43.9010 C   0  0  0  0  0  0  0  0  0  0  0  0
   59.7210   32.6120   46.2460 N   0  0  0  0  0  0  0  0  0  0  0  0
   58.4850   32.7220   45.7920 N   0  0  0  0  0  0  0  0  0  0  0  0
   58.3110   34.0050   45.4000 C   0  0  0  0  0  0  0  0  0  0  0  0
   57.0200   34.5570   44.8900 C   0  0  0  0  0  0  0  0  0  0  0  0
   59.4730   34.7400   45.6340 C   0  0  0  0  0  0  0  0  0  0  0  0
   60.3310   33.8010   46.1640 C   0  0  0  0  0  0  0  0  0  0  0  0
   61.6040   33.9790   46.5920 N   0  0  0  0  0  0  0  0  0  0  0  0
   62.5933   34.2195   50.7400 H   0  0  0  0  0  0  0  0  0  0  0  0
   62.7743   35.2349   49.2692 H   0  0  0  0  0  0  0  0  0  0  0  0
   61.6305   33.8498   49.2692 H   0  0  0  0  0  0  0  0  0  0  0  0
   64.6838   33.7285   49.4260 H   0  0  0  0  0  0  0  0  0  0  0  0
   63.5631   32.3065   49.6025 H   0  0  0  0  0  0  0  0  0  0  0  0
   64.1161   34.0009   47.1427 H   0  0  0  0  0  0  0  0  0  0  0  0
   64.2686   32.2088   47.3724 H   0  0  0  0  0  0  0  0  0  0  0  0
   62.1938   30.7880   47.6273 H   0  0  0  0  0  0  0  0  0  0  0  0
   59.7372   30.3892   48.9560 H   0  0  0  0  0  0  0  0  0  0  0  0
   58.1780   29.7929   48.2925 H   0  0  0  0  0  0  0  0  0  0  0  0
   59.6216   28.7239   48.2925 H   0  0  0  0  0  0  0  0  0  0  0  0
   59.6247   30.0936   44.7660 H   0  0  0  0  0  0  0  0  0  0  0  0
   59.7754   28.5398   45.6737 H   0  0  0  0  0  0  0  0  0  0  0  0
   57.5476   28.5748   44.7810 H   0  0  0  0  0  0  0  0  0  0  0  0
   57.3996   28.9679   46.5331 H   0  0  0  0  0  0  0  0  0  0  0  0
   55.5727   30.4542   43.8922 H   0  0  0  0  0  0  0  0  0  0  0  0
   56.9924   31.4310   43.3854 H   0  0  0  0  0  0  0  0  0  0  0  0
   57.0901   29.6373   43.3854 H   0  0  0  0  0  0  0  0  0  0  0  0
   57.7750   31.9550   45.7670 H   0  0  0  0  0  0  0  0  0  0  0  0
   56.3776   34.8317   45.7396 H   0  0  0  0  0  0  0  0  0  0  0  0
   57.2190   35.4487   44.2774 H   0  0  0  0  0  0  0  0  0  0  0  0
   56.5128   33.7971   44.2774 H   0  0  0  0  0  0  0  0  0  0  0  0
   59.6589   35.8071   45.4425 H   0  0  0  0  0  0  0  0  0  0  0  0
  1  2  1  0
  2  3  1  0
  3  4  1  0
  4  5  1  0
  5  6  2  0
  6  7  1  0
  7  8  1  0
  7  9  1  0
  9 10  1  0
 10 11  1  0
 11 12  1  0
  6 13  1  0
 13 14  1  0
 14 15  2  0
 15 16  1  0
 15 17  1  0
 17 18  2  0
 18 19  1  0
 19  4  2  0
 18 13  1  0
  1 20  1  0
  1 21  1  0
  1 22  1  0
  2 23  1  0
  2 24  1  0
  3 25  1  0
  3 26  1  0
  5 27  1  0
  8 28  1  0
  8 29  1  0
  8 30  1  0
  9 31  1  0
  9 32  1  0
 10 33  1  0
 10 34  1  0
 12 35  1  0
 12 36  1  0
 12 37  1  0
 14 38  1  0
 16 39  1  0
 16 40  1  0
 16 41  1  0
 17 42  1  0
M  CHG  1  14   1
M  END
>  <UniqueID>  (35) 
28

>  <SMILES>  (35) 
CCCc1cc(N(C)CCOC)n2[nH+]c(C)cc2n1

>  <Energy>  (35) 
75.5174275181453

>  <Genealogy>  (35) 
CCCc1cc(N(C)CCOC)n2[nH+]c(C)cc2n1 (protonated)
CCCc1cc(N(C)CCOC)n2[nH+]c(C)cc2n1 (3D coordinates assigned)
CCCc1cc(N(C)CCOC)n2[nH+]c(C)cc2n1 (optimized conformer: 75.5174275181453 kcal/mol)

>  <smiles>  (35) 
CCCc1cc(N(C)CCOC)n2nc(C)cc2n1

>  <score_type>  (35) 
oracle

>  <origin>  (35) 
adg

>  <m_score__min__energy>  (35) 
-4.1900000000000004

>  <m_primary>  (35) 
energy

$$$$
35:0
     RDKit          3D

 45 47  0  0  0  0  0  0  0  0999 V2000
   60.1680   34.2150   49.0450 C   0  0  0  0  0  0  0  0  0  0  0  0
   59.5370   33.2030   48.4480 C   0  0  0  0  0  0  0  0  0  0  0  0
   58.9500   33.2840   47.0840 C   0  0  0  0  0  0  0  0  0  0  0  0
   58.7350   34.5240   46.4510 C   0  0  0  0  0  0  0  0  0  0  0  0
   58.1660   34.5860   45.1760 C   0  0  0  0  0  0  0  0  0  0  0  0
   57.7940   33.4180   44.5130 C   0  0  0  0  0  0  0  0  0  0  0  0
   57.9840   32.1730   45.1250 C   0  0  0  0  0  0  0  0  0  0  0  0
   57.6080   30.9890   44.4770 C   0  0  0  0  0  0  0  0  0  0  0  0
   57.8050   29.7530   45.1060 C   0  0  0  0  0  0  0  0  0  0  0  0
   57.4210   28.5600   44.4800 C   0  0  0  0  0  0  0  0  0  0  0  0
   57.6200   27.3380   45.1230 C   0  0  0  0  0  0  0  0  0  0  0  0
   58.2020   27.2960   46.3920 C   0  0  0  0  0  0  0  0  0  0  0  0
   58.5960   28.4790   47.0420 C   0  0  0  0  0  0  0  0  0  0  0  0
   59.2280   28.4090   48.3830 C   0  0  0  0  0  0  0  0  0  0  0  0
   59.9910   27.4430   48.6610 O   0  0  0  0  0  0  0  0  0  0  0  0
   58.9810   29.4270   49.3650 N   0  0  0  0  0  0  0  0  0  0  0  0
   59.5760   29.3890   50.7000 C   0  0  0  0  0  0  0  0  0  0  0  0
   58.5470   29.8060   51.7580 C   0  0  0  0  0  0  0  0  0  0  0  0
   57.4050   30.5080   51.1300 N   0  0  0  0  0  0  0  0  0  0  0  0
   57.7390   31.9150   50.8480 C   0  0  0  0  0  0  0  0  0  0  0  0
   56.2270   30.4540   52.0110 C   0  0  0  0  0  0  0  0  0  0  0  0
   58.3950   29.7180   46.3900 C   0  0  0  0  0  0  0  0  0  0  0  0
   58.7450   30.8850   46.9960 N   0  0  0  0  0  0  0  0  0  0  0  0
   58.5600   32.1010   46.4150 C   0  0  0  0  0  0  0  0  0  0  0  0
   60.5791   34.0864   50.0571 H   0  0  0  0  0  0  0  0  0  0  0  0
   60.2773   35.1783   48.5252 H   0  0  0  0  0  0  0  0  0  0  0  0
   59.4455   32.2537   48.9961 H   0  0  0  0  0  0  0  0  0  0  0  0
   59.0181   35.4538   46.9660 H   0  0  0  0  0  0  0  0  0  0  0  0
   58.0109   35.5621   44.6931 H   0  0  0  0  0  0  0  0  0  0  0  0
   57.3507   33.4742   43.5079 H   0  0  0  0  0  0  0  0  0  0  0  0
   57.1580   31.0301   43.4741 H   0  0  0  0  0  0  0  0  0  0  0  0
   56.9622   28.5868   43.4806 H   0  0  0  0  0  0  0  0  0  0  0  0
   57.3172   26.4033   44.6283 H   0  0  0  0  0  0  0  0  0  0  0  0
   58.3539   26.3263   46.8886 H   0  0  0  0  0  0  0  0  0  0  0  0
   58.3710   30.2410   49.1270 H   0  0  0  0  0  0  0  0  0  0  0  0
   59.9211   28.3666   50.9137 H   0  0  0  0  0  0  0  0  0  0  0  0
   60.4236   30.0894   50.7321 H   0  0  0  0  0  0  0  0  0  0  0  0
   58.1782   28.9086   52.2763 H   0  0  0  0  0  0  0  0  0  0  0  0
   59.0313   30.4879   52.4725 H   0  0  0  0  0  0  0  0  0  0  0  0
   57.8680   32.4583   51.7957 H   0  0  0  0  0  0  0  0  0  0  0  0
   58.6731   31.9612   50.2689 H   0  0  0  0  0  0  0  0  0  0  0  0
   56.9253   32.3760   50.2689 H   0  0  0  0  0  0  0  0  0  0  0  0
   56.5536   30.4690   53.0613 H   0  0  0  0  0  0  0  0  0  0  0  0
   55.5824   31.3235   51.8150 H   0  0  0  0  0  0  0  0  0  0  0  0
   55.6647   29.5291   51.8150 H   0  0  0  0  0  0  0  0  0  0  0  0
  1  2  2  0
  2  3  1  0
  3  4  2  0
  4  5  1  0
  5  6  2  0
  6  7  1  0
  7  8  2  0
  8  9  1  0
  9 10  2  0
 10 11  1  0
 11 12  2  0
 12 13  1  0
 13 14  1  0
 14 15  2  0
 14 16  1  0
 16 17  1  0
 17 18  1  0
 18 19  1  0
 19 20  1  0
 19 21  1  0
 13 22  2  0
 22 23  1  0
 23 24  2  0
 24  3  1  0
 24  7  1  0
 22  9  1  0
  1 25  1  0
  1 26  1  0
  2 27  1  0
  4 28  1  0
  5 29  1  0
  6 30  1  0
  8 31  1  0
 10 32  1  0
 11 33  1  0
 12 34  1  0
 16 35  1  0
 17 36  1  0
 17 37  1  0
 18 38  1  0
 18 39  1  0
 20 40  1  0
 20 41  1  0
 20 42  1  0
 21 43  1  0
 21 44  1  0
 21 45  1  0
M  END
>  <UniqueID>  (36) 
29

>  <SMILES>  (36) 
C=Cc1cccc2cc3cccc(C(=O)NCCN(C)C)c3nc12

>  <Energy>  (36) 
56.19610451919034

>  <Genealogy>  (36) 
C=Cc1cccc2cc3cccc(C(=O)NCCN(C)C)c3nc12 (3D coordinates assigned)
C=Cc1cccc2cc3cccc(C(=O)NCCN(C)C)c3nc12 (optimized conformer: 56.19610451919034 kcal/mol)

>  <smiles>  (36) 
C=Cc1cccc2cc3cccc(C(=O)NCCN(C)C)c3nc12

>  <score_type>  (36) 
oracle

>  <origin>  (36) 
adg

>  <m_score__min__energy>  (36) 
-8.0600000000000005

>  <m_primary>  (36) 
energy

$$$$
36:0
     RDKit          3D

 48 53  0  0  0  0  0  0  0  0999 V2000
   55.5350   30.0770   44.8950 O   0  0  0  0  0  0  0  0  0  0  0  0
   56.6810   29.6020   45.1160 C   0  0  0  0  0  0  0  0  0  0  0  0
   56.9860   28.2180   45.3570 C   0  0  0  0  0  0  0  0  0  0  0  0
   56.1630   27.1830   45.4220 O   0  0  0  0  0  0  0  0  0  0  0  0
   56.6370   25.9560   45.6490 C   0  0  0  0  0  0  0  0  0  0  0  0
   55.7530   24.8740   45.7180 C   0  0  0  0  0  0  0  0  0  0  0  0
   56.2390   23.5840   45.9530 C   0  0  0  0  0  0  0  0  0  0  0  0
   57.6090   23.3660   46.1210 C   0  0  0  0  0  0  0  0  0  0  0  0
   58.5080   24.4340   46.0550 C   0  0  0  0  0  0  0  0  0  0  0  0
   58.0370   25.7390   45.8210 C   0  0  0  0  0  0  0  0  0  0  0  0
   58.9080   26.8490   45.7460 C   0  0  0  0  0  0  0  0  0  0  0  0
   60.1550   26.7210   45.8770 O   0  0  0  0  0  0  0  0  0  0  0  0
   58.3460   28.1030   45.5190 C   0  0  0  0  0  0  0  0  0  0  0  0
   59.0140   29.4480   45.3630 C   0  0  2  0  0  0  0  0  0  0  0  0
   59.8150   29.8350   46.5870 C   0  0  0  0  0  0  0  0  0  0  0  0
   61.0250   30.5310   46.4290 C   0  0  0  0  0  0  0  0  0  0  0  0
   61.7800   30.9030   47.5450 C   0  0  0  0  0  0  0  0  0  0  0  0
   61.3340   30.5850   48.8300 C   0  0  0  0  0  0  0  0  0  0  0  0
   60.1320   29.8950   49.0000 C   0  0  0  0  0  0  0  0  0  0  0  0
   59.3710   29.5210   47.8890 C   0  0  0  0  0  0  0  0  0  0  0  0
   58.2060   28.8520   48.0860 F   0  0  0  0  0  0  0  0  0  0  0  0
   57.8830   30.3680   45.1530 N   0  0  0  0  0  0  0  0  0  0  0  0
   58.0100   31.7580   44.7170 C   0  0  0  0  0  0  0  0  0  0  0  0
   58.6700   32.5780   45.7870 C   0  0  0  0  0  0  0  0  0  0  0  0
   59.5590   33.6280   45.4380 C   0  0  0  0  0  0  0  0  0  0  0  0
   60.1460   34.4270   46.4350 C   0  0  0  0  0  0  0  0  0  0  0  0
   59.8200   34.1570   47.7600 C   0  0  0  0  0  0  0  0  0  0  0  0
   58.9650   33.1610   48.1010 C   0  0  0  0  0  0  0  0  0  0  0  0
   58.3620   32.3470   47.1470 C   0  0  0  0  0  0  0  0  0  0  0  0
   58.8220   33.1260   49.4740 O   0  0  0  0  0  0  0  0  0  0  0  0
   59.6410   34.1640   50.0310 C   0  0  0  0  0  0  0  0  0  0  0  0
   60.2600   34.7970   48.9020 O   0  0  0  0  0  0  0  0  0  0  0  0
   54.6732   25.0383   45.5871 H   0  0  0  0  0  0  0  0  0  0  0  0
   55.5394   22.7368   46.0059 H   0  0  0  0  0  0  0  0  0  0  0  0
   57.9820   22.3479   46.3063 H   0  0  0  0  0  0  0  0  0  0  0  0
   59.5852   24.2541   46.1862 H   0  0  0  0  0  0  0  0  0  0  0  0
   59.7428   29.4592   44.5392 H   0  0  0  0  0  0  0  0  0  0  0  0
   61.3809   30.7851   45.4197 H   0  0  0  0  0  0  0  0  0  0  0  0
   62.7267   31.4469   47.4111 H   0  0  0  0  0  0  0  0  0  0  0  0
   61.9293   30.8779   49.7074 H   0  0  0  0  0  0  0  0  0  0  0  0
   59.7826   29.6448   50.0126 H   0  0  0  0  0  0  0  0  0  0  0  0
   58.6185   31.7976   43.8015 H   0  0  0  0  0  0  0  0  0  0  0  0
   57.0076   32.1654   44.5192 H   0  0  0  0  0  0  0  0  0  0  0  0
   59.7905   33.8181   44.3796 H   0  0  0  0  0  0  0  0  0  0  0  0
   60.8407   35.2395   46.1755 H   0  0  0  0  0  0  0  0  0  0  0  0
   57.6664   31.5477   47.4424 H   0  0  0  0  0  0  0  0  0  0  0  0
   59.0249   34.8850   50.5884 H   0  0  0  0  0  0  0  0  0  0  0  0
   60.3830   33.7682   50.7401 H   0  0  0  0  0  0  0  0  0  0  0  0
  1  2  2  0
  2  3  1  0
  3  4  1  0
  4  5  1  0
  5  6  2  0
  6  7  1  0
  7  8  2  0
  8  9  1  0
  9 10  2  0
 10 11  1  0
 11 12  2  0
 11 13  1  0
 13 14  1  0
 14 15  1  0
 15 16  2  0
 16 17  1  0
 17 18  2  0
 18 19  1  0
 19 20  2  0
 20 21  1  0
 14 22  1  0
 22 23  1  0
 23 24  1  0
 24 25  2  0
 25 26  1  0
 26 27  2  0
 27 28  1  0
 28 29  2  0
 28 30  1  0
 30 31  1  0
 31 32  1  0
 22  2  1  0
 29 24  1  0
 13  3  2  0
 20 15  1  0
 32 27  1  0
 10  5  1  0
  6 33  1  0
  7 34  1  0
  8 35  1  0
  9 36  1  0
 14 37  1  6
 16 38  1  0
 17 39  1  0
 18 40  1  0
 19 41  1  0
 23 42  1  0
 23 43  1  0
 25 44  1  0
 26 45  1  0
 29 46  1  0
 31 47  1  0
 31 48  1  0
M  END
>  <UniqueID>  (37) 
30

>  <SMILES>  (37) 
O=C1c2oc3ccccc3c(=O)c2[C@H](c2ccccc2F)N1Cc1ccc2c(c1)OCO2

>  <Energy>  (37) 
109.279852957982

>  <Genealogy>  (37) 
O=C1c2oc3ccccc3c(=O)c2[C@H](c2ccccc2F)N1Cc1ccc2c(c1)OCO2 (chirality)
O=C1c2oc3ccccc3c(=O)c2[C@H](c2ccccc2F)N1Cc1ccc2c(c1)OCO2 (3D coordinates assigned)
O=C1c2oc3ccccc3c(=O)c2[C@H](c2ccccc2F)N1Cc1ccc2c(c1)OCO2 (nonaromatic ring conformer: 109.279852957982 kcal/mol)

>  <smiles>  (37) 
O=C1c2oc3ccccc3c(=O)c2C(c2ccccc2F)N1Cc1ccc2c(c1)OCO2

>  <score_type>  (37) 
oracle

>  <origin>  (37) 
adg

>  <m_score__min__energy>  (37) 
-8.7599999999999998

>  <m_primary>  (37) 
energy

$$$$
37:0
     RDKit          3D

 33 34  0  0  0  0  0  0  0  0999 V2000
   60.2949   34.3530   48.6711 H   0  0  0  0  0  0  0  0  0  0  0  0
   59.7020   34.1290   47.7720 C   0  0  0  0  0  0  0  0  0  0  0  0
   58.7680   33.0900   47.7920 C   0  0  0  0  0  0  0  0  0  0  0  0
   58.6276   32.4954   48.7067 H   0  0  0  0  0  0  0  0  0  0  0  0
   58.0120   32.8050   46.6520 C   0  0  0  0  0  0  0  0  0  0  0  0
   57.2781   31.9858   46.6716 H   0  0  0  0  0  0  0  0  0  0  0  0
   58.1860   33.5610   45.4810 C   0  0  0  0  0  0  0  0  0  0  0  0
   57.3970   33.2400   44.2400 C   0  0  0  0  0  0  0  0  0  0  0  0
   57.3602   34.1315   43.5967 H   0  0  0  0  0  0  0  0  0  0  0  0
   56.3824   32.9377   44.5386 H   0  0  0  0  0  0  0  0  0  0  0  0
   58.1640   31.8660   43.3130 S   0  0  0  0  0  0  0  0  0  0  0  0
   57.2180   30.5850   44.1300 C   0  0  0  0  0  0  0  0  0  0  0  0
   55.9710   30.7700   44.6150 N   0  0  0  0  0  0  0  0  0  0  0  0
   55.4560   29.6760   45.1720 N   0  0  0  0  0  0  0  0  0  0  0  0
   56.2910   28.6150   45.1340 C   0  0  0  0  0  0  0  0  0  0  0  0
   55.9550   27.4570   45.6220 N   0  0  0  0  0  0  0  0  0  0  0  0
   56.7510   26.5880   46.4430 C   0  0  0  0  0  0  0  0  0  0  0  0
   56.2370   25.6250   47.0740 O   0  0  0  0  0  0  0  0  0  0  0  0
   58.2200   26.8530   46.5780 C   0  0  0  0  0  0  0  0  0  0  0  0
   58.6166   27.1678   45.6015 H   0  0  0  0  0  0  0  0  0  0  0  0
   58.7052   25.9272   46.9209 H   0  0  0  0  0  0  0  0  0  0  0  0
   58.5060   27.9520   47.6080 C   0  0  0  0  0  0  0  0  0  0  0  0
   58.7739   27.4788   48.5642 H   0  0  0  0  0  0  0  0  0  0  0  0
   57.5989   28.5670   47.7026 H   0  0  0  0  0  0  0  0  0  0  0  0
   59.6490   28.8710   47.1780 C   0  0  0  0  0  0  0  0  0  0  0  0
   60.1506   29.2743   48.0700 H   0  0  0  0  0  0  0  0  0  0  0  0
   60.3723   28.3001   46.5772 H   0  0  0  0  0  0  0  0  0  0  0  0
   59.2467   29.7000   46.5772 H   0  0  0  0  0  0  0  0  0  0  0  0
   57.7550   29.0100   44.3820 S   0  0  0  0  0  0  0  0  0  0  0  0
   59.1290   34.6010   45.4660 C   0  0  0  0  0  0  0  0  0  0  0  0
   59.2752   35.1952   44.5519 H   0  0  0  0  0  0  0  0  0  0  0  0
   59.8830   34.8840   46.6090 C   0  0  0  0  0  0  0  0  0  0  0  0
   60.6192   35.7012   46.5933 H   0  0  0  0  0  0  0  0  0  0  0  0
  1  2  1  0
  2  3  2  0
  3  4  1  0
  3  5  1  0
  5  6  1  0
  5  7  2  0
  7  8  1  0
  8  9  1  0
  8 10  1  0
  8 11  1  0
 11 12  1  0
 12 13  2  0
 13 14  1  0
 14 15  1  0
 15 16  2  0
 16 17  1  0
 17 18  2  0
 17 19  1  0
 19 20  1  0
 19 21  1  0
 19 22  1  0
 22 23  1  0
 22 24  1  0
 22 25  1  0
 25 26  1  0
 25 27  1  0
 25 28  1  0
 15 29  1  0
  7 30  1  0
 30 31  1  0
 30 32  2  0
 32 33  1  0
 32  2  1  0
 29 12  1  0
M  CHG  1  14  -1
M  END
>  <UniqueID>  (38) 
31

>  <SMILES>  (38) 
CCCC(=O)/N=c1/[n-]nc(SCc2ccccc2)s1

>  <Energy>  (38) 
60.40644288106424

>  <Genealogy>  (38) 
CCCC(=O)N=c1[n-]nc(SCc2ccccc2)s1 (protonated)
CCCC(=O)/N=c1/[n-]nc(SCc2ccccc2)s1 (cis-trans isomerization)
CCCC(=O)/N=c1/[n-]nc(SCc2ccccc2)s1 (3D coordinates assigned)
CCCC(=O)/N=c1/[n-]nc(SCc2ccccc2)s1 (optimized conformer: 60.40644288106424 kcal/mol)

>  <smiles>  (38) 
CCCC(=O)N=c1[nH]nc(SCc2ccccc2)s1

>  <score_type>  (38) 
oracle

>  <origin>  (38) 
adg

>  <m_score__min__energy>  (38) 
-10.06

>  <m_primary>  (38) 
energy

$$$$
38:0
     RDKit          3D

 31 32  0  0  0  0  0  0  0  0999 V2000
   57.9992   34.4639   44.0160 H   0  0  0  0  0  0  0  0  0  0  0  0
   58.1720   33.5230   44.5590 C   0  0  0  0  0  0  0  0  0  0  0  0
   57.6490   32.3240   44.0630 C   0  0  0  0  0  0  0  0  0  0  0  0
   57.0548   32.3262   43.1373 H   0  0  0  0  0  0  0  0  0  0  0  0
   57.8810   31.1150   44.7450 C   0  0  0  0  0  0  0  0  0  0  0  0
   57.3410   29.8680   44.2820 N   0  0  0  0  0  0  0  0  0  0  0  0
   56.3580   29.0740   44.9520 C   0  0  0  0  0  0  0  0  0  0  0  0
   55.1480   29.4100   44.8610 O   0  0  0  0  0  0  0  0  0  0  0  0
   56.7600   27.9700   45.7810 N   0  0  0  0  0  0  0  0  0  0  0  0
   56.3700   26.7290   45.7170 C   0  0  0  0  0  0  0  0  0  0  0  0
   55.1750   26.3270   46.1860 N   0  0  0  0  0  0  0  0  0  0  0  0
   55.1060   25.0430   45.9840 O   0  0  0  0  0  0  0  0  0  0  0  0
   56.1990   24.5920   45.4100 C   0  0  0  0  0  0  0  0  0  0  0  0
   56.4280   23.1500   45.0520 C   0  0  0  0  0  0  0  0  0  0  0  0
   57.3678   22.8212   45.5196 H   0  0  0  0  0  0  0  0  0  0  0  0
   55.2980   22.2720   45.5960 C   0  0  0  0  0  0  0  0  0  0  0  0
   55.3184   22.2878   46.6957 H   0  0  0  0  0  0  0  0  0  0  0  0
   54.3308   22.6579   45.2416 H   0  0  0  0  0  0  0  0  0  0  0  0
   55.4329   21.2394   45.2416 H   0  0  0  0  0  0  0  0  0  0  0  0
   56.5720   22.9860   43.5350 C   0  0  0  0  0  0  0  0  0  0  0  0
   57.2837   22.1754   43.3198 H   0  0  0  0  0  0  0  0  0  0  0  0
   55.5929   22.7399   43.0982 H   0  0  0  0  0  0  0  0  0  0  0  0
   56.9427   23.9250   43.0982 H   0  0  0  0  0  0  0  0  0  0  0  0
   57.0700   25.6460   45.2090 C   0  0  0  0  0  0  0  0  0  0  0  0
   58.0726   25.6295   44.7569 H   0  0  0  0  0  0  0  0  0  0  0  0
   58.6030   31.1330   45.9460 C   0  0  0  0  0  0  0  0  0  0  0  0
   58.7597   30.1980   46.5039 H   0  0  0  0  0  0  0  0  0  0  0  0
   59.1250   32.3320   46.4390 C   0  0  0  0  0  0  0  0  0  0  0  0
   59.7027   32.3357   47.3751 H   0  0  0  0  0  0  0  0  0  0  0  0
   58.9140   33.5270   45.7440 C   0  0  0  0  0  0  0  0  0  0  0  0
   59.5660   35.0320   46.3670 Cl  0  0  0  0  0  0  0  0  0  0  0  0
  1  2  1  0
  2  3  2  0
  3  4  1  0
  3  5  1  0
  5  6  1  0
  6  7  1  0
  7  8  2  0
  7  9  1  0
  9 10  2  0
 10 11  1  0
 11 12  1  0
 12 13  1  0
 13 14  1  0
 14 15  1  0
 14 16  1  0
 16 17  1  0
 16 18  1  0
 16 19  1  0
 14 20  1  0
 20 21  1  0
 20 22  1  0
 20 23  1  0
 13 24  2  0
 24 25  1  0
  5 26  2  0
 26 27  1  0
 26 28  1  0
 28 29  1  0
 28 30  2  0
 30 31  1  0
 30  2  1  0
 24 10  1  0
M  CHG  2   6  -1  11  -1
M  END
>  <UniqueID>  (39) 
32

>  <SMILES>  (39) 
CC(C)c1c/c(=N\C(=O)[N-]c2ccc(Cl)cc2)[n-]o1

>  <Energy>  (39) 
64.48058155048761

>  <Genealogy>  (39) 
CC(C)c1cc(=NC(=O)[N-]c2ccc(Cl)cc2)[n-]o1 (protonated)
CC(C)c1c/c(=N\C(=O)[N-]c2ccc(Cl)cc2)[n-]o1 (cis-trans isomerization)
CC(C)c1c/c(=N\C(=O)[N-]c2ccc(Cl)cc2)[n-]o1 (3D coordinates assigned)
CC(C)c1c/c(=N\C(=O)[N-]c2ccc(Cl)cc2)[n-]o1 (optimized conformer: 64.48058155048761 kcal/mol)

>  <smiles>  (39) 
CC(C)c1cc(=NC(=O)Nc2ccc(Cl)cc2)[nH]o1

>  <score_type>  (39) 
oracle

>  <origin>  (39) 
adg

>  <m_score__min__energy>  (39) 
-10.5

>  <m_primary>  (39) 
energy

$$$$
39:0
     RDKit          3D

 41 43  0  0  0  0  0  0  0  0999 V2000
   58.3760   31.1960   51.0380 C   0  0  0  0  0  0  0  0  0  0  0  0
   58.2470   31.9510   49.7190 C   0  0  0  0  0  0  0  0  0  0  0  0
   59.5360   31.9860   48.9990 N   0  0  0  0  0  0  0  0  0  0  0  0
   59.9220   30.9520   48.1620 C   0  0  0  0  0  0  0  0  0  0  0  0
   58.8550   29.5440   47.8150 S   0  0  0  0  0  0  0  0  0  0  0  0
   58.8500   29.8270   46.0140 C   0  0  0  0  0  0  0  0  0  0  0  0
   57.4500   30.0540   45.5520 C   0  0  0  0  0  0  0  0  0  0  0  0
   56.6900   29.0670   45.3640 O   0  0  0  0  0  0  0  0  0  0  0  0
   57.0220   31.3850   45.2320 N   0  0  0  0  0  0  0  0  0  0  0  0
   57.7530   32.6000   45.4480 C   0  0  0  0  0  0  0  0  0  0  0  0
   57.7610   33.2600   46.6920 C   0  0  0  0  0  0  0  0  0  0  0  0
   58.5110   34.4290   46.8630 C   0  0  0  0  0  0  0  0  0  0  0  0
   59.2660   34.9400   45.8030 C   0  0  0  0  0  0  0  0  0  0  0  0
   59.9950   36.0710   45.9730 F   0  0  0  0  0  0  0  0  0  0  0  0
   59.2860   34.2740   44.5750 C   0  0  0  0  0  0  0  0  0  0  0  0
   58.5360   33.1060   44.4010 C   0  0  0  0  0  0  0  0  0  0  0  0
   61.1440   30.9760   47.5580 N   0  0  0  0  0  0  0  0  0  0  0  0
   61.9740   32.0270   47.7500 C   0  0  0  0  0  0  0  0  0  0  0  0
   61.6130   33.0760   48.5320 C   0  0  0  0  0  0  0  0  0  0  0  0
   60.3750   33.0650   49.1690 C   0  0  0  0  0  0  0  0  0  0  0  0
   60.0410   34.0420   49.8950 O   0  0  0  0  0  0  0  0  0  0  0  0
   62.6650   34.1190   48.5820 C   0  0  0  0  0  0  0  0  0  0  0  0
   63.7880   33.5560   47.6850 C   0  0  0  0  0  0  0  0  0  0  0  0
   63.3130   32.1900   47.1480 C   0  0  0  0  0  0  0  0  0  0  0  0
   58.2560   31.8985   51.8759 H   0  0  0  0  0  0  0  0  0  0  0  0
   57.5972   30.4212   51.0947 H   0  0  0  0  0  0  0  0  0  0  0  0
   59.3678   30.7237   51.0947 H   0  0  0  0  0  0  0  0  0  0  0  0
   57.4973   31.4493   49.0896 H   0  0  0  0  0  0  0  0  0  0  0  0
   57.9396   32.9846   49.9363 H   0  0  0  0  0  0  0  0  0  0  0  0
   59.4616   30.7107   45.7797 H   0  0  0  0  0  0  0  0  0  0  0  0
   59.2675   28.9471   45.5027 H   0  0  0  0  0  0  0  0  0  0  0  0
   57.1763   32.8556   47.5314 H   0  0  0  0  0  0  0  0  0  0  0  0
   58.5065   34.9469   47.8334 H   0  0  0  0  0  0  0  0  0  0  0  0
   59.8913   34.6679   43.7453 H   0  0  0  0  0  0  0  0  0  0  0  0
   58.5608   32.5804   43.4350 H   0  0  0  0  0  0  0  0  0  0  0  0
   62.2889   35.0737   48.1856 H   0  0  0  0  0  0  0  0  0  0  0  0
   63.0055   34.3296   49.6065 H   0  0  0  0  0  0  0  0  0  0  0  0
   63.9792   34.2428   46.8473 H   0  0  0  0  0  0  0  0  0  0  0  0
   64.7208   33.4438   48.2572 H   0  0  0  0  0  0  0  0  0  0  0  0
   63.2514   32.1996   46.0498 H   0  0  0  0  0  0  0  0  0  0  0  0
   63.9990   31.3686   47.4024 H   0  0  0  0  0  0  0  0  0  0  0  0
  1  2  1  0
  2  3  1  0
  3  4  1  0
  4  5  1  0
  5  6  1  0
  6  7  1  0
  7  8  2  0
  7  9  1  0
  9 10  1  0
 10 11  2  0
 11 12  1  0
 12 13  2  0
 13 14  1  0
 13 15  1  0
 15 16  2  0
  4 17  2  0
 17 18  1  0
 18 19  2  0
 19 20  1  0
 20 21  2  0
 19 22  1  0
 22 23  1  0
 23 24  1  0
 20  3  1  0
 16 10  1  0
 24 18  1  0
  1 25  1  0
  1 26  1  0
  1 27  1  0
  2 28  1  0
  2 29  1  0
  6 30  1  0
  6 31  1  0
 11 32  1  0
 12 33  1  0
 15 34  1  0
 16 35  1  0
 22 36  1  0
 22 37  1  0
 23 38  1  0
 23 39  1  0
 24 40  1  0
 24 41  1  0
M  CHG  1   9  -1
M  END
>  <UniqueID>  (40) 
33

>  <SMILES>  (40) 
CCn1c(SCC(=O)[N-]c2ccc(F)cc2)nc2c(c1=O)CCC2

>  <Energy>  (40) 
51.83673462264838

>  <Genealogy>  (40) 
CCn1c(SCC(=O)[N-]c2ccc(F)cc2)nc2c(c1=O)CCC2 (protonated)
CCn1c(SCC(=O)[N-]c2ccc(F)cc2)nc2c(c1=O)CCC2 (3D coordinates assigned)
CCn1c(SCC(=O)[N-]c2ccc(F)cc2)nc2c(c1=O)CCC2 (nonaromatic ring conformer: 51.83673462264838 kcal/mol)

>  <smiles>  (40) 
CCn1c(SCC(=O)Nc2ccc(F)cc2)nc2c(c1=O)CCC2

>  <score_type>  (40) 
oracle

>  <origin>  (40) 
adg

>  <m_score__min__energy>  (40) 
-9.3200000000000003

>  <m_primary>  (40) 
energy

$$$$
40:0
     RDKit          3D

 49 51  0  0  0  0  0  0  0  0999 V2000
   62.9070   31.8360   47.6440 C   0  0  0  0  0  0  0  0  0  0  0  0
   61.5210   32.2180   47.2300 C   0  0  0  0  0  0  0  0  0  0  0  0
   61.0750   33.5320   47.3730 C   0  0  0  0  0  0  0  0  0  0  0  0
   59.7630   33.8390   47.0000 C   0  0  0  0  0  0  0  0  0  0  0  0
   59.2620   35.2500   47.1040 C   0  0  0  0  0  0  0  0  0  0  0  0
   58.9620   32.8630   46.4860 N   0  0  0  0  0  0  0  0  0  0  0  0
   59.4070   31.5780   46.3640 C   0  0  0  0  0  0  0  0  0  0  0  0
   58.5430   30.5600   45.8230 N   0  0  0  0  0  0  0  0  0  0  0  0
   57.3800   30.8360   45.2490 N   0  0  0  0  0  0  0  0  0  0  0  0
   56.8280   29.6780   44.8420 C   0  0  0  0  0  0  0  0  0  0  0  0
   55.4900   29.5880   44.1820 C   0  0  0  0  0  0  0  0  0  0  0  0
   57.6650   28.6220   45.1640 C   0  0  0  0  0  0  0  0  0  0  0  0
   57.3960   27.1580   44.9680 C   0  0  0  0  0  0  0  0  0  0  0  0
   56.5900   26.6270   46.1100 C   0  0  0  0  0  0  0  0  0  0  0  0
   57.1560   26.3380   47.1990 O   0  0  0  0  0  0  0  0  0  0  0  0
   55.1740   26.4980   45.9730 N   0  0  0  0  0  0  0  0  0  0  0  0
   54.5260   25.2450   45.6110 C   0  0  0  0  0  0  0  0  0  0  0  0
   55.4030   24.0930   46.0230 C   0  0  0  0  0  0  0  0  0  0  0  0
   55.4440   23.7080   47.3740 C   0  0  0  0  0  0  0  0  0  0  0  0
   56.2300   22.6260   47.7780 C   0  0  0  0  0  0  0  0  0  0  0  0
   56.9720   21.9090   46.8370 C   0  0  0  0  0  0  0  0  0  0  0  0
   57.7310   20.8580   47.2320 F   0  0  0  0  0  0  0  0  0  0  0  0
   56.9240   22.2690   45.4890 C   0  0  0  0  0  0  0  0  0  0  0  0
   56.1400   23.3530   45.0730 C   0  0  0  0  0  0  0  0  0  0  0  0
   56.0890   23.7380   43.3560 Cl  0  0  0  0  0  0  0  0  0  0  0  0
   58.7430   29.2170   45.8060 C   0  0  0  0  0  0  0  0  0  0  0  0
   59.9210   28.5030   46.4060 C   0  0  0  0  0  0  0  0  0  0  0  0
   60.6800   31.2740   46.7350 N   0  0  0  0  0  0  0  0  0  0  0  0
   62.9700   31.8186   48.7421 H   0  0  0  0  0  0  0  0  0  0  0  0
   63.1464   30.8384   47.2472 H   0  0  0  0  0  0  0  0  0  0  0  0
   63.6237   32.5701   47.2472 H   0  0  0  0  0  0  0  0  0  0  0  0
   61.7420   34.3108   47.7712 H   0  0  0  0  0  0  0  0  0  0  0  0
   59.1637   35.5270   48.1640 H   0  0  0  0  0  0  0  0  0  0  0  0
   59.9740   35.9291   46.6121 H   0  0  0  0  0  0  0  0  0  0  0  0
   58.2812   35.3280   46.6121 H   0  0  0  0  0  0  0  0  0  0  0  0
   57.9880   33.1040   46.1940 H   0  0  0  0  0  0  0  0  0  0  0  0
   54.7048   29.5352   44.9506 H   0  0  0  0  0  0  0  0  0  0  0  0
   55.3299   30.4774   43.5548 H   0  0  0  0  0  0  0  0  0  0  0  0
   55.4505   28.6852   43.5548 H   0  0  0  0  0  0  0  0  0  0  0  0
   56.8389   27.0126   44.0307 H   0  0  0  0  0  0  0  0  0  0  0  0
   58.3536   26.6188   44.9213 H   0  0  0  0  0  0  0  0  0  0  0  0
   53.5566   25.1709   46.1255 H   0  0  0  0  0  0  0  0  0  0  0  0
   54.3653   25.2146   44.5232 H   0  0  0  0  0  0  0  0  0  0  0  0
   54.8533   24.2623   48.1182 H   0  0  0  0  0  0  0  0  0  0  0  0
   56.2645   22.3383   48.8392 H   0  0  0  0  0  0  0  0  0  0  0  0
   57.5049   21.6984   44.7494 H   0  0  0  0  0  0  0  0  0  0  0  0
   59.8543   28.5434   47.5032 H   0  0  0  0  0  0  0  0  0  0  0  0
   59.9200   27.4533   46.0770 H   0  0  0  0  0  0  0  0  0  0  0  0
   60.8511   28.9895   46.0770 H   0  0  0  0  0  0  0  0  0  0  0  0
  1  2  1  0
  2  3  2  0
  3  4  1  0
  4  5  1  0
  4  6  2  0
  6  7  1  0
  7  8  1  0
  8  9  1  0
  9 10  2  0
 10 11  1  0
 10 12  1  0
 12 13  1  0
 13 14  1  0
 14 15  2  0
 14 16  1  0
 16 17  1  0
 17 18  1  0
 18 19  2  0
 19 20  1  0
 20 21  2  0
 21 22  1  0
 21 23  1  0
 23 24  2  0
 24 25  1  0
 12 26  2  0
 26 27  1  0
  7 28  2  0
 28  2  1  0
 26  8  1  0
 24 18  1  0
  1 29  1  0
  1 30  1  0
  1 31  1  0
  3 32  1  0
  5 33  1  0
  5 34  1  0
  5 35  1  0
  6 36  1  0
 11 37  1  0
 11 38  1  0
 11 39  1  0
 13 40  1  0
 13 41  1  0
 17 42  1  0
 17 43  1  0
 19 44  1  0
 20 45  1  0
 23 46  1  0
 27 47  1  0
 27 48  1  0
 27 49  1  0
M  CHG  2   6   1  16  -1
M  END
>  <UniqueID>  (41) 
34

>  <SMILES>  (41) 
Cc1cc(C)[nH+]c(-n2nc(C)c(CC(=O)[N-]Cc3ccc(F)cc3Cl)c2C)n1

>  <Energy>  (41) 
75.5349017505536

>  <Genealogy>  (41) 
Cc1cc(C)[nH+]c(-n2nc(C)c(CC(=O)[N-]Cc3ccc(F)cc3Cl)c2C)n1 (protonated)
Cc1cc(C)[nH+]c(-n2nc(C)c(CC(=O)[N-]Cc3ccc(F)cc3Cl)c2C)n1 (3D coordinates assigned)
Cc1cc(C)[nH+]c(-n2nc(C)c(CC(=O)[N-]Cc3ccc(F)cc3Cl)c2C)n1 (optimized conformer: 75.5349017505536 kcal/mol)

>  <smiles>  (41) 
Cc1cc(C)nc(-n2nc(C)c(CC(=O)NCc3ccc(F)cc3Cl)c2C)n1

>  <score_type>  (41) 
oracle

>  <origin>  (41) 
adg

>  <m_score__min__energy>  (41) 
-9.3100000000000005

>  <m_primary>  (41) 
energy

$$$$
41:0
     RDKit          3D

 33 36  0  0  0  0  0  0  0  0999 V2000
   60.4650   30.5700   46.4380 C   0  0  0  0  0  0  0  0  0  0  0  0
   60.2230   31.8780   46.6610 C   0  0  0  0  0  0  0  0  0  0  0  0
   61.1630   32.6860   47.4700 C   0  0  0  0  0  0  0  0  0  0  0  0
   60.7090   33.3840   48.6030 C   0  0  0  0  0  0  0  0  0  0  0  0
   61.5990   34.1480   49.3650 C   0  0  0  0  0  0  0  0  0  0  0  0
   62.9490   34.2150   49.0060 C   0  0  0  0  0  0  0  0  0  0  0  0
   63.4100   33.5160   47.8870 C   0  0  0  0  0  0  0  0  0  0  0  0
   62.5220   32.7520   47.1220 C   0  0  0  0  0  0  0  0  0  0  0  0
   59.0410   32.4740   46.0940 N   0  0  0  0  0  0  0  0  0  0  0  0
   58.4490   33.7710   46.3670 C   0  0  0  0  0  0  0  0  0  0  0  0
   57.0850   33.6970   45.6530 C   0  0  0  0  0  0  0  0  0  0  0  0
   56.9960   32.3370   45.1240 N   0  0  0  0  0  0  0  0  0  0  0  0
   58.0920   31.7140   45.3840 C   0  0  0  0  0  0  0  0  0  0  0  0
   58.3500   30.2980   45.0990 C   0  0  0  0  0  0  0  0  0  0  0  0
   57.4680   29.5070   44.3490 C   0  0  0  0  0  0  0  0  0  0  0  0
   57.7670   28.1620   44.1160 C   0  0  0  0  0  0  0  0  0  0  0  0
   58.9410   27.6030   44.6330 C   0  0  0  0  0  0  0  0  0  0  0  0
   59.8210   28.3860   45.3860 C   0  0  0  0  0  0  0  0  0  0  0  0
   59.5340   29.7380   45.6250 C   0  0  0  0  0  0  0  0  0  0  0  0
   61.3676   30.1083   46.8648 H   0  0  0  0  0  0  0  0  0  0  0  0
   59.6489   33.3290   48.8915 H   0  0  0  0  0  0  0  0  0  0  0  0
   61.2369   34.6964   50.2471 H   0  0  0  0  0  0  0  0  0  0  0  0
   63.6480   34.8178   49.6043 H   0  0  0  0  0  0  0  0  0  0  0  0
   64.4726   33.5666   47.6073 H   0  0  0  0  0  0  0  0  0  0  0  0
   62.8899   32.2006   46.2441 H   0  0  0  0  0  0  0  0  0  0  0  0
   58.3196   33.9251   47.4484 H   0  0  0  0  0  0  0  0  0  0  0  0
   59.0711   34.6092   46.0199 H   0  0  0  0  0  0  0  0  0  0  0  0
   56.2677   33.8874   46.3642 H   0  0  0  0  0  0  0  0  0  0  0  0
   56.9988   34.4515   44.8572 H   0  0  0  0  0  0  0  0  0  0  0  0
   56.5430   29.9442   43.9450 H   0  0  0  0  0  0  0  0  0  0  0  0
   57.0778   27.5412   43.5247 H   0  0  0  0  0  0  0  0  0  0  0  0
   59.1723   26.5439   44.4463 H   0  0  0  0  0  0  0  0  0  0  0  0
   60.7411   27.9405   45.7922 H   0  0  0  0  0  0  0  0  0  0  0  0
  1  2  2  0
  2  3  1  0
  3  4  2  0
  4  5  1  0
  5  6  2  0
  6  7  1  0
  7  8  2  0
  2  9  1  0
  9 10  1  0
 10 11  1  0
 11 12  1  0
 12 13  2  0
 13 14  1  0
 14 15  2  0
 15 16  1  0
 16 17  2  0
 17 18  1  0
 18 19  2  0
 19  1  1  0
  8  3  1  0
 13  9  1  0
 19 14  1  0
  1 20  1  0
  4 21  1  0
  5 22  1  0
  6 23  1  0
  7 24  1  0
  8 25  1  0
 10 26  1  0
 10 27  1  0
 11 28  1  0
 11 29  1  0
 15 30  1  0
 16 31  1  0
 17 32  1  0
 18 33  1  0
M  END
>  <UniqueID>  (42) 
35

>  <SMILES>  (42) 
C1=C(c2ccccc2)N2CCN=C2c2ccccc21

>  <Energy>  (42) 
58.580171390144336

>  <Genealogy>  (42) 
C1=C(c2ccccc2)N2CCN=C2c2ccccc21 (3D coordinates assigned)
C1=C(c2ccccc2)N2CCN=C2c2ccccc21 (nonaromatic ring conformer: 58.580171390144336 kcal/mol)

>  <smiles>  (42) 
C1=C(c2ccccc2)N2CCN=C2c2ccccc21

>  <score_type>  (42) 
oracle

>  <origin>  (42) 
adg

>  <m_score__min__energy>  (42) 
-7.25

>  <m_primary>  (42) 
energy

$$$$
42:0
     RDKit          3D

 46 47  0  0  0  0  0  0  0  0999 V2000
   59.8260   34.3870   46.6560 C   0  0  0  0  0  0  0  0  0  0  0  0
   59.2710   34.1920   48.0670 C   0  0  0  0  0  0  0  0  0  0  0  0
   60.2670   33.4680   48.9800 C   0  0  0  0  0  0  0  0  0  0  0  0
   60.7790   32.2550   48.3300 N   0  0  0  0  0  0  0  0  0  0  0  0
   60.7490   31.1200   49.2630 C   0  0  0  0  0  0  0  0  0  0  0  0
   59.6220   30.1300   48.8990 C   0  0  1  0  0  0  0  0  0  0  0  0
   58.5190   30.8640   48.4300 O   0  0  0  0  0  0  0  0  0  0  0  0
   60.0380   29.1130   47.8090 C   0  0  0  0  0  0  0  0  0  0  0  0
   59.1500   29.1540   46.6250 N   0  0  0  0  0  0  0  0  0  0  0  0
   58.2850   28.1210   46.3310 C   0  0  0  0  0  0  0  0  0  0  0  0
   58.2340   26.5940   47.2990 S   0  0  0  0  0  0  0  0  0  0  0  0
   57.4150   25.6130   45.9950 C   0  0  0  0  0  0  0  0  0  0  0  0
   55.9390   25.5560   46.2210 C   0  0  0  0  0  0  0  0  0  0  0  0
   55.1400   26.7170   46.0090 N   0  0  0  0  0  0  0  0  0  0  0  0
   55.4020   24.4900   46.6250 O   0  0  0  0  0  0  0  0  0  0  0  0
   57.4170   28.2270   45.2890 N   0  0  0  0  0  0  0  0  0  0  0  0
   57.3960   29.3230   44.4880 C   0  0  0  0  0  0  0  0  0  0  0  0
   56.4910   29.4070   43.4180 C   0  0  0  0  0  0  0  0  0  0  0  0
   56.4810   30.5340   42.5920 C   0  0  0  0  0  0  0  0  0  0  0  0
   57.3740   31.5810   42.8260 C   0  0  0  0  0  0  0  0  0  0  0  0
   58.2780   31.5080   43.8890 C   0  0  0  0  0  0  0  0  0  0  0  0
   58.2950   30.3770   44.7290 C   0  0  0  0  0  0  0  0  0  0  0  0
   59.1780   30.2650   45.8140 C   0  0  0  0  0  0  0  0  0  0  0  0
   60.0020   31.1980   46.0410 O   0  0  0  0  0  0  0  0  0  0  0  0
   60.8622   34.7511   46.7166 H   0  0  0  0  0  0  0  0  0  0  0  0
   59.8053   33.4278   46.1180 H   0  0  0  0  0  0  0  0  0  0  0  0
   59.2098   35.1225   46.1180 H   0  0  0  0  0  0  0  0  0  0  0  0
   59.0447   35.1779   48.4992 H   0  0  0  0  0  0  0  0  0  0  0  0
   58.3648   33.5728   47.9935 H   0  0  0  0  0  0  0  0  0  0  0  0
   61.1081   34.1410   49.2025 H   0  0  0  0  0  0  0  0  0  0  0  0
   59.7519   33.1813   49.9087 H   0  0  0  0  0  0  0  0  0  0  0  0
   60.1480   32.0440   47.5250 H   0  0  0  0  0  0  0  0  0  0  0  0
   61.7150   30.5955   49.2216 H   0  0  0  0  0  0  0  0  0  0  0  0
   60.5611   31.5057   50.2759 H   0  0  0  0  0  0  0  0  0  0  0  0
   59.3799   29.5571   49.8063 H   0  0  0  0  0  0  0  0  0  0  0  0
   58.8770   31.5850   47.8470 H   0  0  0  0  0  0  0  0  0  0  0  0
   61.0649   29.3411   47.4875 H   0  0  0  0  0  0  0  0  0  0  0  0
   59.9646   28.1064   48.2464 H   0  0  0  0  0  0  0  0  0  0  0  0
   57.6124   26.0769   45.0173 H   0  0  0  0  0  0  0  0  0  0  0  0
   57.8152   24.5887   46.0210 H   0  0  0  0  0  0  0  0  0  0  0  0
   54.5350   27.0970   46.7710 H   0  0  0  0  0  0  0  0  0  0  0  0
   56.7560   27.4380   45.1020 H   0  0  0  0  0  0  0  0  0  0  0  0
   55.7874   28.5828   43.2292 H   0  0  0  0  0  0  0  0  0  0  0  0
   55.7685   30.5962   41.7563 H   0  0  0  0  0  0  0  0  0  0  0  0
   57.3661   32.4655   42.1721 H   0  0  0  0  0  0  0  0  0  0  0  0
   58.9787   32.3363   44.0706 H   0  0  0  0  0  0  0  0  0  0  0  0
  1  2  1  0
  2  3  1  0
  3  4  1  0
  4  5  1  0
  5  6  1  0
  6  7  1  0
  6  8  1  0
  8  9  1  0
  9 10  1  0
 10 11  1  0
 11 12  1  0
 12 13  1  0
 13 14  1  0
 13 15  2  0
 10 16  2  0
 16 17  1  0
 17 18  2  0
 18 19  1  0
 19 20  2  0
 20 21  1  0
 21 22  2  0
 22 23  1  0
 23 24  2  0
 23  9  1  0
 22 17  1  0
  1 25  1  0
  1 26  1  0
  1 27  1  0
  2 28  1  0
  2 29  1  0
  3 30  1  0
  3 31  1  0
  4 32  1  0
  5 33  1  0
  5 34  1  0
  6 35  1  1
  7 36  1  0
  8 37  1  0
  8 38  1  0
 12 39  1  0
 12 40  1  0
 14 41  1  0
 16 42  1  0
 18 43  1  0
 19 44  1  0
 20 45  1  0
 21 46  1  0
M  CHG  2  14  -1  16   1
M  END
>  <UniqueID>  (43) 
36

>  <SMILES>  (43) 
CCCNC[C@@H](O)Cn1c(SCC([NH-])=O)[nH+]c2ccccc2c1=O

>  <Energy>  (43) 
41.56956700347336

>  <Genealogy>  (43) 
CCCNCC(O)Cn1c(SCC([NH-])=O)[nH+]c2ccccc2c1=O (protonated)
CCCNC[C@@H](O)Cn1c(SCC([NH-])=O)[nH+]c2ccccc2c1=O (chirality)
CCCNC[C@@H](O)Cn1c(SCC([NH-])=O)[nH+]c2ccccc2c1=O (3D coordinates assigned)
CCCNC[C@@H](O)Cn1c(SCC([NH-])=O)[nH+]c2ccccc2c1=O (optimized conformer: 41.56956700347336 kcal/mol)

>  <smiles>  (43) 
CCCNCC(O)Cn1c(SCC(N)=O)nc2ccccc2c1=O

>  <score_type>  (43) 
oracle

>  <origin>  (43) 
adg

>  <m_score__min__energy>  (43) 
-8.3599999999999994

>  <m_primary>  (43) 
energy

$$$$
43:0
     RDKit          3D

 43 44  0  0  0  0  0  0  0  0999 V2000
   56.3150   23.6830   43.3470 C   0  0  0  0  0  0  0  0  0  0  0  0
   57.3140   24.3950   44.2600 C   0  0  0  0  0  0  0  0  0  0  0  0
   56.7080   24.7550   45.6220 C   0  0  0  0  0  0  0  0  0  0  0  0
   56.3390   26.2130   45.6910 C   0  0  0  0  0  0  0  0  0  0  0  0
   55.1600   26.5280   46.0070 O   0  0  0  0  0  0  0  0  0  0  0  0
   57.3310   27.2420   45.5160 N   0  0  0  0  0  0  0  0  0  0  0  0
   58.6710   27.0480   46.0690 C   0  0  0  0  0  0  0  0  0  0  0  0
   59.7390   27.8360   45.2870 C   0  0  0  0  0  0  0  0  0  0  0  0
   59.3650   29.2370   44.9610 N   0  0  2  0  0  0  0  0  0  0  0  0
   59.6680   30.2350   46.0210 C   0  0  0  0  0  0  0  0  0  0  0  0
   58.4980   31.1530   46.4210 C   0  0  0  0  0  0  0  0  0  0  0  0
   58.9100   32.6040   46.3370 C   0  0  0  0  0  0  0  0  0  0  0  0
   59.5090   33.2110   47.4540 C   0  0  0  0  0  0  0  0  0  0  0  0
   59.8740   34.5590   47.4200 C   0  0  0  0  0  0  0  0  0  0  0  0
   59.6360   35.3190   46.2750 C   0  0  0  0  0  0  0  0  0  0  0  0
   59.0270   34.7360   45.1620 C   0  0  0  0  0  0  0  0  0  0  0  0
   58.6570   33.3850   45.1840 C   0  0  0  0  0  0  0  0  0  0  0  0
   57.8740   32.7140   43.7570 Cl  0  0  0  0  0  0  0  0  0  0  0  0
   58.0210   29.3840   44.3530 C   0  0  0  0  0  0  0  0  0  0  0  0
   56.9800   28.5370   45.0170 C   0  0  0  0  0  0  0  0  0  0  0  0
   55.7950   28.9590   45.1010 O   0  0  0  0  0  0  0  0  0  0  0  0
   55.5712   23.1529   43.9601 H   0  0  0  0  0  0  0  0  0  0  0  0
   55.8063   24.4234   42.7121 H   0  0  0  0  0  0  0  0  0  0  0  0
   56.8488   22.9606   42.7121 H   0  0  0  0  0  0  0  0  0  0  0  0
   58.1782   23.7339   44.4215 H   0  0  0  0  0  0  0  0  0  0  0  0
   57.6101   25.3324   43.7665 H   0  0  0  0  0  0  0  0  0  0  0  0
   55.8042   24.1491   45.7830 H   0  0  0  0  0  0  0  0  0  0  0  0
   57.4586   24.5507   46.3998 H   0  0  0  0  0  0  0  0  0  0  0  0
   58.6755   27.3867   47.1156 H   0  0  0  0  0  0  0  0  0  0  0  0
   58.9169   25.9784   45.9952 H   0  0  0  0  0  0  0  0  0  0  0  0
   60.6581   27.8588   45.8909 H   0  0  0  0  0  0  0  0  0  0  0  0
   59.8646   27.3171   44.3253 H   0  0  0  0  0  0  0  0  0  0  0  0
   60.0270   29.5040   44.1910 H   0  0  0  0  0  0  0  0  0  0  0  0
   59.9920   29.6881   46.9188 H   0  0  0  0  0  0  0  0  0  0  0  0
   60.4408   30.8960   45.6016 H   0  0  0  0  0  0  0  0  0  0  0  0
   57.6514   30.9773   45.7410 H   0  0  0  0  0  0  0  0  0  0  0  0
   58.2063   30.9259   47.4570 H   0  0  0  0  0  0  0  0  0  0  0  0
   59.6921   32.6194   48.3631 H   0  0  0  0  0  0  0  0  0  0  0  0
   60.3497   35.0216   48.2973 H   0  0  0  0  0  0  0  0  0  0  0  0
   59.9285   36.3791   46.2488 H   0  0  0  0  0  0  0  0  0  0  0  0
   58.8367   35.3407   44.2631 H   0  0  0  0  0  0  0  0  0  0  0  0
   57.7156   30.4380   44.4293 H   0  0  0  0  0  0  0  0  0  0  0  0
   58.0961   29.0516   43.3071 H   0  0  0  0  0  0  0  0  0  0  0  0
  1  2  1  0
  2  3  1  0
  3  4  1  0
  4  5  2  0
  4  6  1  0
  6  7  1  0
  7  8  1  0
  8  9  1  0
  9 10  1  0
 10 11  1  0
 11 12  1  0
 12 13  2  0
 13 14  1  0
 14 15  2  0
 15 16  1  0
 16 17  2  0
 17 18  1  0
  9 19  1  0
 19 20  1  0
 20 21  2  0
 20  6  1  0
 17 12  1  0
  1 22  1  0
  1 23  1  0
  1 24  1  0
  2 25  1  0
  2 26  1  0
  3 27  1  0
  3 28  1  0
  7 29  1  0
  7 30  1  0
  8 31  1  0
  8 32  1  0
  9 33  1  6
 10 34  1  0
 10 35  1  0
 11 36  1  0
 11 37  1  0
 13 38  1  0
 14 39  1  0
 15 40  1  0
 16 41  1  0
 19 42  1  0
 19 43  1  0
M  CHG  1   9   1
M  END
>  <UniqueID>  (44) 
37

>  <SMILES>  (44) 
CCCC(=O)N1CC[N@H+](CCc2ccccc2Cl)CC1=O

>  <Energy>  (44) 
52.033143378180824

>  <Genealogy>  (44) 
CCCC(=O)N1CC[NH+](CCc2ccccc2Cl)CC1=O (protonated)
CCCC(=O)N1CC[N@H+](CCc2ccccc2Cl)CC1=O (chirality)
CCCC(=O)N1CC[N@H+](CCc2ccccc2Cl)CC1=O (3D coordinates assigned)
CCCC(=O)N1CC[N@H+](CCc2ccccc2Cl)CC1=O (nonaromatic ring conformer: 52.033143378180824 kcal/mol)

>  <smiles>  (44) 
CCCC(=O)N1CCN(CCc2ccccc2Cl)CC1=O

>  <score_type>  (44) 
oracle

>  <origin>  (44) 
adg

>  <m_score__min__energy>  (44) 
-6.5800000000000001

>  <m_primary>  (44) 
energy

$$$$
44:0
     RDKit          3D

 47 51  0  0  0  0  0  0  0  0999 V2000
   54.8430   26.7160   45.9990 O   0  0  0  0  0  0  0  0  0  0  0  0
   55.8460   25.7530   46.0400 C   0  0  0  0  0  0  0  0  0  0  0  0
   55.4970   24.4060   45.8910 C   0  0  0  0  0  0  0  0  0  0  0  0
   56.4850   23.4190   45.8780 C   0  0  0  0  0  0  0  0  0  0  0  0
   57.8280   23.7740   46.0100 C   0  0  0  0  0  0  0  0  0  0  0  0
   58.1860   25.1160   46.1650 C   0  0  0  0  0  0  0  0  0  0  0  0
   57.2010   26.1190   46.2000 C   0  0  0  0  0  0  0  0  0  0  0  0
   57.6140   27.5310   46.3680 C   0  0  0  0  0  0  0  0  0  0  0  0
   57.2780   28.5160   45.4030 C   0  0  0  0  0  0  0  0  0  0  0  0
   57.6860   29.8490   45.6080 C   0  0  0  0  0  0  0  0  0  0  0  0
   57.3890   30.8740   44.6440 N   0  0  0  0  0  0  0  0  0  0  0  0
   57.9470   32.2210   44.8090 C   0  0  0  0  0  0  0  0  0  0  0  0
   57.8670   32.9910   43.4890 C   0  0  0  0  0  0  0  0  0  0  0  0
   58.1390   32.1130   42.4170 O   0  0  0  0  0  0  0  0  0  0  0  0
   57.0410   31.2380   42.2100 C   0  0  0  0  0  0  0  0  0  0  0  0
   56.5000   30.5980   43.5100 C   0  0  0  0  0  0  0  0  0  0  0  0
   58.3860   30.1170   46.7420 N   0  0  0  0  0  0  0  0  0  0  0  0
   58.8610   31.2740   47.1730 N   0  0  0  0  0  0  0  0  0  0  0  0
   59.4660   31.1000   48.3480 N   0  0  0  0  0  0  0  0  0  0  0  0
   59.3560   29.7880   48.6650 C   0  0  0  0  0  0  0  0  0  0  0  0
   60.0130   29.0240   50.1430 S   0  0  0  0  0  0  0  0  0  0  0  0
   59.1860   30.1980   51.2160 C   0  0  0  0  0  0  0  0  0  0  0  0
   59.9320   31.1400   51.9350 C   0  0  0  0  0  0  0  0  0  0  0  0
   59.2850   32.0510   52.7770 C   0  0  0  0  0  0  0  0  0  0  0  0
   57.8920   32.0230   52.8990 C   0  0  0  0  0  0  0  0  0  0  0  0
   57.1440   31.0850   52.1800 C   0  0  0  0  0  0  0  0  0  0  0  0
   57.7900   30.1740   51.3360 C   0  0  0  0  0  0  0  0  0  0  0  0
   58.6720   29.1840   47.6460 C   0  0  0  0  0  0  0  0  0  0  0  0
   58.3020   27.8920   47.4950 N   0  0  0  0  0  0  0  0  0  0  0  0
   54.4394   24.1232   45.7836 H   0  0  0  0  0  0  0  0  0  0  0  0
   56.2044   22.3615   45.7637 H   0  0  0  0  0  0  0  0  0  0  0  0
   58.6060   22.9965   45.9920 H   0  0  0  0  0  0  0  0  0  0  0  0
   59.2471   25.3900   46.2604 H   0  0  0  0  0  0  0  0  0  0  0  0
   56.7053   28.2418   44.5048 H   0  0  0  0  0  0  0  0  0  0  0  0
   57.3751   32.7595   45.5791 H   0  0  0  0  0  0  0  0  0  0  0  0
   59.0009   32.1384   45.1132 H   0  0  0  0  0  0  0  0  0  0  0  0
   56.8581   33.4131   43.3708 H   0  0  0  0  0  0  0  0  0  0  0  0
   58.6060   33.8058   43.4934 H   0  0  0  0  0  0  0  0  0  0  0  0
   56.2268   31.8084   41.7392 H   0  0  0  0  0  0  0  0  0  0  0  0
   57.4014   30.4162   41.5738 H   0  0  0  0  0  0  0  0  0  0  0  0
   55.5035   31.0107   43.7259 H   0  0  0  0  0  0  0  0  0  0  0  0
   56.4445   29.5088   43.3665 H   0  0  0  0  0  0  0  0  0  0  0  0
   61.0274   31.1638   51.8378 H   0  0  0  0  0  0  0  0  0  0  0  0
   59.8719   32.7893   53.3431 H   0  0  0  0  0  0  0  0  0  0  0  0
   57.3841   32.7396   53.5612 H   0  0  0  0  0  0  0  0  0  0  0  0
   56.0486   31.0632   52.2777 H   0  0  0  0  0  0  0  0  0  0  0  0
   57.2017   29.4392   50.7669 H   0  0  0  0  0  0  0  0  0  0  0  0
  1  2  1  0
  2  3  2  0
  3  4  1  0
  4  5  2  0
  5  6  1  0
  6  7  2  0
  7  8  1  0
  8  9  1  0
  9 10  2  0
 10 11  1  0
 11 12  1  0
 12 13  1  0
 13 14  1  0
 14 15  1  0
 15 16  1  0
 10 17  1  0
 17 18  1  0
 18 19  2  0
 19 20  1  0
 20 21  1  0
 21 22  1  0
 22 23  2  0
 23 24  1  0
 24 25  2  0
 25 26  1  0
 26 27  2  0
 20 28  2  0
 28 29  1  0
  7  2  1  0
 29  8  2  0
 16 11  1  0
 28 17  1  0
 27 22  1  0
  3 30  1  0
  4 31  1  0
  5 32  1  0
  6 33  1  0
  9 34  1  0
 12 35  1  0
 12 36  1  0
 13 37  1  0
 13 38  1  0
 15 39  1  0
 15 40  1  0
 16 41  1  0
 16 42  1  0
 23 43  1  0
 24 44  1  0
 25 45  1  0
 26 46  1  0
 27 47  1  0
M  CHG  1   1  -1
M  END
>  <UniqueID>  (45) 
38

>  <SMILES>  (45) 
[O-]c1ccccc1-c1cc(N2CCOCC2)n2nnc(Sc3ccccc3)c2n1

>  <Energy>  (45) 
109.39520760715845

>  <Genealogy>  (45) 
[O-]c1ccccc1-c1cc(N2CCOCC2)n2nnc(Sc3ccccc3)c2n1 (protonated)
[O-]c1ccccc1-c1cc(N2CCOCC2)n2nnc(Sc3ccccc3)c2n1 (3D coordinates assigned)
[O-]c1ccccc1-c1cc(N2CCOCC2)n2nnc(Sc3ccccc3)c2n1 (nonaromatic ring conformer: 109.39520760715845 kcal/mol)

>  <smiles>  (45) 
Oc1ccccc1-c1cc(N2CCOCC2)n2nnc(Sc3ccccc3)c2n1

>  <score_type>  (45) 
oracle

>  <origin>  (45) 
adg

>  <m_score__min__energy>  (45) 
-11.720000000000001

>  <m_primary>  (45) 
energy

$$$$
45:0
     RDKit          3D

 34 36  0  0  0  0  0  0  0  0999 V2000
   57.6800   32.7130   41.0980 C   0  0  0  0  0  0  0  0  0  0  0  0
   57.3960   32.6210   42.4910 O   0  0  0  0  0  0  0  0  0  0  0  0
   57.3040   31.4170   43.2090 C   0  0  0  0  0  0  0  0  0  0  0  0
   56.8350   30.2320   42.6080 C   0  0  0  0  0  0  0  0  0  0  0  0
   56.7200   29.0570   43.3520 C   0  0  0  0  0  0  0  0  0  0  0  0
   57.0700   29.0350   44.7080 C   0  0  0  0  0  0  0  0  0  0  0  0
   56.9400   27.7820   45.4820 C   0  0  0  0  0  0  0  0  0  0  0  0
   57.9280   27.2180   46.0870 N   0  0  0  0  0  0  0  0  0  0  0  0
   57.4580   26.0110   46.7490 C   0  0  0  0  0  0  0  0  0  0  0  0
   55.9590   25.9500   46.4220 C   0  0  0  0  0  0  0  0  0  0  0  0
   55.7470   27.1030   45.6280 O   0  0  0  0  0  0  0  0  0  0  0  0
   57.5440   30.2100   45.3110 C   0  0  0  0  0  0  0  0  0  0  0  0
   57.6720   31.3990   44.5710 C   0  0  0  0  0  0  0  0  0  0  0  0
   58.1880   32.6190   45.2400 C   0  0  0  0  0  0  0  0  0  0  0  0
   58.0760   32.7650   46.6340 C   0  0  0  0  0  0  0  0  0  0  0  0
   58.5700   33.9100   47.2660 C   0  0  0  0  0  0  0  0  0  0  0  0
   59.1840   34.9160   46.5150 C   0  0  0  0  0  0  0  0  0  0  0  0
   59.3070   34.7770   45.1300 C   0  0  0  0  0  0  0  0  0  0  0  0
   58.8140   33.6340   44.4940 C   0  0  0  0  0  0  0  0  0  0  0  0
   58.7178   33.0492   40.9568 H   0  0  0  0  0  0  0  0  0  0  0  0
   57.5475   31.7260   40.6308 H   0  0  0  0  0  0  0  0  0  0  0  0
   56.9939   33.4348   40.6308 H   0  0  0  0  0  0  0  0  0  0  0  0
   56.5572   30.2331   41.5436 H   0  0  0  0  0  0  0  0  0  0  0  0
   56.3512   28.1400   42.8692 H   0  0  0  0  0  0  0  0  0  0  0  0
   57.9778   25.1248   46.3560 H   0  0  0  0  0  0  0  0  0  0  0  0
   57.6488   26.0275   47.8322 H   0  0  0  0  0  0  0  0  0  0  0  0
   55.7159   25.0358   45.8606 H   0  0  0  0  0  0  0  0  0  0  0  0
   55.3250   25.9260   47.3206 H   0  0  0  0  0  0  0  0  0  0  0  0
   57.8189   30.2010   46.3760 H   0  0  0  0  0  0  0  0  0  0  0  0
   57.5973   31.9743   47.2303 H   0  0  0  0  0  0  0  0  0  0  0  0
   58.4752   34.0193   48.3564 H   0  0  0  0  0  0  0  0  0  0  0  0
   59.5703   35.8170   47.0140 H   0  0  0  0  0  0  0  0  0  0  0  0
   59.7924   35.5680   44.5395 H   0  0  0  0  0  0  0  0  0  0  0  0
   58.9162   33.5277   43.4039 H   0  0  0  0  0  0  0  0  0  0  0  0
  1  2  1  0
  2  3  1  0
  3  4  2  0
  4  5  1  0
  5  6  2  0
  6  7  1  0
  7  8  2  0
  8  9  1  0
  9 10  1  0
 10 11  1  0
  6 12  1  0
 12 13  2  0
 13 14  1  0
 14 15  2  0
 15 16  1  0
 16 17  2  0
 17 18  1  0
 18 19  2  0
 13  3  1  0
 19 14  1  0
 11  7  1  0
  1 20  1  0
  1 21  1  0
  1 22  1  0
  4 23  1  0
  5 24  1  0
  9 25  1  0
  9 26  1  0
 10 27  1  0
 10 28  1  0
 12 29  1  0
 15 30  1  0
 16 31  1  0
 17 32  1  0
 18 33  1  0
 19 34  1  0
M  END
>  <UniqueID>  (46) 
39

>  <SMILES>  (46) 
COc1ccc(C2=NCCO2)cc1-c1ccccc1

>  <Energy>  (46) 
55.24621010409374

>  <Genealogy>  (46) 
COc1ccc(C2=NCCO2)cc1-c1ccccc1 (3D coordinates assigned)
COc1ccc(C2=NCCO2)cc1-c1ccccc1 (nonaromatic ring conformer: 55.24621010409374 kcal/mol)

>  <smiles>  (46) 
COc1ccc(C2=NCCO2)cc1-c1ccccc1

>  <score_type>  (46) 
oracle

>  <origin>  (46) 
adg

>  <m_score__min__energy>  (46) 
-6.7199999999999998

>  <m_primary>  (46) 
energy

$$$$
46:0
     RDKit          3D

 38 40  0  0  0  0  0  0  0  0999 V2000
   61.1220   28.5920   44.8760 C   0  0  0  0  0  0  0  0  0  0  0  0
   60.5520   29.1940   46.1570 C   0  0  0  0  0  0  0  0  0  0  0  0
   59.4100   30.0740   45.8500 N   0  0  0  0  0  0  0  0  0  0  0  0
   58.3480   29.5530   45.1650 C   0  0  0  0  0  0  0  0  0  0  0  0
   57.2370   30.3430   44.8230 C   0  0  0  0  0  0  0  0  0  0  0  0
   56.1040   29.7230   44.0850 C   0  0  0  0  0  0  0  0  0  0  0  0
   55.9840   29.8640   42.8390 O   0  0  0  0  0  0  0  0  0  0  0  0
   55.1500   28.9730   44.7650 O   0  0  0  0  0  0  0  0  0  0  0  0
   57.2410   31.7050   45.1890 C   0  0  0  0  0  0  0  0  0  0  0  0
   56.2610   32.4460   44.9000 O   0  0  0  0  0  0  0  0  0  0  0  0
   58.3440   32.2390   45.8760 C   0  0  0  0  0  0  0  0  0  0  0  0
   58.4040   33.5950   46.2420 C   0  0  0  0  0  0  0  0  0  0  0  0
   59.5200   34.0940   46.9130 C   0  0  0  0  0  0  0  0  0  0  0  0
   59.5840   35.4180   47.2000 F   0  0  0  0  0  0  0  0  0  0  0  0
   60.5790   33.2300   47.2310 C   0  0  0  0  0  0  0  0  0  0  0  0
   61.7600   33.7020   47.9050 N   0  0  0  0  0  0  0  0  0  0  0  0
   63.0330   33.8480   47.1880 C   0  0  0  0  0  0  0  0  0  0  0  0
   64.1330   33.0380   47.8760 C   0  0  0  0  0  0  0  0  0  0  0  0
   64.2280   33.2630   49.6990 S   0  0  0  0  0  0  0  0  0  0  0  0
   62.9810   34.5830   49.8900 C   0  0  0  0  0  0  0  0  0  0  0  0
   61.6370   34.1540   49.2980 C   0  0  0  0  0  0  0  0  0  0  0  0
   60.5050   31.9240   46.8560 N   0  0  0  0  0  0  0  0  0  0  0  0
   59.4320   31.4000   46.1990 C   0  0  0  0  0  0  0  0  0  0  0  0
   61.8576   27.8151   45.1317 H   0  0  0  0  0  0  0  0  0  0  0  0
   60.3075   28.1459   44.2864 H   0  0  0  0  0  0  0  0  0  0  0  0
   61.6118   29.3810   44.2864 H   0  0  0  0  0  0  0  0  0  0  0  0
   60.2161   28.3830   46.8199 H   0  0  0  0  0  0  0  0  0  0  0  0
   61.3357   29.7873   46.6508 H   0  0  0  0  0  0  0  0  0  0  0  0
   58.3632   28.4920   44.8750 H   0  0  0  0  0  0  0  0  0  0  0  0
   57.5668   34.2655   45.9980 H   0  0  0  0  0  0  0  0  0  0  0  0
   62.9102   33.4877   46.1559 H   0  0  0  0  0  0  0  0  0  0  0  0
   63.3209   34.9097   47.1881 H   0  0  0  0  0  0  0  0  0  0  0  0
   63.9526   31.9724   47.6713 H   0  0  0  0  0  0  0  0  0  0  0  0
   65.0876   33.4018   47.4681 H   0  0  0  0  0  0  0  0  0  0  0  0
   62.8497   34.8024   50.9599 H   0  0  0  0  0  0  0  0  0  0  0  0
   63.3314   35.4777   49.3546 H   0  0  0  0  0  0  0  0  0  0  0  0
   61.2310   33.3298   49.9028 H   0  0  0  0  0  0  0  0  0  0  0  0
   60.9694   35.0281   49.3105 H   0  0  0  0  0  0  0  0  0  0  0  0
  1  2  1  0
  2  3  1  0
  3  4  1  0
  4  5  2  0
  5  6  1  0
  6  7  2  0
  6  8  1  0
  5  9  1  0
  9 10  2  0
  9 11  1  0
 11 12  2  0
 12 13  1  0
 13 14  1  0
 13 15  2  0
 15 16  1  0
 16 17  1  0
 17 18  1  0
 18 19  1  0
 19 20  1  0
 20 21  1  0
 15 22  1  0
 22 23  2  0
 23  3  1  0
 23 11  1  0
 21 16  1  0
  1 24  1  0
  1 25  1  0
  1 26  1  0
  2 27  1  0
  2 28  1  0
  4 29  1  0
 12 30  1  0
 17 31  1  0
 17 32  1  0
 18 33  1  0
 18 34  1  0
 20 35  1  0
 20 36  1  0
 21 37  1  0
 21 38  1  0
M  CHG  1   8  -1
M  END
>  <UniqueID>  (47) 
40

>  <SMILES>  (47) 
CCn1cc(C(=O)[O-])c(=O)c2cc(F)c(N3CCSCC3)nc21

>  <Energy>  (47) 
50.106356208646176

>  <Genealogy>  (47) 
CCn1cc(C(=O)[O-])c(=O)c2cc(F)c(N3CCSCC3)nc21 (protonated)
CCn1cc(C(=O)[O-])c(=O)c2cc(F)c(N3CCSCC3)nc21 (3D coordinates assigned)
CCn1cc(C(=O)[O-])c(=O)c2cc(F)c(N3CCSCC3)nc21 (nonaromatic ring conformer: 50.106356208646176 kcal/mol)

>  <smiles>  (47) 
CCn1cc(C(=O)O)c(=O)c2cc(F)c(N3CCSCC3)nc21

>  <score_type>  (47) 
oracle

>  <origin>  (47) 
adg

>  <m_score__min__energy>  (47) 
-9.4299999999999997

>  <m_primary>  (47) 
energy

$$$$
47:0
     RDKit          3D

 49 51  0  0  1  0  0  0  0  0999 V2000
   56.5950   26.0000   46.0050 C   0  0  0  0  0  0  0  0  0  0  0  0
   57.5090   25.8530   44.7960 C   0  0  0  0  0  0  0  0  0  0  0  0
   58.0780   27.1230   44.3090 C   0  0  0  0  0  0  0  0  0  0  0  0
   58.2510   28.2900   45.1530 C   0  0  0  0  0  0  0  0  0  0  0  0
   57.8350   29.6140   44.6370 N   0  0  0  0  0  0  0  0  0  0  0  0
   56.9360   29.5510   43.5410 C   0  0  0  0  0  0  0  0  0  0  0  0
   55.4910   29.7820   43.6840 C   0  0  0  0  0  0  0  0  0  0  0  0
   55.1540   29.3620   45.0240 O   0  0  0  0  0  0  0  0  0  0  0  0
   58.4580   30.7040   45.2830 C   0  0  0  0  0  0  0  0  0  0  0  0
   59.1180   30.6350   46.4490 C   0  0  0  0  0  0  0  0  0  0  0  0
   59.6790   31.7770   47.0700 C   0  0  0  0  0  0  0  0  0  0  0  0
   59.5510   32.9870   46.4720 C   0  0  0  0  0  0  0  0  0  0  0  0
   60.0840   34.1050   47.0450 C   0  0  0  0  0  0  0  0  0  0  0  0
   60.6590   34.0840   48.1190 N   0  0  0  0  0  0  0  0  0  0  0  0
   61.9040   33.6870   48.5220 C   0  0  0  0  0  0  0  0  0  0  0  0
   62.8290   32.9990   47.6970 C   0  0  0  0  0  0  0  0  0  0  0  0
   64.1060   32.7330   48.1410 C   0  0  0  0  0  0  0  0  0  0  0  0
   64.4800   33.1460   49.4090 C   0  0  0  0  0  0  0  0  0  0  0  0
   65.7220   32.9180   49.9140 F   0  0  0  0  0  0  0  0  0  0  0  0
   63.6040   33.8220   50.2480 C   0  0  0  0  0  0  0  0  0  0  0  0
   64.1450   34.3850   51.9950 Br  0  0  0  0  0  0  0  0  0  0  0  0
   62.3340   34.0910   49.8150 C   0  0  0  0  0  0  0  0  0  0  0  0
   59.9300   35.2990   46.3980 N   0  0  0  0  0  0  0  0  0  0  0  0
   59.2810   35.4170   45.2330 C   0  0  0  0  0  0  0  0  0  0  0  0
   58.7690   34.2990   44.6970 N   0  0  0  0  0  0  0  0  0  0  0  0
   58.8950   33.1000   45.2980 C   0  0  0  0  0  0  0  0  0  0  0  0
   58.3550   31.9790   44.7080 C   0  0  0  0  0  0  0  0  0  0  0  0
   57.1879   25.9046   46.9266 H   0  0  0  0  0  0  0  0  0  0  0  0
   56.1110   26.9875   45.9809 H   0  0  0  0  0  0  0  0  0  0  0  0
   55.8258   25.2140   45.9809 H   0  0  0  0  0  0  0  0  0  0  0  0
   58.3395   25.1861   45.0708 H   0  0  0  0  0  0  0  0  0  0  0  0
   56.8906   25.4508   43.9800 H   0  0  0  0  0  0  0  0  0  0  0  0
   59.0786   26.8778   43.9234 H   0  0  0  0  0  0  0  0  0  0  0  0
   57.2907   27.4656   43.6214 H   0  0  0  0  0  0  0  0  0  0  0  0
   57.6797   28.1089   46.0754 H   0  0  0  0  0  0  0  0  0  0  0  0
   59.3420   28.3789   45.2619 H   0  0  0  0  0  0  0  0  0  0  0  0
   57.2923   30.2937   42.8120 H   0  0  0  0  0  0  0  0  0  0  0  0
   56.9669   28.4808   43.2884 H   0  0  0  0  0  0  0  0  0  0  0  0
   55.2586   30.8485   43.5474 H   0  0  0  0  0  0  0  0  0  0  0  0
   54.9162   29.2249   42.9295 H   0  0  0  0  0  0  0  0  0  0  0  0
   55.4890   30.0820   45.6370 H   0  0  0  0  0  0  0  0  0  0  0  0
   59.2271   29.6567   46.9399 H   0  0  0  0  0  0  0  0  0  0  0  0
   60.2129   31.6836   48.0272 H   0  0  0  0  0  0  0  0  0  0  0  0
   62.5240   32.6739   46.6914 H   0  0  0  0  0  0  0  0  0  0  0  0
   64.8197   32.1992   47.4963 H   0  0  0  0  0  0  0  0  0  0  0  0
   61.6370   34.6268   50.4762 H   0  0  0  0  0  0  0  0  0  0  0  0
   59.1720   36.3918   44.7352 H   0  0  0  0  0  0  0  0  0  0  0  0
   58.2650   34.4050   43.7910 H   0  0  0  0  0  0  0  0  0  0  0  0
   57.8236   32.0875   43.7510 H   0  0  0  0  0  0  0  0  0  0  0  0
  1  2  1  0
  2  3  1  0
  3  4  1  0
  4  5  1  0
  5  6  1  0
  6  7  1  0
  7  8  1  0
  5  9  1  0
  9 10  2  0
 10 11  1  0
 11 12  2  0
 12 13  1  0
 13 14  2  0
 14 15  1  0
 15 16  2  0
 16 17  1  0
 17 18  2  0
 18 19  1  0
 18 20  1  0
 20 21  1  0
 20 22  2  0
 13 23  1  0
 23 24  2  0
 24 25  1  0
 25 26  1  0
 26 27  2  0
 27  9  1  0
 26 12  1  0
 22 15  1  0
  1 28  1  0
  1 29  1  0
  1 30  1  0
  2 31  1  0
  2 32  1  0
  3 33  1  0
  3 34  1  0
  4 35  1  0
  4 36  1  0
  6 37  1  0
  6 38  1  0
  7 39  1  0
  7 40  1  0
  8 41  1  0
 10 42  1  0
 11 43  1  0
 16 44  1  0
 17 45  1  0
 22 46  1  0
 24 47  1  0
 25 48  1  0
 27 49  1  0
M  END
>  <smiles>  (48) 
CCCCN(CCO)c1ccc2c(=Nc3ccc(F)c(Br)c3)nc[nH]c2c1

>  <score_type>  (48) 
oracle

>  <origin>  (48) 
adg

>  <m_score__min__energy>  (48) 
-8.7599999999999998

>  <m_primary>  (48) 
energy

$$$$
