0:0
     RDKit          3D

 54 56  0  0  0  0  0  0  0  0999 V2000
   57.6820   27.6090   44.6000 C   0  0  0  0  0  0  0  0  0  0  0  0
   56.5820   27.9680   45.6030 C   0  0  0  0  0  0  0  0  0  0  0  0
   55.8050   29.1490   45.1840 N   0  0  0  0  0  0  0  0  0  0  0  0
   56.1170   29.5590   43.8060 C   0  0  0  0  0  0  0  0  0  0  0  0
   56.8080   30.8930   43.8010 C   0  0  0  0  0  0  0  0  0  0  0  0
   57.3450   31.4290   42.6220 C   0  0  0  0  0  0  0  0  0  0  0  0
   58.0040   32.6600   42.6690 C   0  0  0  0  0  0  0  0  0  0  0  0
   58.1310   33.3380   43.8830 C   0  0  0  0  0  0  0  0  0  0  0  0
   57.5940   32.7680   45.0450 C   0  0  0  0  0  0  0  0  0  0  0  0
   57.7140   33.4430   46.3760 C   0  0  0  0  0  0  0  0  0  0  0  0
   58.8940   32.8970   47.0800 N   0  0  0  0  0  0  0  0  0  0  0  0
   58.5310   31.7800   47.9730 C   0  0  0  0  0  0  0  0  0  0  0  0
   59.1440   30.5010   47.4660 C   0  0  0  0  0  0  0  0  0  0  0  0
   58.9910   29.3140   48.2000 C   0  0  0  0  0  0  0  0  0  0  0  0
   59.5340   28.1160   47.7240 C   0  0  0  0  0  0  0  0  0  0  0  0
   60.2330   28.0980   46.5130 C   0  0  0  0  0  0  0  0  0  0  0  0
   60.3890   29.2760   45.7780 C   0  0  0  0  0  0  0  0  0  0  0  0
   59.8470   30.4750   46.2500 C   0  0  0  0  0  0  0  0  0  0  0  0
   59.6560   33.9480   47.7850 C   0  0  0  0  0  0  0  0  0  0  0  0
   61.1220   33.6020   47.7630 C   0  0  0  0  0  0  0  0  0  0  0  0
   61.8650   33.7840   46.5830 C   0  0  0  0  0  0  0  0  0  0  0  0
   63.2370   33.5200   46.5680 C   0  0  0  0  0  0  0  0  0  0  0  0
   63.8760   33.0670   47.7250 C   0  0  0  0  0  0  0  0  0  0  0  0
   63.1440   32.8810   48.9010 C   0  0  0  0  0  0  0  0  0  0  0  0
   61.7710   33.1480   48.9230 C   0  0  0  0  0  0  0  0  0  0  0  0
   56.9590   31.5670   44.9730 N   0  0  0  0  0  0  0  0  0  0  0  0
   58.5912   27.3123   45.1435 H   0  0  0  0  0  0  0  0  0  0  0  0
   57.3438   26.7746   43.9680 H   0  0  0  0  0  0  0  0  0  0  0  0
   57.9012   28.4822   43.9680 H   0  0  0  0  0  0  0  0  0  0  0  0
   55.8987   27.1114   45.7000 H   0  0  0  0  0  0  0  0  0  0  0  0
   57.0661   28.2069   46.5614 H   0  0  0  0  0  0  0  0  0  0  0  0
   56.0460   29.9400   45.8290 H   0  0  0  0  0  0  0  0  0  0  0  0
   54.7800   28.9540   45.2780 H   0  0  0  0  0  0  0  0  0  0  0  0
   56.7751   28.8081   43.3445 H   0  0  0  0  0  0  0  0  0  0  0  0
   55.1793   29.6404   43.2366 H   0  0  0  0  0  0  0  0  0  0  0  0
   57.2485   30.8861   41.6702 H   0  0  0  0  0  0  0  0  0  0  0  0
   58.4228   33.0951   41.7496 H   0  0  0  0  0  0  0  0  0  0  0  0
   58.6468   34.3086   43.9267 H   0  0  0  0  0  0  0  0  0  0  0  0
   57.8377   34.5265   46.2317 H   0  0  0  0  0  0  0  0  0  0  0  0
   56.8063   33.2628   46.9707 H   0  0  0  0  0  0  0  0  0  0  0  0
   58.9042   31.9870   48.9868 H   0  0  0  0  0  0  0  0  0  0  0  0
   57.4363   31.6740   47.9953 H   0  0  0  0  0  0  0  0  0  0  0  0
   58.4420   29.3261   49.1531 H   0  0  0  0  0  0  0  0  0  0  0  0
   59.4112   27.1883   48.3021 H   0  0  0  0  0  0  0  0  0  0  0  0
   60.6603   27.1559   46.1388 H   0  0  0  0  0  0  0  0  0  0  0  0
   60.9395   29.2599   44.8258 H   0  0  0  0  0  0  0  0  0  0  0  0
   59.9712   31.4001   45.6680 H   0  0  0  0  0  0  0  0  0  0  0  0
   59.4993   34.9143   47.2832 H   0  0  0  0  0  0  0  0  0  0  0  0
   59.3100   34.0169   48.8269 H   0  0  0  0  0  0  0  0  0  0  0  0
   61.3644   34.1354   45.6687 H   0  0  0  0  0  0  0  0  0  0  0  0
   63.8149   33.6690   45.6440 H   0  0  0  0  0  0  0  0  0  0  0  0
   64.9556   32.8567   47.7103 H   0  0  0  0  0  0  0  0  0  0  0  0
   63.6485   32.5240   49.8110 H   0  0  0  0  0  0  0  0  0  0  0  0
   61.1984   33.0021   49.8508 H   0  0  0  0  0  0  0  0  0  0  0  0
  1  2  1  0
  2  3  1  0
  3  4  1  0
  4  5  1  0
  5  6  2  0
  6  7  1  0
  7  8  2  0
  8  9  1  0
  9 10  1  0
 10 11  1  0
 11 12  1  0
 12 13  1  0
 13 14  2  0
 14 15  1  0
 15 16  2  0
 16 17  1  0
 17 18  2  0
 11 19  1  0
 19 20  1  0
 20 21  2  0
 21 22  1  0
 22 23  2  0
 23 24  1  0
 24 25  2  0
  9 26  2  0
 26  5  1  0
 18 13  1  0
 25 20  1  0
  1 27  1  0
  1 28  1  0
  1 29  1  0
  2 30  1  0
  2 31  1  0
  3 32  1  0
  3 33  1  0
  4 34  1  0
  4 35  1  0
  6 36  1  0
  7 37  1  0
  8 38  1  0
 10 39  1  0
 10 40  1  0
 12 41  1  0
 12 42  1  0
 14 43  1  0
 15 44  1  0
 16 45  1  0
 17 46  1  0
 18 47  1  0
 19 48  1  0
 19 49  1  0
 21 50  1  0
 22 51  1  0
 23 52  1  0
 24 53  1  0
 25 54  1  0
M  CHG  1   3   1
M  END
>  <UniqueID>  (1) 
1

>  <SMILES>  (1) 
CC[NH2+]Cc1cccc(CN(Cc2ccccc2)Cc2ccccc2)n1

>  <Energy>  (1) 
51.92286719178764

>  <Genealogy>  (1) 
CC[NH2+]Cc1cccc(CN(Cc2ccccc2)Cc2ccccc2)n1 (protonated)
CC[NH2+]Cc1cccc(CN(Cc2ccccc2)Cc2ccccc2)n1 (3D coordinates assigned)
CC[NH2+]Cc1cccc(CN(Cc2ccccc2)Cc2ccccc2)n1 (optimized conformer: 51.92286719178764 kcal/mol)

>  <smiles>  (1) 
CCNCc1cccc(CN(Cc2ccccc2)Cc2ccccc2)n1

>  <score_type>  (1) 
oracle

>  <origin>  (1) 
adg

>  <m_score__min__energy>  (1) 
-7.4100000000000001

>  <m_primary>  (1) 
energy

$$$$
1:0
     RDKit          3D

 71 73  0  0  0  0  0  0  0  0999 V2000
   60.3640   33.8960   49.8280 C   0  0  0  0  0  0  0  0  0  0  0  0
   61.8540   33.7980   50.1740 C   0  0  0  0  0  0  0  0  0  0  0  0
   62.6980   33.1220   49.1500 N   0  0  0  0  0  0  0  0  0  0  0  0
   62.6410   33.7890   47.8150 C   0  0  0  0  0  0  0  0  0  0  0  0
   63.7880   33.4390   46.8500 C   0  0  0  0  0  0  0  0  0  0  0  0
   62.5270   31.6460   49.0820 C   0  0  0  0  0  0  0  0  0  0  0  0
   61.8910   31.1760   47.7600 C   0  0  0  0  0  0  0  0  0  0  0  0
   60.4380   31.0580   47.8940 N   0  0  0  0  0  0  0  0  0  0  0  0
   59.6150   30.9950   46.7240 C   0  0  0  0  0  0  0  0  0  0  0  0
   59.2050   32.1890   46.0830 C   0  0  0  0  0  0  0  0  0  0  0  0
   59.7680   33.4310   46.4470 C   0  0  0  0  0  0  0  0  0  0  0  0
   59.3640   34.6070   45.8200 C   0  0  0  0  0  0  0  0  0  0  0  0
   58.4040   34.5690   44.8150 C   0  0  0  0  0  0  0  0  0  0  0  0
   57.8430   33.3540   44.4240 C   0  0  0  0  0  0  0  0  0  0  0  0
   58.2250   32.1390   45.0450 C   0  0  0  0  0  0  0  0  0  0  0  0
   57.6760   30.9290   44.6660 N   0  0  0  0  0  0  0  0  0  0  0  0
   56.6180   30.8630   43.6400 C   0  0  0  0  0  0  0  0  0  0  0  0
   58.1610   29.7810   45.2350 C   0  0  0  0  0  0  0  0  0  0  0  0
   57.7280   28.2000   44.8500 S   0  0  0  0  0  0  0  0  0  0  0  0
   58.7780   27.4640   45.9280 C   0  0  0  0  0  0  0  0  0  0  0  0
   59.4970   28.4430   46.6170 C   0  0  0  0  0  0  0  0  0  0  0  0
   60.5680   28.0260   47.6000 C   0  0  0  0  0  0  0  0  0  0  0  0
   60.0240   27.6730   48.9940 C   0  0  0  0  0  0  0  0  0  0  0  0
   59.7890   28.8810   49.8030 N   0  0  0  0  0  0  0  0  0  0  0  0
   60.1100   28.6440   51.2180 C   0  0  0  0  0  0  0  0  0  0  0  0
   59.1950   29.4970   52.1100 C   0  0  0  0  0  0  0  0  0  0  0  0
   57.8180   29.6000   51.5960 N   0  0  0  0  0  0  0  0  0  0  0  0
   57.2070   30.9340   51.7410 C   0  0  0  0  0  0  0  0  0  0  0  0
   57.7170   31.9260   50.6850 C   0  0  0  0  0  0  0  0  0  0  0  0
   58.5650   31.2550   49.7050 N   0  0  0  0  0  0  0  0  0  0  0  0
   59.1300   29.7670   46.2360 C   0  0  0  0  0  0  0  0  0  0  0  0
   59.7740   33.9348   50.7556 H   0  0  0  0  0  0  0  0  0  0  0  0
   60.1833   34.8080   49.2401 H   0  0  0  0  0  0  0  0  0  0  0  0
   60.0654   33.0156   49.2401 H   0  0  0  0  0  0  0  0  0  0  0  0
   62.2393   34.8189   50.3130 H   0  0  0  0  0  0  0  0  0  0  0  0
   61.9175   33.1782   51.0805 H   0  0  0  0  0  0  0  0  0  0  0  0
   63.6810   33.2780   49.4780 H   0  0  0  0  0  0  0  0  0  0  0  0
   61.6940   33.5034   47.3336 H   0  0  0  0  0  0  0  0  0  0  0  0
   62.7306   34.8675   48.0121 H   0  0  0  0  0  0  0  0  0  0  0  0
   64.6831   33.1659   47.4281 H   0  0  0  0  0  0  0  0  0  0  0  0
   63.4882   32.5915   46.2161 H   0  0  0  0  0  0  0  0  0  0  0  0
   64.0124   34.3095   46.2161 H   0  0  0  0  0  0  0  0  0  0  0  0
   63.5150   31.1732   49.1836 H   0  0  0  0  0  0  0  0  0  0  0  0
   61.8478   31.3547   49.8967 H   0  0  0  0  0  0  0  0  0  0  0  0
   62.1220   31.9053   46.9696 H   0  0  0  0  0  0  0  0  0  0  0  0
   62.3022   30.1887   47.5029 H   0  0  0  0  0  0  0  0  0  0  0  0
   60.0150   30.7920   48.8130 H   0  0  0  0  0  0  0  0  0  0  0  0
   60.5346   33.4705   47.2349 H   0  0  0  0  0  0  0  0  0  0  0  0
   59.8056   35.5686   46.1207 H   0  0  0  0  0  0  0  0  0  0  0  0
   58.0857   35.5016   44.3262 H   0  0  0  0  0  0  0  0  0  0  0  0
   57.0918   33.3384   43.6206 H   0  0  0  0  0  0  0  0  0  0  0  0
   55.6352   30.8017   44.1302 H   0  0  0  0  0  0  0  0  0  0  0  0
   56.6591   31.7655   43.0124 H   0  0  0  0  0  0  0  0  0  0  0  0
   56.7709   29.9726   43.0124 H   0  0  0  0  0  0  0  0  0  0  0  0
   58.8845   26.3785   46.0709 H   0  0  0  0  0  0  0  0  0  0  0  0
   61.0859   27.1438   47.1957 H   0  0  0  0  0  0  0  0  0  0  0  0
   61.2412   28.8868   47.7262 H   0  0  0  0  0  0  0  0  0  0  0  0
   59.0749   27.1288   48.8801 H   0  0  0  0  0  0  0  0  0  0  0  0
   60.7717   27.0523   49.5094 H   0  0  0  0  0  0  0  0  0  0  0  0
   58.7730   29.1280   49.7440 H   0  0  0  0  0  0  0  0  0  0  0  0
   59.9601   27.5799   51.4530 H   0  0  0  0  0  0  0  0  0  0  0  0
   61.1583   28.9209   51.4036 H   0  0  0  0  0  0  0  0  0  0  0  0
   59.1616   29.0438   53.1118 H   0  0  0  0  0  0  0  0  0  0  0  0
   59.6137   30.5140   52.1312 H   0  0  0  0  0  0  0  0  0  0  0  0
   57.8250   29.3520   50.5790 H   0  0  0  0  0  0  0  0  0  0  0  0
   56.1162   30.8367   51.6375 H   0  0  0  0  0  0  0  0  0  0  0  0
   57.4830   31.3250   52.7314 H   0  0  0  0  0  0  0  0  0  0  0  0
   56.8563   32.3757   50.1683 H   0  0  0  0  0  0  0  0  0  0  0  0
   58.3109   32.7019   51.1903 H   0  0  0  0  0  0  0  0  0  0  0  0
   59.4950   31.0680   50.1470 H   0  0  0  0  0  0  0  0  0  0  0  0
   58.1400   30.3220   49.5000 H   0  0  0  0  0  0  0  0  0  0  0  0
  1  2  1  0
  2  3  1  0
  3  4  1  0
  4  5  1  0
  3  6  1  0
  6  7  1  0
  7  8  1  0
  8  9  1  0
  9 10  2  0
 10 11  1  0
 11 12  2  0
 12 13  1  0
 13 14  2  0
 14 15  1  0
 15 16  2  0
 16 17  1  0
 16 18  1  0
 18 19  1  0
 19 20  1  0
 20 21  2  0
 21 22  1  0
 22 23  1  0
 23 24  1  0
 24 25  1  0
 25 26  1  0
 26 27  1  0
 27 28  1  0
 28 29  1  0
 29 30  1  0
 21 31  1  0
 31  9  1  0
 15 10  1  0
 31 18  2  0
  1 32  1  0
  1 33  1  0
  1 34  1  0
  2 35  1  0
  2 36  1  0
  3 37  1  0
  4 38  1  0
  4 39  1  0
  5 40  1  0
  5 41  1  0
  5 42  1  0
  6 43  1  0
  6 44  1  0
  7 45  1  0
  7 46  1  0
  8 47  1  0
 11 48  1  0
 12 49  1  0
 13 50  1  0
 14 51  1  0
 17 52  1  0
 17 53  1  0
 17 54  1  0
 20 55  1  0
 22 56  1  0
 22 57  1  0
 23 58  1  0
 23 59  1  0
 24 60  1  0
 25 61  1  0
 25 62  1  0
 26 63  1  0
 26 64  1  0
 27 65  1  0
 28 66  1  0
 28 67  1  0
 29 68  1  0
 29 69  1  0
 30 70  1  0
 30 71  1  0
M  CHG  2   3   1  16   1
M  END
>  <UniqueID>  (2) 
2

>  <SMILES>  (2) 
CC[NH+](CC)CCNc1c2ccccc2[n+](C)c2scc(CCNCCNCCN)c12

>  <Energy>  (2) 
124.3771791536006

>  <Genealogy>  (2) 
CC[NH+](CC)CCNc1c2ccccc2[n+](C)c2scc(CCNCCNCCN)c12 (protonated)
CC[NH+](CC)CCNc1c2ccccc2[n+](C)c2scc(CCNCCNCCN)c12 (3D coordinates assigned)
CC[NH+](CC)CCNc1c2ccccc2[n+](C)c2scc(CCNCCNCCN)c12 (optimized conformer: 124.3771791536006 kcal/mol)

>  <smiles>  (2) 
CCN(CC)CCNc1c2ccccc2[n+](C)c2scc(CCNCCNCCN)c12

>  <score_type>  (2) 
oracle

>  <origin>  (2) 
adg

>  <m_score__min__energy>  (2) 
-4.7999999999999998

>  <m_primary>  (2) 
energy

$$$$
2:0
     RDKit          3D

 57 59  0  0  0  0  0  0  0  0999 V2000
   65.5980   32.3560   50.1700 C   0  0  0  0  0  0  0  0  0  0  0  0
   64.3140   32.3590   49.3460 C   0  0  0  0  0  0  0  0  0  0  0  0
   64.5030   33.1250   48.1040 N   0  0  0  0  0  0  0  0  0  0  0  0
   63.3930   34.0620   47.8740 C   0  0  0  0  0  0  0  0  0  0  0  0
   62.4940   33.5700   46.7300 C   0  0  0  0  0  0  0  0  0  0  0  0
   61.3310   32.6860   47.2050 C   0  0  0  0  0  0  0  0  0  0  0  0
   60.0410   33.4080   47.1050 N   0  0  0  0  0  0  0  0  0  0  0  0
   59.1010   33.0270   48.1790 C   0  0  0  0  0  0  0  0  0  0  0  0
   58.6970   31.5510   48.0670 C   0  0  0  0  0  0  0  0  0  0  0  0
   58.5230   31.1680   46.6610 N   0  0  0  0  0  0  0  0  0  0  0  0
   58.4160   29.7780   46.3100 C   0  0  0  0  0  0  0  0  0  0  0  0
   59.3070   28.8530   46.8720 C   0  0  0  0  0  0  0  0  0  0  0  0
   59.2350   27.5020   46.5340 C   0  0  0  0  0  0  0  0  0  0  0  0
   58.2670   27.0460   45.6250 C   0  0  0  0  0  0  0  0  0  0  0  0
   58.1980   25.6080   45.2610 C   0  0  0  0  0  0  0  0  0  0  0  0
   58.9890   24.6600   45.9390 C   0  0  0  0  0  0  0  0  0  0  0  0
   58.9260   23.3070   45.5900 C   0  0  0  0  0  0  0  0  0  0  0  0
   58.0780   22.8860   44.5640 C   0  0  0  0  0  0  0  0  0  0  0  0
   57.2890   23.8170   43.8840 C   0  0  0  0  0  0  0  0  0  0  0  0
   57.3470   25.1710   44.2280 C   0  0  0  0  0  0  0  0  0  0  0  0
   57.3690   27.9710   45.0640 C   0  0  0  0  0  0  0  0  0  0  0  0
   57.4340   29.3370   45.4030 C   0  0  0  0  0  0  0  0  0  0  0  0
   56.5350   30.2770   44.8710 O   0  0  0  0  0  0  0  0  0  0  0  0
   56.2650   30.4440   43.4830 C   0  0  0  0  0  0  0  0  0  0  0  0
   58.3380   32.2090   45.6460 C   0  0  0  0  0  0  0  0  0  0  0  0
   59.4290   33.2960   45.7560 C   0  0  0  0  0  0  0  0  0  0  0  0
   65.3465   32.3566   51.2409 H   0  0  0  0  0  0  0  0  0  0  0  0
   66.1846   31.4565   49.9316 H   0  0  0  0  0  0  0  0  0  0  0  0
   66.1888   33.2528   49.9316 H   0  0  0  0  0  0  0  0  0  0  0  0
   64.0420   31.3231   49.0951 H   0  0  0  0  0  0  0  0  0  0  0  0
   63.5127   32.8280   49.9359 H   0  0  0  0  0  0  0  0  0  0  0  0
   64.5080   32.4400   47.3130 H   0  0  0  0  0  0  0  0  0  0  0  0
   62.7945   34.1450   48.7932 H   0  0  0  0  0  0  0  0  0  0  0  0
   63.8095   35.0423   47.5993 H   0  0  0  0  0  0  0  0  0  0  0  0
   62.0769   34.4466   46.2126 H   0  0  0  0  0  0  0  0  0  0  0  0
   63.1198   32.9546   46.0669 H   0  0  0  0  0  0  0  0  0  0  0  0
   61.2871   31.7823   46.5794 H   0  0  0  0  0  0  0  0  0  0  0  0
   61.5019   32.4174   48.2579 H   0  0  0  0  0  0  0  0  0  0  0  0
   59.5833   33.1938   49.1535 H   0  0  0  0  0  0  0  0  0  0  0  0
   58.1952   33.6437   48.0832 H   0  0  0  0  0  0  0  0  0  0  0  0
   59.4823   30.9261   48.5173 H   0  0  0  0  0  0  0  0  0  0  0  0
   57.7435   31.4034   48.5952 H   0  0  0  0  0  0  0  0  0  0  0  0
   60.0700   29.1961   47.5862 H   0  0  0  0  0  0  0  0  0  0  0  0
   59.9417   26.7884   46.9828 H   0  0  0  0  0  0  0  0  0  0  0  0
   59.6601   24.9856   46.7475 H   0  0  0  0  0  0  0  0  0  0  0  0
   59.5461   22.5729   46.1253 H   0  0  0  0  0  0  0  0  0  0  0  0
   58.0311   21.8214   44.2911 H   0  0  0  0  0  0  0  0  0  0  0  0
   56.6207   23.4841   43.0762 H   0  0  0  0  0  0  0  0  0  0  0  0
   56.7239   25.8993   43.6882 H   0  0  0  0  0  0  0  0  0  0  0  0
   56.6062   27.6239   44.3515 H   0  0  0  0  0  0  0  0  0  0  0  0
   55.3357   31.0188   43.3568 H   0  0  0  0  0  0  0  0  0  0  0  0
   57.0978   30.9849   43.0099 H   0  0  0  0  0  0  0  0  0  0  0  0
   56.1529   29.4573   43.0099 H   0  0  0  0  0  0  0  0  0  0  0  0
   58.3883   31.7498   44.6477 H   0  0  0  0  0  0  0  0  0  0  0  0
   57.3578   32.6817   45.8064 H   0  0  0  0  0  0  0  0  0  0  0  0
   60.2250   33.0606   45.0342 H   0  0  0  0  0  0  0  0  0  0  0  0
   58.9388   34.2589   45.5496 H   0  0  0  0  0  0  0  0  0  0  0  0
  1  2  1  0
  2  3  1  0
  3  4  1  0
  4  5  1  0
  5  6  1  0
  6  7  1  0
  7  8  1  0
  8  9  1  0
  9 10  1  0
 10 11  1  0
 11 12  2  0
 12 13  1  0
 13 14  2  0
 14 15  1  0
 15 16  2  0
 16 17  1  0
 17 18  2  0
 18 19  1  0
 19 20  2  0
 14 21  1  0
 21 22  2  0
 22 23  1  0
 23 24  1  0
 10 25  1  0
 25 26  1  0
 26  7  1  0
 22 11  1  0
 20 15  1  0
  1 27  1  0
  1 28  1  0
  1 29  1  0
  2 30  1  0
  2 31  1  0
  3 32  1  0
  4 33  1  0
  4 34  1  0
  5 35  1  0
  5 36  1  0
  6 37  1  0
  6 38  1  0
  8 39  1  0
  8 40  1  0
  9 41  1  0
  9 42  1  0
 12 43  1  0
 13 44  1  0
 16 45  1  0
 17 46  1  0
 18 47  1  0
 19 48  1  0
 20 49  1  0
 21 50  1  0
 24 51  1  0
 24 52  1  0
 24 53  1  0
 25 54  1  0
 25 55  1  0
 26 56  1  0
 26 57  1  0
M  END
>  <UniqueID>  (3) 
3

>  <SMILES>  (3) 
CCNCCCN1CCN(c2ccc(-c3ccccc3)cc2OC)CC1

>  <Energy>  (3) 
69.50979276856216

>  <Genealogy>  (3) 
CCNCCCN1CCN(c2ccc(-c3ccccc3)cc2OC)CC1 (3D coordinates assigned)
CCNCCCN1CCN(c2ccc(-c3ccccc3)cc2OC)CC1 (nonaromatic ring conformer: 69.50979276856216 kcal/mol)

>  <smiles>  (3) 
CCNCCCN1CCN(c2ccc(-c3ccccc3)cc2OC)CC1

>  <score_type>  (3) 
oracle

>  <origin>  (3) 
adg

>  <m_score__min__energy>  (3) 
-7.7599999999999998

>  <m_primary>  (3) 
energy

$$$$
3:0
     RDKit          3D

 44 44  0  0  0  0  0  0  0  0999 V2000
   56.2900   29.6840   42.7970 C   0  0  0  0  0  0  0  0  0  0  0  0
   56.0650   30.3700   44.1460 C   0  0  0  0  0  0  0  0  0  0  0  0
   57.2890   30.9930   44.6980 N   0  0  0  0  0  0  0  0  0  0  0  0
   58.3270   30.0230   45.1330 C   0  0  0  0  0  0  0  0  0  0  0  0
   58.4950   29.8790   46.6540 C   0  0  0  0  0  0  0  0  0  0  0  0
   57.7350   32.2080   43.9710 C   0  0  0  0  0  0  0  0  0  0  0  0
   57.5580   33.4780   44.8320 C   0  0  0  0  0  0  0  0  0  0  0  0
   56.7440   33.2670   46.0430 N   0  0  0  0  0  0  0  0  0  0  0  0
   57.5360   33.3900   47.2790 C   0  0  0  0  0  0  0  0  0  0  0  0
   59.0350   33.2260   46.9810 C   0  0  0  0  0  0  0  0  0  0  0  0
   59.8620   34.4250   47.4640 C   0  0  0  0  0  0  0  0  0  0  0  0
   61.3140   34.0650   47.6560 C   0  0  0  0  0  0  0  0  0  0  0  0
   61.8380   33.9140   48.9510 C   0  0  0  0  0  0  0  0  0  0  0  0
   63.1750   33.5440   49.1320 C   0  0  0  0  0  0  0  0  0  0  0  0
   63.9960   33.3200   48.0220 C   0  0  0  0  0  0  0  0  0  0  0  0
   63.4810   33.4660   46.7310 C   0  0  0  0  0  0  0  0  0  0  0  0
   62.1460   33.8350   46.5460 C   0  0  0  0  0  0  0  0  0  0  0  0
   56.6289   28.6508   42.9631 H   0  0  0  0  0  0  0  0  0  0  0  0
   55.3480   29.6741   42.2290 H   0  0  0  0  0  0  0  0  0  0  0  0
   57.0548   30.2339   42.2290 H   0  0  0  0  0  0  0  0  0  0  0  0
   55.3028   31.1526   44.0168 H   0  0  0  0  0  0  0  0  0  0  0  0
   55.7459   29.5936   44.8569 H   0  0  0  0  0  0  0  0  0  0  0  0
   58.0622   29.0362   44.7254 H   0  0  0  0  0  0  0  0  0  0  0  0
   59.2844   30.4127   44.7567 H   0  0  0  0  0  0  0  0  0  0  0  0
   57.7559   30.5126   47.1661 H   0  0  0  0  0  0  0  0  0  0  0  0
   58.3402   28.8288   46.9422 H   0  0  0  0  0  0  0  0  0  0  0  0
   59.5092   30.1926   46.9422 H   0  0  0  0  0  0  0  0  0  0  0  0
   58.7978   32.0984   43.7095 H   0  0  0  0  0  0  0  0  0  0  0  0
   57.1188   32.3151   43.0661 H   0  0  0  0  0  0  0  0  0  0  0  0
   58.5537   33.8296   45.1403 H   0  0  0  0  0  0  0  0  0  0  0  0
   57.0251   34.2139   44.2119 H   0  0  0  0  0  0  0  0  0  0  0  0
   56.2740   32.3370   46.0110 H   0  0  0  0  0  0  0  0  0  0  0  0
   55.9970   34.0000   46.0580 H   0  0  0  0  0  0  0  0  0  0  0  0
   57.3621   34.3816   47.7223 H   0  0  0  0  0  0  0  0  0  0  0  0
   57.2255   32.6000   47.9786 H   0  0  0  0  0  0  0  0  0  0  0  0
   59.3986   32.3194   47.4867 H   0  0  0  0  0  0  0  0  0  0  0  0
   59.1541   33.1541   45.8898 H   0  0  0  0  0  0  0  0  0  0  0  0
   59.7907   35.2301   46.7178 H   0  0  0  0  0  0  0  0  0  0  0  0
   59.4593   34.7482   48.4352 H   0  0  0  0  0  0  0  0  0  0  0  0
   61.1944   34.0874   49.8260 H   0  0  0  0  0  0  0  0  0  0  0  0
   63.5808   33.4292   50.1479 H   0  0  0  0  0  0  0  0  0  0  0  0
   65.0471   33.0289   48.1652 H   0  0  0  0  0  0  0  0  0  0  0  0
   64.1278   33.2901   45.8588 H   0  0  0  0  0  0  0  0  0  0  0  0
   61.7444   33.9460   45.5280 H   0  0  0  0  0  0  0  0  0  0  0  0
  1  2  1  0
  2  3  1  0
  3  4  1  0
  4  5  1  0
  3  6  1  0
  6  7  1  0
  7  8  1  0
  8  9  1  0
  9 10  1  0
 10 11  1  0
 11 12  1  0
 12 13  2  0
 13 14  1  0
 14 15  2  0
 15 16  1  0
 16 17  2  0
 17 12  1  0
  1 18  1  0
  1 19  1  0
  1 20  1  0
  2 21  1  0
  2 22  1  0
  4 23  1  0
  4 24  1  0
  5 25  1  0
  5 26  1  0
  5 27  1  0
  6 28  1  0
  6 29  1  0
  7 30  1  0
  7 31  1  0
  8 32  1  0
  8 33  1  0
  9 34  1  0
  9 35  1  0
 10 36  1  0
 10 37  1  0
 11 38  1  0
 11 39  1  0
 13 40  1  0
 14 41  1  0
 15 42  1  0
 16 43  1  0
 17 44  1  0
M  CHG  1   8   1
M  END
>  <UniqueID>  (4) 
4

>  <SMILES>  (4) 
CCN(CC)CC[NH2+]CCCc1ccccc1

>  <Energy>  (4) 
44.73643427958433

>  <Genealogy>  (4) 
CCN(CC)CC[NH2+]CCCc1ccccc1 (protonated)
CCN(CC)CC[NH2+]CCCc1ccccc1 (3D coordinates assigned)
CCN(CC)CC[NH2+]CCCc1ccccc1 (optimized conformer: 44.73643427958433 kcal/mol)

>  <smiles>  (4) 
CCN(CC)CCNCCCc1ccccc1

>  <score_type>  (4) 
oracle

>  <origin>  (4) 
adg

>  <m_score__min__energy>  (4) 
-4.3600000000000003

>  <m_primary>  (4) 
energy

$$$$
4:0
     RDKit          3D

 34 35  0  0  0  0  0  0  0  0999 V2000
   56.3820   29.7020   42.7580 C   0  0  0  0  0  0  0  0  0  0  0  0
   55.5660   30.0170   44.0050 C   0  0  0  0  0  0  0  0  0  0  0  0
   56.0410   29.2010   45.1280 N   0  0  0  0  0  0  0  0  0  0  0  0
   57.4660   28.8500   45.0120 C   0  0  0  0  0  0  0  0  0  0  0  0
   58.4120   30.0050   45.3950 C   0  0  0  0  0  0  0  0  0  0  0  0
   57.6890   31.2640   45.5950 N   0  0  0  0  0  0  0  0  0  0  0  0
   58.3310   32.5410   45.8100 C   0  0  0  0  0  0  0  0  0  0  0  0
   58.4970   33.4320   44.7320 C   0  0  0  0  0  0  0  0  0  0  0  0
   59.1440   34.6540   44.9030 C   0  0  0  0  0  0  0  0  0  0  0  0
   59.6400   35.0180   46.1510 C   0  0  0  0  0  0  0  0  0  0  0  0
   59.4870   34.1610   47.2490 C   0  0  0  0  0  0  0  0  0  0  0  0
   59.9810   34.5420   48.5060 C   0  0  0  0  0  0  0  0  0  0  0  0
   59.8160   33.7070   49.6110 C   0  0  0  0  0  0  0  0  0  0  0  0
   59.1530   32.4880   49.4710 C   0  0  0  0  0  0  0  0  0  0  0  0
   58.6590   32.0900   48.2270 C   0  0  0  0  0  0  0  0  0  0  0  0
   58.8260   32.9110   47.0900 C   0  0  0  0  0  0  0  0  0  0  0  0
   57.3705   29.3204   43.0534 H   0  0  0  0  0  0  0  0  0  0  0  0
   55.8589   28.9412   42.1600 H   0  0  0  0  0  0  0  0  0  0  0  0
   56.5058   30.6169   42.1600 H   0  0  0  0  0  0  0  0  0  0  0  0
   55.6772   31.0825   44.2549 H   0  0  0  0  0  0  0  0  0  0  0  0
   54.5068   29.7903   43.8133 H   0  0  0  0  0  0  0  0  0  0  0  0
   55.8800   29.7200   46.0240 H   0  0  0  0  0  0  0  0  0  0  0  0
   57.6704   27.9968   45.6755 H   0  0  0  0  0  0  0  0  0  0  0  0
   57.6571   28.6092   43.9558 H   0  0  0  0  0  0  0  0  0  0  0  0
   58.9331   29.7428   46.3276 H   0  0  0  0  0  0  0  0  0  0  0  0
   59.1234   30.1495   44.5686 H   0  0  0  0  0  0  0  0  0  0  0  0
   56.6480   31.2050   45.6270 H   0  0  0  0  0  0  0  0  0  0  0  0
   58.1097   33.1588   43.7393 H   0  0  0  0  0  0  0  0  0  0  0  0
   59.2633   35.3345   44.0470 H   0  0  0  0  0  0  0  0  0  0  0  0
   60.1542   35.9823   46.2762 H   0  0  0  0  0  0  0  0  0  0  0  0
   60.5012   35.5044   48.6205 H   0  0  0  0  0  0  0  0  0  0  0  0
   60.2088   34.0099   50.5928 H   0  0  0  0  0  0  0  0  0  0  0  0
   59.0183   31.8357   50.3464 H   0  0  0  0  0  0  0  0  0  0  0  0
   58.1347   31.1277   48.1317 H   0  0  0  0  0  0  0  0  0  0  0  0
  1  2  1  0
  2  3  1  0
  3  4  1  0
  4  5  1  0
  5  6  1  0
  6  7  1  0
  7  8  2  0
  8  9  1  0
  9 10  2  0
 10 11  1  0
 11 12  2  0
 12 13  1  0
 13 14  2  0
 14 15  1  0
 15 16  2  0
 16  7  1  0
 16 11  1  0
  1 17  1  0
  1 18  1  0
  1 19  1  0
  2 20  1  0
  2 21  1  0
  3 22  1  0
  4 23  1  0
  4 24  1  0
  5 25  1  0
  5 26  1  0
  6 27  1  0
  8 28  1  0
  9 29  1  0
 10 30  1  0
 12 31  1  0
 13 32  1  0
 14 33  1  0
 15 34  1  0
M  END
>  <UniqueID>  (5) 
5

>  <SMILES>  (5) 
CCNCCNc1cccc2ccccc12

>  <Energy>  (5) 
36.40864968190058

>  <Genealogy>  (5) 
CCNCCNc1cccc2ccccc12 (3D coordinates assigned)
CCNCCNc1cccc2ccccc12 (optimized conformer: 36.40864968190058 kcal/mol)

>  <smiles>  (5) 
CCNCCNc1cccc2ccccc12

>  <score_type>  (5) 
oracle

>  <origin>  (5) 
adg

>  <m_score__min__energy>  (5) 
-6.4800000000000004

>  <m_primary>  (5) 
energy

$$$$
5:0
     RDKit          3D

 55 57  0  0  0  0  0  0  0  0999 V2000
   59.0560   23.8520   45.6250 C   0  0  0  0  0  0  0  0  0  0  0  0
   57.6230   24.2700   45.3110 C   0  0  0  0  0  0  0  0  0  0  0  0
   57.3200   25.5770   45.9390 N   0  0  0  0  0  0  0  0  0  0  0  0
   55.8610   25.8250   46.0050 C   0  0  0  0  0  0  0  0  0  0  0  0
   55.0540   24.6160   45.5330 C   0  0  0  0  0  0  0  0  0  0  0  0
   58.0260   25.7560   47.2330 C   0  0  0  0  0  0  0  0  0  0  0  0
   58.9670   26.9700   47.2760 C   0  0  0  0  0  0  0  0  0  0  0  0
   59.8640   26.8910   46.1870 O   0  0  0  0  0  0  0  0  0  0  0  0
   60.1440   28.1810   45.6760 C   0  0  0  0  0  0  0  0  0  0  0  0
   59.3280   28.4280   44.3950 C   0  0  0  0  0  0  0  0  0  0  0  0
   57.9690   27.8680   44.4720 N   0  0  0  0  0  0  0  0  0  0  0  0
   56.9860   28.8520   44.9420 C   0  0  0  0  0  0  0  0  0  0  0  0
   57.2520   30.1760   44.2800 C   0  0  0  0  0  0  0  0  0  0  0  0
   56.9910   30.3590   42.9060 C   0  0  0  0  0  0  0  0  0  0  0  0
   57.2770   31.5880   42.2780 C   0  0  0  0  0  0  0  0  0  0  0  0
   57.8380   32.6450   43.0090 C   0  0  0  0  0  0  0  0  0  0  0  0
   58.1030   32.4440   44.3620 C   0  0  0  0  0  0  0  0  0  0  0  0
   57.8240   31.2430   44.9920 C   0  0  0  0  0  0  0  0  0  0  0  0
   58.2220   31.2850   46.4430 C   0  0  0  0  0  0  0  0  0  0  0  0
   58.7650   32.6800   46.5430 C   0  0  0  0  0  0  0  0  0  0  0  0
   59.2970   33.3100   47.6700 C   0  0  0  0  0  0  0  0  0  0  0  0
   59.7550   34.6330   47.5470 C   0  0  0  0  0  0  0  0  0  0  0  0
   59.6760   35.3030   46.3100 C   0  0  0  0  0  0  0  0  0  0  0  0
   59.1380   34.6550   45.1860 C   0  0  0  0  0  0  0  0  0  0  0  0
   58.6900   33.3420   45.3330 C   0  0  0  0  0  0  0  0  0  0  0  0
   59.1955   23.8113   46.7154 H   0  0  0  0  0  0  0  0  0  0  0  0
   59.2514   22.8594   45.1930 H   0  0  0  0  0  0  0  0  0  0  0  0
   59.7544   24.5838   45.1930 H   0  0  0  0  0  0  0  0  0  0  0  0
   57.4998   24.3537   44.2211 H   0  0  0  0  0  0  0  0  0  0  0  0
   56.9332   23.5122   45.7108 H   0  0  0  0  0  0  0  0  0  0  0  0
   55.5858   26.0516   47.0456 H   0  0  0  0  0  0  0  0  0  0  0  0
   55.6290   26.6697   45.3397 H   0  0  0  0  0  0  0  0  0  0  0  0
   54.6826   24.0595   46.4062 H   0  0  0  0  0  0  0  0  0  0  0  0
   54.2023   24.9578   44.9266 H   0  0  0  0  0  0  0  0  0  0  0  0
   55.6963   23.9605   44.9266 H   0  0  0  0  0  0  0  0  0  0  0  0
   57.2710   25.8769   48.0238 H   0  0  0  0  0  0  0  0  0  0  0  0
   58.6544   24.8645   47.3755 H   0  0  0  0  0  0  0  0  0  0  0  0
   58.3784   27.8965   47.2035 H   0  0  0  0  0  0  0  0  0  0  0  0
   59.5280   26.9741   48.2222 H   0  0  0  0  0  0  0  0  0  0  0  0
   59.8773   28.9370   46.4292 H   0  0  0  0  0  0  0  0  0  0  0  0
   61.2162   28.2512   45.4404 H   0  0  0  0  0  0  0  0  0  0  0  0
   59.2530   29.5128   44.2289 H   0  0  0  0  0  0  0  0  0  0  0  0
   59.8487   27.9254   43.5666 H   0  0  0  0  0  0  0  0  0  0  0  0
   57.9670   27.0450   45.1200 H   0  0  0  0  0  0  0  0  0  0  0  0
   55.9724   28.5101   44.6856 H   0  0  0  0  0  0  0  0  0  0  0  0
   57.0684   28.9627   46.0333 H   0  0  0  0  0  0  0  0  0  0  0  0
   56.5601   29.5346   42.3189 H   0  0  0  0  0  0  0  0  0  0  0  0
   57.0588   31.7188   41.2078 H   0  0  0  0  0  0  0  0  0  0  0  0
   58.0630   33.6077   42.5268 H   0  0  0  0  0  0  0  0  0  0  0  0
   57.3558   31.1389   47.1051 H   0  0  0  0  0  0  0  0  0  0  0  0
   58.9282   30.4977   46.7454 H   0  0  0  0  0  0  0  0  0  0  0  0
   59.3563   32.7822   48.6333 H   0  0  0  0  0  0  0  0  0  0  0  0
   60.1778   35.1486   48.4219 H   0  0  0  0  0  0  0  0  0  0  0  0
   60.0374   36.3384   46.2242 H   0  0  0  0  0  0  0  0  0  0  0  0
   59.0717   35.1690   44.2158 H   0  0  0  0  0  0  0  0  0  0  0  0
  1  2  1  0
  2  3  1  0
  3  4  1  0
  4  5  1  0
  3  6  1  0
  6  7  1  0
  7  8  1  0
  8  9  1  0
  9 10  1  0
 10 11  1  0
 11 12  1  0
 12 13  1  0
 13 14  2  0
 14 15  1  0
 15 16  2  0
 16 17  1  0
 17 18  2  0
 18 19  1  0
 19 20  1  0
 20 21  2  0
 21 22  1  0
 22 23  2  0
 23 24  1  0
 24 25  2  0
 18 13  1  0
 25 20  1  0
 25 17  1  0
  1 26  1  0
  1 27  1  0
  1 28  1  0
  2 29  1  0
  2 30  1  0
  4 31  1  0
  4 32  1  0
  5 33  1  0
  5 34  1  0
  5 35  1  0
  6 36  1  0
  6 37  1  0
  7 38  1  0
  7 39  1  0
  9 40  1  0
  9 41  1  0
 10 42  1  0
 10 43  1  0
 11 44  1  0
 12 45  1  0
 12 46  1  0
 14 47  1  0
 15 48  1  0
 16 49  1  0
 19 50  1  0
 19 51  1  0
 21 52  1  0
 22 53  1  0
 23 54  1  0
 24 55  1  0
M  END
>  <UniqueID>  (6) 
6

>  <SMILES>  (6) 
CCN(CC)CCOCCNCc1cccc2c1Cc1ccccc1-2

>  <Energy>  (6) 
78.17607490001126

>  <Genealogy>  (6) 
CCN(CC)CCOCCNCc1cccc2c1Cc1ccccc1-2 (3D coordinates assigned)
CCN(CC)CCOCCNCc1cccc2c1Cc1ccccc1-2 (nonaromatic ring conformer: 78.17607490001126 kcal/mol)

>  <smiles>  (6) 
CCN(CC)CCOCCNCc1cccc2c1Cc1ccccc1-2

>  <score_type>  (6) 
oracle

>  <origin>  (6) 
adg

>  <m_score__min__energy>  (6) 
-8.2799999999999994

>  <m_primary>  (6) 
energy

$$$$
6:0
     RDKit          3D

 67 70  0  0  0  0  0  0  0  0999 V2000
   59.2770   34.6090   48.0050 C   0  0  0  0  0  0  0  0  0  0  0  0
   58.1580   33.6940   47.5150 C   0  0  0  0  0  0  0  0  0  0  0  0
   58.5500   33.0530   46.2380 N   0  0  0  0  0  0  0  0  0  0  0  0
   59.6720   33.7680   45.5880 C   0  0  0  0  0  0  0  0  0  0  0  0
   59.1810   35.0350   44.8900 C   0  0  0  0  0  0  0  0  0  0  0  0
   57.3920   32.9160   45.3200 C   0  0  0  0  0  0  0  0  0  0  0  0
   57.3860   31.5260   44.6860 C   0  0  0  0  0  0  0  0  0  0  0  0
   58.0400   30.6020   45.5320 O   0  0  0  0  0  0  0  0  0  0  0  0
   58.8150   29.6950   44.7650 C   0  0  0  0  0  0  0  0  0  0  0  0
   60.1020   29.3520   45.5070 C   0  0  0  0  0  0  0  0  0  0  0  0
   59.8380   28.3450   46.4610 O   0  0  0  0  0  0  0  0  0  0  0  0
   60.3310   28.7170   47.7360 C   0  0  0  0  0  0  0  0  0  0  0  0
   59.2590   29.4760   48.5140 C   0  0  0  0  0  0  0  0  0  0  0  0
   59.3710   30.9140   48.2760 N   0  0  0  0  0  0  0  0  0  0  0  0
   60.2220   31.7250   49.0990 C   0  0  0  0  0  0  0  0  0  0  0  0
   61.4240   32.2830   48.6020 C   0  0  0  0  0  0  0  0  0  0  0  0
   61.7870   32.1270   47.2500 C   0  0  0  0  0  0  0  0  0  0  0  0
   62.9640   32.6890   46.7590 C   0  0  0  0  0  0  0  0  0  0  0  0
   63.7940   33.4200   47.6010 C   0  0  0  0  0  0  0  0  0  0  0  0
   63.4650   33.5890   48.9450 C   0  0  0  0  0  0  0  0  0  0  0  0
   62.2890   33.0160   49.4870 C   0  0  0  0  0  0  0  0  0  0  0  0
   61.9650   33.1550   50.8300 N   0  0  0  0  0  0  0  0  0  0  0  0
   62.8860   33.8190   51.7700 C   0  0  0  0  0  0  0  0  0  0  0  0
   60.7550   32.6750   51.2610 C   0  0  0  0  0  0  0  0  0  0  0  0
   60.2140   32.8360   52.4950 N   0  0  0  0  0  0  0  0  0  0  0  0
   59.0100   32.2340   52.4320 C   0  0  0  0  0  0  0  0  0  0  0  0
   58.0600   32.1670   53.4510 C   0  0  0  0  0  0  0  0  0  0  0  0
   56.8360   31.5360   53.1730 C   0  0  0  0  0  0  0  0  0  0  0  0
   56.5820   31.0010   51.8920 C   0  0  0  0  0  0  0  0  0  0  0  0
   57.5520   31.0890   50.8760 C   0  0  0  0  0  0  0  0  0  0  0  0
   58.7720   31.6980   51.1840 C   0  0  0  0  0  0  0  0  0  0  0  0
   59.9000   31.9780   50.4300 C   0  0  0  0  0  0  0  0  0  0  0  0
   59.2881   34.6181   49.1049 H   0  0  0  0  0  0  0  0  0  0  0  0
   60.2432   34.2389   47.6316 H   0  0  0  0  0  0  0  0  0  0  0  0
   59.1062   35.6295   47.6316 H   0  0  0  0  0  0  0  0  0  0  0  0
   57.9667   32.9164   48.2692 H   0  0  0  0  0  0  0  0  0  0  0  0
   57.2478   34.2906   47.3550 H   0  0  0  0  0  0  0  0  0  0  0  0
   60.4146   34.0425   46.3517 H   0  0  0  0  0  0  0  0  0  0  0  0
   60.1219   33.1043   44.8350 H   0  0  0  0  0  0  0  0  0  0  0  0
   58.8919   35.7810   45.6450 H   0  0  0  0  0  0  0  0  0  0  0  0
   59.9862   35.4427   44.2612 H   0  0  0  0  0  0  0  0  0  0  0  0
   58.3113   34.7936   44.2612 H   0  0  0  0  0  0  0  0  0  0  0  0
   56.4600   33.0618   45.8858 H   0  0  0  0  0  0  0  0  0  0  0  0
   57.4704   33.6734   44.5261 H   0  0  0  0  0  0  0  0  0  0  0  0
   56.3464   31.2025   44.5290 H   0  0  0  0  0  0  0  0  0  0  0  0
   57.9152   31.5681   43.7226 H   0  0  0  0  0  0  0  0  0  0  0  0
   58.2365   28.7751   44.5947 H   0  0  0  0  0  0  0  0  0  0  0  0
   59.0671   30.1610   43.8010 H   0  0  0  0  0  0  0  0  0  0  0  0
   60.8540   28.9906   44.7901 H   0  0  0  0  0  0  0  0  0  0  0  0
   60.4838   30.2495   46.0155 H   0  0  0  0  0  0  0  0  0  0  0  0
   60.6136   27.8125   48.2945 H   0  0  0  0  0  0  0  0  0  0  0  0
   61.2087   29.3672   47.6061 H   0  0  0  0  0  0  0  0  0  0  0  0
   58.2657   29.1323   48.1898 H   0  0  0  0  0  0  0  0  0  0  0  0
   59.3969   29.2827   49.5881 H   0  0  0  0  0  0  0  0  0  0  0  0
   59.1010   31.2740   47.3350 H   0  0  0  0  0  0  0  0  0  0  0  0
   61.1342   31.5552   46.5741 H   0  0  0  0  0  0  0  0  0  0  0  0
   63.2370   32.5537   45.7020 H   0  0  0  0  0  0  0  0  0  0  0  0
   64.7168   33.8682   47.2040 H   0  0  0  0  0  0  0  0  0  0  0  0
   64.1297   34.1770   49.5950 H   0  0  0  0  0  0  0  0  0  0  0  0
   62.5786   33.5974   52.8027 H   0  0  0  0  0  0  0  0  0  0  0  0
   63.9086   33.4490   51.6044 H   0  0  0  0  0  0  0  0  0  0  0  0
   62.8581   34.9061   51.6044 H   0  0  0  0  0  0  0  0  0  0  0  0
   60.5910   33.3510   53.3200 H   0  0  0  0  0  0  0  0  0  0  0  0
   58.2632   32.5957   54.4434 H   0  0  0  0  0  0  0  0  0  0  0  0
   56.0704   31.4584   53.9591 H   0  0  0  0  0  0  0  0  0  0  0  0
   55.6187   30.5115   51.6861 H   0  0  0  0  0  0  0  0  0  0  0  0
   57.3560   30.6905   49.8696 H   0  0  0  0  0  0  0  0  0  0  0  0
  1  2  1  0
  2  3  1  0
  3  4  1  0
  4  5  1  0
  3  6  1  0
  6  7  1  0
  7  8  1  0
  8  9  1  0
  9 10  1  0
 10 11  1  0
 11 12  1  0
 12 13  1  0
 13 14  1  0
 14 15  1  0
 15 16  2  0
 16 17  1  0
 17 18  2  0
 18 19  1  0
 19 20  2  0
 20 21  1  0
 21 22  2  0
 22 23  1  0
 22 24  1  0
 24 25  1  0
 25 26  1  0
 26 27  2  0
 27 28  1  0
 28 29  2  0
 29 30  1  0
 30 31  2  0
 31 32  1  0
 32 15  1  0
 21 16  1  0
 32 24  2  0
 31 26  1  0
  1 33  1  0
  1 34  1  0
  1 35  1  0
  2 36  1  0
  2 37  1  0
  4 38  1  0
  4 39  1  0
  5 40  1  0
  5 41  1  0
  5 42  1  0
  6 43  1  0
  6 44  1  0
  7 45  1  0
  7 46  1  0
  9 47  1  0
  9 48  1  0
 10 49  1  0
 10 50  1  0
 12 51  1  0
 12 52  1  0
 13 53  1  0
 13 54  1  0
 14 55  1  0
 17 56  1  0
 18 57  1  0
 19 58  1  0
 20 59  1  0
 23 60  1  0
 23 61  1  0
 23 62  1  0
 25 63  1  0
 27 64  1  0
 28 65  1  0
 29 66  1  0
 30 67  1  0
M  CHG  1  22   1
M  END
>  <UniqueID>  (7) 
7

>  <SMILES>  (7) 
CCN(CC)CCOCCOCCNc1c2ccccc2[n+](C)c2[nH]c3ccccc3c12

>  <Energy>  (7) 
123.32153362271708

>  <Genealogy>  (7) 
CCN(CC)CCOCCOCCNc1c2ccccc2[n+](C)c2[nH]c3ccccc3c12 (3D coordinates assigned)
CCN(CC)CCOCCOCCNc1c2ccccc2[n+](C)c2[nH]c3ccccc3c12 (optimized conformer: 123.32153362271708 kcal/mol)

>  <smiles>  (7) 
CCN(CC)CCOCCOCCNc1c2ccccc2[n+](C)c2[nH]c3ccccc3c12

>  <score_type>  (7) 
oracle

>  <origin>  (7) 
adg

>  <m_score__min__energy>  (7) 
-5.9000000000000004

>  <m_primary>  (7) 
energy

$$$$
7:0
     RDKit          3D

 44 45  0  0  0  0  0  0  0  0999 V2000
   57.5777   28.4444   46.9077 H   0  0  0  0  0  0  0  0  0  0  0  0
   58.0060   29.3620   46.4780 C   0  0  0  0  0  0  0  0  0  0  0  0
   58.9490   29.9830   47.1160 N   0  0  0  0  0  0  0  0  0  0  0  0
   60.3500   29.9660   46.7030 C   0  0  0  0  0  0  0  0  0  0  0  0
   60.4213   30.3387   45.6705 H   0  0  0  0  0  0  0  0  0  0  0  0
   60.7153   28.9310   46.7760 H   0  0  0  0  0  0  0  0  0  0  0  0
   61.2230   30.8450   47.6100 C   0  0  0  0  0  0  0  0  0  0  0  0
   61.9770   31.3543   46.9919 H   0  0  0  0  0  0  0  0  0  0  0  0
   61.6969   30.1944   48.3598 H   0  0  0  0  0  0  0  0  0  0  0  0
   60.4250   31.8650   48.3280 N   0  0  0  0  0  0  0  0  0  0  0  0
   60.5780   33.2340   47.7790 C   0  0  0  0  0  0  0  0  0  0  0  0
   60.6174   33.9569   48.6072 H   0  0  0  0  0  0  0  0  0  0  0  0
   61.5080   33.2879   47.1941 H   0  0  0  0  0  0  0  0  0  0  0  0
   59.4110   33.5610   46.8860 C   0  0  0  0  0  0  0  0  0  0  0  0
   58.1130   33.1650   47.2510 C   0  0  0  0  0  0  0  0  0  0  0  0
   57.9536   32.6102   48.1874 H   0  0  0  0  0  0  0  0  0  0  0  0
   57.0230   33.4720   46.4310 C   0  0  0  0  0  0  0  0  0  0  0  0
   56.0106   33.1528   46.7194 H   0  0  0  0  0  0  0  0  0  0  0  0
   57.2200   34.1850   45.2440 C   0  0  0  0  0  0  0  0  0  0  0  0
   56.3624   34.4272   44.5991 H   0  0  0  0  0  0  0  0  0  0  0  0
   58.5070   34.5900   44.8770 C   0  0  0  0  0  0  0  0  0  0  0  0
   58.6610   35.1501   43.9429 H   0  0  0  0  0  0  0  0  0  0  0  0
   59.5990   34.2840   45.6960 C   0  0  0  0  0  0  0  0  0  0  0  0
   60.6089   34.6107   45.4072 H   0  0  0  0  0  0  0  0  0  0  0  0
   60.6110   31.8060   49.7960 C   0  0  0  0  0  0  0  0  0  0  0  0
   60.7063   32.8348   50.1735 H   0  0  0  0  0  0  0  0  0  0  0  0
   61.5118   31.2011   49.9768 H   0  0  0  0  0  0  0  0  0  0  0  0
   59.4550   31.1180   50.5520 C   0  0  0  0  0  0  0  0  0  0  0  0
   58.9668   31.8533   51.2085 H   0  0  0  0  0  0  0  0  0  0  0  0
   59.8685   30.2876   51.1431 H   0  0  0  0  0  0  0  0  0  0  0  0
   58.4670   30.5790   49.6210 N   0  0  0  0  0  0  0  0  0  0  0  0
   58.8220   29.6640   49.2580 H   0  0  0  0  0  0  0  0  0  0  0  0
   58.4180   31.2240   48.7980 H   0  0  0  0  0  0  0  0  0  0  0  0
   57.4950   29.8640   45.1830 C   0  0  0  0  0  0  0  0  0  0  0  0
   58.2270   30.8600   44.5150 C   0  0  0  0  0  0  0  0  0  0  0  0
   59.1472   31.2573   44.9681 H   0  0  0  0  0  0  0  0  0  0  0  0
   57.7950   31.3500   43.2790 C   0  0  0  0  0  0  0  0  0  0  0  0
   58.5140   32.3080   42.6410 F   0  0  0  0  0  0  0  0  0  0  0  0
   56.6260   30.8540   42.6980 C   0  0  0  0  0  0  0  0  0  0  0  0
   56.2915   31.2357   41.7221 H   0  0  0  0  0  0  0  0  0  0  0  0
   55.8820   29.8730   43.3570 C   0  0  0  0  0  0  0  0  0  0  0  0
   54.9603   29.4856   42.8984 H   0  0  0  0  0  0  0  0  0  0  0  0
   56.3020   29.3800   44.5970 C   0  0  0  0  0  0  0  0  0  0  0  0
   55.5190   28.4260   45.2380 O   0  0  0  0  0  0  0  0  0  0  0  0
  1  2  1  0
  2  3  2  0
  3  4  1  0
  4  5  1  0
  4  6  1  0
  4  7  1  0
  7  8  1  0
  7  9  1  0
  7 10  1  0
 10 11  1  0
 11 12  1  0
 11 13  1  0
 11 14  1  0
 14 15  2  0
 15 16  1  0
 15 17  1  0
 17 18  1  0
 17 19  2  0
 19 20  1  0
 19 21  1  0
 21 22  1  0
 21 23  2  0
 23 24  1  0
 10 25  1  0
 25 26  1  0
 25 27  1  0
 25 28  1  0
 28 29  1  0
 28 30  1  0
 28 31  1  0
 31 32  1  0
 31 33  1  0
  2 34  1  0
 34 35  2  0
 35 36  1  0
 35 37  1  0
 37 38  1  0
 37 39  2  0
 39 40  1  0
 39 41  1  0
 41 42  1  0
 41 43  2  0
 43 44  1  0
 23 14  1  0
 43 34  1  0
M  CHG  1  44  -1
M  END
>  <UniqueID>  (8) 
8

>  <SMILES>  (8) 
NCCN(CC/N=C/c1cc(F)ccc1[O-])Cc1ccccc1

>  <Energy>  (8) 
43.964105182544834

>  <Genealogy>  (8) 
NCCN(CCN=Cc1cc(F)ccc1[O-])Cc1ccccc1 (protonated)
NCCN(CC/N=C/c1cc(F)ccc1[O-])Cc1ccccc1 (cis-trans isomerization)
NCCN(CC/N=C/c1cc(F)ccc1[O-])Cc1ccccc1 (3D coordinates assigned)
NCCN(CC/N=C/c1cc(F)ccc1[O-])Cc1ccccc1 (optimized conformer: 43.964105182544834 kcal/mol)

>  <smiles>  (8) 
NCCN(CCN=Cc1cc(F)ccc1O)Cc1ccccc1

>  <score_type>  (8) 
oracle

>  <origin>  (8) 
adg

>  <m_score__min__energy>  (8) 
-11.369999999999999

>  <m_primary>  (8) 
energy

$$$$
8:0
     RDKit          3D

 13 13  0  0  0  0  0  0  0  0999 V2000
   54.4870   29.3400   43.6420 O   0  0  0  0  0  0  0  0  0  0  0  0
   55.5580   29.4780   44.2670 N   0  0  0  0  0  0  0  0  0  0  0  0
   55.8930   28.5580   45.2340 O   0  0  0  0  0  0  0  0  0  0  0  0
   56.4390   30.5770   43.9910 C   0  0  0  0  0  0  0  0  0  0  0  0
   56.9030   30.8270   42.6890 C   0  0  0  0  0  0  0  0  0  0  0  0
   57.7590   31.9060   42.4610 C   0  0  0  0  0  0  0  0  0  0  0  0
   58.1450   32.7240   43.5230 C   0  0  0  0  0  0  0  0  0  0  0  0
   57.6660   32.4480   44.8060 C   0  0  0  0  0  0  0  0  0  0  0  0
   56.8330   31.3920   45.0090 N   0  0  0  0  0  0  0  0  0  0  0  0
   56.5945   30.1781   41.8561 H   0  0  0  0  0  0  0  0  0  0  0  0
   58.1286   32.1109   41.4454 H   0  0  0  0  0  0  0  0  0  0  0  0
   58.8188   33.5765   43.3522 H   0  0  0  0  0  0  0  0  0  0  0  0
   57.9626   33.0849   45.6524 H   0  0  0  0  0  0  0  0  0  0  0  0
  1  2  2  0
  2  3  1  0
  2  4  1  0
  4  5  2  0
  5  6  1  0
  6  7  2  0
  7  8  1  0
  8  9  2  0
  9  4  1  0
  5 10  1  0
  6 11  1  0
  7 12  1  0
  8 13  1  0
M  CHG  2   2   1   3  -1
M  END
>  <UniqueID>  (9) 
9

>  <SMILES>  (9) 
O=[N+]([O-])c1ccccn1

>  <Energy>  (9) 
12.652882013899728

>  <Genealogy>  (9) 
O=[N+]([O-])c1ccccn1 (3D coordinates assigned)
O=[N+]([O-])c1ccccn1 (optimized conformer: 12.652882013899728 kcal/mol)

>  <smiles>  (9) 
O=[N+]([O-])c1ccccn1

>  <score_type>  (9) 
oracle

>  <origin>  (9) 
adg

>  <m_score__min__energy>  (9) 
-5.6299999999999999

>  <m_primary>  (9) 
energy

$$$$
9:0
     RDKit          3D

 61 63  0  0  0  0  0  0  0  0999 V2000
   63.7570   33.4150   46.6830 C   0  0  0  0  0  0  0  0  0  0  0  0
   63.7680   32.3060   47.7490 C   0  0  0  0  0  0  0  0  0  0  0  0
   63.6070   32.7810   49.1430 N   0  0  0  0  0  0  0  0  0  0  0  0
   64.4820   32.1170   50.1310 C   0  0  0  0  0  0  0  0  0  0  0  0
   65.9000   32.6820   50.0500 C   0  0  0  0  0  0  0  0  0  0  0  0
   61.9240   32.8350   49.6370 S   0  0  0  0  0  0  0  0  0  0  0  0
   61.6310   31.7160   50.5960 O   0  0  0  0  0  0  0  0  0  0  0  0
   61.6710   34.1280   50.3590 O   0  0  0  0  0  0  0  0  0  0  0  0
   60.8060   32.7180   48.2770 C   0  0  0  0  0  0  0  0  0  0  0  0
   60.6020   33.8190   47.4440 C   0  0  0  0  0  0  0  0  0  0  0  0
   59.7210   33.7390   46.3660 C   0  0  0  0  0  0  0  0  0  0  0  0
   59.0010   32.5500   46.0990 C   0  0  0  0  0  0  0  0  0  0  0  0
   59.2210   31.4280   46.9450 C   0  0  0  0  0  0  0  0  0  0  0  0
   60.1190   31.5280   48.0270 C   0  0  0  0  0  0  0  0  0  0  0  0
   58.5380   30.2250   46.6870 C   0  0  0  0  0  0  0  0  0  0  0  0
   58.6910   29.2320   47.4510 O   0  0  0  0  0  0  0  0  0  0  0  0
   57.6730   30.1350   45.5880 C   0  0  0  0  0  0  0  0  0  0  0  0
   56.9420   28.8830   45.2670 C   0  0  0  0  0  0  0  0  0  0  0  0
   55.7360   28.9600   44.9040 O   0  0  0  0  0  0  0  0  0  0  0  0
   57.5750   27.5890   45.3540 N   0  0  0  0  0  0  0  0  0  0  0  0
   58.9460   27.3950   44.8480 C   0  0  0  0  0  0  0  0  0  0  0  0
   59.8690   26.6970   45.8790 C   0  0  0  0  0  0  0  0  0  0  0  0
   59.3660   25.3210   46.3530 C   0  0  0  0  0  0  0  0  0  0  0  0
   58.4940   24.5700   45.3160 C   0  0  0  0  0  0  0  0  0  0  0  0
   57.0820   25.1450   45.0880 C   0  0  0  0  0  0  0  0  0  0  0  0
   56.8040   26.4420   45.8660 C   0  0  0  0  0  0  0  0  0  0  0  0
   57.4670   31.2680   44.7950 C   0  0  0  0  0  0  0  0  0  0  0  0
   58.1020   32.4530   45.0530 N   0  0  0  0  0  0  0  0  0  0  0  0
   57.8050   33.5820   44.1480 C   0  0  0  0  0  0  0  0  0  0  0  0
   56.8610   34.5780   44.8180 C   0  0  0  0  0  0  0  0  0  0  0  0
   63.7472   34.3980   47.1766 H   0  0  0  0  0  0  0  0  0  0  0  0
   64.6560   33.3289   46.0551 H   0  0  0  0  0  0  0  0  0  0  0  0
   62.8598   33.3111   46.0551 H   0  0  0  0  0  0  0  0  0  0  0  0
   62.9450   31.6106   47.5275 H   0  0  0  0  0  0  0  0  0  0  0  0
   64.7609   31.8356   47.6954 H   0  0  0  0  0  0  0  0  0  0  0  0
   64.0815   32.2859   51.1415 H   0  0  0  0  0  0  0  0  0  0  0  0
   64.5138   31.0393   49.9128 H   0  0  0  0  0  0  0  0  0  0  0  0
   66.2912   32.8379   51.0662 H   0  0  0  0  0  0  0  0  0  0  0  0
   66.5471   31.9730   49.5128 H   0  0  0  0  0  0  0  0  0  0  0  0
   65.8822   33.6417   49.5128 H   0  0  0  0  0  0  0  0  0  0  0  0
   61.1407   34.7579   47.6394 H   0  0  0  0  0  0  0  0  0  0  0  0
   59.5835   34.6135   45.7130 H   0  0  0  0  0  0  0  0  0  0  0  0
   60.2805   30.6590   48.6818 H   0  0  0  0  0  0  0  0  0  0  0  0
   58.9019   26.7766   43.9393 H   0  0  0  0  0  0  0  0  0  0  0  0
   59.3688   28.3894   44.6421 H   0  0  0  0  0  0  0  0  0  0  0  0
   60.8588   26.5617   45.4186 H   0  0  0  0  0  0  0  0  0  0  0  0
   59.8946   27.3453   46.7673 H   0  0  0  0  0  0  0  0  0  0  0  0
   60.2406   24.6956   46.5853 H   0  0  0  0  0  0  0  0  0  0  0  0
   58.7267   25.5037   47.2293 H   0  0  0  0  0  0  0  0  0  0  0  0
   59.0251   24.5863   44.3528 H   0  0  0  0  0  0  0  0  0  0  0  0
   58.3439   23.5603   45.7257 H   0  0  0  0  0  0  0  0  0  0  0  0
   56.9618   25.3526   44.0145 H   0  0  0  0  0  0  0  0  0  0  0  0
   56.3680   24.3932   45.4554 H   0  0  0  0  0  0  0  0  0  0  0  0
   55.7320   26.6759   45.7885 H   0  0  0  0  0  0  0  0  0  0  0  0
   57.1098   26.2754   46.9094 H   0  0  0  0  0  0  0  0  0  0  0  0
   56.7763   31.2055   43.9411 H   0  0  0  0  0  0  0  0  0  0  0  0
   58.7438   34.0931   43.8883 H   0  0  0  0  0  0  0  0  0  0  0  0
   57.3200   33.1902   43.2418 H   0  0  0  0  0  0  0  0  0  0  0  0
   56.9473   34.4869   45.9108 H   0  0  0  0  0  0  0  0  0  0  0  0
   57.1297   35.6001   44.5129 H   0  0  0  0  0  0  0  0  0  0  0  0
   55.8260   34.3644   44.5129 H   0  0  0  0  0  0  0  0  0  0  0  0
  1  2  1  0
  2  3  1  0
  3  4  1  0
  4  5  1  0
  3  6  1  0
  6  7  2  0
  6  8  2  0
  6  9  1  0
  9 10  2  0
 10 11  1  0
 11 12  2  0
 12 13  1  0
 13 14  2  0
 13 15  1  0
 15 16  2  0
 15 17  1  0
 17 18  1  0
 18 19  2  0
 18 20  1  0
 20 21  1  0
 21 22  1  0
 22 23  1  0
 23 24  1  0
 24 25  1  0
 25 26  1  0
 17 27  2  0
 27 28  1  0
 28 29  1  0
 29 30  1  0
 14  9  1  0
 26 20  1  0
 28 12  1  0
  1 31  1  0
  1 32  1  0
  1 33  1  0
  2 34  1  0
  2 35  1  0
  4 36  1  0
  4 37  1  0
  5 38  1  0
  5 39  1  0
  5 40  1  0
 10 41  1  0
 11 42  1  0
 14 43  1  0
 21 44  1  0
 21 45  1  0
 22 46  1  0
 22 47  1  0
 23 48  1  0
 23 49  1  0
 24 50  1  0
 24 51  1  0
 25 52  1  0
 25 53  1  0
 26 54  1  0
 26 55  1  0
 27 56  1  0
 29 57  1  0
 29 58  1  0
 30 59  1  0
 30 60  1  0
 30 61  1  0
M  END
>  <UniqueID>  (10) 
10

>  <SMILES>  (10) 
CCN(CC)S(=O)(=O)c1ccc2c(c1)c(=O)c(C(=O)N1CCCCCC1)cn2CC

>  <Energy>  (10) 
83.06106468963303

>  <Genealogy>  (10) 
CCN(CC)S(=O)(=O)c1ccc2c(c1)c(=O)c(C(=O)N1CCCCCC1)cn2CC (3D coordinates assigned)
CCN(CC)S(=O)(=O)c1ccc2c(c1)c(=O)c(C(=O)N1CCCCCC1)cn2CC (nonaromatic ring conformer: 83.06106468963303 kcal/mol)

>  <smiles>  (10) 
CCN(CC)S(=O)(=O)c1ccc2c(c1)c(=O)c(C(=O)N1CCCCCC1)cn2CC

>  <score_type>  (10) 
oracle

>  <origin>  (10) 
adg

>  <m_score__min__energy>  (10) 
-7.7699999999999996

>  <m_primary>  (10) 
energy

$$$$
10:0
     RDKit          3D

 50 51  0  0  0  0  0  0  0  0999 V2000
   54.3150   24.8190   45.5690 C   0  0  0  0  0  0  0  0  0  0  0  0
   55.2050   25.8230   46.0040 O   0  0  0  0  0  0  0  0  0  0  0  0
   56.4120   25.2510   46.4760 C   0  0  0  0  0  0  0  0  0  0  0  0
   57.6350   25.7890   45.6990 C   0  0  0  0  0  0  0  0  0  0  0  0
   57.3800   26.9900   44.8620 N   0  0  2  0  0  0  0  0  0  0  0  0
   58.2270   27.0250   43.6540 C   0  0  0  0  0  0  0  0  0  0  0  0
   57.4840   28.2500   45.6380 C   0  0  0  0  0  0  0  0  0  0  0  0
   57.3580   29.4650   44.7500 C   0  0  0  0  0  0  0  0  0  0  0  0
   56.4870   29.5580   43.6810 C   0  0  0  0  0  0  0  0  0  0  0  0
   56.6540   30.8170   43.1470 C   0  0  0  0  0  0  0  0  0  0  0  0
   57.6200   31.4450   43.9090 C   0  0  0  0  0  0  0  0  0  0  0  0
   58.1580   32.8220   43.6230 C   0  0  0  0  0  0  0  0  0  0  0  0
   58.0060   33.6990   44.7960 N   0  0  0  0  0  0  0  0  0  0  0  0
   59.1540   34.6050   44.9820 C   0  0  0  0  0  0  0  0  0  0  0  0
   59.8280   34.3600   46.3090 C   0  0  0  0  0  0  0  0  0  0  0  0
   59.1380   34.5960   47.5090 C   0  0  0  0  0  0  0  0  0  0  0  0
   59.7770   34.4140   48.7390 C   0  0  0  0  0  0  0  0  0  0  0  0
   61.1050   33.9810   48.7800 C   0  0  0  0  0  0  0  0  0  0  0  0
   61.7280   33.8130   49.9730 F   0  0  0  0  0  0  0  0  0  0  0  0
   61.7910   33.7160   47.5920 C   0  0  0  0  0  0  0  0  0  0  0  0
   61.1540   33.8940   46.3600 C   0  0  0  0  0  0  0  0  0  0  0  0
   58.0520   30.6190   44.8910 N   0  0  0  0  0  0  0  0  0  0  0  0
   59.0110   30.9560   45.9460 C   0  0  0  0  0  0  0  0  0  0  0  0
   53.8715   24.3186   46.4425 H   0  0  0  0  0  0  0  0  0  0  0  0
   53.5176   25.2735   44.9626 H   0  0  0  0  0  0  0  0  0  0  0  0
   54.8618   24.0819   44.9626 H   0  0  0  0  0  0  0  0  0  0  0  0
   56.5302   25.4948   47.5421 H   0  0  0  0  0  0  0  0  0  0  0  0
   56.3597   24.1624   46.3270 H   0  0  0  0  0  0  0  0  0  0  0  0
   58.4161   26.0445   46.4302 H   0  0  0  0  0  0  0  0  0  0  0  0
   57.9268   24.9898   45.0017 H   0  0  0  0  0  0  0  0  0  0  0  0
   56.3900   26.8930   44.5280 H   0  0  0  0  0  0  0  0  0  0  0  0
   59.2856   27.0687   43.9496 H   0  0  0  0  0  0  0  0  0  0  0  0
   58.0504   26.1188   43.0560 H   0  0  0  0  0  0  0  0  0  0  0  0
   57.9763   27.9136   43.0560 H   0  0  0  0  0  0  0  0  0  0  0  0
   56.6812   28.2730   46.3896 H   0  0  0  0  0  0  0  0  0  0  0  0
   58.4737   28.2768   46.1173 H   0  0  0  0  0  0  0  0  0  0  0  0
   55.7958   28.7794   43.3261 H   0  0  0  0  0  0  0  0  0  0  0  0
   56.1217   31.2398   42.2822 H   0  0  0  0  0  0  0  0  0  0  0  0
   59.2248   32.7457   43.3660 H   0  0  0  0  0  0  0  0  0  0  0  0
   57.5912   33.2540   42.7851 H   0  0  0  0  0  0  0  0  0  0  0  0
   57.9590   33.0800   45.6380 H   0  0  0  0  0  0  0  0  0  0  0  0
   59.8802   34.4358   44.1733 H   0  0  0  0  0  0  0  0  0  0  0  0
   58.7882   35.6422   44.9615 H   0  0  0  0  0  0  0  0  0  0  0  0
   58.0890   34.9259   47.4811 H   0  0  0  0  0  0  0  0  0  0  0  0
   59.2341   34.6117   49.6751 H   0  0  0  0  0  0  0  0  0  0  0  0
   62.8336   33.3669   47.6259 H   0  0  0  0  0  0  0  0  0  0  0  0
   61.6919   33.6687   45.4273 H   0  0  0  0  0  0  0  0  0  0  0  0
   58.5464   30.7927   46.9296 H   0  0  0  0  0  0  0  0  0  0  0  0
   59.9011   30.3168   45.8503 H   0  0  0  0  0  0  0  0  0  0  0  0
   59.3056   32.0115   45.8503 H   0  0  0  0  0  0  0  0  0  0  0  0
  1  2  1  0
  2  3  1  0
  3  4  1  0
  4  5  1  0
  5  6  1  0
  5  7  1  0
  7  8  1  0
  8  9  2  0
  9 10  1  0
 10 11  2  0
 11 12  1  0
 12 13  1  0
 13 14  1  0
 14 15  1  0
 15 16  2  0
 16 17  1  0
 17 18  2  0
 18 19  1  0
 18 20  1  0
 20 21  2  0
 11 22  1  0
 22 23  1  0
 22  8  1  0
 21 15  1  0
  1 24  1  0
  1 25  1  0
  1 26  1  0
  3 27  1  0
  3 28  1  0
  4 29  1  0
  4 30  1  0
  5 31  1  6
  6 32  1  0
  6 33  1  0
  6 34  1  0
  7 35  1  0
  7 36  1  0
  9 37  1  0
 10 38  1  0
 12 39  1  0
 12 40  1  0
 13 41  1  0
 14 42  1  0
 14 43  1  0
 16 44  1  0
 17 45  1  0
 20 46  1  0
 21 47  1  0
 23 48  1  0
 23 49  1  0
 23 50  1  0
M  CHG  1   5   1
M  END
>  <UniqueID>  (11) 
11

>  <SMILES>  (11) 
COCC[N@H+](C)Cc1ccc(CNCc2ccc(F)cc2)n1C

>  <Energy>  (11) 
77.11228256538801

>  <Genealogy>  (11) 
COCC[NH+](C)Cc1ccc(CNCc2ccc(F)cc2)n1C (protonated)
COCC[N@H+](C)Cc1ccc(CNCc2ccc(F)cc2)n1C (chirality)
COCC[N@H+](C)Cc1ccc(CNCc2ccc(F)cc2)n1C (3D coordinates assigned)
COCC[N@H+](C)Cc1ccc(CNCc2ccc(F)cc2)n1C (optimized conformer: 77.11228256538801 kcal/mol)

>  <smiles>  (11) 
COCCN(C)Cc1ccc(CNCc2ccc(F)cc2)n1C

>  <score_type>  (11) 
oracle

>  <origin>  (11) 
adg

>  <m_score__min__energy>  (11) 
-5.21

>  <m_primary>  (11) 
energy

$$$$
11:0
     RDKit          3D

 42 45  0  0  0  0  0  0  0  0999 V2000
   57.9990   34.5420   44.8640 C   0  0  0  0  0  0  0  0  0  0  0  0
   58.1700   33.3860   45.7440 N   0  0  0  0  0  0  0  0  0  0  0  0
   57.6300   32.1430   45.6120 C   0  0  0  0  0  0  0  0  0  0  0  0
   56.6940   31.7420   44.5100 C   0  0  0  0  0  0  0  0  0  0  0  0
   56.2450   30.3580   44.7110 N   0  0  0  0  0  0  0  0  0  0  0  0
   56.9720   29.4250   43.8400 C   0  0  0  0  0  0  0  0  0  0  0  0
   58.1360   28.8300   44.6000 C   0  0  0  0  0  0  0  0  0  0  0  0
   59.3940   29.4500   44.4870 C   0  0  0  0  0  0  0  0  0  0  0  0
   60.4960   28.9620   45.1880 C   0  0  0  0  0  0  0  0  0  0  0  0
   60.3650   27.8560   46.0230 C   0  0  0  0  0  0  0  0  0  0  0  0
   59.1240   27.2250   46.1710 C   0  0  0  0  0  0  0  0  0  0  0  0
   58.9980   26.1190   47.0270 C   0  0  0  0  0  0  0  0  0  0  0  0
   57.7640   25.4890   47.1880 C   0  0  0  0  0  0  0  0  0  0  0  0
   56.6460   25.9550   46.4970 C   0  0  0  0  0  0  0  0  0  0  0  0
   56.7530   27.0500   45.6390 C   0  0  0  0  0  0  0  0  0  0  0  0
   57.9910   27.7070   45.4600 C   0  0  0  0  0  0  0  0  0  0  0  0
   58.1040   31.2500   46.5210 N   0  0  0  0  0  0  0  0  0  0  0  0
   58.9780   31.9800   47.2360 C   0  0  0  0  0  0  0  0  0  0  0  0
   59.7870   31.5470   48.2830 C   0  0  0  0  0  0  0  0  0  0  0  0
   60.6780   32.4770   48.8520 C   0  0  0  0  0  0  0  0  0  0  0  0
   60.7430   33.7990   48.3580 C   0  0  0  0  0  0  0  0  0  0  0  0
   59.9160   34.2050   47.2940 C   0  0  0  0  0  0  0  0  0  0  0  0
   59.0340   33.2610   46.7640 C   0  0  0  0  0  0  0  0  0  0  0  0
   57.8648   35.4489   45.4719 H   0  0  0  0  0  0  0  0  0  0  0  0
   58.8903   34.6546   44.2292 H   0  0  0  0  0  0  0  0  0  0  0  0
   57.1133   34.3917   44.2292 H   0  0  0  0  0  0  0  0  0  0  0  0
   55.8215   32.4119   44.5114 H   0  0  0  0  0  0  0  0  0  0  0  0
   57.2188   31.8149   43.5460 H   0  0  0  0  0  0  0  0  0  0  0  0
   56.4510   30.0950   45.7030 H   0  0  0  0  0  0  0  0  0  0  0  0
   56.2946   28.6204   43.5178 H   0  0  0  0  0  0  0  0  0  0  0  0
   57.3470   29.9636   42.9572 H   0  0  0  0  0  0  0  0  0  0  0  0
   59.5095   30.3304   43.8377 H   0  0  0  0  0  0  0  0  0  0  0  0
   61.4742   29.4536   45.0806 H   0  0  0  0  0  0  0  0  0  0  0  0
   61.2408   27.4759   46.5693 H   0  0  0  0  0  0  0  0  0  0  0  0
   59.8773   25.7474   47.5736 H   0  0  0  0  0  0  0  0  0  0  0  0
   57.6726   24.6236   47.8608 H   0  0  0  0  0  0  0  0  0  0  0  0
   55.6744   25.4565   46.6291 H   0  0  0  0  0  0  0  0  0  0  0  0
   55.8646   27.4054   45.0964 H   0  0  0  0  0  0  0  0  0  0  0  0
   59.7320   30.5127   48.6534 H   0  0  0  0  0  0  0  0  0  0  0  0
   61.3273   32.1724   49.6861 H   0  0  0  0  0  0  0  0  0  0  0  0
   61.4451   34.5162   48.8082 H   0  0  0  0  0  0  0  0  0  0  0  0
   59.9627   35.2288   46.8944 H   0  0  0  0  0  0  0  0  0  0  0  0
  1  2  1  0
  2  3  1  0
  3  4  1  0
  4  5  1  0
  5  6  1  0
  6  7  1  0
  7  8  2  0
  8  9  1  0
  9 10  2  0
 10 11  1  0
 11 12  2  0
 12 13  1  0
 13 14  2  0
 14 15  1  0
 15 16  2  0
  3 17  2  0
 17 18  1  0
 18 19  2  0
 19 20  1  0
 20 21  2  0
 21 22  1  0
 22 23  2  0
 23  2  1  0
 16  7  1  0
 23 18  1  0
 16 11  1  0
  1 24  1  0
  1 25  1  0
  1 26  1  0
  4 27  1  0
  4 28  1  0
  5 29  1  0
  6 30  1  0
  6 31  1  0
  8 32  1  0
  9 33  1  0
 10 34  1  0
 12 35  1  0
 13 36  1  0
 14 37  1  0
 15 38  1  0
 19 39  1  0
 20 40  1  0
 21 41  1  0
 22 42  1  0
M  END
>  <UniqueID>  (12) 
12

>  <SMILES>  (12) 
Cn1c(CNCc2cccc3ccccc23)nc2ccccc21

>  <Energy>  (12) 
84.80151881961642

>  <Genealogy>  (12) 
Cn1c(CNCc2cccc3ccccc23)nc2ccccc21 (3D coordinates assigned)
Cn1c(CNCc2cccc3ccccc23)nc2ccccc21 (optimized conformer: 84.80151881961642 kcal/mol)

>  <smiles>  (12) 
Cn1c(CNCc2cccc3ccccc23)nc2ccccc21

>  <score_type>  (12) 
oracle

>  <origin>  (12) 
adg

>  <m_score__min__energy>  (12) 
-8.0500000000000007

>  <m_primary>  (12) 
energy

$$$$
12:0
     RDKit          3D

 41 42  0  0  0  0  0  0  0  0999 V2000
   61.4990   33.8340   48.0010 C   0  0  0  0  0  0  0  0  0  0  0  0
   60.1590   33.9750   48.7140 C   0  0  0  0  0  0  0  0  0  0  0  0
   59.4960   32.7130   48.8020 O   0  0  0  0  0  0  0  0  0  0  0  0
   59.0400   31.9490   47.7150 C   0  0  0  0  0  0  0  0  0  0  0  0
   58.8920   30.5710   47.8960 C   0  0  0  0  0  0  0  0  0  0  0  0
   58.4420   29.7590   46.8560 C   0  0  0  0  0  0  0  0  0  0  0  0
   58.1030   30.3140   45.6090 C   0  0  0  0  0  0  0  0  0  0  0  0
   58.2850   31.6990   45.4050 C   0  0  0  0  0  0  0  0  0  0  0  0
   58.7430   32.5100   46.4590 C   0  0  0  0  0  0  0  0  0  0  0  0
   58.0050   32.2750   44.0720 C   0  0  0  0  0  0  0  0  0  0  0  0
   58.3160   33.4700   43.8120 O   0  0  0  0  0  0  0  0  0  0  0  0
   57.3940   31.4530   43.0640 N   0  0  0  0  0  0  0  0  0  0  0  0
   57.3610   31.8960   41.6700 C   0  0  0  0  0  0  0  0  0  0  0  0
   56.7690   30.1910   43.4730 C   0  0  0  0  0  0  0  0  0  0  0  0
   57.6790   29.4260   44.4470 C   0  0  2  0  0  0  0  0  0  0  0  0
   56.9670   28.2350   44.9260 N   0  0  0  0  0  0  0  0  0  0  0  0
   57.6220   27.1380   45.5780 C   0  0  0  0  0  0  0  0  0  0  0  0
   58.8790   27.1090   45.6790 O   0  0  0  0  0  0  0  0  0  0  0  0
   56.8090   26.0230   46.1620 C   0  0  0  0  0  0  0  0  0  0  0  0
   55.4280   26.2720   45.9830 O   0  0  0  0  0  0  0  0  0  0  0  0
   54.7610   25.0820   45.6210 C   0  0  0  0  0  0  0  0  0  0  0  0
   62.3037   33.7493   48.7462 H   0  0  0  0  0  0  0  0  0  0  0  0
   61.4861   32.9323   47.3712 H   0  0  0  0  0  0  0  0  0  0  0  0
   61.6741   34.7187   47.3712 H   0  0  0  0  0  0  0  0  0  0  0  0
   60.3296   34.3643   49.7286 H   0  0  0  0  0  0  0  0  0  0  0  0
   59.5252   34.6669   48.1399 H   0  0  0  0  0  0  0  0  0  0  0  0
   59.1335   30.1219   48.8707 H   0  0  0  0  0  0  0  0  0  0  0  0
   58.3512   28.6739   47.0122 H   0  0  0  0  0  0  0  0  0  0  0  0
   58.8700   33.5911   46.3003 H   0  0  0  0  0  0  0  0  0  0  0  0
   57.2793   32.9924   41.6355 H   0  0  0  0  0  0  0  0  0  0  0  0
   58.2851   31.5810   41.1632 H   0  0  0  0  0  0  0  0  0  0  0  0
   56.4938   31.4476   41.1632 H   0  0  0  0  0  0  0  0  0  0  0  0
   55.8104   30.4062   43.9676 H   0  0  0  0  0  0  0  0  0  0  0  0
   56.6059   29.5707   42.5794 H   0  0  0  0  0  0  0  0  0  0  0  0
   58.5958   29.1165   43.9239 H   0  0  0  0  0  0  0  0  0  0  0  0
   55.9230   28.2250   44.8660 H   0  0  0  0  0  0  0  0  0  0  0  0
   57.0749   25.0802   45.6616 H   0  0  0  0  0  0  0  0  0  0  0  0
   57.0218   25.9531   47.2390 H   0  0  0  0  0  0  0  0  0  0  0  0
   54.4577   24.5408   46.5294 H   0  0  0  0  0  0  0  0  0  0  0  0
   53.8693   25.3280   45.0258 H   0  0  0  0  0  0  0  0  0  0  0  0
   55.4362   24.4497   45.0258 H   0  0  0  0  0  0  0  0  0  0  0  0
  1  2  1  0
  2  3  1  0
  3  4  1  0
  4  5  2  0
  5  6  1  0
  6  7  2  0
  7  8  1  0
  8  9  2  0
  8 10  1  0
 10 11  2  0
 10 12  1  0
 12 13  1  0
 12 14  1  0
 14 15  1  0
 15 16  1  0
 16 17  1  0
 17 18  2  0
 17 19  1  0
 19 20  1  0
 20 21  1  0
  9  4  1  0
 15  7  1  0
  1 22  1  0
  1 23  1  0
  1 24  1  0
  2 25  1  0
  2 26  1  0
  5 27  1  0
  6 28  1  0
  9 29  1  0
 13 30  1  0
 13 31  1  0
 13 32  1  0
 14 33  1  0
 14 34  1  0
 15 35  1  6
 16 36  1  0
 19 37  1  0
 19 38  1  0
 21 39  1  0
 21 40  1  0
 21 41  1  0
M  END
>  <UniqueID>  (13) 
13

>  <SMILES>  (13) 
CCOc1ccc2c(c1)C(=O)N(C)C[C@@H]2NC(=O)COC

>  <Energy>  (13) 
38.5281779895161

>  <Genealogy>  (13) 
CCOc1ccc2c(c1)C(=O)N(C)C[C@@H]2NC(=O)COC (chirality)
CCOc1ccc2c(c1)C(=O)N(C)C[C@@H]2NC(=O)COC (3D coordinates assigned)
CCOc1ccc2c(c1)C(=O)N(C)C[C@@H]2NC(=O)COC (nonaromatic ring conformer: 38.5281779895161 kcal/mol)

>  <smiles>  (13) 
CCOc1ccc2c(c1)C(=O)N(C)CC2NC(=O)COC

>  <score_type>  (13) 
oracle

>  <origin>  (13) 
adg

>  <m_score__min__energy>  (13) 
-5.9299999999999997

>  <m_primary>  (13) 
energy

$$$$
13:0
     RDKit          3D

 31 32  0  0  0  0  0  0  0  0999 V2000
   59.0310   34.9330   45.1120 C   0  0  0  0  0  0  0  0  0  0  0  0
   58.6000   33.5030   44.9770 C   0  0  0  0  0  0  0  0  0  0  0  0
   58.1400   33.0170   43.7430 C   0  0  0  0  0  0  0  0  0  0  0  0
   57.7000   31.6950   43.6260 C   0  0  0  0  0  0  0  0  0  0  0  0
   57.7100   30.8460   44.7420 C   0  0  0  0  0  0  0  0  0  0  0  0
   57.1300   29.1870   44.5990 S   0  0  0  0  0  0  0  0  0  0  0  0
   55.7700   29.0940   45.2330 O   0  0  0  0  0  0  0  0  0  0  0  0
   57.0090   28.8420   43.1400 O   0  0  0  0  0  0  0  0  0  0  0  0
   58.2240   28.0340   45.3850 C   0  0  0  0  0  0  0  0  0  0  0  0
   59.6060   28.2880   45.3980 C   0  0  0  0  0  0  0  0  0  0  0  0
   60.4840   27.3970   46.0110 C   0  0  0  0  0  0  0  0  0  0  0  0
   60.0000   26.2400   46.6180 C   0  0  0  0  0  0  0  0  0  0  0  0
   58.6270   25.9590   46.6210 C   0  0  0  0  0  0  0  0  0  0  0  0
   58.1650   24.7580   47.2570 N   0  0  0  0  0  0  0  0  0  0  0  0
   57.7300   26.8600   46.0010 C   0  0  0  0  0  0  0  0  0  0  0  0
   56.3110   26.5800   45.9990 C   0  0  0  0  0  0  0  0  0  0  0  0
   55.1760   26.3550   45.9970 N   0  0  0  0  0  0  0  0  0  0  0  0
   58.1460   31.3370   45.9790 C   0  0  0  0  0  0  0  0  0  0  0  0
   58.5860   32.6590   46.0980 C   0  0  0  0  0  0  0  0  0  0  0  0
   59.1094   35.1932   46.1779 H   0  0  0  0  0  0  0  0  0  0  0  0
   60.0098   35.0682   44.6286 H   0  0  0  0  0  0  0  0  0  0  0  0
   58.2899   35.5865   44.6286 H   0  0  0  0  0  0  0  0  0  0  0  0
   58.1256   33.6789   42.8645 H   0  0  0  0  0  0  0  0  0  0  0  0
   57.3447   31.3196   42.6550 H   0  0  0  0  0  0  0  0  0  0  0  0
   59.9978   29.1980   44.9201 H   0  0  0  0  0  0  0  0  0  0  0  0
   61.5636   27.6077   46.0159 H   0  0  0  0  0  0  0  0  0  0  0  0
   60.7010   25.5417   47.0986 H   0  0  0  0  0  0  0  0  0  0  0  0
   57.9090   24.7590   48.2690 H   0  0  0  0  0  0  0  0  0  0  0  0
   58.0710   23.8570   46.7380 H   0  0  0  0  0  0  0  0  0  0  0  0
   58.1423   30.6797   46.8610 H   0  0  0  0  0  0  0  0  0  0  0  0
   58.9224   33.0388   47.0740 H   0  0  0  0  0  0  0  0  0  0  0  0
  1  2  1  0
  2  3  2  0
  3  4  1  0
  4  5  2  0
  5  6  1  0
  6  7  2  0
  6  8  2  0
  6  9  1  0
  9 10  2  0
 10 11  1  0
 11 12  2  0
 12 13  1  0
 13 14  1  0
 13 15  2  0
 15 16  1  0
 16 17  3  0
  5 18  1  0
 18 19  2  0
 19  2  1  0
 15  9  1  0
  1 20  1  0
  1 21  1  0
  1 22  1  0
  3 23  1  0
  4 24  1  0
 10 25  1  0
 11 26  1  0
 12 27  1  0
 14 28  1  0
 14 29  1  0
 18 30  1  0
 19 31  1  0
M  END
>  <UniqueID>  (14) 
14

>  <SMILES>  (14) 
Cc1ccc(S(=O)(=O)c2cccc(N)c2C#N)cc1

>  <Energy>  (14) 
35.00869000260428

>  <Genealogy>  (14) 
Cc1ccc(S(=O)(=O)c2cccc(N)c2C#N)cc1 (3D coordinates assigned)
Cc1ccc(S(=O)(=O)c2cccc(N)c2C#N)cc1 (optimized conformer: 35.00869000260428 kcal/mol)

>  <smiles>  (14) 
Cc1ccc(S(=O)(=O)c2cccc(N)c2C#N)cc1

>  <score_type>  (14) 
oracle

>  <origin>  (14) 
adg

>  <m_score__min__energy>  (14) 
-7.3399999999999999

>  <m_primary>  (14) 
energy

$$$$
14:0
     RDKit          3D

 47 48  0  0  0  0  0  0  0  0999 V2000
   62.3050   34.1720   49.3690 C   0  0  0  0  0  0  0  0  0  0  0  0
   60.9090   34.4170   49.4880 O   0  0  0  0  0  0  0  0  0  0  0  0
   60.0260   33.5140   50.0890 C   0  0  0  0  0  0  0  0  0  0  0  0
   60.1670   33.1960   51.4090 N   0  0  0  0  0  0  0  0  0  0  0  0
   59.3600   32.2940   52.0240 C   0  0  0  0  0  0  0  0  0  0  0  0
   58.3580   31.6470   51.3020 C   0  0  0  0  0  0  0  0  0  0  0  0
   58.1870   31.9490   49.9510 C   0  0  0  0  0  0  0  0  0  0  0  0
   59.0060   32.9030   49.3310 C   0  0  0  0  0  0  0  0  0  0  0  0
   58.8040   33.2080   47.8990 C   0  0  0  0  0  0  0  0  0  0  0  0
   59.3700   34.2430   47.2420 N   0  0  0  0  0  0  0  0  0  0  0  0
   58.9300   34.1230   45.9780 C   0  0  0  0  0  0  0  0  0  0  0  0
   59.2590   35.0730   44.8720 C   0  0  0  0  0  0  0  0  0  0  0  0
   58.0940   33.0270   45.9140 C   0  0  0  0  0  0  0  0  0  0  0  0
   57.3940   32.4920   44.7050 C   0  0  0  0  0  0  0  0  0  0  0  0
   56.6770   31.2500   45.0350 N   0  0  0  0  0  0  0  0  0  0  0  0
   56.8840   30.1800   44.0410 C   0  0  0  0  0  0  0  0  0  0  0  0
   57.2140   28.8350   44.7060 C   0  0  0  0  0  0  0  0  0  0  0  0
   58.6490   28.7700   45.2520 C   0  0  0  0  0  0  0  0  0  0  0  0
   58.8220   29.7130   46.3800 N   0  0  0  0  0  0  0  0  0  0  0  0
   58.6180   29.0340   47.6720 C   0  0  0  0  0  0  0  0  0  0  0  0
   60.1620   30.3230   46.3490 C   0  0  0  0  0  0  0  0  0  0  0  0
   58.0340   32.4880   47.1090 O   0  0  0  0  0  0  0  0  0  0  0  0
   62.7503   34.0938   50.3718 H   0  0  0  0  0  0  0  0  0  0  0  0
   62.4669   33.2317   48.8216 H   0  0  0  0  0  0  0  0  0  0  0  0
   62.7774   35.0010   48.8216 H   0  0  0  0  0  0  0  0  0  0  0  0
   59.4968   32.0734   53.0929 H   0  0  0  0  0  0  0  0  0  0  0  0
   57.7093   30.9063   51.7925 H   0  0  0  0  0  0  0  0  0  0  0  0
   57.4063   31.4365   49.3697 H   0  0  0  0  0  0  0  0  0  0  0  0
   59.9850   34.9950   47.6240 H   0  0  0  0  0  0  0  0  0  0  0  0
   59.5908   36.0312   45.2983 H   0  0  0  0  0  0  0  0  0  0  0  0
   60.0628   34.6496   44.2519 H   0  0  0  0  0  0  0  0  0  0  0  0
   58.3654   35.2374   44.2519 H   0  0  0  0  0  0  0  0  0  0  0  0
   56.6743   33.2405   44.3420 H   0  0  0  0  0  0  0  0  0  0  0  0
   58.1406   32.2769   43.9264 H   0  0  0  0  0  0  0  0  0  0  0  0
   57.0570   30.9090   45.9480 H   0  0  0  0  0  0  0  0  0  0  0  0
   55.9665   30.0662   43.4450 H   0  0  0  0  0  0  0  0  0  0  0  0
   57.7366   30.4646   43.4069 H   0  0  0  0  0  0  0  0  0  0  0  0
   56.5144   28.6754   45.5397 H   0  0  0  0  0  0  0  0  0  0  0  0
   57.1200   28.0556   43.9354 H   0  0  0  0  0  0  0  0  0  0  0  0
   58.8569   27.7477   45.6007 H   0  0  0  0  0  0  0  0  0  0  0  0
   59.3466   29.0478   44.4481 H   0  0  0  0  0  0  0  0  0  0  0  0
   58.8289   29.7358   48.4924 H   0  0  0  0  0  0  0  0  0  0  0  0
   57.5763   28.6881   47.7440 H   0  0  0  0  0  0  0  0  0  0  0  0
   59.2966   28.1713   47.7440 H   0  0  0  0  0  0  0  0  0  0  0  0
   60.5155   30.4839   47.3781 H   0  0  0  0  0  0  0  0  0  0  0  0
   60.8578   29.6529   45.8228 H   0  0  0  0  0  0  0  0  0  0  0  0
   60.1136   31.2878   45.8228 H   0  0  0  0  0  0  0  0  0  0  0  0
  1  2  1  0
  2  3  1  0
  3  4  2  0
  4  5  1  0
  5  6  2  0
  6  7  1  0
  7  8  2  0
  8  9  1  0
  9 10  2  0
 10 11  1  0
 11 12  1  0
 11 13  2  0
 13 14  1  0
 14 15  1  0
 15 16  1  0
 16 17  1  0
 17 18  1  0
 18 19  1  0
 19 20  1  0
 19 21  1  0
 13 22  1  0
  8  3  1  0
 22  9  1  0
  1 23  1  0
  1 24  1  0
  1 25  1  0
  5 26  1  0
  6 27  1  0
  7 28  1  0
 10 29  1  0
 12 30  1  0
 12 31  1  0
 12 32  1  0
 14 33  1  0
 14 34  1  0
 15 35  1  0
 16 36  1  0
 16 37  1  0
 17 38  1  0
 17 39  1  0
 18 40  1  0
 18 41  1  0
 20 42  1  0
 20 43  1  0
 20 44  1  0
 21 45  1  0
 21 46  1  0
 21 47  1  0
M  CHG  1  10   1
M  END
>  <UniqueID>  (15) 
15

>  <SMILES>  (15) 
COc1ncccc1-c1[nH+]c(C)c(CNCCCN(C)C)o1

>  <Energy>  (15) 
72.29334276442657

>  <Genealogy>  (15) 
COc1ncccc1-c1[nH+]c(C)c(CNCCCN(C)C)o1 (protonated)
COc1ncccc1-c1[nH+]c(C)c(CNCCCN(C)C)o1 (3D coordinates assigned)
COc1ncccc1-c1[nH+]c(C)c(CNCCCN(C)C)o1 (optimized conformer: 72.29334276442657 kcal/mol)

>  <smiles>  (15) 
COc1ncccc1-c1nc(C)c(CNCCCN(C)C)o1

>  <score_type>  (15) 
oracle

>  <origin>  (15) 
adg

>  <m_score__min__energy>  (15) 
-5.6600000000000001

>  <m_primary>  (15) 
energy

$$$$
15:0
     RDKit          3D

 41 42  0  0  0  0  0  0  0  0999 V2000
   57.2980   31.2540   42.7930 C   0  0  0  0  0  0  0  0  0  0  0  0
   56.2580   30.3230   43.4050 C   0  0  0  0  0  0  0  0  0  0  0  0
   56.3240   30.3750   44.8760 N   0  0  0  0  0  0  0  0  0  0  0  0
   56.8660   29.1400   45.4660 C   0  0  0  0  0  0  0  0  0  0  0  0
   58.3160   28.9710   45.1130 C   0  0  0  0  0  0  0  0  0  0  0  0
   59.3970   29.6930   45.5910 C   0  0  0  0  0  0  0  0  0  0  0  0
   59.3820   30.7880   46.6220 C   0  0  0  0  0  0  0  0  0  0  0  0
   59.6410   32.1040   46.0010 N   0  0  0  0  0  0  0  0  0  0  0  0
   58.3750   32.8550   45.7880 C   0  0  0  0  0  0  0  0  0  0  0  0
   58.6170   34.3610   45.6420 C   0  0  0  0  0  0  0  0  0  0  0  0
   59.2360   34.9430   46.9250 C   0  0  0  0  0  0  0  0  0  0  0  0
   60.0720   33.9110   47.7010 C   0  0  0  0  0  0  0  0  0  0  0  0
   60.6760   32.8650   46.7530 C   0  0  0  0  0  0  0  0  0  0  0  0
   60.5150   29.2250   45.0050 N   0  0  0  0  0  0  0  0  0  0  0  0
   60.1800   28.2680   44.1920 O   0  0  0  0  0  0  0  0  0  0  0  0
   58.8810   28.0750   44.2170 C   0  0  0  0  0  0  0  0  0  0  0  0
   58.1700   27.0560   43.3890 C   0  0  0  0  0  0  0  0  0  0  0  0
   57.8585   31.7557   43.5956 H   0  0  0  0  0  0  0  0  0  0  0  0
   57.9921   30.6699   42.1709 H   0  0  0  0  0  0  0  0  0  0  0  0
   56.7940   32.0083   42.1709 H   0  0  0  0  0  0  0  0  0  0  0  0
   55.2553   30.6335   43.0760 H   0  0  0  0  0  0  0  0  0  0  0  0
   56.4624   29.2938   43.0749 H   0  0  0  0  0  0  0  0  0  0  0  0
   55.3470   30.4840   45.2370 H   0  0  0  0  0  0  0  0  0  0  0  0
   56.7647   29.1886   46.5602 H   0  0  0  0  0  0  0  0  0  0  0  0
   56.3041   28.2828   45.0667 H   0  0  0  0  0  0  0  0  0  0  0  0
   58.3967   30.8085   47.1106 H   0  0  0  0  0  0  0  0  0  0  0  0
   60.1735   30.5864   47.3588 H   0  0  0  0  0  0  0  0  0  0  0  0
   57.8913   32.4829   44.8728 H   0  0  0  0  0  0  0  0  0  0  0  0
   57.7352   32.6981   46.6689 H   0  0  0  0  0  0  0  0  0  0  0  0
   59.3025   34.5359   44.7996 H   0  0  0  0  0  0  0  0  0  0  0  0
   57.6520   34.8567   45.4604 H   0  0  0  0  0  0  0  0  0  0  0  0
   59.8853   35.7875   46.6509 H   0  0  0  0  0  0  0  0  0  0  0  0
   58.4100   35.2607   47.5782 H   0  0  0  0  0  0  0  0  0  0  0  0
   60.8856   34.4307   48.2281 H   0  0  0  0  0  0  0  0  0  0  0  0
   59.4150   33.3959   48.4172 H   0  0  0  0  0  0  0  0  0  0  0  0
   61.3280   33.3791   46.0315 H   0  0  0  0  0  0  0  0  0  0  0  0
   61.2363   32.1448   47.3673 H   0  0  0  0  0  0  0  0  0  0  0  0
   61.4920   29.5590   45.1650 H   0  0  0  0  0  0  0  0  0  0  0  0
   57.6663   26.3341   44.0487 H   0  0  0  0  0  0  0  0  0  0  0  0
   57.4234   27.5555   42.7542 H   0  0  0  0  0  0  0  0  0  0  0  0
   58.8965   26.5276   42.7542 H   0  0  0  0  0  0  0  0  0  0  0  0
  1  2  1  0
  2  3  1  0
  3  4  1  0
  4  5  1  0
  5  6  1  0
  6  7  1  0
  7  8  1  0
  8  9  1  0
  9 10  1  0
 10 11  1  0
 11 12  1  0
 12 13  1  0
  6 14  2  0
 14 15  1  0
 15 16  1  0
 16 17  1  0
 16  5  2  0
 13  8  1  0
  1 18  1  0
  1 19  1  0
  1 20  1  0
  2 21  1  0
  2 22  1  0
  3 23  1  0
  4 24  1  0
  4 25  1  0
  7 26  1  0
  7 27  1  0
  9 28  1  0
  9 29  1  0
 10 30  1  0
 10 31  1  0
 11 32  1  0
 11 33  1  0
 12 34  1  0
 12 35  1  0
 13 36  1  0
 13 37  1  0
 14 38  1  0
 17 39  1  0
 17 40  1  0
 17 41  1  0
M  CHG  1  14   1
M  END
>  <UniqueID>  (16) 
16

>  <SMILES>  (16) 
CCNCc1c(CN2CCCCC2)[nH+]oc1C

>  <Energy>  (16) 
71.7409065229058

>  <Genealogy>  (16) 
CCNCc1c(CN2CCCCC2)[nH+]oc1C (protonated)
CCNCc1c(CN2CCCCC2)[nH+]oc1C (3D coordinates assigned)
CCNCc1c(CN2CCCCC2)[nH+]oc1C (nonaromatic ring conformer: 71.7409065229058 kcal/mol)

>  <smiles>  (16) 
CCNCc1c(CN2CCCCC2)noc1C

>  <score_type>  (16) 
oracle

>  <origin>  (16) 
adg

>  <m_score__min__energy>  (16) 
-5.79

>  <m_primary>  (16) 
energy

$$$$
16:0
     RDKit          3D

 57 60  0  0  0  0  0  0  0  0999 V2000
   58.9460   32.9920   51.5220 C   0  0  0  0  0  0  0  0  0  0  0  0
   59.4750   32.9220   50.0920 C   0  0  0  0  0  0  0  0  0  0  0  0
   60.1730   34.2210   49.6550 C   0  0  0  0  0  0  0  0  0  0  0  0
   60.7400   34.1210   48.2980 N   0  0  0  0  0  0  0  0  0  0  0  0
   62.2000   34.2030   48.1280 C   0  0  0  0  0  0  0  0  0  0  0  0
   62.6480   33.4970   46.8430 C   0  0  0  0  0  0  0  0  0  0  0  0
   63.5280   32.3590   47.1500 N   0  0  0  0  0  0  0  0  0  0  0  0
   63.0680   31.6700   48.3470 C   0  0  0  0  0  0  0  0  0  0  0  0
   63.7430   31.8440   49.5850 C   0  0  0  0  0  0  0  0  0  0  0  0
   64.9510   32.5790   49.6770 C   0  0  0  0  0  0  0  0  0  0  0  0
   65.5510   32.8250   50.9090 C   0  0  0  0  0  0  0  0  0  0  0  0
   64.9660   32.3530   52.0750 C   0  0  0  0  0  0  0  0  0  0  0  0
   63.8060   31.5860   52.0110 C   0  0  0  0  0  0  0  0  0  0  0  0
   63.2030   31.2640   50.7670 C   0  0  0  0  0  0  0  0  0  0  0  0
   62.1120   30.4200   50.6970 N   0  0  0  0  0  0  0  0  0  0  0  0
   61.7430   29.5920   51.8690 C   0  0  0  0  0  0  0  0  0  0  0  0
   61.4000   30.2990   49.5200 C   0  0  0  0  0  0  0  0  0  0  0  0
   60.1480   29.6290   49.4810 C   0  0  0  0  0  0  0  0  0  0  0  0
   59.4790   29.4170   48.2790 C   0  0  0  0  0  0  0  0  0  0  0  0
   60.0310   29.8650   47.0880 C   0  0  0  0  0  0  0  0  0  0  0  0
   61.2270   30.5780   47.0970 C   0  0  0  0  0  0  0  0  0  0  0  0
   61.9050   30.8560   48.3120 C   0  0  0  0  0  0  0  0  0  0  0  0
   59.8850   34.0560   47.1330 C   0  0  0  0  0  0  0  0  0  0  0  0
   59.9810   35.0210   46.1120 C   0  0  0  0  0  0  0  0  0  0  0  0
   59.1450   34.9550   44.9930 C   0  0  0  0  0  0  0  0  0  0  0  0
   58.2090   33.9260   44.8760 C   0  0  0  0  0  0  0  0  0  0  0  0
   58.1060   32.9600   45.8800 C   0  0  0  0  0  0  0  0  0  0  0  0
   58.9380   33.0220   47.0010 C   0  0  0  0  0  0  0  0  0  0  0  0
   59.7822   32.8814   52.2281 H   0  0  0  0  0  0  0  0  0  0  0  0
   58.4551   33.9629   51.6842 H   0  0  0  0  0  0  0  0  0  0  0  0
   58.2195   32.1822   51.6842 H   0  0  0  0  0  0  0  0  0  0  0  0
   60.1962   32.0943   50.0234 H   0  0  0  0  0  0  0  0  0  0  0  0
   58.6138   32.7662   49.4256 H   0  0  0  0  0  0  0  0  0  0  0  0
   59.4392   35.0403   49.6725 H   0  0  0  0  0  0  0  0  0  0  0  0
   61.0017   34.4097   50.3534 H   0  0  0  0  0  0  0  0  0  0  0  0
   62.4968   35.2610   48.0785 H   0  0  0  0  0  0  0  0  0  0  0  0
   62.6793   33.7059   48.9843 H   0  0  0  0  0  0  0  0  0  0  0  0
   61.7611   33.1317   46.3046 H   0  0  0  0  0  0  0  0  0  0  0  0
   63.2046   34.2150   46.2228 H   0  0  0  0  0  0  0  0  0  0  0  0
   64.5170   32.6790   47.2510 H   0  0  0  0  0  0  0  0  0  0  0  0
   63.5790   31.7040   46.3370 H   0  0  0  0  0  0  0  0  0  0  0  0
   65.4225   32.9616   48.7598 H   0  0  0  0  0  0  0  0  0  0  0  0
   66.4907   33.3947   50.9579 H   0  0  0  0  0  0  0  0  0  0  0  0
   65.4188   32.5848   53.0503 H   0  0  0  0  0  0  0  0  0  0  0  0
   63.3478   31.2224   52.9426 H   0  0  0  0  0  0  0  0  0  0  0  0
   61.9856   30.1364   52.7935 H   0  0  0  0  0  0  0  0  0  0  0  0
   60.6644   29.3780   51.8418 H   0  0  0  0  0  0  0  0  0  0  0  0
   62.3051   28.6468   51.8418 H   0  0  0  0  0  0  0  0  0  0  0  0
   59.6985   29.2708   50.4189 H   0  0  0  0  0  0  0  0  0  0  0  0
   58.5115   28.8936   48.2736 H   0  0  0  0  0  0  0  0  0  0  0  0
   59.5231   29.6567   46.1348 H   0  0  0  0  0  0  0  0  0  0  0  0
   61.6532   30.9315   46.1465 H   0  0  0  0  0  0  0  0  0  0  0  0
   60.7189   35.8325   46.1953 H   0  0  0  0  0  0  0  0  0  0  0  0
   59.2252   35.7160   44.2028 H   0  0  0  0  0  0  0  0  0  0  0  0
   57.5532   33.8758   43.9943 H   0  0  0  0  0  0  0  0  0  0  0  0
   57.3685   32.1490   45.7879 H   0  0  0  0  0  0  0  0  0  0  0  0
   58.8526   32.2569   47.7867 H   0  0  0  0  0  0  0  0  0  0  0  0
  1  2  1  0
  2  3  1  0
  3  4  1  0
  4  5  1  0
  5  6  1  0
  6  7  1  0
  7  8  1  0
  8  9  1  0
  9 10  2  0
 10 11  1  0
 11 12  2  0
 12 13  1  0
 13 14  2  0
 14 15  1  0
 15 16  1  0
 15 17  2  0
 17 18  1  0
 18 19  2  0
 19 20  1  0
 20 21  2  0
 21 22  1  0
  4 23  1  0
 23 24  2  0
 24 25  1  0
 25 26  2  0
 26 27  1  0
 27 28  2  0
 22  8  2  0
 28 23  1  0
 14  9  1  0
 22 17  1  0
  1 29  1  0
  1 30  1  0
  1 31  1  0
  2 32  1  0
  2 33  1  0
  3 34  1  0
  3 35  1  0
  5 36  1  0
  5 37  1  0
  6 38  1  0
  6 39  1  0
  7 40  1  0
  7 41  1  0
 10 42  1  0
 11 43  1  0
 12 44  1  0
 13 45  1  0
 16 46  1  0
 16 47  1  0
 16 48  1  0
 18 49  1  0
 19 50  1  0
 20 51  1  0
 21 52  1  0
 24 53  1  0
 25 54  1  0
 26 55  1  0
 27 56  1  0
 28 57  1  0
M  CHG  2   7   1  15   1
M  END
>  <UniqueID>  (17) 
17

>  <SMILES>  (17) 
CCCN(CC[NH2+]c1c2ccccc2[n+](C)c2ccccc12)c1ccccc1

>  <Energy>  (17) 
84.76405066682082

>  <Genealogy>  (17) 
CCCN(CC[NH2+]c1c2ccccc2[n+](C)c2ccccc12)c1ccccc1 (protonated)
CCCN(CC[NH2+]c1c2ccccc2[n+](C)c2ccccc12)c1ccccc1 (3D coordinates assigned)
CCCN(CC[NH2+]c1c2ccccc2[n+](C)c2ccccc12)c1ccccc1 (optimized conformer: 84.76405066682082 kcal/mol)

>  <smiles>  (17) 
CCCN(CCNc1c2ccccc2[n+](C)c2ccccc12)c1ccccc1

>  <score_type>  (17) 
oracle

>  <origin>  (17) 
adg

>  <m_score__min__energy>  (17) 
-5.5700000000000003

>  <m_primary>  (17) 
energy

$$$$
17:0
     RDKit          3D

 76 79  0  0  0  0  0  0  0  0999 V2000
   63.7650   33.1390   47.0630 C   0  0  0  0  0  0  0  0  0  0  0  0
   63.4170   33.3090   48.5480 C   0  0  0  0  0  0  0  0  0  0  0  0
   63.8550   32.0900   49.3800 C   0  0  0  0  0  0  0  0  0  0  0  0
   61.9990   33.6740   48.7590 N   0  0  0  0  0  0  0  0  0  0  0  0
   61.2780   32.9080   49.7960 C   0  0  0  0  0  0  0  0  0  0  0  0
   60.4210   31.7950   49.1690 C   0  0  0  0  0  0  0  0  0  0  0  0
   60.9530   31.2780   47.8900 N   0  0  0  0  0  0  0  0  0  0  0  0
   59.9550   31.2600   46.8370 C   0  0  0  0  0  0  0  0  0  0  0  0
   59.5230   32.4670   46.2030 C   0  0  0  0  0  0  0  0  0  0  0  0
   60.0630   33.7410   46.5150 C   0  0  0  0  0  0  0  0  0  0  0  0
   59.6170   34.8920   45.8700 C   0  0  0  0  0  0  0  0  0  0  0  0
   58.6340   34.8110   44.8940 C   0  0  0  0  0  0  0  0  0  0  0  0
   58.0870   33.5790   44.5570 C   0  0  0  0  0  0  0  0  0  0  0  0
   58.5060   32.3890   45.2010 C   0  0  0  0  0  0  0  0  0  0  0  0
   57.9600   31.1730   44.8560 N   0  0  0  0  0  0  0  0  0  0  0  0
   56.6710   31.1140   44.1390 C   0  0  0  0  0  0  0  0  0  0  0  0
   58.5590   30.0310   45.3280 C   0  0  0  0  0  0  0  0  0  0  0  0
   59.4340   30.0720   46.3670 N   0  0  0  0  0  0  0  0  0  0  0  0
   59.6590   28.7560   46.6610 C   0  0  0  0  0  0  0  0  0  0  0  0
   60.4140   28.1510   47.6840 C   0  0  0  0  0  0  0  0  0  0  0  0
   60.5140   26.7560   47.7140 C   0  0  0  0  0  0  0  0  0  0  0  0
   59.8630   25.9680   46.7530 C   0  0  0  0  0  0  0  0  0  0  0  0
   59.0810   26.5670   45.7430 C   0  0  0  0  0  0  0  0  0  0  0  0
   58.3970   25.8050   44.7790 O   0  0  0  0  0  0  0  0  0  0  0  0
   57.1120   25.2060   44.9670 C   0  0  0  0  0  0  0  0  0  0  0  0
   56.9030   24.0470   43.9810 C   0  0  0  0  0  0  0  0  0  0  0  0
   56.6320   22.7140   44.7200 C   0  0  0  0  0  0  0  0  0  0  0  0
   57.5750   21.6010   44.3940 N   0  0  0  0  0  0  0  0  0  0  0  0
   58.9900   22.0230   44.5330 C   0  0  0  0  0  0  0  0  0  0  0  0
   57.3380   21.0950   43.0170 C   0  0  0  0  0  0  0  0  0  0  0  0
   57.3220   20.4890   45.3420 C   0  0  0  0  0  0  0  0  0  0  0  0
   58.9920   27.9720   45.7390 C   0  0  0  0  0  0  0  0  0  0  0  0
   58.3250   28.7650   44.8720 N   0  0  0  0  0  0  0  0  0  0  0  0
   57.8130   28.3530   43.5620 C   0  0  0  0  0  0  0  0  0  0  0  0
   64.7498   32.6579   46.9699 H   0  0  0  0  0  0  0  0  0  0  0  0
   63.0031   32.5116   46.5773 H   0  0  0  0  0  0  0  0  0  0  0  0
   63.7915   34.1256   46.5773 H   0  0  0  0  0  0  0  0  0  0  0  0
   64.0004   34.1645   48.9192 H   0  0  0  0  0  0  0  0  0  0  0  0
   63.7698   32.3271   50.4508 H   0  0  0  0  0  0  0  0  0  0  0  0
   63.2088   31.2322   49.1419 H   0  0  0  0  0  0  0  0  0  0  0  0
   64.8993   31.8396   49.1419 H   0  0  0  0  0  0  0  0  0  0  0  0
   61.9590   34.6910   49.0060 H   0  0  0  0  0  0  0  0  0  0  0  0
   62.0095   32.4549   50.4812 H   0  0  0  0  0  0  0  0  0  0  0  0
   60.6132   33.5961   50.3388 H   0  0  0  0  0  0  0  0  0  0  0  0
   60.3620   30.9598   49.8824 H   0  0  0  0  0  0  0  0  0  0  0  0
   59.4365   32.2345   48.9510 H   0  0  0  0  0  0  0  0  0  0  0  0
   61.7580   31.8500   47.5640 H   0  0  0  0  0  0  0  0  0  0  0  0
   61.4080   30.3580   48.0490 H   0  0  0  0  0  0  0  0  0  0  0  0
   60.8487   33.8214   47.2807 H   0  0  0  0  0  0  0  0  0  0  0  0
   60.0459   35.8695   46.1354 H   0  0  0  0  0  0  0  0  0  0  0  0
   58.2873   35.7233   44.3865 H   0  0  0  0  0  0  0  0  0  0  0  0
   57.3144   33.5268   43.7757 H   0  0  0  0  0  0  0  0  0  0  0  0
   55.8476   31.0763   44.8674 H   0  0  0  0  0  0  0  0  0  0  0  0
   56.5614   32.0081   43.5076 H   0  0  0  0  0  0  0  0  0  0  0  0
   56.6435   30.2137   43.5076 H   0  0  0  0  0  0  0  0  0  0  0  0
   60.9164   28.7646   48.4463 H   0  0  0  0  0  0  0  0  0  0  0  0
   61.1104   26.2709   48.5008 H   0  0  0  0  0  0  0  0  0  0  0  0
   59.9632   24.8731   46.7873 H   0  0  0  0  0  0  0  0  0  0  0  0
   57.0395   24.8225   45.9954 H   0  0  0  0  0  0  0  0  0  0  0  0
   56.3379   25.9666   44.7875 H   0  0  0  0  0  0  0  0  0  0  0  0
   56.0435   24.2784   43.3347 H   0  0  0  0  0  0  0  0  0  0  0  0
   57.8209   23.9309   43.3860 H   0  0  0  0  0  0  0  0  0  0  0  0
   56.6935   22.9061   45.8014 H   0  0  0  0  0  0  0  0  0  0  0  0
   55.6383   22.3784   44.3884 H   0  0  0  0  0  0  0  0  0  0  0  0
   59.2467   22.0996   45.5999 H   0  0  0  0  0  0  0  0  0  0  0  0
   59.6431   21.2805   44.0511 H   0  0  0  0  0  0  0  0  0  0  0  0
   59.1297   23.0019   44.0511 H   0  0  0  0  0  0  0  0  0  0  0  0
   56.8719   20.0999   43.0672 H   0  0  0  0  0  0  0  0  0  0  0  0
   56.6700   21.7862   42.4823 H   0  0  0  0  0  0  0  0  0  0  0  0
   58.2967   21.0243   42.4823 H   0  0  0  0  0  0  0  0  0  0  0  0
   57.4065   20.8605   46.3739 H   0  0  0  0  0  0  0  0  0  0  0  0
   56.3101   20.0901   45.1776 H   0  0  0  0  0  0  0  0  0  0  0  0
   58.0617   19.6916   45.1776 H   0  0  0  0  0  0  0  0  0  0  0  0
   56.9627   27.6688   43.6993 H   0  0  0  0  0  0  0  0  0  0  0  0
   57.4829   29.2402   43.0017 H   0  0  0  0  0  0  0  0  0  0  0  0
   58.6091   27.8408   43.0017 H   0  0  0  0  0  0  0  0  0  0  0  0
  1  2  1  0
  2  3  1  0
  2  4  1  0
  4  5  1  0
  5  6  1  0
  6  7  1  0
  7  8  1  0
  8  9  2  0
  9 10  1  0
 10 11  2  0
 11 12  1  0
 12 13  2  0
 13 14  1  0
 14 15  2  0
 15 16  1  0
 15 17  1  0
 17 18  1  0
 18 19  1  0
 19 20  2  0
 20 21  1  0
 21 22  2  0
 22 23  1  0
 23 24  1  0
 24 25  1  0
 25 26  1  0
 26 27  1  0
 27 28  1  0
 28 29  1  0
 28 30  1  0
 28 31  1  0
 23 32  2  0
 32 33  1  0
 33 34  1  0
 18  8  1  0
 32 19  1  0
 14  9  1  0
 33 17  2  0
  1 35  1  0
  1 36  1  0
  1 37  1  0
  2 38  1  0
  3 39  1  0
  3 40  1  0
  3 41  1  0
  4 42  1  0
  5 43  1  0
  5 44  1  0
  6 45  1  0
  6 46  1  0
  7 47  1  0
  7 48  1  0
 10 49  1  0
 11 50  1  0
 12 51  1  0
 13 52  1  0
 16 53  1  0
 16 54  1  0
 16 55  1  0
 20 56  1  0
 21 57  1  0
 22 58  1  0
 25 59  1  0
 25 60  1  0
 26 61  1  0
 26 62  1  0
 27 63  1  0
 27 64  1  0
 29 65  1  0
 29 66  1  0
 29 67  1  0
 30 68  1  0
 30 69  1  0
 30 70  1  0
 31 71  1  0
 31 72  1  0
 31 73  1  0
 34 74  1  0
 34 75  1  0
 34 76  1  0
M  CHG  4   7   1  15   1  28   1  33   1
M  END
>  <UniqueID>  (18) 
18

>  <SMILES>  (18) 
CC(C)NCC[NH2+]c1c2ccccc2[n+](C)c2n1c1cccc(OCCC[N+](C)(C)C)c1[n+]2C

>  <Energy>  (18) 
159.18854465393153

>  <Genealogy>  (18) 
CC(C)NCC[NH2+]c1c2ccccc2[n+](C)c2n1c1cccc(OCCC[N+](C)(C)C)c1[n+]2C (protonated)
CC(C)NCC[NH2+]c1c2ccccc2[n+](C)c2n1c1cccc(OCCC[N+](C)(C)C)c1[n+]2C (3D coordinates assigned)
CC(C)NCC[NH2+]c1c2ccccc2[n+](C)c2n1c1cccc(OCCC[N+](C)(C)C)c1[n+]2C (optimized conformer: 159.18854465393153 kcal/mol)

>  <smiles>  (18) 
CC(C)NCCNc1c2ccccc2[n+](C)c2n1c1cccc(OCCC[N+](C)(C)C)c1[n+]2C

>  <score_type>  (18) 
oracle

>  <origin>  (18) 
adg

>  <m_score__min__energy>  (18) 
-2.8300000000000001

>  <m_primary>  (18) 
energy

$$$$
18:0
     RDKit          3D

 44 46  0  0  0  0  0  0  0  0999 V2000
   57.3124   35.0939   44.6541 H   0  0  0  0  0  0  0  0  0  0  0  0
   57.7720   34.1980   45.0970 C   0  0  0  0  0  0  0  0  0  0  0  0
   58.9360   34.3140   45.8570 C   0  0  0  0  0  0  0  0  0  0  0  0
   59.3921   35.3026   46.0140 H   0  0  0  0  0  0  0  0  0  0  0  0
   59.5240   33.1790   46.4190 C   0  0  0  0  0  0  0  0  0  0  0  0
   60.4445   33.2806   47.0126 H   0  0  0  0  0  0  0  0  0  0  0  0
   58.9480   31.8980   46.2330 C   0  0  0  0  0  0  0  0  0  0  0  0
   59.5350   30.7250   46.7790 C   0  0  0  0  0  0  0  0  0  0  0  0
   60.6980   30.8800   47.3650 N   0  0  0  0  0  0  0  0  0  0  0  0
   61.2080   30.5820   48.6980 C   0  0  0  0  0  0  0  0  0  0  0  0
   61.2897   29.4923   48.8238 H   0  0  0  0  0  0  0  0  0  0  0  0
   60.5187   30.9885   49.4528 H   0  0  0  0  0  0  0  0  0  0  0  0
   62.5900   31.2210   48.8730 C   0  0  0  0  0  0  0  0  0  0  0  0
   63.2689   30.4727   49.3080 H   0  0  0  0  0  0  0  0  0  0  0  0
   62.4658   32.0957   49.5284 H   0  0  0  0  0  0  0  0  0  0  0  0
   63.1990   31.7240   47.5450 C   0  0  0  0  0  0  0  0  0  0  0  0
   62.4810   31.5387   46.7325 H   0  0  0  0  0  0  0  0  0  0  0  0
   64.1405   31.1809   47.3759 H   0  0  0  0  0  0  0  0  0  0  0  0
   63.5080   33.1720   47.5890 N   0  0  0  0  0  0  0  0  0  0  0  0
   63.0420   33.8470   46.3660 C   0  0  0  0  0  0  0  0  0  0  0  0
   62.4366   34.7239   46.6391 H   0  0  0  0  0  0  0  0  0  0  0  0
   63.9098   34.1709   45.7726 H   0  0  0  0  0  0  0  0  0  0  0  0
   62.4315   33.1504   45.7726 H   0  0  0  0  0  0  0  0  0  0  0  0
   63.0480   33.8630   48.8180 C   0  0  0  0  0  0  0  0  0  0  0  0
   63.6261   34.7928   48.9246 H   0  0  0  0  0  0  0  0  0  0  0  0
   63.2045   33.1574   49.6472 H   0  0  0  0  0  0  0  0  0  0  0  0
   61.5550   34.2240   48.8330 C   0  0  0  0  0  0  0  0  0  0  0  0
   61.2085   34.3078   49.8736 H   0  0  0  0  0  0  0  0  0  0  0  0
   61.4048   35.1843   48.3181 H   0  0  0  0  0  0  0  0  0  0  0  0
   60.9826   33.4384   48.3181 H   0  0  0  0  0  0  0  0  0  0  0  0
   58.8520   29.4680   46.5980 C   0  0  0  0  0  0  0  0  0  0  0  0
   59.2290   28.2390   47.1970 C   0  0  0  0  0  0  0  0  0  0  0  0
   60.0872   28.2155   47.8847 H   0  0  0  0  0  0  0  0  0  0  0  0
   58.5320   27.0570   46.9310 C   0  0  0  0  0  0  0  0  0  0  0  0
   58.8589   26.1146   47.3948 H   0  0  0  0  0  0  0  0  0  0  0  0
   57.4290   27.0630   46.0850 C   0  0  0  0  0  0  0  0  0  0  0  0
   56.5580   25.5750   45.7600 Cl  0  0  0  0  0  0  0  0  0  0  0  0
   56.9990   28.2610   45.5210 C   0  0  0  0  0  0  0  0  0  0  0  0
   56.1142   28.2707   44.8675 H   0  0  0  0  0  0  0  0  0  0  0  0
   57.6850   29.4530   45.7800 C   0  0  0  0  0  0  0  0  0  0  0  0
   57.1940   30.5980   45.2510 N   0  0  0  0  0  0  0  0  0  0  0  0
   57.7700   31.8010   45.4630 C   0  0  0  0  0  0  0  0  0  0  0  0
   57.1910   32.9450   44.8990 C   0  0  0  0  0  0  0  0  0  0  0  0
   56.2744   32.8552   44.2975 H   0  0  0  0  0  0  0  0  0  0  0  0
  1  2  1  0
  2  3  2  0
  3  4  1  0
  3  5  1  0
  5  6  1  0
  5  7  2  0
  7  8  1  0
  8  9  2  0
  9 10  1  0
 10 11  1  0
 10 12  1  0
 10 13  1  0
 13 14  1  0
 13 15  1  0
 13 16  1  0
 16 17  1  0
 16 18  1  0
 16 19  1  0
 19 20  1  0
 20 21  1  0
 20 22  1  0
 20 23  1  0
 19 24  1  0
 24 25  1  0
 24 26  1  0
 24 27  1  0
 27 28  1  0
 27 29  1  0
 27 30  1  0
  8 31  1  0
 31 32  2  0
 32 33  1  0
 32 34  1  0
 34 35  1  0
 34 36  2  0
 36 37  1  0
 36 38  1  0
 38 39  1  0
 38 40  2  0
 40 41  1  0
 41 42  1  0
 42 43  2  0
 43 44  1  0
 43  2  1  0
 42  7  1  0
 40 31  1  0
M  CHG  1  41  -1
M  END
>  <UniqueID>  (19) 
19

>  <SMILES>  (19) 
CCN(C)CCC/N=c1/c2ccccc2[n-]c2cc(Cl)ccc12

>  <Energy>  (19) 
70.6920153144085

>  <Genealogy>  (19) 
CCN(C)CCCN=c1c2ccccc2[n-]c2cc(Cl)ccc12 (protonated)
CCN(C)CCC/N=c1/c2ccccc2[n-]c2cc(Cl)ccc12 (cis-trans isomerization)
CCN(C)CCC/N=c1/c2ccccc2[n-]c2cc(Cl)ccc12 (3D coordinates assigned)
CCN(C)CCC/N=c1/c2ccccc2[n-]c2cc(Cl)ccc12 (optimized conformer: 70.6920153144085 kcal/mol)

>  <smiles>  (19) 
CCN(C)CCCN=c1c2ccccc2[nH]c2cc(Cl)ccc12

>  <score_type>  (19) 
oracle

>  <origin>  (19) 
adg

>  <m_score__min__energy>  (19) 
-8.2699999999999996

>  <m_primary>  (19) 
energy

$$$$
19:0
     RDKit          3D

 64 66  0  0  0  0  0  0  0  0999 V2000
   57.8030   27.7780   44.4190 C   0  0  0  0  0  0  0  0  0  0  0  0
   57.1840   28.6330   45.5180 C   0  0  0  0  0  0  0  0  0  0  0  0
   57.1730   30.0570   45.1090 N   0  0  0  0  0  0  0  0  0  0  0  0
   56.1030   30.3490   44.1240 C   0  0  0  0  0  0  0  0  0  0  0  0
   56.6470   30.4870   42.7030 C   0  0  0  0  0  0  0  0  0  0  0  0
   58.5210   30.5670   44.7430 C   0  0  0  0  0  0  0  0  0  0  0  0
   59.6670   30.0580   45.6470 C   0  0  0  0  0  0  0  0  0  0  0  0
   59.8500   30.9130   46.7590 O   0  0  0  0  0  0  0  0  0  0  0  0
   60.3070   30.2050   47.8990 C   0  0  0  0  0  0  0  0  0  0  0  0
   59.1360   29.8780   48.8360 C   0  0  0  0  0  0  0  0  0  0  0  0
   59.4650   30.0860   50.3180 C   0  0  0  0  0  0  0  0  0  0  0  0
   60.0190   31.4360   50.5240 N   0  0  0  0  0  0  0  0  0  0  0  0
   59.0200   32.5070   50.3830 C   0  0  0  0  0  0  0  0  0  0  0  0
   59.6410   33.8800   50.0620 C   0  0  0  0  0  0  0  0  0  0  0  0
   60.7750   33.7790   49.0730 C   0  0  0  0  0  0  0  0  0  0  0  0
   60.7060   33.7030   47.6720 C   0  0  0  0  0  0  0  0  0  0  0  0
   59.5050   33.8720   46.8290 C   0  0  0  0  0  0  0  0  0  0  0  0
   58.2820   33.3210   47.2440 C   0  0  0  0  0  0  0  0  0  0  0  0
   57.1370   33.4670   46.4560 C   0  0  0  0  0  0  0  0  0  0  0  0
   57.2080   34.1430   45.2360 C   0  0  0  0  0  0  0  0  0  0  0  0
   58.4290   34.6610   44.7960 C   0  0  0  0  0  0  0  0  0  0  0  0
   59.5760   34.5170   45.5820 C   0  0  0  0  0  0  0  0  0  0  0  0
   61.9280   33.4350   47.1520 N   0  0  0  0  0  0  0  0  0  0  0  0
   62.7700   33.3580   48.1960 C   0  0  0  0  0  0  0  0  0  0  0  0
   64.1370   33.0920   48.1550 C   0  0  0  0  0  0  0  0  0  0  0  0
   64.8340   33.0420   49.3760 C   0  0  0  0  0  0  0  0  0  0  0  0
   64.1560   33.2570   50.5950 C   0  0  0  0  0  0  0  0  0  0  0  0
   62.7740   33.5210   50.6060 C   0  0  0  0  0  0  0  0  0  0  0  0
   62.1080   33.5640   49.3790 C   0  0  0  0  0  0  0  0  0  0  0  0
   58.3906   26.9664   44.8730 H   0  0  0  0  0  0  0  0  0  0  0  0
   57.0051   27.3485   43.7954 H   0  0  0  0  0  0  0  0  0  0  0  0
   58.4601   28.4019   43.7954 H   0  0  0  0  0  0  0  0  0  0  0  0
   56.1521   28.2990   45.7013 H   0  0  0  0  0  0  0  0  0  0  0  0
   57.7802   28.5265   46.4363 H   0  0  0  0  0  0  0  0  0  0  0  0
   55.3698   29.5292   44.1443 H   0  0  0  0  0  0  0  0  0  0  0  0
   55.6407   31.3075   44.4026 H   0  0  0  0  0  0  0  0  0  0  0  0
   57.7125   30.7573   42.7429 H   0  0  0  0  0  0  0  0  0  0  0  0
   56.5309   29.5310   42.1715 H   0  0  0  0  0  0  0  0  0  0  0  0
   56.0892   31.2721   42.1715 H   0  0  0  0  0  0  0  0  0  0  0  0
   58.7360   30.2582   43.7093 H   0  0  0  0  0  0  0  0  0  0  0  0
   58.4863   31.6594   44.8677 H   0  0  0  0  0  0  0  0  0  0  0  0
   59.4210   29.0478   46.0060 H   0  0  0  0  0  0  0  0  0  0  0  0
   60.5970   30.0410   45.0597 H   0  0  0  0  0  0  0  0  0  0  0  0
   60.7840   29.2680   47.5756 H   0  0  0  0  0  0  0  0  0  0  0  0
   61.0303   30.8326   48.4403 H   0  0  0  0  0  0  0  0  0  0  0  0
   58.2875   30.5268   48.5730 H   0  0  0  0  0  0  0  0  0  0  0  0
   58.9017   28.8116   48.7023 H   0  0  0  0  0  0  0  0  0  0  0  0
   58.5477   29.9732   50.9146 H   0  0  0  0  0  0  0  0  0  0  0  0
   60.2075   29.3379   50.6327 H   0  0  0  0  0  0  0  0  0  0  0  0
   60.8140   31.5980   49.8640 H   0  0  0  0  0  0  0  0  0  0  0  0
   58.3305   32.2367   49.5696 H   0  0  0  0  0  0  0  0  0  0  0  0
   58.5035   32.6006   51.3497 H   0  0  0  0  0  0  0  0  0  0  0  0
   58.8610   34.5310   49.6403 H   0  0  0  0  0  0  0  0  0  0  0  0
   60.0466   34.2925   50.9976 H   0  0  0  0  0  0  0  0  0  0  0  0
   58.2247   32.7711   48.1950 H   0  0  0  0  0  0  0  0  0  0  0  0
   56.1785   33.0489   46.7972 H   0  0  0  0  0  0  0  0  0  0  0  0
   56.3038   34.2676   44.6221 H   0  0  0  0  0  0  0  0  0  0  0  0
   58.4877   35.1830   43.8295 H   0  0  0  0  0  0  0  0  0  0  0  0
   60.5386   34.9102   45.2230 H   0  0  0  0  0  0  0  0  0  0  0  0
   62.1750   33.3220   46.1430 H   0  0  0  0  0  0  0  0  0  0  0  0
   64.6547   32.9264   47.1987 H   0  0  0  0  0  0  0  0  0  0  0  0
   65.9142   32.8340   49.3806 H   0  0  0  0  0  0  0  0  0  0  0  0
   64.7120   33.2179   51.5433 H   0  0  0  0  0  0  0  0  0  0  0  0
   62.2354   33.6881   51.5505 H   0  0  0  0  0  0  0  0  0  0  0  0
  1  2  1  0
  2  3  1  0
  3  4  1  0
  4  5  1  0
  3  6  1  0
  6  7  1  0
  7  8  1  0
  8  9  1  0
  9 10  1  0
 10 11  1  0
 11 12  1  0
 12 13  1  0
 13 14  1  0
 14 15  1  0
 15 16  2  0
 16 17  1  0
 17 18  2  0
 18 19  1  0
 19 20  2  0
 20 21  1  0
 21 22  2  0
 16 23  1  0
 23 24  1  0
 24 25  2  0
 25 26  1  0
 26 27  2  0
 27 28  1  0
 28 29  2  0
 29 15  1  0
 22 17  1  0
 29 24  1  0
  1 30  1  0
  1 31  1  0
  1 32  1  0
  2 33  1  0
  2 34  1  0
  4 35  1  0
  4 36  1  0
  5 37  1  0
  5 38  1  0
  5 39  1  0
  6 40  1  0
  6 41  1  0
  7 42  1  0
  7 43  1  0
  9 44  1  0
  9 45  1  0
 10 46  1  0
 10 47  1  0
 11 48  1  0
 11 49  1  0
 12 50  1  0
 13 51  1  0
 13 52  1  0
 14 53  1  0
 14 54  1  0
 18 55  1  0
 19 56  1  0
 20 57  1  0
 21 58  1  0
 22 59  1  0
 23 60  1  0
 25 61  1  0
 26 62  1  0
 27 63  1  0
 28 64  1  0
M  END
>  <UniqueID>  (20) 
20

>  <SMILES>  (20) 
CCN(CC)CCOCCCNCCc1c(-c2ccccc2)[nH]c2ccccc12

>  <Energy>  (20) 
99.33575351678564

>  <Genealogy>  (20) 
CCN(CC)CCOCCCNCCc1c(-c2ccccc2)[nH]c2ccccc12 (3D coordinates assigned)
CCN(CC)CCOCCCNCCc1c(-c2ccccc2)[nH]c2ccccc12 (optimized conformer: 99.33575351678564 kcal/mol)

>  <smiles>  (20) 
CCN(CC)CCOCCCNCCc1c(-c2ccccc2)[nH]c2ccccc12

>  <score_type>  (20) 
oracle

>  <origin>  (20) 
adg

>  <m_score__min__energy>  (20) 
-7.29

>  <m_primary>  (20) 
energy

$$$$
20:0
     RDKit          3D

 47 48  0  0  0  0  0  0  0  0999 V2000
   61.9660   30.8450   48.5010 C   0  0  0  0  0  0  0  0  0  0  0  0
   61.9210   31.6000   47.1660 C   0  0  0  0  0  0  0  0  0  0  0  0
   61.7170   33.0610   47.3060 N   0  0  0  0  0  0  0  0  0  0  0  0
   62.7860   33.8360   46.6500 C   0  0  0  0  0  0  0  0  0  0  0  0
   61.5100   33.4740   48.7110 C   0  0  0  0  0  0  0  0  0  0  0  0
   60.4490   34.5710   48.8090 C   0  0  0  0  0  0  0  0  0  0  0  0
   59.4140   34.3080   47.8860 O   0  0  0  0  0  0  0  0  0  0  0  0
   59.4710   35.2460   46.8320 C   0  0  0  0  0  0  0  0  0  0  0  0
   59.3770   34.5060   45.5020 C   0  0  0  0  0  0  0  0  0  0  0  0
   59.2190   33.0710   45.7300 N   0  0  0  0  0  0  0  0  0  0  0  0
   58.4590   32.2230   44.8530 C   0  0  0  0  0  0  0  0  0  0  0  0
   58.0620   32.7250   43.6040 C   0  0  0  0  0  0  0  0  0  0  0  0
   57.4260   31.8960   42.6870 C   0  0  0  0  0  0  0  0  0  0  0  0
   57.1910   30.5970   42.9920 N   0  0  0  0  0  0  0  0  0  0  0  0
   57.5410   30.0640   44.1920 C   0  0  0  0  0  0  0  0  0  0  0  0
   57.2640   28.7190   44.4400 C   0  0  0  0  0  0  0  0  0  0  0  0
   57.5870   28.1500   45.6700 C   0  0  0  0  0  0  0  0  0  0  0  0
   57.2370   26.4580   45.9690 Cl  0  0  0  0  0  0  0  0  0  0  0  0
   58.1700   28.9290   46.6690 C   0  0  0  0  0  0  0  0  0  0  0  0
   58.4520   30.2940   46.4510 C   0  0  0  0  0  0  0  0  0  0  0  0
   58.9740   31.0900   47.4860 O   0  0  0  0  0  0  0  0  0  0  0  0
   58.8830   30.7910   48.8750 C   0  0  0  0  0  0  0  0  0  0  0  0
   58.1720   30.8680   45.1810 C   0  0  0  0  0  0  0  0  0  0  0  0
   61.9231   31.5653   49.3312 H   0  0  0  0  0  0  0  0  0  0  0  0
   61.1070   30.1608   48.5644 H   0  0  0  0  0  0  0  0  0  0  0  0
   62.9001   30.2676   48.5644 H   0  0  0  0  0  0  0  0  0  0  0  0
   62.8734   31.4325   46.6417 H   0  0  0  0  0  0  0  0  0  0  0  0
   61.0563   31.2100   46.6090 H   0  0  0  0  0  0  0  0  0  0  0  0
   63.4254   34.2996   47.4156 H   0  0  0  0  0  0  0  0  0  0  0  0
   63.3922   33.1662   46.0225 H   0  0  0  0  0  0  0  0  0  0  0  0
   62.3379   34.6205   46.0225 H   0  0  0  0  0  0  0  0  0  0  0  0
   61.1821   32.6030   49.2974 H   0  0  0  0  0  0  0  0  0  0  0  0
   62.4589   33.8680   49.1039 H   0  0  0  0  0  0  0  0  0  0  0  0
   60.0353   34.5910   49.8280 H   0  0  0  0  0  0  0  0  0  0  0  0
   60.9061   35.5449   48.5798 H   0  0  0  0  0  0  0  0  0  0  0  0
   58.6322   35.9520   46.9211 H   0  0  0  0  0  0  0  0  0  0  0  0
   60.4186   35.8025   46.8811 H   0  0  0  0  0  0  0  0  0  0  0  0
   58.5102   34.8815   44.9383 H   0  0  0  0  0  0  0  0  0  0  0  0
   60.3012   34.6779   44.9308 H   0  0  0  0  0  0  0  0  0  0  0  0
   59.7350   32.6400   46.5310 H   0  0  0  0  0  0  0  0  0  0  0  0
   58.2547   33.7777   43.3498 H   0  0  0  0  0  0  0  0  0  0  0  0
   57.1127   32.2957   41.7113 H   0  0  0  0  0  0  0  0  0  0  0  0
   56.7885   28.1052   43.6608 H   0  0  0  0  0  0  0  0  0  0  0  0
   58.4133   28.4730   47.6400 H   0  0  0  0  0  0  0  0  0  0  0  0
   59.1542   31.6820   49.4604 H   0  0  0  0  0  0  0  0  0  0  0  0
   57.8530   30.4915   49.1189 H   0  0  0  0  0  0  0  0  0  0  0  0
   59.5715   29.9685   49.1189 H   0  0  0  0  0  0  0  0  0  0  0  0
  1  2  1  0
  2  3  1  0
  3  4  1  0
  3  5  1  0
  5  6  1  0
  6  7  1  0
  7  8  1  0
  8  9  1  0
  9 10  1  0
 10 11  1  0
 11 12  2  0
 12 13  1  0
 13 14  2  0
 14 15  1  0
 15 16  2  0
 16 17  1  0
 17 18  1  0
 17 19  2  0
 19 20  1  0
 20 21  1  0
 21 22  1  0
 20 23  2  0
 23 11  1  0
 23 15  1  0
  1 24  1  0
  1 25  1  0
  1 26  1  0
  2 27  1  0
  2 28  1  0
  4 29  1  0
  4 30  1  0
  4 31  1  0
  5 32  1  0
  5 33  1  0
  6 34  1  0
  6 35  1  0
  8 36  1  0
  8 37  1  0
  9 38  1  0
  9 39  1  0
 10 40  1  0
 12 41  1  0
 13 42  1  0
 16 43  1  0
 19 44  1  0
 22 45  1  0
 22 46  1  0
 22 47  1  0
M  END
>  <UniqueID>  (21) 
21

>  <SMILES>  (21) 
CCN(C)CCOCCNc1ccnc2cc(Cl)cc(OC)c12

>  <Energy>  (21) 
55.30613229066983

>  <Genealogy>  (21) 
CCN(C)CCOCCNc1ccnc2cc(Cl)cc(OC)c12 (3D coordinates assigned)
CCN(C)CCOCCNc1ccnc2cc(Cl)cc(OC)c12 (optimized conformer: 55.30613229066983 kcal/mol)

>  <smiles>  (21) 
CCN(C)CCOCCNc1ccnc2cc(Cl)cc(OC)c12

>  <score_type>  (21) 
oracle

>  <origin>  (21) 
adg

>  <m_score__min__energy>  (21) 
-6.71

>  <m_primary>  (21) 
energy

$$$$
21:0
     RDKit          3D

 53 56  0  0  0  0  0  0  0  0999 V2000
   64.1010   34.0820   51.0130 C   0  0  0  0  0  0  0  0  0  0  0  0
   64.5900   33.0350   50.1050 N   0  0  0  0  0  0  0  0  0  0  0  0
   66.0260   32.7410   50.0590 C   0  0  0  0  0  0  0  0  0  0  0  0
   63.6530   32.2570   49.3210 C   0  0  0  0  0  0  0  0  0  0  0  0
   62.6080   31.5490   49.9470 C   0  0  0  0  0  0  0  0  0  0  0  0
   61.7040   30.8160   49.1700 C   0  0  0  0  0  0  0  0  0  0  0  0
   60.6470   30.1080   49.7520 C   0  0  0  0  0  0  0  0  0  0  0  0
   59.7630   29.3890   48.9450 C   0  0  0  0  0  0  0  0  0  0  0  0
   59.9410   29.3790   47.5500 C   0  0  0  0  0  0  0  0  0  0  0  0
   59.0320   28.6310   46.6560 C   0  0  0  0  0  0  0  0  0  0  0  0
   58.0580   27.7120   47.0160 C   0  0  0  0  0  0  0  0  0  0  0  0
   57.4630   27.2990   45.8390 C   0  0  0  0  0  0  0  0  0  0  0  0
   56.3610   26.3220   45.7600 C   0  0  0  0  0  0  0  0  0  0  0  0
   55.1820   26.7030   46.0000 O   0  0  0  0  0  0  0  0  0  0  0  0
   56.6080   24.9570   45.3780 N   0  0  0  0  0  0  0  0  0  0  0  0
   55.8690   23.8640   46.0250 C   0  0  0  0  0  0  0  0  0  0  0  0
   55.1060   23.0380   44.9790 C   0  0  0  0  0  0  0  0  0  0  0  0
   55.9220   22.7630   43.6920 C   0  0  0  0  0  0  0  0  0  0  0  0
   57.3860   23.2090   43.7920 C   0  0  0  0  0  0  0  0  0  0  0  0
   57.4720   24.6800   44.2200 C   0  0  0  0  0  0  0  0  0  0  0  0
   58.0540   27.9010   44.7820 N   0  0  0  0  0  0  0  0  0  0  0  0
   57.7710   27.7060   43.3620 C   0  0  0  0  0  0  0  0  0  0  0  0
   59.0000   28.7240   45.2750 C   0  0  0  0  0  0  0  0  0  0  0  0
   60.9770   30.0800   47.0080 N   0  0  0  0  0  0  0  0  0  0  0  0
   61.8490   30.7900   47.7740 C   0  0  0  0  0  0  0  0  0  0  0  0
   62.8960   31.4980   47.1840 C   0  0  0  0  0  0  0  0  0  0  0  0
   63.7640   32.2090   47.9560 N   0  0  0  0  0  0  0  0  0  0  0  0
   64.2501   33.7627   52.0550 H   0  0  0  0  0  0  0  0  0  0  0  0
   64.6572   35.0136   50.8318 H   0  0  0  0  0  0  0  0  0  0  0  0
   63.0297   34.2534   50.8318 H   0  0  0  0  0  0  0  0  0  0  0  0
   66.4169   32.6610   51.0841 H   0  0  0  0  0  0  0  0  0  0  0  0
   66.1890   31.7909   49.5292 H   0  0  0  0  0  0  0  0  0  0  0  0
   66.5493   33.5506   49.5292 H   0  0  0  0  0  0  0  0  0  0  0  0
   62.5032   31.5723   51.0417 H   0  0  0  0  0  0  0  0  0  0  0  0
   60.5125   30.1177   50.8437 H   0  0  0  0  0  0  0  0  0  0  0  0
   58.9300   28.8322   49.3989 H   0  0  0  0  0  0  0  0  0  0  0  0
   57.8089   27.3786   48.0342 H   0  0  0  0  0  0  0  0  0  0  0  0
   56.5784   23.2111   46.5547 H   0  0  0  0  0  0  0  0  0  0  0  0
   55.1469   24.2939   46.7348 H   0  0  0  0  0  0  0  0  0  0  0  0
   54.8321   22.0729   45.4301 H   0  0  0  0  0  0  0  0  0  0  0  0
   54.2248   23.6262   44.6832 H   0  0  0  0  0  0  0  0  0  0  0  0
   55.8999   21.6820   43.4894 H   0  0  0  0  0  0  0  0  0  0  0  0
   55.4591   23.3472   42.8830 H   0  0  0  0  0  0  0  0  0  0  0  0
   57.9045   22.5850   44.5348 H   0  0  0  0  0  0  0  0  0  0  0  0
   57.8599   23.0974   42.8056 H   0  0  0  0  0  0  0  0  0  0  0  0
   58.5131   24.9141   44.4870 H   0  0  0  0  0  0  0  0  0  0  0  0
   57.1329   25.3038   43.3799 H   0  0  0  0  0  0  0  0  0  0  0  0
   56.8699   27.0851   43.2496 H   0  0  0  0  0  0  0  0  0  0  0  0
   57.6054   28.6826   42.8836 H   0  0  0  0  0  0  0  0  0  0  0  0
   58.6246   27.2034   42.8836 H   0  0  0  0  0  0  0  0  0  0  0  0
   59.6502   29.3732   44.6702 H   0  0  0  0  0  0  0  0  0  0  0  0
   63.0211   31.4820   46.0913 H   0  0  0  0  0  0  0  0  0  0  0  0
   64.5390   32.7120   47.4720 H   0  0  0  0  0  0  0  0  0  0  0  0
  1  2  1  0
  2  3  1  0
  2  4  1  0
  4  5  2  0
  5  6  1  0
  6  7  2  0
  7  8  1  0
  8  9  2  0
  9 10  1  0
 10 11  1  0
 11 12  2  0
 12 13  1  0
 13 14  2  0
 13 15  1  0
 15 16  1  0
 16 17  1  0
 17 18  1  0
 18 19  1  0
 19 20  1  0
 12 21  1  0
 21 22  1  0
 21 23  1  0
  9 24  1  0
 24 25  2  0
 25 26  1  0
 26 27  2  0
 27  4  1  0
 25  6  1  0
 23 10  2  0
 20 15  1  0
  1 28  1  0
  1 29  1  0
  1 30  1  0
  3 31  1  0
  3 32  1  0
  3 33  1  0
  5 34  1  0
  7 35  1  0
  8 36  1  0
 11 37  1  0
 16 38  1  0
 16 39  1  0
 17 40  1  0
 17 41  1  0
 18 42  1  0
 18 43  1  0
 19 44  1  0
 19 45  1  0
 20 46  1  0
 20 47  1  0
 22 48  1  0
 22 49  1  0
 22 50  1  0
 23 51  1  0
 26 52  1  0
 27 53  1  0
M  CHG  1  27   1
M  END
>  <UniqueID>  (22) 
22

>  <SMILES>  (22) 
CN(C)c1cc2ccc(-c3cc(C(=O)N4CCCCC4)n(C)c3)nc2c[nH+]1

>  <Energy>  (22) 
93.40973180120606

>  <Genealogy>  (22) 
CN(C)c1cc2ccc(-c3cc(C(=O)N4CCCCC4)n(C)c3)nc2c[nH+]1 (protonated)
CN(C)c1cc2ccc(-c3cc(C(=O)N4CCCCC4)n(C)c3)nc2c[nH+]1 (3D coordinates assigned)
CN(C)c1cc2ccc(-c3cc(C(=O)N4CCCCC4)n(C)c3)nc2c[nH+]1 (nonaromatic ring conformer: 93.40973180120606 kcal/mol)

>  <smiles>  (22) 
CN(C)c1cc2ccc(-c3cc(C(=O)N4CCCCC4)n(C)c3)nc2cn1

>  <score_type>  (22) 
oracle

>  <origin>  (22) 
adg

>  <m_score__min__energy>  (22) 
-6.6399999999999997

>  <m_primary>  (22) 
energy

$$$$
22:0
     RDKit          3D

 53 54  0  0  0  0  0  0  0  0999 V2000
   58.4810   34.4320   45.7990 C   0  0  0  0  0  0  0  0  0  0  0  0
   57.1040   33.7750   45.8100 C   0  0  0  0  0  0  0  0  0  0  0  0
   57.2280   32.3130   45.7040 N   0  0  0  0  0  0  0  0  0  0  0  0
   57.9760   31.9240   44.4980 C   0  0  0  0  0  0  0  0  0  0  0  0
   57.0220   31.3920   43.4200 C   0  0  0  0  0  0  0  0  0  0  0  0
   56.6100   29.9340   43.6710 C   0  0  0  0  0  0  0  0  0  0  0  0
   56.3990   29.7100   45.1090 N   0  0  0  0  0  0  0  0  0  0  0  0
   57.0600   28.4880   45.5970 C   0  0  0  0  0  0  0  0  0  0  0  0
   58.3910   28.7880   46.3000 C   0  0  0  0  0  0  0  0  0  0  0  0
   58.3770   30.1480   46.8330 N   0  0  0  0  0  0  0  0  0  0  0  0
   59.5590   30.8820   47.2180 C   0  0  0  0  0  0  0  0  0  0  0  0
   60.8540   30.4990   46.7560 C   0  0  0  0  0  0  0  0  0  0  0  0
   61.0230   29.4120   45.9640 F   0  0  0  0  0  0  0  0  0  0  0  0
   61.9990   31.2130   47.1500 C   0  0  0  0  0  0  0  0  0  0  0  0
   61.8290   32.2930   48.0120 C   0  0  0  0  0  0  0  0  0  0  0  0
   60.6010   32.6490   48.4900 C   0  0  0  0  0  0  0  0  0  0  0  0
   60.7120   33.7170   49.3030 N   0  0  0  0  0  0  0  0  0  0  0  0
   62.0450   33.9830   49.2920 C   0  0  0  0  0  0  0  0  0  0  0  0
   62.7510   33.1350   48.5070 N   0  0  0  0  0  0  0  0  0  0  0  0
   64.2020   33.1100   48.3290 C   0  0  0  0  0  0  0  0  0  0  0  0
   64.8870   32.7270   49.6370 C   0  0  0  0  0  0  0  0  0  0  0  0
   59.4360   31.9710   48.1220 C   0  0  0  0  0  0  0  0  0  0  0  0
   58.1510   32.3980   48.6020 N   0  0  0  0  0  0  0  0  0  0  0  0
   57.8070   32.3260   50.0190 C   0  0  0  0  0  0  0  0  0  0  0  0
   58.8187   34.5931   46.8334 H   0  0  0  0  0  0  0  0  0  0  0  0
   59.1953   33.7777   45.2778 H   0  0  0  0  0  0  0  0  0  0  0  0
   58.4218   35.3989   45.2778 H   0  0  0  0  0  0  0  0  0  0  0  0
   56.5904   34.0272   46.7495 H   0  0  0  0  0  0  0  0  0  0  0  0
   56.5269   34.1456   44.9500 H   0  0  0  0  0  0  0  0  0  0  0  0
   56.2590   31.9210   45.6210 H   0  0  0  0  0  0  0  0  0  0  0  0
   58.5116   32.8012   44.1060 H   0  0  0  0  0  0  0  0  0  0  0  0
   58.6897   31.1302   44.7635 H   0  0  0  0  0  0  0  0  0  0  0  0
   56.1174   32.0178   43.4087 H   0  0  0  0  0  0  0  0  0  0  0  0
   57.5504   31.4301   42.4560 H   0  0  0  0  0  0  0  0  0  0  0  0
   55.6770   29.7208   43.1286 H   0  0  0  0  0  0  0  0  0  0  0  0
   57.4095   29.2672   43.3158 H   0  0  0  0  0  0  0  0  0  0  0  0
   56.7530   30.5390   45.6430 H   0  0  0  0  0  0  0  0  0  0  0  0
   56.3899   27.9831   46.3084 H   0  0  0  0  0  0  0  0  0  0  0  0
   57.2748   27.8506   44.7266 H   0  0  0  0  0  0  0  0  0  0  0  0
   58.5367   28.0747   47.1246 H   0  0  0  0  0  0  0  0  0  0  0  0
   59.2128   28.6918   45.5752 H   0  0  0  0  0  0  0  0  0  0  0  0
   57.4560   30.6350   46.8430 H   0  0  0  0  0  0  0  0  0  0  0  0
   62.9979   30.9274   46.7886 H   0  0  0  0  0  0  0  0  0  0  0  0
   62.5037   34.8038   49.8628 H   0  0  0  0  0  0  0  0  0  0  0  0
   64.4603   32.3731   47.5543 H   0  0  0  0  0  0  0  0  0  0  0  0
   64.5434   34.1104   48.0247 H   0  0  0  0  0  0  0  0  0  0  0  0
   64.2754   33.0689   50.4850 H   0  0  0  0  0  0  0  0  0  0  0  0
   65.0014   31.6340   49.6846 H   0  0  0  0  0  0  0  0  0  0  0  0
   65.8781   33.2019   49.6846 H   0  0  0  0  0  0  0  0  0  0  0  0
   57.3850   32.5650   47.9130 H   0  0  0  0  0  0  0  0  0  0  0  0
   58.7058   32.5141   50.6245 H   0  0  0  0  0  0  0  0  0  0  0  0
   57.0440   33.0839   50.2501 H   0  0  0  0  0  0  0  0  0  0  0  0
   57.4120   31.3257   50.2501 H   0  0  0  0  0  0  0  0  0  0  0  0
  1  2  1  0
  2  3  1  0
  3  4  1  0
  4  5  1  0
  5  6  1  0
  6  7  1  0
  7  8  1  0
  8  9  1  0
  9 10  1  0
 10 11  1  0
 11 12  2  0
 12 13  1  0
 12 14  1  0
 14 15  2  0
 15 16  1  0
 16 17  1  0
 17 18  2  0
 18 19  1  0
 19 20  1  0
 20 21  1  0
 16 22  2  0
 22 23  1  0
 23 24  1  0
 22 11  1  0
 19 15  1  0
  1 25  1  0
  1 26  1  0
  1 27  1  0
  2 28  1  0
  2 29  1  0
  3 30  1  0
  4 31  1  0
  4 32  1  0
  5 33  1  0
  5 34  1  0
  6 35  1  0
  6 36  1  0
  7 37  1  0
  8 38  1  0
  8 39  1  0
  9 40  1  0
  9 41  1  0
 10 42  1  0
 14 43  1  0
 18 44  1  0
 20 45  1  0
 20 46  1  0
 21 47  1  0
 21 48  1  0
 21 49  1  0
 23 50  1  0
 24 51  1  0
 24 52  1  0
 24 53  1  0
M  END
>  <UniqueID>  (23) 
23

>  <SMILES>  (23) 
CCNCCCNCCNc1c(F)cc2c(ncn2CC)c1NC

>  <Energy>  (23) 
84.94329393155317

>  <Genealogy>  (23) 
CCNCCCNCCNc1c(F)cc2c(ncn2CC)c1NC (3D coordinates assigned)
CCNCCCNCCNc1c(F)cc2c(ncn2CC)c1NC (optimized conformer: 84.94329393155317 kcal/mol)

>  <smiles>  (23) 
CCNCCCNCCNc1c(F)cc2c(ncn2CC)c1NC

>  <score_type>  (23) 
oracle

>  <origin>  (23) 
adg

>  <m_score__min__energy>  (23) 
-7.0700000000000003

>  <m_primary>  (23) 
energy

$$$$
23:0
     RDKit          3D

 57 58  0  0  0  0  0  0  0  0999 V2000
   59.2250   31.1700   49.9280 C   0  0  0  0  0  0  0  0  0  0  0  0
   58.3240   32.3190   49.4590 C   0  0  0  0  0  0  0  0  0  0  0  0
   58.8020   32.9270   48.1890 N   0  0  1  0  0  0  0  0  0  0  0  0
   57.6580   33.4340   47.3840 C   0  0  0  0  0  0  0  0  0  0  0  0
   58.1220   34.0000   46.0270 C   0  0  0  0  0  0  0  0  0  0  0  0
   58.7410   32.9170   45.1430 C   0  0  0  0  0  0  0  0  0  0  0  0
   59.5570   32.0240   45.9540 N   0  0  0  0  0  0  0  0  0  0  0  0
   59.3160   30.6180   46.0490 C   0  0  0  0  0  0  0  0  0  0  0  0
   59.3210   30.0460   47.1720 O   0  0  0  0  0  0  0  0  0  0  0  0
   59.1040   29.8170   44.8050 C   0  0  0  0  0  0  0  0  0  0  0  0
   57.8070   29.1280   44.8530 N   0  0  0  0  0  0  0  0  0  0  0  0
   57.7240   27.7330   45.2100 C   0  0  0  0  0  0  0  0  0  0  0  0
   57.5700   27.3460   46.5530 C   0  0  0  0  0  0  0  0  0  0  0  0
   57.5000   25.9930   46.8960 C   0  0  0  0  0  0  0  0  0  0  0  0
   57.5710   25.0130   45.9050 C   0  0  0  0  0  0  0  0  0  0  0  0
   57.4770   23.3160   46.3400 Cl  0  0  0  0  0  0  0  0  0  0  0  0
   57.7300   25.3870   44.5680 C   0  0  0  0  0  0  0  0  0  0  0  0
   57.8120   26.7380   44.2220 C   0  0  0  0  0  0  0  0  0  0  0  0
   56.3840   29.9920   44.3390 S   0  0  0  0  0  0  0  0  0  0  0  0
   56.2790   30.0160   42.5600 C   0  0  0  0  0  0  0  0  0  0  0  0
   56.4420   31.4050   44.8500 O   0  0  0  0  0  0  0  0  0  0  0  0
   55.1560   29.3320   44.9010 O   0  0  0  0  0  0  0  0  0  0  0  0
   59.7460   34.0400   48.4770 C   0  0  0  0  0  0  0  0  0  0  0  0
   61.1550   33.7180   48.0400 C   0  0  0  0  0  0  0  0  0  0  0  0
   62.0180   32.9940   48.8800 C   0  0  0  0  0  0  0  0  0  0  0  0
   63.3200   32.6960   48.4640 C   0  0  0  0  0  0  0  0  0  0  0  0
   63.7700   33.1180   47.2100 C   0  0  0  0  0  0  0  0  0  0  0  0
   62.9200   33.8420   46.3700 C   0  0  0  0  0  0  0  0  0  0  0  0
   61.6180   34.1440   46.7820 C   0  0  0  0  0  0  0  0  0  0  0  0
   59.2447   31.1449   51.0275 H   0  0  0  0  0  0  0  0  0  0  0  0
   58.8315   30.2163   49.5464 H   0  0  0  0  0  0  0  0  0  0  0  0
   60.2450   31.3247   49.5464 H   0  0  0  0  0  0  0  0  0  0  0  0
   57.3065   31.9306   49.3045 H   0  0  0  0  0  0  0  0  0  0  0  0
   58.3420   33.0994   50.2340 H   0  0  0  0  0  0  0  0  0  0  0  0
   59.3070   32.1930   47.6370 H   0  0  0  0  0  0  0  0  0  0  0  0
   56.9548   32.6075   47.2038 H   0  0  0  0  0  0  0  0  0  0  0  0
   57.1756   34.2463   47.9474 H   0  0  0  0  0  0  0  0  0  0  0  0
   57.2550   34.4325   45.5062 H   0  0  0  0  0  0  0  0  0  0  0  0
   58.8890   34.7647   46.2192 H   0  0  0  0  0  0  0  0  0  0  0  0
   57.9400   32.3399   44.6579 H   0  0  0  0  0  0  0  0  0  0  0  0
   59.3729   33.3908   44.3773 H   0  0  0  0  0  0  0  0  0  0  0  0
   59.1256   30.4883   43.9338 H   0  0  0  0  0  0  0  0  0  0  0  0
   59.9037   29.0660   44.7241 H   0  0  0  0  0  0  0  0  0  0  0  0
   57.5042   28.1131   47.3387 H   0  0  0  0  0  0  0  0  0  0  0  0
   57.3886   25.6996   47.9503 H   0  0  0  0  0  0  0  0  0  0  0  0
   57.7907   24.6157   43.7861 H   0  0  0  0  0  0  0  0  0  0  0  0
   57.9464   27.0248   43.1686 H   0  0  0  0  0  0  0  0  0  0  0  0
   55.2482   30.2516   42.2567 H   0  0  0  0  0  0  0  0  0  0  0  0
   56.9621   30.7812   42.1627 H   0  0  0  0  0  0  0  0  0  0  0  0
   56.5619   29.0300   42.1627 H   0  0  0  0  0  0  0  0  0  0  0  0
   59.4063   34.9401   47.9436 H   0  0  0  0  0  0  0  0  0  0  0  0
   59.7576   34.2010   49.5651 H   0  0  0  0  0  0  0  0  0  0  0  0
   61.6686   32.6604   49.8682 H   0  0  0  0  0  0  0  0  0  0  0  0
   63.9910   32.1283   49.1254 H   0  0  0  0  0  0  0  0  0  0  0  0
   64.7934   32.8802   46.8843 H   0  0  0  0  0  0  0  0  0  0  0  0
   63.2752   34.1748   45.3836 H   0  0  0  0  0  0  0  0  0  0  0  0
   60.9531   34.7173   46.1192 H   0  0  0  0  0  0  0  0  0  0  0  0
  1  2  1  0
  2  3  1  0
  3  4  1  0
  4  5  1  0
  5  6  1  0
  6  7  1  0
  7  8  1  0
  8  9  2  0
  8 10  1  0
 10 11  1  0
 11 12  1  0
 12 13  2  0
 13 14  1  0
 14 15  2  0
 15 16  1  0
 15 17  1  0
 17 18  2  0
 11 19  1  0
 19 20  1  0
 19 21  2  0
 19 22  2  0
  3 23  1  0
 23 24  1  0
 24 25  2  0
 25 26  1  0
 26 27  2  0
 27 28  1  0
 28 29  2  0
 18 12  1  0
 29 24  1  0
  1 30  1  0
  1 31  1  0
  1 32  1  0
  2 33  1  0
  2 34  1  0
  3 35  1  6
  4 36  1  0
  4 37  1  0
  5 38  1  0
  5 39  1  0
  6 40  1  0
  6 41  1  0
 10 42  1  0
 10 43  1  0
 13 44  1  0
 14 45  1  0
 17 46  1  0
 18 47  1  0
 20 48  1  0
 20 49  1  0
 20 50  1  0
 23 51  1  0
 23 52  1  0
 25 53  1  0
 26 54  1  0
 27 55  1  0
 28 56  1  0
 29 57  1  0
M  CHG  2   3   1   7  -1
M  END
>  <UniqueID>  (24) 
24

>  <SMILES>  (24) 
CC[N@@H+](CCC[N-]C(=O)CN(c1ccc(Cl)cc1)S(C)(=O)=O)Cc1ccccc1

>  <Energy>  (24) 
50.0990012469229

>  <Genealogy>  (24) 
CC[NH+](CCC[N-]C(=O)CN(c1ccc(Cl)cc1)S(C)(=O)=O)Cc1ccccc1 (protonated)
CC[N@@H+](CCC[N-]C(=O)CN(c1ccc(Cl)cc1)S(C)(=O)=O)Cc1ccccc1 (chirality)
CC[N@@H+](CCC[N-]C(=O)CN(c1ccc(Cl)cc1)S(C)(=O)=O)Cc1ccccc1 (3D coordinates assigned)
CC[N@@H+](CCC[N-]C(=O)CN(c1ccc(Cl)cc1)S(C)(=O)=O)Cc1ccccc1 (optimized conformer: 50.0990012469229 kcal/mol)

>  <smiles>  (24) 
CCN(CCCNC(=O)CN(c1ccc(Cl)cc1)S(C)(=O)=O)Cc1ccccc1

>  <score_type>  (24) 
oracle

>  <origin>  (24) 
adg

>  <m_score__min__energy>  (24) 
-8.6400000000000006

>  <m_primary>  (24) 
energy

$$$$
24:0
     RDKit          3D

 32 32  0  0  0  0  0  0  0  0999 V2000
   61.3150   34.2310   48.7770 C   0  0  0  0  0  0  0  0  0  0  0  0
   60.0230   34.5970   48.3040 O   0  0  0  0  0  0  0  0  0  0  0  0
   59.3840   34.0060   47.2030 C   0  0  0  0  0  0  0  0  0  0  0  0
   59.3090   34.6430   45.9490 C   0  0  0  0  0  0  0  0  0  0  0  0
   58.6630   34.0200   44.8780 C   0  0  0  0  0  0  0  0  0  0  0  0
   58.0750   32.7580   45.0400 C   0  0  0  0  0  0  0  0  0  0  0  0
   57.4140   32.0740   43.8750 C   0  0  0  0  0  0  0  0  0  0  0  0
   56.9970   30.6890   44.2640 C   0  0  0  0  0  0  0  0  0  0  0  0
   55.9010   30.5170   44.8640 O   0  0  0  0  0  0  0  0  0  0  0  0
   57.8150   29.5640   43.9100 N   0  0  0  0  0  0  0  0  0  0  0  0
   57.4380   28.1860   44.2390 C   0  0  0  0  0  0  0  0  0  0  0  0
   58.1580   27.2030   43.3090 C   0  0  0  0  0  0  0  0  0  0  0  0
   57.7750   27.8840   45.7010 C   0  0  0  0  0  0  0  0  0  0  0  0
   58.1580   32.1160   46.2850 C   0  0  0  0  0  0  0  0  0  0  0  0
   58.8040   32.7370   47.3600 C   0  0  0  0  0  0  0  0  0  0  0  0
   58.8910   31.8280   49.0420 Br  0  0  0  0  0  0  0  0  0  0  0  0
   61.3162   34.2306   49.8770 H   0  0  0  0  0  0  0  0  0  0  0  0
   61.5687   33.2256   48.4097 H   0  0  0  0  0  0  0  0  0  0  0  0
   62.0583   34.9539   48.4097 H   0  0  0  0  0  0  0  0  0  0  0  0
   59.7614   35.6363   45.8121 H   0  0  0  0  0  0  0  0  0  0  0  0
   58.6156   34.5234   43.9011 H   0  0  0  0  0  0  0  0  0  0  0  0
   56.5274   32.6493   43.5699 H   0  0  0  0  0  0  0  0  0  0  0  0
   58.1263   32.0154   43.0389 H   0  0  0  0  0  0  0  0  0  0  0  0
   58.6920   29.7420   43.3680 H   0  0  0  0  0  0  0  0  0  0  0  0
   56.3534   28.0700   44.0968 H   0  0  0  0  0  0  0  0  0  0  0  0
   58.7020   26.4602   43.9109 H   0  0  0  0  0  0  0  0  0  0  0  0
   57.4198   26.6910   42.6743 H   0  0  0  0  0  0  0  0  0  0  0  0
   58.8689   27.7524   42.6743 H   0  0  0  0  0  0  0  0  0  0  0  0
   57.1179   28.4728   46.3579 H   0  0  0  0  0  0  0  0  0  0  0  0
   57.6252   26.8122   45.8979 H   0  0  0  0  0  0  0  0  0  0  0  0
   58.8240   28.1499   45.8979 H   0  0  0  0  0  0  0  0  0  0  0  0
   57.7127   31.1188   46.4168 H   0  0  0  0  0  0  0  0  0  0  0  0
  1  2  1  0
  2  3  1  0
  3  4  2  0
  4  5  1  0
  5  6  2  0
  6  7  1  0
  7  8  1  0
  8  9  2  0
  8 10  1  0
 10 11  1  0
 11 12  1  0
 11 13  1  0
  6 14  1  0
 14 15  2  0
 15 16  1  0
 15  3  1  0
  1 17  1  0
  1 18  1  0
  1 19  1  0
  4 20  1  0
  5 21  1  0
  7 22  1  0
  7 23  1  0
 10 24  1  0
 11 25  1  0
 12 26  1  0
 12 27  1  0
 12 28  1  0
 13 29  1  0
 13 30  1  0
 13 31  1  0
 14 32  1  0
M  END
>  <UniqueID>  (25) 
25

>  <SMILES>  (25) 
COc1ccc(CC(=O)NC(C)C)cc1Br

>  <Energy>  (25) 
20.83490011261642

>  <Genealogy>  (25) 
COc1ccc(CC(=O)NC(C)C)cc1Br (3D coordinates assigned)
COc1ccc(CC(=O)NC(C)C)cc1Br (optimized conformer: 20.83490011261642 kcal/mol)

>  <smiles>  (25) 
COc1ccc(CC(=O)NC(C)C)cc1Br

>  <score_type>  (25) 
oracle

>  <origin>  (25) 
adg

>  <m_score__min__energy>  (25) 
-6.4699999999999998

>  <m_primary>  (25) 
energy

$$$$
25:0
     RDKit          3D

 86 87  0  0  0  0  0  0  0  0999 V2000
   56.3981   30.7757   43.7884 H   0  0  0  0  0  0  0  0  0  0  0  0
   57.2690   31.2370   44.2770 C   0  0  0  0  0  0  0  0  0  0  0  0
   57.8160   32.3270   43.6870 C   0  0  0  0  0  0  0  0  0  0  0  0
   58.1950   33.5650   44.4640 C   0  0  0  0  0  0  0  0  0  0  0  0
   58.1308   33.3553   45.5419 H   0  0  0  0  0  0  0  0  0  0  0  0
   59.2239   33.8579   44.2081 H   0  0  0  0  0  0  0  0  0  0  0  0
   57.5063   34.3837   44.2081 H   0  0  0  0  0  0  0  0  0  0  0  0
   58.1190   32.3020   42.2110 C   0  0  0  0  0  0  0  0  0  0  0  0
   59.2050   32.2124   42.0611 H   0  0  0  0  0  0  0  0  0  0  0  0
   57.6127   31.4426   41.7473 H   0  0  0  0  0  0  0  0  0  0  0  0
   57.7604   33.2328   41.7473 H   0  0  0  0  0  0  0  0  0  0  0  0
   57.7680   30.6090   45.5570 C   0  0  0  0  0  0  0  0  0  0  0  0
   57.2376   31.0651   46.4059 H   0  0  0  0  0  0  0  0  0  0  0  0
   58.8517   30.7865   45.6208 H   0  0  0  0  0  0  0  0  0  0  0  0
   57.5350   29.0880   45.5860 C   0  0  0  0  0  0  0  0  0  0  0  0
   56.6679   28.8443   44.9546 H   0  0  0  0  0  0  0  0  0  0  0  0
   57.3513   28.7801   46.6259 H   0  0  0  0  0  0  0  0  0  0  0  0
   58.7510   28.3450   45.0680 C   0  0  0  0  0  0  0  0  0  0  0  0
   59.9080   28.4110   45.7650 C   0  0  0  0  0  0  0  0  0  0  0  0
   60.2596   27.4901   46.2532 H   0  0  0  0  0  0  0  0  0  0  0  0
   60.7600   29.6590   45.9260 C   0  0  0  0  0  0  0  0  0  0  0  0
   60.2378   30.4925   45.4335 H   0  0  0  0  0  0  0  0  0  0  0  0
   61.7350   29.4211   45.4757 H   0  0  0  0  0  0  0  0  0  0  0  0
   61.0580   30.0810   47.4030 C   0  0  2  0  0  0  0  0  0  0  0  0
   62.0828   29.7521   47.6302 H   0  0  0  0  0  0  0  0  0  0  0  0
   60.1010   29.3510   48.3650 C   0  0  0  0  0  0  0  0  0  0  0  0
   60.4690   27.9820   48.8950 C   0  0  0  0  0  0  0  0  0  0  0  0
   61.5192   27.7663   48.6489 H   0  0  0  0  0  0  0  0  0  0  0  0
   59.8151   27.2280   48.4326 H   0  0  0  0  0  0  0  0  0  0  0  0
   60.2990   27.9450   50.3050 O   0  0  0  0  0  0  0  0  0  0  0  0
   61.5010   27.5770   50.9610 C   0  0  0  0  0  0  0  0  0  0  0  0
   62.2584   27.3290   50.2028 H   0  0  0  0  0  0  0  0  0  0  0  0
   61.2867   26.7115   51.6052 H   0  0  0  0  0  0  0  0  0  0  0  0
   62.0410   28.7140   51.8520 C   0  0  0  0  0  0  0  0  0  0  0  0
   63.1030   28.8766   51.6157 H   0  0  0  0  0  0  0  0  0  0  0  0
   61.9085   28.4150   52.9023 H   0  0  0  0  0  0  0  0  0  0  0  0
   61.2990   29.9910   51.6390 N   0  0  0  0  0  0  0  0  0  0  0  0
   60.8040   29.9450   50.7170 H   0  0  0  0  0  0  0  0  0  0  0  0
   62.2390   31.1450   51.6160 C   0  0  0  0  0  0  0  0  0  0  0  0
   62.4903   31.4185   52.6514 H   0  0  0  0  0  0  0  0  0  0  0  0
   61.7428   31.9759   51.0931 H   0  0  0  0  0  0  0  0  0  0  0  0
   63.5330   30.8190   50.8630 C   0  0  0  0  0  0  0  0  0  0  0  0
   64.3369   30.6165   51.5860 H   0  0  0  0  0  0  0  0  0  0  0  0
   63.3761   29.9323   50.2312 H   0  0  0  0  0  0  0  0  0  0  0  0
   63.8150   31.6742   50.2312 H   0  0  0  0  0  0  0  0  0  0  0  0
   60.2840   30.1640   52.7170 C   0  0  0  0  0  0  0  0  0  0  0  0
   60.2204   29.2289   53.2928 H   0  0  0  0  0  0  0  0  0  0  0  0
   60.6076   31.0085   53.3432 H   0  0  0  0  0  0  0  0  0  0  0  0
   58.8920   30.5000   52.1750 C   0  0  0  0  0  0  0  0  0  0  0  0
   58.2018   30.6666   53.0151 H   0  0  0  0  0  0  0  0  0  0  0  0
   58.9478   31.4105   51.5602 H   0  0  0  0  0  0  0  0  0  0  0  0
   58.5263   29.6643   51.5602 H   0  0  0  0  0  0  0  0  0  0  0  0
   59.0130   29.9700   48.8710 C   0  0  0  0  0  0  0  0  0  0  0  0
   58.2254   29.3762   49.3580 H   0  0  0  0  0  0  0  0  0  0  0  0
   58.8680   31.4630   48.7750 C   0  0  0  0  0  0  0  0  0  0  0  0
   58.4302   31.7372   47.8038 H   0  0  0  0  0  0  0  0  0  0  0  0
   58.2049   31.8421   49.5666 H   0  0  0  0  0  0  0  0  0  0  0  0
   60.2820   32.0700   48.9080 C   0  0  2  0  0  0  0  0  0  0  0  0
   60.7589   31.6006   49.7810 H   0  0  0  0  0  0  0  0  0  0  0  0
   60.3760   33.5610   49.4120 C   0  0  0  0  0  0  0  0  0  0  0  0
   59.7270   33.6740   50.8220 C   0  0  0  0  0  0  0  0  0  0  0  0
   60.4998   33.5395   51.5932 H   0  0  0  0  0  0  0  0  0  0  0  0
   59.2653   34.6660   50.9347 H   0  0  0  0  0  0  0  0  0  0  0  0
   58.9572   32.8964   50.9347 H   0  0  0  0  0  0  0  0  0  0  0  0
   59.6590   34.5940   48.4980 C   0  0  0  0  0  0  0  0  0  0  0  0
   59.1422   35.3386   49.1213 H   0  0  0  0  0  0  0  0  0  0  0  0
   60.4016   35.0993   47.8630 H   0  0  0  0  0  0  0  0  0  0  0  0
   58.9259   34.0751   47.8630 H   0  0  0  0  0  0  0  0  0  0  0  0
   61.8820   33.9280   49.5830 C   0  0  0  0  0  0  0  0  0  0  0  0
   61.9543   35.0160   49.7281 H   0  0  0  0  0  0  0  0  0  0  0  0
   62.2448   33.3489   50.4449 H   0  0  0  0  0  0  0  0  0  0  0  0
   62.7820   33.5430   48.3940 C   0  0  0  0  0  0  0  0  0  0  0  0
   62.5283   34.1865   47.5387 H   0  0  0  0  0  0  0  0  0  0  0  0
   63.8262   33.6789   48.7121 H   0  0  0  0  0  0  0  0  0  0  0  0
   62.6150   32.0710   47.9690 C   0  0  0  0  0  0  0  0  0  0  0  0
   63.2252   31.8969   47.0705 H   0  0  0  0  0  0  0  0  0  0  0  0
   62.9363   31.4510   48.8190 H   0  0  0  0  0  0  0  0  0  0  0  0
   61.1430   31.6790   47.6480 C   0  0  1  0  0  0  0  0  0  0  0  0
   60.7030   32.4700   46.3670 C   0  0  0  0  0  0  0  0  0  0  0  0
   60.1884   33.3951   46.6660 H   0  0  0  0  0  0  0  0  0  0  0  0
   61.5909   32.7214   45.7683 H   0  0  0  0  0  0  0  0  0  0  0  0
   60.0211   31.8482   45.7683 H   0  0  0  0  0  0  0  0  0  0  0  0
   58.6370   27.5610   43.7810 C   0  0  0  0  0  0  0  0  0  0  0  0
   58.4823   26.4968   44.0124 H   0  0  0  0  0  0  0  0  0  0  0  0
   57.7841   27.9370   43.1969 H   0  0  0  0  0  0  0  0  0  0  0  0
   59.5617   27.6785   43.1969 H   0  0  0  0  0  0  0  0  0  0  0  0
  1  2  1  0
  2  3  2  3
  3  4  1  0
  4  5  1  0
  4  6  1  0
  4  7  1  0
  3  8  1  0
  8  9  1  0
  8 10  1  0
  8 11  1  0
  2 12  1  0
 12 13  1  0
 12 14  1  0
 12 15  1  0
 15 16  1  0
 15 17  1  0
 15 18  1  0
 18 19  2  0
 19 20  1  0
 19 21  1  0
 21 22  1  0
 21 23  1  0
 21 24  1  0
 24 25  1  1
 24 26  1  0
 26 27  1  0
 27 28  1  0
 27 29  1  0
 27 30  1  0
 30 31  1  0
 31 32  1  0
 31 33  1  0
 31 34  1  0
 34 35  1  0
 34 36  1  0
 34 37  1  0
 37 38  1  0
 37 39  1  0
 39 40  1  0
 39 41  1  0
 39 42  1  0
 42 43  1  0
 42 44  1  0
 42 45  1  0
 37 46  1  0
 46 47  1  0
 46 48  1  0
 46 49  1  0
 49 50  1  0
 49 51  1  0
 49 52  1  0
 26 53  2  0
 53 54  1  0
 53 55  1  0
 55 56  1  0
 55 57  1  0
 55 58  1  0
 58 59  1  1
 58 60  1  0
 60 61  1  0
 61 62  1  0
 61 63  1  0
 61 64  1  0
 60 65  1  0
 65 66  1  0
 65 67  1  0
 65 68  1  0
 60 69  1  0
 69 70  1  0
 69 71  1  0
 69 72  1  0
 72 73  1  0
 72 74  1  0
 72 75  1  0
 75 76  1  0
 75 77  1  0
 75 78  1  0
 78 79  1  6
 79 80  1  0
 79 81  1  0
 79 82  1  0
 18 83  1  0
 83 84  1  0
 83 85  1  0
 83 86  1  0
 78 24  1  0
 78 58  1  0
M  CHG  1  37   1
M  END
>  <UniqueID>  (26) 
26

>  <SMILES>  (26) 
CC[NH+](CC)CCOCC1=CC[C@@H]2C(C)(C)CCC[C@@]2(C)C1C/C=C(\C)CCC=C(C)C

>  <Energy>  (26) 
107.27437025386291

>  <Genealogy>  (26) 
CC[NH+](CC)CCOCC1=CCC2C(C)(C)CCCC2(C)C1CC=C(C)CCC=C(C)C (protonated)
CC[NH+](CC)CCOCC1=CC[C@@H]2C(C)(C)CCC[C@@]2(C)C1CC=C(C)CCC=C(C)C (chirality)
CC[NH+](CC)CCOCC1=CC[C@@H]2C(C)(C)CCC[C@@]2(C)C1C/C=C(\C)CCC=C(C)C (cis-trans isomerization)
CC[NH+](CC)CCOCC1=CC[C@@H]2C(C)(C)CCC[C@@]2(C)C1C/C=C(\C)CCC=C(C)C (3D coordinates assigned)
CC[NH+](CC)CCOCC1=CC[C@@H]2C(C)(C)CCC[C@@]2(C)C1C/C=C(\C)CCC=C(C)C (nonaromatic ring conformer: 107.27437025386291 kcal/mol)

>  <smiles>  (26) 
CCN(CC)CCOCC1=CCC2C(C)(C)CCCC2(C)C1CC=C(C)CCC=C(C)C

>  <score_type>  (26) 
oracle

>  <origin>  (26) 
adg

>  <m_score__min__energy>  (26) 
-7.3799999999999999

>  <m_primary>  (26) 
energy

$$$$
26:0
     RDKit          3D

 52 54  0  0  0  0  0  0  0  0999 V2000
   67.4910   33.4070   50.5040 C   0  0  0  0  0  0  0  0  0  0  0  0
   66.9590   32.0230   50.8650 C   0  0  0  0  0  0  0  0  0  0  0  0
   65.7790   31.7320   50.1410 O   0  0  0  0  0  0  0  0  0  0  0  0
   64.8670   30.9630   50.9100 C   0  0  0  0  0  0  0  0  0  0  0  0
   63.4290   31.3100   50.5200 C   0  0  0  0  0  0  0  0  0  0  0  0
   63.3190   31.6870   49.0300 C   0  0  0  0  0  0  0  0  0  0  0  0
   64.1570   32.8480   48.6830 N   0  0  0  0  0  0  0  0  0  0  0  0
   63.3930   34.1060   48.6680 C   0  0  0  0  0  0  0  0  0  0  0  0
   62.0520   33.8990   48.0120 C   0  0  0  0  0  0  0  0  0  0  0  0
   61.9590   33.7750   46.6170 C   0  0  0  0  0  0  0  0  0  0  0  0
   60.7200   33.5480   46.0100 C   0  0  0  0  0  0  0  0  0  0  0  0
   59.5580   33.4210   46.7890 C   0  0  0  0  0  0  0  0  0  0  0  0
   58.2490   33.1890   46.1410 C   0  0  0  0  0  0  0  0  0  0  0  0
   57.2280   33.7880   46.5750 O   0  0  0  0  0  0  0  0  0  0  0  0
   58.1300   32.3150   45.0060 N   0  0  0  0  0  0  0  0  0  0  0  0
   57.7580   32.7760   43.6630 C   0  0  0  0  0  0  0  0  0  0  0  0
   57.3170   31.5170   42.8780 C   0  0  0  0  0  0  0  0  0  0  0  0
   57.4640   30.4220   43.8730 C   0  0  0  0  0  0  0  0  0  0  0  0
   57.2100   29.0600   43.6960 C   0  0  0  0  0  0  0  0  0  0  0  0
   57.4400   28.1900   44.7750 C   0  0  0  0  0  0  0  0  0  0  0  0
   57.9210   28.6910   45.9990 C   0  0  0  0  0  0  0  0  0  0  0  0
   58.1710   30.0640   46.1520 C   0  0  0  0  0  0  0  0  0  0  0  0
   57.9200   30.9120   45.0660 C   0  0  0  0  0  0  0  0  0  0  0  0
   59.6540   33.5460   48.1850 C   0  0  0  0  0  0  0  0  0  0  0  0
   60.8930   33.7730   48.7920 C   0  0  0  0  0  0  0  0  0  0  0  0
   67.7068   33.9685   51.4249 H   0  0  0  0  0  0  0  0  0  0  0  0
   68.4132   33.3028   49.9134 H   0  0  0  0  0  0  0  0  0  0  0  0
   66.7365   33.9473   49.9134 H   0  0  0  0  0  0  0  0  0  0  0  0
   67.7237   31.2694   50.6256 H   0  0  0  0  0  0  0  0  0  0  0  0
   66.7257   32.0051   51.9398 H   0  0  0  0  0  0  0  0  0  0  0  0
   65.0463   29.8936   50.7251 H   0  0  0  0  0  0  0  0  0  0  0  0
   65.0155   31.1880   51.9764 H   0  0  0  0  0  0  0  0  0  0  0  0
   62.7862   30.4391   50.7160 H   0  0  0  0  0  0  0  0  0  0  0  0
   63.1107   32.1767   51.1179 H   0  0  0  0  0  0  0  0  0  0  0  0
   63.6378   30.8268   48.4231 H   0  0  0  0  0  0  0  0  0  0  0  0
   62.2717   31.9558   48.8276 H   0  0  0  0  0  0  0  0  0  0  0  0
   64.9580   32.9250   49.3540 H   0  0  0  0  0  0  0  0  0  0  0  0
   64.5500   32.6850   47.7260 H   0  0  0  0  0  0  0  0  0  0  0  0
   63.2415   34.4503   49.7017 H   0  0  0  0  0  0  0  0  0  0  0  0
   63.9567   34.8588   48.0975 H   0  0  0  0  0  0  0  0  0  0  0  0
   62.8649   33.8568   45.9985 H   0  0  0  0  0  0  0  0  0  0  0  0
   60.6548   33.4683   44.9148 H   0  0  0  0  0  0  0  0  0  0  0  0
   56.9292   33.4967   43.7237 H   0  0  0  0  0  0  0  0  0  0  0  0
   58.5992   33.2822   43.1668 H   0  0  0  0  0  0  0  0  0  0  0  0
   56.2730   31.6073   42.5434 H   0  0  0  0  0  0  0  0  0  0  0  0
   57.9084   31.3506   41.9655 H   0  0  0  0  0  0  0  0  0  0  0  0
   56.8384   28.6773   42.7340 H   0  0  0  0  0  0  0  0  0  0  0  0
   57.2434   27.1136   44.6627 H   0  0  0  0  0  0  0  0  0  0  0  0
   58.1018   28.0042   46.8390 H   0  0  0  0  0  0  0  0  0  0  0  0
   58.5548   30.4641   47.1020 H   0  0  0  0  0  0  0  0  0  0  0  0
   58.7487   33.4648   48.8045 H   0  0  0  0  0  0  0  0  0  0  0  0
   60.9592   33.8532   49.8871 H   0  0  0  0  0  0  0  0  0  0  0  0
  1  2  1  0
  2  3  1  0
  3  4  1  0
  4  5  1  0
  5  6  1  0
  6  7  1  0
  7  8  1  0
  8  9  1  0
  9 10  2  0
 10 11  1  0
 11 12  2  0
 12 13  1  0
 13 14  2  0
 13 15  1  0
 15 16  1  0
 16 17  1  0
 17 18  1  0
 18 19  2  0
 19 20  1  0
 20 21  2  0
 21 22  1  0
 22 23  2  0
 12 24  1  0
 24 25  2  0
 25  9  1  0
 23 15  1  0
 23 18  1  0
  1 26  1  0
  1 27  1  0
  1 28  1  0
  2 29  1  0
  2 30  1  0
  4 31  1  0
  4 32  1  0
  5 33  1  0
  5 34  1  0
  6 35  1  0
  6 36  1  0
  7 37  1  0
  7 38  1  0
  8 39  1  0
  8 40  1  0
 10 41  1  0
 11 42  1  0
 16 43  1  0
 16 44  1  0
 17 45  1  0
 17 46  1  0
 19 47  1  0
 20 48  1  0
 21 49  1  0
 22 50  1  0
 24 51  1  0
 25 52  1  0
M  CHG  1   7   1
M  END
>  <UniqueID>  (27) 
27

>  <SMILES>  (27) 
CCOCCC[NH2+]Cc1ccc(C(=O)N2CCc3ccccc32)cc1

>  <Energy>  (27) 
70.87246538798118

>  <Genealogy>  (27) 
CCOCCC[NH2+]Cc1ccc(C(=O)N2CCc3ccccc32)cc1 (protonated)
CCOCCC[NH2+]Cc1ccc(C(=O)N2CCc3ccccc32)cc1 (3D coordinates assigned)
CCOCCC[NH2+]Cc1ccc(C(=O)N2CCc3ccccc32)cc1 (nonaromatic ring conformer: 70.87246538798118 kcal/mol)

>  <smiles>  (27) 
CCOCCCNCc1ccc(C(=O)N2CCc3ccccc32)cc1

>  <score_type>  (27) 
oracle

>  <origin>  (27) 
adg

>  <m_score__min__energy>  (27) 
-7.3200000000000003

>  <m_primary>  (27) 
energy

$$$$
