0:0
     RDKit          3D

 46 47  0  0  0  0  0  0  0  0999 V2000
   65.3160   32.3400   50.1230 C   0  0  0  0  0  0  0  0  0  0  0  0
   63.8790   32.5020   49.7420 C   0  0  0  0  0  0  0  0  0  0  0  0
   63.6420   33.5810   48.7930 N   0  0  0  0  0  0  0  0  0  0  0  0
   63.7630   33.0390   47.4770 C   0  0  0  0  0  0  0  0  0  0  0  0
   63.1960   33.8770   46.3750 C   0  0  0  0  0  0  0  0  0  0  0  0
   62.3590   34.2060   49.0430 C   0  0  0  0  0  0  0  0  0  0  0  0
   61.3770   33.2030   49.3000 N   0  0  0  0  0  0  0  0  0  0  0  0
   60.0580   33.7980   49.5800 C   0  0  0  0  0  0  0  0  0  0  0  0
   59.6640   34.5810   48.3440 C   0  0  0  0  0  0  0  0  0  0  0  0
   60.2610   34.0210   47.1790 O   0  0  0  0  0  0  0  0  0  0  0  0
   59.4180   33.3680   46.2910 C   0  0  0  0  0  0  0  0  0  0  0  0
   58.6040   34.0550   45.4040 C   0  0  0  0  0  0  0  0  0  0  0  0
   57.7880   33.3460   44.5490 C   0  0  0  0  0  0  0  0  0  0  0  0
   57.7920   31.9640   44.5880 C   0  0  0  0  0  0  0  0  0  0  0  0
   56.9960   31.2150   43.7560 C   0  0  0  0  0  0  0  0  0  0  0  0
   56.9860   29.8380   43.7790 C   0  0  0  0  0  0  0  0  0  0  0  0
   57.8050   29.1860   44.6710 C   0  0  0  0  0  0  0  0  0  0  0  0
   58.6340   29.8940   45.5400 C   0  0  0  0  0  0  0  0  0  0  0  0
   58.6050   31.2740   45.4750 C   0  0  0  0  0  0  0  0  0  0  0  0
   59.4300   31.9700   46.3390 C   0  0  0  0  0  0  0  0  0  0  0  0
   60.2820   31.2980   47.2670 N   0  0  0  0  0  0  0  0  0  0  0  0
   61.4740   31.0350   46.9620 O   0  0  0  0  0  0  0  0  0  0  0  0
   59.8600   30.9080   48.5170 O   0  0  0  0  0  0  0  0  0  0  0  0
   65.4058   32.3299   51.2193 H   0  0  0  0  0  0  0  0  0  0  0  0
   65.6990   31.3930   49.7150 H   0  0  0  0  0  0  0  0  0  0  0  0
   65.9002   33.1780   49.7150 H   0  0  0  0  0  0  0  0  0  0  0  0
   63.5312   31.5608   49.2913 H   0  0  0  0  0  0  0  0  0  0  0  0
   63.3300   32.7561   50.6607 H   0  0  0  0  0  0  0  0  0  0  0  0
   64.8329   32.8885   47.2707 H   0  0  0  0  0  0  0  0  0  0  0  0
   63.1740   32.1100   47.4803 H   0  0  0  0  0  0  0  0  0  0  0  0
   62.6289   34.7151   46.8063 H   0  0  0  0  0  0  0  0  0  0  0  0
   64.0150   34.2693   45.7542 H   0  0  0  0  0  0  0  0  0  0  0  0
   62.5272   33.2627   45.7542 H   0  0  0  0  0  0  0  0  0  0  0  0
   62.4399   34.8705   49.9158 H   0  0  0  0  0  0  0  0  0  0  0  0
   62.0604   34.7903   48.1601 H   0  0  0  0  0  0  0  0  0  0  0  0
   61.2190   32.6020   48.4440 H   0  0  0  0  0  0  0  0  0  0  0  0
   59.3198   33.0073   49.7795 H   0  0  0  0  0  0  0  0  0  0  0  0
   60.0969   34.4490   50.4658 H   0  0  0  0  0  0  0  0  0  0  0  0
   58.5696   34.5569   48.2355 H   0  0  0  0  0  0  0  0  0  0  0  0
   60.0149   35.6174   48.4565 H   0  0  0  0  0  0  0  0  0  0  0  0
   58.6092   35.1548   45.3827 H   0  0  0  0  0  0  0  0  0  0  0  0
   57.1368   33.8770   43.8391 H   0  0  0  0  0  0  0  0  0  0  0  0
   56.3403   31.7359   43.0428 H   0  0  0  0  0  0  0  0  0  0  0  0
   56.3355   29.2706   43.0971 H   0  0  0  0  0  0  0  0  0  0  0  0
   57.8060   28.0864   44.6993 H   0  0  0  0  0  0  0  0  0  0  0  0
   59.2889   29.3719   46.2531 H   0  0  0  0  0  0  0  0  0  0  0  0
  1  2  1  0
  2  3  1  0
  3  4  1  0
  4  5  1  0
  3  6  1  0
  6  7  1  0
  7  8  1  0
  8  9  1  0
  9 10  1  0
 10 11  1  0
 11 12  2  0
 12 13  1  0
 13 14  2  0
 14 15  1  0
 15 16  2  0
 16 17  1  0
 17 18  2  0
 18 19  1  0
 19 20  2  0
 20 21  1  0
 21 22  2  0
 21 23  1  0
 20 11  1  0
 19 14  1  0
  1 24  1  0
  1 25  1  0
  1 26  1  0
  2 27  1  0
  2 28  1  0
  4 29  1  0
  4 30  1  0
  5 31  1  0
  5 32  1  0
  5 33  1  0
  6 34  1  0
  6 35  1  0
  7 36  1  0
  8 37  1  0
  8 38  1  0
  9 39  1  0
  9 40  1  0
 12 41  1  0
 13 42  1  0
 15 43  1  0
 16 44  1  0
 17 45  1  0
 18 46  1  0
M  CHG  2  21   1  23  -1
M  END
>  <smiles>  (1) 
CCN(CC)CNCCOc1ccc2ccccc2c1[N+](=O)[O-]

>  <score_type>  (1) 
oracle

>  <origin>  (1) 
adg

>  <m_score__min__energy>  (1) 
-7

>  <m_primary>  (1) 
energy

$$$$
1:0
     RDKit          3D

 65 67  0  0  0  0  0  0  0  0999 V2000
   63.3440   33.8120   46.4310 C   0  0  0  0  0  0  0  0  0  0  0  0
   62.8270   32.8300   47.4170 C   0  0  0  0  0  0  0  0  0  0  0  0
   63.0510   33.1320   48.8130 N   0  0  0  0  0  0  0  0  0  0  0  0
   62.3360   34.2960   49.1390 C   0  0  0  0  0  0  0  0  0  0  0  0
   60.8290   34.1890   49.1220 C   0  0  0  0  0  0  0  0  0  0  0  0
   64.3980   32.9750   49.1450 C   0  0  0  0  0  0  0  0  0  0  0  0
   64.8460   31.9480   50.0870 C   0  0  0  0  0  0  0  0  0  0  0  0
   63.7960   31.6590   51.0250 O   0  0  0  0  0  0  0  0  0  0  0  0
   63.8160   30.2910   51.2860 C   0  0  0  0  0  0  0  0  0  0  0  0
   62.5430   29.5650   50.9780 C   0  0  0  0  0  0  0  0  0  0  0  0
   61.8360   30.0900   49.9350 O   0  0  0  0  0  0  0  0  0  0  0  0
   61.2810   31.2410   50.1220 N   0  0  0  0  0  0  0  0  0  0  0  0
   59.9090   31.3970   50.4090 C   0  0  0  0  0  0  0  0  0  0  0  0
   58.9980   30.8900   49.3220 C   0  0  0  0  0  0  0  0  0  0  0  0
   59.6550   30.4420   48.1200 N   0  0  0  0  0  0  0  0  0  0  0  0
   59.0000   30.0920   46.9200 C   0  0  0  0  0  0  0  0  0  0  0  0
   58.5580   28.8610   46.5530 C   0  0  0  0  0  0  0  0  0  0  0  0
   58.7860   27.8030   47.3920 C   0  0  0  0  0  0  0  0  0  0  0  0
   58.3780   26.5270   47.0900 C   0  0  0  0  0  0  0  0  0  0  0  0
   57.7210   26.3170   45.8950 C   0  0  0  0  0  0  0  0  0  0  0  0
   57.4910   27.3770   45.0490 C   0  0  0  0  0  0  0  0  0  0  0  0
   57.8940   28.6750   45.3390 C   0  0  0  0  0  0  0  0  0  0  0  0
   57.6630   29.6980   44.4810 N   0  0  0  0  0  0  0  0  0  0  0  0
   56.9580   29.4520   43.2460 C   0  0  0  0  0  0  0  0  0  0  0  0
   58.0960   30.9270   44.8290 C   0  0  0  0  0  0  0  0  0  0  0  0
   57.9110   32.0290   44.0170 C   0  0  0  0  0  0  0  0  0  0  0  0
   58.3430   33.2940   44.3440 C   0  0  0  0  0  0  0  0  0  0  0  0
   58.9980   33.4950   45.5400 C   0  0  0  0  0  0  0  0  0  0  0  0
   59.6490   35.1910   46.1030 Br  0  0  0  0  0  0  0  0  0  0  0  0
   59.1980   32.4210   46.3700 C   0  0  0  0  0  0  0  0  0  0  0  0
   58.7570   31.1500   46.0270 C   0  0  0  0  0  0  0  0  0  0  0  0
   63.7926   34.6641   46.9628 H   0  0  0  0  0  0  0  0  0  0  0  0
   64.1060   33.3314   45.7998 H   0  0  0  0  0  0  0  0  0  0  0  0
   62.5165   34.1682   45.7998 H   0  0  0  0  0  0  0  0  0  0  0  0
   61.7410   32.7448   47.2645 H   0  0  0  0  0  0  0  0  0  0  0  0
   63.3916   31.9052   47.2272 H   0  0  0  0  0  0  0  0  0  0  0  0
   62.6379   34.6009   50.1519 H   0  0  0  0  0  0  0  0  0  0  0  0
   62.5851   35.0209   48.3501 H   0  0  0  0  0  0  0  0  0  0  0  0
   60.4516   34.1622   50.1549 H   0  0  0  0  0  0  0  0  0  0  0  0
   60.4055   35.0593   48.5994 H   0  0  0  0  0  0  0  0  0  0  0  0
   60.5327   33.2676   48.5994 H   0  0  0  0  0  0  0  0  0  0  0  0
   64.9281   32.7805   48.2010 H   0  0  0  0  0  0  0  0  0  0  0  0
   64.6125   33.9039   49.6937 H   0  0  0  0  0  0  0  0  0  0  0  0
   65.1045   31.0328   49.5343 H   0  0  0  0  0  0  0  0  0  0  0  0
   65.7296   32.3134   50.6309 H   0  0  0  0  0  0  0  0  0  0  0  0
   64.6188   29.8412   50.6833 H   0  0  0  0  0  0  0  0  0  0  0  0
   63.9712   30.1891   52.3702 H   0  0  0  0  0  0  0  0  0  0  0  0
   62.7915   28.5213   50.7353 H   0  0  0  0  0  0  0  0  0  0  0  0
   61.9046   29.6558   51.8692 H   0  0  0  0  0  0  0  0  0  0  0  0
   61.8370   32.0800   50.2620 H   0  0  0  0  0  0  0  0  0  0  0  0
   59.6838   30.8469   51.3346 H   0  0  0  0  0  0  0  0  0  0  0  0
   59.7229   32.4769   50.5045 H   0  0  0  0  0  0  0  0  0  0  0  0
   58.4228   30.0452   49.7287 H   0  0  0  0  0  0  0  0  0  0  0  0
   58.3767   31.7476   49.0246 H   0  0  0  0  0  0  0  0  0  0  0  0
   60.7210   30.3560   48.0950 H   0  0  0  0  0  0  0  0  0  0  0  0
   59.3141   27.9813   48.3403 H   0  0  0  0  0  0  0  0  0  0  0  0
   58.5699   25.6942   47.7826 H   0  0  0  0  0  0  0  0  0  0  0  0
   57.3828   25.3070   45.6202 H   0  0  0  0  0  0  0  0  0  0  0  0
   56.9650   27.1890   44.1014 H   0  0  0  0  0  0  0  0  0  0  0  0
   55.9409   29.0971   43.4688 H   0  0  0  0  0  0  0  0  0  0  0  0
   56.9020   30.3837   42.6639 H   0  0  0  0  0  0  0  0  0  0  0  0
   57.4938   28.6877   42.6639 H   0  0  0  0  0  0  0  0  0  0  0  0
   57.3908   31.8879   43.0581 H   0  0  0  0  0  0  0  0  0  0  0  0
   58.1674   34.1359   43.6581 H   0  0  0  0  0  0  0  0  0  0  0  0
   59.7187   32.5701   47.3274 H   0  0  0  0  0  0  0  0  0  0  0  0
  1  2  1  0
  2  3  1  0
  3  4  1  0
  4  5  1  0
  3  6  1  0
  6  7  1  0
  7  8  1  0
  8  9  1  0
  9 10  1  0
 10 11  1  0
 11 12  1  0
 12 13  1  0
 13 14  1  0
 14 15  1  0
 15 16  1  0
 16 17  2  0
 17 18  1  0
 18 19  2  0
 19 20  1  0
 20 21  2  0
 21 22  1  0
 22 23  2  0
 23 24  1  0
 23 25  1  0
 25 26  2  0
 26 27  1  0
 27 28  2  0
 28 29  1  0
 28 30  1  0
 30 31  2  0
 31 16  1  0
 22 17  1  0
 31 25  1  0
  1 32  1  0
  1 33  1  0
  1 34  1  0
  2 35  1  0
  2 36  1  0
  4 37  1  0
  4 38  1  0
  5 39  1  0
  5 40  1  0
  5 41  1  0
  6 42  1  0
  6 43  1  0
  7 44  1  0
  7 45  1  0
  9 46  1  0
  9 47  1  0
 10 48  1  0
 10 49  1  0
 12 50  1  0
 13 51  1  0
 13 52  1  0
 14 53  1  0
 14 54  1  0
 15 55  1  0
 18 56  1  0
 19 57  1  0
 20 58  1  0
 21 59  1  0
 24 60  1  0
 24 61  1  0
 24 62  1  0
 26 63  1  0
 27 64  1  0
 30 65  1  0
M  CHG  1  23   1
M  END
>  <smiles>  (2) 
CCN(CC)CCOCCONCCNc1c2ccccc2[n+](C)c2ccc(Br)cc12

>  <score_type>  (2) 
oracle

>  <origin>  (2) 
adg

>  <m_score__min__energy>  (2) 
-6.1299999999999999

>  <m_primary>  (2) 
energy

$$$$
2:0
     RDKit          3D

 48 51  0  0  0  0  0  0  0  0999 V2000
   64.7630   33.1050   49.5600 C   0  0  0  0  0  0  0  0  0  0  0  0
   63.5160   32.8860   48.8190 C   0  0  0  0  0  0  0  0  0  0  0  0
   63.3810   32.0150   47.7560 C   0  0  0  0  0  0  0  0  0  0  0  0
   62.1950   31.8620   47.1160 N   0  0  0  0  0  0  0  0  0  0  0  0
   61.0760   32.5340   47.4610 C   0  0  0  0  0  0  0  0  0  0  0  0
   59.8430   32.3070   46.7240 C   0  0  0  0  0  0  0  0  0  0  0  0
   59.0300   33.3120   46.2520 C   0  0  0  0  0  0  0  0  0  0  0  0
   57.8600   33.0840   45.5590 C   0  0  0  0  0  0  0  0  0  0  0  0
   57.0190   34.2080   45.0720 C   0  0  0  0  0  0  0  0  0  0  0  0
   57.5210   31.8010   45.3480 N   0  0  0  0  0  0  0  0  0  0  0  0
   58.2550   30.7490   45.7730 C   0  0  0  0  0  0  0  0  0  0  0  0
   57.7960   29.4300   45.4900 N   0  0  0  0  0  0  0  0  0  0  0  0
   57.1450   29.2070   44.2150 C   0  0  0  0  0  0  0  0  0  0  0  0
   57.7610   28.0430   43.4660 C   0  0  0  0  0  0  0  0  0  0  0  0
   57.8020   26.8820   44.3680 C   0  0  0  0  0  0  0  0  0  0  0  0
   57.7660   25.5600   44.1290 N   0  0  0  0  0  0  0  0  0  0  0  0
   57.8290   24.8790   45.2560 N   0  0  0  0  0  0  0  0  0  0  0  0
   57.8090   23.4280   45.2970 C   0  0  0  0  0  0  0  0  0  0  0  0
   57.9090   25.7600   46.2730 C   0  0  0  0  0  0  0  0  0  0  0  0
   57.8940   27.0280   45.7360 C   0  0  0  0  0  0  0  0  0  0  0  0
   57.9600   28.3500   46.4120 C   0  0  0  0  0  0  0  0  0  0  0  0
   59.4200   31.0050   46.4630 C   0  0  0  0  0  0  0  0  0  0  0  0
   61.1870   33.4080   48.5200 C   0  0  0  0  0  0  0  0  0  0  0  0
   60.0110   34.1910   48.9830 C   0  0  0  0  0  0  0  0  0  0  0  0
   62.3960   33.5870   49.1980 C   0  0  0  0  0  0  0  0  0  0  0  0
   64.5587   33.0691   50.6403 H   0  0  0  0  0  0  0  0  0  0  0  0
   65.4880   32.3204   49.2977 H   0  0  0  0  0  0  0  0  0  0  0  0
   65.1773   34.0897   49.2977 H   0  0  0  0  0  0  0  0  0  0  0  0
   64.2528   31.4336   47.4216 H   0  0  0  0  0  0  0  0  0  0  0  0
   59.3299   34.3539   46.4377 H   0  0  0  0  0  0  0  0  0  0  0  0
   56.6078   34.7575   45.9316 H   0  0  0  0  0  0  0  0  0  0  0  0
   57.6324   34.8874   44.4619 H   0  0  0  0  0  0  0  0  0  0  0  0
   56.1942   33.8112   44.4619 H   0  0  0  0  0  0  0  0  0  0  0  0
   56.0803   28.9940   44.3910 H   0  0  0  0  0  0  0  0  0  0  0  0
   57.2705   30.1126   43.6034 H   0  0  0  0  0  0  0  0  0  0  0  0
   57.1514   27.8055   42.5817 H   0  0  0  0  0  0  0  0  0  0  0  0
   58.7777   28.3013   43.1349 H   0  0  0  0  0  0  0  0  0  0  0  0
   57.8044   23.0908   46.3440 H   0  0  0  0  0  0  0  0  0  0  0  0
   56.9057   23.0592   44.7890 H   0  0  0  0  0  0  0  0  0  0  0  0
   58.7018   23.0345   44.7890 H   0  0  0  0  0  0  0  0  0  0  0  0
   57.9746   25.5104   47.3423 H   0  0  0  0  0  0  0  0  0  0  0  0
   57.1621   28.4032   47.1673 H   0  0  0  0  0  0  0  0  0  0  0  0
   58.9528   28.4461   46.8758 H   0  0  0  0  0  0  0  0  0  0  0  0
   60.0309   30.1612   46.8164 H   0  0  0  0  0  0  0  0  0  0  0  0
   59.9898   34.2051   50.0827 H   0  0  0  0  0  0  0  0  0  0  0  0
   60.0843   35.2212   48.6044 H   0  0  0  0  0  0  0  0  0  0  0  0
   59.0888   33.7260   48.6044 H   0  0  0  0  0  0  0  0  0  0  0  0
   62.4516   34.2929   50.0398 H   0  0  0  0  0  0  0  0  0  0  0  0
  1  2  1  0
  2  3  2  0
  3  4  1  0
  4  5  2  0
  5  6  1  0
  6  7  2  0
  7  8  1  0
  8  9  1  0
  8 10  2  0
 10 11  1  0
 11 12  1  0
 12 13  1  0
 13 14  1  0
 14 15  1  0
 15 16  2  0
 16 17  1  0
 17 18  1  0
 17 19  1  0
 19 20  2  0
 20 21  1  0
 11 22  2  0
  5 23  1  0
 23 24  1  0
 23 25  2  0
 25  2  1  0
 22  6  1  0
 21 12  1  0
 20 15  1  0
  1 26  1  0
  1 27  1  0
  1 28  1  0
  3 29  1  0
  7 30  1  0
  9 31  1  0
  9 32  1  0
  9 33  1  0
 13 34  1  0
 13 35  1  0
 14 36  1  0
 14 37  1  0
 18 38  1  0
 18 39  1  0
 18 40  1  0
 19 41  1  0
 21 42  1  0
 21 43  1  0
 22 44  1  0
 24 45  1  0
 24 46  1  0
 24 47  1  0
 25 48  1  0
M  END
>  <smiles>  (3) 
Cc1cnc(-c2cc(C)nc(N3CCc4nn(C)cc4C3)c2)c(C)c1

>  <score_type>  (3) 
oracle

>  <origin>  (3) 
adg

>  <m_score__min__energy>  (3) 
-8.1199999999999992

>  <m_primary>  (3) 
energy

$$$$
3:0
     RDKit          3D

 31 32  0  0  0  0  0  0  0  0999 V2000
   58.1260   27.4970   43.7190 C   0  0  0  0  0  0  0  0  0  0  0  0
   58.5080   28.7090   44.5150 C   0  0  0  0  0  0  0  0  0  0  0  0
   59.6170   28.6580   45.3400 C   0  0  0  0  0  0  0  0  0  0  0  0
   59.9440   29.7950   46.0620 C   0  0  0  0  0  0  0  0  0  0  0  0
   59.1600   30.9440   45.9390 C   0  0  0  0  0  0  0  0  0  0  0  0
   58.0590   30.9900   45.1180 C   0  0  0  0  0  0  0  0  0  0  0  0
   57.0240   32.4150   44.8990 S   0  0  0  0  0  0  0  0  0  0  0  0
   57.4880   33.8290   45.8940 C   0  0  0  0  0  0  0  0  0  0  0  0
   58.8340   34.3530   45.4970 C   0  0  0  0  0  0  0  0  0  0  0  0
   59.8380   34.1940   46.5970 C   0  0  0  0  0  0  0  0  0  0  0  0
   59.4610   34.3800   47.9090 C   0  0  0  0  0  0  0  0  0  0  0  0
   60.4000   34.2290   48.9100 C   0  0  0  0  0  0  0  0  0  0  0  0
   61.6860   33.9060   48.6730 N   0  0  0  0  0  0  0  0  0  0  0  0
   62.0650   33.7220   47.3830 C   0  0  0  0  0  0  0  0  0  0  0  0
   61.1550   33.8630   46.3530 C   0  0  0  0  0  0  0  0  0  0  0  0
   57.7500   29.8530   44.4100 C   0  0  0  0  0  0  0  0  0  0  0  0
   56.3620   29.8260   43.3410 Cl  0  0  0  0  0  0  0  0  0  0  0  0
   57.8671   26.6756   44.4033 H   0  0  0  0  0  0  0  0  0  0  0  0
   57.2587   27.7332   43.0849 H   0  0  0  0  0  0  0  0  0  0  0  0
   58.9719   27.1932   43.0849 H   0  0  0  0  0  0  0  0  0  0  0  0
   60.2214   27.7425   45.4207 H   0  0  0  0  0  0  0  0  0  0  0  0
   60.8182   29.7923   46.7297 H   0  0  0  0  0  0  0  0  0  0  0  0
   59.4320   31.8396   46.5169 H   0  0  0  0  0  0  0  0  0  0  0  0
   56.7396   34.6237   45.7590 H   0  0  0  0  0  0  0  0  0  0  0  0
   57.5338   33.5138   46.9469 H   0  0  0  0  0  0  0  0  0  0  0  0
   59.1844   33.8012   44.6123 H   0  0  0  0  0  0  0  0  0  0  0  0
   58.7328   35.4263   45.2783 H   0  0  0  0  0  0  0  0  0  0  0  0
   58.4227   34.6460   48.1565 H   0  0  0  0  0  0  0  0  0  0  0  0
   60.0822   34.3799   49.9522 H   0  0  0  0  0  0  0  0  0  0  0  0
   63.1081   33.4577   47.1549 H   0  0  0  0  0  0  0  0  0  0  0  0
   61.4877   33.7080   45.3160 H   0  0  0  0  0  0  0  0  0  0  0  0
  1  2  1  0
  2  3  2  0
  3  4  1  0
  4  5  2  0
  5  6  1  0
  6  7  1  0
  7  8  1  0
  8  9  1  0
  9 10  1  0
 10 11  2  0
 11 12  1  0
 12 13  2  0
 13 14  1  0
 14 15  2  0
  6 16  2  0
 16 17  1  0
 16  2  1  0
 15 10  1  0
  1 18  1  0
  1 19  1  0
  1 20  1  0
  3 21  1  0
  4 22  1  0
  5 23  1  0
  8 24  1  0
  8 25  1  0
  9 26  1  0
  9 27  1  0
 11 28  1  0
 12 29  1  0
 14 30  1  0
 15 31  1  0
M  END
>  <smiles>  (4) 
Cc1cccc(SCCc2ccncc2)c1Cl

>  <score_type>  (4) 
oracle

>  <origin>  (4) 
adg

>  <m_score__min__energy>  (4) 
-6.6100000000000003

>  <m_primary>  (4) 
energy

$$$$
4:0
     RDKit          3D

 36 39  0  0  1  0  0  0  0  0999 V2000
   58.3880   32.3820   41.7990 O   0  0  0  0  0  0  0  0  0  0  0  0
   57.8210   32.2890   42.9240 C   0  0  0  0  0  0  0  0  0  0  0  0
   57.6850   33.4370   43.7910 N   0  0  0  0  0  0  0  0  0  0  0  0
   58.1240   33.4480   44.9670 C   0  0  0  0  0  0  0  0  0  0  0  0
   57.9980   32.6800   46.0360 N   0  0  0  0  0  0  0  0  0  0  0  0
   58.5930   32.9530   47.1530 C   0  0  0  0  0  0  0  0  0  0  0  0
   58.5440   32.2200   48.3660 C   0  0  0  0  0  0  0  0  0  0  0  0
   59.2390   32.6530   49.4660 C   0  0  0  0  0  0  0  0  0  0  0  0
   60.0160   33.7910   49.4940 C   0  0  0  0  0  0  0  0  0  0  0  0
   60.6980   34.2130   50.5770 F   0  0  0  0  0  0  0  0  0  0  0  0
   60.0780   34.5190   48.3270 C   0  0  0  0  0  0  0  0  0  0  0  0
   59.3850   34.0770   47.2510 C   0  0  0  0  0  0  0  0  0  0  0  0
   59.2740   34.8400   45.5470 S   0  0  0  0  0  0  0  0  0  0  0  0
   57.2580   31.0200   43.4430 C   0  0  1  0  0  0  0  0  0  0  0  0
   58.2880   30.1590   44.1490 C   0  0  0  0  0  0  0  0  0  0  0  0
   57.3710   29.3850   45.0540 C   0  0  0  0  0  0  0  0  0  0  0  0
   57.6360   28.0940   45.6800 C   0  0  0  0  0  0  0  0  0  0  0  0
   56.6260   27.1550   45.6480 C   0  0  0  0  0  0  0  0  0  0  0  0
   56.7910   25.8960   46.2190 C   0  0  0  0  0  0  0  0  0  0  0  0
   58.0040   25.6170   46.8240 C   0  0  0  0  0  0  0  0  0  0  0  0
   58.1400   24.3830   47.3730 F   0  0  0  0  0  0  0  0  0  0  0  0
   59.0090   26.5620   46.8510 C   0  0  0  0  0  0  0  0  0  0  0  0
   58.8440   27.8130   46.2820 C   0  0  0  0  0  0  0  0  0  0  0  0
   56.2780   30.0480   45.2050 N   0  0  0  0  0  0  0  0  0  0  0  0
   56.3310   31.2330   44.4840 O   0  0  0  0  0  0  0  0  0  0  0  0
   57.3620   31.7960   45.9230 H   0  0  0  0  0  0  0  0  0  0  0  0
   57.9453   31.2991   48.4249 H   0  0  0  0  0  0  0  0  0  0  0  0
   59.1720   32.0532   50.3856 H   0  0  0  0  0  0  0  0  0  0  0  0
   60.6774   35.4396   48.2700 H   0  0  0  0  0  0  0  0  0  0  0  0
   56.8336   30.5553   42.5408 H   0  0  0  0  0  0  0  0  0  0  0  0
   58.8262   29.5030   43.4490 H   0  0  0  0  0  0  0  0  0  0  0  0
   59.0963   30.7084   44.6539 H   0  0  0  0  0  0  0  0  0  0  0  0
   55.6717   27.4058   45.1619 H   0  0  0  0  0  0  0  0  0  0  0  0
   55.9846   25.1484   46.1902 H   0  0  0  0  0  0  0  0  0  0  0  0
   59.9647   26.3152   47.3366 H   0  0  0  0  0  0  0  0  0  0  0  0
   59.6514   28.5595   46.3093 H   0  0  0  0  0  0  0  0  0  0  0  0
  1  2  2  0
  2  3  1  0
  3  4  2  0
  4  5  1  0
  5  6  1  0
  6  7  2  0
  7  8  1  0
  8  9  2  0
  9 10  1  0
  9 11  1  0
 11 12  2  0
 12 13  1  0
  2 14  1  0
 14 15  1  0
 15 16  1  0
 16 17  1  0
 17 18  2  0
 18 19  1  0
 19 20  2  0
 20 21  1  0
 20 22  1  0
 22 23  2  0
 16 24  2  0
 24 25  1  0
 13  4  1  0
 25 14  1  0
 12  6  1  0
 23 17  1  0
  5 26  1  0
  7 27  1  0
  8 28  1  0
 11 29  1  0
 14 30  1  6
 15 31  1  0
 15 32  1  0
 18 33  1  0
 19 34  1  0
 22 35  1  0
 23 36  1  0
M  END
>  <smiles>  (5) 
O=C(N=c1[nH]c2ccc(F)cc2s1)C1CC(c2ccc(F)cc2)=NO1

>  <score_type>  (5) 
oracle

>  <origin>  (5) 
adg

>  <m_score__min__energy>  (5) 
-8.6699999999999999

>  <m_primary>  (5) 
energy

$$$$
5:0
     RDKit          3D

 32 33  0  0  0  0  0  0  0  0999 V2000
   62.4110   33.8510   47.1740 C   0  0  0  0  0  0  0  0  0  0  0  0
   61.2460   34.1120   48.0800 C   0  0  0  0  0  0  0  0  0  0  0  0
   60.1080   34.6260   47.4330 O   0  0  0  0  0  0  0  0  0  0  0  0
   59.3560   33.8200   46.6080 C   0  0  0  0  0  0  0  0  0  0  0  0
   59.4340   32.4500   46.8280 C   0  0  0  0  0  0  0  0  0  0  0  0
   58.7290   31.5590   46.0710 C   0  0  0  0  0  0  0  0  0  0  0  0
   57.9240   32.0360   45.0660 C   0  0  0  0  0  0  0  0  0  0  0  0
   57.0220   30.8110   44.1040 S   0  0  0  0  0  0  0  0  0  0  0  0
   57.5900   29.2060   44.6590 C   0  0  0  0  0  0  0  0  0  0  0  0
   58.9020   28.8020   44.5290 C   0  0  0  0  0  0  0  0  0  0  0  0
   59.2630   27.5360   44.9870 C   0  0  0  0  0  0  0  0  0  0  0  0
   58.3190   26.6940   45.5680 C   0  0  0  0  0  0  0  0  0  0  0  0
   57.0090   27.1050   45.6960 C   0  0  0  0  0  0  0  0  0  0  0  0
   56.0430   26.2420   46.2900 N   0  0  0  0  0  0  0  0  0  0  0  0
   54.8480   26.3410   45.9540 O   0  0  0  0  0  0  0  0  0  0  0  0
   56.4160   25.2940   47.2370 O   0  0  0  0  0  0  0  0  0  0  0  0
   56.6510   28.3660   45.2380 C   0  0  0  0  0  0  0  0  0  0  0  0
   57.8080   33.3940   44.8020 C   0  0  0  0  0  0  0  0  0  0  0  0
   58.5420   34.2510   45.6000 C   0  0  0  0  0  0  0  0  0  0  0  0
   63.3078   33.6501   47.7785 H   0  0  0  0  0  0  0  0  0  0  0  0
   62.1938   32.9793   46.5393 H   0  0  0  0  0  0  0  0  0  0  0  0
   62.5865   34.7321   46.5393 H   0  0  0  0  0  0  0  0  0  0  0  0
   60.9676   33.1640   48.5635 H   0  0  0  0  0  0  0  0  0  0  0  0
   61.5726   34.8803   48.7963 H   0  0  0  0  0  0  0  0  0  0  0  0
   60.0812   32.0734   47.6338 H   0  0  0  0  0  0  0  0  0  0  0  0
   58.8045   30.4785   46.2627 H   0  0  0  0  0  0  0  0  0  0  0  0
   59.6500   29.4667   44.0722 H   0  0  0  0  0  0  0  0  0  0  0  0
   60.3053   27.1986   44.8882 H   0  0  0  0  0  0  0  0  0  0  0  0
   58.6189   25.6980   45.9260 H   0  0  0  0  0  0  0  0  0  0  0  0
   55.6085   28.7031   45.3358 H   0  0  0  0  0  0  0  0  0  0  0  0
   57.1619   33.7704   43.9952 H   0  0  0  0  0  0  0  0  0  0  0  0
   58.4668   35.3326   45.4141 H   0  0  0  0  0  0  0  0  0  0  0  0
  1  2  1  0
  2  3  1  0
  3  4  1  0
  4  5  2  0
  5  6  1  0
  6  7  2  0
  7  8  1  0
  8  9  1  0
  9 10  2  0
 10 11  1  0
 11 12  2  0
 12 13  1  0
 13 14  1  0
 14 15  2  0
 14 16  1  0
 13 17  2  0
  7 18  1  0
 18 19  2  0
 19  4  1  0
 17  9  1  0
  1 20  1  0
  1 21  1  0
  1 22  1  0
  2 23  1  0
  2 24  1  0
  5 25  1  0
  6 26  1  0
 10 27  1  0
 11 28  1  0
 12 29  1  0
 17 30  1  0
 18 31  1  0
 19 32  1  0
M  CHG  2  14   1  16  -1
M  END
>  <smiles>  (6) 
CCOc1ccc(Sc2cccc([N+](=O)[O-])c2)cc1

>  <score_type>  (6) 
oracle

>  <origin>  (6) 
adg

>  <m_score__min__energy>  (6) 
-7.3799999999999999

>  <m_primary>  (6) 
energy

$$$$
6:0
     RDKit          3D

 49 51  0  0  0  0  0  0  0  0999 V2000
   59.3860   34.3320   54.3930 C   0  0  0  0  0  0  0  0  0  0  0  0
   59.9140   33.7120   53.1170 C   0  0  0  0  0  0  0  0  0  0  0  0
   59.3220   34.3840   51.9590 N   0  0  0  0  0  0  0  0  0  0  0  0
   59.3140   33.7180   50.7130 C   0  0  0  0  0  0  0  0  0  0  0  0
   58.9800   32.3660   50.7060 C   0  0  0  0  0  0  0  0  0  0  0  0
   58.9770   31.7310   49.4870 C   0  0  0  0  0  0  0  0  0  0  0  0
   59.2950   32.4290   48.3400 C   0  0  0  0  0  0  0  0  0  0  0  0
   59.6300   33.7680   48.3160 C   0  0  0  0  0  0  0  0  0  0  0  0
   59.6310   34.4080   49.5600 C   0  0  0  0  0  0  0  0  0  0  0  0
   60.0010   34.6490   47.1910 C   0  0  0  0  0  0  0  0  0  0  0  0
   59.0990   34.6350   46.0120 C   0  0  0  0  0  0  0  0  0  0  0  0
   58.7520   33.3270   45.4420 C   0  0  0  0  0  0  0  0  0  0  0  0
   58.2760   33.5220   44.1400 C   0  0  0  0  0  0  0  0  0  0  0  0
   57.8530   32.4440   43.3660 C   0  0  0  0  0  0  0  0  0  0  0  0
   57.8940   31.1540   43.8680 C   0  0  0  0  0  0  0  0  0  0  0  0
   58.3600   30.9450   45.1510 C   0  0  0  0  0  0  0  0  0  0  0  0
   58.7760   32.0280   45.9010 C   0  0  0  0  0  0  0  0  0  0  0  0
   59.2290   31.5690   47.2020 N   0  0  0  0  0  0  0  0  0  0  0  0
   59.6250   30.2130   47.3560 C   0  0  0  0  0  0  0  0  0  0  0  0
   61.1620   30.0740   47.4800 C   0  0  0  0  0  0  0  0  0  0  0  0
   61.7210   31.0540   48.2630 O   0  0  0  0  0  0  0  0  0  0  0  0
   62.7510   32.0740   47.4720 S   0  0  0  0  0  0  0  0  0  0  0  0
   63.5250   33.1090   48.7190 C   0  0  0  0  0  0  0  0  0  0  0  0
   62.0790   32.9230   46.4390 O   0  0  0  0  0  0  0  0  0  0  0  0
   63.8370   31.2810   46.7970 O   0  0  0  0  0  0  0  0  0  0  0  0
   59.8249   33.8166   55.2600 H   0  0  0  0  0  0  0  0  0  0  0  0
   59.6585   35.3973   54.4231 H   0  0  0  0  0  0  0  0  0  0  0  0
   58.2909   34.2326   54.4231 H   0  0  0  0  0  0  0  0  0  0  0  0
   61.0080   33.8212   53.0831 H   0  0  0  0  0  0  0  0  0  0  0  0
   59.6479   32.6449   53.0938 H   0  0  0  0  0  0  0  0  0  0  0  0
   58.9150   35.3360   52.0560 H   0  0  0  0  0  0  0  0  0  0  0  0
   58.7300   31.8307   51.6338 H   0  0  0  0  0  0  0  0  0  0  0  0
   58.7203   30.6631   49.4256 H   0  0  0  0  0  0  0  0  0  0  0  0
   59.8879   35.4759   49.6203 H   0  0  0  0  0  0  0  0  0  0  0  0
   60.0366   35.6803   47.5721 H   0  0  0  0  0  0  0  0  0  0  0  0
   60.9638   34.2631   46.8249 H   0  0  0  0  0  0  0  0  0  0  0  0
   58.1600   35.1250   46.3091 H   0  0  0  0  0  0  0  0  0  0  0  0
   59.6646   35.1462   45.2191 H   0  0  0  0  0  0  0  0  0  0  0  0
   58.2355   34.5391   43.7231 H   0  0  0  0  0  0  0  0  0  0  0  0
   57.4825   32.6192   42.3452 H   0  0  0  0  0  0  0  0  0  0  0  0
   57.5594   30.3061   43.2522 H   0  0  0  0  0  0  0  0  0  0  0  0
   58.3995   29.9289   45.5705 H   0  0  0  0  0  0  0  0  0  0  0  0
   59.1562   29.8060   48.2640 H   0  0  0  0  0  0  0  0  0  0  0  0
   59.3023   29.6587   46.4623 H   0  0  0  0  0  0  0  0  0  0  0  0
   61.3921   29.0944   47.9244 H   0  0  0  0  0  0  0  0  0  0  0  0
   61.5872   30.1724   46.4703 H   0  0  0  0  0  0  0  0  0  0  0  0
   63.2518   32.7436   49.7199 H   0  0  0  0  0  0  0  0  0  0  0  0
   64.6179   33.0708   48.6004 H   0  0  0  0  0  0  0  0  0  0  0  0
   63.1794   34.1465   48.6004 H   0  0  0  0  0  0  0  0  0  0  0  0
  1  2  1  0
  2  3  1  0
  3  4  1  0
  4  5  2  0
  5  6  1  0
  6  7  2  0
  7  8  1  0
  8  9  2  0
  8 10  1  0
 10 11  1  0
 11 12  1  0
 12 13  2  0
 13 14  1  0
 14 15  2  0
 15 16  1  0
 16 17  2  0
 17 18  1  0
 18 19  1  0
 19 20  1  0
 20 21  1  0
 21 22  1  0
 22 23  1  0
 22 24  2  0
 22 25  2  0
  9  4  1  0
 17 12  1  0
 18  7  1  0
  1 26  1  0
  1 27  1  0
  1 28  1  0
  2 29  1  0
  2 30  1  0
  3 31  1  0
  5 32  1  0
  6 33  1  0
  9 34  1  0
 10 35  1  0
 10 36  1  0
 11 37  1  0
 11 38  1  0
 13 39  1  0
 14 40  1  0
 15 41  1  0
 16 42  1  0
 19 43  1  0
 19 44  1  0
 20 45  1  0
 20 46  1  0
 23 47  1  0
 23 48  1  0
 23 49  1  0
M  END
>  <smiles>  (7) 
CCNc1ccc2c(c1)CCc1ccccc1N2CCOS(C)(=O)=O

>  <score_type>  (7) 
oracle

>  <origin>  (7) 
adg

>  <m_score__min__energy>  (7) 
-6.0800000000000001

>  <m_primary>  (7) 
energy

$$$$
7:0
     RDKit          3D

 55 57  0  0  0  0  0  0  0  0999 V2000
   61.7100   30.3720   50.4360 C   0  0  0  0  0  0  0  0  0  0  0  0
   61.2910   30.2280   49.0970 O   0  0  0  0  0  0  0  0  0  0  0  0
   60.6910   31.2730   48.4120 C   0  0  0  0  0  0  0  0  0  0  0  0
   59.3860   31.6090   48.7260 C   0  0  0  0  0  0  0  0  0  0  0  0
   58.7450   32.6390   48.0750 C   0  0  0  0  0  0  0  0  0  0  0  0
   59.4470   33.3250   47.1010 C   0  0  0  0  0  0  0  0  0  0  0  0
   58.7460   34.4540   46.3880 C   0  0  0  0  0  0  0  0  0  0  0  0
   57.7780   33.8330   45.5330 N   0  0  0  0  0  0  0  0  0  0  0  0
   58.2780   33.4090   44.2520 C   0  0  0  0  0  0  0  0  0  0  0  0
   58.5000   31.9100   44.2700 C   0  0  0  0  0  0  0  0  0  0  0  0
   57.3540   31.2420   44.9090 N   0  0  0  0  0  0  0  0  0  0  0  0
   57.7670   30.1900   45.7960 C   0  0  0  0  0  0  0  0  0  0  0  0
   57.5310   28.8380   45.1370 C   0  0  0  0  0  0  0  0  0  0  0  0
   56.1580   28.6420   45.0150 O   0  0  0  0  0  0  0  0  0  0  0  0
   55.5220   29.7000   44.4130 C   0  0  0  0  0  0  0  0  0  0  0  0
   56.4850   30.7580   43.8810 C   0  0  0  0  0  0  0  0  0  0  0  0
   60.7380   32.9780   46.8040 C   0  0  0  0  0  0  0  0  0  0  0  0
   61.3910   31.9670   47.4300 C   0  0  0  0  0  0  0  0  0  0  0  0
   62.7690   31.5130   47.1600 C   0  0  0  0  0  0  0  0  0  0  0  0
   63.8110   32.2670   47.7660 N   0  0  0  0  0  0  0  0  0  0  0  0
   63.8120   32.9380   48.9940 C   0  0  0  0  0  0  0  0  0  0  0  0
   62.9700   33.9550   49.3590 C   0  0  0  0  0  0  0  0  0  0  0  0
   63.0180   34.5990   50.5810 C   0  0  0  0  0  0  0  0  0  0  0  0
   63.9580   34.2220   51.5130 C   0  0  0  0  0  0  0  0  0  0  0  0
   64.8240   33.2040   51.1880 C   0  0  0  0  0  0  0  0  0  0  0  0
   64.7610   32.5750   49.9680 C   0  0  0  0  0  0  0  0  0  0  0  0
   65.6580   31.5840   49.7400 F   0  0  0  0  0  0  0  0  0  0  0  0
   60.8878   30.0894   51.1099 H   0  0  0  0  0  0  0  0  0  0  0  0
   62.5764   29.7201   50.6212 H   0  0  0  0  0  0  0  0  0  0  0  0
   61.9926   31.4188   50.6212 H   0  0  0  0  0  0  0  0  0  0  0  0
   58.8534   31.0456   49.5063 H   0  0  0  0  0  0  0  0  0  0  0  0
   57.7073   32.9077   48.3219 H   0  0  0  0  0  0  0  0  0  0  0  0
   58.2488   35.1152   47.1131 H   0  0  0  0  0  0  0  0  0  0  0  0
   59.4529   35.0737   45.8169 H   0  0  0  0  0  0  0  0  0  0  0  0
   57.3660   33.0150   46.0330 H   0  0  0  0  0  0  0  0  0  0  0  0
   57.5467   33.6624   43.4703 H   0  0  0  0  0  0  0  0  0  0  0  0
   59.2296   33.9191   44.0416 H   0  0  0  0  0  0  0  0  0  0  0  0
   58.6064   31.5445   43.2380 H   0  0  0  0  0  0  0  0  0  0  0  0
   59.4140   31.6858   44.8396 H   0  0  0  0  0  0  0  0  0  0  0  0
   58.8371   30.3034   46.0239 H   0  0  0  0  0  0  0  0  0  0  0  0
   57.1821   30.2481   46.7258 H   0  0  0  0  0  0  0  0  0  0  0  0
   57.9982   28.8235   44.1413 H   0  0  0  0  0  0  0  0  0  0  0  0
   57.9741   28.0375   45.7476 H   0  0  0  0  0  0  0  0  0  0  0  0
   54.9251   29.3165   43.5724 H   0  0  0  0  0  0  0  0  0  0  0  0
   54.8965   30.1831   45.1781 H   0  0  0  0  0  0  0  0  0  0  0  0
   57.0931   30.3160   43.0780 H   0  0  0  0  0  0  0  0  0  0  0  0
   55.8926   31.6046   43.5037 H   0  0  0  0  0  0  0  0  0  0  0  0
   61.2686   33.5436   46.0239 H   0  0  0  0  0  0  0  0  0  0  0  0
   62.8557   30.4756   47.5154 H   0  0  0  0  0  0  0  0  0  0  0  0
   62.9109   31.6352   46.0761 H   0  0  0  0  0  0  0  0  0  0  0  0
   64.7230   32.3260   47.1990 H   0  0  0  0  0  0  0  0  0  0  0  0
   62.2084   34.2793   48.6346 H   0  0  0  0  0  0  0  0  0  0  0  0
   62.3086   35.4086   50.8075 H   0  0  0  0  0  0  0  0  0  0  0  0
   64.0152   34.7214   52.4914 H   0  0  0  0  0  0  0  0  0  0  0  0
   65.5821   32.8871   51.9193 H   0  0  0  0  0  0  0  0  0  0  0  0
  1  2  1  0
  2  3  1  0
  3  4  2  0
  4  5  1  0
  5  6  2  0
  6  7  1  0
  7  8  1  0
  8  9  1  0
  9 10  1  0
 10 11  1  0
 11 12  1  0
 12 13  1  0
 13 14  1  0
 14 15  1  0
 15 16  1  0
  6 17  1  0
 17 18  2  0
 18 19  1  0
 19 20  1  0
 20 21  1  0
 21 22  2  0
 22 23  1  0
 23 24  2  0
 24 25  1  0
 25 26  2  0
 26 27  1  0
 18  3  1  0
 26 21  1  0
 16 11  1  0
  1 28  1  0
  1 29  1  0
  1 30  1  0
  4 31  1  0
  5 32  1  0
  7 33  1  0
  7 34  1  0
  8 35  1  0
  9 36  1  0
  9 37  1  0
 10 38  1  0
 10 39  1  0
 12 40  1  0
 12 41  1  0
 13 42  1  0
 13 43  1  0
 15 44  1  0
 15 45  1  0
 16 46  1  0
 16 47  1  0
 17 48  1  0
 19 49  1  0
 19 50  1  0
 20 51  1  0
 22 52  1  0
 23 53  1  0
 24 54  1  0
 25 55  1  0
M  END
>  <smiles>  (8) 
COc1ccc(CNCCN2CCOCC2)cc1CNc1ccccc1F

>  <score_type>  (8) 
oracle

>  <origin>  (8) 
adg

>  <m_score__min__energy>  (8) 
-7.4699999999999998

>  <m_primary>  (8) 
energy

$$$$
8:0
     RDKit          3D

 43 45  0  0  0  0  0  0  0  0999 V2000
   57.3700   31.3600   42.8580 C   0  0  0  0  0  0  0  0  0  0  0  0
   56.6790   30.0200   42.9510 C   0  0  0  0  0  0  0  0  0  0  0  0
   55.5170   30.0640   43.9500 C   0  0  0  0  0  0  0  0  0  0  0  0
   55.8490   29.2930   45.1040 N   0  0  0  0  0  0  0  0  0  0  0  0
   57.0990   28.5730   45.0120 C   0  0  0  0  0  0  0  0  0  0  0  0
   58.1620   29.1030   45.9000 C   0  0  0  0  0  0  0  0  0  0  0  0
   58.0010   30.4820   46.3110 N   0  0  0  0  0  0  0  0  0  0  0  0
   58.9980   31.2950   46.8580 C   0  0  0  0  0  0  0  0  0  0  0  0
   59.1820   32.6160   46.4440 C   0  0  0  0  0  0  0  0  0  0  0  0
   58.3690   33.2000   45.4990 C   0  0  0  0  0  0  0  0  0  0  0  0
   58.5510   34.5170   45.0850 C   0  0  0  0  0  0  0  0  0  0  0  0
   59.5600   35.2940   45.6090 C   0  0  0  0  0  0  0  0  0  0  0  0
   60.3750   34.7150   46.5560 C   0  0  0  0  0  0  0  0  0  0  0  0
   60.1950   33.4060   46.9670 C   0  0  0  0  0  0  0  0  0  0  0  0
   61.0500   32.9490   47.8940 N   0  0  0  0  0  0  0  0  0  0  0  0
   62.0930   33.7740   48.4270 C   0  0  0  0  0  0  0  0  0  0  0  0
   60.9030   31.6840   48.3160 C   0  0  0  0  0  0  0  0  0  0  0  0
   61.6410   30.9730   49.2480 C   0  0  0  0  0  0  0  0  0  0  0  0
   61.0530   29.7260   49.2830 C   0  0  0  0  0  0  0  0  0  0  0  0
   60.0560   29.7170   48.4380 O   0  0  0  0  0  0  0  0  0  0  0  0
   59.8960   30.8510   47.8170 C   0  0  0  0  0  0  0  0  0  0  0  0
   57.5670   31.7420   43.8706 H   0  0  0  0  0  0  0  0  0  0  0  0
   58.3214   31.2453   42.3179 H   0  0  0  0  0  0  0  0  0  0  0  0
   56.7248   32.0685   42.3179 H   0  0  0  0  0  0  0  0  0  0  0  0
   56.2893   29.7476   41.9591 H   0  0  0  0  0  0  0  0  0  0  0  0
   57.4094   29.2746   43.2987 H   0  0  0  0  0  0  0  0  0  0  0  0
   55.3292   31.1062   44.2475 H   0  0  0  0  0  0  0  0  0  0  0  0
   54.6143   29.6473   43.4793 H   0  0  0  0  0  0  0  0  0  0  0  0
   55.6480   29.7060   46.0180 H   0  0  0  0  0  0  0  0  0  0  0  0
   56.9146   27.5224   45.2807 H   0  0  0  0  0  0  0  0  0  0  0  0
   57.4587   28.6866   43.9787 H   0  0  0  0  0  0  0  0  0  0  0  0
   58.1882   28.4802   46.8063 H   0  0  0  0  0  0  0  0  0  0  0  0
   59.0910   29.0697   45.3120 H   0  0  0  0  0  0  0  0  0  0  0  0
   57.0240   30.8650   46.1610 H   0  0  0  0  0  0  0  0  0  0  0  0
   57.5523   32.6094   45.0583 H   0  0  0  0  0  0  0  0  0  0  0  0
   57.8777   34.9437   44.3269 H   0  0  0  0  0  0  0  0  0  0  0  0
   59.7088   36.3344   45.2844 H   0  0  0  0  0  0  0  0  0  0  0  0
   61.1898   35.3081   46.9969 H   0  0  0  0  0  0  0  0  0  0  0  0
   62.0573   33.7458   49.5261 H   0  0  0  0  0  0  0  0  0  0  0  0
   63.0684   33.4004   48.0821 H   0  0  0  0  0  0  0  0  0  0  0  0
   61.9541   34.8092   48.0821 H   0  0  0  0  0  0  0  0  0  0  0  0
   62.5048   31.3250   49.8311 H   0  0  0  0  0  0  0  0  0  0  0  0
   61.3692   28.8827   49.9145 H   0  0  0  0  0  0  0  0  0  0  0  0
  1  2  1  0
  2  3  1  0
  3  4  1  0
  4  5  1  0
  5  6  1  0
  6  7  1  0
  7  8  1  0
  8  9  2  0
  9 10  1  0
 10 11  2  0
 11 12  1  0
 12 13  2  0
 13 14  1  0
 14 15  2  0
 15 16  1  0
 15 17  1  0
 17 18  1  0
 18 19  2  0
 19 20  1  0
 20 21  1  0
 21  8  1  0
 14  9  1  0
 21 17  2  0
  1 22  1  0
  1 23  1  0
  1 24  1  0
  2 25  1  0
  2 26  1  0
  3 27  1  0
  3 28  1  0
  4 29  1  0
  5 30  1  0
  5 31  1  0
  6 32  1  0
  6 33  1  0
  7 34  1  0
 10 35  1  0
 11 36  1  0
 12 37  1  0
 13 38  1  0
 16 39  1  0
 16 40  1  0
 16 41  1  0
 18 42  1  0
 19 43  1  0
M  CHG  1  15   1
M  END
>  <smiles>  (9) 
CCCNCCNc1c2ccccc2[n+](C)c2ccoc12

>  <score_type>  (9) 
oracle

>  <origin>  (9) 
adg

>  <m_score__min__energy>  (9) 
-5.5199999999999996

>  <m_primary>  (9) 
energy

$$$$
9:0
     RDKit          3D

 54 56  0  0  1  0  0  0  0  0999 V2000
   60.0140   30.5190   50.0880 C   0  0  0  0  0  0  0  0  0  0  0  0
   58.5890   31.0020   49.9270 C   0  0  0  0  0  0  0  0  0  0  0  0
   58.1970   31.9540   50.9330 N   0  0  0  0  0  0  0  0  0  0  0  0
   56.9670   31.5710   51.6820 C   0  0  0  0  0  0  0  0  0  0  0  0
   57.2280   30.2570   52.3770 C   0  0  0  0  0  0  0  0  0  0  0  0
   58.7970   33.1540   51.2940 C   0  0  0  0  0  0  0  0  0  0  0  0
   58.1850   33.8160   52.2400 O   0  0  0  0  0  0  0  0  0  0  0  0
   59.9990   33.8340   50.8170 C   0  0  0  0  0  0  0  0  0  0  0  0
   60.3200   33.8390   49.4340 N   0  0  0  0  0  0  0  0  0  0  0  0
   59.4180   34.0200   48.4190 C   0  0  0  0  0  0  0  0  0  0  0  0
   60.0880   33.9160   47.1990 C   0  0  0  0  0  0  0  0  0  0  0  0
   59.4050   34.0780   45.9330 C   0  0  0  0  0  0  0  0  0  0  0  0
   58.2960   33.5020   45.5660 C   0  0  0  0  0  0  0  0  0  0  0  0
   57.1660   34.3120   45.1660 C   0  0  0  0  0  0  0  0  0  0  0  0
   56.2830   34.9630   44.8640 N   0  0  0  0  0  0  0  0  0  0  0  0
   58.1380   32.0300   45.5430 C   0  0  0  0  0  0  0  0  0  0  0  0
   57.0060   31.5540   45.2370 O   0  0  0  0  0  0  0  0  0  0  0  0
   59.2520   31.2070   45.8590 N   0  0  0  0  0  0  0  0  0  0  0  0
   59.2180   29.7900   45.8680 C   0  0  0  0  0  0  0  0  0  0  0  0
   59.4810   29.0710   47.0390 C   0  0  0  0  0  0  0  0  0  0  0  0
   59.4150   27.6910   46.9450 C   0  0  0  0  0  0  0  0  0  0  0  0
   59.1120   27.0410   45.7850 C   0  0  0  0  0  0  0  0  0  0  0  0
   58.8540   27.7810   44.6370 C   0  0  0  0  0  0  0  0  0  0  0  0
   58.9090   29.1600   44.6790 C   0  0  0  0  0  0  0  0  0  0  0  0
   61.4060   33.6710   47.4960 C   0  0  0  0  0  0  0  0  0  0  0  0
   62.5010   33.4920   46.6860 C   0  0  0  0  0  0  0  0  0  0  0  0
   63.7730   33.2550   47.2180 C   0  0  0  0  0  0  0  0  0  0  0  0
   63.9140   33.2050   48.5880 C   0  0  0  0  0  0  0  0  0  0  0  0
   62.7950   33.3900   49.3680 C   0  0  0  0  0  0  0  0  0  0  0  0
   61.5360   33.6240   48.8690 C   0  0  0  0  0  0  0  0  0  0  0  0
   60.2548   30.4374   51.1582 H   0  0  0  0  0  0  0  0  0  0  0  0
   60.1232   29.5336   49.6114 H   0  0  0  0  0  0  0  0  0  0  0  0
   60.6999   31.2349   49.6114 H   0  0  0  0  0  0  0  0  0  0  0  0
   58.4898   31.4759   48.9393 H   0  0  0  0  0  0  0  0  0  0  0  0
   57.9325   30.1257   50.0320 H   0  0  0  0  0  0  0  0  0  0  0  0
   56.7281   32.3449   52.4263 H   0  0  0  0  0  0  0  0  0  0  0  0
   56.1165   31.4731   50.9912 H   0  0  0  0  0  0  0  0  0  0  0  0
   57.1984   30.4062   53.4664 H   0  0  0  0  0  0  0  0  0  0  0  0
   56.4570   29.5286   52.0856 H   0  0  0  0  0  0  0  0  0  0  0  0
   58.2189   29.8785   52.0856 H   0  0  0  0  0  0  0  0  0  0  0  0
   59.9093   34.8864   51.1241 H   0  0  0  0  0  0  0  0  0  0  0  0
   60.8127   33.2402   51.2590 H   0  0  0  0  0  0  0  0  0  0  0  0
   58.3428   34.2152   48.5447 H   0  0  0  0  0  0  0  0  0  0  0  0
   59.8712   34.7584   45.2052 H   0  0  0  0  0  0  0  0  0  0  0  0
   60.1740   31.6680   46.1070 H   0  0  0  0  0  0  0  0  0  0  0  0
   59.7273   29.5755   47.9849 H   0  0  0  0  0  0  0  0  0  0  0  0
   59.6159   27.0926   47.8459 H   0  0  0  0  0  0  0  0  0  0  0  0
   59.0722   25.9420   45.7581 H   0  0  0  0  0  0  0  0  0  0  0  0
   58.6062   27.2684   43.6958 H   0  0  0  0  0  0  0  0  0  0  0  0
   58.7085   29.7513   43.7734 H   0  0  0  0  0  0  0  0  0  0  0  0
   62.3748   33.5360   45.5942 H   0  0  0  0  0  0  0  0  0  0  0  0
   64.6410   33.1118   46.5577 H   0  0  0  0  0  0  0  0  0  0  0  0
   64.8967   33.0217   49.0470 H   0  0  0  0  0  0  0  0  0  0  0  0
   62.9162   33.3479   50.4605 H   0  0  0  0  0  0  0  0  0  0  0  0
  1  2  1  0
  2  3  1  0
  3  4  1  0
  4  5  1  0
  3  6  1  0
  6  7  2  0
  6  8  1  0
  8  9  1  0
  9 10  1  0
 10 11  2  0
 11 12  1  0
 12 13  2  0
 13 14  1  0
 14 15  3  0
 13 16  1  0
 16 17  2  0
 16 18  1  0
 18 19  1  0
 19 20  2  0
 20 21  1  0
 21 22  2  0
 22 23  1  0
 23 24  2  0
 11 25  1  0
 25 26  2  0
 26 27  1  0
 27 28  2  0
 28 29  1  0
 29 30  2  0
 30  9  1  0
 24 19  1  0
 30 25  1  0
  1 31  1  0
  1 32  1  0
  1 33  1  0
  2 34  1  0
  2 35  1  0
  4 36  1  0
  4 37  1  0
  5 38  1  0
  5 39  1  0
  5 40  1  0
  8 41  1  0
  8 42  1  0
 10 43  1  0
 12 44  1  0
 18 45  1  0
 20 46  1  0
 21 47  1  0
 22 48  1  0
 23 49  1  0
 24 50  1  0
 26 51  1  0
 27 52  1  0
 28 53  1  0
 29 54  1  0
M  END
>  <smiles>  (10) 
CCN(CC)C(=O)Cn1cc(C=C(C#N)C(=O)Nc2ccccc2)c2ccccc21

>  <score_type>  (10) 
oracle

>  <origin>  (10) 
adg

>  <m_score__min__energy>  (10) 
-8.9800000000000004

>  <m_primary>  (10) 
energy

$$$$
10:0
     RDKit          3D

 60 62  0  0  0  0  0  0  0  0999 V2000
   63.3560   33.8250   46.4070 C   0  0  0  0  0  0  0  0  0  0  0  0
   62.9640   32.5570   47.1260 C   0  0  0  0  0  0  0  0  0  0  0  0
   62.3830   32.8700   48.4270 N   0  0  0  0  0  0  0  0  0  0  0  0
   63.3800   32.6800   49.4730 C   0  0  0  0  0  0  0  0  0  0  0  0
   63.3390   31.2870   50.0140 C   0  0  0  0  0  0  0  0  0  0  0  0
   62.2870   30.5140   49.5770 O   0  0  0  0  0  0  0  0  0  0  0  0
   61.3610   30.2030   50.5610 C   0  0  0  0  0  0  0  0  0  0  0  0
   60.1940   29.4630   49.9380 C   0  0  0  0  0  0  0  0  0  0  0  0
   59.3360   30.4410   49.1650 C   0  0  0  0  0  0  0  0  0  0  0  0
   60.0260   30.8930   47.9790 N   0  0  0  0  0  0  0  0  0  0  0  0
   59.3290   30.9910   46.7570 C   0  0  0  0  0  0  0  0  0  0  0  0
   59.0780   29.8060   46.0730 C   0  0  0  0  0  0  0  0  0  0  0  0
   59.4980   28.6020   46.6360 C   0  0  0  0  0  0  0  0  0  0  0  0
   59.2710   27.3930   46.0150 C   0  0  0  0  0  0  0  0  0  0  0  0
   58.6130   27.4060   44.8130 C   0  0  0  0  0  0  0  0  0  0  0  0
   58.1950   28.6070   44.2570 C   0  0  0  0  0  0  0  0  0  0  0  0
   58.4120   29.8270   44.8600 C   0  0  0  0  0  0  0  0  0  0  0  0
   57.9830   30.9920   44.2960 N   0  0  0  0  0  0  0  0  0  0  0  0
   57.3040   30.9850   43.0080 C   0  0  0  0  0  0  0  0  0  0  0  0
   58.2320   32.1350   44.9730 C   0  0  0  0  0  0  0  0  0  0  0  0
   57.8130   33.3500   44.4720 C   0  0  0  0  0  0  0  0  0  0  0  0
   58.0390   34.5500   45.1460 C   0  0  0  0  0  0  0  0  0  0  0  0
   58.6980   34.5680   46.3530 C   0  0  0  0  0  0  0  0  0  0  0  0
   59.1170   33.3550   46.8570 C   0  0  0  0  0  0  0  0  0  0  0  0
   59.7740   33.3570   48.0650 O   0  0  0  0  0  0  0  0  0  0  0  0
   59.7240   34.3230   49.0620 C   0  0  0  0  0  0  0  0  0  0  0  0
   59.7290   33.6880   50.4180 C   0  0  0  0  0  0  0  0  0  0  0  0
   58.8920   32.1610   46.1860 C   0  0  0  0  0  0  0  0  0  0  0  0
   63.5971   34.6050   47.1442 H   0  0  0  0  0  0  0  0  0  0  0  0
   64.2363   33.6318   45.7764 H   0  0  0  0  0  0  0  0  0  0  0  0
   62.5202   34.1623   45.7764 H   0  0  0  0  0  0  0  0  0  0  0  0
   62.2254   32.0106   46.5210 H   0  0  0  0  0  0  0  0  0  0  0  0
   63.8616   31.9388   47.2750 H   0  0  0  0  0  0  0  0  0  0  0  0
   61.5350   32.2880   48.5950 H   0  0  0  0  0  0  0  0  0  0  0  0
   64.3791   32.8732   49.0554 H   0  0  0  0  0  0  0  0  0  0  0  0
   63.1603   33.3785   50.2939 H   0  0  0  0  0  0  0  0  0  0  0  0
   64.2732   30.7832   49.7250 H   0  0  0  0  0  0  0  0  0  0  0  0
   63.2091   31.3882   51.1016 H   0  0  0  0  0  0  0  0  0  0  0  0
   61.8347   29.5664   51.3228 H   0  0  0  0  0  0  0  0  0  0  0  0
   60.9998   31.1293   51.0317 H   0  0  0  0  0  0  0  0  0  0  0  0
   60.5727   28.6877   49.2558 H   0  0  0  0  0  0  0  0  0  0  0  0
   59.5928   28.9910   50.7290 H   0  0  0  0  0  0  0  0  0  0  0  0
   58.3983   29.9464   48.8717 H   0  0  0  0  0  0  0  0  0  0  0  0
   59.1228   31.3099   49.8050 H   0  0  0  0  0  0  0  0  0  0  0  0
   61.0480   31.1560   47.9940 H   0  0  0  0  0  0  0  0  0  0  0  0
   60.0246   28.6174   47.6016 H   0  0  0  0  0  0  0  0  0  0  0  0
   59.6068   26.4490   46.4690 H   0  0  0  0  0  0  0  0  0  0  0  0
   58.4153   26.4606   44.2866 H   0  0  0  0  0  0  0  0  0  0  0  0
   57.6671   28.5840   43.2922 H   0  0  0  0  0  0  0  0  0  0  0  0
   56.2157   30.9738   43.1673 H   0  0  0  0  0  0  0  0  0  0  0  0
   57.5824   31.8861   42.4418 H   0  0  0  0  0  0  0  0  0  0  0  0
   57.6009   30.0899   42.4418 H   0  0  0  0  0  0  0  0  0  0  0  0
   57.2828   33.3733   43.5085 H   0  0  0  0  0  0  0  0  0  0  0  0
   57.6855   35.4944   44.7064 H   0  0  0  0  0  0  0  0  0  0  0  0
   58.8827   35.5087   46.8925 H   0  0  0  0  0  0  0  0  0  0  0  0
   60.5994   34.9826   48.9694 H   0  0  0  0  0  0  0  0  0  0  0  0
   58.7953   34.9011   48.9467 H   0  0  0  0  0  0  0  0  0  0  0  0
   59.7228   34.4717   51.1899 H   0  0  0  0  0  0  0  0  0  0  0  0
   58.8358   33.0558   50.5301 H   0  0  0  0  0  0  0  0  0  0  0  0
   60.6320   33.0700   50.5301 H   0  0  0  0  0  0  0  0  0  0  0  0
  1  2  1  0
  2  3  1  0
  3  4  1  0
  4  5  1  0
  5  6  1  0
  6  7  1  0
  7  8  1  0
  8  9  1  0
  9 10  1  0
 10 11  1  0
 11 12  2  0
 12 13  1  0
 13 14  2  0
 14 15  1  0
 15 16  2  0
 16 17  1  0
 17 18  2  0
 18 19  1  0
 18 20  1  0
 20 21  2  0
 21 22  1  0
 22 23  2  0
 23 24  1  0
 24 25  1  0
 25 26  1  0
 26 27  1  0
 24 28  2  0
 28 11  1  0
 17 12  1  0
 28 20  1  0
  1 29  1  0
  1 30  1  0
  1 31  1  0
  2 32  1  0
  2 33  1  0
  3 34  1  0
  4 35  1  0
  4 36  1  0
  5 37  1  0
  5 38  1  0
  7 39  1  0
  7 40  1  0
  8 41  1  0
  8 42  1  0
  9 43  1  0
  9 44  1  0
 10 45  1  0
 13 46  1  0
 14 47  1  0
 15 48  1  0
 16 49  1  0
 19 50  1  0
 19 51  1  0
 19 52  1  0
 21 53  1  0
 22 54  1  0
 23 55  1  0
 26 56  1  0
 26 57  1  0
 27 58  1  0
 27 59  1  0
 27 60  1  0
M  CHG  1  18   1
M  END
>  <smiles>  (11) 
CCNCCOCCCNc1c2ccccc2[n+](C)c2cccc(OCC)c12

>  <score_type>  (11) 
oracle

>  <origin>  (11) 
adg

>  <m_score__min__energy>  (11) 
-5.0700000000000003

>  <m_primary>  (11) 
energy

$$$$
11:0
     RDKit          3D

 66 69  0  0  0  0  0  0  0  0999 V2000
   58.0700   32.3020   51.2120 C   0  0  0  0  0  0  0  0  0  0  0  0
   59.5500   31.9240   51.2540 C   0  0  0  0  0  0  0  0  0  0  0  0
   59.8850   31.2000   50.0590 N   0  0  0  0  0  0  0  0  0  0  0  0
   59.2620   29.8740   50.0150 C   0  0  0  0  0  0  0  0  0  0  0  0
   58.8250   29.5430   48.6290 C   0  0  0  0  0  0  0  0  0  0  0  0
   59.5660   30.3750   47.6570 N   0  0  0  0  0  0  0  0  0  0  0  0
   58.8690   30.6020   46.4410 C   0  0  0  0  0  0  0  0  0  0  0  0
   58.6540   29.4630   45.6680 C   0  0  0  0  0  0  0  0  0  0  0  0
   59.0670   28.2210   46.1460 C   0  0  0  0  0  0  0  0  0  0  0  0
   58.9010   27.0510   45.4580 C   0  0  0  0  0  0  0  0  0  0  0  0
   58.2940   27.0970   44.2270 C   0  0  0  0  0  0  0  0  0  0  0  0
   57.8780   28.3290   43.7400 C   0  0  0  0  0  0  0  0  0  0  0  0
   58.0470   29.5030   44.4330 C   0  0  0  0  0  0  0  0  0  0  0  0
   57.6530   30.6880   43.9710 N   0  0  0  0  0  0  0  0  0  0  0  0
   57.0050   30.8330   42.7070 C   0  0  0  0  0  0  0  0  0  0  0  0
   57.8500   31.8080   44.7030 C   0  0  0  0  0  0  0  0  0  0  0  0
   57.4380   33.0060   44.1770 C   0  0  0  0  0  0  0  0  0  0  0  0
   57.6160   34.1850   44.8600 C   0  0  0  0  0  0  0  0  0  0  0  0
   58.2180   34.1260   46.0940 C   0  0  0  0  0  0  0  0  0  0  0  0
   58.6570   32.9530   46.6910 C   0  0  0  0  0  0  0  0  0  0  0  0
   59.2000   33.0070   47.9790 N   0  0  0  0  0  0  0  0  0  0  0  0
   59.2820   34.3350   48.6260 C   0  0  0  0  0  0  0  0  0  0  0  0
   60.6180   34.4950   49.3450 C   0  0  0  0  0  0  0  0  0  0  0  0
   61.7310   33.9360   48.5010 C   0  0  0  0  0  0  0  0  0  0  0  0
   61.7660   32.4850   48.4610 N   0  0  0  0  0  0  0  0  0  0  0  0
   62.2660   32.1390   47.1290 C   0  0  0  0  0  0  0  0  0  0  0  0
   63.7170   32.4800   47.1120 C   0  0  0  0  0  0  0  0  0  0  0  0
   64.1360   32.2070   48.5340 C   0  0  0  0  0  0  0  0  0  0  0  0
   62.8640   32.1010   49.3510 C   0  0  0  0  0  0  0  0  0  0  0  0
   58.4570   31.8010   45.9520 C   0  0  0  0  0  0  0  0  0  0  0  0
   57.6873   32.3998   52.2386 H   0  0  0  0  0  0  0  0  0  0  0  0
   57.9509   33.2594   50.6836 H   0  0  0  0  0  0  0  0  0  0  0  0
   57.5064   31.5190   50.6836 H   0  0  0  0  0  0  0  0  0  0  0  0
   60.1615   32.8363   51.3154 H   0  0  0  0  0  0  0  0  0  0  0  0
   59.7469   31.2957   52.1352 H   0  0  0  0  0  0  0  0  0  0  0  0
   60.9150   31.1490   49.9380 H   0  0  0  0  0  0  0  0  0  0  0  0
   59.9897   29.1217   50.3535 H   0  0  0  0  0  0  0  0  0  0  0  0
   58.3805   29.8754   50.6729 H   0  0  0  0  0  0  0  0  0  0  0  0
   59.0251   28.4804   48.4272 H   0  0  0  0  0  0  0  0  0  0  0  0
   57.7478   29.7430   48.5308 H   0  0  0  0  0  0  0  0  0  0  0  0
   60.5030   30.7790   47.8780 H   0  0  0  0  0  0  0  0  0  0  0  0
   59.5536   28.1794   47.1316 H   0  0  0  0  0  0  0  0  0  0  0  0
   59.2455   26.0956   45.8806 H   0  0  0  0  0  0  0  0  0  0  0  0
   58.1409   26.1792   43.6404 H   0  0  0  0  0  0  0  0  0  0  0  0
   57.3909   28.3666   42.7544 H   0  0  0  0  0  0  0  0  0  0  0  0
   55.9426   31.0707   42.8647 H   0  0  0  0  0  0  0  0  0  0  0  0
   57.4827   31.6465   42.1412 H   0  0  0  0  0  0  0  0  0  0  0  0
   57.0904   29.8935   42.1412 H   0  0  0  0  0  0  0  0  0  0  0  0
   56.9555   33.0232   43.1886 H   0  0  0  0  0  0  0  0  0  0  0  0
   57.2876   35.1442   44.4332 H   0  0  0  0  0  0  0  0  0  0  0  0
   58.3608   35.0684   46.6432 H   0  0  0  0  0  0  0  0  0  0  0  0
   59.5430   32.2700   48.5970 H   0  0  0  0  0  0  0  0  0  0  0  0
   59.1870   35.1181   47.8594 H   0  0  0  0  0  0  0  0  0  0  0  0
   58.4684   34.4246   49.3609 H   0  0  0  0  0  0  0  0  0  0  0  0
   60.8046   35.5628   49.5321 H   0  0  0  0  0  0  0  0  0  0  0  0
   60.5807   33.9482   50.2988 H   0  0  0  0  0  0  0  0  0  0  0  0
   61.6070   34.3081   47.4733 H   0  0  0  0  0  0  0  0  0  0  0  0
   62.6755   34.2661   48.9580 H   0  0  0  0  0  0  0  0  0  0  0  0
   62.1273   31.0643   46.9397 H   0  0  0  0  0  0  0  0  0  0  0  0
   61.7218   32.6898   46.3476 H   0  0  0  0  0  0  0  0  0  0  0  0
   64.2670   31.8401   46.4062 H   0  0  0  0  0  0  0  0  0  0  0  0
   63.9202   33.5109   46.7864 H   0  0  0  0  0  0  0  0  0  0  0  0
   64.7009   31.2647   48.5883 H   0  0  0  0  0  0  0  0  0  0  0  0
   64.7853   33.0087   48.9156 H   0  0  0  0  0  0  0  0  0  0  0  0
   62.7239   31.0687   49.7041 H   0  0  0  0  0  0  0  0  0  0  0  0
   62.9045   32.7516   50.2370 H   0  0  0  0  0  0  0  0  0  0  0  0
  1  2  1  0
  2  3  1  0
  3  4  1  0
  4  5  1  0
  5  6  1  0
  6  7  1  0
  7  8  2  0
  8  9  1  0
  9 10  2  0
 10 11  1  0
 11 12  2  0
 12 13  1  0
 13 14  2  0
 14 15  1  0
 14 16  1  0
 16 17  2  0
 17 18  1  0
 18 19  2  0
 19 20  1  0
 20 21  1  0
 21 22  1  0
 22 23  1  0
 23 24  1  0
 24 25  1  0
 25 26  1  0
 26 27  1  0
 27 28  1  0
 28 29  1  0
 20 30  2  0
 30  7  1  0
 13  8  1  0
 30 16  1  0
 29 25  1  0
  1 31  1  0
  1 32  1  0
  1 33  1  0
  2 34  1  0
  2 35  1  0
  3 36  1  0
  4 37  1  0
  4 38  1  0
  5 39  1  0
  5 40  1  0
  6 41  1  0
  9 42  1  0
 10 43  1  0
 11 44  1  0
 12 45  1  0
 15 46  1  0
 15 47  1  0
 15 48  1  0
 17 49  1  0
 18 50  1  0
 19 51  1  0
 21 52  1  0
 22 53  1  0
 22 54  1  0
 23 55  1  0
 23 56  1  0
 24 57  1  0
 24 58  1  0
 26 59  1  0
 26 60  1  0
 27 61  1  0
 27 62  1  0
 28 63  1  0
 28 64  1  0
 29 65  1  0
 29 66  1  0
M  CHG  1  14   1
M  END
>  <smiles>  (12) 
CCNCCNc1c2ccccc2[n+](C)c2cccc(NCCCN3CCCC3)c12

>  <score_type>  (12) 
oracle

>  <origin>  (12) 
adg

>  <m_score__min__energy>  (12) 
-5.5700000000000003

>  <m_primary>  (12) 
energy

$$$$
12:0
     RDKit          3D

 58 61  0  0  0  0  0  0  0  0999 V2000
   57.3570   34.2290   44.8920 C   0  0  0  0  0  0  0  0  0  0  0  0
   57.7710   32.8050   44.8650 C   0  0  0  0  0  0  0  0  0  0  0  0
   57.4740   32.0320   43.7550 C   0  0  0  0  0  0  0  0  0  0  0  0
   57.8620   30.7070   43.7340 C   0  0  0  0  0  0  0  0  0  0  0  0
   58.5290   30.2290   44.8310 C   0  0  0  0  0  0  0  0  0  0  0  0
   58.9160   28.9070   44.8160 C   0  0  0  0  0  0  0  0  0  0  0  0
   59.5920   28.4020   45.9180 C   0  0  0  0  0  0  0  0  0  0  0  0
   59.9740   26.9500   45.8360 C   0  0  0  0  0  0  0  0  0  0  0  0
   59.4600   26.3460   47.0380 N   0  0  0  0  0  0  0  0  0  0  0  0
   58.5070   25.3010   46.8290 C   0  0  0  0  0  0  0  0  0  0  0  0
   57.4550   25.1560   47.8670 C   0  0  0  0  0  0  0  0  0  0  0  0
   56.3450   24.2980   47.2370 C   0  0  0  0  0  0  0  0  0  0  0  0
   55.6050   25.1730   46.3490 N   0  0  0  0  0  0  0  0  0  0  0  0
   54.5960   24.5030   45.5750 C   0  0  0  0  0  0  0  0  0  0  0  0
   54.7400   23.0250   45.7350 C   0  0  0  0  0  0  0  0  0  0  0  0
   55.7790   22.4510   44.8630 N   0  0  0  0  0  0  0  0  0  0  0  0
   55.7270   22.5730   43.5470 N   0  0  0  0  0  0  0  0  0  0  0  0
   56.6160   22.0900   42.6830 C   0  0  0  0  0  0  0  0  0  0  0  0
   57.7110   21.3940   43.1700 C   0  0  0  0  0  0  0  0  0  0  0  0
   57.7900   21.2520   44.5480 C   0  0  0  0  0  0  0  0  0  0  0  0
   56.8240   21.7800   45.3930 C   0  0  0  0  0  0  0  0  0  0  0  0
   56.9140   21.6390   46.6520 O   0  0  0  0  0  0  0  0  0  0  0  0
   56.4850   25.9860   45.5350 C   0  0  0  0  0  0  0  0  0  0  0  0
   57.8790   25.4080   45.4530 C   0  0  0  0  0  0  0  0  0  0  0  0
   59.8840   29.1760   47.0190 C   0  0  0  0  0  0  0  0  0  0  0  0
   60.4940   28.6920   47.9990 O   0  0  0  0  0  0  0  0  0  0  0  0
   59.4900   30.4730   47.0050 N   0  0  0  0  0  0  0  0  0  0  0  0
   59.7520   31.3600   48.1080 C   0  0  0  0  0  0  0  0  0  0  0  0
   58.8260   31.0010   45.9400 C   0  0  0  0  0  0  0  0  0  0  0  0
   58.4320   32.3060   45.9360 N   0  0  0  0  0  0  0  0  0  0  0  0
   57.2599   34.5629   45.9356 H   0  0  0  0  0  0  0  0  0  0  0  0
   58.1145   34.8408   44.3802 H   0  0  0  0  0  0  0  0  0  0  0  0
   56.3896   34.3394   44.3802 H   0  0  0  0  0  0  0  0  0  0  0  0
   56.9357   32.4682   42.9006 H   0  0  0  0  0  0  0  0  0  0  0  0
   57.6442   30.0609   42.8708 H   0  0  0  0  0  0  0  0  0  0  0  0
   58.6942   28.2660   43.9500 H   0  0  0  0  0  0  0  0  0  0  0  0
   59.5220   26.4836   44.9483 H   0  0  0  0  0  0  0  0  0  0  0  0
   61.0628   26.8198   45.7485 H   0  0  0  0  0  0  0  0  0  0  0  0
   59.0480   27.1520   47.5930 H   0  0  0  0  0  0  0  0  0  0  0  0
   59.1034   24.3803   46.9105 H   0  0  0  0  0  0  0  0  0  0  0  0
   57.8643   24.6561   48.7573 H   0  0  0  0  0  0  0  0  0  0  0  0
   57.0708   26.1356   48.1875 H   0  0  0  0  0  0  0  0  0  0  0  0
   56.7844   23.4640   46.6701 H   0  0  0  0  0  0  0  0  0  0  0  0
   55.6898   23.8654   48.0075 H   0  0  0  0  0  0  0  0  0  0  0  0
   53.6003   24.8136   45.9245 H   0  0  0  0  0  0  0  0  0  0  0  0
   54.7136   24.7685   44.5140 H   0  0  0  0  0  0  0  0  0  0  0  0
   55.0020   22.8094   46.7814 H   0  0  0  0  0  0  0  0  0  0  0  0
   53.7811   22.5678   45.4497 H   0  0  0  0  0  0  0  0  0  0  0  0
   56.4842   22.2404   41.6013 H   0  0  0  0  0  0  0  0  0  0  0  0
   58.4768   20.9764   42.4998 H   0  0  0  0  0  0  0  0  0  0  0  0
   58.6408   20.7065   44.9822 H   0  0  0  0  0  0  0  0  0  0  0  0
   56.0681   26.0521   44.5192 H   0  0  0  0  0  0  0  0  0  0  0  0
   56.5571   26.9792   46.0023 H   0  0  0  0  0  0  0  0  0  0  0  0
   57.8265   24.4056   45.0031 H   0  0  0  0  0  0  0  0  0  0  0  0
   58.4987   26.0761   44.8369 H   0  0  0  0  0  0  0  0  0  0  0  0
   59.5936   30.8238   49.0553 H   0  0  0  0  0  0  0  0  0  0  0  0
   60.7927   31.7126   48.0558 H   0  0  0  0  0  0  0  0  0  0  0  0
   59.0699   32.2214   48.0558 H   0  0  0  0  0  0  0  0  0  0  0  0
  1  2  1  0
  2  3  2  0
  3  4  1  0
  4  5  2  0
  5  6  1  0
  6  7  2  0
  7  8  1  0
  8  9  1  0
  9 10  1  0
 10 11  1  0
 11 12  1  0
 12 13  1  0
 13 14  1  0
 14 15  1  0
 15 16  1  0
 16 17  1  0
 17 18  2  0
 18 19  1  0
 19 20  2  0
 20 21  1  0
 21 22  2  0
 13 23  1  0
 23 24  1  0
  7 25  1  0
 25 26  2  0
 25 27  1  0
 27 28  1  0
 27 29  1  0
 29 30  2  0
 30  2  1  0
 29  5  1  0
 24 10  1  0
 21 16  1  0
  1 31  1  0
  1 32  1  0
  1 33  1  0
  3 34  1  0
  4 35  1  0
  6 36  1  0
  8 37  1  0
  8 38  1  0
  9 39  1  0
 10 40  1  0
 11 41  1  0
 11 42  1  0
 12 43  1  0
 12 44  1  0
 14 45  1  0
 14 46  1  0
 15 47  1  0
 15 48  1  0
 18 49  1  0
 19 50  1  0
 20 51  1  0
 23 52  1  0
 23 53  1  0
 24 54  1  0
 24 55  1  0
 28 56  1  0
 28 57  1  0
 28 58  1  0
M  END
>  <smiles>  (13) 
Cc1ccc2cc(CNC3CCN(CCn4ncccc4=O)CC3)c(=O)n(C)c2n1

>  <score_type>  (13) 
oracle

>  <origin>  (13) 
adg

>  <m_score__min__energy>  (13) 
-9.5999999999999996

>  <m_primary>  (13) 
energy

$$$$
13:0
     RDKit          3D

 40 41  0  0  0  0  0  0  0  0999 V2000
   58.0260   33.0150   44.1880 C   0  0  0  0  0  0  0  0  0  0  0  0
   57.7720   31.6440   43.6220 C   0  0  0  0  0  0  0  0  0  0  0  0
   57.0460   30.8960   44.5640 O   0  0  0  0  0  0  0  0  0  0  0  0
   57.4160   29.6230   44.9310 C   0  0  0  0  0  0  0  0  0  0  0  0
   58.7880   29.3480   44.9260 C   0  0  0  0  0  0  0  0  0  0  0  0
   59.2810   28.1050   45.2750 C   0  0  0  0  0  0  0  0  0  0  0  0
   58.3850   27.1350   45.6290 C   0  0  0  0  0  0  0  0  0  0  0  0
   57.0260   27.3650   45.6460 C   0  0  0  0  0  0  0  0  0  0  0  0
   56.5660   28.6160   45.2920 C   0  0  0  0  0  0  0  0  0  0  0  0
   56.1620   26.3940   46.0000 N   0  0  0  0  0  0  0  0  0  0  0  0
   54.8270   26.7000   45.9890 O   0  0  0  0  0  0  0  0  0  0  0  0
   56.5910   25.1500   46.3560 C   0  0  0  0  0  0  0  0  0  0  0  0
   55.6630   24.1470   46.7300 N   0  0  0  0  0  0  0  0  0  0  0  0
   55.8970   22.7270   46.5840 C   0  0  0  0  0  0  0  0  0  0  0  0
   55.6790   22.3440   45.1550 C   0  0  0  0  0  0  0  0  0  0  0  0
   56.7890   22.6810   44.2950 N   0  0  0  0  0  0  0  0  0  0  0  0
   57.3740   21.5860   43.5950 C   0  0  0  0  0  0  0  0  0  0  0  0
   56.3110   23.6530   43.3300 C   0  0  0  0  0  0  0  0  0  0  0  0
   57.9220   24.9680   46.3250 N   0  0  0  0  0  0  0  0  0  0  0  0
   58.7960   25.8980   45.9820 N   0  0  0  0  0  0  0  0  0  0  0  0
   60.1290   25.5870   45.9950 O   0  0  0  0  0  0  0  0  0  0  0  0
   58.0168   32.9655   45.2868 H   0  0  0  0  0  0  0  0  0  0  0  0
   59.0065   33.3772   43.8454 H   0  0  0  0  0  0  0  0  0  0  0  0
   57.2403   33.7044   43.8454 H   0  0  0  0  0  0  0  0  0  0  0  0
   57.1926   31.7293   42.6909 H   0  0  0  0  0  0  0  0  0  0  0  0
   58.7278   31.1455   43.4033 H   0  0  0  0  0  0  0  0  0  0  0  0
   59.4924   30.1418   44.6368 H   0  0  0  0  0  0  0  0  0  0  0  0
   60.3621   27.9021   45.2682 H   0  0  0  0  0  0  0  0  0  0  0  0
   55.4831   28.8088   45.3005 H   0  0  0  0  0  0  0  0  0  0  0  0
   54.7510   24.4480   47.1370 H   0  0  0  0  0  0  0  0  0  0  0  0
   56.9311   22.4914   46.8757 H   0  0  0  0  0  0  0  0  0  0  0  0
   55.2043   22.1671   47.2295 H   0  0  0  0  0  0  0  0  0  0  0  0
   55.5176   21.2570   45.1061 H   0  0  0  0  0  0  0  0  0  0  0  0
   54.8069   22.9105   44.7965 H   0  0  0  0  0  0  0  0  0  0  0  0
   57.7645   20.8550   44.3183 H   0  0  0  0  0  0  0  0  0  0  0  0
   56.6123   21.1057   42.9632 H   0  0  0  0  0  0  0  0  0  0  0  0
   58.1967   21.9521   42.9632 H   0  0  0  0  0  0  0  0  0  0  0  0
   55.8857   24.5177   43.8605 H   0  0  0  0  0  0  0  0  0  0  0  0
   57.1484   23.9855   42.6989 H   0  0  0  0  0  0  0  0  0  0  0  0
   55.5364   23.1928   42.6989 H   0  0  0  0  0  0  0  0  0  0  0  0
  1  2  1  0
  2  3  1  0
  3  4  1  0
  4  5  2  0
  5  6  1  0
  6  7  2  0
  7  8  1  0
  8  9  2  0
  8 10  1  0
 10 11  1  0
 10 12  2  0
 12 13  1  0
 13 14  1  0
 14 15  1  0
 15 16  1  0
 16 17  1  0
 16 18  1  0
 12 19  1  0
 19 20  2  0
 20 21  1  0
  9  4  1  0
 20  7  1  0
  1 22  1  0
  1 23  1  0
  1 24  1  0
  2 25  1  0
  2 26  1  0
  5 27  1  0
  6 28  1  0
  9 29  1  0
 13 30  1  0
 14 31  1  0
 14 32  1  0
 15 33  1  0
 15 34  1  0
 17 35  1  0
 17 36  1  0
 17 37  1  0
 18 38  1  0
 18 39  1  0
 18 40  1  0
M  CHG  4  10   1  11  -1  20   1  21  -1
M  END
>  <smiles>  (14) 
CCOc1ccc2c(c1)[n+]([O-])c(NCCN(C)C)n[n+]2[O-]

>  <score_type>  (14) 
oracle

>  <origin>  (14) 
adg

>  <m_score__min__energy>  (14) 
-7.5

>  <m_primary>  (14) 
energy

$$$$
14:0
     RDKit          3D

 61 63  0  0  0  0  0  0  0  0999 V2000
   59.6410   33.8550   50.5310 C   0  0  0  0  0  0  0  0  0  0  0  0
   59.9070   34.4800   49.1840 C   0  0  0  0  0  0  0  0  0  0  0  0
   60.2130   33.3910   48.2150 N   0  0  0  0  0  0  0  0  0  0  0  0
   59.4850   33.3060   47.0210 C   0  0  0  0  0  0  0  0  0  0  0  0
   58.9340   34.4870   46.5290 C   0  0  0  0  0  0  0  0  0  0  0  0
   58.1630   34.5550   45.3980 C   0  0  0  0  0  0  0  0  0  0  0  0
   57.9060   33.4080   44.6900 C   0  0  0  0  0  0  0  0  0  0  0  0
   58.4290   32.2120   45.1330 C   0  0  0  0  0  0  0  0  0  0  0  0
   59.2190   32.1690   46.2980 C   0  0  0  0  0  0  0  0  0  0  0  0
   59.7380   30.9900   46.7290 C   0  0  0  0  0  0  0  0  0  0  0  0
   60.6020   30.7650   47.8240 N   0  0  0  0  0  0  0  0  0  0  0  0
   59.9590   30.1780   49.0210 C   0  0  0  0  0  0  0  0  0  0  0  0
   60.5360   30.6420   50.3020 C   0  0  0  0  0  0  0  0  0  0  0  0
   61.5350   31.5550   50.2910 O   0  0  0  0  0  0  0  0  0  0  0  0
   62.8240   31.1490   50.4290 C   0  0  0  0  0  0  0  0  0  0  0  0
   63.7660   31.6300   49.3540 C   0  0  0  0  0  0  0  0  0  0  0  0
   63.0790   32.5650   48.5040 N   0  0  0  0  0  0  0  0  0  0  0  0
   63.1010   33.9220   48.9310 C   0  0  0  0  0  0  0  0  0  0  0  0
   63.3480   32.4660   47.1120 C   0  0  0  0  0  0  0  0  0  0  0  0
   63.3020   33.8250   46.4590 C   0  0  0  0  0  0  0  0  0  0  0  0
   59.4430   29.8510   45.9680 C   0  0  0  0  0  0  0  0  0  0  0  0
   59.9180   28.6110   46.3300 C   0  0  0  0  0  0  0  0  0  0  0  0
   59.6720   27.4530   45.6430 C   0  0  0  0  0  0  0  0  0  0  0  0
   58.8980   27.5310   44.5140 C   0  0  0  0  0  0  0  0  0  0  0  0
   58.4090   28.7570   44.1290 C   0  0  0  0  0  0  0  0  0  0  0  0
   58.6690   29.9270   44.8400 C   0  0  0  0  0  0  0  0  0  0  0  0
   58.1500   31.1230   44.4080 N   0  0  0  0  0  0  0  0  0  0  0  0
   57.3670   31.0520   43.2210 C   0  0  0  0  0  0  0  0  0  0  0  0
   59.9390   34.5551   51.3254 H   0  0  0  0  0  0  0  0  0  0  0  0
   58.5686   33.6288   50.6249 H   0  0  0  0  0  0  0  0  0  0  0  0
   60.2214   32.9253   50.6249 H   0  0  0  0  0  0  0  0  0  0  0  0
   59.0186   35.0361   48.8501 H   0  0  0  0  0  0  0  0  0  0  0  0
   60.7552   35.1772   49.2507 H   0  0  0  0  0  0  0  0  0  0  0  0
   60.9530   32.7900   48.5880 H   0  0  0  0  0  0  0  0  0  0  0  0
   59.1290   35.4188   47.0801 H   0  0  0  0  0  0  0  0  0  0  0  0
   57.7544   35.5192   45.0612 H   0  0  0  0  0  0  0  0  0  0  0  0
   57.2898   33.4425   43.7795 H   0  0  0  0  0  0  0  0  0  0  0  0
   61.6260   31.0240   47.8310 H   0  0  0  0  0  0  0  0  0  0  0  0
   58.8917   30.4438   49.0058 H   0  0  0  0  0  0  0  0  0  0  0  0
   60.1255   29.0918   48.9716 H   0  0  0  0  0  0  0  0  0  0  0  0
   59.7112   31.0772   50.8854 H   0  0  0  0  0  0  0  0  0  0  0  0
   61.0147   29.7402   50.7114 H   0  0  0  0  0  0  0  0  0  0  0  0
   63.1952   31.5172   51.3968 H   0  0  0  0  0  0  0  0  0  0  0  0
   62.8087   30.0517   50.3537 H   0  0  0  0  0  0  0  0  0  0  0  0
   64.6324   32.1235   49.8185 H   0  0  0  0  0  0  0  0  0  0  0  0
   64.1115   30.7736   48.7564 H   0  0  0  0  0  0  0  0  0  0  0  0
   63.1016   33.9605   50.0303 H   0  0  0  0  0  0  0  0  0  0  0  0
   64.0072   34.4128   48.5464 H   0  0  0  0  0  0  0  0  0  0  0  0
   62.2112   34.4419   48.5464 H   0  0  0  0  0  0  0  0  0  0  0  0
   64.3478   32.0305   46.9681 H   0  0  0  0  0  0  0  0  0  0  0  0
   62.5815   31.8268   46.6496 H   0  0  0  0  0  0  0  0  0  0  0  0
   63.2756   34.6040   47.2352 H   0  0  0  0  0  0  0  0  0  0  0  0
   64.1960   33.9614   45.8328 H   0  0  0  0  0  0  0  0  0  0  0  0
   62.4008   33.9006   45.8328 H   0  0  0  0  0  0  0  0  0  0  0  0
   60.5392   28.5460   47.2354 H   0  0  0  0  0  0  0  0  0  0  0  0
   60.0818   26.4913   45.9854 H   0  0  0  0  0  0  0  0  0  0  0  0
   58.6722   26.6287   43.9266 H   0  0  0  0  0  0  0  0  0  0  0  0
   57.7876   28.8167   43.2233 H   0  0  0  0  0  0  0  0  0  0  0  0
   56.3043   30.9556   43.4880 H   0  0  0  0  0  0  0  0  0  0  0  0
   57.5148   31.9672   42.6290 H   0  0  0  0  0  0  0  0  0  0  0  0
   57.6770   30.1783   42.6290 H   0  0  0  0  0  0  0  0  0  0  0  0
  1  2  1  0
  2  3  1  0
  3  4  1  0
  4  5  2  0
  5  6  1  0
  6  7  2  0
  7  8  1  0
  8  9  2  0
  9 10  1  0
 10 11  1  0
 11 12  1  0
 12 13  1  0
 13 14  1  0
 14 15  1  0
 15 16  1  0
 16 17  1  0
 17 18  1  0
 17 19  1  0
 19 20  1  0
 10 21  2  0
 21 22  1  0
 22 23  2  0
 23 24  1  0
 24 25  2  0
 25 26  1  0
 26 27  2  0
 27 28  1  0
  9  4  1  0
 26 21  1  0
 27  8  1  0
  1 29  1  0
  1 30  1  0
  1 31  1  0
  2 32  1  0
  2 33  1  0
  3 34  1  0
  5 35  1  0
  6 36  1  0
  7 37  1  0
 11 38  1  0
 12 39  1  0
 12 40  1  0
 13 41  1  0
 13 42  1  0
 15 43  1  0
 15 44  1  0
 16 45  1  0
 16 46  1  0
 18 47  1  0
 18 48  1  0
 18 49  1  0
 19 50  1  0
 19 51  1  0
 20 52  1  0
 20 53  1  0
 20 54  1  0
 22 55  1  0
 23 56  1  0
 24 57  1  0
 25 58  1  0
 28 59  1  0
 28 60  1  0
 28 61  1  0
M  CHG  1  27   1
M  END
>  <smiles>  (15) 
CCNc1cccc2c1c(NCCOCCN(C)CC)c1ccccc1[n+]2C

>  <score_type>  (15) 
oracle

>  <origin>  (15) 
adg

>  <m_score__min__energy>  (15) 
-4.8300000000000001

>  <m_primary>  (15) 
energy

$$$$
16:0
     RDKit          3D

 42 44  0  0  1  0  0  0  0  0999 V2000
   60.1850   34.5420   48.9230 C   0  0  0  0  0  0  0  0  0  0  0  0
   59.6620   34.1520   47.5870 C   0  0  0  0  0  0  0  0  0  0  0  0
   59.7400   35.0410   46.5360 C   0  0  0  0  0  0  0  0  0  0  0  0
   59.2620   34.7010   45.2860 C   0  0  0  0  0  0  0  0  0  0  0  0
   58.7080   33.4470   45.1380 C   0  0  0  0  0  0  0  0  0  0  0  0
   58.2450   33.1200   43.9220 N   0  0  0  0  0  0  0  0  0  0  0  0
   57.6940   31.9060   43.7400 C   0  0  0  0  0  0  0  0  0  0  0  0
   57.2250   31.6580   42.4460 C   0  0  0  0  0  0  0  0  0  0  0  0
   56.6450   30.4250   42.2610 C   0  0  0  0  0  0  0  0  0  0  0  0
   56.4990   29.4670   43.2160 C   0  0  0  0  0  0  0  0  0  0  0  0
   56.9820   29.7450   44.5130 C   0  0  0  0  0  0  0  0  0  0  0  0
   57.5660   30.9570   44.7160 C   0  0  0  0  0  0  0  0  0  0  0  0
   58.0340   31.2560   45.9620 C   0  0  0  0  0  0  0  0  0  0  0  0
   58.1530   30.4590   46.9130 N   0  0  0  0  0  0  0  0  0  0  0  0
   59.3020   29.7580   47.2690 C   0  0  0  0  0  0  0  0  0  0  0  0
   59.3850   28.2860   46.9460 C   0  0  0  0  0  0  0  0  0  0  0  0
   59.7590   27.9460   45.6300 N   0  0  0  0  0  0  0  0  0  0  0  0
   60.4590   28.9170   44.8630 C   0  0  0  0  0  0  0  0  0  0  0  0
   58.8590   27.1410   44.8730 C   0  0  0  0  0  0  0  0  0  0  0  0
   58.6060   32.5270   46.1510 C   0  0  0  0  0  0  0  0  0  0  0  0
   59.0990   32.9100   47.3900 C   0  0  0  0  0  0  0  0  0  0  0  0
   59.5669   34.0811   49.7076 H   0  0  0  0  0  0  0  0  0  0  0  0
   61.2244   34.1967   49.0249 H   0  0  0  0  0  0  0  0  0  0  0  0
   60.1506   35.6367   49.0249 H   0  0  0  0  0  0  0  0  0  0  0  0
   60.1883   36.0328   46.6952 H   0  0  0  0  0  0  0  0  0  0  0  0
   59.3209   35.4031   44.4412 H   0  0  0  0  0  0  0  0  0  0  0  0
   58.3170   33.8090   43.1400 H   0  0  0  0  0  0  0  0  0  0  0  0
   57.3137   32.3958   41.6350 H   0  0  0  0  0  0  0  0  0  0  0  0
   56.2666   30.1933   41.2545 H   0  0  0  0  0  0  0  0  0  0  0  0
   56.0190   28.5047   42.9844 H   0  0  0  0  0  0  0  0  0  0  0  0
   56.8899   29.0110   45.3271 H   0  0  0  0  0  0  0  0  0  0  0  0
   60.1485   30.2477   46.7654 H   0  0  0  0  0  0  0  0  0  0  0  0
   59.3029   29.7895   48.3685 H   0  0  0  0  0  0  0  0  0  0  0  0
   60.1212   27.8362   47.6283 H   0  0  0  0  0  0  0  0  0  0  0  0
   58.3590   27.9067   47.0617 H   0  0  0  0  0  0  0  0  0  0  0  0
   60.9667   29.6213   45.5384 H   0  0  0  0  0  0  0  0  0  0  0  0
   61.2045   28.4153   44.2286 H   0  0  0  0  0  0  0  0  0  0  0  0
   59.7474   29.4657   44.2286 H   0  0  0  0  0  0  0  0  0  0  0  0
   58.2169   26.5666   45.5569 H   0  0  0  0  0  0  0  0  0  0  0  0
   58.2340   27.7869   44.2389 H   0  0  0  0  0  0  0  0  0  0  0  0
   59.4315   26.4481   44.2389 H   0  0  0  0  0  0  0  0  0  0  0  0
   59.0391   32.2066   48.2336 H   0  0  0  0  0  0  0  0  0  0  0  0
  1  2  1  0
  2  3  2  0
  3  4  1  0
  4  5  2  0
  5  6  1  0
  6  7  1  0
  7  8  2  0
  8  9  1  0
  9 10  2  0
 10 11  1  0
 11 12  2  0
 12 13  1  0
 13 14  2  0
 14 15  1  0
 15 16  1  0
 16 17  1  0
 17 18  1  0
 17 19  1  0
 13 20  1  0
 20 21  2  0
 21  2  1  0
 20  5  1  0
 12  7  1  0
  1 22  1  0
  1 23  1  0
  1 24  1  0
  3 25  1  0
  4 26  1  0
  6 27  1  0
  8 28  1  0
  9 29  1  0
 10 30  1  0
 11 31  1  0
 15 32  1  0
 15 33  1  0
 16 34  1  0
 16 35  1  0
 18 36  1  0
 18 37  1  0
 18 38  1  0
 19 39  1  0
 19 40  1  0
 19 41  1  0
 21 42  1  0
M  END
>  <smiles>  (16) 
Cc1ccc2[nH]c3ccccc3c(=NCCN(C)C)c2c1

>  <score_type>  (16) 
oracle

>  <origin>  (16) 
adg

>  <m_score__min__energy>  (16) 
-6.8700000000000001

>  <m_primary>  (16) 
energy

$$$$
17:0
     RDKit          3D

 58 58  0  0  0  0  0  0  0  0999 V2000
   59.3290   30.7900   47.4330 C   0  0  0  0  0  0  0  0  0  0  0  0
   60.3880   30.4010   46.4260 C   0  0  0  0  0  0  0  0  0  0  0  0
   60.2080   28.9560   45.9740 C   0  0  0  0  0  0  0  0  0  0  0  0
   59.6380   29.0490   44.5560 C   0  0  0  0  0  0  0  0  0  0  0  0
   58.4780   28.1150   44.4520 C   0  0  0  0  0  0  0  0  0  0  0  0
   57.1720   28.7400   44.8700 C   0  0  0  0  0  0  0  0  0  0  0  0
   56.6550   29.6010   43.7270 C   0  0  0  0  0  0  0  0  0  0  0  0
   56.7190   31.0700   44.1090 C   0  0  0  0  0  0  0  0  0  0  0  0
   57.8260   31.8140   43.3980 C   0  0  0  0  0  0  0  0  0  0  0  0
   58.1370   33.0710   44.1530 C   0  0  0  0  0  0  0  0  0  0  0  0
   57.1340   33.3450   45.2520 C   0  0  0  0  0  0  0  0  0  0  0  0
   57.8340   33.8210   46.4810 C   0  0  0  0  0  0  0  0  0  0  0  0
   59.2230   34.2530   46.1680 C   0  0  0  0  0  0  0  0  0  0  0  0
   59.9530   34.6120   47.4500 C   0  0  0  0  0  0  0  0  0  0  0  0
   61.2970   34.0780   47.4040 N   0  0  0  0  0  0  0  0  0  0  0  0
   62.1150   33.8430   46.3710 C   0  0  0  0  0  0  0  0  0  0  0  0
   63.3190   33.3180   46.7950 C   0  0  0  0  0  0  0  0  0  0  0  0
   63.2140   33.2370   48.1340 N   0  0  0  0  0  0  0  0  0  0  0  0
   64.2540   32.7320   49.0420 C   0  0  0  0  0  0  0  0  0  0  0  0
   62.0060   33.6910   48.4980 C   0  0  0  0  0  0  0  0  0  0  0  0
   61.5570   33.7410   49.9170 C   0  0  0  0  0  0  0  0  0  0  0  0
   59.7205   30.6462   48.4509 H   0  0  0  0  0  0  0  0  0  0  0  0
   59.0578   31.8464   47.2903 H   0  0  0  0  0  0  0  0  0  0  0  0
   58.4384   30.1603   47.2903 H   0  0  0  0  0  0  0  0  0  0  0  0
   60.3130   31.0635   45.5511 H   0  0  0  0  0  0  0  0  0  0  0  0
   61.3755   30.4992   46.9005 H   0  0  0  0  0  0  0  0  0  0  0  0
   61.1742   28.4302   45.9680 H   0  0  0  0  0  0  0  0  0  0  0  0
   59.5456   28.3931   46.6481 H   0  0  0  0  0  0  0  0  0  0  0  0
   59.3053   30.0782   44.3562 H   0  0  0  0  0  0  0  0  0  0  0  0
   60.4092   28.7771   43.8202 H   0  0  0  0  0  0  0  0  0  0  0  0
   58.3883   27.7842   43.4067 H   0  0  0  0  0  0  0  0  0  0  0  0
   58.6721   27.2759   45.1363 H   0  0  0  0  0  0  0  0  0  0  0  0
   56.4406   27.9509   45.0991 H   0  0  0  0  0  0  0  0  0  0  0  0
   57.3229   29.3589   45.7667 H   0  0  0  0  0  0  0  0  0  0  0  0
   57.2741   29.4301   42.8340 H   0  0  0  0  0  0  0  0  0  0  0  0
   55.6102   29.3293   43.5159 H   0  0  0  0  0  0  0  0  0  0  0  0
   55.7586   31.5415   43.8535 H   0  0  0  0  0  0  0  0  0  0  0  0
   56.9258   31.1222   45.1881 H   0  0  0  0  0  0  0  0  0  0  0  0
   58.7243   31.1808   43.3513 H   0  0  0  0  0  0  0  0  0  0  0  0
   57.5060   32.0655   42.3761 H   0  0  0  0  0  0  0  0  0  0  0  0
   59.1365   32.9754   44.6023 H   0  0  0  0  0  0  0  0  0  0  0  0
   58.0940   33.9093   43.4421 H   0  0  0  0  0  0  0  0  0  0  0  0
   56.4269   34.1170   44.9145 H   0  0  0  0  0  0  0  0  0  0  0  0
   56.5927   32.4159   45.4840 H   0  0  0  0  0  0  0  0  0  0  0  0
   57.2794   34.6712   46.9048 H   0  0  0  0  0  0  0  0  0  0  0  0
   57.8782   32.9924   47.2031 H   0  0  0  0  0  0  0  0  0  0  0  0
   59.7548   33.4335   45.6625 H   0  0  0  0  0  0  0  0  0  0  0  0
   59.1890   35.1347   45.5111 H   0  0  0  0  0  0  0  0  0  0  0  0
   59.9963   35.7063   47.5534 H   0  0  0  0  0  0  0  0  0  0  0  0
   59.4170   34.1840   48.3100 H   0  0  0  0  0  0  0  0  0  0  0  0
   61.8605   34.0426   45.3196 H   0  0  0  0  0  0  0  0  0  0  0  0
   64.1786   33.0284   46.1727 H   0  0  0  0  0  0  0  0  0  0  0  0
   63.9372   32.8858   50.0841 H   0  0  0  0  0  0  0  0  0  0  0  0
   64.4092   31.6582   48.8607 H   0  0  0  0  0  0  0  0  0  0  0  0
   65.1938   33.2741   48.8607 H   0  0  0  0  0  0  0  0  0  0  0  0
   62.4286   33.6439   50.5810 H   0  0  0  0  0  0  0  0  0  0  0  0
   61.0548   34.7006   50.1091 H   0  0  0  0  0  0  0  0  0  0  0  0
   60.8560   32.9154   50.1091 H   0  0  0  0  0  0  0  0  0  0  0  0
  1  2  1  0
  2  3  1  0
  3  4  1  0
  4  5  1  0
  5  6  1  0
  6  7  1  0
  7  8  1  0
  8  9  1  0
  9 10  1  0
 10 11  1  0
 11 12  1  0
 12 13  1  0
 13 14  1  0
 14 15  1  0
 15 16  1  0
 16 17  2  0
 17 18  1  0
 18 19  1  0
 18 20  2  0
 20 21  1  0
 20 15  1  0
  1 22  1  0
  1 23  1  0
  1 24  1  0
  2 25  1  0
  2 26  1  0
  3 27  1  0
  3 28  1  0
  4 29  1  0
  4 30  1  0
  5 31  1  0
  5 32  1  0
  6 33  1  0
  6 34  1  0
  7 35  1  0
  7 36  1  0
  8 37  1  0
  8 38  1  0
  9 39  1  0
  9 40  1  0
 10 41  1  0
 10 42  1  0
 11 43  1  0
 11 44  1  0
 12 45  1  0
 12 46  1  0
 13 47  1  0
 13 48  1  0
 14 49  1  0
 14 50  1  0
 16 51  1  0
 17 52  1  0
 19 53  1  0
 19 54  1  0
 19 55  1  0
 21 56  1  0
 21 57  1  0
 21 58  1  0
M  CHG  1  18   1
M  END
>  <smiles>  (17) 
CCCCCCCCCCCCCCn1cc[n+](C)c1C

>  <score_type>  (17) 
oracle

>  <origin>  (17) 
adg

>  <m_score__min__energy>  (17) 
-4.8200000000000003

>  <m_primary>  (17) 
energy

$$$$
18:0
     RDKit          3D

 43 44  0  0  0  0  0  0  0  0999 V2000
   57.0630   34.1180   45.5110 C   0  0  0  0  0  0  0  0  0  0  0  0
   58.4000   34.2510   44.8640 C   0  0  0  0  0  0  0  0  0  0  0  0
   59.4820   33.6310   45.5940 N   0  0  0  0  0  0  0  0  0  0  0  0
   59.0360   32.5040   46.3900 C   0  0  0  0  0  0  0  0  0  0  0  0
   58.8470   31.2830   45.5340 C   0  0  0  0  0  0  0  0  0  0  0  0
   57.4810   30.8360   45.4630 N   0  0  0  0  0  0  0  0  0  0  0  0
   56.9700   30.7640   44.1160 C   0  0  0  0  0  0  0  0  0  0  0  0
   55.5270   30.2980   44.2140 C   0  0  0  0  0  0  0  0  0  0  0  0
   55.4840   28.9650   44.5990 O   0  0  0  0  0  0  0  0  0  0  0  0
   56.6830   28.5250   45.0920 C   0  0  0  0  0  0  0  0  0  0  0  0
   57.3930   29.4970   46.0080 C   0  0  0  0  0  0  0  0  0  0  0  0
   60.2300   34.5950   46.3470 C   0  0  0  0  0  0  0  0  0  0  0  0
   61.4380   34.0480   47.0030 C   0  0  0  0  0  0  0  0  0  0  0  0
   62.6740   33.7700   46.4170 C   0  0  0  0  0  0  0  0  0  0  0  0
   63.5310   33.2710   47.3680 C   0  0  0  0  0  0  0  0  0  0  0  0
   62.8130   33.2440   48.5410 C   0  0  0  0  0  0  0  0  0  0  0  0
   61.5680   33.7080   48.3150 N   0  0  0  0  0  0  0  0  0  0  0  0
   60.5280   33.8250   49.3290 C   0  0  0  0  0  0  0  0  0  0  0  0
   57.1820   34.1298   46.6045 H   0  0  0  0  0  0  0  0  0  0  0  0
   56.4215   34.9568   45.2029 H   0  0  0  0  0  0  0  0  0  0  0  0
   56.5993   33.1693   45.2029 H   0  0  0  0  0  0  0  0  0  0  0  0
   58.3475   33.7876   43.8678 H   0  0  0  0  0  0  0  0  0  0  0  0
   58.6240   35.3273   44.8258 H   0  0  0  0  0  0  0  0  0  0  0  0
   59.7886   32.2888   47.1628 H   0  0  0  0  0  0  0  0  0  0  0  0
   58.0718   32.7609   46.8530 H   0  0  0  0  0  0  0  0  0  0  0  0
   59.1903   31.5158   44.5152 H   0  0  0  0  0  0  0  0  0  0  0  0
   59.4287   30.4716   45.9958 H   0  0  0  0  0  0  0  0  0  0  0  0
   57.0157   31.7550   43.6409 H   0  0  0  0  0  0  0  0  0  0  0  0
   57.5666   30.0700   43.5058 H   0  0  0  0  0  0  0  0  0  0  0  0
   54.9964   30.9096   44.9586 H   0  0  0  0  0  0  0  0  0  0  0  0
   55.0450   30.4058   43.2311 H   0  0  0  0  0  0  0  0  0  0  0  0
   56.5010   27.5972   45.6542 H   0  0  0  0  0  0  0  0  0  0  0  0
   57.3410   28.3863   44.2215 H   0  0  0  0  0  0  0  0  0  0  0  0
   56.8452   29.5429   46.9608 H   0  0  0  0  0  0  0  0  0  0  0  0
   58.4216   29.1298   46.1393 H   0  0  0  0  0  0  0  0  0  0  0  0
   60.5424   35.3989   45.6642 H   0  0  0  0  0  0  0  0  0  0  0  0
   59.5681   34.9509   47.1503 H   0  0  0  0  0  0  0  0  0  0  0  0
   62.9235   33.9263   45.3571 H   0  0  0  0  0  0  0  0  0  0  0  0
   64.5753   32.9579   47.2216 H   0  0  0  0  0  0  0  0  0  0  0  0
   63.1955   32.8976   49.5124 H   0  0  0  0  0  0  0  0  0  0  0  0
   60.9834   33.7738   50.3290 H   0  0  0  0  0  0  0  0  0  0  0  0
   60.0082   34.7873   49.2117 H   0  0  0  0  0  0  0  0  0  0  0  0
   59.8073   33.0023   49.2117 H   0  0  0  0  0  0  0  0  0  0  0  0
  1  2  1  0
  2  3  1  0
  3  4  1  0
  4  5  1  0
  5  6  1  0
  6  7  1  0
  7  8  1  0
  8  9  1  0
  9 10  1  0
 10 11  1  0
  3 12  1  0
 12 13  1  0
 13 14  2  0
 14 15  1  0
 15 16  2  0
 16 17  1  0
 17 18  1  0
 11  6  1  0
 17 13  1  0
  1 19  1  0
  1 20  1  0
  1 21  1  0
  2 22  1  0
  2 23  1  0
  4 24  1  0
  4 25  1  0
  5 26  1  0
  5 27  1  0
  7 28  1  0
  7 29  1  0
  8 30  1  0
  8 31  1  0
 10 32  1  0
 10 33  1  0
 11 34  1  0
 11 35  1  0
 12 36  1  0
 12 37  1  0
 14 38  1  0
 15 39  1  0
 16 40  1  0
 18 41  1  0
 18 42  1  0
 18 43  1  0
M  END
>  <smiles>  (18) 
CCN(CCN1CCOCC1)Cc1cccn1C

>  <score_type>  (18) 
oracle

>  <origin>  (18) 
adg

>  <m_score__min__energy>  (18) 
-6.3300000000000001

>  <m_primary>  (18) 
energy

$$$$
19:0
     RDKit          3D

 41 43  0  0  0  0  0  0  0  0999 V2000
   58.7640   22.0020   44.5150 C   0  0  0  0  0  0  0  0  0  0  0  0
   57.9900   23.1750   45.0340 C   0  0  0  0  0  0  0  0  0  0  0  0
   58.6820   23.9050   46.0250 O   0  0  0  0  0  0  0  0  0  0  0  0
   58.8680   25.2590   46.0290 C   0  0  0  0  0  0  0  0  0  0  0  0
   60.0280   25.9030   46.3930 C   0  0  0  0  0  0  0  0  0  0  0  0
   60.1710   27.2780   46.3810 C   0  0  0  0  0  0  0  0  0  0  0  0
   59.0740   28.0120   45.9780 C   0  0  0  0  0  0  0  0  0  0  0  0
   59.1890   29.3950   45.9580 C   0  0  0  0  0  0  0  0  0  0  0  0
   58.0610   30.0950   45.5470 C   0  0  0  0  0  0  0  0  0  0  0  0
   58.1050   31.5530   45.4980 C   0  0  0  0  0  0  0  0  0  0  0  0
   58.0700   32.2320   46.7010 C   0  0  0  0  0  0  0  0  0  0  0  0
   58.1080   33.6070   46.7350 C   0  0  0  0  0  0  0  0  0  0  0  0
   58.1820   34.3170   45.5360 C   0  0  0  0  0  0  0  0  0  0  0  0
   58.2160   33.6150   44.3470 C   0  0  0  0  0  0  0  0  0  0  0  0
   58.1790   32.2360   44.2920 C   0  0  0  0  0  0  0  0  0  0  0  0
   58.2130   31.5380   43.1060 O   0  0  0  0  0  0  0  0  0  0  0  0
   57.0820   31.4990   42.2460 C   0  0  0  0  0  0  0  0  0  0  0  0
   57.3930   32.3440   41.0280 C   0  0  0  0  0  0  0  0  0  0  0  0
   56.8900   29.4630   45.1800 C   0  0  0  0  0  0  0  0  0  0  0  0
   55.8650   30.1090   44.8060 O   0  0  0  0  0  0  0  0  0  0  0  0
   56.8380   28.1470   45.2190 O   0  0  0  0  0  0  0  0  0  0  0  0
   57.8810   27.4280   45.6020 C   0  0  0  0  0  0  0  0  0  0  0  0
   57.8100   26.0590   45.6370 C   0  0  0  0  0  0  0  0  0  0  0  0
   59.1513   21.4150   45.3608 H   0  0  0  0  0  0  0  0  0  0  0  0
   58.1048   21.3702   43.9015 H   0  0  0  0  0  0  0  0  0  0  0  0
   59.6042   22.3595   43.9015 H   0  0  0  0  0  0  0  0  0  0  0  0
   57.7710   23.8489   44.1927 H   0  0  0  0  0  0  0  0  0  0  0  0
   57.0738   22.7817   45.4985 H   0  0  0  0  0  0  0  0  0  0  0  0
   60.8861   25.2922   46.7100 H   0  0  0  0  0  0  0  0  0  0  0  0
   61.1126   27.7630   46.6780 H   0  0  0  0  0  0  0  0  0  0  0  0
   60.1179   29.9067   46.2501 H   0  0  0  0  0  0  0  0  0  0  0  0
   58.0111   31.6665   47.6427 H   0  0  0  0  0  0  0  0  0  0  0  0
   58.0804   34.1406   47.6965 H   0  0  0  0  0  0  0  0  0  0  0  0
   58.2127   35.4166   45.5377 H   0  0  0  0  0  0  0  0  0  0  0  0
   58.2750   34.1784   43.4041 H   0  0  0  0  0  0  0  0  0  0  0  0
   56.8811   30.4618   41.9397 H   0  0  0  0  0  0  0  0  0  0  0  0
   56.1931   31.8874   42.7646 H   0  0  0  0  0  0  0  0  0  0  0  0
   57.7563   33.3312   41.3497 H   0  0  0  0  0  0  0  0  0  0  0  0
   58.1671   31.8470   40.4249 H   0  0  0  0  0  0  0  0  0  0  0  0
   56.4814   32.4675   40.4249 H   0  0  0  0  0  0  0  0  0  0  0  0
   56.8682   25.5747   45.3396 H   0  0  0  0  0  0  0  0  0  0  0  0
  1  2  1  0
  2  3  1  0
  3  4  1  0
  4  5  2  0
  5  6  1  0
  6  7  2  0
  7  8  1  0
  8  9  2  0
  9 10  1  0
 10 11  2  0
 11 12  1  0
 12 13  2  0
 13 14  1  0
 14 15  2  0
 15 16  1  0
 16 17  1  0
 17 18  1  0
  9 19  1  0
 19 20  2  0
 19 21  1  0
 21 22  1  0
 22 23  2  0
 23  4  1  0
 22  7  1  0
 15 10  1  0
  1 24  1  0
  1 25  1  0
  1 26  1  0
  2 27  1  0
  2 28  1  0
  5 29  1  0
  6 30  1  0
  8 31  1  0
 11 32  1  0
 12 33  1  0
 13 34  1  0
 14 35  1  0
 17 36  1  0
 17 37  1  0
 18 38  1  0
 18 39  1  0
 18 40  1  0
 23 41  1  0
M  END
>  <smiles>  (19) 
CCOc1ccc2cc(-c3ccccc3OCC)c(=O)oc2c1

>  <score_type>  (19) 
oracle

>  <origin>  (19) 
adg

>  <m_score__min__energy>  (19) 
-7.29

>  <m_primary>  (19) 
energy

$$$$
20:0
     RDKit          3D

 57 61  0  0  1  0  0  0  0  0999 V2000
   59.6540   29.6770   44.8020 C   0  0  0  0  0  0  0  0  0  0  0  0
   58.2490   29.9700   44.7790 N   0  0  0  0  0  0  0  0  0  0  0  0
   57.6910   31.1630   44.5780 C   0  0  0  0  0  0  0  0  0  0  0  0
   58.4410   32.7490   44.2880 S   0  0  0  0  0  0  0  0  0  0  0  0
   57.6960   33.9740   45.3560 C   0  0  0  0  0  0  0  0  0  0  0  0
   58.3670   34.0050   46.7150 C   0  0  0  0  0  0  0  0  0  0  0  0
   57.8840   32.7590   47.4350 C   0  0  0  0  0  0  0  0  0  0  0  0
   59.0390   32.2010   48.1030 N   0  0  0  0  0  0  0  0  0  0  0  0
   59.2570   33.0220   49.3200 C   0  0  0  0  0  0  0  0  0  0  0  0
   60.6670   33.2010   49.2900 C   0  0  1  0  0  0  0  0  0  0  0  0
   61.7240   33.8880   49.9320 C   0  0  0  0  0  0  0  0  0  0  0  0
   62.9180   33.5420   49.0150 C   0  0  0  0  0  0  0  0  0  0  0  0
   62.4950   33.0230   47.6430 C   0  0  0  0  0  0  0  0  0  0  0  0
   63.6850   32.8090   46.7580 C   0  0  0  0  0  0  0  0  0  0  0  0
   62.6330   33.8430   46.4440 C   0  0  0  0  0  0  0  0  0  0  0  0
   61.5110   31.8530   47.6530 C   0  0  1  0  0  0  0  0  0  0  0  0
   61.2030   31.7950   49.1250 C   0  0  0  0  0  0  0  0  0  0  0  0
   60.1210   32.2540   47.1380 C   0  0  0  0  0  0  0  0  0  0  0  0
   56.3540   30.9780   44.6340 N   0  0  0  0  0  0  0  0  0  0  0  0
   56.0880   29.7130   44.8600 N   0  0  0  0  0  0  0  0  0  0  0  0
   57.2690   29.0820   44.9500 C   0  0  0  0  0  0  0  0  0  0  0  0
   57.3710   27.6360   45.1990 C   0  0  0  0  0  0  0  0  0  0  0  0
   57.7620   26.7390   44.2300 C   0  0  0  0  0  0  0  0  0  0  0  0
   57.8180   25.3940   44.5830 C   0  0  0  0  0  0  0  0  0  0  0  0
   57.4890   24.9900   45.8630 C   0  0  0  0  0  0  0  0  0  0  0  0
   57.0960   25.8820   46.8390 C   0  0  0  0  0  0  0  0  0  0  0  0
   57.0450   27.2140   46.4770 C   0  0  0  0  0  0  0  0  0  0  0  0
   59.9966   29.6055   45.8448 H   0  0  0  0  0  0  0  0  0  0  0  0
   59.8377   28.7212   44.2894 H   0  0  0  0  0  0  0  0  0  0  0  0
   60.2044   30.4797   44.2894 H   0  0  0  0  0  0  0  0  0  0  0  0
   57.7925   34.9641   44.8866 H   0  0  0  0  0  0  0  0  0  0  0  0
   56.6375   33.7109   45.4986 H   0  0  0  0  0  0  0  0  0  0  0  0
   59.4612   33.9849   46.6039 H   0  0  0  0  0  0  0  0  0  0  0  0
   58.1180   34.9203   47.2720 H   0  0  0  0  0  0  0  0  0  0  0  0
   57.1087   33.0207   48.1701 H   0  0  0  0  0  0  0  0  0  0  0  0
   57.4423   32.0376   46.7318 H   0  0  0  0  0  0  0  0  0  0  0  0
   58.7280   33.9843   49.2560 H   0  0  0  0  0  0  0  0  0  0  0  0
   58.8822   32.5612   50.2459 H   0  0  0  0  0  0  0  0  0  0  0  0
   60.4914   34.1144   48.7028 H   0  0  0  0  0  0  0  0  0  0  0  0
   61.5400   34.9721   49.9603 H   0  0  0  0  0  0  0  0  0  0  0  0
   61.8697   33.6037   50.9846 H   0  0  0  0  0  0  0  0  0  0  0  0
   63.5240   34.4491   48.8736 H   0  0  0  0  0  0  0  0  0  0  0  0
   63.4845   32.7377   49.5072 H   0  0  0  0  0  0  0  0  0  0  0  0
   64.6868   33.1191   47.0899 H   0  0  0  0  0  0  0  0  0  0  0  0
   64.1326   31.9535   46.2309 H   0  0  0  0  0  0  0  0  0  0  0  0
   62.8712   34.9129   46.5360 H   0  0  0  0  0  0  0  0  0  0  0  0
   61.9935   34.0575   45.5751 H   0  0  0  0  0  0  0  0  0  0  0  0
   61.9167   30.9934   47.0994 H   0  0  0  0  0  0  0  0  0  0  0  0
   60.4472   31.0316   49.3618 H   0  0  0  0  0  0  0  0  0  0  0  0
   62.0423   31.5207   49.7810 H   0  0  0  0  0  0  0  0  0  0  0  0
   60.1868   33.2865   46.7644 H   0  0  0  0  0  0  0  0  0  0  0  0
   59.8662   31.5090   46.3698 H   0  0  0  0  0  0  0  0  0  0  0  0
   58.0205   27.0733   43.2144 H   0  0  0  0  0  0  0  0  0  0  0  0
   58.1266   24.6465   43.8373 H   0  0  0  0  0  0  0  0  0  0  0  0
   57.5424   23.9199   46.1122 H   0  0  0  0  0  0  0  0  0  0  0  0
   56.8362   25.5492   47.8548 H   0  0  0  0  0  0  0  0  0  0  0  0
   56.7370   27.9600   47.2244 H   0  0  0  0  0  0  0  0  0  0  0  0
  1  2  1  0
  2  3  1  0
  3  4  1  0
  4  5  1  0
  5  6  1  0
  6  7  1  0
  7  8  1  0
  8  9  1  0
  9 10  1  0
 10 11  1  0
 11 12  1  0
 12 13  1  0
 13 14  1  0
 14 15  1  0
 13 16  1  0
 16 17  1  0
 16 18  1  0
  3 19  2  0
 19 20  1  0
 20 21  2  0
 21 22  1  0
 22 23  2  0
 23 24  1  0
 24 25  2  0
 25 26  1  0
 26 27  2  0
 21  2  1  0
 27 22  1  0
 18  8  1  0
 17 10  1  0
 15 13  1  0
  1 28  1  0
  1 29  1  0
  1 30  1  0
  5 31  1  0
  5 32  1  0
  6 33  1  0
  6 34  1  0
  7 35  1  0
  7 36  1  0
  9 37  1  0
  9 38  1  0
 10 39  1  6
 11 40  1  0
 11 41  1  0
 12 42  1  0
 12 43  1  0
 14 44  1  0
 14 45  1  0
 15 46  1  0
 15 47  1  0
 16 48  1  6
 17 49  1  0
 17 50  1  0
 18 51  1  0
 18 52  1  0
 23 53  1  0
 24 54  1  0
 25 55  1  0
 26 56  1  0
 27 57  1  0
M  END
>  <smiles>  (20) 
Cn1c(SCCCN2CC3CCC4(CC4)C(C3)C2)nnc1-c1ccccc1

>  <score_type>  (20) 
oracle

>  <origin>  (20) 
adg

>  <m_score__min__energy>  (20) 
-10.220000000000001

>  <m_primary>  (20) 
energy

$$$$
21:0
     RDKit          3D

 56 58  0  0  0  0  0  0  0  0999 V2000
   59.6400   33.7820   49.6520 C   0  0  0  0  0  0  0  0  0  0  0  0
   60.1150   34.5650   48.4640 C   0  0  0  0  0  0  0  0  0  0  0  0
   60.2990   33.8040   47.2990 O   0  0  0  0  0  0  0  0  0  0  0  0
   59.3300   33.5060   46.3570 C   0  0  0  0  0  0  0  0  0  0  0  0
   58.6160   34.5600   45.8390 C   0  0  0  0  0  0  0  0  0  0  0  0
   57.6530   34.2940   44.8930 C   0  0  0  0  0  0  0  0  0  0  0  0
   57.4220   32.9780   44.4800 C   0  0  0  0  0  0  0  0  0  0  0  0
   58.1410   31.9260   45.0030 C   0  0  0  0  0  0  0  0  0  0  0  0
   59.1150   32.1980   45.9640 C   0  0  0  0  0  0  0  0  0  0  0  0
   59.8810   31.1950   46.4910 C   0  0  0  0  0  0  0  0  0  0  0  0
   60.8090   31.3350   47.5610 N   0  0  0  0  0  0  0  0  0  0  0  0
   60.7060   30.5940   48.8020 C   0  0  0  0  0  0  0  0  0  0  0  0
   61.8450   30.6640   49.7760 C   0  0  0  0  0  0  0  0  0  0  0  0
   62.4880   32.0110   49.7580 C   0  0  0  0  0  0  0  0  0  0  0  0
   63.3970   32.3220   48.7260 N   0  0  0  0  0  0  0  0  0  0  0  0
   64.7370   32.3930   49.3870 C   0  0  0  0  0  0  0  0  0  0  0  0
   63.2810   33.5970   48.0890 C   0  0  0  0  0  0  0  0  0  0  0  0
   63.3670   33.6570   46.6130 C   0  0  0  0  0  0  0  0  0  0  0  0
   59.6480   29.8930   46.0160 C   0  0  0  0  0  0  0  0  0  0  0  0
   60.4000   28.8290   46.4810 C   0  0  0  0  0  0  0  0  0  0  0  0
   60.2290   27.5330   46.0410 C   0  0  0  0  0  0  0  0  0  0  0  0
   59.2710   27.2980   45.1030 C   0  0  0  0  0  0  0  0  0  0  0  0
   58.5020   28.3510   44.6150 C   0  0  0  0  0  0  0  0  0  0  0  0
   58.6690   29.6540   45.0540 C   0  0  0  0  0  0  0  0  0  0  0  0
   57.9120   30.6750   44.5490 N   0  0  0  0  0  0  0  0  0  0  0  0
   56.9060   30.3470   43.5750 C   0  0  0  0  0  0  0  0  0  0  0  0
   59.9499   34.2929   50.5756 H   0  0  0  0  0  0  0  0  0  0  0  0
   58.5430   33.7053   49.6258 H   0  0  0  0  0  0  0  0  0  0  0  0
   60.0788   32.7736   49.6258 H   0  0  0  0  0  0  0  0  0  0  0  0
   59.3721   35.3473   48.2492 H   0  0  0  0  0  0  0  0  0  0  0  0
   61.1022   34.9698   48.7315 H   0  0  0  0  0  0  0  0  0  0  0  0
   58.8096   35.5902   46.1723 H   0  0  0  0  0  0  0  0  0  0  0  0
   57.0644   35.1169   44.4613 H   0  0  0  0  0  0  0  0  0  0  0  0
   56.6502   32.7789   43.7219 H   0  0  0  0  0  0  0  0  0  0  0  0
   61.6360   32.0100   47.4850 H   0  0  0  0  0  0  0  0  0  0  0  0
   59.8095   30.9592   49.3244 H   0  0  0  0  0  0  0  0  0  0  0  0
   60.6879   29.5408   48.4852 H   0  0  0  0  0  0  0  0  0  0  0  0
   61.4647   30.4613   50.7881 H   0  0  0  0  0  0  0  0  0  0  0  0
   62.5970   29.9149   49.4873 H   0  0  0  0  0  0  0  0  0  0  0  0
   61.6782   32.7538   49.7086 H   0  0  0  0  0  0  0  0  0  0  0  0
   63.1083   32.0187   50.6664 H   0  0  0  0  0  0  0  0  0  0  0  0
   64.6078   32.3862   50.4794 H   0  0  0  0  0  0  0  0  0  0  0  0
   65.3418   31.5256   49.0839 H   0  0  0  0  0  0  0  0  0  0  0  0
   65.2468   33.3194   49.0839 H   0  0  0  0  0  0  0  0  0  0  0  0
   62.3049   34.0158   48.3751 H   0  0  0  0  0  0  0  0  0  0  0  0
   64.1652   34.1529   48.4340 H   0  0  0  0  0  0  0  0  0  0  0  0
   64.2367   34.2638   46.3208 H   0  0  0  0  0  0  0  0  0  0  0  0
   63.4780   32.6393   46.2105 H   0  0  0  0  0  0  0  0  0  0  0  0
   62.4502   34.1125   46.2105 H   0  0  0  0  0  0  0  0  0  0  0  0
   61.1724   29.0263   47.2390 H   0  0  0  0  0  0  0  0  0  0  0  0
   60.8481   26.7141   46.4362 H   0  0  0  0  0  0  0  0  0  0  0  0
   59.1045   26.2764   44.7307 H   0  0  0  0  0  0  0  0  0  0  0  0
   57.7354   28.1409   43.8546 H   0  0  0  0  0  0  0  0  0  0  0  0
   55.9817   30.0457   44.0897 H   0  0  0  0  0  0  0  0  0  0  0  0
   56.7050   31.2261   42.9452 H   0  0  0  0  0  0  0  0  0  0  0  0
   57.2618   29.5183   42.9452 H   0  0  0  0  0  0  0  0  0  0  0  0
  1  2  1  0
  2  3  1  0
  3  4  1  0
  4  5  2  0
  5  6  1  0
  6  7  2  0
  7  8  1  0
  8  9  2  0
  9 10  1  0
 10 11  1  0
 11 12  1  0
 12 13  1  0
 13 14  1  0
 14 15  1  0
 15 16  1  0
 15 17  1  0
 17 18  1  0
 10 19  2  0
 19 20  1  0
 20 21  2  0
 21 22  1  0
 22 23  2  0
 23 24  1  0
 24 25  2  0
 25 26  1  0
  9  4  1  0
 24 19  1  0
 25  8  1  0
  1 27  1  0
  1 28  1  0
  1 29  1  0
  2 30  1  0
  2 31  1  0
  5 32  1  0
  6 33  1  0
  7 34  1  0
 11 35  1  0
 12 36  1  0
 12 37  1  0
 13 38  1  0
 13 39  1  0
 14 40  1  0
 14 41  1  0
 16 42  1  0
 16 43  1  0
 16 44  1  0
 17 45  1  0
 17 46  1  0
 18 47  1  0
 18 48  1  0
 18 49  1  0
 20 50  1  0
 21 51  1  0
 22 52  1  0
 23 53  1  0
 26 54  1  0
 26 55  1  0
 26 56  1  0
M  CHG  1  25   1
M  END
>  <smiles>  (21) 
CCOc1cccc2c1c(NCCCN(C)CC)c1ccccc1[n+]2C

>  <score_type>  (21) 
oracle

>  <origin>  (21) 
adg

>  <m_score__min__energy>  (21) 
-5.96

>  <m_primary>  (21) 
energy

$$$$
22:0
     RDKit          3D

 39 41  0  0  0  0  0  0  0  0999 V2000
   59.1330   35.0520   44.8770 C   0  0  0  0  0  0  0  0  0  0  0  0
   59.5300   34.2250   46.0370 C   0  0  0  0  0  0  0  0  0  0  0  0
   60.8620   34.1890   46.4610 C   0  0  0  0  0  0  0  0  0  0  0  0
   61.2350   33.4180   47.5430 C   0  0  0  0  0  0  0  0  0  0  0  0
   62.6590   33.4200   47.9440 C   0  0  0  0  0  0  0  0  0  0  0  0
   63.3650   32.0910   47.5740 C   0  0  0  0  0  0  0  0  0  0  0  0
   63.7570   33.4420   46.9860 C   0  0  0  0  0  0  0  0  0  0  0  0
   60.2860   32.6740   48.2150 C   0  0  0  0  0  0  0  0  0  0  0  0
   58.9960   32.7400   47.7660 C   0  0  0  0  0  0  0  0  0  0  0  0
   58.1360   32.0490   48.3970 O   0  0  0  0  0  0  0  0  0  0  0  0
   58.6150   33.4960   46.7010 N   0  0  0  0  0  0  0  0  0  0  0  0
   57.2230   33.4760   46.3310 C   0  0  0  0  0  0  0  0  0  0  0  0
   57.0270   32.8130   45.0030 C   0  0  0  0  0  0  0  0  0  0  0  0
   56.6550   31.4530   45.1590 O   0  0  0  0  0  0  0  0  0  0  0  0
   57.4710   30.3780   44.9300 C   0  0  0  0  0  0  0  0  0  0  0  0
   58.7600   30.4290   45.4260 C   0  0  0  0  0  0  0  0  0  0  0  0
   59.5870   29.3550   45.2030 C   0  0  0  0  0  0  0  0  0  0  0  0
   59.1080   28.2640   44.4940 C   0  0  0  0  0  0  0  0  0  0  0  0
   57.8330   28.1970   43.9960 C   0  0  0  0  0  0  0  0  0  0  0  0
   57.0030   29.2870   44.2260 C   0  0  0  0  0  0  0  0  0  0  0  0
   58.6825   35.9904   45.2327 H   0  0  0  0  0  0  0  0  0  0  0  0
   60.0203   35.2791   44.2677 H   0  0  0  0  0  0  0  0  0  0  0  0
   58.4009   34.5017   44.2677 H   0  0  0  0  0  0  0  0  0  0  0  0
   61.6198   34.7810   45.9269 H   0  0  0  0  0  0  0  0  0  0  0  0
   62.4735   34.0552   48.8227 H   0  0  0  0  0  0  0  0  0  0  0  0
   64.0201   31.5852   48.2986 H   0  0  0  0  0  0  0  0  0  0  0  0
   63.0613   31.1089   47.1825 H   0  0  0  0  0  0  0  0  0  0  0  0
   64.7160   33.8999   47.2700 H   0  0  0  0  0  0  0  0  0  0  0  0
   63.8663   33.8242   45.9604 H   0  0  0  0  0  0  0  0  0  0  0  0
   60.5575   32.0509   49.0799 H   0  0  0  0  0  0  0  0  0  0  0  0
   56.6562   32.9239   47.0952 H   0  0  0  0  0  0  0  0  0  0  0  0
   56.8660   34.5140   46.2590 H   0  0  0  0  0  0  0  0  0  0  0  0
   56.2348   33.3408   44.4518 H   0  0  0  0  0  0  0  0  0  0  0  0
   57.9769   32.8532   44.4498 H   0  0  0  0  0  0  0  0  0  0  0  0
   59.1147   31.3073   45.9852 H   0  0  0  0  0  0  0  0  0  0  0  0
   60.6192   29.3605   45.5832 H   0  0  0  0  0  0  0  0  0  0  0  0
   59.7830   27.4124   44.3232 H   0  0  0  0  0  0  0  0  0  0  0  0
   57.4815   27.3169   43.4375 H   0  0  0  0  0  0  0  0  0  0  0  0
   55.9706   29.2805   43.8463 H   0  0  0  0  0  0  0  0  0  0  0  0
  1  2  1  0
  2  3  2  0
  3  4  1  0
  4  5  1  0
  5  6  1  0
  6  7  1  0
  4  8  2  0
  8  9  1  0
  9 10  2  0
  9 11  1  0
 11 12  1  0
 12 13  1  0
 13 14  1  0
 14 15  1  0
 15 16  2  0
 16 17  1  0
 17 18  2  0
 18 19  1  0
 19 20  2  0
 11  2  1  0
 20 15  1  0
  7  5  1  0
  1 21  1  0
  1 22  1  0
  1 23  1  0
  3 24  1  0
  5 25  1  0
  6 26  1  0
  6 27  1  0
  7 28  1  0
  7 29  1  0
  8 30  1  0
 12 31  1  0
 12 32  1  0
 13 33  1  0
 13 34  1  0
 16 35  1  0
 17 36  1  0
 18 37  1  0
 19 38  1  0
 20 39  1  0
M  END
>  <smiles>  (22) 
Cc1cc(C2CC2)cc(=O)n1CCOc1ccccc1

>  <score_type>  (22) 
oracle

>  <origin>  (22) 
adg

>  <m_score__min__energy>  (22) 
-7.0700000000000003

>  <m_primary>  (22) 
energy

$$$$
23:0
     RDKit          3D

 49 52  0  0  0  0  0  0  0  0999 V2000
   59.7480   26.2250   45.9980 C   0  0  0  0  0  0  0  0  0  0  0  0
   58.4470   26.7950   45.7700 N   0  0  0  0  0  0  0  0  0  0  0  0
   57.2230   26.2240   45.9670 C   0  0  0  0  0  0  0  0  0  0  0  0
   56.9670   24.8650   46.4670 C   0  0  0  0  0  0  0  0  0  0  0  0
   57.5220   23.8690   45.6170 N   0  0  0  0  0  0  0  0  0  0  0  0
   57.1860   22.5240   45.8880 C   0  0  0  0  0  0  0  0  0  0  0  0
   56.4180   21.7550   44.9050 C   0  0  0  0  0  0  0  0  0  0  0  0
   55.8730   22.3990   43.8450 O   0  0  0  0  0  0  0  0  0  0  0  0
   56.1810   23.7180   43.6760 C   0  0  0  0  0  0  0  0  0  0  0  0
   57.5000   24.1370   44.2180 C   0  0  0  0  0  0  0  0  0  0  0  0
   56.2600   27.1280   45.6190 N   0  0  0  0  0  0  0  0  0  0  0  0
   56.8300   28.2490   45.2110 C   0  0  0  0  0  0  0  0  0  0  0  0
   58.2080   28.0320   45.3090 C   0  0  0  0  0  0  0  0  0  0  0  0
   59.0520   29.1970   44.8880 C   0  0  0  0  0  0  0  0  0  0  0  0
   58.5320   30.3840   45.6280 C   0  0  0  0  0  0  0  0  0  0  0  0
   57.1750   30.6430   45.3010 N   0  0  0  0  0  0  0  0  0  0  0  0
   57.0050   31.9390   44.6940 C   0  0  0  0  0  0  0  0  0  0  0  0
   57.7770   32.9890   45.4030 C   0  0  0  0  0  0  0  0  0  0  0  0
   57.7610   33.1590   46.7690 C   0  0  0  0  0  0  0  0  0  0  0  0
   58.5270   34.1740   47.3120 C   0  0  0  0  0  0  0  0  0  0  0  0
   59.2820   34.9980   46.5530 N   0  0  0  0  0  0  0  0  0  0  0  0
   59.2900   34.8240   45.2130 C   0  0  0  0  0  0  0  0  0  0  0  0
   58.5500   33.8280   44.5930 C   0  0  0  0  0  0  0  0  0  0  0  0
   56.4300   29.5870   44.7100 C   0  0  0  0  0  0  0  0  0  0  0  0
   59.9290   26.1457   47.0801 H   0  0  0  0  0  0  0  0  0  0  0  0
   59.7945   25.2241   45.5441 H   0  0  0  0  0  0  0  0  0  0  0  0
   60.5153   26.8694   45.5441 H   0  0  0  0  0  0  0  0  0  0  0  0
   57.4124   24.7655   47.4679 H   0  0  0  0  0  0  0  0  0  0  0  0
   55.8777   24.7151   46.4983 H   0  0  0  0  0  0  0  0  0  0  0  0
   58.1316   21.9848   46.0465 H   0  0  0  0  0  0  0  0  0  0  0  0
   56.5015   22.5990   46.7458 H   0  0  0  0  0  0  0  0  0  0  0  0
   57.0914   20.9843   44.5019 H   0  0  0  0  0  0  0  0  0  0  0  0
   55.5458   21.3991   45.4731 H   0  0  0  0  0  0  0  0  0  0  0  0
   56.1730   23.9333   42.5973 H   0  0  0  0  0  0  0  0  0  0  0  0
   55.4260   24.2817   44.2437 H   0  0  0  0  0  0  0  0  0  0  0  0
   58.3018   23.5723   43.7198 H   0  0  0  0  0  0  0  0  0  0  0  0
   57.6563   25.2109   44.0384 H   0  0  0  0  0  0  0  0  0  0  0  0
   60.1054   29.0176   45.1491 H   0  0  0  0  0  0  0  0  0  0  0  0
   59.0025   29.3525   43.8002 H   0  0  0  0  0  0  0  0  0  0  0  0
   58.6101   30.1947   46.7088 H   0  0  0  0  0  0  0  0  0  0  0  0
   59.1312   31.2609   45.3417 H   0  0  0  0  0  0  0  0  0  0  0  0
   57.3476   31.8901   43.6498 H   0  0  0  0  0  0  0  0  0  0  0  0
   55.9389   32.2040   44.7503 H   0  0  0  0  0  0  0  0  0  0  0  0
   57.1545   32.5042   47.4120 H   0  0  0  0  0  0  0  0  0  0  0  0
   58.5214   34.3159   48.4028 H   0  0  0  0  0  0  0  0  0  0  0  0
   59.9037   35.4944   44.5933 H   0  0  0  0  0  0  0  0  0  0  0  0
   58.5702   33.7019   43.5004 H   0  0  0  0  0  0  0  0  0  0  0  0
   55.3640   29.7414   44.9334 H   0  0  0  0  0  0  0  0  0  0  0  0
   56.6281   29.6078   43.6282 H   0  0  0  0  0  0  0  0  0  0  0  0
  1  2  1  0
  2  3  1  0
  3  4  1  0
  4  5  1  0
  5  6  1  0
  6  7  1  0
  7  8  1  0
  8  9  1  0
  9 10  1  0
  3 11  2  0
 11 12  1  0
 12 13  2  0
 13 14  1  0
 14 15  1  0
 15 16  1  0
 16 17  1  0
 17 18  1  0
 18 19  2  0
 19 20  1  0
 20 21  2  0
 21 22  1  0
 22 23  2  0
 16 24  1  0
 13  2  1  0
 23 18  1  0
 10  5  1  0
 24 12  1  0
  1 25  1  0
  1 26  1  0
  1 27  1  0
  4 28  1  0
  4 29  1  0
  6 30  1  0
  6 31  1  0
  7 32  1  0
  7 33  1  0
  9 34  1  0
  9 35  1  0
 10 36  1  0
 10 37  1  0
 14 38  1  0
 14 39  1  0
 15 40  1  0
 15 41  1  0
 17 42  1  0
 17 43  1  0
 19 44  1  0
 20 45  1  0
 22 46  1  0
 23 47  1  0
 24 48  1  0
 24 49  1  0
M  END
>  <smiles>  (23) 
Cn1c(CN2CCOCC2)nc2c1CCN(Cc1ccncc1)C2

>  <score_type>  (23) 
oracle

>  <origin>  (23) 
adg

>  <m_score__min__energy>  (23) 
-7.79

>  <m_primary>  (23) 
energy

$$$$
24:0
     RDKit          3D

 72 75  0  0  0  0  0  0  0  0999 V2000
   57.5070   31.6760   42.7400 C   0  0  0  0  0  0  0  0  0  0  0  0
   57.9910   31.1570   44.0610 C   0  0  0  0  0  0  0  0  0  0  0  0
   56.9680   30.5030   44.8030 N   0  0  0  0  0  0  0  0  0  0  0  0
   55.8510   30.1080   43.9970 C   0  0  0  0  0  0  0  0  0  0  0  0
   57.4010   29.5110   45.7420 C   0  0  0  0  0  0  0  0  0  0  0  0
   58.6770   28.8170   45.3660 C   0  0  0  0  0  0  0  0  0  0  0  0
   59.6920   28.9220   46.3020 O   0  0  0  0  0  0  0  0  0  0  0  0
   60.1010   27.7510   46.8790 C   0  0  0  0  0  0  0  0  0  0  0  0
   60.6050   27.8740   48.2850 C   0  0  0  0  0  0  0  0  0  0  0  0
   60.0390   28.8320   49.0660 O   0  0  0  0  0  0  0  0  0  0  0  0
   60.0040   28.6410   50.4120 C   0  0  0  0  0  0  0  0  0  0  0  0
   61.0380   29.5290   51.1360 C   0  0  0  0  0  0  0  0  0  0  0  0
   60.7140   30.9120   51.0090 N   0  0  0  0  0  0  0  0  0  0  0  0
   61.2060   31.7060   49.9060 C   0  0  0  0  0  0  0  0  0  0  0  0
   62.5530   32.0010   49.8180 C   0  0  0  0  0  0  0  0  0  0  0  0
   63.0310   32.7620   48.7720 C   0  0  0  0  0  0  0  0  0  0  0  0
   62.1770   33.2350   47.8050 N   0  0  0  0  0  0  0  0  0  0  0  0
   62.7540   34.0620   46.7950 C   0  0  0  0  0  0  0  0  0  0  0  0
   60.8530   32.9350   47.9040 C   0  0  0  0  0  0  0  0  0  0  0  0
   60.3430   32.1780   48.9360 C   0  0  0  0  0  0  0  0  0  0  0  0
   58.9290   31.7720   49.0840 C   0  0  0  0  0  0  0  0  0  0  0  0
   57.9420   32.5540   48.3000 C   0  0  0  0  0  0  0  0  0  0  0  0
   58.5390   33.2290   47.1190 C   0  0  0  0  0  0  0  0  0  0  0  0
   57.5900   33.6540   46.1730 C   0  0  0  0  0  0  0  0  0  0  0  0
   58.0200   34.3220   45.0660 C   0  0  0  0  0  0  0  0  0  0  0  0
   59.3340   34.5780   44.8680 C   0  0  0  0  0  0  0  0  0  0  0  0
   60.2700   34.1400   45.8280 C   0  0  0  0  0  0  0  0  0  0  0  0
   59.8840   33.4650   46.9600 C   0  0  0  0  0  0  0  0  0  0  0  0
   64.5040   33.0760   48.6910 C   0  0  0  0  0  0  0  0  0  0  0  0
   65.2980   32.3850   49.7460 C   0  0  0  0  0  0  0  0  0  0  0  0
   64.5890   32.3630   51.0850 C   0  0  0  0  0  0  0  0  0  0  0  0
   63.4070   31.4440   50.8960 C   0  0  0  0  0  0  0  0  0  0  0  0
   56.7656   32.4711   42.9078 H   0  0  0  0  0  0  0  0  0  0  0  0
   58.3570   32.0814   42.1716 H   0  0  0  0  0  0  0  0  0  0  0  0
   57.0434   30.8563   42.1716 H   0  0  0  0  0  0  0  0  0  0  0  0
   58.8067   30.4415   43.8803 H   0  0  0  0  0  0  0  0  0  0  0  0
   58.3301   32.0201   44.6527 H   0  0  0  0  0  0  0  0  0  0  0  0
   55.0152   29.8124   44.6482 H   0  0  0  0  0  0  0  0  0  0  0  0
   55.5407   30.9509   43.3620 H   0  0  0  0  0  0  0  0  0  0  0  0
   56.1396   29.2574   43.3620 H   0  0  0  0  0  0  0  0  0  0  0  0
   57.5497   30.0006   46.7157 H   0  0  0  0  0  0  0  0  0  0  0  0
   56.6185   28.7383   45.7657 H   0  0  0  0  0  0  0  0  0  0  0  0
   58.4557   27.7495   45.2193 H   0  0  0  0  0  0  0  0  0  0  0  0
   59.0429   29.3132   44.4550 H   0  0  0  0  0  0  0  0  0  0  0  0
   59.2473   27.0573   46.8831 H   0  0  0  0  0  0  0  0  0  0  0  0
   60.9525   27.3966   46.2796 H   0  0  0  0  0  0  0  0  0  0  0  0
   60.4437   26.9052   48.7804 H   0  0  0  0  0  0  0  0  0  0  0  0
   61.6578   28.1762   48.1835 H   0  0  0  0  0  0  0  0  0  0  0  0
   58.9983   28.8889   50.7822 H   0  0  0  0  0  0  0  0  0  0  0  0
   60.2484   27.5884   50.6178 H   0  0  0  0  0  0  0  0  0  0  0  0
   61.0551   29.2617   52.2029 H   0  0  0  0  0  0  0  0  0  0  0  0
   62.0228   29.3599   50.6761 H   0  0  0  0  0  0  0  0  0  0  0  0
   60.1090   31.3610   51.7240 H   0  0  0  0  0  0  0  0  0  0  0  0
   63.3222   34.8764   47.2683 H   0  0  0  0  0  0  0  0  0  0  0  0
   63.4288   33.4596   46.1691 H   0  0  0  0  0  0  0  0  0  0  0  0
   61.9557   34.4874   46.1691 H   0  0  0  0  0  0  0  0  0  0  0  0
   58.8469   30.7197   48.7743 H   0  0  0  0  0  0  0  0  0  0  0  0
   58.6781   31.9516   50.1398 H   0  0  0  0  0  0  0  0  0  0  0  0
   57.1524   31.8720   47.9514 H   0  0  0  0  0  0  0  0  0  0  0  0
   57.5460   33.3390   48.9610 H   0  0  0  0  0  0  0  0  0  0  0  0
   56.5195   33.4509   46.3237 H   0  0  0  0  0  0  0  0  0  0  0  0
   57.2857   34.6593   44.3197 H   0  0  0  0  0  0  0  0  0  0  0  0
   59.6675   35.1201   43.9709 H   0  0  0  0  0  0  0  0  0  0  0  0
   61.3385   34.3447   45.6655 H   0  0  0  0  0  0  0  0  0  0  0  0
   64.8775   32.7601   47.7058 H   0  0  0  0  0  0  0  0  0  0  0  0
   64.6217   34.1592   48.8424 H   0  0  0  0  0  0  0  0  0  0  0  0
   65.4817   31.3484   49.4271 H   0  0  0  0  0  0  0  0  0  0  0  0
   66.2382   32.9412   49.8748 H   0  0  0  0  0  0  0  0  0  0  0  0
   65.2570   31.9751   51.8681 H   0  0  0  0  0  0  0  0  0  0  0  0
   64.2786   33.3700   51.4007 H   0  0  0  0  0  0  0  0  0  0  0  0
   63.7573   30.4406   50.6123 H   0  0  0  0  0  0  0  0  0  0  0  0
   62.8340   31.3654   51.8317 H   0  0  0  0  0  0  0  0  0  0  0  0
  1  2  1  0
  2  3  1  0
  3  4  1  0
  3  5  1  0
  5  6  1  0
  6  7  1  0
  7  8  1  0
  8  9  1  0
  9 10  1  0
 10 11  1  0
 11 12  1  0
 12 13  1  0
 13 14  1  0
 14 15  2  0
 15 16  1  0
 16 17  2  0
 17 18  1  0
 17 19  1  0
 19 20  2  0
 20 21  1  0
 21 22  1  0
 22 23  1  0
 23 24  2  0
 24 25  1  0
 25 26  2  0
 26 27  1  0
 27 28  2  0
 16 29  1  0
 29 30  1  0
 30 31  1  0
 31 32  1  0
 20 14  1  0
 28 23  1  0
 32 15  1  0
 28 19  1  0
  1 33  1  0
  1 34  1  0
  1 35  1  0
  2 36  1  0
  2 37  1  0
  4 38  1  0
  4 39  1  0
  4 40  1  0
  5 41  1  0
  5 42  1  0
  6 43  1  0
  6 44  1  0
  8 45  1  0
  8 46  1  0
  9 47  1  0
  9 48  1  0
 11 49  1  0
 11 50  1  0
 12 51  1  0
 12 52  1  0
 13 53  1  0
 18 54  1  0
 18 55  1  0
 18 56  1  0
 21 57  1  0
 21 58  1  0
 22 59  1  0
 22 60  1  0
 24 61  1  0
 25 62  1  0
 26 63  1  0
 27 64  1  0
 29 65  1  0
 29 66  1  0
 30 67  1  0
 30 68  1  0
 31 69  1  0
 31 70  1  0
 32 71  1  0
 32 72  1  0
M  CHG  1  17   1
M  END
>  <smiles>  (24) 
CCN(C)CCOCCOCCNc1c2c([n+](C)c3c1CCc1ccccc1-3)CCCC2

>  <score_type>  (24) 
oracle

>  <origin>  (24) 
adg

>  <m_score__min__energy>  (24) 
-6.4800000000000004

>  <m_primary>  (24) 
energy

$$$$
25:0
     RDKit          3D

 63 65  0  0  0  0  0  0  0  0999 V2000
   58.2320   21.9710   44.1290 C   0  0  0  0  0  0  0  0  0  0  0  0
   56.8740   21.4070   43.8080 C   0  0  0  0  0  0  0  0  0  0  0  0
   55.8550   22.4640   43.7990 N   0  0  0  0  0  0  0  0  0  0  0  0
   56.4490   23.5460   42.9980 C   0  0  0  0  0  0  0  0  0  0  0  0
   55.6210   22.9310   45.1670 C   0  0  0  0  0  0  0  0  0  0  0  0
   54.9700   24.2800   45.1060 C   0  0  0  0  0  0  0  0  0  0  0  0
   55.4800   25.1850   46.0090 O   0  0  0  0  0  0  0  0  0  0  0  0
   56.5680   25.9050   45.5720 C   0  0  0  0  0  0  0  0  0  0  0  0
   57.2020   26.5500   46.8070 C   0  0  0  0  0  0  0  0  0  0  0  0
   57.8040   27.7040   46.3940 O   0  0  0  0  0  0  0  0  0  0  0  0
   59.1780   27.7580   46.5390 C   0  0  0  0  0  0  0  0  0  0  0  0
   59.5670   28.8200   47.4870 C   0  0  0  0  0  0  0  0  0  0  0  0
   58.6470   29.9250   47.6460 N   0  0  0  0  0  0  0  0  0  0  0  0
   58.7240   31.1490   46.9640 C   0  0  0  0  0  0  0  0  0  0  0  0
   59.2920   32.2470   47.6230 C   0  0  0  0  0  0  0  0  0  0  0  0
   59.7680   32.0820   48.9120 C   0  0  0  0  0  0  0  0  0  0  0  0
   60.3470   33.1400   49.6230 C   0  0  0  0  0  0  0  0  0  0  0  0
   60.4190   34.3490   48.9720 C   0  0  0  0  0  0  0  0  0  0  0  0
   59.9420   34.5270   47.6690 C   0  0  0  0  0  0  0  0  0  0  0  0
   59.3780   33.4880   46.9800 C   0  0  0  0  0  0  0  0  0  0  0  0
   58.9380   33.6950   45.7420 N   0  0  0  0  0  0  0  0  0  0  0  0
   59.0020   34.9370   45.0180 C   0  0  0  0  0  0  0  0  0  0  0  0
   58.3820   32.6410   45.0780 C   0  0  0  0  0  0  0  0  0  0  0  0
   57.9140   32.7900   43.7820 C   0  0  0  0  0  0  0  0  0  0  0  0
   57.3500   31.7290   43.0740 C   0  0  0  0  0  0  0  0  0  0  0  0
   57.2530   30.5030   43.6710 C   0  0  0  0  0  0  0  0  0  0  0  0
   56.6560   29.3510   42.9400 C   0  0  0  0  0  0  0  0  0  0  0  0
   57.7240   30.3680   44.9690 C   0  0  0  0  0  0  0  0  0  0  0  0
   58.2800   31.3880   45.6870 C   0  0  0  0  0  0  0  0  0  0  0  0
   58.3586   22.0236   45.2204 H   0  0  0  0  0  0  0  0  0  0  0  0
   59.0095   21.3214   43.7006 H   0  0  0  0  0  0  0  0  0  0  0  0
   58.3205   22.9803   43.7006 H   0  0  0  0  0  0  0  0  0  0  0  0
   56.9072   20.9307   42.8170 H   0  0  0  0  0  0  0  0  0  0  0  0
   56.6085   20.6703   44.5805 H   0  0  0  0  0  0  0  0  0  0  0  0
   56.8687   24.3105   43.6684 H   0  0  0  0  0  0  0  0  0  0  0  0
   57.2485   23.1360   42.3634 H   0  0  0  0  0  0  0  0  0  0  0  0
   55.6739   24.0004   42.3634 H   0  0  0  0  0  0  0  0  0  0  0  0
   54.9615   22.2245   45.6922 H   0  0  0  0  0  0  0  0  0  0  0  0
   56.5752   22.9980   45.7101 H   0  0  0  0  0  0  0  0  0  0  0  0
   55.1078   24.6859   44.0930 H   0  0  0  0  0  0  0  0  0  0  0  0
   53.9099   24.1356   45.3616 H   0  0  0  0  0  0  0  0  0  0  0  0
   57.2910   25.2368   45.0814 H   0  0  0  0  0  0  0  0  0  0  0  0
   56.2655   26.6694   44.8411 H   0  0  0  0  0  0  0  0  0  0  0  0
   56.4271   26.7755   47.5545 H   0  0  0  0  0  0  0  0  0  0  0  0
   57.9333   25.8716   47.2707 H   0  0  0  0  0  0  0  0  0  0  0  0
   59.5386   26.7894   46.9157 H   0  0  0  0  0  0  0  0  0  0  0  0
   59.6259   27.9806   45.5593 H   0  0  0  0  0  0  0  0  0  0  0  0
   59.6985   28.3525   48.4740 H   0  0  0  0  0  0  0  0  0  0  0  0
   60.4783   29.2649   47.0608 H   0  0  0  0  0  0  0  0  0  0  0  0
   57.8350   29.8280   48.3320 H   0  0  0  0  0  0  0  0  0  0  0  0
   59.6894   31.0944   49.3901 H   0  0  0  0  0  0  0  0  0  0  0  0
   60.7243   33.0109   50.6482 H   0  0  0  0  0  0  0  0  0  0  0  0
   60.8677   35.2068   49.4944 H   0  0  0  0  0  0  0  0  0  0  0  0
   60.0214   35.5151   47.1921 H   0  0  0  0  0  0  0  0  0  0  0  0
   59.0452   35.7745   45.7298 H   0  0  0  0  0  0  0  0  0  0  0  0
   59.9018   34.9467   44.3854 H   0  0  0  0  0  0  0  0  0  0  0  0
   58.1079   35.0391   44.3854 H   0  0  0  0  0  0  0  0  0  0  0  0
   57.9897   33.7746   43.2973 H   0  0  0  0  0  0  0  0  0  0  0  0
   56.9871   31.8771   42.0462 H   0  0  0  0  0  0  0  0  0  0  0  0
   56.2748   28.6154   43.6636 H   0  0  0  0  0  0  0  0  0  0  0  0
   55.8287   29.7066   42.3082 H   0  0  0  0  0  0  0  0  0  0  0  0
   57.4236   28.8801   42.3082 H   0  0  0  0  0  0  0  0  0  0  0  0
   57.6449   29.3810   45.4481 H   0  0  0  0  0  0  0  0  0  0  0  0
  1  2  1  0
  2  3  1  0
  3  4  1  0
  3  5  1  0
  5  6  1  0
  6  7  1  0
  7  8  1  0
  8  9  1  0
  9 10  1  0
 10 11  1  0
 11 12  1  0
 12 13  1  0
 13 14  1  0
 14 15  2  0
 15 16  1  0
 16 17  2  0
 17 18  1  0
 18 19  2  0
 19 20  1  0
 20 21  2  0
 21 22  1  0
 21 23  1  0
 23 24  2  0
 24 25  1  0
 25 26  2  0
 26 27  1  0
 26 28  1  0
 28 29  2  0
 29 14  1  0
 20 15  1  0
 29 23  1  0
  1 30  1  0
  1 31  1  0
  1 32  1  0
  2 33  1  0
  2 34  1  0
  4 35  1  0
  4 36  1  0
  4 37  1  0
  5 38  1  0
  5 39  1  0
  6 40  1  0
  6 41  1  0
  8 42  1  0
  8 43  1  0
  9 44  1  0
  9 45  1  0
 11 46  1  0
 11 47  1  0
 12 48  1  0
 12 49  1  0
 13 50  1  0
 16 51  1  0
 17 52  1  0
 18 53  1  0
 19 54  1  0
 22 55  1  0
 22 56  1  0
 22 57  1  0
 24 58  1  0
 25 59  1  0
 27 60  1  0
 27 61  1  0
 27 62  1  0
 28 63  1  0
M  CHG  1  21   1
M  END
>  <smiles>  (25) 
CCN(C)CCOCCOCCNc1c2ccccc2[n+](C)c2ccc(C)cc12

>  <score_type>  (25) 
oracle

>  <origin>  (25) 
adg

>  <m_score__min__energy>  (25) 
-6.1200000000000001

>  <m_primary>  (25) 
energy

$$$$
27:0
     RDKit          3D

 79 81  0  0  0  0  0  0  0  0999 V2000
   63.4100   33.7370   46.6660 C   0  0  0  0  0  0  0  0  0  0  0  0
   62.1610   32.8850   46.7570 C   0  0  0  0  0  0  0  0  0  0  0  0
   62.1270   32.0150   47.8930 N   0  0  0  0  0  0  0  0  0  0  0  0
   63.4410   31.7690   48.4840 C   0  0  0  0  0  0  0  0  0  0  0  0
   63.1760   31.1860   49.8840 C   0  0  0  0  0  0  0  0  0  0  0  0
   61.8910   30.3820   49.7930 C   0  0  0  0  0  0  0  0  0  0  0  0
   60.7210   31.1740   50.1410 N   0  0  0  0  0  0  0  0  0  0  0  0
   59.5510   30.3050   50.0610 C   0  0  0  0  0  0  0  0  0  0  0  0
   58.9000   30.3730   48.7380 C   0  0  0  0  0  0  0  0  0  0  0  0
   59.8460   30.3520   47.6010 N   0  0  0  0  0  0  0  0  0  0  0  0
   59.2310   29.9360   46.3760 C   0  0  0  0  0  0  0  0  0  0  0  0
   59.2120   28.5370   46.2180 C   0  0  0  0  0  0  0  0  0  0  0  0
   59.8190   27.7230   47.1850 C   0  0  0  0  0  0  0  0  0  0  0  0
   59.8440   26.3540   47.0810 C   0  0  0  0  0  0  0  0  0  0  0  0
   59.2460   25.7900   45.9840 C   0  0  0  0  0  0  0  0  0  0  0  0
   58.6480   26.5830   45.0290 C   0  0  0  0  0  0  0  0  0  0  0  0
   58.6140   27.9630   45.1210 C   0  0  0  0  0  0  0  0  0  0  0  0
   58.0530   28.7640   44.2040 N   0  0  0  0  0  0  0  0  0  0  0  0
   57.3940   28.2090   43.0580 C   0  0  0  0  0  0  0  0  0  0  0  0
   58.0670   30.1120   44.3420 C   0  0  0  0  0  0  0  0  0  0  0  0
   57.4960   30.8440   43.3200 C   0  0  0  0  0  0  0  0  0  0  0  0
   57.5440   32.2160   43.4360 C   0  0  0  0  0  0  0  0  0  0  0  0
   58.1420   32.8220   44.5330 C   0  0  0  0  0  0  0  0  0  0  0  0
   58.7220   32.0980   45.5670 C   0  0  0  0  0  0  0  0  0  0  0  0
   59.3040   32.8060   46.6330 N   0  0  0  0  0  0  0  0  0  0  0  0
   58.8830   34.2190   46.8310 C   0  0  0  0  0  0  0  0  0  0  0  0
   59.6690   34.8050   47.9820 C   0  0  0  0  0  0  0  0  0  0  0  0
   59.5910   33.9130   49.1740 C   0  0  0  0  0  0  0  0  0  0  0  0
   60.6910   33.9690   50.0440 N   0  0  0  0  0  0  0  0  0  0  0  0
   60.4910   33.7790   51.4290 C   0  0  0  0  0  0  0  0  0  0  0  0
   59.0550   33.5440   51.7340 C   0  0  0  0  0  0  0  0  0  0  0  0
   61.9000   34.5490   49.6300 C   0  0  0  0  0  0  0  0  0  0  0  0
   63.0460   34.5250   50.5820 C   0  0  0  0  0  0  0  0  0  0  0  0
   58.6650   30.7320   45.4460 C   0  0  0  0  0  0  0  0  0  0  0  0
   63.7638   33.9784   47.6792 H   0  0  0  0  0  0  0  0  0  0  0  0
   64.1927   33.1837   46.1264 H   0  0  0  0  0  0  0  0  0  0  0  0
   63.1805   34.6677   46.1264 H   0  0  0  0  0  0  0  0  0  0  0  0
   61.2896   33.5543   46.8086 H   0  0  0  0  0  0  0  0  0  0  0  0
   62.1511   32.2414   45.8650 H   0  0  0  0  0  0  0  0  0  0  0  0
   61.5770   32.5140   48.6330 H   0  0  0  0  0  0  0  0  0  0  0  0
   64.0066   31.0510   47.8721 H   0  0  0  0  0  0  0  0  0  0  0  0
   64.0366   32.6922   48.5388 H   0  0  0  0  0  0  0  0  0  0  0  0
   64.0091   30.5342   50.1859 H   0  0  0  0  0  0  0  0  0  0  0  0
   63.0863   31.9869   50.6327 H   0  0  0  0  0  0  0  0  0  0  0  0
   61.7758   30.0137   48.7629 H   0  0  0  0  0  0  0  0  0  0  0  0
   61.9614   29.5507   50.5100 H   0  0  0  0  0  0  0  0  0  0  0  0
   60.5640   31.8960   49.3730 H   0  0  0  0  0  0  0  0  0  0  0  0
   59.8657   29.2678   50.2489 H   0  0  0  0  0  0  0  0  0  0  0  0
   58.8246   30.6436   50.8145 H   0  0  0  0  0  0  0  0  0  0  0  0
   58.2230   29.5115   48.6408 H   0  0  0  0  0  0  0  0  0  0  0  0
   58.3693   31.3355   48.6932 H   0  0  0  0  0  0  0  0  0  0  0  0
   60.8520   30.5780   47.7000 H   0  0  0  0  0  0  0  0  0  0  0  0
   60.2917   28.1977   48.0575 H   0  0  0  0  0  0  0  0  0  0  0  0
   60.3263   25.7326   47.8499 H   0  0  0  0  0  0  0  0  0  0  0  0
   59.2435   24.6964   45.8653 H   0  0  0  0  0  0  0  0  0  0  0  0
   58.1791   26.0998   44.1591 H   0  0  0  0  0  0  0  0  0  0  0  0
   56.5914   27.5331   43.3881 H   0  0  0  0  0  0  0  0  0  0  0  0
   56.9639   29.0210   42.4533 H   0  0  0  0  0  0  0  0  0  0  0  0
   58.1211   27.6471   42.4533 H   0  0  0  0  0  0  0  0  0  0  0  0
   57.0252   30.3550   42.4544 H   0  0  0  0  0  0  0  0  0  0  0  0
   57.1014   32.8415   42.6468 H   0  0  0  0  0  0  0  0  0  0  0  0
   58.1571   33.9206   44.5854 H   0  0  0  0  0  0  0  0  0  0  0  0
   59.9980   32.5280   47.3220 H   0  0  0  0  0  0  0  0  0  0  0  0
   59.0821   34.7958   45.9158 H   0  0  0  0  0  0  0  0  0  0  0  0
   57.8066   34.2605   47.0540 H   0  0  0  0  0  0  0  0  0  0  0  0
   60.7213   34.9173   47.6819 H   0  0  0  0  0  0  0  0  0  0  0  0
   59.2426   35.7851   48.2420 H   0  0  0  0  0  0  0  0  0  0  0  0
   58.6926   34.1890   49.7455 H   0  0  0  0  0  0  0  0  0  0  0  0
   59.5687   32.8857   48.7813 H   0  0  0  0  0  0  0  0  0  0  0  0
   61.0761   32.9085   51.7606 H   0  0  0  0  0  0  0  0  0  0  0  0
   60.8168   34.6871   51.9574 H   0  0  0  0  0  0  0  0  0  0  0  0
   58.9108   33.5204   52.8243 H   0  0  0  0  0  0  0  0  0  0  0  0
   58.4508   34.3552   51.3017 H   0  0  0  0  0  0  0  0  0  0  0  0
   58.7409   32.5825   51.3017 H   0  0  0  0  0  0  0  0  0  0  0  0
   62.2203   34.0235   48.7183 H   0  0  0  0  0  0  0  0  0  0  0  0
   61.6660   35.6167   49.5063 H   0  0  0  0  0  0  0  0  0  0  0  0
   62.6655   34.5330   51.6141 H   0  0  0  0  0  0  0  0  0  0  0  0
   63.6404   33.6142   50.4174 H   0  0  0  0  0  0  0  0  0  0  0  0
   63.6780   35.4101   50.4174 H   0  0  0  0  0  0  0  0  0  0  0  0
  1  2  1  0
  2  3  1  0
  3  4  1  0
  4  5  1  0
  5  6  1  0
  6  7  1  0
  7  8  1  0
  8  9  1  0
  9 10  1  0
 10 11  1  0
 11 12  2  0
 12 13  1  0
 13 14  2  0
 14 15  1  0
 15 16  2  0
 16 17  1  0
 17 18  2  0
 18 19  1  0
 18 20  1  0
 20 21  2  0
 21 22  1  0
 22 23  2  0
 23 24  1  0
 24 25  1  0
 25 26  1  0
 26 27  1  0
 27 28  1  0
 28 29  1  0
 29 30  1  0
 30 31  1  0
 29 32  1  0
 32 33  1  0
 24 34  2  0
 34 11  1  0
 17 12  1  0
 34 20  1  0
  1 35  1  0
  1 36  1  0
  1 37  1  0
  2 38  1  0
  2 39  1  0
  3 40  1  0
  4 41  1  0
  4 42  1  0
  5 43  1  0
  5 44  1  0
  6 45  1  0
  6 46  1  0
  7 47  1  0
  8 48  1  0
  8 49  1  0
  9 50  1  0
  9 51  1  0
 10 52  1  0
 13 53  1  0
 14 54  1  0
 15 55  1  0
 16 56  1  0
 19 57  1  0
 19 58  1  0
 19 59  1  0
 21 60  1  0
 22 61  1  0
 23 62  1  0
 25 63  1  0
 26 64  1  0
 26 65  1  0
 27 66  1  0
 27 67  1  0
 28 68  1  0
 28 69  1  0
 30 70  1  0
 30 71  1  0
 31 72  1  0
 31 73  1  0
 31 74  1  0
 32 75  1  0
 32 76  1  0
 33 77  1  0
 33 78  1  0
 33 79  1  0
M  CHG  1  18   1
M  END
>  <smiles>  (26) 
CCNCCCNCCNc1c2ccccc2[n+](C)c2cccc(NCCCN(CC)CC)c12

>  <score_type>  (26) 
oracle

>  <origin>  (26) 
adg

>  <m_score__min__energy>  (26) 
-5.7699999999999996

>  <m_primary>  (26) 
energy

$$$$
