0:0
     RDKit          3D

 52 54  0  0  0  0  0  0  0  0999 V2000
   63.1200   33.4250   47.5450 C   0  0  0  0  0  0  0  0  0  0  0  0
   62.4110   33.5900   48.8660 C   0  0  0  0  0  0  0  0  0  0  0  0
   61.2710   34.4030   48.8080 O   0  0  0  0  0  0  0  0  0  0  0  0
   60.2890   34.2840   47.8380 C   0  0  0  0  0  0  0  0  0  0  0  0
   60.3380   34.9890   46.6480 C   0  0  0  0  0  0  0  0  0  0  0  0
   59.3680   34.8820   45.6710 C   0  0  0  0  0  0  0  0  0  0  0  0
   58.3080   34.0310   45.9060 C   0  0  0  0  0  0  0  0  0  0  0  0
   57.2210   33.8660   44.8890 C   0  0  0  0  0  0  0  0  0  0  0  0
   57.7670   33.0240   43.7540 C   0  0  0  0  0  0  0  0  0  0  0  0
   58.2520   31.7400   44.1590 N   0  0  0  0  0  0  0  0  0  0  0  0
   57.3750   30.7070   44.5820 C   0  0  0  0  0  0  0  0  0  0  0  0
   56.1340   31.0010   44.5760 O   0  0  0  0  0  0  0  0  0  0  0  0
   57.8240   29.3880   45.0010 C   0  0  0  0  0  0  0  0  0  0  0  0
   59.1370   29.0700   45.2620 C   0  0  0  0  0  0  0  0  0  0  0  0
   59.4970   27.8110   45.6540 C   0  0  0  0  0  0  0  0  0  0  0  0
   58.5520   26.8480   45.7910 C   0  0  0  0  0  0  0  0  0  0  0  0
   57.2170   27.1000   45.5450 C   0  0  0  0  0  0  0  0  0  0  0  0
   56.8910   28.3850   45.1510 C   0  0  0  0  0  0  0  0  0  0  0  0
   56.2010   26.1340   45.6740 N   0  0  0  0  0  0  0  0  0  0  0  0
   56.4610   24.8140   46.0680 C   0  0  0  0  0  0  0  0  0  0  0  0
   55.5580   24.2010   46.7330 O   0  0  0  0  0  0  0  0  0  0  0  0
   57.7330   24.0860   45.7560 C   0  0  0  0  0  0  0  0  0  0  0  0
   59.0700   25.2160   46.3050 S   0  0  0  0  0  0  0  0  0  0  0  0
   58.2680   33.3320   47.0940 C   0  0  0  0  0  0  0  0  0  0  0  0
   59.2210   33.4270   48.0750 C   0  0  0  0  0  0  0  0  0  0  0  0
   59.2000   32.7420   49.2630 O   0  0  0  0  0  0  0  0  0  0  0  0
   58.9470   31.3710   49.4210 C   0  0  0  0  0  0  0  0  0  0  0  0
   59.6570   30.5520   48.3960 C   0  0  0  0  0  0  0  0  0  0  0  0
   64.1770   33.1790   47.7244 H   0  0  0  0  0  0  0  0  0  0  0  0
   62.6464   32.6131   46.9736 H   0  0  0  0  0  0  0  0  0  0  0  0
   63.0536   34.3626   46.9736 H   0  0  0  0  0  0  0  0  0  0  0  0
   62.1070   32.5943   49.2212 H   0  0  0  0  0  0  0  0  0  0  0  0
   63.1194   34.0866   49.5453 H   0  0  0  0  0  0  0  0  0  0  0  0
   61.1879   35.6650   46.4726 H   0  0  0  0  0  0  0  0  0  0  0  0
   59.4383   35.4567   44.7357 H   0  0  0  0  0  0  0  0  0  0  0  0
   56.3561   33.3622   45.3452 H   0  0  0  0  0  0  0  0  0  0  0  0
   56.8952   34.8477   44.5146 H   0  0  0  0  0  0  0  0  0  0  0  0
   56.9632   32.8732   43.0183 H   0  0  0  0  0  0  0  0  0  0  0  0
   58.6264   33.5708   43.3388 H   0  0  0  0  0  0  0  0  0  0  0  0
   59.2730   31.5240   44.1550 H   0  0  0  0  0  0  0  0  0  0  0  0
   59.9115   29.8435   45.1532 H   0  0  0  0  0  0  0  0  0  0  0  0
   60.5527   27.5790   45.8582 H   0  0  0  0  0  0  0  0  0  0  0  0
   55.8354   28.6178   44.9474 H   0  0  0  0  0  0  0  0  0  0  0  0
   55.2160   26.4020   45.4690 H   0  0  0  0  0  0  0  0  0  0  0  0
   57.7797   23.1349   46.3066 H   0  0  0  0  0  0  0  0  0  0  0  0
   57.8153   23.8348   44.6882 H   0  0  0  0  0  0  0  0  0  0  0  0
   57.4178   32.6555   47.2654 H   0  0  0  0  0  0  0  0  0  0  0  0
   59.2846   31.0601   50.4207 H   0  0  0  0  0  0  0  0  0  0  0  0
   57.8661   31.2077   49.2985 H   0  0  0  0  0  0  0  0  0  0  0  0
   60.2983   29.8123   48.8976 H   0  0  0  0  0  0  0  0  0  0  0  0
   58.9195   30.0316   47.7673 H   0  0  0  0  0  0  0  0  0  0  0  0
   60.2768   31.2082   47.7673 H   0  0  0  0  0  0  0  0  0  0  0  0
  1  2  1  0
  2  3  1  0
  3  4  1  0
  4  5  2  0
  5  6  1  0
  6  7  2  0
  7  8  1  0
  8  9  1  0
  9 10  1  0
 10 11  1  0
 11 12  2  0
 11 13  1  0
 13 14  2  0
 14 15  1  0
 15 16  2  0
 16 17  1  0
 17 18  2  0
 17 19  1  0
 19 20  1  0
 20 21  2  0
 20 22  1  0
 22 23  1  0
  7 24  1  0
 24 25  2  0
 25 26  1  0
 26 27  1  0
 27 28  1  0
 25  4  1  0
 18 13  1  0
 23 16  1  0
  1 29  1  0
  1 30  1  0
  1 31  1  0
  2 32  1  0
  2 33  1  0
  5 34  1  0
  6 35  1  0
  8 36  1  0
  8 37  1  0
  9 38  1  0
  9 39  1  0
 10 40  1  0
 14 41  1  0
 15 42  1  0
 18 43  1  0
 19 44  1  0
 22 45  1  0
 22 46  1  0
 24 47  1  0
 27 48  1  0
 27 49  1  0
 28 50  1  0
 28 51  1  0
 28 52  1  0
M  END
>  <smiles>  (1) 
CCOc1ccc(CCNC(=O)c2ccc3c(c2)NC(=O)CS3)cc1OCC

>  <score_type>  (1) 
oracle

>  <origin>  (1) 
adg

>  <m_score__min__energy>  (1) 
-8.6199999999999992

>  <m_primary>  (1) 
energy

$$$$
1:0
     RDKit          3D

 46 48  0  0  0  0  0  0  0  0999 V2000
   56.5860   30.4750   42.6890 C   0  0  0  0  0  0  0  0  0  0  0  0
   55.5450   30.0430   43.7160 C   0  0  0  0  0  0  0  0  0  0  0  0
   56.3050   29.4780   44.8280 N   0  0  0  0  0  0  0  0  0  0  0  0
   57.6360   29.1570   44.4840 C   0  0  0  0  0  0  0  0  0  0  0  0
   58.7430   29.6670   45.3250 C   0  0  0  0  0  0  0  0  0  0  0  0
   58.2990   30.2180   46.6040 N   0  0  0  0  0  0  0  0  0  0  0  0
   59.1620   31.1850   47.1900 C   0  0  0  0  0  0  0  0  0  0  0  0
   59.0420   32.4820   46.6760 C   0  0  0  0  0  0  0  0  0  0  0  0
   59.8650   33.5120   47.1520 C   0  0  0  0  0  0  0  0  0  0  0  0
   60.7750   33.2560   48.1140 N   0  0  0  0  0  0  0  0  0  0  0  0
   61.6360   34.2820   48.6680 C   0  0  0  0  0  0  0  0  0  0  0  0
   60.9050   31.9950   48.6290 C   0  0  0  0  0  0  0  0  0  0  0  0
   61.8210   31.7110   49.6230 C   0  0  0  0  0  0  0  0  0  0  0  0
   61.9650   30.4480   50.1760 C   0  0  0  0  0  0  0  0  0  0  0  0
   61.1410   29.4600   49.6900 C   0  0  0  0  0  0  0  0  0  0  0  0
   60.2110   29.6970   48.6990 C   0  0  0  0  0  0  0  0  0  0  0  0
   59.0980   28.2400   48.1930 Br  0  0  0  0  0  0  0  0  0  0  0  0
   60.0880   30.9560   48.1620 C   0  0  0  0  0  0  0  0  0  0  0  0
   59.6790   34.8340   46.5240 C   0  0  0  0  0  0  0  0  0  0  0  0
   59.4750   34.6570   45.0250 C   0  0  0  0  0  0  0  0  0  0  0  0
   58.1860   33.9440   44.7110 C   0  0  0  0  0  0  0  0  0  0  0  0
   58.0470   32.8180   45.6640 C   0  0  0  0  0  0  0  0  0  0  0  0
   57.0220   32.0900   45.6190 O   0  0  0  0  0  0  0  0  0  0  0  0
   57.4815   30.8466   43.2086 H   0  0  0  0  0  0  0  0  0  0  0  0
   56.8580   29.6155   42.0587 H   0  0  0  0  0  0  0  0  0  0  0  0
   56.1695   31.2746   42.0587 H   0  0  0  0  0  0  0  0  0  0  0  0
   54.9557   30.9084   44.0535 H   0  0  0  0  0  0  0  0  0  0  0  0
   54.8346   29.3157   43.2959 H   0  0  0  0  0  0  0  0  0  0  0  0
   56.2080   30.0920   45.6730 H   0  0  0  0  0  0  0  0  0  0  0  0
   57.7120   28.0596   44.4837 H   0  0  0  0  0  0  0  0  0  0  0  0
   57.7860   29.6634   43.5191 H   0  0  0  0  0  0  0  0  0  0  0  0
   59.4379   28.8382   45.5256 H   0  0  0  0  0  0  0  0  0  0  0  0
   59.2203   30.4869   44.7683 H   0  0  0  0  0  0  0  0  0  0  0  0
   57.4060   29.9250   47.0630 H   0  0  0  0  0  0  0  0  0  0  0  0
   61.5990   34.2379   49.7665 H   0  0  0  0  0  0  0  0  0  0  0  0
   62.6692   34.1160   48.3290 H   0  0  0  0  0  0  0  0  0  0  0  0
   61.2932   35.2707   48.3290 H   0  0  0  0  0  0  0  0  0  0  0  0
   62.4647   32.5230   49.9922 H   0  0  0  0  0  0  0  0  0  0  0  0
   62.7032   30.2457   50.9660 H   0  0  0  0  0  0  0  0  0  0  0  0
   61.2265   28.4453   50.1060 H   0  0  0  0  0  0  0  0  0  0  0  0
   58.7967   35.3262   46.9590 H   0  0  0  0  0  0  0  0  0  0  0  0
   60.5692   35.4548   46.7032 H   0  0  0  0  0  0  0  0  0  0  0  0
   59.4571   35.6488   44.5495 H   0  0  0  0  0  0  0  0  0  0  0  0
   60.3040   34.0455   44.6393 H   0  0  0  0  0  0  0  0  0  0  0  0
   57.3385   34.6362   44.8236 H   0  0  0  0  0  0  0  0  0  0  0  0
   58.1951   33.5721   43.6758 H   0  0  0  0  0  0  0  0  0  0  0  0
  1  2  1  0
  2  3  1  0
  3  4  1  0
  4  5  1  0
  5  6  1  0
  6  7  1  0
  7  8  2  0
  8  9  1  0
  9 10  2  0
 10 11  1  0
 10 12  1  0
 12 13  2  0
 13 14  1  0
 14 15  2  0
 15 16  1  0
 16 17  1  0
 16 18  2  0
  9 19  1  0
 19 20  1  0
 20 21  1  0
 21 22  1  0
 22 23  2  0
 18  7  1  0
 22  8  1  0
 18 12  1  0
  1 24  1  0
  1 25  1  0
  1 26  1  0
  2 27  1  0
  2 28  1  0
  3 29  1  0
  4 30  1  0
  4 31  1  0
  5 32  1  0
  5 33  1  0
  6 34  1  0
 11 35  1  0
 11 36  1  0
 11 37  1  0
 13 38  1  0
 14 39  1  0
 15 40  1  0
 19 41  1  0
 19 42  1  0
 20 43  1  0
 20 44  1  0
 21 45  1  0
 21 46  1  0
M  CHG  1  10   1
M  END
>  <smiles>  (2) 
CCNCCNc1c2c([n+](C)c3cccc(Br)c13)CCCC2=O

>  <score_type>  (2) 
oracle

>  <origin>  (2) 
adg

>  <m_score__min__energy>  (2) 
-6.2400000000000002

>  <m_primary>  (2) 
energy

$$$$
2:0
     RDKit          3D

 54 57  0  0  0  0  0  0  0  0999 V2000
   63.1760   33.8590   46.4060 C   0  0  0  0  0  0  0  0  0  0  0  0
   63.3830   33.2030   47.5420 C   0  0  0  0  0  0  0  0  0  0  0  0
   63.3930   31.6910   47.5530 C   0  0  0  0  0  0  0  0  0  0  0  0
   62.4950   31.2670   48.4950 O   0  0  0  0  0  0  0  0  0  0  0  0
   62.7330   31.6290   49.7900 C   0  0  0  0  0  0  0  0  0  0  0  0
   62.2300   30.5820   50.7670 C   0  0  0  0  0  0  0  0  0  0  0  0
   61.2860   29.7520   50.1900 O   0  0  0  0  0  0  0  0  0  0  0  0
   60.0190   30.2300   50.4250 C   0  0  0  0  0  0  0  0  0  0  0  0
   59.2560   30.6990   49.2370 C   0  0  0  0  0  0  0  0  0  0  0  0
   59.9640   30.5450   47.9770 N   0  0  0  0  0  0  0  0  0  0  0  0
   59.4600   31.0220   46.7380 C   0  0  0  0  0  0  0  0  0  0  0  0
   59.3880   32.3540   46.3970 C   0  0  0  0  0  0  0  0  0  0  0  0
   59.8050   33.3160   47.2740 C   0  0  0  0  0  0  0  0  0  0  0  0
   59.7470   34.6480   46.9720 C   0  0  0  0  0  0  0  0  0  0  0  0
   59.2630   35.0980   45.7620 C   0  0  0  0  0  0  0  0  0  0  0  0
   58.8390   34.1380   44.8660 C   0  0  0  0  0  0  0  0  0  0  0  0
   58.8980   32.7920   45.1720 C   0  0  0  0  0  0  0  0  0  0  0  0
   58.4710   31.9140   44.2630 N   0  0  0  0  0  0  0  0  0  0  0  0
   57.9640   32.4000   42.9940 C   0  0  0  0  0  0  0  0  0  0  0  0
   58.5190   30.6040   44.5460 C   0  0  0  0  0  0  0  0  0  0  0  0
   58.1380   29.5700   43.7720 N   0  0  0  0  0  0  0  0  0  0  0  0
   58.3620   28.4310   44.4540 C   0  0  0  0  0  0  0  0  0  0  0  0
   58.1500   27.1030   44.1240 C   0  0  0  0  0  0  0  0  0  0  0  0
   58.4660   26.0990   45.0140 C   0  0  0  0  0  0  0  0  0  0  0  0
   58.9990   26.4640   46.2360 C   0  0  0  0  0  0  0  0  0  0  0  0
   59.2240   27.7740   46.5990 C   0  0  0  0  0  0  0  0  0  0  0  0
   58.9010   28.7580   45.6980 C   0  0  0  0  0  0  0  0  0  0  0  0
   59.0050   30.1260   45.7660 C   0  0  0  0  0  0  0  0  0  0  0  0
   63.1690   34.9590   46.3995 H   0  0  0  0  0  0  0  0  0  0  0  0
   63.0116   33.3024   45.4716 H   0  0  0  0  0  0  0  0  0  0  0  0
   63.5474   33.7603   48.4760 H   0  0  0  0  0  0  0  0  0  0  0  0
   63.1033   31.3089   46.5630 H   0  0  0  0  0  0  0  0  0  0  0  0
   64.4001   31.3181   47.7912 H   0  0  0  0  0  0  0  0  0  0  0  0
   63.8164   31.7569   49.9310 H   0  0  0  0  0  0  0  0  0  0  0  0
   62.1961   32.5685   49.9877 H   0  0  0  0  0  0  0  0  0  0  0  0
   63.0810   29.9724   51.1049 H   0  0  0  0  0  0  0  0  0  0  0  0
   61.7562   31.1028   51.6121 H   0  0  0  0  0  0  0  0  0  0  0  0
   59.4395   29.4230   50.8972 H   0  0  0  0  0  0  0  0  0  0  0  0
   60.1561   31.1220   51.0539 H   0  0  0  0  0  0  0  0  0  0  0  0
   58.3196   30.1246   49.1793 H   0  0  0  0  0  0  0  0  0  0  0  0
   59.0861   31.7770   49.3751 H   0  0  0  0  0  0  0  0  0  0  0  0
   60.8910   30.0590   47.9700 H   0  0  0  0  0  0  0  0  0  0  0  0
   60.1997   33.0086   48.2537 H   0  0  0  0  0  0  0  0  0  0  0  0
   60.0960   35.3807   47.7146 H   0  0  0  0  0  0  0  0  0  0  0  0
   59.2170   36.1706   45.5224 H   0  0  0  0  0  0  0  0  0  0  0  0
   58.4458   34.4510   43.8875 H   0  0  0  0  0  0  0  0  0  0  0  0
   57.1808   33.1508   43.1754 H   0  0  0  0  0  0  0  0  0  0  0  0
   58.7849   32.8573   42.4221 H   0  0  0  0  0  0  0  0  0  0  0  0
   57.5418   31.5605   42.4221 H   0  0  0  0  0  0  0  0  0  0  0  0
   57.7340   29.5780   42.8080 H   0  0  0  0  0  0  0  0  0  0  0  0
   57.7253   26.8468   43.1422 H   0  0  0  0  0  0  0  0  0  0  0  0
   58.2994   25.0418   44.7600 H   0  0  0  0  0  0  0  0  0  0  0  0
   59.2559   25.6705   46.9532 H   0  0  0  0  0  0  0  0  0  0  0  0
   59.6499   28.0240   47.5819 H   0  0  0  0  0  0  0  0  0  0  0  0
  1  2  2  0
  2  3  1  0
  3  4  1  0
  4  5  1  0
  5  6  1  0
  6  7  1  0
  7  8  1  0
  8  9  1  0
  9 10  1  0
 10 11  1  0
 11 12  2  0
 12 13  1  0
 13 14  2  0
 14 15  1  0
 15 16  2  0
 16 17  1  0
 17 18  2  0
 18 19  1  0
 18 20  1  0
 20 21  1  0
 21 22  1  0
 22 23  2  0
 23 24  1  0
 24 25  2  0
 25 26  1  0
 26 27  2  0
 27 28  1  0
 28 11  1  0
 17 12  1  0
 28 20  2  0
 27 22  1  0
  1 29  1  0
  1 30  1  0
  2 31  1  0
  3 32  1  0
  3 33  1  0
  5 34  1  0
  5 35  1  0
  6 36  1  0
  6 37  1  0
  8 38  1  0
  8 39  1  0
  9 40  1  0
  9 41  1  0
 10 42  1  0
 13 43  1  0
 14 44  1  0
 15 45  1  0
 16 46  1  0
 19 47  1  0
 19 48  1  0
 19 49  1  0
 21 50  1  0
 23 51  1  0
 24 52  1  0
 25 53  1  0
 26 54  1  0
M  CHG  1  18   1
M  END
>  <smiles>  (3) 
C=CCOCCOCCNc1c2ccccc2[n+](C)c2[nH]c3ccccc3c12

>  <score_type>  (3) 
oracle

>  <origin>  (3) 
adg

>  <m_score__min__energy>  (3) 
-5.8799999999999999

>  <m_primary>  (3) 
energy

$$$$
3:0
     RDKit          3D

 67 69  0  0  0  0  0  0  0  0999 V2000
   59.2570   35.2740   44.9590 C   0  0  0  0  0  0  0  0  0  0  0  0
   59.5550   33.8450   45.2700 C   0  0  0  0  0  0  0  0  0  0  0  0
   59.5110   33.5160   46.6840 N   0  0  0  0  0  0  0  0  0  0  0  0
   60.0610   34.6340   47.4650 C   0  0  0  0  0  0  0  0  0  0  0  0
   59.6410   34.5570   48.9210 C   0  0  0  0  0  0  0  0  0  0  0  0
   58.1180   33.4040   47.1380 C   0  0  0  0  0  0  0  0  0  0  0  0
   57.1790   33.0440   46.0220 C   0  0  0  0  0  0  0  0  0  0  0  0
   57.2970   31.7210   45.6910 O   0  0  0  0  0  0  0  0  0  0  0  0
   57.2600   31.4100   44.3590 C   0  0  0  0  0  0  0  0  0  0  0  0
   56.6630   30.0720   44.0280 C   0  0  0  0  0  0  0  0  0  0  0  0
   57.4480   29.0120   44.7710 C   0  0  0  0  0  0  0  0  0  0  0  0
   57.5710   29.2730   46.1860 N   0  0  0  0  0  0  0  0  0  0  0  0
   58.6490   28.4380   46.6840 C   0  0  0  0  0  0  0  0  0  0  0  0
   59.1900   28.8870   48.0040 C   0  0  0  0  0  0  0  0  0  0  0  0
   59.1010   30.3390   48.0530 N   0  0  0  0  0  0  0  0  0  0  0  0
   59.8640   31.1220   48.9730 C   0  0  0  0  0  0  0  0  0  0  0  0
   61.1420   31.5610   48.6980 C   0  0  0  0  0  0  0  0  0  0  0  0
   61.6690   31.2070   47.4710 C   0  0  0  0  0  0  0  0  0  0  0  0
   62.9410   31.6050   47.1270 C   0  0  0  0  0  0  0  0  0  0  0  0
   63.6690   32.3490   48.0070 C   0  0  0  0  0  0  0  0  0  0  0  0
   63.1200   32.6990   49.2440 C   0  0  0  0  0  0  0  0  0  0  0  0
   61.8560   32.3220   49.6220 C   0  0  0  0  0  0  0  0  0  0  0  0
   61.3330   32.6600   50.8250 N   0  0  0  0  0  0  0  0  0  0  0  0
   62.0850   33.4640   51.7610 C   0  0  0  0  0  0  0  0  0  0  0  0
   60.0810   32.2340   51.1070 C   0  0  0  0  0  0  0  0  0  0  0  0
   59.4660   32.5170   52.2970 C   0  0  0  0  0  0  0  0  0  0  0  0
   58.1760   32.0780   52.6010 C   0  0  0  0  0  0  0  0  0  0  0  0
   57.4670   31.3280   51.6900 C   0  0  0  0  0  0  0  0  0  0  0  0
   55.8450   30.7630   52.0430 Cl  0  0  0  0  0  0  0  0  0  0  0  0
   58.0740   31.0370   50.4920 C   0  0  0  0  0  0  0  0  0  0  0  0
   59.3410   31.4710   50.2000 C   0  0  0  0  0  0  0  0  0  0  0  0
   59.1397   35.8366   45.8969 H   0  0  0  0  0  0  0  0  0  0  0  0
   60.0851   35.7026   44.3754 H   0  0  0  0  0  0  0  0  0  0  0  0
   58.3266   35.3359   44.3754 H   0  0  0  0  0  0  0  0  0  0  0  0
   58.8169   33.2183   44.7480 H   0  0  0  0  0  0  0  0  0  0  0  0
   60.5870   33.6603   44.9371 H   0  0  0  0  0  0  0  0  0  0  0  0
   61.1591   34.6034   47.4080 H   0  0  0  0  0  0  0  0  0  0  0  0
   59.6722   35.5727   47.0435 H   0  0  0  0  0  0  0  0  0  0  0  0
   60.5184   34.7178   49.5647 H   0  0  0  0  0  0  0  0  0  0  0  0
   58.8881   35.3321   49.1269 H   0  0  0  0  0  0  0  0  0  0  0  0
   59.2120   33.5652   49.1269 H   0  0  0  0  0  0  0  0  0  0  0  0
   58.0606   32.6254   47.9130 H   0  0  0  0  0  0  0  0  0  0  0  0
   57.8129   34.3857   47.5294 H   0  0  0  0  0  0  0  0  0  0  0  0
   56.1458   33.2442   46.3421 H   0  0  0  0  0  0  0  0  0  0  0  0
   57.4328   33.6506   45.1401 H   0  0  0  0  0  0  0  0  0  0  0  0
   56.6681   32.1824   43.8461 H   0  0  0  0  0  0  0  0  0  0  0  0
   58.3081   31.3654   44.0281 H   0  0  0  0  0  0  0  0  0  0  0  0
   55.6093   30.0453   44.3428 H   0  0  0  0  0  0  0  0  0  0  0  0
   56.7085   29.8912   42.9439 H   0  0  0  0  0  0  0  0  0  0  0  0
   56.9402   28.0453   44.6380 H   0  0  0  0  0  0  0  0  0  0  0  0
   58.4653   29.0096   44.3525 H   0  0  0  0  0  0  0  0  0  0  0  0
   57.6900   30.2620   46.4180 H   0  0  0  0  0  0  0  0  0  0  0  0
   58.2715   27.4106   46.7936 H   0  0  0  0  0  0  0  0  0  0  0  0
   59.4721   28.5045   45.9573 H   0  0  0  0  0  0  0  0  0  0  0  0
   58.5967   28.4484   48.8199 H   0  0  0  0  0  0  0  0  0  0  0  0
   60.2347   28.5628   48.1204 H   0  0  0  0  0  0  0  0  0  0  0  0
   58.4720   30.8800   47.4150 H   0  0  0  0  0  0  0  0  0  0  0  0
   61.0719   30.6069   46.7687 H   0  0  0  0  0  0  0  0  0  0  0  0
   63.3658   31.3254   46.1516 H   0  0  0  0  0  0  0  0  0  0  0  0
   64.6867   32.6734   47.7442 H   0  0  0  0  0  0  0  0  0  0  0  0
   63.7239   33.2991   49.9405 H   0  0  0  0  0  0  0  0  0  0  0  0
   61.8169   33.1774   52.7886 H   0  0  0  0  0  0  0  0  0  0  0  0
   63.1612   33.2998   51.6035 H   0  0  0  0  0  0  0  0  0  0  0  0
   61.8493   34.5268   51.6035 H   0  0  0  0  0  0  0  0  0  0  0  0
   60.0101   33.1142   53.0435 H   0  0  0  0  0  0  0  0  0  0  0  0
   57.7248   32.3322   53.5715 H   0  0  0  0  0  0  0  0  0  0  0  0
   57.5282   30.4394   49.7470 H   0  0  0  0  0  0  0  0  0  0  0  0
  1  2  1  0
  2  3  1  0
  3  4  1  0
  4  5  1  0
  3  6  1  0
  6  7  1  0
  7  8  1  0
  8  9  1  0
  9 10  1  0
 10 11  1  0
 11 12  1  0
 12 13  1  0
 13 14  1  0
 14 15  1  0
 15 16  1  0
 16 17  2  0
 17 18  1  0
 18 19  2  0
 19 20  1  0
 20 21  2  0
 21 22  1  0
 22 23  2  0
 23 24  1  0
 23 25  1  0
 25 26  2  0
 26 27  1  0
 27 28  2  0
 28 29  1  0
 28 30  1  0
 30 31  2  0
 31 16  1  0
 22 17  1  0
 31 25  1  0
  1 32  1  0
  1 33  1  0
  1 34  1  0
  2 35  1  0
  2 36  1  0
  4 37  1  0
  4 38  1  0
  5 39  1  0
  5 40  1  0
  5 41  1  0
  6 42  1  0
  6 43  1  0
  7 44  1  0
  7 45  1  0
  9 46  1  0
  9 47  1  0
 10 48  1  0
 10 49  1  0
 11 50  1  0
 11 51  1  0
 12 52  1  0
 13 53  1  0
 13 54  1  0
 14 55  1  0
 14 56  1  0
 15 57  1  0
 18 58  1  0
 19 59  1  0
 20 60  1  0
 21 61  1  0
 24 62  1  0
 24 63  1  0
 24 64  1  0
 26 65  1  0
 27 66  1  0
 30 67  1  0
M  CHG  1  23   1
M  END
>  <smiles>  (4) 
CCN(CC)CCOCCCNCCNc1c2ccccc2[n+](C)c2ccc(Cl)cc12

>  <score_type>  (4) 
oracle

>  <origin>  (4) 
adg

>  <m_score__min__energy>  (4) 
-6.5199999999999996

>  <m_primary>  (4) 
energy

$$$$
5:0
     RDKit          3D

 50 51  0  0  1  0  0  0  0  0999 V2000
   58.1390   27.1670   43.5090 C   0  0  0  0  0  0  0  0  0  0  0  0
   58.0150   28.3280   44.4830 C   0  0  0  0  0  0  0  0  0  0  0  0
   56.7060   28.1450   45.2690 C   0  0  0  0  0  0  0  0  0  0  0  0
   55.8800   29.2930   45.0230 N   0  0  0  0  0  0  0  0  0  0  0  0
   55.8810   29.7030   43.6770 C   0  0  0  0  0  0  0  0  0  0  0  0
   56.6570   31.0160   43.4870 C   0  0  0  0  0  0  0  0  0  0  0  0
   56.4890   31.7430   44.6980 O   0  0  0  0  0  0  0  0  0  0  0  0
   57.5470   32.4060   45.2910 C   0  0  0  0  0  0  0  0  0  0  0  0
   57.8030   33.6910   44.9020 C   0  0  0  0  0  0  0  0  0  0  0  0
   58.8390   34.3660   45.4820 C   0  0  0  0  0  0  0  0  0  0  0  0
   59.6510   33.7710   46.4690 C   0  0  0  0  0  0  0  0  0  0  0  0
   60.7210   34.5860   47.0610 C   0  0  0  0  0  0  0  0  0  0  0  0
   61.6940   34.0670   47.7530 C   0  0  0  0  0  0  0  0  0  0  0  0
   61.6020   33.7720   49.2320 C   0  0  0  0  0  0  0  0  0  0  0  0
   61.8170   32.2470   49.2880 C   0  0  0  0  0  0  0  0  0  0  0  0
   63.2100   31.9340   48.8790 C   0  0  0  0  0  0  0  0  0  0  0  0
   63.9130   32.9450   48.0410 C   0  0  0  0  0  0  0  0  0  0  0  0
   63.0290   33.7570   47.1800 C   0  0  0  0  0  0  0  0  0  0  0  0
   63.3200   34.1880   46.0430 O   0  0  0  0  0  0  0  0  0  0  0  0
   59.3840   32.4780   46.8470 C   0  0  0  0  0  0  0  0  0  0  0  0
   58.3170   31.7770   46.2560 C   0  0  0  0  0  0  0  0  0  0  0  0
   58.0380   30.4760   46.6340 O   0  0  0  0  0  0  0  0  0  0  0  0
   58.9040   29.7920   47.4860 C   0  0  0  0  0  0  0  0  0  0  0  0
   58.2395   26.2265   44.0705 H   0  0  0  0  0  0  0  0  0  0  0  0
   57.2406   27.1219   42.8759 H   0  0  0  0  0  0  0  0  0  0  0  0
   59.0267   27.3127   42.8759 H   0  0  0  0  0  0  0  0  0  0  0  0
   58.8700   28.3287   45.1751 H   0  0  0  0  0  0  0  0  0  0  0  0
   58.0068   29.2850   43.9407 H   0  0  0  0  0  0  0  0  0  0  0  0
   56.1907   27.2342   44.9301 H   0  0  0  0  0  0  0  0  0  0  0  0
   56.9151   28.0465   46.3444 H   0  0  0  0  0  0  0  0  0  0  0  0
   56.1530   30.0970   45.6450 H   0  0  0  0  0  0  0  0  0  0  0  0
   56.3507   28.9188   43.0651 H   0  0  0  0  0  0  0  0  0  0  0  0
   54.8389   29.8709   43.3673 H   0  0  0  0  0  0  0  0  0  0  0  0
   57.7226   30.8091   43.3089 H   0  0  0  0  0  0  0  0  0  0  0  0
   56.2882   31.5829   42.6195 H   0  0  0  0  0  0  0  0  0  0  0  0
   57.1833   34.1747   44.1326 H   0  0  0  0  0  0  0  0  0  0  0  0
   59.0452   35.4008   45.1709 H   0  0  0  0  0  0  0  0  0  0  0  0
   60.6990   35.6759   46.9139 H   0  0  0  0  0  0  0  0  0  0  0  0
   62.3854   34.3037   49.7919 H   0  0  0  0  0  0  0  0  0  0  0  0
   60.6524   34.0955   49.6831 H   0  0  0  0  0  0  0  0  0  0  0  0
   61.6457   31.8889   50.3139 H   0  0  0  0  0  0  0  0  0  0  0  0
   61.1115   31.7494   48.6064 H   0  0  0  0  0  0  0  0  0  0  0  0
   63.8014   31.7942   49.7959 H   0  0  0  0  0  0  0  0  0  0  0  0
   63.1262   31.0425   48.2401 H   0  0  0  0  0  0  0  0  0  0  0  0
   64.4580   33.6260   48.7112 H   0  0  0  0  0  0  0  0  0  0  0  0
   64.5732   32.3823   47.3646 H   0  0  0  0  0  0  0  0  0  0  0  0
   60.0050   31.9900   47.6126 H   0  0  0  0  0  0  0  0  0  0  0  0
   58.6344   30.0049   48.5310 H   0  0  0  0  0  0  0  0  0  0  0  0
   58.8237   28.7109   47.2996 H   0  0  0  0  0  0  0  0  0  0  0  0
   59.9371   30.1205   47.2996 H   0  0  0  0  0  0  0  0  0  0  0  0
  1  2  1  0
  2  3  1  0
  3  4  1  0
  4  5  1  0
  5  6  1  0
  6  7  1  0
  7  8  1  0
  8  9  2  0
  9 10  1  0
 10 11  2  0
 11 12  1  0
 12 13  2  0
 13 14  1  0
 14 15  1  0
 15 16  1  0
 16 17  1  0
 17 18  1  0
 18 19  2  0
 11 20  1  0
 20 21  2  0
 21 22  1  0
 22 23  1  0
 21  8  1  0
 18 13  1  0
  1 24  1  0
  1 25  1  0
  1 26  1  0
  2 27  1  0
  2 28  1  0
  3 29  1  0
  3 30  1  0
  4 31  1  0
  5 32  1  0
  5 33  1  0
  6 34  1  0
  6 35  1  0
  9 36  1  0
 10 37  1  0
 12 38  1  0
 14 39  1  0
 14 40  1  0
 15 41  1  0
 15 42  1  0
 16 43  1  0
 16 44  1  0
 17 45  1  0
 17 46  1  0
 20 47  1  0
 23 48  1  0
 23 49  1  0
 23 50  1  0
M  END
>  <smiles>  (5) 
CCCNCCOc1ccc(C=C2CCCCC2=O)cc1OC

>  <score_type>  (5) 
oracle

>  <origin>  (5) 
adg

>  <m_score__min__energy>  (5) 
-7.6799999999999997

>  <m_primary>  (5) 
energy

$$$$
6:0
     RDKit          3D

 59 61  0  0  0  0  0  0  0  0999 V2000
   56.3490   29.7530   42.9370 C   0  0  0  0  0  0  0  0  0  0  0  0
   57.2920   29.9680   44.1030 C   0  0  0  0  0  0  0  0  0  0  0  0
   56.7780   30.9310   44.9600 O   0  0  0  0  0  0  0  0  0  0  0  0
   57.5680   32.0790   44.8880 C   0  0  0  0  0  0  0  0  0  0  0  0
   57.1100   33.1100   45.9220 C   0  0  0  0  0  0  0  0  0  0  0  0
   57.2560   34.3850   45.4670 O   0  0  0  0  0  0  0  0  0  0  0  0
   58.4740   34.5860   44.8520 C   0  0  0  0  0  0  0  0  0  0  0  0
   59.5920   34.7070   45.8160 C   0  0  0  0  0  0  0  0  0  0  0  0
   60.4570   33.6440   45.9470 O   0  0  0  0  0  0  0  0  0  0  0  0
   61.4920   33.3700   46.7630 C   0  0  0  0  0  0  0  0  0  0  0  0
   62.7820   33.8430   46.6410 C   0  0  0  0  0  0  0  0  0  0  0  0
   63.8020   33.5310   47.5030 C   0  0  0  0  0  0  0  0  0  0  0  0
   63.5370   32.6950   48.5580 C   0  0  0  0  0  0  0  0  0  0  0  0
   64.5830   32.3970   49.4070 C   0  0  0  0  0  0  0  0  0  0  0  0
   64.3290   31.5640   50.4600 C   0  0  0  0  0  0  0  0  0  0  0  0
   63.0810   31.0580   50.6430 C   0  0  0  0  0  0  0  0  0  0  0  0
   62.0470   31.3640   49.7910 C   0  0  0  0  0  0  0  0  0  0  0  0
   62.2620   32.2010   48.7170 C   0  0  0  0  0  0  0  0  0  0  0  0
   61.2330   32.5110   47.8550 C   0  0  0  0  0  0  0  0  0  0  0  0
   59.8510   31.9930   48.0030 C   0  0  0  0  0  0  0  0  0  0  0  0
   59.5740   30.8290   47.2380 N   0  0  0  0  0  0  0  0  0  0  0  0
   58.9390   29.7880   47.9890 C   0  0  0  0  0  0  0  0  0  0  0  0
   59.8020   28.6130   48.2910 C   0  0  0  0  0  0  0  0  0  0  0  0
   60.4000   28.1000   47.0990 N   0  0  0  0  0  0  0  0  0  0  0  0
   60.0160   26.7410   46.8630 C   0  0  0  0  0  0  0  0  0  0  0  0
   60.2670   28.9290   45.9390 C   0  0  0  0  0  0  0  0  0  0  0  0
   60.5890   30.3680   46.3550 C   0  0  0  0  0  0  0  0  0  0  0  0
   55.3425   29.5235   43.3169 H   0  0  0  0  0  0  0  0  0  0  0  0
   56.3102   30.6654   42.3237 H   0  0  0  0  0  0  0  0  0  0  0  0
   56.7095   28.9140   42.3237 H   0  0  0  0  0  0  0  0  0  0  0  0
   57.4153   29.0220   44.6506 H   0  0  0  0  0  0  0  0  0  0  0  0
   58.2657   30.3085   43.7209 H   0  0  0  0  0  0  0  0  0  0  0  0
   58.6163   31.8100   45.0847 H   0  0  0  0  0  0  0  0  0  0  0  0
   57.4708   32.5155   43.8830 H   0  0  0  0  0  0  0  0  0  0  0  0
   56.0491   32.9344   46.1535 H   0  0  0  0  0  0  0  0  0  0  0  0
   57.7361   32.9944   46.8190 H   0  0  0  0  0  0  0  0  0  0  0  0
   58.6756   33.7346   44.1854 H   0  0  0  0  0  0  0  0  0  0  0  0
   58.4118   35.5337   44.2971 H   0  0  0  0  0  0  0  0  0  0  0  0
   60.1905   35.5789   45.5133 H   0  0  0  0  0  0  0  0  0  0  0  0
   59.0991   34.7792   46.7967 H   0  0  0  0  0  0  0  0  0  0  0  0
   63.0070   34.5133   45.7984 H   0  0  0  0  0  0  0  0  0  0  0  0
   64.8110   33.9422   47.3517 H   0  0  0  0  0  0  0  0  0  0  0  0
   65.5868   32.8156   49.2419 H   0  0  0  0  0  0  0  0  0  0  0  0
   65.1358   31.3026   51.1605 H   0  0  0  0  0  0  0  0  0  0  0  0
   62.8939   30.3869   51.4942 H   0  0  0  0  0  0  0  0  0  0  0  0
   61.0470   30.9407   49.9662 H   0  0  0  0  0  0  0  0  0  0  0  0
   59.6851   31.7546   49.0639 H   0  0  0  0  0  0  0  0  0  0  0  0
   59.1798   32.7803   47.6294 H   0  0  0  0  0  0  0  0  0  0  0  0
   58.5982   30.2153   48.9436 H   0  0  0  0  0  0  0  0  0  0  0  0
   58.1181   29.4127   47.3603 H   0  0  0  0  0  0  0  0  0  0  0  0
   60.5952   28.9186   48.9891 H   0  0  0  0  0  0  0  0  0  0  0  0
   59.1788   27.8250   48.7389 H   0  0  0  0  0  0  0  0  0  0  0  0
   59.8712   26.2285   47.8255 H   0  0  0  0  0  0  0  0  0  0  0  0
   59.0766   26.7194   46.2911 H   0  0  0  0  0  0  0  0  0  0  0  0
   60.8052   26.2310   46.2911 H   0  0  0  0  0  0  0  0  0  0  0  0
   60.9694   28.5983   45.1597 H   0  0  0  0  0  0  0  0  0  0  0  0
   59.2461   28.8643   45.5344 H   0  0  0  0  0  0  0  0  0  0  0  0
   61.5632   30.3959   46.8651 H   0  0  0  0  0  0  0  0  0  0  0  0
   60.6309   31.0133   45.4651 H   0  0  0  0  0  0  0  0  0  0  0  0
  1  2  1  0
  2  3  1  0
  3  4  1  0
  4  5  1  0
  5  6  1  0
  6  7  1  0
  7  8  1  0
  8  9  1  0
  9 10  1  0
 10 11  2  0
 11 12  1  0
 12 13  2  0
 13 14  1  0
 14 15  2  0
 15 16  1  0
 16 17  2  0
 17 18  1  0
 18 19  2  0
 19 20  1  0
 20 21  1  0
 21 22  1  0
 22 23  1  0
 23 24  1  0
 24 25  1  0
 24 26  1  0
 26 27  1  0
 19 10  1  0
 27 21  1  0
 18 13  1  0
  1 28  1  0
  1 29  1  0
  1 30  1  0
  2 31  1  0
  2 32  1  0
  4 33  1  0
  4 34  1  0
  5 35  1  0
  5 36  1  0
  7 37  1  0
  7 38  1  0
  8 39  1  0
  8 40  1  0
 11 41  1  0
 12 42  1  0
 14 43  1  0
 15 44  1  0
 16 45  1  0
 17 46  1  0
 20 47  1  0
 20 48  1  0
 22 49  1  0
 22 50  1  0
 23 51  1  0
 23 52  1  0
 25 53  1  0
 25 54  1  0
 25 55  1  0
 26 56  1  0
 26 57  1  0
 27 58  1  0
 27 59  1  0
M  END
>  <smiles>  (6) 
CCOCCOCCOc1ccc2ccccc2c1CN1CCN(C)CC1

>  <score_type>  (6) 
oracle

>  <origin>  (6) 
adg

>  <m_score__min__energy>  (6) 
-7.6799999999999997

>  <m_primary>  (6) 
energy

$$$$
7:0
     RDKit          3D

 32 32  0  0  1  0  0  0  0  0999 V2000
   59.2170   28.2920   44.4850 C   0  0  0  0  0  0  0  0  0  0  0  0
   58.0050   27.7560   44.5680 C   0  0  0  0  0  0  0  0  0  0  0  0
   57.0330   28.2010   45.6020 C   0  0  0  0  0  0  0  0  0  0  0  0
   55.8850   28.6920   44.9290 O   0  0  0  0  0  0  0  0  0  0  0  0
   55.7640   30.0790   44.8730 N   0  0  0  0  0  0  0  0  0  0  0  0
   56.5670   30.7340   44.1080 C   0  0  0  0  0  0  0  0  0  0  0  0
   56.6520   30.4810   42.6510 C   0  0  0  0  0  0  0  0  0  0  0  0
   57.4100   31.7590   44.7480 C   0  0  0  0  0  0  0  0  0  0  0  0
   57.7620   32.8700   44.0190 C   0  0  0  0  0  0  0  0  0  0  0  0
   58.5470   33.8920   44.5150 C   0  0  0  0  0  0  0  0  0  0  0  0
   58.9830   33.7660   45.8010 N   0  0  0  0  0  0  0  0  0  0  0  0
   59.8060   34.8520   46.2990 C   0  0  0  0  0  0  0  0  0  0  0  0
   60.2480   34.5870   47.7390 C   0  0  0  0  0  0  0  0  0  0  0  0
   58.6480   32.6920   46.5170 C   0  0  0  0  0  0  0  0  0  0  0  0
   57.8590   31.6590   46.0290 C   0  0  0  0  0  0  0  0  0  0  0  0
   59.9192   27.9469   43.7119 H   0  0  0  0  0  0  0  0  0  0  0  0
   59.5188   29.0811   45.1894 H   0  0  0  0  0  0  0  0  0  0  0  0
   57.7142   26.9675   43.8582 H   0  0  0  0  0  0  0  0  0  0  0  0
   56.7562   27.3533   46.2460 H   0  0  0  0  0  0  0  0  0  0  0  0
   57.4744   28.9850   46.2349 H   0  0  0  0  0  0  0  0  0  0  0  0
   56.9979   29.4514   42.4772 H   0  0  0  0  0  0  0  0  0  0  0  0
   55.6592   30.6158   42.1969 H   0  0  0  0  0  0  0  0  0  0  0  0
   57.3620   31.1879   42.1969 H   0  0  0  0  0  0  0  0  0  0  0  0
   57.3984   32.9492   42.9839 H   0  0  0  0  0  0  0  0  0  0  0  0
   58.8084   34.7668   43.9015 H   0  0  0  0  0  0  0  0  0  0  0  0
   60.6969   34.9502   45.6613 H   0  0  0  0  0  0  0  0  0  0  0  0
   59.2141   35.7790   46.2784 H   0  0  0  0  0  0  0  0  0  0  0  0
   59.5165   35.0256   48.4337 H   0  0  0  0  0  0  0  0  0  0  0  0
   60.3109   33.5021   47.9095 H   0  0  0  0  0  0  0  0  0  0  0  0
   61.2345   35.0427   47.9095 H   0  0  0  0  0  0  0  0  0  0  0  0
   59.0170   32.6206   47.5508 H   0  0  0  0  0  0  0  0  0  0  0  0
   57.6058   30.7908   46.6553 H   0  0  0  0  0  0  0  0  0  0  0  0
  1  2  2  0
  2  3  1  0
  3  4  1  0
  4  5  1  0
  5  6  2  0
  6  7  1  0
  6  8  1  0
  8  9  2  0
  9 10  1  0
 10 11  2  0
 11 12  1  0
 12 13  1  0
 11 14  1  0
 14 15  2  0
 15  8  1  0
  1 16  1  0
  1 17  1  0
  2 18  1  0
  3 19  1  0
  3 20  1  0
  7 21  1  0
  7 22  1  0
  7 23  1  0
  9 24  1  0
 10 25  1  0
 12 26  1  0
 12 27  1  0
 13 28  1  0
 13 29  1  0
 13 30  1  0
 14 31  1  0
 15 32  1  0
M  CHG  1  11   1
M  END
>  <smiles>  (7) 
C=CCON=C(C)c1cc[n+](CC)cc1

>  <score_type>  (7) 
oracle

>  <origin>  (7) 
adg

>  <m_score__min__energy>  (7) 
-4.6100000000000003

>  <m_primary>  (7) 
energy

$$$$
8:0
     RDKit          3D

 64 67  0  0  0  0  0  0  0  0999 V2000
   56.2700   30.0970   42.6150 C   0  0  0  0  0  0  0  0  0  0  0  0
   56.3640   29.3370   43.9270 C   0  0  0  0  0  0  0  0  0  0  0  0
   56.7500   30.2470   44.8940 O   0  0  0  0  0  0  0  0  0  0  0  0
   58.0950   30.4540   44.8230 N   0  0  0  0  0  0  0  0  0  0  0  0
   58.7430   30.9440   45.9560 C   0  0  0  0  0  0  0  0  0  0  0  0
   58.9390   32.3340   45.9930 C   0  0  0  0  0  0  0  0  0  0  0  0
   58.4830   33.1020   44.9210 C   0  0  0  0  0  0  0  0  0  0  0  0
   58.6370   34.4700   44.8700 C   0  0  0  0  0  0  0  0  0  0  0  0
   59.2650   35.0950   45.9190 C   0  0  0  0  0  0  0  0  0  0  0  0
   59.7190   34.3240   46.9870 C   0  0  0  0  0  0  0  0  0  0  0  0
   59.5660   32.9590   47.0390 C   0  0  0  0  0  0  0  0  0  0  0  0
   60.0180   32.2430   48.0790 N   0  0  0  0  0  0  0  0  0  0  0  0
   60.6750   32.8270   49.2120 C   0  0  0  0  0  0  0  0  0  0  0  0
   59.8470   30.8990   48.0790 C   0  0  0  0  0  0  0  0  0  0  0  0
   60.3270   30.1920   49.1590 C   0  0  0  0  0  0  0  0  0  0  0  0
   60.1770   28.8330   49.1970 C   0  0  0  0  0  0  0  0  0  0  0  0
   59.5480   28.2080   48.1500 C   0  0  0  0  0  0  0  0  0  0  0  0
   59.0470   28.8730   47.0370 C   0  0  0  0  0  0  0  0  0  0  0  0
   58.4070   28.1060   46.0550 N   0  0  0  0  0  0  0  0  0  0  0  0
   58.6710   26.6390   46.0610 C   0  0  0  0  0  0  0  0  0  0  0  0
   57.6390   25.8830   45.2880 C   0  0  0  0  0  0  0  0  0  0  0  0
   57.4250   24.4780   45.6000 C   0  0  0  0  0  0  0  0  0  0  0  0
   57.0640   23.5080   44.6630 N   0  0  0  0  0  0  0  0  0  0  0  0
   55.8670   22.8380   45.2210 C   0  0  0  0  0  0  0  0  0  0  0  0
   58.0190   22.4440   44.4510 C   0  0  0  0  0  0  0  0  0  0  0  0
   57.4350   21.4680   43.4590 C   0  0  0  0  0  0  0  0  0  0  0  0
   56.1220   21.6830   43.1350 O   0  0  0  0  0  0  0  0  0  0  0  0
   55.8130   22.9160   42.6250 C   0  0  0  0  0  0  0  0  0  0  0  0
   56.6670   23.9590   43.3450 C   0  0  0  0  0  0  0  0  0  0  0  0
   59.2110   30.2370   47.0240 C   0  0  0  0  0  0  0  0  0  0  0  0
   56.1374   31.1693   42.8211 H   0  0  0  0  0  0  0  0  0  0  0  0
   57.1936   29.9462   42.0369 H   0  0  0  0  0  0  0  0  0  0  0  0
   55.4109   29.7257   42.0369 H   0  0  0  0  0  0  0  0  0  0  0  0
   55.3858   28.9045   44.1841 H   0  0  0  0  0  0  0  0  0  0  0  0
   57.0882   28.5124   43.8522 H   0  0  0  0  0  0  0  0  0  0  0  0
   58.6650   30.2270   43.9640 H   0  0  0  0  0  0  0  0  0  0  0  0
   57.9808   32.5952   44.0838 H   0  0  0  0  0  0  0  0  0  0  0  0
   58.2661   35.0473   44.0103 H   0  0  0  0  0  0  0  0  0  0  0  0
   59.4072   36.1858   45.9162 H   0  0  0  0  0  0  0  0  0  0  0  0
   60.2216   34.8295   47.8248 H   0  0  0  0  0  0  0  0  0  0  0  0
   60.2306   32.4319   50.1374 H   0  0  0  0  0  0  0  0  0  0  0  0
   61.7459   32.5772   49.1838 H   0  0  0  0  0  0  0  0  0  0  0  0
   60.5525   33.9198   49.1838 H   0  0  0  0  0  0  0  0  0  0  0  0
   60.8278   30.7169   49.9858 H   0  0  0  0  0  0  0  0  0  0  0  0
   60.5538   28.2517   50.0515 H   0  0  0  0  0  0  0  0  0  0  0  0
   59.4333   27.1149   48.1941 H   0  0  0  0  0  0  0  0  0  0  0  0
   57.7630   28.3540   45.3060 H   0  0  0  0  0  0  0  0  0  0  0  0
   59.6579   26.4536   45.6121 H   0  0  0  0  0  0  0  0  0  0  0  0
   58.6377   26.2912   47.1041 H   0  0  0  0  0  0  0  0  0  0  0  0
   56.6790   26.3984   45.4389 H   0  0  0  0  0  0  0  0  0  0  0  0
   58.0289   25.8727   44.2595 H   0  0  0  0  0  0  0  0  0  0  0  0
   58.3685   24.1258   46.0424 H   0  0  0  0  0  0  0  0  0  0  0  0
   56.5032   24.5390   46.1971 H   0  0  0  0  0  0  0  0  0  0  0  0
   55.9116   22.8630   46.3198 H   0  0  0  0  0  0  0  0  0  0  0  0
   54.9615   23.3604   44.8788 H   0  0  0  0  0  0  0  0  0  0  0  0
   55.8388   21.7930   44.8788 H   0  0  0  0  0  0  0  0  0  0  0  0
   58.9566   22.8604   44.0541 H   0  0  0  0  0  0  0  0  0  0  0  0
   58.2321   21.9334   45.4017 H   0  0  0  0  0  0  0  0  0  0  0  0
   58.0279   21.5265   42.5343 H   0  0  0  0  0  0  0  0  0  0  0  0
   57.4729   20.4808   43.9428 H   0  0  0  0  0  0  0  0  0  0  0  0
   56.0294   22.9377   41.5467 H   0  0  0  0  0  0  0  0  0  0  0  0
   54.7447   23.1316   42.7739 H   0  0  0  0  0  0  0  0  0  0  0  0
   57.5700   24.1544   42.7479 H   0  0  0  0  0  0  0  0  0  0  0  0
   56.0665   24.8732   43.4615 H   0  0  0  0  0  0  0  0  0  0  0  0
  1  2  1  0
  2  3  1  0
  3  4  1  0
  4  5  1  0
  5  6  2  0
  6  7  1  0
  7  8  2  0
  8  9  1  0
  9 10  2  0
 10 11  1  0
 11 12  2  0
 12 13  1  0
 12 14  1  0
 14 15  2  0
 15 16  1  0
 16 17  2  0
 17 18  1  0
 18 19  1  0
 19 20  1  0
 20 21  1  0
 21 22  1  0
 22 23  1  0
 23 24  1  0
 23 25  1  0
 25 26  1  0
 26 27  1  0
 27 28  1  0
 28 29  1  0
 18 30  2  0
 30  5  1  0
 11  6  1  0
 30 14  1  0
 29 23  1  0
  1 31  1  0
  1 32  1  0
  1 33  1  0
  2 34  1  0
  2 35  1  0
  4 36  1  0
  7 37  1  0
  8 38  1  0
  9 39  1  0
 10 40  1  0
 13 41  1  0
 13 42  1  0
 13 43  1  0
 15 44  1  0
 16 45  1  0
 17 46  1  0
 19 47  1  0
 20 48  1  0
 20 49  1  0
 21 50  1  0
 21 51  1  0
 22 52  1  0
 22 53  1  0
 24 54  1  0
 24 55  1  0
 24 56  1  0
 25 57  1  0
 25 58  1  0
 26 59  1  0
 26 60  1  0
 28 61  1  0
 28 62  1  0
 29 63  1  0
 29 64  1  0
M  CHG  2  12   1  23   1
M  END
>  <smiles>  (8) 
CCONc1c2ccccc2[n+](C)c2cccc(NCCC[N+]3(C)CCOCC3)c12

>  <score_type>  (8) 
oracle

>  <origin>  (8) 
adg

>  <m_score__min__energy>  (8) 
-5.7199999999999998

>  <m_primary>  (8) 
energy

$$$$
9:0
     RDKit          3D

 39 40  0  0  0  0  0  0  0  0999 V2000
   60.0520   34.2310   48.3660 C   0  0  0  0  0  0  0  0  0  0  0  0
   60.4740   34.1640   46.9010 C   0  0  0  0  0  0  0  0  0  0  0  0
   59.8200   35.1530   46.2120 O   0  0  0  0  0  0  0  0  0  0  0  0
   58.9210   34.7260   45.2510 C   0  0  0  0  0  0  0  0  0  0  0  0
   57.8910   33.8330   45.8550 C   0  0  0  0  0  0  0  0  0  0  0  0
   57.5170   32.7520   44.8680 C   0  0  0  0  0  0  0  0  0  0  0  0
   57.7890   32.9620   43.5500 N   0  0  0  0  0  0  0  0  0  0  0  0
   57.4750   32.0260   42.6240 C   0  0  0  0  0  0  0  0  0  0  0  0
   57.7670   32.2420   41.1730 C   0  0  0  0  0  0  0  0  0  0  0  0
   56.8680   30.8370   43.0190 C   0  0  0  0  0  0  0  0  0  0  0  0
   56.5990   30.6400   44.3650 C   0  0  0  0  0  0  0  0  0  0  0  0
   55.9960   29.4520   44.7400 O   0  0  0  0  0  0  0  0  0  0  0  0
   56.7760   28.4040   45.2180 C   0  0  0  0  0  0  0  0  0  0  0  0
   58.1880   28.7020   45.4470 C   0  0  0  0  0  0  0  0  0  0  0  0
   59.1570   28.3070   44.5530 C   0  0  0  0  0  0  0  0  0  0  0  0
   60.4730   28.6480   44.8690 C   0  0  0  0  0  0  0  0  0  0  0  0
   60.7650   29.3450   46.0230 C   0  0  0  0  0  0  0  0  0  0  0  0
   59.7630   29.7190   46.8900 C   0  0  0  0  0  0  0  0  0  0  0  0
   58.5120   29.3880   46.5750 N   0  0  0  0  0  0  0  0  0  0  0  0
   56.9370   31.6120   45.2420 N   0  0  0  0  0  0  0  0  0  0  0  0
   60.9339   34.0910   49.0084 H   0  0  0  0  0  0  0  0  0  0  0  0
   59.5998   35.2122   48.5728 H   0  0  0  0  0  0  0  0  0  0  0  0
   59.3181   33.4381   48.5728 H   0  0  0  0  0  0  0  0  0  0  0  0
   61.5609   34.3132   46.8212 H   0  0  0  0  0  0  0  0  0  0  0  0
   60.2177   33.1804   46.4806 H   0  0  0  0  0  0  0  0  0  0  0  0
   58.4246   35.6011   44.8062 H   0  0  0  0  0  0  0  0  0  0  0  0
   59.4676   34.1649   44.4788 H   0  0  0  0  0  0  0  0  0  0  0  0
   58.2961   33.3715   46.7676 H   0  0  0  0  0  0  0  0  0  0  0  0
   56.9976   34.4233   46.1068 H   0  0  0  0  0  0  0  0  0  0  0  0
   58.6474   32.8932   41.0691 H   0  0  0  0  0  0  0  0  0  0  0  0
   57.9683   31.2737   40.6914 H   0  0  0  0  0  0  0  0  0  0  0  0
   56.9000   32.7179   40.6914 H   0  0  0  0  0  0  0  0  0  0  0  0
   56.6066   30.0681   42.2771 H   0  0  0  0  0  0  0  0  0  0  0  0
   56.3437   28.0730   46.1738 H   0  0  0  0  0  0  0  0  0  0  0  0
   56.7613   27.6413   44.4255 H   0  0  0  0  0  0  0  0  0  0  0  0
   58.9073   27.7514   43.6370 H   0  0  0  0  0  0  0  0  0  0  0  0
   61.2875   28.3573   44.1893 H   0  0  0  0  0  0  0  0  0  0  0  0
   61.8089   29.6046   46.2529 H   0  0  0  0  0  0  0  0  0  0  0  0
   59.9884   30.2733   47.8130 H   0  0  0  0  0  0  0  0  0  0  0  0
  1  2  1  0
  2  3  1  0
  3  4  1  0
  4  5  1  0
  5  6  1  0
  6  7  2  0
  7  8  1  0
  8  9  1  0
  8 10  2  0
 10 11  1  0
 11 12  1  0
 12 13  1  0
 13 14  1  0
 14 15  2  0
 15 16  1  0
 16 17  2  0
 17 18  1  0
 18 19  2  0
 11 20  2  0
 20  6  1  0
 19 14  1  0
  1 21  1  0
  1 22  1  0
  1 23  1  0
  2 24  1  0
  2 25  1  0
  4 26  1  0
  4 27  1  0
  5 28  1  0
  5 29  1  0
  9 30  1  0
  9 31  1  0
  9 32  1  0
 10 33  1  0
 13 34  1  0
 13 35  1  0
 15 36  1  0
 16 37  1  0
 17 38  1  0
 18 39  1  0
M  END
>  <smiles>  (9) 
CCOCCc1nc(C)cc(OCc2ccccn2)n1

>  <score_type>  (9) 
oracle

>  <origin>  (9) 
adg

>  <m_score__min__energy>  (9) 
-6.5599999999999996

>  <m_primary>  (9) 
energy

$$$$
10:0
     RDKit          3D

 38 40  0  0  0  0  0  0  0  0999 V2000
   57.3870   24.3800   44.4940 C   0  0  0  0  0  0  0  0  0  0  0  0
   57.4070   24.3690   45.9870 C   0  0  0  0  0  0  0  0  0  0  0  0
   57.8640   25.5410   46.5900 O   0  0  0  0  0  0  0  0  0  0  0  0
   58.1520   26.7220   45.9530 C   0  0  0  0  0  0  0  0  0  0  0  0
   59.4450   27.1160   45.6280 C   0  0  0  0  0  0  0  0  0  0  0  0
   59.6900   28.3290   44.9780 C   0  0  0  0  0  0  0  0  0  0  0  0
   58.6470   29.1770   44.6380 C   0  0  0  0  0  0  0  0  0  0  0  0
   58.8730   30.3170   44.0280 O   0  0  0  0  0  0  0  0  0  0  0  0
   57.9550   31.1590   43.6790 C   0  0  0  0  0  0  0  0  0  0  0  0
   58.1280   32.4500   42.9950 C   0  0  0  0  0  0  0  0  0  0  0  0
   58.0150   33.5920   43.7470 O   0  0  0  0  0  0  0  0  0  0  0  0
   58.3360   33.7780   45.0420 C   0  0  0  0  0  0  0  0  0  0  0  0
   57.7900   33.2030   46.1540 C   0  0  0  0  0  0  0  0  0  0  0  0
   58.2160   33.4880   47.4510 C   0  0  0  0  0  0  0  0  0  0  0  0
   59.2350   34.3850   47.6550 C   0  0  0  0  0  0  0  0  0  0  0  0
   59.8030   34.9750   46.5710 C   0  0  0  0  0  0  0  0  0  0  0  0
   59.3790   34.6900   45.3000 C   0  0  0  0  0  0  0  0  0  0  0  0
   56.6350   30.7990   43.9900 C   0  0  0  0  0  0  0  0  0  0  0  0
   56.3390   29.6130   44.6300 C   0  0  0  0  0  0  0  0  0  0  0  0
   55.1510   29.3090   44.8990 O   0  0  0  0  0  0  0  0  0  0  0  0
   57.3730   28.7640   44.9710 C   0  0  0  0  0  0  0  0  0  0  0  0
   57.1090   27.5710   45.6120 C   0  0  0  0  0  0  0  0  0  0  0  0
   56.4735   24.8824   44.1432 H   0  0  0  0  0  0  0  0  0  0  0  0
   58.2692   24.9198   44.1194 H   0  0  0  0  0  0  0  0  0  0  0  0
   57.4036   23.3459   44.1194 H   0  0  0  0  0  0  0  0  0  0  0  0
   56.3810   24.1849   46.3384 H   0  0  0  0  0  0  0  0  0  0  0  0
   58.1215   23.5833   46.2737 H   0  0  0  0  0  0  0  0  0  0  0  0
   60.2903   26.4615   45.8870 H   0  0  0  0  0  0  0  0  0  0  0  0
   60.7237   28.6145   44.7330 H   0  0  0  0  0  0  0  0  0  0  0  0
   59.1318   32.4512   42.5452 H   0  0  0  0  0  0  0  0  0  0  0  0
   57.2899   32.5018   42.2845 H   0  0  0  0  0  0  0  0  0  0  0  0
   56.9731   32.4786   46.0199 H   0  0  0  0  0  0  0  0  0  0  0  0
   57.7362   32.9948   48.3092 H   0  0  0  0  0  0  0  0  0  0  0  0
   59.5832   34.6204   48.6715 H   0  0  0  0  0  0  0  0  0  0  0  0
   60.6203   35.6965   46.7170 H   0  0  0  0  0  0  0  0  0  0  0  0
   59.8694   35.1901   44.4518 H   0  0  0  0  0  0  0  0  0  0  0  0
   55.8152   31.4796   43.7166 H   0  0  0  0  0  0  0  0  0  0  0  0
   56.0722   27.2932   45.8525 H   0  0  0  0  0  0  0  0  0  0  0  0
  1  2  1  0
  2  3  1  0
  3  4  1  0
  4  5  2  0
  5  6  1  0
  6  7  2  0
  7  8  1  0
  8  9  1  0
  9 10  1  0
 10 11  1  0
 11 12  1  0
 12 13  2  0
 13 14  1  0
 14 15  2  0
 15 16  1  0
 16 17  2  0
  9 18  2  0
 18 19  1  0
 19 20  2  0
 19 21  1  0
 21 22  2  0
 22  4  1  0
 21  7  1  0
 17 12  1  0
  1 23  1  0
  1 24  1  0
  1 25  1  0
  2 26  1  0
  2 27  1  0
  5 28  1  0
  6 29  1  0
 10 30  1  0
 10 31  1  0
 13 32  1  0
 14 33  1  0
 15 34  1  0
 16 35  1  0
 17 36  1  0
 18 37  1  0
 22 38  1  0
M  END
>  <smiles>  (10) 
CCOc1ccc2oc(COc3ccccc3)cc(=O)c2c1

>  <score_type>  (10) 
oracle

>  <origin>  (10) 
adg

>  <m_score__min__energy>  (10) 
-7.0499999999999998

>  <m_primary>  (10) 
energy

$$$$
11:0
     RDKit          3D

 54 57  0  0  0  0  0  0  0  0999 V2000
   62.9390   34.2970   49.5210 C   0  0  0  0  0  0  0  0  0  0  0  0
   63.6870   33.0430   49.8060 C   0  0  0  0  0  0  0  0  0  0  0  0
   64.0350   32.2110   48.6020 C   0  0  0  0  0  0  0  0  0  0  0  0
   63.4180   32.7390   47.3270 C   0  0  0  0  0  0  0  0  0  0  0  0
   62.0350   32.3120   47.1640 N   0  0  0  0  0  0  0  0  0  0  0  0
   61.8800   30.8850   47.4610 C   0  0  0  0  0  0  0  0  0  0  0  0
   60.7930   30.7790   48.4910 C   0  0  0  0  0  0  0  0  0  0  0  0
   59.8730   29.5960   48.2740 C   0  0  0  0  0  0  0  0  0  0  0  0
   59.7440   29.4360   46.8330 N   0  0  0  0  0  0  0  0  0  0  0  0
   58.5760   28.8860   46.2460 C   0  0  0  0  0  0  0  0  0  0  0  0
   57.6820   29.4170   45.3510 C   0  0  0  0  0  0  0  0  0  0  0  0
   57.6900   30.7360   44.7620 C   0  0  0  0  0  0  0  0  0  0  0  0
   58.0690   31.9080   45.2320 C   0  0  0  0  0  0  0  0  0  0  0  0
   58.5930   32.2450   46.4810 C   0  0  0  0  0  0  0  0  0  0  0  0
   58.9140   33.5660   46.7100 C   0  0  0  0  0  0  0  0  0  0  0  0
   59.6260   34.0090   48.4180 Br  0  0  0  0  0  0  0  0  0  0  0  0
   58.7270   34.5280   45.7500 C   0  0  0  0  0  0  0  0  0  0  0  0
   58.2070   34.2170   44.5030 C   0  0  0  0  0  0  0  0  0  0  0  0
   57.8900   32.8950   44.2810 C   0  0  0  0  0  0  0  0  0  0  0  0
   57.3950   32.3830   43.1880 N   0  0  0  0  0  0  0  0  0  0  0  0
   57.2240   30.9840   43.3850 C   0  0  0  0  0  0  0  0  0  0  0  0
   56.7720   30.1220   42.5740 O   0  0  0  0  0  0  0  0  0  0  0  0
   56.7340   28.4930   45.0890 N   0  0  0  0  0  0  0  0  0  0  0  0
   56.9770   27.3690   45.7840 C   0  0  0  0  0  0  0  0  0  0  0  0
   56.3490   26.1420   45.8970 C   0  0  0  0  0  0  0  0  0  0  0  0
   56.8260   25.1410   46.7070 C   0  0  0  0  0  0  0  0  0  0  0  0
   57.9950   25.3800   47.4450 C   0  0  0  0  0  0  0  0  0  0  0  0
   58.6540   26.5970   47.3600 C   0  0  0  0  0  0  0  0  0  0  0  0
   58.1360   27.5880   46.5260 C   0  0  0  0  0  0  0  0  0  0  0  0
   62.6529   34.7767   50.4686 H   0  0  0  0  0  0  0  0  0  0  0  0
   63.5769   34.9809   48.9418 H   0  0  0  0  0  0  0  0  0  0  0  0
   62.0342   34.0607   48.9418 H   0  0  0  0  0  0  0  0  0  0  0  0
   64.6246   33.3150   50.3130 H   0  0  0  0  0  0  0  0  0  0  0  0
   63.0164   32.4230   50.4191 H   0  0  0  0  0  0  0  0  0  0  0  0
   65.1288   32.2016   48.4855 H   0  0  0  0  0  0  0  0  0  0  0  0
   63.6339   31.2007   48.7704 H   0  0  0  0  0  0  0  0  0  0  0  0
   63.4486   33.8384   47.3481 H   0  0  0  0  0  0  0  0  0  0  0  0
   63.9961   32.3371   46.4819 H   0  0  0  0  0  0  0  0  0  0  0  0
   61.8020   32.5040   46.1670 H   0  0  0  0  0  0  0  0  0  0  0  0
   61.5959   30.3362   46.5510 H   0  0  0  0  0  0  0  0  0  0  0  0
   62.8211   30.4512   47.8301 H   0  0  0  0  0  0  0  0  0  0  0  0
   61.2600   30.6805   49.4821 H   0  0  0  0  0  0  0  0  0  0  0  0
   60.1785   31.6878   48.4097 H   0  0  0  0  0  0  0  0  0  0  0  0
   60.3072   28.6892   48.7203 H   0  0  0  0  0  0  0  0  0  0  0  0
   58.8934   29.7601   48.7467 H   0  0  0  0  0  0  0  0  0  0  0  0
   60.5050   29.7160   46.1610 H   0  0  0  0  0  0  0  0  0  0  0  0
   58.7450   31.4810   47.2577 H   0  0  0  0  0  0  0  0  0  0  0  0
   58.9960   35.5706   45.9749 H   0  0  0  0  0  0  0  0  0  0  0  0
   58.0555   34.9859   43.7311 H   0  0  0  0  0  0  0  0  0  0  0  0
   55.8980   28.5760   44.4430 H   0  0  0  0  0  0  0  0  0  0  0  0
   55.4327   25.9611   45.3160 H   0  0  0  0  0  0  0  0  0  0  0  0
   56.3042   24.1751   46.7756 H   0  0  0  0  0  0  0  0  0  0  0  0
   58.3941   24.5914   48.0998 H   0  0  0  0  0  0  0  0  0  0  0  0
   59.5704   26.7781   47.9408 H   0  0  0  0  0  0  0  0  0  0  0  0
  1  2  1  0
  2  3  1  0
  3  4  1  0
  4  5  1  0
  5  6  1  0
  6  7  1  0
  7  8  1  0
  8  9  1  0
  9 10  1  0
 10 11  2  0
 11 12  1  0
 12 13  2  0
 13 14  1  0
 14 15  2  0
 15 16  1  0
 15 17  1  0
 17 18  2  0
 18 19  1  0
 19 20  2  0
 20 21  1  0
 21 22  2  0
 11 23  1  0
 23 24  1  0
 24 25  2  0
 25 26  1  0
 26 27  2  0
 27 28  1  0
 28 29  2  0
 29 10  1  0
 21 12  1  0
 29 24  1  0
 19 13  1  0
  1 30  1  0
  1 31  1  0
  1 32  1  0
  2 33  1  0
  2 34  1  0
  3 35  1  0
  3 36  1  0
  4 37  1  0
  4 38  1  0
  5 39  1  0
  6 40  1  0
  6 41  1  0
  7 42  1  0
  7 43  1  0
  8 44  1  0
  8 45  1  0
  9 46  1  0
 14 47  1  0
 17 48  1  0
 18 49  1  0
 23 50  1  0
 25 51  1  0
 26 52  1  0
 27 53  1  0
 28 54  1  0
M  END
>  <smiles>  (11) 
CCCCNCCCNc1c(C2=c3cc(Br)ccc3=NC2=O)[nH]c2ccccc12

>  <score_type>  (11) 
oracle

>  <origin>  (11) 
adg

>  <m_score__min__energy>  (11) 
-8.3399999999999999

>  <m_primary>  (11) 
energy

$$$$
12:0
     RDKit          3D

 54 56  0  0  0  0  0  0  0  0999 V2000
   59.6600   35.1570   46.2120 C   0  0  0  0  0  0  0  0  0  0  0  0
   59.3730   33.8230   46.5770 O   0  0  0  0  0  0  0  0  0  0  0  0
   58.8530   32.9580   45.6330 C   0  0  0  0  0  0  0  0  0  0  0  0
   58.2930   33.4650   44.4800 C   0  0  0  0  0  0  0  0  0  0  0  0
   57.7680   32.6310   43.5180 C   0  0  0  0  0  0  0  0  0  0  0  0
   57.8000   31.2440   43.7010 C   0  0  0  0  0  0  0  0  0  0  0  0
   58.3500   30.7190   44.8350 C   0  0  0  0  0  0  0  0  0  0  0  0
   58.8760   31.5870   45.7990 C   0  0  0  0  0  0  0  0  0  0  0  0
   59.4410   31.0950   46.9500 C   0  0  0  0  0  0  0  0  0  0  0  0
   59.9670   31.8510   48.0060 N   0  0  0  0  0  0  0  0  0  0  0  0
   59.2060   31.8620   49.2600 C   0  0  0  0  0  0  0  0  0  0  0  0
   59.3940   33.1530   49.9850 C   0  0  0  0  0  0  0  0  0  0  0  0
   60.8420   33.5060   50.1350 C   0  0  0  0  0  0  0  0  0  0  0  0
   61.3570   34.1480   49.0090 O   0  0  0  0  0  0  0  0  0  0  0  0
   62.6330   33.7710   48.6740 C   0  0  0  0  0  0  0  0  0  0  0  0
   62.6070   33.0300   47.4190 N   0  0  0  0  0  0  0  0  0  0  0  0
   63.3240   31.7750   47.5320 C   0  0  0  0  0  0  0  0  0  0  0  0
   63.2220   33.8230   46.3870 C   0  0  0  0  0  0  0  0  0  0  0  0
   59.4630   29.7040   47.0980 C   0  0  0  0  0  0  0  0  0  0  0  0
   60.0230   29.1550   48.2410 C   0  0  0  0  0  0  0  0  0  0  0  0
   60.0840   27.7970   48.4670 C   0  0  0  0  0  0  0  0  0  0  0  0
   59.5550   26.9790   47.4930 C   0  0  0  0  0  0  0  0  0  0  0  0
   58.9890   27.5140   46.3380 C   0  0  0  0  0  0  0  0  0  0  0  0
   58.9350   28.8870   46.1240 C   0  0  0  0  0  0  0  0  0  0  0  0
   58.3740   29.3840   44.9830 N   0  0  0  0  0  0  0  0  0  0  0  0
   57.8700   28.4310   44.0500 C   0  0  0  0  0  0  0  0  0  0  0  0
   59.7909   35.7653   47.1191 H   0  0  0  0  0  0  0  0  0  0  0  0
   60.5844   35.1834   45.6163 H   0  0  0  0  0  0  0  0  0  0  0  0
   58.8283   35.5612   45.6163 H   0  0  0  0  0  0  0  0  0  0  0  0
   58.2650   34.5538   44.3257 H   0  0  0  0  0  0  0  0  0  0  0  0
   57.3234   33.0552   42.6056 H   0  0  0  0  0  0  0  0  0  0  0  0
   57.3825   30.5774   42.9320 H   0  0  0  0  0  0  0  0  0  0  0  0
   60.8560   32.3750   47.8910 H   0  0  0  0  0  0  0  0  0  0  0  0
   58.1378   31.7278   49.0344 H   0  0  0  0  0  0  0  0  0  0  0  0
   59.5692   31.0436   49.8990 H   0  0  0  0  0  0  0  0  0  0  0  0
   58.8898   33.9528   49.4228 H   0  0  0  0  0  0  0  0  0  0  0  0
   58.9647   33.0432   50.9918 H   0  0  0  0  0  0  0  0  0  0  0  0
   60.9540   34.1727   51.0027 H   0  0  0  0  0  0  0  0  0  0  0  0
   61.4014   32.5683   50.2689 H   0  0  0  0  0  0  0  0  0  0  0  0
   63.2614   34.6664   48.5582 H   0  0  0  0  0  0  0  0  0  0  0  0
   63.0472   33.1326   49.4683 H   0  0  0  0  0  0  0  0  0  0  0  0
   63.4652   31.5278   48.5945 H   0  0  0  0  0  0  0  0  0  0  0  0
   62.7455   30.9770   47.0436 H   0  0  0  0  0  0  0  0  0  0  0  0
   64.3052   31.8680   47.0436 H   0  0  0  0  0  0  0  0  0  0  0  0
   63.8343   34.6125   46.8471 H   0  0  0  0  0  0  0  0  0  0  0  0
   63.8606   33.1808   45.7626 H   0  0  0  0  0  0  0  0  0  0  0  0
   62.4411   34.2816   45.7626 H   0  0  0  0  0  0  0  0  0  0  0  0
   60.4371   29.8335   49.0014 H   0  0  0  0  0  0  0  0  0  0  0  0
   60.5341   27.3854   49.3824 H   0  0  0  0  0  0  0  0  0  0  0  0
   59.5799   25.8877   47.6292 H   0  0  0  0  0  0  0  0  0  0  0  0
   58.5753   26.8349   45.5779 H   0  0  0  0  0  0  0  0  0  0  0  0
   57.4231   27.5860   44.5942 H   0  0  0  0  0  0  0  0  0  0  0  0
   57.1051   28.9058   43.4180 H   0  0  0  0  0  0  0  0  0  0  0  0
   58.6930   28.0660   43.4180 H   0  0  0  0  0  0  0  0  0  0  0  0
  1  2  1  0
  2  3  1  0
  3  4  2  0
  4  5  1  0
  5  6  2  0
  6  7  1  0
  7  8  2  0
  8  9  1  0
  9 10  1  0
 10 11  1  0
 11 12  1  0
 12 13  1  0
 13 14  1  0
 14 15  1  0
 15 16  1  0
 16 17  1  0
 16 18  1  0
  9 19  2  0
 19 20  1  0
 20 21  2  0
 21 22  1  0
 22 23  2  0
 23 24  1  0
 24 25  2  0
 25 26  1  0
  8  3  1  0
 24 19  1  0
 25  7  1  0
  1 27  1  0
  1 28  1  0
  1 29  1  0
  4 30  1  0
  5 31  1  0
  6 32  1  0
 10 33  1  0
 11 34  1  0
 11 35  1  0
 12 36  1  0
 12 37  1  0
 13 38  1  0
 13 39  1  0
 15 40  1  0
 15 41  1  0
 17 42  1  0
 17 43  1  0
 17 44  1  0
 18 45  1  0
 18 46  1  0
 18 47  1  0
 20 48  1  0
 21 49  1  0
 22 50  1  0
 23 51  1  0
 26 52  1  0
 26 53  1  0
 26 54  1  0
M  CHG  1  25   1
M  END
>  <smiles>  (12) 
COc1cccc2c1c(NCCCOCN(C)C)c1ccccc1[n+]2C

>  <score_type>  (12) 
oracle

>  <origin>  (12) 
adg

>  <m_score__min__energy>  (12) 
-4.4699999999999998

>  <m_primary>  (12) 
energy

$$$$
13:0
     RDKit          3D

 36 38  0  0  0  0  0  0  0  0999 V2000
   58.1150   32.3380   42.1580 C   0  0  0  0  0  0  0  0  0  0  0  0
   57.8370   32.2570   43.5930 N   0  0  0  0  0  0  0  0  0  0  0  0
   57.0840   31.3400   44.2130 C   0  0  0  0  0  0  0  0  0  0  0  0
   56.4120   30.2310   43.4500 C   0  0  0  0  0  0  0  0  0  0  0  0
   56.5250   28.9820   44.0990 N   0  0  0  0  0  0  0  0  0  0  0  0
   57.8680   28.4860   44.0960 C   0  0  0  0  0  0  0  0  0  0  0  0
   58.2740   27.8140   45.3430 C   0  0  0  0  0  0  0  0  0  0  0  0
   57.4490   27.0590   46.1380 C   0  0  0  0  0  0  0  0  0  0  0  0
   56.1470   26.7840   45.7910 F   0  0  0  0  0  0  0  0  0  0  0  0
   57.8630   26.4800   47.3320 C   0  0  0  0  0  0  0  0  0  0  0  0
   59.1680   26.6470   47.7760 C   0  0  0  0  0  0  0  0  0  0  0  0
   60.0150   27.4030   46.9860 C   0  0  0  0  0  0  0  0  0  0  0  0
   59.5900   27.9810   45.7910 C   0  0  0  0  0  0  0  0  0  0  0  0
   60.7440   28.9200   44.8660 Cl  0  0  0  0  0  0  0  0  0  0  0  0
   57.0530   31.5760   45.5360 N   0  0  0  0  0  0  0  0  0  0  0  0
   57.7970   32.6660   45.7860 C   0  0  0  0  0  0  0  0  0  0  0  0
   58.1330   33.3750   46.9440 C   0  0  0  0  0  0  0  0  0  0  0  0
   58.9560   34.5010   46.8660 C   0  0  0  0  0  0  0  0  0  0  0  0
   59.4490   34.9240   45.6250 C   0  0  0  0  0  0  0  0  0  0  0  0
   59.1080   34.2100   44.4770 C   0  0  0  0  0  0  0  0  0  0  0  0
   58.2960   33.0990   44.5550 C   0  0  0  0  0  0  0  0  0  0  0  0
   59.1606   32.6427   42.0037 H   0  0  0  0  0  0  0  0  0  0  0  0
   57.9479   31.3538   41.6960 H   0  0  0  0  0  0  0  0  0  0  0  0
   57.4454   33.0784   41.6960 H   0  0  0  0  0  0  0  0  0  0  0  0
   55.3453   30.4754   43.3387 H   0  0  0  0  0  0  0  0  0  0  0  0
   56.9117   30.1466   42.4737 H   0  0  0  0  0  0  0  0  0  0  0  0
   55.9000   28.2260   43.7440 H   0  0  0  0  0  0  0  0  0  0  0  0
   57.9666   27.7662   43.2700 H   0  0  0  0  0  0  0  0  0  0  0  0
   58.5246   29.3615   43.9843 H   0  0  0  0  0  0  0  0  0  0  0  0
   57.1536   25.8869   47.9278 H   0  0  0  0  0  0  0  0  0  0  0  0
   59.5142   26.1963   48.7178 H   0  0  0  0  0  0  0  0  0  0  0  0
   61.0553   27.5526   47.3106 H   0  0  0  0  0  0  0  0  0  0  0  0
   57.7476   33.0446   47.9199 H   0  0  0  0  0  0  0  0  0  0  0  0
   59.2170   35.0556   47.7794 H   0  0  0  0  0  0  0  0  0  0  0  0
   60.0979   35.8096   45.5569 H   0  0  0  0  0  0  0  0  0  0  0  0
   59.4910   34.5367   43.4989 H   0  0  0  0  0  0  0  0  0  0  0  0
  1  2  1  0
  2  3  1  0
  3  4  1  0
  4  5  1  0
  5  6  1  0
  6  7  1  0
  7  8  2  0
  8  9  1  0
  8 10  1  0
 10 11  2  0
 11 12  1  0
 12 13  2  0
 13 14  1  0
  3 15  2  0
 15 16  1  0
 16 17  2  0
 17 18  1  0
 18 19  2  0
 19 20  1  0
 20 21  2  0
 21  2  1  0
 13  7  1  0
 21 16  1  0
  1 22  1  0
  1 23  1  0
  1 24  1  0
  4 25  1  0
  4 26  1  0
  5 27  1  0
  6 28  1  0
  6 29  1  0
 10 30  1  0
 11 31  1  0
 12 32  1  0
 17 33  1  0
 18 34  1  0
 19 35  1  0
 20 36  1  0
M  END
>  <smiles>  (13) 
Cn1c(CNCc2c(F)cccc2Cl)nc2ccccc21

>  <score_type>  (13) 
oracle

>  <origin>  (13) 
adg

>  <m_score__min__energy>  (13) 
-8.4700000000000006

>  <m_primary>  (13) 
energy

$$$$
14:0
     RDKit          3D

 41 43  0  0  0  0  0  0  0  0999 V2000
   59.8580   35.9360   45.9150 C   0  0  0  0  0  0  0  0  0  0  0  0
   59.3110   34.6050   46.3370 C   0  0  0  0  0  0  0  0  0  0  0  0
   59.2740   34.1320   47.5840 N   0  0  0  0  0  0  0  0  0  0  0  0
   58.7160   32.9130   47.6130 N   0  0  0  0  0  0  0  0  0  0  0  0
   58.5520   32.2000   48.8700 C   0  0  0  0  0  0  0  0  0  0  0  0
   59.7460   32.2440   49.7530 C   0  0  0  0  0  0  0  0  0  0  0  0
   60.0030   33.6190   50.1370 N   0  0  0  0  0  0  0  0  0  0  0  0
   61.1910   33.7890   50.9420 C   0  0  0  0  0  0  0  0  0  0  0  0
   62.4140   33.7200   50.0830 C   0  0  0  0  0  0  0  0  0  0  0  0
   62.1960   34.2120   48.7510 N   0  0  0  0  0  0  0  0  0  0  0  0
   63.2470   33.7960   47.8810 C   0  0  0  0  0  0  0  0  0  0  0  0
   63.1120   33.8400   46.4010 C   0  0  0  0  0  0  0  0  0  0  0  0
   62.9570   32.4990   47.1130 C   0  0  0  0  0  0  0  0  0  0  0  0
   58.3740   32.5600   46.3700 C   0  0  0  0  0  0  0  0  0  0  0  0
   57.7730   31.4330   45.8400 C   0  0  0  0  0  0  0  0  0  0  0  0
   57.5490   31.3890   44.4830 C   0  0  0  0  0  0  0  0  0  0  0  0
   56.7900   29.9630   43.8120 Cl  0  0  0  0  0  0  0  0  0  0  0  0
   57.9200   32.4480   43.6790 C   0  0  0  0  0  0  0  0  0  0  0  0
   58.5210   33.5790   44.1880 C   0  0  0  0  0  0  0  0  0  0  0  0
   58.7460   33.6250   45.5500 C   0  0  0  0  0  0  0  0  0  0  0  0
   60.1027   36.5314   46.8070 H   0  0  0  0  0  0  0  0  0  0  0  0
   60.7670   35.7851   45.3142 H   0  0  0  0  0  0  0  0  0  0  0  0
   59.1056   36.4679   45.3142 H   0  0  0  0  0  0  0  0  0  0  0  0
   57.7050   32.6459   49.4120 H   0  0  0  0  0  0  0  0  0  0  0  0
   58.3847   31.1430   48.6154 H   0  0  0  0  0  0  0  0  0  0  0  0
   59.5610   31.6389   50.6528 H   0  0  0  0  0  0  0  0  0  0  0  0
   60.6177   31.8401   49.2173 H   0  0  0  0  0  0  0  0  0  0  0  0
   60.1410   34.1520   49.2550 H   0  0  0  0  0  0  0  0  0  0  0  0
   61.1535   34.7680   51.4421 H   0  0  0  0  0  0  0  0  0  0  0  0
   61.2339   32.9847   51.6912 H   0  0  0  0  0  0  0  0  0  0  0  0
   63.2062   34.3213   50.5530 H   0  0  0  0  0  0  0  0  0  0  0  0
   62.6962   32.6601   49.9989 H   0  0  0  0  0  0  0  0  0  0  0  0
   61.2440   33.9000   48.4290 H   0  0  0  0  0  0  0  0  0  0  0  0
   64.0200   34.1943   48.5546 H   0  0  0  0  0  0  0  0  0  0  0  0
   62.2340   34.3221   45.9464 H   0  0  0  0  0  0  0  0  0  0  0  0
   63.7452   34.2079   45.5802 H   0  0  0  0  0  0  0  0  0  0  0  0
   61.9695   32.0198   47.1855 H   0  0  0  0  0  0  0  0  0  0  0  0
   63.4249   31.5065   47.0361 H   0  0  0  0  0  0  0  0  0  0  0  0
   57.4813   30.5926   46.4870 H   0  0  0  0  0  0  0  0  0  0  0  0
   57.7298   32.3872   42.5973 H   0  0  0  0  0  0  0  0  0  0  0  0
   58.8108   34.4143   43.5336 H   0  0  0  0  0  0  0  0  0  0  0  0
  1  2  1  0
  2  3  2  0
  3  4  1  0
  4  5  1  0
  5  6  1  0
  6  7  1  0
  7  8  1  0
  8  9  1  0
  9 10  1  0
 10 11  1  0
 11 12  1  0
 12 13  1  0
  4 14  1  0
 14 15  2  0
 15 16  1  0
 16 17  1  0
 16 18  2  0
 18 19  1  0
 19 20  2  0
 20  2  1  0
 13 11  1  0
 20 14  1  0
  1 21  1  0
  1 22  1  0
  1 23  1  0
  5 24  1  0
  5 25  1  0
  6 26  1  0
  6 27  1  0
  7 28  1  0
  8 29  1  0
  8 30  1  0
  9 31  1  0
  9 32  1  0
 10 33  1  0
 11 34  1  0
 12 35  1  0
 12 36  1  0
 13 37  1  0
 13 38  1  0
 15 39  1  0
 18 40  1  0
 19 41  1  0
M  END
>  <smiles>  (14) 
Cc1nn(CCNCCNC2CC2)c2cc(Cl)ccc12

>  <score_type>  (14) 
oracle

>  <origin>  (14) 
adg

>  <m_score__min__energy>  (14) 
-6.8700000000000001

>  <m_primary>  (14) 
energy

$$$$
15:0
     RDKit          3D

 68 70  0  0  0  0  0  0  0  0999 V2000
   57.4150   32.5330   52.0920 C   0  0  0  0  0  0  0  0  0  0  0  0
   57.0700   31.0610   52.0670 C   0  0  0  0  0  0  0  0  0  0  0  0
   57.6300   30.4470   50.8770 N   0  0  0  0  0  0  0  0  0  0  0  0
   59.0690   30.3650   50.9750 C   0  0  0  0  0  0  0  0  0  0  0  0
   59.5520   29.3220   49.9610 C   0  0  0  0  0  0  0  0  0  0  0  0
   59.7500   29.9970   48.6430 C   0  0  0  0  0  0  0  0  0  0  0  0
   58.7970   31.0430   48.3270 N   0  0  0  0  0  0  0  0  0  0  0  0
   58.6700   31.4340   46.9430 C   0  0  0  0  0  0  0  0  0  0  0  0
   58.2390   30.4670   46.0780 C   0  0  0  0  0  0  0  0  0  0  0  0
   58.0600   29.1420   46.4090 C   0  0  0  0  0  0  0  0  0  0  0  0
   57.6490   28.1760   45.5140 C   0  0  0  0  0  0  0  0  0  0  0  0
   57.3970   28.5340   44.2120 C   0  0  0  0  0  0  0  0  0  0  0  0
   57.5710   29.8540   43.8540 C   0  0  0  0  0  0  0  0  0  0  0  0
   57.9900   30.8270   44.7690 C   0  0  0  0  0  0  0  0  0  0  0  0
   58.1720   32.1230   44.3440 N   0  0  0  0  0  0  0  0  0  0  0  0
   57.8780   32.3670   42.9700 C   0  0  0  0  0  0  0  0  0  0  0  0
   58.6030   33.0380   45.2350 C   0  0  0  0  0  0  0  0  0  0  0  0
   58.8130   34.3270   44.8050 C   0  0  0  0  0  0  0  0  0  0  0  0
   59.2780   35.3250   45.6290 C   0  0  0  0  0  0  0  0  0  0  0  0
   59.5390   35.0010   46.9420 C   0  0  0  0  0  0  0  0  0  0  0  0
   59.3510   33.7160   47.4530 C   0  0  0  0  0  0  0  0  0  0  0  0
   59.6050   33.4110   48.6750 O   0  0  0  0  0  0  0  0  0  0  0  0
   60.0340   33.4510   49.9290 C   0  0  0  0  0  0  0  0  0  0  0  0
   61.4860   33.6470   50.1910 C   0  0  0  0  0  0  0  0  0  0  0  0
   62.3210   34.0710   49.0670 C   0  0  0  0  0  0  0  0  0  0  0  0
   63.0410   33.1310   48.2990 N   0  0  0  0  0  0  0  0  0  0  0  0
   63.3890   33.7930   47.0130 C   0  0  0  0  0  0  0  0  0  0  0  0
   62.4890   31.8810   47.9530 C   0  0  0  0  0  0  0  0  0  0  0  0
   64.3620   32.8490   48.9080 C   0  0  0  0  0  0  0  0  0  0  0  0
   58.8690   32.7510   46.5470 C   0  0  0  0  0  0  0  0  0  0  0  0
   57.4947   32.8732   53.1350 H   0  0  0  0  0  0  0  0  0  0  0  0
   58.3751   32.6933   51.5796 H   0  0  0  0  0  0  0  0  0  0  0  0
   56.6262   33.1032   51.5796 H   0  0  0  0  0  0  0  0  0  0  0  0
   57.4861   30.5728   52.9606 H   0  0  0  0  0  0  0  0  0  0  0  0
   55.9763   30.9435   52.0571 H   0  0  0  0  0  0  0  0  0  0  0  0
   57.3960   31.1210   50.0940 H   0  0  0  0  0  0  0  0  0  0  0  0
   59.5155   31.3438   50.7457 H   0  0  0  0  0  0  0  0  0  0  0  0
   59.3677   30.0760   51.9935 H   0  0  0  0  0  0  0  0  0  0  0  0
   60.5031   28.8866   50.3013 H   0  0  0  0  0  0  0  0  0  0  0  0
   58.8075   28.5181   49.8642 H   0  0  0  0  0  0  0  0  0  0  0  0
   60.7558   30.4424   48.6383 H   0  0  0  0  0  0  0  0  0  0  0  0
   59.6061   29.2175   47.8803 H   0  0  0  0  0  0  0  0  0  0  0  0
   58.2120   31.5120   49.0500 H   0  0  0  0  0  0  0  0  0  0  0  0
   58.2562   28.8364   47.4473 H   0  0  0  0  0  0  0  0  0  0  0  0
   57.5247   27.1324   45.8388 H   0  0  0  0  0  0  0  0  0  0  0  0
   57.0654   27.7878   43.4750 H   0  0  0  0  0  0  0  0  0  0  0  0
   57.3738   30.1528   42.8139 H   0  0  0  0  0  0  0  0  0  0  0  0
   57.0335   33.0678   42.8946 H   0  0  0  0  0  0  0  0  0  0  0  0
   58.7604   32.8018   42.4778 H   0  0  0  0  0  0  0  0  0  0  0  0
   57.6133   31.4195   42.4778 H   0  0  0  0  0  0  0  0  0  0  0  0
   58.5993   34.5711   43.7539 H   0  0  0  0  0  0  0  0  0  0  0  0
   59.4360   36.3465   45.2526 H   0  0  0  0  0  0  0  0  0  0  0  0
   59.9109   35.7873   47.6154 H   0  0  0  0  0  0  0  0  0  0  0  0
   59.5030   34.2771   50.4247 H   0  0  0  0  0  0  0  0  0  0  0  0
   59.8328   32.4382   50.3081 H   0  0  0  0  0  0  0  0  0  0  0  0
   61.5794   34.4100   50.9778 H   0  0  0  0  0  0  0  0  0  0  0  0
   61.8610   32.6484   50.4595 H   0  0  0  0  0  0  0  0  0  0  0  0
   61.6581   34.6028   48.3686 H   0  0  0  0  0  0  0  0  0  0  0  0
   63.1209   34.6408   49.5625 H   0  0  0  0  0  0  0  0  0  0  0  0
   63.8919   34.7497   47.2174 H   0  0  0  0  0  0  0  0  0  0  0  0
   64.0612   33.1415   46.4353 H   0  0  0  0  0  0  0  0  0  0  0  0
   62.4712   33.9773   46.4353 H   0  0  0  0  0  0  0  0  0  0  0  0
   62.2426   31.3230   48.8684 H   0  0  0  0  0  0  0  0  0  0  0  0
   61.5752   32.0351   47.3603 H   0  0  0  0  0  0  0  0  0  0  0  0
   63.2184   31.3095   47.3603 H   0  0  0  0  0  0  0  0  0  0  0  0
   64.2720   32.8682   50.0041 H   0  0  0  0  0  0  0  0  0  0  0  0
   64.7098   31.8564   48.5860 H   0  0  0  0  0  0  0  0  0  0  0  0
   65.0848   33.6131   48.5860 H   0  0  0  0  0  0  0  0  0  0  0  0
  1  2  1  0
  2  3  1  0
  3  4  1  0
  4  5  1  0
  5  6  1  0
  6  7  1  0
  7  8  1  0
  8  9  2  0
  9 10  1  0
 10 11  2  0
 11 12  1  0
 12 13  2  0
 13 14  1  0
 14 15  2  0
 15 16  1  0
 15 17  1  0
 17 18  2  0
 18 19  1  0
 19 20  2  0
 20 21  1  0
 21 22  1  0
 22 23  1  0
 23 24  1  0
 24 25  1  0
 25 26  1  0
 26 27  1  0
 26 28  1  0
 26 29  1  0
 21 30  2  0
 30  8  1  0
 14  9  1  0
 30 17  1  0
  1 31  1  0
  1 32  1  0
  1 33  1  0
  2 34  1  0
  2 35  1  0
  3 36  1  0
  4 37  1  0
  4 38  1  0
  5 39  1  0
  5 40  1  0
  6 41  1  0
  6 42  1  0
  7 43  1  0
 10 44  1  0
 11 45  1  0
 12 46  1  0
 13 47  1  0
 16 48  1  0
 16 49  1  0
 16 50  1  0
 18 51  1  0
 19 52  1  0
 20 53  1  0
 23 54  1  0
 23 55  1  0
 24 56  1  0
 24 57  1  0
 25 58  1  0
 25 59  1  0
 27 60  1  0
 27 61  1  0
 27 62  1  0
 28 63  1  0
 28 64  1  0
 28 65  1  0
 29 66  1  0
 29 67  1  0
 29 68  1  0
M  CHG  2  15   1  26   1
M  END
>  <smiles>  (15) 
CCNCCCNc1c2ccccc2[n+](C)c2cccc(OCCC[N+](C)(C)C)c12

>  <score_type>  (15) 
oracle

>  <origin>  (15) 
adg

>  <m_score__min__energy>  (15) 
-4.5099999999999998

>  <m_primary>  (15) 
energy

$$$$
16:0
     RDKit          3D

 46 48  0  0  0  0  0  0  0  0999 V2000
   56.1870   30.4210   44.0970 C   0  0  0  0  0  0  0  0  0  0  0  0
   57.5400   30.9150   44.3840 N   0  0  0  0  0  0  0  0  0  0  0  0
   57.9130   32.2060   43.8570 C   0  0  0  0  0  0  0  0  0  0  0  0
   57.4180   33.3180   44.7850 C   0  0  0  0  0  0  0  0  0  0  0  0
   57.5180   32.9280   46.1190 O   0  0  0  0  0  0  0  0  0  0  0  0
   58.6080   33.1080   46.9260 C   0  0  0  0  0  0  0  0  0  0  0  0
   58.5780   33.0520   48.3030 C   0  0  0  0  0  0  0  0  0  0  0  0
   59.6660   33.2330   49.1090 C   0  0  0  0  0  0  0  0  0  0  0  0
   60.8980   33.4910   48.5210 C   0  0  0  0  0  0  0  0  0  0  0  0
   60.9290   33.5490   47.1190 C   0  0  0  0  0  0  0  0  0  0  0  0
   59.8230   33.3640   46.3370 C   0  0  0  0  0  0  0  0  0  0  0  0
   62.1910   33.8170   46.2710 C   0  0  0  0  0  0  0  0  0  0  0  0
   63.3100   33.6590   47.1350 C   0  0  0  0  0  0  0  0  0  0  0  0
   64.1210   33.3710   48.1700 N   0  0  0  0  0  0  0  0  0  0  0  0
   63.3000   32.9560   49.3500 C   0  0  0  0  0  0  0  0  0  0  0  0
   62.0100   33.6770   49.4470 C   0  0  0  0  0  0  0  0  0  0  0  0
   58.3870   30.0900   45.1630 C   0  0  0  0  0  0  0  0  0  0  0  0
   58.2430   29.8810   46.5120 C   0  0  0  0  0  0  0  0  0  0  0  0
   59.0920   29.0610   47.2490 C   0  0  0  0  0  0  0  0  0  0  0  0
   60.1380   28.4120   46.6350 C   0  0  0  0  0  0  0  0  0  0  0  0
   60.3040   28.6040   45.2860 C   0  0  0  0  0  0  0  0  0  0  0  0
   59.4580   29.4180   44.5620 C   0  0  0  0  0  0  0  0  0  0  0  0
   55.6588   30.2282   45.0424 H   0  0  0  0  0  0  0  0  0  0  0  0
   55.6364   31.1761   43.5168 H   0  0  0  0  0  0  0  0  0  0  0  0
   56.2524   29.4888   43.5168 H   0  0  0  0  0  0  0  0  0  0  0  0
   59.0085   32.2622   43.7744 H   0  0  0  0  0  0  0  0  0  0  0  0
   57.4549   32.3352   42.8653 H   0  0  0  0  0  0  0  0  0  0  0  0
   58.0281   34.2194   44.6257 H   0  0  0  0  0  0  0  0  0  0  0  0
   56.3624   33.5258   44.5558 H   0  0  0  0  0  0  0  0  0  0  0  0
   57.6112   32.8474   48.7862 H   0  0  0  0  0  0  0  0  0  0  0  0
   59.5685   33.1755   50.2032 H   0  0  0  0  0  0  0  0  0  0  0  0
   59.9052   33.4198   45.2415 H   0  0  0  0  0  0  0  0  0  0  0  0
   62.2491   33.0973   45.4412 H   0  0  0  0  0  0  0  0  0  0  0  0
   62.1673   34.8279   45.8380 H   0  0  0  0  0  0  0  0  0  0  0  0
   63.9021   33.0901   46.4030 H   0  0  0  0  0  0  0  0  0  0  0  0
   62.8643   34.4395   47.7692 H   0  0  0  0  0  0  0  0  0  0  0  0
   64.8920   32.7440   47.9900 H   0  0  0  0  0  0  0  0  0  0  0  0
   63.0930   31.8786   49.2701 H   0  0  0  0  0  0  0  0  0  0  0  0
   63.8791   33.2002   50.2528 H   0  0  0  0  0  0  0  0  0  0  0  0
   61.6103   33.4394   50.4439 H   0  0  0  0  0  0  0  0  0  0  0  0
   62.3237   34.7003   49.1930 H   0  0  0  0  0  0  0  0  0  0  0  0
   57.4174   30.3856   47.0352 H   0  0  0  0  0  0  0  0  0  0  0  0
   58.9258   28.9310   48.3286 H   0  0  0  0  0  0  0  0  0  0  0  0
   60.8178   27.7618   47.2052 H   0  0  0  0  0  0  0  0  0  0  0  0
   61.1320   28.0962   44.7697 H   0  0  0  0  0  0  0  0  0  0  0  0
   59.6296   29.5426   43.4826 H   0  0  0  0  0  0  0  0  0  0  0  0
  1  2  1  0
  2  3  1  0
  3  4  1  0
  4  5  1  0
  5  6  1  0
  6  7  2  0
  7  8  1  0
  8  9  2  0
  9 10  1  0
 10 11  2  0
 10 12  1  0
 12 13  1  0
 13 14  1  0
 14 15  1  0
 15 16  1  0
  2 17  1  0
 17 18  2  0
 18 19  1  0
 19 20  2  0
 20 21  1  0
 21 22  2  0
 11  6  1  0
 22 17  1  0
 16  9  1  0
  1 23  1  0
  1 24  1  0
  1 25  1  0
  3 26  1  0
  3 27  1  0
  4 28  1  0
  4 29  1  0
  7 30  1  0
  8 31  1  0
 11 32  1  0
 12 33  1  0
 12 34  1  0
 13 35  1  0
 13 36  1  0
 14 37  1  0
 15 38  1  0
 15 39  1  0
 16 40  1  0
 16 41  1  0
 18 42  1  0
 19 43  1  0
 20 44  1  0
 21 45  1  0
 22 46  1  0
M  END
>  <smiles>  (16) 
CN(CCOc1ccc2c(c1)CCNCC2)c1ccccc1

>  <score_type>  (16) 
oracle

>  <origin>  (16) 
adg

>  <m_score__min__energy>  (16) 
-5.4100000000000001

>  <m_primary>  (16) 
energy

$$$$
17:0
     RDKit          3D

 44 45  0  0  1  0  0  0  0  0999 V2000
   57.0210   34.2130   45.2040 C   0  0  0  0  0  0  0  0  0  0  0  0
   58.4130   33.7500   45.6570 C   0  0  1  0  0  0  0  0  0  0  0  0
   59.1480   34.8890   46.3280 C   0  0  0  0  0  0  0  0  0  0  0  0
   60.3800   34.3800   47.0000 C   0  0  0  0  0  0  0  0  0  0  0  0
   60.6590   32.9140   46.7710 C   0  0  0  0  0  0  0  0  0  0  0  0
   59.5440   32.0900   46.9560 N   0  0  0  0  0  0  0  0  0  0  0  0
   59.5970   31.0120   47.8720 C   0  0  0  0  0  0  0  0  0  0  0  0
   58.8720   29.7820   47.5150 C   0  0  0  0  0  0  0  0  0  0  0  0
   59.7640   28.5850   47.7130 C   0  0  0  0  0  0  0  0  0  0  0  0
   60.2670   27.9710   46.4370 C   0  0  0  0  0  0  0  0  0  0  0  0
   60.1610   28.9120   45.2460 C   0  0  0  0  0  0  0  0  0  0  0  0
   58.8630   28.2810   44.1250 S   0  0  0  0  0  0  0  0  0  0  0  0
   57.3860   29.2820   44.3380 C   0  0  0  0  0  0  0  0  0  0  0  0
   56.2660   28.7870   44.9040 N   0  0  0  0  0  0  0  0  0  0  0  0
   55.3640   29.7520   44.9190 N   0  0  0  0  0  0  0  0  0  0  0  0
   55.9250   30.8160   44.3720 N   0  0  0  0  0  0  0  0  0  0  0  0
   57.1770   30.5590   44.0000 N   0  0  0  0  0  0  0  0  0  0  0  0
   58.1440   31.4270   43.3680 C   0  0  0  0  0  0  0  0  0  0  0  0
   58.2790   32.6680   46.7200 C   0  0  0  0  0  0  0  0  0  0  0  0
   56.3982   34.4202   46.0867 H   0  0  0  0  0  0  0  0  0  0  0  0
   57.1172   35.1275   44.6004 H   0  0  0  0  0  0  0  0  0  0  0  0
   56.5503   33.4230   44.6004 H   0  0  0  0  0  0  0  0  0  0  0  0
   58.9480   33.3882   44.7666 H   0  0  0  0  0  0  0  0  0  0  0  0
   59.4288   35.6365   45.5714 H   0  0  0  0  0  0  0  0  0  0  0  0
   58.4904   35.3473   47.0814 H   0  0  0  0  0  0  0  0  0  0  0  0
   61.2388   34.9557   46.6245 H   0  0  0  0  0  0  0  0  0  0  0  0
   60.2193   34.5022   48.0813 H   0  0  0  0  0  0  0  0  0  0  0  0
   61.0166   32.7865   45.7386 H   0  0  0  0  0  0  0  0  0  0  0  0
   61.4080   32.6107   47.5174 H   0  0  0  0  0  0  0  0  0  0  0  0
   60.6555   30.7440   48.0048 H   0  0  0  0  0  0  0  0  0  0  0  0
   59.0899   31.3850   48.7741 H   0  0  0  0  0  0  0  0  0  0  0  0
   57.9828   29.6840   48.1551 H   0  0  0  0  0  0  0  0  0  0  0  0
   58.5666   29.8352   46.4596 H   0  0  0  0  0  0  0  0  0  0  0  0
   60.6328   28.8979   48.3107 H   0  0  0  0  0  0  0  0  0  0  0  0
   59.1551   27.8176   48.2133 H   0  0  0  0  0  0  0  0  0  0  0  0
   61.3229   27.6942   46.5729 H   0  0  0  0  0  0  0  0  0  0  0  0
   59.6387   27.0940   46.2222 H   0  0  0  0  0  0  0  0  0  0  0  0
   59.8939   29.9212   45.5927 H   0  0  0  0  0  0  0  0  0  0  0  0
   61.1245   28.9625   44.7176 H   0  0  0  0  0  0  0  0  0  0  0  0
   58.7269   31.9503   44.1403 H   0  0  0  0  0  0  0  0  0  0  0  0
   58.8206   30.8274   42.7413 H   0  0  0  0  0  0  0  0  0  0  0  0
   57.6207   32.1641   42.7413 H   0  0  0  0  0  0  0  0  0  0  0  0
   57.5802   31.8937   46.3707 H   0  0  0  0  0  0  0  0  0  0  0  0
   57.8955   33.1104   47.6512 H   0  0  0  0  0  0  0  0  0  0  0  0
  1  2  1  0
  2  3  1  0
  3  4  1  0
  4  5  1  0
  5  6  1  0
  6  7  1  0
  7  8  1  0
  8  9  1  0
  9 10  1  0
 10 11  1  0
 11 12  1  0
 12 13  1  0
 13 14  2  0
 14 15  1  0
 15 16  2  0
 16 17  1  0
 17 18  1  0
  6 19  1  0
 19  2  1  0
 17 13  1  0
  1 20  1  0
  1 21  1  0
  1 22  1  0
  2 23  1  6
  3 24  1  0
  3 25  1  0
  4 26  1  0
  4 27  1  0
  5 28  1  0
  5 29  1  0
  7 30  1  0
  7 31  1  0
  8 32  1  0
  8 33  1  0
  9 34  1  0
  9 35  1  0
 10 36  1  0
 10 37  1  0
 11 38  1  0
 11 39  1  0
 18 40  1  0
 18 41  1  0
 18 42  1  0
 19 43  1  0
 19 44  1  0
M  END
>  <smiles>  (17) 
CC1CCCN(CCCCCSc2nnnn2C)C1

>  <score_type>  (17) 
oracle

>  <origin>  (17) 
adg

>  <m_score__min__energy>  (17) 
-8

>  <m_primary>  (17) 
energy

$$$$
18:0
     RDKit          3D

 64 67  0  0  0  0  0  0  0  0999 V2000
   58.8080   34.4820   45.5430 C   0  0  0  0  0  0  0  0  0  0  0  0
   57.5890   33.9010   44.8860 C   0  0  0  0  0  0  0  0  0  0  0  0
   57.2940   32.5340   45.3710 N   0  0  0  0  0  0  0  0  0  0  0  0
   58.1240   32.3030   46.5580 C   0  0  0  0  0  0  0  0  0  0  0  0
   57.5790   31.5970   44.3320 C   0  0  0  0  0  0  0  0  0  0  0  0
   56.3030   30.7690   44.0770 C   0  0  0  0  0  0  0  0  0  0  0  0
   56.3550   29.7080   44.8900 O   0  0  0  0  0  0  0  0  0  0  0  0
   57.4000   28.8730   44.8800 C   0  0  0  0  0  0  0  0  0  0  0  0
   57.6200   28.0120   46.1010 C   0  0  0  0  0  0  0  0  0  0  0  0
   58.5620   27.2130   46.2430 O   0  0  0  0  0  0  0  0  0  0  0  0
   59.5070   26.4100   46.3820 C   0  0  0  0  0  0  0  0  0  0  0  0
   60.3920   26.5480   47.6330 C   0  0  0  0  0  0  0  0  0  0  0  0
   59.8760   27.5850   48.4540 N   0  0  0  0  0  0  0  0  0  0  0  0
   60.7120   28.4490   49.1990 C   0  0  0  0  0  0  0  0  0  0  0  0
   61.1400   29.6860   48.8030 C   0  0  0  0  0  0  0  0  0  0  0  0
   61.9950   30.4710   49.5920 C   0  0  0  0  0  0  0  0  0  0  0  0
   62.4340   30.0110   50.8070 N   0  0  0  0  0  0  0  0  0  0  0  0
   63.2880   30.8360   51.5900 C   0  0  0  0  0  0  0  0  0  0  0  0
   62.0230   28.7880   51.2210 C   0  0  0  0  0  0  0  0  0  0  0  0
   62.4150   28.2400   52.4150 C   0  0  0  0  0  0  0  0  0  0  0  0
   61.9980   26.9780   52.8440 C   0  0  0  0  0  0  0  0  0  0  0  0
   61.1630   26.2300   52.0580 C   0  0  0  0  0  0  0  0  0  0  0  0
   60.7660   26.7680   50.8580 C   0  0  0  0  0  0  0  0  0  0  0  0
   61.1750   28.0070   50.4420 C   0  0  0  0  0  0  0  0  0  0  0  0
   62.2320   31.7190   48.8520 C   0  0  0  0  0  0  0  0  0  0  0  0
   62.9670   32.8550   49.1130 C   0  0  0  0  0  0  0  0  0  0  0  0
   63.0250   33.9290   48.2360 C   0  0  0  0  0  0  0  0  0  0  0  0
   62.3240   33.8650   47.0520 C   0  0  0  0  0  0  0  0  0  0  0  0
   61.5710   32.7310   46.7550 C   0  0  0  0  0  0  0  0  0  0  0  0
   61.5430   31.6930   47.6560 C   0  0  0  0  0  0  0  0  0  0  0  0
   60.8300   30.4190   47.5730 C   0  0  0  0  0  0  0  0  0  0  0  0
   60.1000   30.0650   46.6050 O   0  0  0  0  0  0  0  0  0  0  0  0
   58.6960   34.4286   46.6360 H   0  0  0  0  0  0  0  0  0  0  0  0
   59.6969   33.9107   45.2371 H   0  0  0  0  0  0  0  0  0  0  0  0
   58.9240   35.5322   45.2371 H   0  0  0  0  0  0  0  0  0  0  0  0
   56.7265   34.5483   45.1029 H   0  0  0  0  0  0  0  0  0  0  0  0
   57.7819   33.8428   43.8046 H   0  0  0  0  0  0  0  0  0  0  0  0
   57.5229   32.4703   47.4639 H   0  0  0  0  0  0  0  0  0  0  0  0
   58.4950   31.2675   46.5501 H   0  0  0  0  0  0  0  0  0  0  0  0
   58.9766   32.9980   46.5501 H   0  0  0  0  0  0  0  0  0  0  0  0
   57.8668   32.1319   43.4150 H   0  0  0  0  0  0  0  0  0  0  0  0
   58.4100   30.9393   44.6267 H   0  0  0  0  0  0  0  0  0  0  0  0
   55.4106   31.3722   44.3001 H   0  0  0  0  0  0  0  0  0  0  0  0
   56.2438   30.4541   43.0247 H   0  0  0  0  0  0  0  0  0  0  0  0
   57.2738   28.1985   44.0203 H   0  0  0  0  0  0  0  0  0  0  0  0
   58.2814   29.5299   44.8395 H   0  0  0  0  0  0  0  0  0  0  0  0
   57.6978   28.7125   46.9456 H   0  0  0  0  0  0  0  0  0  0  0  0
   56.7751   27.3135   46.0101 H   0  0  0  0  0  0  0  0  0  0  0  0
   59.0771   25.3976   46.3951 H   0  0  0  0  0  0  0  0  0  0  0  0
   60.1817   26.6304   45.5416 H   0  0  0  0  0  0  0  0  0  0  0  0
   60.3906   25.6005   48.1917 H   0  0  0  0  0  0  0  0  0  0  0  0
   61.4224   26.7899   47.3336 H   0  0  0  0  0  0  0  0  0  0  0  0
   58.8300   27.7250   48.5190 H   0  0  0  0  0  0  0  0  0  0  0  0
   63.0975   30.6520   52.6576 H   0  0  0  0  0  0  0  0  0  0  0  0
   64.3375   30.6011   51.3590 H   0  0  0  0  0  0  0  0  0  0  0  0
   63.0894   31.8930   51.3590 H   0  0  0  0  0  0  0  0  0  0  0  0
   63.0878   28.8200   53.0639 H   0  0  0  0  0  0  0  0  0  0  0  0
   62.3402   26.5852   53.8128 H   0  0  0  0  0  0  0  0  0  0  0  0
   60.8222   25.2337   52.3761 H   0  0  0  0  0  0  0  0  0  0  0  0
   60.0969   26.1838   50.2092 H   0  0  0  0  0  0  0  0  0  0  0  0
   63.5311   32.9130   50.0555 H   0  0  0  0  0  0  0  0  0  0  0  0
   63.6225   34.8190   48.4829 H   0  0  0  0  0  0  0  0  0  0  0  0
   62.3586   34.7059   46.3437 H   0  0  0  0  0  0  0  0  0  0  0  0
   61.0068   32.6671   45.8129 H   0  0  0  0  0  0  0  0  0  0  0  0
  1  2  1  0
  2  3  1  0
  3  4  1  0
  3  5  1  0
  5  6  1  0
  6  7  1  0
  7  8  1  0
  8  9  1  0
  9 10  1  0
 10 11  1  0
 11 12  1  0
 12 13  1  0
 13 14  1  0
 14 15  2  0
 15 16  1  0
 16 17  2  0
 17 18  1  0
 17 19  1  0
 19 20  2  0
 20 21  1  0
 21 22  2  0
 22 23  1  0
 23 24  2  0
 16 25  1  0
 25 26  2  0
 26 27  1  0
 27 28  2  0
 28 29  1  0
 29 30  2  0
 30 31  1  0
 31 32  2  0
 24 14  1  0
 30 25  1  0
 31 15  1  0
 24 19  1  0
  1 33  1  0
  1 34  1  0
  1 35  1  0
  2 36  1  0
  2 37  1  0
  4 38  1  0
  4 39  1  0
  4 40  1  0
  5 41  1  0
  5 42  1  0
  6 43  1  0
  6 44  1  0
  8 45  1  0
  8 46  1  0
  9 47  1  0
  9 48  1  0
 11 49  1  0
 11 50  1  0
 12 51  1  0
 12 52  1  0
 13 53  1  0
 18 54  1  0
 18 55  1  0
 18 56  1  0
 20 57  1  0
 21 58  1  0
 22 59  1  0
 23 60  1  0
 26 61  1  0
 27 62  1  0
 28 63  1  0
 29 64  1  0
M  CHG  1  17   1
M  END
>  <smiles>  (18) 
CCN(C)CCOCCOCCNc1c2c([n+](C)c3ccccc13)-c1ccccc1C2=O

>  <score_type>  (18) 
oracle

>  <origin>  (18) 
adg

>  <m_score__min__energy>  (18) 
-6.6299999999999999

>  <m_primary>  (18) 
energy

$$$$
20:0
     RDKit          3D

 46 48  0  0  0  0  0  0  0  0999 V2000
   60.0580   28.0070   47.0440 C   0  0  0  0  0  0  0  0  0  0  0  0
   60.3950   28.3880   45.6200 C   0  0  0  0  0  0  0  0  0  0  0  0
   59.2140   28.0310   44.7030 C   0  0  0  0  0  0  0  0  0  0  0  0
   58.3850   29.2710   44.6470 C   0  0  0  0  0  0  0  0  0  0  0  0
   57.1050   29.1130   44.1200 C   0  0  0  0  0  0  0  0  0  0  0  0
   56.3150   30.2430   44.0550 C   0  0  0  0  0  0  0  0  0  0  0  0
   56.7880   31.4600   44.4940 C   0  0  0  0  0  0  0  0  0  0  0  0
   58.0390   31.6290   45.0110 C   0  0  0  0  0  0  0  0  0  0  0  0
   58.6040   32.8640   45.5160 C   0  0  0  0  0  0  0  0  0  0  0  0
   58.7490   33.8800   44.5520 C   0  0  0  0  0  0  0  0  0  0  0  0
   59.2510   35.1180   44.8730 C   0  0  0  0  0  0  0  0  0  0  0  0
   59.6110   35.3340   46.1760 C   0  0  0  0  0  0  0  0  0  0  0  0
   59.4730   34.3470   47.1130 C   0  0  0  0  0  0  0  0  0  0  0  0
   58.9670   33.0750   46.8360 C   0  0  0  0  0  0  0  0  0  0  0  0
   58.8860   32.0330   47.8700 C   0  0  0  0  0  0  0  0  0  0  0  0
   60.0730   31.6370   48.5330 N   0  0  0  0  0  0  0  0  0  0  0  0
   61.3700   32.1560   48.4390 C   0  0  0  0  0  0  0  0  0  0  0  0
   61.9790   32.9810   49.3500 C   0  0  0  0  0  0  0  0  0  0  0  0
   63.2680   33.4580   49.2260 C   0  0  0  0  0  0  0  0  0  0  0  0
   64.0040   33.0960   48.1220 C   0  0  0  0  0  0  0  0  0  0  0  0
   63.4470   32.2740   47.1790 C   0  0  0  0  0  0  0  0  0  0  0  0
   62.1620   31.8140   47.3300 C   0  0  0  0  0  0  0  0  0  0  0  0
   58.8420   30.4840   45.0790 C   0  0  0  0  0  0  0  0  0  0  0  0
   60.6233   28.6462   47.7382 H   0  0  0  0  0  0  0  0  0  0  0  0
   58.9800   28.1439   47.2149 H   0  0  0  0  0  0  0  0  0  0  0  0
   60.3255   26.9538   47.2149 H   0  0  0  0  0  0  0  0  0  0  0  0
   60.5882   29.4695   45.5654 H   0  0  0  0  0  0  0  0  0  0  0  0
   61.2914   27.8395   45.2951 H   0  0  0  0  0  0  0  0  0  0  0  0
   59.5717   27.7586   43.6991 H   0  0  0  0  0  0  0  0  0  0  0  0
   58.6443   27.1677   45.0774 H   0  0  0  0  0  0  0  0  0  0  0  0
   56.7414   28.1347   43.7724 H   0  0  0  0  0  0  0  0  0  0  0  0
   55.2957   30.1709   43.6478 H   0  0  0  0  0  0  0  0  0  0  0  0
   56.1264   32.3360   44.4244 H   0  0  0  0  0  0  0  0  0  0  0  0
   58.4520   33.6768   43.5125 H   0  0  0  0  0  0  0  0  0  0  0  0
   59.3595   35.9052   44.1124 H   0  0  0  0  0  0  0  0  0  0  0  0
   60.0160   36.3127   46.4730 H   0  0  0  0  0  0  0  0  0  0  0  0
   59.7788   34.5683   48.1462 H   0  0  0  0  0  0  0  0  0  0  0  0
   58.1905   32.3959   48.6411 H   0  0  0  0  0  0  0  0  0  0  0  0
   58.5766   31.1334   47.3178 H   0  0  0  0  0  0  0  0  0  0  0  0
   59.9650   30.8000   49.2070 H   0  0  0  0  0  0  0  0  0  0  0  0
   61.4024   33.2820   50.2371 H   0  0  0  0  0  0  0  0  0  0  0  0
   63.6987   34.1154   49.9957 H   0  0  0  0  0  0  0  0  0  0  0  0
   65.0330   33.4642   47.9974 H   0  0  0  0  0  0  0  0  0  0  0  0
   64.0325   31.9804   46.2952 H   0  0  0  0  0  0  0  0  0  0  0  0
   61.7386   31.1558   46.5570 H   0  0  0  0  0  0  0  0  0  0  0  0
   59.8601   30.5625   45.4880 H   0  0  0  0  0  0  0  0  0  0  0  0
  1  2  1  0
  2  3  1  0
  3  4  1  0
  4  5  2  0
  5  6  1  0
  6  7  2  0
  7  8  1  0
  8  9  1  0
  9 10  2  0
 10 11  1  0
 11 12  2  0
 12 13  1  0
 13 14  2  0
 14 15  1  0
 15 16  1  0
 16 17  1  0
 17 18  2  0
 18 19  1  0
 19 20  2  0
 20 21  1  0
 21 22  2  0
  8 23  2  0
 23  4  1  0
 14  9  1  0
 22 17  1  0
  1 24  1  0
  1 25  1  0
  1 26  1  0
  2 27  1  0
  2 28  1  0
  3 29  1  0
  3 30  1  0
  5 31  1  0
  6 32  1  0
  7 33  1  0
 10 34  1  0
 11 35  1  0
 12 36  1  0
 13 37  1  0
 15 38  1  0
 15 39  1  0
 16 40  1  0
 18 41  1  0
 19 42  1  0
 20 43  1  0
 21 44  1  0
 22 45  1  0
 23 46  1  0
M  END
>  <smiles>  (19) 
CCCc1cccc(-c2ccccc2CNc2ccccc2)c1

>  <score_type>  (19) 
oracle

>  <origin>  (19) 
adg

>  <m_score__min__energy>  (19) 
-7.7199999999999998

>  <m_primary>  (19) 
energy

$$$$
22:0
     RDKit          3D

 61 63  0  0  0  0  0  0  0  0999 V2000
   65.1780   33.0700   49.8100 C   0  0  0  0  0  0  0  0  0  0  0  0
   64.1560   32.0990   49.3410 C   0  0  0  0  0  0  0  0  0  0  0  0
   63.0570   32.5940   48.5890 N   0  0  0  0  0  0  0  0  0  0  0  0
   63.0760   32.5020   47.1820 C   0  0  0  0  0  0  0  0  0  0  0  0
   63.3070   33.8360   46.4970 C   0  0  0  0  0  0  0  0  0  0  0  0
   62.6660   33.8500   49.1000 C   0  0  0  0  0  0  0  0  0  0  0  0
   61.3940   33.9320   49.8820 C   0  0  0  0  0  0  0  0  0  0  0  0
   61.3670   32.6860   50.6810 N   0  0  0  0  0  0  0  0  0  0  0  0
   60.0660   32.1550   50.8790 C   0  0  0  0  0  0  0  0  0  0  0  0
   59.4840   31.4040   49.7190 C   0  0  0  0  0  0  0  0  0  0  0  0
   60.1510   31.4550   48.4780 N   0  0  0  0  0  0  0  0  0  0  0  0
   59.6000   31.4970   47.1830 C   0  0  0  0  0  0  0  0  0  0  0  0
   59.2040   30.2650   46.6440 C   0  0  0  0  0  0  0  0  0  0  0  0
   58.5790   30.1960   45.3990 C   0  0  0  0  0  0  0  0  0  0  0  0
   58.3530   31.3440   44.6980 N   0  0  0  0  0  0  0  0  0  0  0  0
   57.6990   31.3170   43.4070 C   0  0  0  0  0  0  0  0  0  0  0  0
   58.7380   32.5590   45.2140 C   0  0  0  0  0  0  0  0  0  0  0  0
   58.4960   33.7130   44.4990 C   0  0  0  0  0  0  0  0  0  0  0  0
   58.8800   34.9460   45.0370 C   0  0  0  0  0  0  0  0  0  0  0  0
   59.4960   34.9860   46.2710 C   0  0  0  0  0  0  0  0  0  0  0  0
   59.7420   33.8400   46.9880 C   0  0  0  0  0  0  0  0  0  0  0  0
   59.3650   32.6400   46.4600 C   0  0  0  0  0  0  0  0  0  0  0  0
   58.1630   28.8660   44.8300 C   0  0  0  0  0  0  0  0  0  0  0  0
   59.2010   27.8730   45.3680 C   0  0  0  0  0  0  0  0  0  0  0  0
   58.9480   27.8190   46.8680 C   0  0  0  0  0  0  0  0  0  0  0  0
   59.5220   29.0790   47.4640 C   0  0  0  0  0  0  0  0  0  0  0  0
   65.1929   33.0841   50.9098 H   0  0  0  0  0  0  0  0  0  0  0  0
   66.1675   32.7713   49.4337 H   0  0  0  0  0  0  0  0  0  0  0  0
   64.9303   34.0735   49.4337 H   0  0  0  0  0  0  0  0  0  0  0  0
   64.6733   31.3579   48.7140 H   0  0  0  0  0  0  0  0  0  0  0  0
   63.7024   31.7118   50.2653 H   0  0  0  0  0  0  0  0  0  0  0  0
   63.8824   31.8141   46.8878 H   0  0  0  0  0  0  0  0  0  0  0  0
   62.0867   32.1399   46.8655 H   0  0  0  0  0  0  0  0  0  0  0  0
   63.4427   34.6197   47.2569 H   0  0  0  0  0  0  0  0  0  0  0  0
   64.2079   33.7745   45.8688 H   0  0  0  0  0  0  0  0  0  0  0  0
   62.4379   34.0809   45.8688 H   0  0  0  0  0  0  0  0  0  0  0  0
   63.4755   34.2007   49.7570 H   0  0  0  0  0  0  0  0  0  0  0  0
   62.4743   34.4597   48.2048 H   0  0  0  0  0  0  0  0  0  0  0  0
   61.3978   34.8145   50.5386 H   0  0  0  0  0  0  0  0  0  0  0  0
   60.5110   34.0315   49.2337 H   0  0  0  0  0  0  0  0  0  0  0  0
   62.1120   32.0310   50.4110 H   0  0  0  0  0  0  0  0  0  0  0  0
   60.1086   31.4691   51.7379 H   0  0  0  0  0  0  0  0  0  0  0  0
   59.4090   33.0238   51.0322 H   0  0  0  0  0  0  0  0  0  0  0  0
   59.4278   30.3456   50.0135 H   0  0  0  0  0  0  0  0  0  0  0  0
   58.5247   31.9074   49.5283 H   0  0  0  0  0  0  0  0  0  0  0  0
   61.2230   31.4690   48.5090 H   0  0  0  0  0  0  0  0  0  0  0  0
   56.6091   31.2720   43.5490 H   0  0  0  0  0  0  0  0  0  0  0  0
   57.9584   32.2266   42.8455 H   0  0  0  0  0  0  0  0  0  0  0  0
   58.0325   30.4319   42.8455 H   0  0  0  0  0  0  0  0  0  0  0  0
   58.0059   33.6646   43.5154 H   0  0  0  0  0  0  0  0  0  0  0  0
   58.6923   35.8762   44.4807 H   0  0  0  0  0  0  0  0  0  0  0  0
   59.7970   35.9574   46.6903 H   0  0  0  0  0  0  0  0  0  0  0  0
   60.2343   33.8893   47.9705 H   0  0  0  0  0  0  0  0  0  0  0  0
   57.1532   28.5958   45.1726 H   0  0  0  0  0  0  0  0  0  0  0  0
   58.1259   28.8759   43.7307 H   0  0  0  0  0  0  0  0  0  0  0  0
   59.0587   26.8806   44.9152 H   0  0  0  0  0  0  0  0  0  0  0  0
   60.2304   28.1803   45.1318 H   0  0  0  0  0  0  0  0  0  0  0  0
   57.8672   27.7671   47.0660 H   0  0  0  0  0  0  0  0  0  0  0  0
   59.4184   26.9288   47.3109 H   0  0  0  0  0  0  0  0  0  0  0  0
   59.1035   29.2196   48.4715 H   0  0  0  0  0  0  0  0  0  0  0  0
   60.6161   28.9724   47.5030 H   0  0  0  0  0  0  0  0  0  0  0  0
  1  2  1  0
  2  3  1  0
  3  4  1  0
  4  5  1  0
  3  6  1  0
  6  7  1  0
  7  8  1  0
  8  9  1  0
  9 10  1  0
 10 11  1  0
 11 12  1  0
 12 13  2  0
 13 14  1  0
 14 15  2  0
 15 16  1  0
 15 17  1  0
 17 18  2  0
 18 19  1  0
 19 20  2  0
 20 21  1  0
 21 22  2  0
 14 23  1  0
 23 24  1  0
 24 25  1  0
 25 26  1  0
 22 12  1  0
 26 13  1  0
 22 17  1  0
  1 27  1  0
  1 28  1  0
  1 29  1  0
  2 30  1  0
  2 31  1  0
  4 32  1  0
  4 33  1  0
  5 34  1  0
  5 35  1  0
  5 36  1  0
  6 37  1  0
  6 38  1  0
  7 39  1  0
  7 40  1  0
  8 41  1  0
  9 42  1  0
  9 43  1  0
 10 44  1  0
 10 45  1  0
 11 46  1  0
 16 47  1  0
 16 48  1  0
 16 49  1  0
 18 50  1  0
 19 51  1  0
 20 52  1  0
 21 53  1  0
 23 54  1  0
 23 55  1  0
 24 56  1  0
 24 57  1  0
 25 58  1  0
 25 59  1  0
 26 60  1  0
 26 61  1  0
M  CHG  1  15   1
M  END
>  <smiles>  (20) 
CCN(CC)CCNCCNc1c2c([n+](C)c3ccccc13)CCCC2

>  <score_type>  (20) 
oracle

>  <origin>  (20) 
adg

>  <m_score__min__energy>  (20) 
-5.5300000000000002

>  <m_primary>  (20) 
energy

$$$$
23:0
     RDKit          3D

 86 89  0  0  0  0  0  0  0  0999 V2000
   58.7330   29.0180   52.9840 C   0  0  0  0  0  0  0  0  0  0  0  0
   57.2690   29.2450   52.7020 C   0  0  0  0  0  0  0  0  0  0  0  0
   57.1660   30.2200   51.5920 N   0  0  0  0  0  0  0  0  0  0  0  0
   56.1620   31.2260   51.9800 C   0  0  0  0  0  0  0  0  0  0  0  0
   54.8240   30.4870   52.0810 C   0  0  0  0  0  0  0  0  0  0  0  0
   58.4660   30.8850   51.5180 C   0  0  0  0  0  0  0  0  0  0  0  0
   58.5190   31.9580   50.4940 C   0  0  0  0  0  0  0  0  0  0  0  0
   58.5140   31.5240   49.1720 O   0  0  0  0  0  0  0  0  0  0  0  0
   58.9160   30.1880   49.0280 C   0  0  0  0  0  0  0  0  0  0  0  0
   60.3520   30.0820   48.6090 C   0  0  0  0  0  0  0  0  0  0  0  0
   60.6540   30.4680   47.2350 N   0  0  0  0  0  0  0  0  0  0  0  0
   59.6140   30.6500   46.2930 C   0  0  0  0  0  0  0  0  0  0  0  0
   59.2040   29.4620   45.6570 C   0  0  0  0  0  0  0  0  0  0  0  0
   59.7720   28.2420   46.0410 C   0  0  0  0  0  0  0  0  0  0  0  0
   59.4160   27.0410   45.4700 C   0  0  0  0  0  0  0  0  0  0  0  0
   58.4600   27.0600   44.4840 C   0  0  0  0  0  0  0  0  0  0  0  0
   57.8840   28.2620   44.0910 C   0  0  0  0  0  0  0  0  0  0  0  0
   58.2520   29.4500   44.6720 C   0  0  0  0  0  0  0  0  0  0  0  0
   57.6890   30.6090   44.3010 N   0  0  0  0  0  0  0  0  0  0  0  0
   56.6770   30.7060   43.2700 C   0  0  0  0  0  0  0  0  0  0  0  0
   58.0620   31.7530   44.8970 C   0  0  0  0  0  0  0  0  0  0  0  0
   57.4520   32.9190   44.5010 C   0  0  0  0  0  0  0  0  0  0  0  0
   57.7650   34.1290   45.0750 C   0  0  0  0  0  0  0  0  0  0  0  0
   58.7240   34.1340   46.0760 C   0  0  0  0  0  0  0  0  0  0  0  0
   59.3700   32.9850   46.5130 C   0  0  0  0  0  0  0  0  0  0  0  0
   60.2630   33.1290   47.5880 N   0  0  0  0  0  0  0  0  0  0  0  0
   61.5310   33.8820   47.4570 C   0  0  0  0  0  0  0  0  0  0  0  0
   62.6950   33.0360   47.1200 C   0  0  0  0  0  0  0  0  0  0  0  0
   63.9020   33.4290   47.9760 C   0  0  0  0  0  0  0  0  0  0  0  0
   63.7990   32.9170   49.3070 N   0  0  0  0  0  0  0  0  0  0  0  0
   65.0970   32.7100   49.9200 C   0  0  0  0  0  0  0  0  0  0  0  0
   63.0910   33.8260   50.1930 C   0  0  0  0  0  0  0  0  0  0  0  0
   62.0950   33.1730   51.0840 C   0  0  0  0  0  0  0  0  0  0  0  0
   62.4860   31.8330   51.6210 C   0  0  0  0  0  0  0  0  0  0  0  0
   63.0450   30.9200   50.5650 C   0  0  0  0  0  0  0  0  0  0  0  0
   63.1000   31.6600   49.2660 C   0  0  0  0  0  0  0  0  0  0  0  0
   59.0270   31.8060   45.9060 C   0  0  0  0  0  0  0  0  0  0  0  0
   58.8973   28.9925   54.0714 H   0  0  0  0  0  0  0  0  0  0  0  0
   59.0472   28.0604   52.5432 H   0  0  0  0  0  0  0  0  0  0  0  0
   59.3224   29.8355   52.5432 H   0  0  0  0  0  0  0  0  0  0  0  0
   56.7926   28.2968   52.4122 H   0  0  0  0  0  0  0  0  0  0  0  0
   56.7608   29.6295   53.5986 H   0  0  0  0  0  0  0  0  0  0  0  0
   56.4250   31.6707   52.9511 H   0  0  0  0  0  0  0  0  0  0  0  0
   56.1115   32.0425   51.2446 H   0  0  0  0  0  0  0  0  0  0  0  0
   54.5636   30.3432   53.1400 H   0  0  0  0  0  0  0  0  0  0  0  0
   54.0396   31.0798   51.5878 H   0  0  0  0  0  0  0  0  0  0  0  0
   54.9080   29.5074   51.5878 H   0  0  0  0  0  0  0  0  0  0  0  0
   58.6878   31.3283   52.5000 H   0  0  0  0  0  0  0  0  0  0  0  0
   59.2057   30.1233   51.2304 H   0  0  0  0  0  0  0  0  0  0  0  0
   57.6450   32.6097   50.6402 H   0  0  0  0  0  0  0  0  0  0  0  0
   59.4820   32.4689   50.6409 H   0  0  0  0  0  0  0  0  0  0  0  0
   58.7866   29.6713   49.9904 H   0  0  0  0  0  0  0  0  0  0  0  0
   58.2959   29.7262   48.2455 H   0  0  0  0  0  0  0  0  0  0  0  0
   60.9442   30.7258   49.2760 H   0  0  0  0  0  0  0  0  0  0  0  0
   60.5986   29.0120   48.6743 H   0  0  0  0  0  0  0  0  0  0  0  0
   61.6610   30.6720   46.9270 H   0  0  0  0  0  0  0  0  0  0  0  0
   60.5355   28.2427   46.8329 H   0  0  0  0  0  0  0  0  0  0  0  0
   59.8815   26.0980   45.7925 H   0  0  0  0  0  0  0  0  0  0  0  0
   58.1492   26.1204   44.0037 H   0  0  0  0  0  0  0  0  0  0  0  0
   57.1194   28.2615   43.3001 H   0  0  0  0  0  0  0  0  0  0  0  0
   55.6856   30.8010   43.7371 H   0  0  0  0  0  0  0  0  0  0  0  0
   56.8740   31.5894   42.6448 H   0  0  0  0  0  0  0  0  0  0  0  0
   56.7026   29.8013   42.6448 H   0  0  0  0  0  0  0  0  0  0  0  0
   56.6940   32.8837   43.7046 H   0  0  0  0  0  0  0  0  0  0  0  0
   57.2727   35.0581   44.7519 H   0  0  0  0  0  0  0  0  0  0  0  0
   58.9856   35.0933   46.5463 H   0  0  0  0  0  0  0  0  0  0  0  0
   60.1660   32.7820   48.5570 H   0  0  0  0  0  0  0  0  0  0  0  0
   61.4075   34.6339   46.6637 H   0  0  0  0  0  0  0  0  0  0  0  0
   61.7374   34.3350   48.4379 H   0  0  0  0  0  0  0  0  0  0  0  0
   62.4442   31.9817   47.3084 H   0  0  0  0  0  0  0  0  0  0  0  0
   62.9466   33.1792   46.0588 H   0  0  0  0  0  0  0  0  0  0  0  0
   64.8144   33.0283   47.5101 H   0  0  0  0  0  0  0  0  0  0  0  0
   63.9367   34.5269   48.0340 H   0  0  0  0  0  0  0  0  0  0  0  0
   64.9923   32.7267   51.0149 H   0  0  0  0  0  0  0  0  0  0  0  0
   65.5002   31.7362   49.6050 H   0  0  0  0  0  0  0  0  0  0  0  0
   65.7830   33.5101   49.6050 H   0  0  0  0  0  0  0  0  0  0  0  0
   63.8329   34.3369   50.8243 H   0  0  0  0  0  0  0  0  0  0  0  0
   62.5266   34.5143   49.5467 H   0  0  0  0  0  0  0  0  0  0  0  0
   61.9173   33.8413   51.9395 H   0  0  0  0  0  0  0  0  0  0  0  0
   61.2047   32.9988   50.4619 H   0  0  0  0  0  0  0  0  0  0  0  0
   63.2486   31.9762   52.4007 H   0  0  0  0  0  0  0  0  0  0  0  0
   61.5770   31.3590   52.0197 H   0  0  0  0  0  0  0  0  0  0  0  0
   64.0579   30.6004   50.8513 H   0  0  0  0  0  0  0  0  0  0  0  0
   62.4039   30.0321   50.4618 H   0  0  0  0  0  0  0  0  0  0  0  0
   63.6008   31.0159   48.5282 H   0  0  0  0  0  0  0  0  0  0  0  0
   62.0581   31.8980   49.0055 H   0  0  0  0  0  0  0  0  0  0  0  0
  1  2  1  0
  2  3  1  0
  3  4  1  0
  4  5  1  0
  3  6  1  0
  6  7  1  0
  7  8  1  0
  8  9  1  0
  9 10  1  0
 10 11  1  0
 11 12  1  0
 12 13  2  0
 13 14  1  0
 14 15  2  0
 15 16  1  0
 16 17  2  0
 17 18  1  0
 18 19  2  0
 19 20  1  0
 19 21  1  0
 21 22  2  0
 22 23  1  0
 23 24  2  0
 24 25  1  0
 25 26  1  0
 26 27  1  0
 27 28  1  0
 28 29  1  0
 29 30  1  0
 30 31  1  0
 30 32  1  0
 32 33  1  0
 33 34  1  0
 34 35  1  0
 35 36  1  0
 25 37  2  0
 37 12  1  0
 18 13  1  0
 37 21  1  0
 36 30  1  0
  1 38  1  0
  1 39  1  0
  1 40  1  0
  2 41  1  0
  2 42  1  0
  4 43  1  0
  4 44  1  0
  5 45  1  0
  5 46  1  0
  5 47  1  0
  6 48  1  0
  6 49  1  0
  7 50  1  0
  7 51  1  0
  9 52  1  0
  9 53  1  0
 10 54  1  0
 10 55  1  0
 11 56  1  0
 14 57  1  0
 15 58  1  0
 16 59  1  0
 17 60  1  0
 20 61  1  0
 20 62  1  0
 20 63  1  0
 22 64  1  0
 23 65  1  0
 24 66  1  0
 26 67  1  0
 27 68  1  0
 27 69  1  0
 28 70  1  0
 28 71  1  0
 29 72  1  0
 29 73  1  0
 31 74  1  0
 31 75  1  0
 31 76  1  0
 32 77  1  0
 32 78  1  0
 33 79  1  0
 33 80  1  0
 34 81  1  0
 34 82  1  0
 35 83  1  0
 35 84  1  0
 36 85  1  0
 36 86  1  0
M  CHG  2  19   1  30   1
M  END
>  <smiles>  (21) 
CCN(CC)CCOCCNc1c2ccccc2[n+](C)c2cccc(NCCC[N+]3(C)CCCCC3)c12

>  <score_type>  (21) 
oracle

>  <origin>  (21) 
adg

>  <m_score__min__energy>  (21) 
-5.1900000000000004

>  <m_primary>  (21) 
energy

$$$$
25:0
     RDKit          3D

 66 68  0  0  0  0  0  0  0  0999 V2000
   52.0860   32.1690   50.8730 C   0  0  0  0  0  0  0  0  0  0  0  0
   52.6270   30.8950   51.4250 C   0  0  0  0  0  0  0  0  0  0  0  0
   51.8920   29.9160   51.6950 O   0  0  0  0  0  0  0  0  0  0  0  0
   54.0130   30.7580   51.6670 N   0  0  0  0  0  0  0  0  0  0  0  0
   54.6020   29.5260   52.2090 C   0  0  0  0  0  0  0  0  0  0  0  0
   55.6000   29.9300   53.2500 C   0  0  0  0  0  0  0  0  0  0  0  0
   56.7210   30.7370   52.7040 C   0  0  0  0  0  0  0  0  0  0  0  0
   56.5090   31.9310   52.4340 O   0  0  0  0  0  0  0  0  0  0  0  0
   57.9680   30.1330   52.5130 N   0  0  0  0  0  0  0  0  0  0  0  0
   59.1490   30.7680   51.9970 C   0  0  0  0  0  0  0  0  0  0  0  0
   59.3170   30.5500   50.5490 C   0  0  0  0  0  0  0  0  0  0  0  0
   59.9930   31.4050   49.7050 C   0  0  0  0  0  0  0  0  0  0  0  0
   60.0920   31.1140   48.3420 C   0  0  0  0  0  0  0  0  0  0  0  0
   59.5100   29.9690   47.8420 C   0  0  0  0  0  0  0  0  0  0  0  0
   59.5590   29.5980   46.3960 C   0  0  0  0  0  0  0  0  0  0  0  0
   59.2630   30.7500   45.5630 N   0  0  0  0  0  0  0  0  0  0  0  0
   58.0000   31.0420   45.0250 C   0  0  0  0  0  0  0  0  0  0  0  0
   56.9650   30.3220   45.2160 O   0  0  0  0  0  0  0  0  0  0  0  0
   57.7460   32.2530   44.1580 C   0  0  0  0  0  0  0  0  0  0  0  0
   57.4370   33.3150   45.0770 N   0  0  0  0  0  0  0  0  0  0  0  0
   57.4400   32.9660   46.4560 C   0  0  0  0  0  0  0  0  0  0  0  0
   58.3950   33.8380   47.2340 C   0  0  0  0  0  0  0  0  0  0  0  0
   59.6480   34.0660   46.5550 N   0  0  0  0  0  0  0  0  0  0  0  0
   60.9270   33.9280   47.1280 C   0  0  0  0  0  0  0  0  0  0  0  0
   62.0550   33.5340   46.4480 C   0  0  0  0  0  0  0  0  0  0  0  0
   63.2900   33.4190   47.0690 C   0  0  0  0  0  0  0  0  0  0  0  0
   63.4390   33.6950   48.4120 C   0  0  0  0  0  0  0  0  0  0  0  0
   62.3210   34.0900   49.1080 C   0  0  0  0  0  0  0  0  0  0  0  0
   61.0970   34.2030   48.4840 C   0  0  0  0  0  0  0  0  0  0  0  0
   59.5270   34.4810   45.1490 C   0  0  0  0  0  0  0  0  0  0  0  0
   58.0260   34.5730   44.8170 C   0  0  0  0  0  0  0  0  0  0  0  0
   58.8240   29.0920   48.6720 C   0  0  0  0  0  0  0  0  0  0  0  0
   58.7330   29.3920   50.0240 C   0  0  0  0  0  0  0  0  0  0  0  0
   51.8027   32.8361   51.7005 H   0  0  0  0  0  0  0  0  0  0  0  0
   52.8547   32.6567   50.2555 H   0  0  0  0  0  0  0  0  0  0  0  0
   51.2013   31.9546   50.2555 H   0  0  0  0  0  0  0  0  0  0  0  0
   54.6100   31.5960   51.4340 H   0  0  0  0  0  0  0  0  0  0  0  0
   53.8178   28.9013   52.6616 H   0  0  0  0  0  0  0  0  0  0  0  0
   55.0854   28.9420   51.4119 H   0  0  0  0  0  0  0  0  0  0  0  0
   55.0831   30.5242   54.0179 H   0  0  0  0  0  0  0  0  0  0  0  0
   56.0327   29.0071   53.6635 H   0  0  0  0  0  0  0  0  0  0  0  0
   58.0700   29.1050   52.7700 H   0  0  0  0  0  0  0  0  0  0  0  0
   59.0798   31.8495   52.1857 H   0  0  0  0  0  0  0  0  0  0  0  0
   60.0177   30.3249   52.5059 H   0  0  0  0  0  0  0  0  0  0  0  0
   60.4558   32.3189   50.1057 H   0  0  0  0  0  0  0  0  0  0  0  0
   60.6328   31.7966   47.6700 H   0  0  0  0  0  0  0  0  0  0  0  0
   60.5645   29.2244   46.1524 H   0  0  0  0  0  0  0  0  0  0  0  0
   58.8069   28.8186   46.2039 H   0  0  0  0  0  0  0  0  0  0  0  0
   60.0420   31.4200   45.3400 H   0  0  0  0  0  0  0  0  0  0  0  0
   58.6414   32.5006   43.5690 H   0  0  0  0  0  0  0  0  0  0  0  0
   56.9316   32.0809   43.4389 H   0  0  0  0  0  0  0  0  0  0  0  0
   56.4254   33.0935   46.8613 H   0  0  0  0  0  0  0  0  0  0  0  0
   57.7651   31.9195   46.5513 H   0  0  0  0  0  0  0  0  0  0  0  0
   57.9129   34.8107   47.4115 H   0  0  0  0  0  0  0  0  0  0  0  0
   58.6256   33.3102   48.1712 H   0  0  0  0  0  0  0  0  0  0  0  0
   61.9755   33.3022   45.3756 H   0  0  0  0  0  0  0  0  0  0  0  0
   64.1642   33.1027   46.4811 H   0  0  0  0  0  0  0  0  0  0  0  0
   64.4164   33.6025   48.9081 H   0  0  0  0  0  0  0  0  0  0  0  0
   62.4046   34.3197   50.1805 H   0  0  0  0  0  0  0  0  0  0  0  0
   60.2257   34.5206   49.0756 H   0  0  0  0  0  0  0  0  0  0  0  0
   60.0035   35.4619   45.0053 H   0  0  0  0  0  0  0  0  0  0  0  0
   60.0245   33.7557   44.4884 H   0  0  0  0  0  0  0  0  0  0  0  0
   57.5526   35.3424   45.4446 H   0  0  0  0  0  0  0  0  0  0  0  0
   57.8872   34.8458   43.7604 H   0  0  0  0  0  0  0  0  0  0  0  0
   58.3628   28.1793   48.2666 H   0  0  0  0  0  0  0  0  0  0  0  0
   58.1924   28.7076   50.6944 H   0  0  0  0  0  0  0  0  0  0  0  0
  1  2  1  0
  2  3  2  0
  2  4  1  0
  4  5  1  0
  5  6  1  0
  6  7  1  0
  7  8  2  0
  7  9  1  0
  9 10  1  0
 10 11  1  0
 11 12  2  0
 12 13  1  0
 13 14  2  0
 14 15  1  0
 15 16  1  0
 16 17  1  0
 17 18  2  0
 17 19  1  0
 19 20  1  0
 20 21  1  0
 21 22  1  0
 22 23  1  0
 23 24  1  0
 24 25  2  0
 25 26  1  0
 26 27  2  0
 27 28  1  0
 28 29  2  0
 23 30  1  0
 30 31  1  0
 14 32  1  0
 32 33  2  0
 33 11  1  0
 31 20  1  0
 29 24  1  0
  1 34  1  0
  1 35  1  0
  1 36  1  0
  4 37  1  0
  5 38  1  0
  5 39  1  0
  6 40  1  0
  6 41  1  0
  9 42  1  0
 10 43  1  0
 10 44  1  0
 12 45  1  0
 13 46  1  0
 15 47  1  0
 15 48  1  0
 16 49  1  0
 19 50  1  0
 19 51  1  0
 21 52  1  0
 21 53  1  0
 22 54  1  0
 22 55  1  0
 25 56  1  0
 26 57  1  0
 27 58  1  0
 28 59  1  0
 29 60  1  0
 30 61  1  0
 30 62  1  0
 31 63  1  0
 31 64  1  0
 32 65  1  0
 33 66  1  0
M  END
>  <smiles>  (22) 
CC(=O)NCCC(=O)NCc1ccc(CNC(=O)CN2CCN(c3ccccc3)CC2)cc1

>  <score_type>  (22) 
oracle

>  <origin>  (22) 
adg

>  <m_score__min__energy>  (22) 
-9.4399999999999995

>  <m_primary>  (22) 
energy

$$$$
26:0
     RDKit          3D

 33 34  0  0  0  0  0  0  0  0999 V2000
   55.8660   25.3720   46.4290 N   0  0  0  0  0  0  0  0  0  0  0  0
   56.2510   26.3660   45.9840 C   0  0  0  0  0  0  0  0  0  0  0  0
   56.7230   27.5780   45.4660 N   0  0  0  0  0  0  0  0  0  0  0  0
   57.7180   28.3640   46.1240 C   0  0  0  0  0  0  0  0  0  0  0  0
   57.6880   29.8190   45.7460 C   0  0  0  0  0  0  0  0  0  0  0  0
   56.8360   30.1460   44.9030 O   0  0  0  0  0  0  0  0  0  0  0  0
   58.5670   30.7600   46.3060 N   0  0  0  0  0  0  0  0  0  0  0  0
   58.6280   32.1370   46.0260 C   0  0  0  0  0  0  0  0  0  0  0  0
   57.9510   32.7960   45.0440 C   0  0  0  0  0  0  0  0  0  0  0  0
   58.0610   34.1680   44.8260 C   0  0  0  0  0  0  0  0  0  0  0  0
   58.8870   34.9350   45.6240 C   0  0  0  0  0  0  0  0  0  0  0  0
   59.5750   34.2840   46.6160 C   0  0  0  0  0  0  0  0  0  0  0  0
   59.4620   32.9270   46.8270 C   0  0  0  0  0  0  0  0  0  0  0  0
   60.1880   32.3680   47.8430 O   0  0  0  0  0  0  0  0  0  0  0  0
   61.4930   32.7550   48.1050 C   0  0  0  0  0  0  0  0  0  0  0  0
   62.4530   32.3790   47.1570 C   0  0  0  0  0  0  0  0  0  0  0  0
   63.7680   32.7500   47.3870 C   0  0  0  0  0  0  0  0  0  0  0  0
   64.0970   33.4670   48.5230 C   0  0  0  0  0  0  0  0  0  0  0  0
   63.1590   33.8420   49.4630 C   0  0  0  0  0  0  0  0  0  0  0  0
   61.8490   33.4710   49.2300 C   0  0  0  0  0  0  0  0  0  0  0  0
   56.2840   27.8700   44.5420 H   0  0  0  0  0  0  0  0  0  0  0  0
   57.5612   28.2842   47.2098 H   0  0  0  0  0  0  0  0  0  0  0  0
   58.6965   27.9711   45.8106 H   0  0  0  0  0  0  0  0  0  0  0  0
   59.2550   30.3690   47.0220 H   0  0  0  0  0  0  0  0  0  0  0  0
   57.2837   32.2154   44.3901 H   0  0  0  0  0  0  0  0  0  0  0  0
   57.4879   34.6418   44.0154 H   0  0  0  0  0  0  0  0  0  0  0  0
   58.9886   36.0195   45.4709 H   0  0  0  0  0  0  0  0  0  0  0  0
   60.2422   34.8672   47.2678 H   0  0  0  0  0  0  0  0  0  0  0  0
   62.1723   31.8081   46.2596 H   0  0  0  0  0  0  0  0  0  0  0  0
   64.5510   32.4740   46.6654 H   0  0  0  0  0  0  0  0  0  0  0  0
   65.1479   33.7495   48.6835 H   0  0  0  0  0  0  0  0  0  0  0  0
   63.4425   34.4122   50.3599 H   0  0  0  0  0  0  0  0  0  0  0  0
   61.0727   33.7523   49.9568 H   0  0  0  0  0  0  0  0  0  0  0  0
  1  2  3  0
  2  3  1  0
  3  4  1  0
  4  5  1  0
  5  6  2  0
  5  7  1  0
  7  8  1  0
  8  9  2  0
  9 10  1  0
 10 11  2  0
 11 12  1  0
 12 13  2  0
 13 14  1  0
 14 15  1  0
 15 16  2  0
 16 17  1  0
 17 18  2  0
 18 19  1  0
 19 20  2  0
 13  8  1  0
 20 15  1  0
  3 21  1  0
  4 22  1  0
  4 23  1  0
  7 24  1  0
  9 25  1  0
 10 26  1  0
 11 27  1  0
 12 28  1  0
 16 29  1  0
 17 30  1  0
 18 31  1  0
 19 32  1  0
 20 33  1  0
M  END
>  <smiles>  (23) 
N#CNCC(=O)Nc1ccccc1Oc1ccccc1

>  <score_type>  (23) 
oracle

>  <origin>  (23) 
adg

>  <m_score__min__energy>  (23) 
-7.0599999999999996

>  <m_primary>  (23) 
energy

$$$$
