0:0
     RDKit          3D

 39 41  0  0  0  0  0  0  0  0999 V2000
   63.9000   32.3000   49.4090 C   0  0  0  0  0  0  0  0  0  0  0  0
   62.8900   32.8730   48.4660 C   0  0  0  0  0  0  0  0  0  0  0  0
   63.2810   33.2900   47.2230 N   0  0  0  0  0  0  0  0  0  0  0  0
   62.3890   33.8360   46.3480 C   0  0  0  0  0  0  0  0  0  0  0  0
   61.0640   33.9620   46.7490 C   0  0  0  0  0  0  0  0  0  0  0  0
   60.6940   33.5510   47.9860 C   0  0  0  0  0  0  0  0  0  0  0  0
   61.5870   33.0160   48.8570 N   0  0  0  0  0  0  0  0  0  0  0  0
   59.2590   33.8120   48.2190 C   0  0  0  0  0  0  0  0  0  0  0  0
   58.7410   34.2950   46.9140 N   0  0  0  0  0  0  0  0  0  0  0  0
   57.7200   33.4030   46.3140 C   0  0  0  0  0  0  0  0  0  0  0  0
   58.2930   32.2810   45.4110 C   0  0  0  0  0  0  0  0  0  0  0  0
   57.3170   31.1800   45.2700 N   0  0  0  0  0  0  0  0  0  0  0  0
   57.9530   29.8620   45.4690 C   0  0  0  0  0  0  0  0  0  0  0  0
   56.9050   28.7370   45.3320 C   0  0  0  0  0  0  0  0  0  0  0  0
   55.6560   29.2180   44.8680 O   0  0  0  0  0  0  0  0  0  0  0  0
   55.8430   29.9550   43.6780 C   0  0  0  0  0  0  0  0  0  0  0  0
   56.6740   31.2260   43.9400 C   0  0  0  0  0  0  0  0  0  0  0  0
   59.9090   34.5320   46.0260 C   0  0  0  0  0  0  0  0  0  0  0  0
   63.5789   32.4822   50.4452 H   0  0  0  0  0  0  0  0  0  0  0  0
   63.9887   31.2171   49.2376 H   0  0  0  0  0  0  0  0  0  0  0  0
   64.8751   32.7794   49.2376 H   0  0  0  0  0  0  0  0  0  0  0  0
   62.7099   34.1684   45.3498 H   0  0  0  0  0  0  0  0  0  0  0  0
   61.2780   32.7200   49.8100 H   0  0  0  0  0  0  0  0  0  0  0  0
   58.7424   32.8896   48.5229 H   0  0  0  0  0  0  0  0  0  0  0  0
   59.0969   34.5431   49.0248 H   0  0  0  0  0  0  0  0  0  0  0  0
   57.1546   32.9307   47.1308 H   0  0  0  0  0  0  0  0  0  0  0  0
   57.0956   34.0358   45.6662 H   0  0  0  0  0  0  0  0  0  0  0  0
   58.5171   32.6955   44.4170 H   0  0  0  0  0  0  0  0  0  0  0  0
   59.2099   31.8863   45.8731 H   0  0  0  0  0  0  0  0  0  0  0  0
   58.7390   29.7202   44.7127 H   0  0  0  0  0  0  0  0  0  0  0  0
   58.3903   29.8236   46.4776 H   0  0  0  0  0  0  0  0  0  0  0  0
   57.2818   27.9876   44.6203 H   0  0  0  0  0  0  0  0  0  0  0  0
   56.7476   28.3010   46.3296 H   0  0  0  0  0  0  0  0  0  0  0  0
   56.3690   29.3263   42.9445 H   0  0  0  0  0  0  0  0  0  0  0  0
   54.8571   30.2543   43.2927 H   0  0  0  0  0  0  0  0  0  0  0  0
   57.4528   31.3109   43.1678 H   0  0  0  0  0  0  0  0  0  0  0  0
   56.0003   32.0950   43.9089 H   0  0  0  0  0  0  0  0  0  0  0  0
   59.7692   34.0243   45.0602 H   0  0  0  0  0  0  0  0  0  0  0  0
   60.0480   35.6004   45.8042 H   0  0  0  0  0  0  0  0  0  0  0  0
  1  2  1  0
  2  3  2  0
  3  4  1  0
  4  5  2  0
  5  6  1  0
  6  7  2  0
  6  8  1  0
  8  9  1  0
  9 10  1  0
 10 11  1  0
 11 12  1  0
 12 13  1  0
 13 14  1  0
 14 15  1  0
 15 16  1  0
 16 17  1  0
  9 18  1  0
  7  2  1  0
 17 12  1  0
 18  5  1  0
  1 19  1  0
  1 20  1  0
  1 21  1  0
  4 22  1  0
  7 23  1  0
  8 24  1  0
  8 25  1  0
 10 26  1  0
 10 27  1  0
 11 28  1  0
 11 29  1  0
 13 30  1  0
 13 31  1  0
 14 32  1  0
 14 33  1  0
 16 34  1  0
 16 35  1  0
 17 36  1  0
 17 37  1  0
 18 38  1  0
 18 39  1  0
M  CHG  1   7   1
M  END
>  <UniqueID>  (1) 
1

>  <SMILES>  (1) 
Cc1ncc2c([nH+]1)CN(CCN1CCOCC1)C2

>  <Energy>  (1) 
64.51448779237526

>  <Genealogy>  (1) 
Cc1ncc2c([nH+]1)CN(CCN1CCOCC1)C2 (protonated)
Cc1ncc2c([nH+]1)CN(CCN1CCOCC1)C2 (3D coordinates assigned)
Cc1ncc2c([nH+]1)CN(CCN1CCOCC1)C2 (nonaromatic ring conformer: 64.51448779237526 kcal/mol)

>  <smiles>  (1) 
Cc1ncc2c(n1)CN(CCN1CCOCC1)C2

>  <score_type>  (1) 
oracle

>  <origin>  (1) 
adg

>  <m_score__min__energy>  (1) 
-6.25

>  <m_primary>  (1) 
energy

$$$$
1:0
     RDKit          3D

 47 47  0  0  0  0  0  0  0  0999 V2000
   56.2600   29.7800   42.9450 C   0  0  0  0  0  0  0  0  0  0  0  0
   56.8550   29.7210   44.3540 C   0  0  0  0  0  0  0  0  0  0  0  0
   58.3240   29.5680   44.3300 N   0  0  0  0  0  0  0  0  0  0  0  0
   58.8180   28.5930   45.3260 C   0  0  0  0  0  0  0  0  0  0  0  0
   59.7420   29.2220   46.3820 C   0  0  0  0  0  0  0  0  0  0  0  0
   60.3040   30.4530   45.9210 O   0  0  0  0  0  0  0  0  0  0  0  0
   60.7670   31.5230   46.7090 C   0  0  0  0  0  0  0  0  0  0  0  0
   62.1010   31.6190   47.1480 C   0  0  0  0  0  0  0  0  0  0  0  0
   62.5100   32.6820   47.9600 C   0  0  0  0  0  0  0  0  0  0  0  0
   63.9260   32.7520   48.4520 C   0  0  0  0  0  0  0  0  0  0  0  0
   61.5720   33.6290   48.3820 C   0  0  0  0  0  0  0  0  0  0  0  0
   60.2370   33.5540   47.9620 C   0  0  0  0  0  0  0  0  0  0  0  0
   59.2730   34.5920   48.4760 C   0  0  0  0  0  0  0  0  0  0  0  0
   59.8480   32.5320   47.0620 C   0  0  0  0  0  0  0  0  0  0  0  0
   58.1430   32.4020   46.4620 S   0  0  0  0  0  0  0  0  0  0  0  0
   58.2100   33.5730   45.0320 C   0  0  0  0  0  0  0  0  0  0  0  0
   57.0120   34.5370   45.0490 C   0  0  0  0  0  0  0  0  0  0  0  0
   59.5260   34.3690   45.0270 C   0  0  0  0  0  0  0  0  0  0  0  0
   58.1430   32.7210   43.7540 C   0  0  0  0  0  0  0  0  0  0  0  0
   55.1674   29.8883   43.0126 H   0  0  0  0  0  0  0  0  0  0  0  0
   56.6811   30.6408   42.4049 H   0  0  0  0  0  0  0  0  0  0  0  0
   56.5039   28.8533   42.4049 H   0  0  0  0  0  0  0  0  0  0  0  0
   56.6037   30.6513   44.8845 H   0  0  0  0  0  0  0  0  0  0  0  0
   56.4310   28.8438   44.8647 H   0  0  0  0  0  0  0  0  0  0  0  0
   58.6230   29.2910   43.3680 H   0  0  0  0  0  0  0  0  0  0  0  0
   58.7720   30.4980   44.5120 H   0  0  0  0  0  0  0  0  0  0  0  0
   57.9526   28.1482   45.8390 H   0  0  0  0  0  0  0  0  0  0  0  0
   59.4075   27.8401   44.7823 H   0  0  0  0  0  0  0  0  0  0  0  0
   59.1610   29.4146   47.2960 H   0  0  0  0  0  0  0  0  0  0  0  0
   60.5654   28.5204   46.5815 H   0  0  0  0  0  0  0  0  0  0  0  0
   62.8291   30.8504   46.8495 H   0  0  0  0  0  0  0  0  0  0  0  0
   63.9324   32.7523   49.5520 H   0  0  0  0  0  0  0  0  0  0  0  0
   64.4861   31.8804   48.0823 H   0  0  0  0  0  0  0  0  0  0  0  0
   64.3974   33.6745   48.0823 H   0  0  0  0  0  0  0  0  0  0  0  0
   61.8857   34.4431   49.0520 H   0  0  0  0  0  0  0  0  0  0  0  0
   59.2792   34.5854   49.5760 H   0  0  0  0  0  0  0  0  0  0  0  0
   59.5762   35.5854   48.1136 H   0  0  0  0  0  0  0  0  0  0  0  0
   58.2600   34.3630   48.1136 H   0  0  0  0  0  0  0  0  0  0  0  0
   56.7353   34.7597   46.0901 H   0  0  0  0  0  0  0  0  0  0  0  0
   57.2849   35.4702   44.5345 H   0  0  0  0  0  0  0  0  0  0  0  0
   56.1588   34.0707   44.5345 H   0  0  0  0  0  0  0  0  0  0  0  0
   59.8426   34.5605   46.0629 H   0  0  0  0  0  0  0  0  0  0  0  0
   60.3031   33.7894   44.5073 H   0  0  0  0  0  0  0  0  0  0  0  0
   59.3735   35.3264   44.5073 H   0  0  0  0  0  0  0  0  0  0  0  0
   58.0594   31.6584   44.0257 H   0  0  0  0  0  0  0  0  0  0  0  0
   57.2654   33.0179   43.1610 H   0  0  0  0  0  0  0  0  0  0  0  0
   59.0562   32.8771   43.1610 H   0  0  0  0  0  0  0  0  0  0  0  0
  1  2  1  0
  2  3  1  0
  3  4  1  0
  4  5  1  0
  5  6  1  0
  6  7  1  0
  7  8  2  0
  8  9  1  0
  9 10  1  0
  9 11  2  0
 11 12  1  0
 12 13  1  0
 12 14  2  0
 14 15  1  0
 15 16  1  0
 16 17  1  0
 16 18  1  0
 16 19  1  0
 14  7  1  0
  1 20  1  0
  1 21  1  0
  1 22  1  0
  2 23  1  0
  2 24  1  0
  3 25  1  0
  3 26  1  0
  4 27  1  0
  4 28  1  0
  5 29  1  0
  5 30  1  0
  8 31  1  0
 10 32  1  0
 10 33  1  0
 10 34  1  0
 11 35  1  0
 13 36  1  0
 13 37  1  0
 13 38  1  0
 17 39  1  0
 17 40  1  0
 17 41  1  0
 18 42  1  0
 18 43  1  0
 18 44  1  0
 19 45  1  0
 19 46  1  0
 19 47  1  0
M  CHG  1   3   1
M  END
>  <UniqueID>  (2) 
2

>  <SMILES>  (2) 
CC[NH2+]CCOc1cc(C)cc(C)c1SC(C)(C)C

>  <Energy>  (2) 
38.94092671105028

>  <Genealogy>  (2) 
CC[NH2+]CCOc1cc(C)cc(C)c1SC(C)(C)C (protonated)
CC[NH2+]CCOc1cc(C)cc(C)c1SC(C)(C)C (3D coordinates assigned)
CC[NH2+]CCOc1cc(C)cc(C)c1SC(C)(C)C (optimized conformer: 38.94092671105028 kcal/mol)

>  <smiles>  (2) 
CCNCCOc1cc(C)cc(C)c1SC(C)(C)C

>  <score_type>  (2) 
oracle

>  <origin>  (2) 
adg

>  <m_score__min__energy>  (2) 
-4.5899999999999999

>  <m_primary>  (2) 
energy

$$$$
2:0
     RDKit          3D

 45 44  0  0  0  0  0  0  0  0999 V2000
   57.2381   29.4729   42.4955 H   0  0  0  0  0  0  0  0  0  0  0  0
   56.8130   30.3270   43.0430 C   0  0  0  0  0  0  0  0  0  0  0  0
   57.4580   31.5120   42.9670 C   0  0  0  0  0  0  0  0  0  0  0  0
   57.5670   32.2710   41.6660 C   0  0  0  0  0  0  0  0  0  0  0  0
   57.7205   33.3397   41.8767 H   0  0  0  0  0  0  0  0  0  0  0  0
   58.4190   31.8854   41.0868 H   0  0  0  0  0  0  0  0  0  0  0  0
   56.6409   32.1408   41.0868 H   0  0  0  0  0  0  0  0  0  0  0  0
   58.0640   32.1050   44.2230 C   0  0  0  0  0  0  0  0  0  0  0  0
   59.1353   32.2829   44.0479 H   0  0  0  0  0  0  0  0  0  0  0  0
   57.9017   31.3895   45.0426 H   0  0  0  0  0  0  0  0  0  0  0  0
   57.4020   33.4350   44.6250 C   0  0  0  0  0  0  0  0  0  0  0  0
   56.3283   33.2536   44.7806 H   0  0  0  0  0  0  0  0  0  0  0  0
   57.5979   34.1469   43.8096 H   0  0  0  0  0  0  0  0  0  0  0  0
   57.9780   34.0590   45.9080 C   0  0  0  0  0  0  0  0  0  0  0  0
   58.0482   33.2768   46.6782 H   0  0  0  0  0  0  0  0  0  0  0  0
   57.3029   34.8724   46.2123 H   0  0  0  0  0  0  0  0  0  0  0  0
   59.3650   34.6660   45.7010 C   0  0  0  0  0  0  0  0  0  0  0  0
   59.8265   34.8680   46.6789 H   0  0  0  0  0  0  0  0  0  0  0  0
   59.9936   33.9607   45.1376 H   0  0  0  0  0  0  0  0  0  0  0  0
   59.2734   35.6063   45.1376 H   0  0  0  0  0  0  0  0  0  0  0  0
   55.5490   30.1020   43.8300 C   0  0  0  0  0  0  0  0  0  0  0  0
   55.1203   31.0732   44.1181 H   0  0  0  0  0  0  0  0  0  0  0  0
   54.8285   29.5484   43.2100 H   0  0  0  0  0  0  0  0  0  0  0  0
   55.8380   29.3500   44.9970 O   0  0  0  0  0  0  0  0  0  0  0  0
   57.1220   28.7600   44.9430 C   0  0  0  0  0  0  0  0  0  0  0  0
   57.0169   27.7034   44.6556 H   0  0  0  0  0  0  0  0  0  0  0  0
   57.7219   29.3119   44.2044 H   0  0  0  0  0  0  0  0  0  0  0  0
   57.8410   28.8380   46.2980 C   0  0  0  0  0  0  0  0  0  0  0  0
   57.1200   29.1385   47.0725 H   0  0  0  0  0  0  0  0  0  0  0  0
   58.2627   27.8493   46.5319 H   0  0  0  0  0  0  0  0  0  0  0  0
   58.9450   29.8280   46.2500 N   0  0  0  0  0  0  0  0  0  0  0  0
   60.2720   29.1710   46.2330 C   0  0  0  0  0  0  0  0  0  0  0  0
   61.0387   29.9135   46.4992 H   0  0  0  0  0  0  0  0  0  0  0  0
   60.2490   28.3432   46.9570 H   0  0  0  0  0  0  0  0  0  0  0  0
   60.6080   28.5860   44.8600 C   0  0  0  0  0  0  0  0  0  0  0  0
   61.1521   27.6386   44.9883 H   0  0  0  0  0  0  0  0  0  0  0  0
   59.6779   28.4020   44.3022 H   0  0  0  0  0  0  0  0  0  0  0  0
   61.2356   29.2967   44.3022 H   0  0  0  0  0  0  0  0  0  0  0  0
   58.8040   30.8740   47.2930 C   0  0  0  0  0  0  0  0  0  0  0  0
   58.0162   31.5736   46.9770 H   0  0  0  0  0  0  0  0  0  0  0  0
   58.5588   30.3562   48.2320 H   0  0  0  0  0  0  0  0  0  0  0  0
   60.0870   31.6760   47.5500 C   0  0  0  0  0  0  0  0  0  0  0  0
   60.2463   31.7756   48.6338 H   0  0  0  0  0  0  0  0  0  0  0  0
   60.9432   31.1520   47.1002 H   0  0  0  0  0  0  0  0  0  0  0  0
   59.9911   32.6752   47.1002 H   0  0  0  0  0  0  0  0  0  0  0  0
  1  2  1  0
  2  3  2  0
  3  4  1  0
  4  5  1  0
  4  6  1  0
  4  7  1  0
  3  8  1  0
  8  9  1  0
  8 10  1  0
  8 11  1  0
 11 12  1  0
 11 13  1  0
 11 14  1  0
 14 15  1  0
 14 16  1  0
 14 17  1  0
 17 18  1  0
 17 19  1  0
 17 20  1  0
  2 21  1  0
 21 22  1  0
 21 23  1  0
 21 24  1  0
 24 25  1  0
 25 26  1  0
 25 27  1  0
 25 28  1  0
 28 29  1  0
 28 30  1  0
 28 31  1  0
 31 32  1  0
 32 33  1  0
 32 34  1  0
 32 35  1  0
 35 36  1  0
 35 37  1  0
 35 38  1  0
 31 39  1  0
 39 40  1  0
 39 41  1  0
 39 42  1  0
 42 43  1  0
 42 44  1  0
 42 45  1  0
M  END
>  <UniqueID>  (3) 
3

>  <SMILES>  (3) 
CCCC/C(C)=C/COCCN(CC)CC

>  <Energy>  (3) 
33.360339992401464

>  <Genealogy>  (3) 
CCCC/C(C)=C/COCCN(CC)CC (cis-trans isomerization)
CCCC/C(C)=C/COCCN(CC)CC (3D coordinates assigned)
CCCC/C(C)=C/COCCN(CC)CC (optimized conformer: 33.360339992401464 kcal/mol)

>  <smiles>  (3) 
CCCCC(C)=CCOCCN(CC)CC

>  <score_type>  (3) 
oracle

>  <origin>  (3) 
adg

>  <m_score__min__energy>  (3) 
-5.3099999999999996

>  <m_primary>  (3) 
energy

$$$$
3:0
     RDKit          3D

 51 52  0  0  0  0  0  0  0  0999 V2000
   56.6570   26.3910   46.2190 C   0  0  0  0  0  0  0  0  0  0  0  0
   57.8590   26.6840   45.3210 C   0  0  0  0  0  0  0  0  0  0  0  0
   58.3290   28.0790   45.4790 N   0  0  0  0  0  0  0  0  0  0  0  0
   59.7550   28.0940   45.8840 C   0  0  0  0  0  0  0  0  0  0  0  0
   60.6000   28.8800   44.8820 C   0  0  0  0  0  0  0  0  0  0  0  0
   58.1030   28.8810   44.2460 C   0  0  0  0  0  0  0  0  0  0  0  0
   56.6670   29.3980   44.2060 C   0  0  0  0  0  0  0  0  0  0  0  0
   56.6110   30.6780   44.7970 O   0  0  0  0  0  0  0  0  0  0  0  0
   57.8850   31.2930   44.7870 C   0  0  0  0  0  0  0  0  0  0  0  0
   57.8110   32.5950   44.0380 C   0  0  0  0  0  0  0  0  0  0  0  0
   57.8690   32.5860   42.8170 O   0  0  0  0  0  0  0  0  0  0  0  0
   57.6460   33.9070   44.7620 C   0  0  0  0  0  0  0  0  0  0  0  0
   57.4630   33.7010   46.2700 C   0  0  0  0  0  0  0  0  0  0  0  0
   58.7160   33.9180   46.9930 N   0  0  0  0  0  0  0  0  0  0  0  0
   59.5080   32.7960   47.4010 C   0  0  0  0  0  0  0  0  0  0  0  0
   58.8690   31.6670   47.9220 C   0  0  0  0  0  0  0  0  0  0  0  0
   59.6320   30.5540   48.2850 C   0  0  0  0  0  0  0  0  0  0  0  0
   59.0660   29.5280   48.7420 O   0  0  0  0  0  0  0  0  0  0  0  0
   60.9540   30.5710   48.1470 O   0  0  0  0  0  0  0  0  0  0  0  0
   61.6130   31.6250   47.6770 C   0  0  0  0  0  0  0  0  0  0  0  0
   63.0070   31.5770   47.5750 C   0  0  0  0  0  0  0  0  0  0  0  0
   63.7150   32.6870   47.1120 C   0  0  0  0  0  0  0  0  0  0  0  0
   63.0360   33.8540   46.7530 C   0  0  0  0  0  0  0  0  0  0  0  0
   61.6410   33.9130   46.8400 C   0  0  0  0  0  0  0  0  0  0  0  0
   60.9130   32.7950   47.2890 C   0  0  0  0  0  0  0  0  0  0  0  0
   56.9606   26.4650   47.2737 H   0  0  0  0  0  0  0  0  0  0  0  0
   55.8601   27.1212   46.0147 H   0  0  0  0  0  0  0  0  0  0  0  0
   56.2855   25.3760   46.0147 H   0  0  0  0  0  0  0  0  0  0  0  0
   58.6780   25.9990   45.5858 H   0  0  0  0  0  0  0  0  0  0  0  0
   57.5505   26.5409   44.2749 H   0  0  0  0  0  0  0  0  0  0  0  0
   59.8427   28.5633   46.8750 H   0  0  0  0  0  0  0  0  0  0  0  0
   60.1217   27.0574   45.9151 H   0  0  0  0  0  0  0  0  0  0  0  0
   61.3006   29.5317   45.4247 H   0  0  0  0  0  0  0  0  0  0  0  0
   61.1655   28.1794   44.2501 H   0  0  0  0  0  0  0  0  0  0  0  0
   59.9421   29.4947   44.2501 H   0  0  0  0  0  0  0  0  0  0  0  0
   58.7965   29.7348   44.2363 H   0  0  0  0  0  0  0  0  0  0  0  0
   58.2783   28.2432   43.3671 H   0  0  0  0  0  0  0  0  0  0  0  0
   56.3292   29.4616   43.1611 H   0  0  0  0  0  0  0  0  0  0  0  0
   56.0138   28.7089   44.7614 H   0  0  0  0  0  0  0  0  0  0  0  0
   58.2076   31.4835   45.8212 H   0  0  0  0  0  0  0  0  0  0  0  0
   58.6079   30.6276   44.2923 H   0  0  0  0  0  0  0  0  0  0  0  0
   58.5411   34.5234   44.5921 H   0  0  0  0  0  0  0  0  0  0  0  0
   56.7461   34.4044   44.3713 H   0  0  0  0  0  0  0  0  0  0  0  0
   56.7087   34.4112   46.6395 H   0  0  0  0  0  0  0  0  0  0  0  0
   57.1388   32.6639   46.4415 H   0  0  0  0  0  0  0  0  0  0  0  0
   58.7720   34.7700   47.5990 H   0  0  0  0  0  0  0  0  0  0  0  0
   57.7760   31.6549   48.0450 H   0  0  0  0  0  0  0  0  0  0  0  0
   63.5468   30.6620   47.8604 H   0  0  0  0  0  0  0  0  0  0  0  0
   64.8110   32.6429   47.0295 H   0  0  0  0  0  0  0  0  0  0  0  0
   63.6005   34.7299   46.4006 H   0  0  0  0  0  0  0  0  0  0  0  0
   61.1119   34.8349   46.5570 H   0  0  0  0  0  0  0  0  0  0  0  0
  1  2  1  0
  2  3  1  0
  3  4  1  0
  4  5  1  0
  3  6  1  0
  6  7  1  0
  7  8  1  0
  8  9  1  0
  9 10  1  0
 10 11  2  0
 10 12  1  0
 12 13  1  0
 13 14  1  0
 14 15  1  0
 15 16  2  0
 16 17  1  0
 17 18  2  0
 17 19  1  0
 19 20  1  0
 20 21  2  0
 21 22  1  0
 22 23  2  0
 23 24  1  0
 24 25  2  0
 25 15  1  0
 25 20  1  0
  1 26  1  0
  1 27  1  0
  1 28  1  0
  2 29  1  0
  2 30  1  0
  4 31  1  0
  4 32  1  0
  5 33  1  0
  5 34  1  0
  5 35  1  0
  6 36  1  0
  6 37  1  0
  7 38  1  0
  7 39  1  0
  9 40  1  0
  9 41  1  0
 12 42  1  0
 12 43  1  0
 13 44  1  0
 13 45  1  0
 14 46  1  0
 16 47  1  0
 21 48  1  0
 22 49  1  0
 23 50  1  0
 24 51  1  0
M  END
>  <UniqueID>  (4) 
4

>  <SMILES>  (4) 
CCN(CC)CCOCC(=O)CCNc1cc(=O)oc2ccccc12

>  <Energy>  (4) 
53.1262102652953

>  <Genealogy>  (4) 
CCN(CC)CCOCC(=O)CCNc1cc(=O)oc2ccccc12 (3D coordinates assigned)
CCN(CC)CCOCC(=O)CCNc1cc(=O)oc2ccccc12 (optimized conformer: 53.1262102652953 kcal/mol)

>  <smiles>  (4) 
CCN(CC)CCOCC(=O)CCNc1cc(=O)oc2ccccc12

>  <score_type>  (4) 
oracle

>  <origin>  (4) 
adg

>  <m_score__min__energy>  (4) 
-6.8700000000000001

>  <m_primary>  (4) 
energy

$$$$
4:0
     RDKit          3D

 36 38  0  0  0  0  0  0  0  0999 V2000
   63.0760   33.8100   46.7480 C   0  0  0  0  0  0  0  0  0  0  0  0
   63.2900   32.3510   47.1360 C   0  0  0  0  0  0  0  0  0  0  0  0
   62.0870   31.7970   47.9090 C   0  0  0  0  0  0  0  0  0  0  0  0
   61.1820   31.0860   46.9960 N   0  0  0  0  0  0  0  0  0  0  0  0
   60.2100   30.2460   47.7120 C   0  0  0  0  0  0  0  0  0  0  0  0
   58.9400   31.0500   47.9910 C   0  0  0  0  0  0  0  0  0  0  0  0
   58.6100   31.8970   46.8440 N   0  0  0  0  0  0  0  0  0  0  0  0
   58.1320   31.5330   45.6210 C   0  0  0  0  0  0  0  0  0  0  0  0
   57.7220   30.2650   45.2000 C   0  0  0  0  0  0  0  0  0  0  0  0
   57.3210   30.1090   43.8590 C   0  0  0  0  0  0  0  0  0  0  0  0
   57.3450   31.2050   42.9670 C   0  0  0  0  0  0  0  0  0  0  0  0
   57.7710   32.4720   43.4000 C   0  0  0  0  0  0  0  0  0  0  0  0
   58.1480   32.6030   44.7320 C   0  0  0  0  0  0  0  0  0  0  0  0
   58.6650   33.6590   45.4400 C   0  0  0  0  0  0  0  0  0  0  0  0
   59.0720   34.9640   45.1990 C   0  0  0  0  0  0  0  0  0  0  0  0
   59.6740   35.5020   46.3480 C   0  0  0  0  0  0  0  0  0  0  0  0
   59.7040   34.3450   47.6130 S   0  0  0  0  0  0  0  0  0  0  0  0
   58.9200   33.1980   46.6780 C   0  0  0  0  0  0  0  0  0  0  0  0
   62.9862   34.4219   47.6577 H   0  0  0  0  0  0  0  0  0  0  0  0
   63.9323   34.1606   46.1532 H   0  0  0  0  0  0  0  0  0  0  0  0
   62.1551   33.9000   46.1532 H   0  0  0  0  0  0  0  0  0  0  0  0
   63.4343   31.7550   46.2228 H   0  0  0  0  0  0  0  0  0  0  0  0
   64.1765   32.2910   47.7845 H   0  0  0  0  0  0  0  0  0  0  0  0
   62.4418   31.1015   48.6838 H   0  0  0  0  0  0  0  0  0  0  0  0
   61.5438   32.6323   48.3750 H   0  0  0  0  0  0  0  0  0  0  0  0
   61.7560   30.4660   46.3780 H   0  0  0  0  0  0  0  0  0  0  0  0
   59.9600   29.3699   47.0956 H   0  0  0  0  0  0  0  0  0  0  0  0
   60.6478   29.9146   48.6652 H   0  0  0  0  0  0  0  0  0  0  0  0
   58.1070   30.3573   48.1816 H   0  0  0  0  0  0  0  0  0  0  0  0
   59.1085   31.6895   48.8700 H   0  0  0  0  0  0  0  0  0  0  0  0
   57.7128   29.4133   45.8961 H   0  0  0  0  0  0  0  0  0  0  0  0
   56.9857   29.1240   43.5022 H   0  0  0  0  0  0  0  0  0  0  0  0
   57.0270   31.0647   41.9233 H   0  0  0  0  0  0  0  0  0  0  0  0
   57.8050   33.3286   42.7107 H   0  0  0  0  0  0  0  0  0  0  0  0
   58.9419   35.4989   44.2466 H   0  0  0  0  0  0  0  0  0  0  0  0
   60.0715   36.5247   46.4257 H   0  0  0  0  0  0  0  0  0  0  0  0
  1  2  1  0
  2  3  1  0
  3  4  1  0
  4  5  1  0
  5  6  1  0
  6  7  1  0
  7  8  1  0
  8  9  2  0
  9 10  1  0
 10 11  2  0
 11 12  1  0
 12 13  2  0
 13 14  1  0
 14 15  1  0
 15 16  2  0
 16 17  1  0
 17 18  1  0
 18  7  1  0
 13  8  1  0
 18 14  2  0
  1 19  1  0
  1 20  1  0
  1 21  1  0
  2 22  1  0
  2 23  1  0
  3 24  1  0
  3 25  1  0
  4 26  1  0
  5 27  1  0
  5 28  1  0
  6 29  1  0
  6 30  1  0
  9 31  1  0
 10 32  1  0
 11 33  1  0
 12 34  1  0
 15 35  1  0
 16 36  1  0
M  END
>  <UniqueID>  (5) 
5

>  <SMILES>  (5) 
CCCNCCn1c2ccccc2c2ccsc21

>  <Energy>  (5) 
110.91852221222463

>  <Genealogy>  (5) 
CCCNCCn1c2ccccc2c2ccsc21 (3D coordinates assigned)
CCCNCCn1c2ccccc2c2ccsc21 (optimized conformer: 110.91852221222463 kcal/mol)

>  <smiles>  (5) 
CCCNCCn1c2ccccc2c2ccsc21

>  <score_type>  (5) 
oracle

>  <origin>  (5) 
adg

>  <m_score__min__energy>  (5) 
-7.0700000000000003

>  <m_primary>  (5) 
energy

$$$$
5:0
     RDKit          3D

 45 45  0  0  0  0  0  0  0  0999 V2000
   56.2860   29.7230   42.9700 C   0  0  0  0  0  0  0  0  0  0  0  0
   56.2450   30.7420   44.1040 C   0  0  0  0  0  0  0  0  0  0  0  0
   57.1900   30.4040   45.1020 O   0  0  0  0  0  0  0  0  0  0  0  0
   58.3370   29.8160   44.5220 C   0  0  0  0  0  0  0  0  0  0  0  0
   58.6340   28.4940   45.2410 C   0  0  0  0  0  0  0  0  0  0  0  0
   57.7990   28.2990   46.4370 N   0  0  0  0  0  0  0  0  0  0  0  0
   58.4740   27.4950   47.4650 C   0  0  0  0  0  0  0  0  0  0  0  0
   59.7620   28.1890   47.9260 C   0  0  0  0  0  0  0  0  0  0  0  0
   59.5190   29.6070   48.4680 C   0  0  0  0  0  0  0  0  0  0  0  0
   59.2850   30.5660   47.3860 N   0  0  0  0  0  0  0  0  0  0  0  0
   60.1100   31.7270   47.1520 C   0  0  0  0  0  0  0  0  0  0  0  0
   61.4540   31.6790   47.3990 N   0  0  0  0  0  0  0  0  0  0  0  0
   62.2670   32.7510   47.1870 C   0  0  0  0  0  0  0  0  0  0  0  0
   63.7300   32.6610   47.5110 C   0  0  0  0  0  0  0  0  0  0  0  0
   61.7260   33.9560   46.7280 C   0  0  0  0  0  0  0  0  0  0  0  0
   60.3570   34.0470   46.4540 C   0  0  0  0  0  0  0  0  0  0  0  0
   59.7840   35.3540   45.9670 C   0  0  0  0  0  0  0  0  0  0  0  0
   59.5350   32.9220   46.6690 C   0  0  0  0  0  0  0  0  0  0  0  0
   58.1090   33.0070   46.4400 C   0  0  0  0  0  0  0  0  0  0  0  0
   56.9680   33.0750   46.2560 N   0  0  0  0  0  0  0  0  0  0  0  0
   56.3269   28.7075   43.3909 H   0  0  0  0  0  0  0  0  0  0  0  0
   55.3829   29.8272   42.3506 H   0  0  0  0  0  0  0  0  0  0  0  0
   57.1778   29.8994   42.3506 H   0  0  0  0  0  0  0  0  0  0  0  0
   56.4802   31.7395   43.7043 H   0  0  0  0  0  0  0  0  0  0  0  0
   55.2390   30.7422   44.5489 H   0  0  0  0  0  0  0  0  0  0  0  0
   58.1536   29.6229   43.4547 H   0  0  0  0  0  0  0  0  0  0  0  0
   59.1958   30.4961   44.6218 H   0  0  0  0  0  0  0  0  0  0  0  0
   58.4486   27.6642   44.5431 H   0  0  0  0  0  0  0  0  0  0  0  0
   59.6836   28.5222   45.5690 H   0  0  0  0  0  0  0  0  0  0  0  0
   57.5460   29.2310   46.8410 H   0  0  0  0  0  0  0  0  0  0  0  0
   57.8016   27.3695   48.3265 H   0  0  0  0  0  0  0  0  0  0  0  0
   58.7301   26.5135   47.0394 H   0  0  0  0  0  0  0  0  0  0  0  0
   60.2211   27.5835   48.7214 H   0  0  0  0  0  0  0  0  0  0  0  0
   60.4190   28.2801   47.0485 H   0  0  0  0  0  0  0  0  0  0  0  0
   58.6385   29.5910   49.1272 H   0  0  0  0  0  0  0  0  0  0  0  0
   60.4172   29.9229   49.0189 H   0  0  0  0  0  0  0  0  0  0  0  0
   58.4210   30.4290   46.8140 H   0  0  0  0  0  0  0  0  0  0  0  0
   61.8830   30.7950   47.7500 H   0  0  0  0  0  0  0  0  0  0  0  0
   63.8639   32.6528   48.6028 H   0  0  0  0  0  0  0  0  0  0  0  0
   64.1439   31.7357   47.0838 H   0  0  0  0  0  0  0  0  0  0  0  0
   64.2542   33.5286   47.0838 H   0  0  0  0  0  0  0  0  0  0  0  0
   62.3760   34.8314   46.5825 H   0  0  0  0  0  0  0  0  0  0  0  0
   59.5102   35.9786   46.8301 H   0  0  0  0  0  0  0  0  0  0  0  0
   60.5345   35.8791   45.3578 H   0  0  0  0  0  0  0  0  0  0  0  0
   58.8893   35.1578   45.3578 H   0  0  0  0  0  0  0  0  0  0  0  0
  1  2  1  0
  2  3  1  0
  3  4  1  0
  4  5  1  0
  5  6  1  0
  6  7  1  0
  7  8  1  0
  8  9  1  0
  9 10  1  0
 10 11  1  0
 11 12  2  0
 12 13  1  0
 13 14  1  0
 13 15  2  0
 15 16  1  0
 16 17  1  0
 16 18  2  0
 18 19  1  0
 19 20  3  0
 18 11  1  0
  1 21  1  0
  1 22  1  0
  1 23  1  0
  2 24  1  0
  2 25  1  0
  4 26  1  0
  4 27  1  0
  5 28  1  0
  5 29  1  0
  6 30  1  0
  7 31  1  0
  7 32  1  0
  8 33  1  0
  8 34  1  0
  9 35  1  0
  9 36  1  0
 10 37  1  0
 12 38  1  0
 14 39  1  0
 14 40  1  0
 14 41  1  0
 15 42  1  0
 17 43  1  0
 17 44  1  0
 17 45  1  0
M  CHG  1  12   1
M  END
>  <UniqueID>  (6) 
6

>  <SMILES>  (6) 
CCOCCNCCCNc1[nH+]c(C)cc(C)c1C#N

>  <Energy>  (6) 
36.41527880435686

>  <Genealogy>  (6) 
CCOCCNCCCNc1[nH+]c(C)cc(C)c1C#N (protonated)
CCOCCNCCCNc1[nH+]c(C)cc(C)c1C#N (3D coordinates assigned)
CCOCCNCCCNc1[nH+]c(C)cc(C)c1C#N (optimized conformer: 36.41527880435686 kcal/mol)

>  <smiles>  (6) 
CCOCCNCCCNc1nc(C)cc(C)c1C#N

>  <score_type>  (6) 
oracle

>  <origin>  (6) 
adg

>  <m_score__min__energy>  (6) 
-4.0199999999999996

>  <m_primary>  (6) 
energy

$$$$
6:0
     RDKit          3D

 42 44  0  0  0  0  0  0  0  0999 V2000
   56.6430   30.0240   42.8800 C   0  0  0  0  0  0  0  0  0  0  0  0
   55.5330   29.8440   43.9170 C   0  0  0  0  0  0  0  0  0  0  0  0
   56.0210   29.1780   45.1410 N   0  0  0  0  0  0  0  0  0  0  0  0
   57.4610   28.8810   45.1110 C   0  0  0  0  0  0  0  0  0  0  0  0
   57.9910   28.4360   46.4870 C   0  0  0  0  0  0  0  0  0  0  0  0
   58.6540   29.5910   47.2460 C   0  0  0  0  0  0  0  0  0  0  0  0
   59.8130   30.1100   46.5200 N   0  0  0  0  0  0  0  0  0  0  0  0
   60.0880   31.5190   46.5210 C   0  0  0  0  0  0  0  0  0  0  0  0
   61.2910   32.0110   47.0760 C   0  0  0  0  0  0  0  0  0  0  0  0
   62.2440   31.1620   47.6720 C   0  0  0  0  0  0  0  0  0  0  0  0
   63.4220   31.6880   48.2090 C   0  0  0  0  0  0  0  0  0  0  0  0
   63.6630   33.0620   48.1640 C   0  0  0  0  0  0  0  0  0  0  0  0
   62.7240   33.9200   47.5890 C   0  0  0  0  0  0  0  0  0  0  0  0
   61.5390   33.4040   47.0490 C   0  0  0  0  0  0  0  0  0  0  0  0
   60.6270   34.2510   46.5070 N   0  0  0  0  0  0  0  0  0  0  0  0
   59.4580   33.8090   45.9760 C   0  0  0  0  0  0  0  0  0  0  0  0
   58.5560   34.7290   45.4310 C   0  0  0  0  0  0  0  0  0  0  0  0
   57.3540   34.2880   44.8720 C   0  0  0  0  0  0  0  0  0  0  0  0
   57.0500   32.9250   44.8530 C   0  0  0  0  0  0  0  0  0  0  0  0
   57.9440   31.9960   45.3950 C   0  0  0  0  0  0  0  0  0  0  0  0
   59.1570   32.4270   45.9690 C   0  0  0  0  0  0  0  0  0  0  0  0
   57.6031   30.1797   43.3938 H   0  0  0  0  0  0  0  0  0  0  0  0
   56.7058   29.1243   42.2502 H   0  0  0  0  0  0  0  0  0  0  0  0
   56.4183   30.8974   42.2502 H   0  0  0  0  0  0  0  0  0  0  0  0
   55.1347   30.8334   44.1860 H   0  0  0  0  0  0  0  0  0  0  0  0
   54.7532   29.2081   43.4725 H   0  0  0  0  0  0  0  0  0  0  0  0
   55.7880   29.7210   46.0050 H   0  0  0  0  0  0  0  0  0  0  0  0
   57.6417   28.0754   44.3841 H   0  0  0  0  0  0  0  0  0  0  0  0
   57.9904   29.8023   44.8265 H   0  0  0  0  0  0  0  0  0  0  0  0
   57.1506   28.0537   47.0850 H   0  0  0  0  0  0  0  0  0  0  0  0
   58.7493   27.6560   46.3238 H   0  0  0  0  0  0  0  0  0  0  0  0
   57.9213   30.4009   47.3767 H   0  0  0  0  0  0  0  0  0  0  0  0
   58.9962   29.2138   48.2210 H   0  0  0  0  0  0  0  0  0  0  0  0
   60.6100   29.4620   46.3230 H   0  0  0  0  0  0  0  0  0  0  0  0
   62.0598   30.0784   47.7150 H   0  0  0  0  0  0  0  0  0  0  0  0
   64.1621   31.0166   48.6689 H   0  0  0  0  0  0  0  0  0  0  0  0
   64.5950   33.4697   48.5826 H   0  0  0  0  0  0  0  0  0  0  0  0
   62.9149   35.0029   47.5599 H   0  0  0  0  0  0  0  0  0  0  0  0
   58.7939   35.8029   45.4426 H   0  0  0  0  0  0  0  0  0  0  0  0
   56.6465   35.0149   44.4465 H   0  0  0  0  0  0  0  0  0  0  0  0
   56.1038   32.5808   44.4100 H   0  0  0  0  0  0  0  0  0  0  0  0
   57.6993   30.9238   45.3732 H   0  0  0  0  0  0  0  0  0  0  0  0
  1  2  1  0
  2  3  1  0
  3  4  1  0
  4  5  1  0
  5  6  1  0
  6  7  1  0
  7  8  1  0
  8  9  2  0
  9 10  1  0
 10 11  2  0
 11 12  1  0
 12 13  2  0
 13 14  1  0
 14 15  2  0
 15 16  1  0
 16 17  2  0
 17 18  1  0
 18 19  2  0
 19 20  1  0
 20 21  2  0
 21  8  1  0
 14  9  1  0
 21 16  1  0
  1 22  1  0
  1 23  1  0
  1 24  1  0
  2 25  1  0
  2 26  1  0
  3 27  1  0
  4 28  1  0
  4 29  1  0
  5 30  1  0
  5 31  1  0
  6 32  1  0
  6 33  1  0
  7 34  1  0
 10 35  1  0
 11 36  1  0
 12 37  1  0
 13 38  1  0
 17 39  1  0
 18 40  1  0
 19 41  1  0
 20 42  1  0
M  END
>  <UniqueID>  (7) 
7

>  <SMILES>  (7) 
CCNCCCNc1c2ccccc2nc2ccccc12

>  <Energy>  (7) 
53.56940518885677

>  <Genealogy>  (7) 
CCNCCCNc1c2ccccc2nc2ccccc12 (3D coordinates assigned)
CCNCCCNc1c2ccccc2nc2ccccc12 (optimized conformer: 53.56940518885677 kcal/mol)

>  <smiles>  (7) 
CCNCCCNc1c2ccccc2nc2ccccc12

>  <score_type>  (7) 
oracle

>  <origin>  (7) 
adg

>  <m_score__min__energy>  (7) 
-7.6299999999999999

>  <m_primary>  (7) 
energy

$$$$
7:0
     RDKit          3D

 61 63  0  0  0  0  0  0  0  0999 V2000
   50.9120   24.4290   43.7840 C   0  0  0  0  0  0  0  0  0  0  0  0
   51.2320   23.5510   44.9920 C   0  0  0  0  0  0  0  0  0  0  0  0
   52.5390   23.0190   44.8880 O   0  0  0  0  0  0  0  0  0  0  0  0
   53.4240   23.6140   45.8240 C   0  0  0  0  0  0  0  0  0  0  0  0
   54.4650   24.4490   45.0930 C   0  0  0  0  0  0  0  0  0  0  0  0
   55.0950   25.3230   46.0030 O   0  0  0  0  0  0  0  0  0  0  0  0
   56.2530   24.7130   46.5370 C   0  0  0  0  0  0  0  0  0  0  0  0
   57.3450   24.6920   45.4730 C   0  0  0  0  0  0  0  0  0  0  0  0
   57.4470   26.0240   44.8530 N   0  0  0  0  0  0  0  0  0  0  0  0
   58.1470   26.9950   45.7090 C   0  0  0  0  0  0  0  0  0  0  0  0
   58.2660   28.3610   45.0240 C   0  0  0  0  0  0  0  0  0  0  0  0
   57.8080   29.4590   45.8870 N   0  0  0  0  0  0  0  0  0  0  0  0
   58.6860   30.4800   46.4030 C   0  0  0  0  0  0  0  0  0  0  0  0
   59.4600   30.2060   47.5550 C   0  0  0  0  0  0  0  0  0  0  0  0
   59.2470   29.0390   48.3240 C   0  0  0  0  0  0  0  0  0  0  0  0
   60.0480   28.7480   49.4250 C   0  0  0  0  0  0  0  0  0  0  0  0
   61.0540   29.6280   49.8040 C   0  0  0  0  0  0  0  0  0  0  0  0
   61.2480   30.8120   49.0990 C   0  0  0  0  0  0  0  0  0  0  0  0
   60.4440   31.1370   47.9740 C   0  0  0  0  0  0  0  0  0  0  0  0
   60.5680   32.3460   47.3260 N   0  0  0  0  0  0  0  0  0  0  0  0
   61.7450   33.2070   47.5930 C   0  0  0  0  0  0  0  0  0  0  0  0
   59.5870   32.7540   46.4420 C   0  0  0  0  0  0  0  0  0  0  0  0
   59.4510   34.1220   46.1030 C   0  0  0  0  0  0  0  0  0  0  0  0
   58.4890   34.5480   45.2030 C   0  0  0  0  0  0  0  0  0  0  0  0
   57.6590   33.6290   44.5860 C   0  0  0  0  0  0  0  0  0  0  0  0
   57.7540   32.2640   44.8780 C   0  0  0  0  0  0  0  0  0  0  0  0
   56.6810   31.2040   43.8860 S   0  0  0  0  0  0  0  0  0  0  0  0
   57.4070   31.7300   42.3000 C   0  0  0  0  0  0  0  0  0  0  0  0
   58.6710   31.8060   45.8830 C   0  0  0  0  0  0  0  0  0  0  0  0
   50.5543   25.4105   44.1286 H   0  0  0  0  0  0  0  0  0  0  0  0
   51.8195   24.5620   43.1767 H   0  0  0  0  0  0  0  0  0  0  0  0
   50.1318   23.9469   43.1767 H   0  0  0  0  0  0  0  0  0  0  0  0
   51.1596   24.1558   45.9080 H   0  0  0  0  0  0  0  0  0  0  0  0
   50.5123   22.7199   45.0273 H   0  0  0  0  0  0  0  0  0  0  0  0
   52.8525   24.2596   46.5071 H   0  0  0  0  0  0  0  0  0  0  0  0
   53.9307   22.8234   46.3969 H   0  0  0  0  0  0  0  0  0  0  0  0
   55.2173   23.7843   44.6433 H   0  0  0  0  0  0  0  0  0  0  0  0
   53.9733   25.0363   44.3035 H   0  0  0  0  0  0  0  0  0  0  0  0
   56.6008   25.2850   47.4099 H   0  0  0  0  0  0  0  0  0  0  0  0
   56.0190   23.6837   46.8466 H   0  0  0  0  0  0  0  0  0  0  0  0
   58.3063   24.4289   45.9384 H   0  0  0  0  0  0  0  0  0  0  0  0
   57.0956   23.9460   44.7040 H   0  0  0  0  0  0  0  0  0  0  0  0
   56.4740   26.3810   44.7030 H   0  0  0  0  0  0  0  0  0  0  0  0
   57.5867   27.1133   46.6482 H   0  0  0  0  0  0  0  0  0  0  0  0
   59.1611   26.6163   45.9043 H   0  0  0  0  0  0  0  0  0  0  0  0
   59.3198   28.5341   44.7605 H   0  0  0  0  0  0  0  0  0  0  0  0
   57.6257   28.3461   44.1297 H   0  0  0  0  0  0  0  0  0  0  0  0
   56.8850   29.3450   46.3590 H   0  0  0  0  0  0  0  0  0  0  0  0
   58.4353   28.3498   48.0480 H   0  0  0  0  0  0  0  0  0  0  0  0
   59.8843   27.8214   49.9947 H   0  0  0  0  0  0  0  0  0  0  0  0
   61.6983   29.3885   50.6628 H   0  0  0  0  0  0  0  0  0  0  0  0
   62.0375   31.5082   49.4184 H   0  0  0  0  0  0  0  0  0  0  0  0
   61.8853   33.3097   48.6792 H   0  0  0  0  0  0  0  0  0  0  0  0
   62.6417   32.7502   47.1490 H   0  0  0  0  0  0  0  0  0  0  0  0
   61.5812   34.2000   47.1490 H   0  0  0  0  0  0  0  0  0  0  0  0
   60.1230   34.8610   46.5638 H   0  0  0  0  0  0  0  0  0  0  0  0
   58.3844   35.6196   44.9780 H   0  0  0  0  0  0  0  0  0  0  0  0
   56.9137   33.9765   43.8554 H   0  0  0  0  0  0  0  0  0  0  0  0
   58.2842   32.3656   42.4911 H   0  0  0  0  0  0  0  0  0  0  0  0
   57.7145   30.8437   41.7256 H   0  0  0  0  0  0  0  0  0  0  0  0
   56.6606   32.2983   41.7256 H   0  0  0  0  0  0  0  0  0  0  0  0
  1  2  1  0
  2  3  1  0
  3  4  1  0
  4  5  1  0
  5  6  1  0
  6  7  1  0
  7  8  1  0
  8  9  1  0
  9 10  1  0
 10 11  1  0
 11 12  1  0
 12 13  1  0
 13 14  2  0
 14 15  1  0
 15 16  2  0
 16 17  1  0
 17 18  2  0
 18 19  1  0
 19 20  2  0
 20 21  1  0
 20 22  1  0
 22 23  2  0
 23 24  1  0
 24 25  2  0
 25 26  1  0
 26 27  1  0
 27 28  1  0
 26 29  2  0
 29 13  1  0
 19 14  1  0
 29 22  1  0
  1 30  1  0
  1 31  1  0
  1 32  1  0
  2 33  1  0
  2 34  1  0
  4 35  1  0
  4 36  1  0
  5 37  1  0
  5 38  1  0
  7 39  1  0
  7 40  1  0
  8 41  1  0
  8 42  1  0
  9 43  1  0
 10 44  1  0
 10 45  1  0
 11 46  1  0
 11 47  1  0
 12 48  1  0
 15 49  1  0
 16 50  1  0
 17 51  1  0
 18 52  1  0
 21 53  1  0
 21 54  1  0
 21 55  1  0
 23 56  1  0
 24 57  1  0
 25 58  1  0
 28 59  1  0
 28 60  1  0
 28 61  1  0
M  CHG  1  20   1
M  END
>  <UniqueID>  (8) 
8

>  <SMILES>  (8) 
CCOCCOCCNCCNc1c2ccccc2[n+](C)c2cccc(SC)c12

>  <Energy>  (8) 
89.46574814133956

>  <Genealogy>  (8) 
CCOCCOCCNCCNc1c2ccccc2[n+](C)c2cccc(SC)c12 (3D coordinates assigned)
CCOCCOCCNCCNc1c2ccccc2[n+](C)c2cccc(SC)c12 (optimized conformer: 89.46574814133956 kcal/mol)

>  <smiles>  (8) 
CCOCCOCCNCCNc1c2ccccc2[n+](C)c2cccc(SC)c12

>  <score_type>  (8) 
oracle

>  <origin>  (8) 
adg

>  <m_score__min__energy>  (8) 
-6.2199999999999998

>  <m_primary>  (8) 
energy

$$$$
8:0
     RDKit          3D

 41 42  0  0  0  0  0  0  0  0999 V2000
   56.2820   30.1900   43.8590 C   0  0  0  0  0  0  0  0  0  0  0  0
   57.4800   31.1240   43.6690 C   0  0  0  0  0  0  0  0  0  0  0  0
   57.9250   31.8110   44.9050 N   0  0  0  0  0  0  0  0  0  0  0  0
   58.1830   30.9050   46.0530 C   0  0  0  0  0  0  0  0  0  0  0  0
   59.5940   30.2960   46.0850 C   0  0  0  0  0  0  0  0  0  0  0  0
   57.2120   33.0640   45.2470 C   0  0  0  0  0  0  0  0  0  0  0  0
   58.1660   34.2500   45.5010 C   0  0  0  0  0  0  0  0  0  0  0  0
   59.5830   33.8520   45.6070 N   0  0  0  0  0  0  0  0  0  0  0  0
   60.0230   33.7670   46.9850 C   0  0  0  0  0  0  0  0  0  0  0  0
   59.0640   33.8250   48.0070 C   0  0  0  0  0  0  0  0  0  0  0  0
   59.4450   33.7770   49.3410 C   0  0  0  0  0  0  0  0  0  0  0  0
   60.7910   33.6630   49.6670 C   0  0  0  0  0  0  0  0  0  0  0  0
   61.7460   33.5950   48.6900 N   0  0  0  0  0  0  0  0  0  0  0  0
   63.0570   33.4790   49.0680 C   0  0  0  0  0  0  0  0  0  0  0  0
   64.0700   33.4010   48.1160 C   0  0  0  0  0  0  0  0  0  0  0  0
   63.7440   33.4420   46.7670 C   0  0  0  0  0  0  0  0  0  0  0  0
   62.4150   33.5610   46.3760 C   0  0  0  0  0  0  0  0  0  0  0  0
   61.3960   33.6430   47.3500 C   0  0  0  0  0  0  0  0  0  0  0  0
   56.0966   30.0454   44.9336 H   0  0  0  0  0  0  0  0  0  0  0  0
   55.3921   30.6350   43.3900 H   0  0  0  0  0  0  0  0  0  0  0  0
   56.4965   29.2184   43.3900 H   0  0  0  0  0  0  0  0  0  0  0  0
   58.3217   30.5295   43.2841 H   0  0  0  0  0  0  0  0  0  0  0  0
   57.1560   31.9113   42.9724 H   0  0  0  0  0  0  0  0  0  0  0  0
   58.0353   31.4769   46.9810 H   0  0  0  0  0  0  0  0  0  0  0  0
   57.4830   30.0629   45.9481 H   0  0  0  0  0  0  0  0  0  0  0  0
   59.9108   30.1593   47.1295 H   0  0  0  0  0  0  0  0  0  0  0  0
   59.5846   29.3218   45.5742 H   0  0  0  0  0  0  0  0  0  0  0  0
   60.2964   30.9711   45.5742 H   0  0  0  0  0  0  0  0  0  0  0  0
   56.5423   33.3248   44.4142 H   0  0  0  0  0  0  0  0  0  0  0  0
   56.6566   32.8828   46.1790 H   0  0  0  0  0  0  0  0  0  0  0  0
   58.0655   34.9623   44.6688 H   0  0  0  0  0  0  0  0  0  0  0  0
   57.8811   34.6941   46.4662 H   0  0  0  0  0  0  0  0  0  0  0  0
   59.7260   32.9370   45.1190 H   0  0  0  0  0  0  0  0  0  0  0  0
   60.1790   34.5330   45.0840 H   0  0  0  0  0  0  0  0  0  0  0  0
   57.9981   33.9095   47.7485 H   0  0  0  0  0  0  0  0  0  0  0  0
   58.6859   33.8289   50.1354 H   0  0  0  0  0  0  0  0  0  0  0  0
   61.0924   33.6270   50.7243 H   0  0  0  0  0  0  0  0  0  0  0  0
   63.3131   33.4470   50.1373 H   0  0  0  0  0  0  0  0  0  0  0  0
   65.1201   33.3077   48.4301 H   0  0  0  0  0  0  0  0  0  0  0  0
   64.5373   33.3803   46.0074 H   0  0  0  0  0  0  0  0  0  0  0  0
   62.1572   33.5913   45.3071 H   0  0  0  0  0  0  0  0  0  0  0  0
  1  2  1  0
  2  3  1  0
  3  4  1  0
  4  5  1  0
  3  6  1  0
  6  7  1  0
  7  8  1  0
  8  9  1  0
  9 10  2  0
 10 11  1  0
 11 12  2  0
 12 13  1  0
 13 14  2  0
 14 15  1  0
 15 16  2  0
 16 17  1  0
 17 18  2  0
 18  9  1  0
 18 13  1  0
  1 19  1  0
  1 20  1  0
  1 21  1  0
  2 22  1  0
  2 23  1  0
  4 24  1  0
  4 25  1  0
  5 26  1  0
  5 27  1  0
  5 28  1  0
  6 29  1  0
  6 30  1  0
  7 31  1  0
  7 32  1  0
  8 33  1  0
  8 34  1  0
 10 35  1  0
 11 36  1  0
 12 37  1  0
 14 38  1  0
 15 39  1  0
 16 40  1  0
 17 41  1  0
M  CHG  2   8   1  13   1
M  END
>  <UniqueID>  (9) 
9

>  <SMILES>  (9) 
CCN(CC)CC[NH2+]c1ccc[n+]2ccccc12

>  <Energy>  (9) 
54.03610573436229

>  <Genealogy>  (9) 
CCN(CC)CC[NH2+]c1ccc[n+]2ccccc12 (protonated)
CCN(CC)CC[NH2+]c1ccc[n+]2ccccc12 (3D coordinates assigned)
CCN(CC)CC[NH2+]c1ccc[n+]2ccccc12 (optimized conformer: 54.03610573436229 kcal/mol)

>  <smiles>  (9) 
CCN(CC)CCNc1ccc[n+]2ccccc12

>  <score_type>  (9) 
oracle

>  <origin>  (9) 
adg

>  <m_score__min__energy>  (9) 
-2.6600000000000001

>  <m_primary>  (9) 
energy

$$$$
9:0
     RDKit          3D

 39 38  0  0  0  0  0  0  0  0999 V2000
   57.7720   25.7470   43.8080 C   0  0  0  0  0  0  0  0  0  0  0  0
   58.1100   26.9110   42.8710 C   0  0  0  0  0  0  0  0  0  0  0  0
   57.7700   28.2220   43.4550 N   0  0  0  0  0  0  0  0  0  0  0  0
   58.4890   28.4720   44.7160 C   0  0  0  0  0  0  0  0  0  0  0  0
   57.7620   29.5190   45.5740 C   0  0  0  0  0  0  0  0  0  0  0  0
   56.6670   30.0780   44.8710 O   0  0  0  0  0  0  0  0  0  0  0  0
   56.9740   31.3820   44.4220 C   0  0  0  0  0  0  0  0  0  0  0  0
   58.2700   31.8480   45.1150 C   0  0  0  0  0  0  0  0  0  0  0  0
   58.2180   33.2080   45.7420 N   0  0  0  0  0  0  0  0  0  0  0  0
   57.8360   33.0970   47.1750 C   0  0  0  0  0  0  0  0  0  0  0  0
   57.1560   33.9690   45.0300 C   0  0  0  0  0  0  0  0  0  0  0  0
   59.5420   33.8930   45.5920 C   0  0  0  0  0  0  0  0  0  0  0  0
   59.6880   35.2170   46.3630 C   0  0  0  0  0  0  0  0  0  0  0  0
   57.8680   26.0775   44.8528 H   0  0  0  0  0  0  0  0  0  0  0  0
   56.7401   25.4143   43.6220 H   0  0  0  0  0  0  0  0  0  0  0  0
   58.4652   24.9134   43.6220 H   0  0  0  0  0  0  0  0  0  0  0  0
   59.1886   26.8894   42.6561 H   0  0  0  0  0  0  0  0  0  0  0  0
   57.5132   26.7876   41.9553 H   0  0  0  0  0  0  0  0  0  0  0  0
   56.7410   28.2250   43.6450 H   0  0  0  0  0  0  0  0  0  0  0  0
   57.9770   28.9840   42.7660 H   0  0  0  0  0  0  0  0  0  0  0  0
   58.5589   27.5310   45.2814 H   0  0  0  0  0  0  0  0  0  0  0  0
   59.4912   28.8557   44.4745 H   0  0  0  0  0  0  0  0  0  0  0  0
   57.3928   29.0385   46.4921 H   0  0  0  0  0  0  0  0  0  0  0  0
   58.4698   30.3246   45.8192 H   0  0  0  0  0  0  0  0  0  0  0  0
   57.1190   31.3740   43.3316 H   0  0  0  0  0  0  0  0  0  0  0  0
   56.1494   32.0677   44.6666 H   0  0  0  0  0  0  0  0  0  0  0  0
   58.5116   31.1209   45.9042 H   0  0  0  0  0  0  0  0  0  0  0  0
   59.0285   31.9124   44.3209 H   0  0  0  0  0  0  0  0  0  0  0  0
   58.7014   33.3485   47.8057 H   0  0  0  0  0  0  0  0  0  0  0  0
   57.0114   33.7927   47.3896 H   0  0  0  0  0  0  0  0  0  0  0  0
   57.5126   32.0677   47.3896 H   0  0  0  0  0  0  0  0  0  0  0  0
   56.4909   34.4456   45.7652 H   0  0  0  0  0  0  0  0  0  0  0  0
   57.6191   34.7421   44.3992 H   0  0  0  0  0  0  0  0  0  0  0  0
   56.5728   33.2819   44.3992 H   0  0  0  0  0  0  0  0  0  0  0  0
   60.3230   33.2048   45.9474 H   0  0  0  0  0  0  0  0  0  0  0  0
   59.6329   34.1497   44.5262 H   0  0  0  0  0  0  0  0  0  0  0  0
   59.6658   35.0160   47.4443 H   0  0  0  0  0  0  0  0  0  0  0  0
   60.6440   35.6922   46.0979 H   0  0  0  0  0  0  0  0  0  0  0  0
   58.8585   35.8891   46.0979 H   0  0  0  0  0  0  0  0  0  0  0  0
  1  2  1  0
  2  3  1  0
  3  4  1  0
  4  5  1  0
  5  6  1  0
  6  7  1  0
  7  8  1  0
  8  9  1  0
  9 10  1  0
  9 11  1  0
  9 12  1  0
 12 13  1  0
  1 14  1  0
  1 15  1  0
  1 16  1  0
  2 17  1  0
  2 18  1  0
  3 19  1  0
  3 20  1  0
  4 21  1  0
  4 22  1  0
  5 23  1  0
  5 24  1  0
  7 25  1  0
  7 26  1  0
  8 27  1  0
  8 28  1  0
 10 29  1  0
 10 30  1  0
 10 31  1  0
 11 32  1  0
 11 33  1  0
 11 34  1  0
 12 35  1  0
 12 36  1  0
 13 37  1  0
 13 38  1  0
 13 39  1  0
M  CHG  2   3   1   9   1
M  END
>  <UniqueID>  (10) 
10

>  <SMILES>  (10) 
CC[NH2+]CCOCC[N+](C)(C)CC

>  <Energy>  (10) 
40.57005036054141

>  <Genealogy>  (10) 
CC[NH2+]CCOCC[N+](C)(C)CC (protonated)
CC[NH2+]CCOCC[N+](C)(C)CC (3D coordinates assigned)
CC[NH2+]CCOCC[N+](C)(C)CC (optimized conformer: 40.57005036054141 kcal/mol)

>  <smiles>  (10) 
CCNCCOCC[N+](C)(C)CC

>  <score_type>  (10) 
oracle

>  <origin>  (10) 
adg

>  <m_score__min__energy>  (10) 
-1.6200000000000001

>  <m_primary>  (10) 
energy

$$$$
10:0
     RDKit          3D

 53 55  0  0  0  0  0  0  0  0999 V2000
   56.9990   24.3150   43.7060 C   0  0  0  0  0  0  0  0  0  0  0  0
   57.7740   23.7060   44.8630 C   0  0  0  0  0  0  0  0  0  0  0  0
   57.8090   24.6270   45.9490 O   0  0  0  0  0  0  0  0  0  0  0  0
   56.9840   25.7550   46.0090 C   0  0  0  0  0  0  0  0  0  0  0  0
   55.7860   25.6450   46.3870 O   0  0  0  0  0  0  0  0  0  0  0  0
   57.5330   27.0690   45.6200 C   0  0  0  0  0  0  0  0  0  0  0  0
   56.7590   28.1480   45.2330 C   0  0  0  0  0  0  0  0  0  0  0  0
   57.6410   29.1790   44.9860 C   0  0  0  0  0  0  0  0  0  0  0  0
   57.2160   30.8230   44.5350 S   0  0  0  0  0  0  0  0  0  0  0  0
   55.7630   30.8680   44.1470 O   0  0  0  0  0  0  0  0  0  0  0  0
   58.0360   31.2330   43.3450 O   0  0  0  0  0  0  0  0  0  0  0  0
   57.5130   31.9320   45.8530 N   0  0  0  0  0  0  0  0  0  0  0  0
   58.2170   33.1510   45.3860 C   0  0  0  0  0  0  0  0  0  0  0  0
   59.7210   33.1420   45.6970 C   0  0  0  0  0  0  0  0  0  0  0  0
   59.9510   32.8870   47.1230 N   0  0  0  0  0  0  0  0  0  0  0  0
   61.2180   33.2240   47.7230 C   0  0  0  0  0  0  0  0  0  0  0  0
   62.4130   32.9050   47.0530 C   0  0  0  0  0  0  0  0  0  0  0  0
   63.6490   33.2100   47.6240 C   0  0  0  0  0  0  0  0  0  0  0  0
   63.7090   33.8380   48.8680 C   0  0  0  0  0  0  0  0  0  0  0  0
   62.5320   34.1690   49.5430 C   0  0  0  0  0  0  0  0  0  0  0  0
   61.2750   33.8710   48.9770 C   0  0  0  0  0  0  0  0  0  0  0  0
   60.0760   34.2170   49.6200 O   0  0  0  0  0  0  0  0  0  0  0  0
   59.6570   33.7070   50.8810 C   0  0  0  0  0  0  0  0  0  0  0  0
   58.9210   32.1860   47.8990 C   0  0  0  0  0  0  0  0  0  0  0  0
   58.1590   31.2270   46.9830 C   0  0  0  0  0  0  0  0  0  0  0  0
   58.9120   28.7030   45.2210 C   0  0  0  0  0  0  0  0  0  0  0  0
   58.8450   27.4130   45.6070 N   0  0  0  0  0  0  0  0  0  0  0  0
   59.9920   26.5850   45.9680 C   0  0  0  0  0  0  0  0  0  0  0  0
   56.1913   24.9497   44.0994 H   0  0  0  0  0  0  0  0  0  0  0  0
   57.6773   24.9242   43.0906 H   0  0  0  0  0  0  0  0  0  0  0  0
   56.5675   23.5118   43.0906 H   0  0  0  0  0  0  0  0  0  0  0  0
   57.2810   22.7772   45.1858 H   0  0  0  0  0  0  0  0  0  0  0  0
   58.8011   23.4828   44.5387 H   0  0  0  0  0  0  0  0  0  0  0  0
   55.6633   28.1777   45.1410 H   0  0  0  0  0  0  0  0  0  0  0  0
   58.0864   33.2338   44.2969 H   0  0  0  0  0  0  0  0  0  0  0  0
   57.7789   34.0054   45.9227 H   0  0  0  0  0  0  0  0  0  0  0  0
   60.2079   32.3528   45.1053 H   0  0  0  0  0  0  0  0  0  0  0  0
   60.1426   34.1249   45.4396 H   0  0  0  0  0  0  0  0  0  0  0  0
   62.3727   32.4111   46.0709 H   0  0  0  0  0  0  0  0  0  0  0  0
   64.5775   32.9548   47.0923 H   0  0  0  0  0  0  0  0  0  0  0  0
   64.6848   34.0729   49.3181 H   0  0  0  0  0  0  0  0  0  0  0  0
   62.5857   34.6656   50.5230 H   0  0  0  0  0  0  0  0  0  0  0  0
   60.1323   34.2856   51.6868 H   0  0  0  0  0  0  0  0  0  0  0  0
   58.5634   33.7908   50.9654 H   0  0  0  0  0  0  0  0  0  0  0  0
   59.9514   32.6505   50.9654 H   0  0  0  0  0  0  0  0  0  0  0  0
   59.3972   31.6171   48.7112 H   0  0  0  0  0  0  0  0  0  0  0  0
   58.2213   32.9189   48.3270 H   0  0  0  0  0  0  0  0  0  0  0  0
   58.8642   30.4845   46.5813 H   0  0  0  0  0  0  0  0  0  0  0  0
   57.3690   30.7457   47.5782 H   0  0  0  0  0  0  0  0  0  0  0  0
   59.8386   29.2855   45.1108 H   0  0  0  0  0  0  0  0  0  0  0  0
   60.0721   26.5271   47.0635 H   0  0  0  0  0  0  0  0  0  0  0  0
   59.8583   25.5738   45.5562 H   0  0  0  0  0  0  0  0  0  0  0  0
   60.9097   27.0302   45.5562 H   0  0  0  0  0  0  0  0  0  0  0  0
  1  2  1  0
  2  3  1  0
  3  4  1  0
  4  5  2  0
  4  6  1  0
  6  7  2  0
  7  8  1  0
  8  9  1  0
  9 10  2  0
  9 11  2  0
  9 12  1  0
 12 13  1  0
 13 14  1  0
 14 15  1  0
 15 16  1  0
 16 17  2  0
 17 18  1  0
 18 19  2  0
 19 20  1  0
 20 21  2  0
 21 22  1  0
 22 23  1  0
 15 24  1  0
 24 25  1  0
  8 26  2  0
 26 27  1  0
 27 28  1  0
 27  6  1  0
 25 12  1  0
 21 16  1  0
  1 29  1  0
  1 30  1  0
  1 31  1  0
  2 32  1  0
  2 33  1  0
  7 34  1  0
 13 35  1  0
 13 36  1  0
 14 37  1  0
 14 38  1  0
 17 39  1  0
 18 40  1  0
 19 41  1  0
 20 42  1  0
 23 43  1  0
 23 44  1  0
 23 45  1  0
 24 46  1  0
 24 47  1  0
 25 48  1  0
 25 49  1  0
 26 50  1  0
 28 51  1  0
 28 52  1  0
 28 53  1  0
M  END
>  <UniqueID>  (11) 
11

>  <SMILES>  (11) 
CCOC(=O)c1cc(S(=O)(=O)N2CCN(c3ccccc3OC)CC2)cn1C

>  <Energy>  (11) 
82.44738777004468

>  <Genealogy>  (11) 
CCOC(=O)c1cc(S(=O)(=O)N2CCN(c3ccccc3OC)CC2)cn1C (3D coordinates assigned)
CCOC(=O)c1cc(S(=O)(=O)N2CCN(c3ccccc3OC)CC2)cn1C (nonaromatic ring conformer: 82.44738777004468 kcal/mol)

>  <smiles>  (11) 
CCOC(=O)c1cc(S(=O)(=O)N2CCN(c3ccccc3OC)CC2)cn1C

>  <score_type>  (11) 
oracle

>  <origin>  (11) 
adg

>  <m_score__min__energy>  (11) 
-8.1899999999999995

>  <m_primary>  (11) 
energy

$$$$
11:0
     RDKit          3D

 29 30  0  0  0  0  0  0  0  0999 V2000
   57.7030   32.1120   41.8590 C   0  0  0  0  0  0  0  0  0  0  0  0
   57.9980   32.3410   43.3060 C   0  0  0  0  0  0  0  0  0  0  0  0
   58.5280   33.4920   43.7870 N   0  0  0  0  0  0  0  0  0  0  0  0
   58.6190   33.2690   45.1180 C   0  0  0  0  0  0  0  0  0  0  0  0
   59.1040   34.1740   46.0700 C   0  0  0  0  0  0  0  0  0  0  0  0
   59.6310   35.5200   45.6680 C   0  0  0  0  0  0  0  0  0  0  0  0
   59.1140   33.7530   47.4150 C   0  0  0  0  0  0  0  0  0  0  0  0
   58.6280   32.4820   47.7690 C   0  0  0  0  0  0  0  0  0  0  0  0
   58.1440   31.6230   46.7740 C   0  0  0  0  0  0  0  0  0  0  0  0
   58.1740   32.0520   45.4850 N   0  0  0  0  0  0  0  0  0  0  0  0
   57.7720   31.4580   44.3500 C   0  0  0  0  0  0  0  0  0  0  0  0
   57.2290   30.1320   44.2560 N   0  0  0  0  0  0  0  0  0  0  0  0
   55.8610   29.9260   43.7850 C   0  0  0  0  0  0  0  0  0  0  0  0
   58.0890   28.9780   44.5160 C   0  0  0  0  0  0  0  0  0  0  0  0
   56.8374   31.4400   41.7631 H   0  0  0  0  0  0  0  0  0  0  0  0
   57.4765   33.0732   41.3744 H   0  0  0  0  0  0  0  0  0  0  0  0
   58.5780   31.6542   41.3744 H   0  0  0  0  0  0  0  0  0  0  0  0
   59.8611   36.1077   46.5689 H   0  0  0  0  0  0  0  0  0  0  0  0
   60.5455   35.3921   45.0702 H   0  0  0  0  0  0  0  0  0  0  0  0
   58.8728   36.0470   45.0702 H   0  0  0  0  0  0  0  0  0  0  0  0
   59.5051   34.4240   48.1939 H   0  0  0  0  0  0  0  0  0  0  0  0
   58.6279   32.1638   48.8220 H   0  0  0  0  0  0  0  0  0  0  0  0
   57.7503   30.6281   47.0292 H   0  0  0  0  0  0  0  0  0  0  0  0
   55.1873   29.8245   44.6486 H   0  0  0  0  0  0  0  0  0  0  0  0
   55.5493   30.7873   43.1759 H   0  0  0  0  0  0  0  0  0  0  0  0
   55.8168   29.0111   43.1759 H   0  0  0  0  0  0  0  0  0  0  0  0
   58.1944   28.8365   45.6018 H   0  0  0  0  0  0  0  0  0  0  0  0
   57.6395   28.0781   44.0709 H   0  0  0  0  0  0  0  0  0  0  0  0
   59.0799   29.1514   44.0709 H   0  0  0  0  0  0  0  0  0  0  0  0
  1  2  1  0
  2  3  1  0
  3  4  2  0
  4  5  1  0
  5  6  1  0
  5  7  2  0
  7  8  1  0
  8  9  2  0
  9 10  1  0
 10 11  1  0
 11 12  1  0
 12 13  1  0
 12 14  1  0
 11  2  2  0
 10  4  1  0
  1 15  1  0
  1 16  1  0
  1 17  1  0
  6 18  1  0
  6 19  1  0
  6 20  1  0
  7 21  1  0
  8 22  1  0
  9 23  1  0
 13 24  1  0
 13 25  1  0
 13 26  1  0
 14 27  1  0
 14 28  1  0
 14 29  1  0
M  END
>  <UniqueID>  (12) 
12

>  <SMILES>  (12) 
Cc1nc2c(C)cccn2c1N(C)C

>  <Energy>  (12) 
65.62454156103605

>  <Genealogy>  (12) 
Cc1nc2c(C)cccn2c1N(C)C (3D coordinates assigned)
Cc1nc2c(C)cccn2c1N(C)C (optimized conformer: 65.62454156103605 kcal/mol)

>  <smiles>  (12) 
Cc1nc2c(C)cccn2c1N(C)C

>  <score_type>  (12) 
oracle

>  <origin>  (12) 
adg

>  <m_score__min__energy>  (12) 
-5.2599999999999998

>  <m_primary>  (12) 
energy

$$$$
12:0
     RDKit          3D

 64 67  0  0  0  0  0  0  0  0999 V2000
   63.6920   34.2100   51.1680 C   0  0  0  0  0  0  0  0  0  0  0  0
   63.2040   34.0270   49.7340 C   0  0  0  0  0  0  0  0  0  0  0  0
   63.1710   32.5900   49.3680 N   0  0  0  0  0  0  0  0  0  0  0  0
   63.9760   31.8180   50.3340 C   0  0  0  0  0  0  0  0  0  0  0  0
   63.6750   32.4000   47.9850 C   0  0  0  0  0  0  0  0  0  0  0  0
   62.7470   31.5320   47.1170 C   0  0  0  0  0  0  0  0  0  0  0  0
   61.4670   31.2580   47.7760 N   0  0  0  0  0  0  0  0  0  0  0  0
   60.2410   31.0890   47.0410 C   0  0  0  0  0  0  0  0  0  0  0  0
   59.8250   29.7940   46.6880 C   0  0  0  0  0  0  0  0  0  0  0  0
   60.4060   28.6530   47.2800 C   0  0  0  0  0  0  0  0  0  0  0  0
   59.9560   27.3760   46.9550 C   0  0  0  0  0  0  0  0  0  0  0  0
   58.9220   27.2140   46.0400 C   0  0  0  0  0  0  0  0  0  0  0  0
   58.3560   28.3270   45.4180 C   0  0  0  0  0  0  0  0  0  0  0  0
   58.8220   29.6360   45.6990 C   0  0  0  0  0  0  0  0  0  0  0  0
   58.3440   30.7390   45.0220 N   0  0  0  0  0  0  0  0  0  0  0  0
   57.6050   30.5620   43.7520 C   0  0  0  0  0  0  0  0  0  0  0  0
   58.5690   32.0070   45.5250 C   0  0  0  0  0  0  0  0  0  0  0  0
   57.8770   33.1330   45.0170 C   0  0  0  0  0  0  0  0  0  0  0  0
   58.1030   34.4060   45.5250 C   0  0  0  0  0  0  0  0  0  0  0  0
   58.9690   34.5900   46.5920 C   0  0  0  0  0  0  0  0  0  0  0  0
   59.6460   33.5020   47.1640 C   0  0  0  0  0  0  0  0  0  0  0  0
   60.3430   33.6940   48.4100 N   0  0  0  0  0  0  0  0  0  0  0  0
   59.6930   34.2210   49.6140 C   0  0  0  0  0  0  0  0  0  0  0  0
   60.1300   33.4570   50.8700 C   0  0  0  0  0  0  0  0  0  0  0  0
   59.9200   32.0100   50.7240 N   0  0  0  0  0  0  0  0  0  0  0  0
   60.8820   31.1320   51.1450 C   0  0  0  0  0  0  0  0  0  0  0  0
   60.7000   29.7540   50.9970 C   0  0  0  0  0  0  0  0  0  0  0  0
   59.5240   29.2770   50.4210 C   0  0  0  0  0  0  0  0  0  0  0  0
   58.5450   30.1770   50.0010 C   0  0  0  0  0  0  0  0  0  0  0  0
   58.7610   31.5480   50.1620 C   0  0  0  0  0  0  0  0  0  0  0  0
   59.4980   32.2040   46.5890 C   0  0  0  0  0  0  0  0  0  0  0  0
   62.8966   33.9117   51.8669 H   0  0  0  0  0  0  0  0  0  0  0  0
   64.5810   33.5841   51.3355 H   0  0  0  0  0  0  0  0  0  0  0  0
   63.9502   35.2661   51.3355 H   0  0  0  0  0  0  0  0  0  0  0  0
   62.1911   34.4460   49.6415 H   0  0  0  0  0  0  0  0  0  0  0  0
   63.8971   34.5474   49.0567 H   0  0  0  0  0  0  0  0  0  0  0  0
   63.6860   32.0961   51.3580 H   0  0  0  0  0  0  0  0  0  0  0  0
   63.7994   30.7429   50.1821 H   0  0  0  0  0  0  0  0  0  0  0  0
   65.0427   32.0394   50.1821 H   0  0  0  0  0  0  0  0  0  0  0  0
   63.7755   33.3873   47.5105 H   0  0  0  0  0  0  0  0  0  0  0  0
   64.6400   31.8769   48.0571 H   0  0  0  0  0  0  0  0  0  0  0  0
   62.5526   32.0584   46.1709 H   0  0  0  0  0  0  0  0  0  0  0  0
   63.2501   30.5692   46.9441 H   0  0  0  0  0  0  0  0  0  0  0  0
   61.4570   31.1340   48.8120 H   0  0  0  0  0  0  0  0  0  0  0  0
   61.2234   28.7734   48.0062 H   0  0  0  0  0  0  0  0  0  0  0  0
   60.4191   26.4946   47.4227 H   0  0  0  0  0  0  0  0  0  0  0  0
   58.5493   26.2059   45.8059 H   0  0  0  0  0  0  0  0  0  0  0  0
   57.5357   28.1868   44.6986 H   0  0  0  0  0  0  0  0  0  0  0  0
   56.5564   30.3109   43.9699 H   0  0  0  0  0  0  0  0  0  0  0  0
   57.6454   31.4952   43.1711 H   0  0  0  0  0  0  0  0  0  0  0  0
   58.0638   29.7484   43.1711 H   0  0  0  0  0  0  0  0  0  0  0  0
   57.1471   32.9973   44.2053 H   0  0  0  0  0  0  0  0  0  0  0  0
   57.5925   35.2721   45.0786 H   0  0  0  0  0  0  0  0  0  0  0  0
   59.1273   35.6012   46.9951 H   0  0  0  0  0  0  0  0  0  0  0  0
   61.2680   33.2220   48.5190 H   0  0  0  0  0  0  0  0  0  0  0  0
   59.9611   35.2816   49.7296 H   0  0  0  0  0  0  0  0  0  0  0  0
   58.6056   34.1018   49.4989 H   0  0  0  0  0  0  0  0  0  0  0  0
   61.1987   33.6462   51.0491 H   0  0  0  0  0  0  0  0  0  0  0  0
   59.5213   33.8092   51.7158 H   0  0  0  0  0  0  0  0  0  0  0  0
   61.8060   31.5140   51.6036 H   0  0  0  0  0  0  0  0  0  0  0  0
   61.4780   29.0524   51.3322 H   0  0  0  0  0  0  0  0  0  0  0  0
   59.3686   28.1950   50.2982 H   0  0  0  0  0  0  0  0  0  0  0  0
   57.6120   29.8112   49.5475 H   0  0  0  0  0  0  0  0  0  0  0  0
   57.9920   32.2628   49.8338 H   0  0  0  0  0  0  0  0  0  0  0  0
  1  2  1  0
  2  3  1  0
  3  4  1  0
  3  5  1  0
  5  6  1  0
  6  7  1  0
  7  8  1  0
  8  9  2  0
  9 10  1  0
 10 11  2  0
 11 12  1  0
 12 13  2  0
 13 14  1  0
 14 15  2  0
 15 16  1  0
 15 17  1  0
 17 18  2  0
 18 19  1  0
 19 20  2  0
 20 21  1  0
 21 22  1  0
 22 23  1  0
 23 24  1  0
 24 25  1  0
 25 26  2  0
 26 27  1  0
 27 28  2  0
 28 29  1  0
 29 30  2  0
 21 31  2  0
 31  8  1  0
 14  9  1  0
 31 17  1  0
 30 25  1  0
  1 32  1  0
  1 33  1  0
  1 34  1  0
  2 35  1  0
  2 36  1  0
  4 37  1  0
  4 38  1  0
  4 39  1  0
  5 40  1  0
  5 41  1  0
  6 42  1  0
  6 43  1  0
  7 44  1  0
 10 45  1  0
 11 46  1  0
 12 47  1  0
 13 48  1  0
 16 49  1  0
 16 50  1  0
 16 51  1  0
 18 52  1  0
 19 53  1  0
 20 54  1  0
 22 55  1  0
 23 56  1  0
 23 57  1  0
 24 58  1  0
 24 59  1  0
 26 60  1  0
 27 61  1  0
 28 62  1  0
 29 63  1  0
 30 64  1  0
M  CHG  2  15   1  25   1
M  END
>  <UniqueID>  (13) 
13

>  <SMILES>  (13) 
CCN(C)CCNc1c2ccccc2[n+](C)c2cccc(NCC[n+]3ccccc3)c12

>  <Energy>  (13) 
94.08797235193919

>  <Genealogy>  (13) 
CCN(C)CCNc1c2ccccc2[n+](C)c2cccc(NCC[n+]3ccccc3)c12 (3D coordinates assigned)
CCN(C)CCNc1c2ccccc2[n+](C)c2cccc(NCC[n+]3ccccc3)c12 (optimized conformer: 94.08797235193919 kcal/mol)

>  <smiles>  (13) 
CCN(C)CCNc1c2ccccc2[n+](C)c2cccc(NCC[n+]3ccccc3)c12

>  <score_type>  (13) 
oracle

>  <origin>  (13) 
adg

>  <m_score__min__energy>  (13) 
-4.8099999999999996

>  <m_primary>  (13) 
energy

$$$$
13:0
     RDKit          3D

 61 63  0  0  0  0  0  0  0  0999 V2000
   62.7330   31.8910   47.4870 C   0  0  0  0  0  0  0  0  0  0  0  0
   62.4980   31.3350   48.8860 C   0  0  0  0  0  0  0  0  0  0  0  0
   61.1170   30.7940   48.9840 N   0  0  0  0  0  0  0  0  0  0  0  0
   60.7490   29.9930   47.7930 C   0  0  0  0  0  0  0  0  0  0  0  0
   60.4550   28.5440   48.1810 C   0  0  0  0  0  0  0  0  0  0  0  0
   60.9120   30.0120   50.2250 C   0  0  0  0  0  0  0  0  0  0  0  0
   59.5040   30.2490   50.7930 C   0  0  0  0  0  0  0  0  0  0  0  0
   59.0550   31.5630   50.4970 O   0  0  0  0  0  0  0  0  0  0  0  0
   59.1420   32.4010   51.6370 C   0  0  0  0  0  0  0  0  0  0  0  0
   60.5670   32.9560   51.7980 C   0  0  0  0  0  0  0  0  0  0  0  0
   60.9600   33.8310   50.5910 C   0  0  0  0  0  0  0  0  0  0  0  0
   60.2300   33.4560   49.3610 N   0  0  0  0  0  0  0  0  0  0  0  0
   60.5520   34.3240   48.2080 C   0  0  0  0  0  0  0  0  0  0  0  0
   59.3000   34.9780   47.5910 C   0  0  0  0  0  0  0  0  0  0  0  0
   58.6490   34.0440   46.6730 N   0  0  0  0  0  0  0  0  0  0  0  0
   58.4940   34.2130   45.2630 C   0  0  0  0  0  0  0  0  0  0  0  0
   58.6420   35.3110   44.6560 O   0  0  0  0  0  0  0  0  0  0  0  0
   58.1790   32.9340   44.6390 C   0  0  0  0  0  0  0  0  0  0  0  0
   57.9230   32.6360   43.3040 C   0  0  0  0  0  0  0  0  0  0  0  0
   57.6560   31.3030   42.9570 C   0  0  0  0  0  0  0  0  0  0  0  0
   57.6540   30.2880   43.9440 C   0  0  0  0  0  0  0  0  0  0  0  0
   57.3900   28.9560   43.5880 C   0  0  0  0  0  0  0  0  0  0  0  0
   57.3910   27.9540   44.5630 C   0  0  0  0  0  0  0  0  0  0  0  0
   57.6600   28.2700   45.8970 C   0  0  0  0  0  0  0  0  0  0  0  0
   57.9270   29.5910   46.2710 C   0  0  0  0  0  0  0  0  0  0  0  0
   57.9220   30.6130   45.3060 C   0  0  0  0  0  0  0  0  0  0  0  0
   58.1750   31.9600   45.6220 C   0  0  0  0  0  0  0  0  0  0  0  0
   58.4820   32.6390   46.8880 C   0  0  0  0  0  0  0  0  0  0  0  0
   58.6350   32.0810   48.0100 O   0  0  0  0  0  0  0  0  0  0  0  0
   63.1603   32.9019   47.5612 H   0  0  0  0  0  0  0  0  0  0  0  0
   63.4315   31.2366   46.9449 H   0  0  0  0  0  0  0  0  0  0  0  0
   61.7769   31.9359   46.9449 H   0  0  0  0  0  0  0  0  0  0  0  0
   63.2210   30.5305   49.0861 H   0  0  0  0  0  0  0  0  0  0  0  0
   62.6275   32.1398   49.6246 H   0  0  0  0  0  0  0  0  0  0  0  0
   59.8534   30.4302   47.3274 H   0  0  0  0  0  0  0  0  0  0  0  0
   61.5926   30.0040   47.0871 H   0  0  0  0  0  0  0  0  0  0  0  0
   60.4368   28.4544   49.2772 H   0  0  0  0  0  0  0  0  0  0  0  0
   59.4781   28.2460   47.7725 H   0  0  0  0  0  0  0  0  0  0  0  0
   61.2385   27.8888   47.7725 H   0  0  0  0  0  0  0  0  0  0  0  0
   61.0353   28.9420   50.0015 H   0  0  0  0  0  0  0  0  0  0  0  0
   61.6524   30.3350   50.9717 H   0  0  0  0  0  0  0  0  0  0  0  0
   58.8087   29.5217   50.3484 H   0  0  0  0  0  0  0  0  0  0  0  0
   59.5396   30.1266   51.8856 H   0  0  0  0  0  0  0  0  0  0  0  0
   58.4390   33.2393   51.5231 H   0  0  0  0  0  0  0  0  0  0  0  0
   58.8905   31.8097   52.5298 H   0  0  0  0  0  0  0  0  0  0  0  0
   60.6147   33.5640   52.7135 H   0  0  0  0  0  0  0  0  0  0  0  0
   61.2672   32.1099   51.8597 H   0  0  0  0  0  0  0  0  0  0  0  0
   60.7358   34.8814   50.8284 H   0  0  0  0  0  0  0  0  0  0  0  0
   62.0333   33.6802   50.4030 H   0  0  0  0  0  0  0  0  0  0  0  0
   60.4540   32.4630   49.1190 H   0  0  0  0  0  0  0  0  0  0  0  0
   59.1980   33.5030   49.5420 H   0  0  0  0  0  0  0  0  0  0  0  0
   61.2348   35.1181   48.5446 H   0  0  0  0  0  0  0  0  0  0  0  0
   61.0139   33.6929   47.4345 H   0  0  0  0  0  0  0  0  0  0  0  0
   58.5979   35.2494   48.3931 H   0  0  0  0  0  0  0  0  0  0  0  0
   59.5995   35.8797   47.0366 H   0  0  0  0  0  0  0  0  0  0  0  0
   57.9298   33.4265   42.5392 H   0  0  0  0  0  0  0  0  0  0  0  0
   57.4463   31.0442   41.9086 H   0  0  0  0  0  0  0  0  0  0  0  0
   57.1817   28.6998   42.5387 H   0  0  0  0  0  0  0  0  0  0  0  0
   57.1791   26.9127   44.2787 H   0  0  0  0  0  0  0  0  0  0  0  0
   57.6618   27.4753   46.6576 H   0  0  0  0  0  0  0  0  0  0  0  0
   58.1414   29.8307   47.3229 H   0  0  0  0  0  0  0  0  0  0  0  0
  1  2  1  0
  2  3  1  0
  3  4  1  0
  4  5  1  0
  3  6  1  0
  6  7  1  0
  7  8  1  0
  8  9  1  0
  9 10  1  0
 10 11  1  0
 11 12  1  0
 12 13  1  0
 13 14  1  0
 14 15  1  0
 15 16  1  0
 16 17  2  0
 16 18  1  0
 18 19  2  0
 19 20  1  0
 20 21  2  0
 21 22  1  0
 22 23  2  0
 23 24  1  0
 24 25  2  0
 25 26  1  0
 26 27  2  0
 27 28  1  0
 28 29  2  0
 28 15  1  0
 27 18  1  0
 26 21  1  0
  1 30  1  0
  1 31  1  0
  1 32  1  0
  2 33  1  0
  2 34  1  0
  4 35  1  0
  4 36  1  0
  5 37  1  0
  5 38  1  0
  5 39  1  0
  6 40  1  0
  6 41  1  0
  7 42  1  0
  7 43  1  0
  9 44  1  0
  9 45  1  0
 10 46  1  0
 10 47  1  0
 11 48  1  0
 11 49  1  0
 12 50  1  0
 12 51  1  0
 13 52  1  0
 13 53  1  0
 14 54  1  0
 14 55  1  0
 19 56  1  0
 20 57  1  0
 22 58  1  0
 23 59  1  0
 24 60  1  0
 25 61  1  0
M  CHG  1  12   1
M  END
>  <UniqueID>  (14) 
14

>  <SMILES>  (14) 
CCN(CC)CCOCCC[NH2+]CCN1C(=O)c2ccc3ccccc3c2C1=O

>  <Energy>  (14) 
94.4106091116537

>  <Genealogy>  (14) 
CCN(CC)CCOCCC[NH2+]CCN1C(=O)c2ccc3ccccc3c2C1=O (protonated)
CCN(CC)CCOCCC[NH2+]CCN1C(=O)c2ccc3ccccc3c2C1=O (3D coordinates assigned)
CCN(CC)CCOCCC[NH2+]CCN1C(=O)c2ccc3ccccc3c2C1=O (nonaromatic ring conformer: 94.4106091116537 kcal/mol)

>  <smiles>  (14) 
CCN(CC)CCOCCCNCCN1C(=O)c2ccc3ccccc3c2C1=O

>  <score_type>  (14) 
oracle

>  <origin>  (14) 
adg

>  <m_score__min__energy>  (14) 
-6.5199999999999996

>  <m_primary>  (14) 
energy

$$$$
14:0
     RDKit          3D

108111  0  0  0  0  0  0  0  0999 V2000
   58.8165   27.8948   47.9256 H   0  0  0  0  0  0  0  0  0  0  0  0
   59.2990   28.6700   48.5390 C   0  0  0  0  0  0  0  0  0  0  0  0
   60.6830   28.7480   48.6000 C   0  0  0  0  0  0  0  0  0  0  0  0
   61.2957   28.0168   48.0524 H   0  0  0  0  0  0  0  0  0  0  0  0
   61.3050   29.7500   49.3530 C   0  0  0  0  0  0  0  0  0  0  0  0
   62.4035   29.7985   49.3819 H   0  0  0  0  0  0  0  0  0  0  0  0
   60.5470   30.7060   50.0810 C   0  0  0  0  0  0  0  0  0  0  0  0
   61.0880   31.7810   50.8760 C   0  0  0  0  0  0  0  0  0  0  0  0
   62.3540   32.1250   50.9460 N   0  0  0  0  0  0  0  0  0  0  0  0
   63.2340   32.9910   50.1710 C   0  0  0  0  0  0  0  0  0  0  0  0
   63.9561   33.4716   50.8475 H   0  0  0  0  0  0  0  0  0  0  0  0
   62.6249   33.7528   49.6624 H   0  0  0  0  0  0  0  0  0  0  0  0
   63.9950   32.1790   49.1150 C   0  0  0  0  0  0  0  0  0  0  0  0
   63.9610   31.1142   49.3890 H   0  0  0  0  0  0  0  0  0  0  0  0
   65.0336   32.5400   49.0821 H   0  0  0  0  0  0  0  0  0  0  0  0
   63.3780   32.3560   47.7240 C   0  0  0  0  0  0  0  0  0  0  0  0
   63.5674   31.4548   47.1224 H   0  0  0  0  0  0  0  0  0  0  0  0
   63.8311   33.2295   47.2324 H   0  0  0  0  0  0  0  0  0  0  0  0
   61.9320   32.5640   47.8490 N   0  0  0  0  0  0  0  0  0  0  0  0
   61.6560   32.2290   48.8050 H   0  0  0  0  0  0  0  0  0  0  0  0
   61.6140   33.9940   47.7660 C   0  0  0  0  0  0  0  0  0  0  0  0
   61.3911   34.2585   46.7218 H   0  0  0  0  0  0  0  0  0  0  0  0
   62.4755   34.5789   48.1207 H   0  0  0  0  0  0  0  0  0  0  0  0
   60.3930   34.3070   48.6430 C   0  0  0  0  0  0  0  0  0  0  0  0
   60.6096   35.1940   49.2564 H   0  0  0  0  0  0  0  0  0  0  0  0
   60.1896   33.4345   49.2813 H   0  0  0  0  0  0  0  0  0  0  0  0
   59.1480   34.5830   47.7840 C   0  0  0  0  0  0  0  0  0  0  0  0
   58.7316   35.5621   48.0633 H   0  0  0  0  0  0  0  0  0  0  0  0
   58.4193   33.7794   47.9665 H   0  0  0  0  0  0  0  0  0  0  0  0
   59.4850   34.5940   46.2870 C   0  0  0  0  0  0  0  0  0  0  0  0
   60.4321   35.1312   46.1307 H   0  0  0  0  0  0  0  0  0  0  0  0
   58.6756   35.0977   45.7382 H   0  0  0  0  0  0  0  0  0  0  0  0
   59.6190   33.2190   45.7930 N   0  0  0  0  0  0  0  0  0  0  0  0
   60.3110   32.7450   46.4190 H   0  0  0  0  0  0  0  0  0  0  0  0
   58.3390   32.4740   45.8260 C   0  0  1  0  0  0  0  0  0  0  0  0
   57.6256   32.9888   46.4864 H   0  0  0  0  0  0  0  0  0  0  0  0
   57.7080   32.4260   44.4150 C   0  0  0  0  0  0  0  0  0  0  0  0
   58.0288   33.3119   43.8473 H   0  0  0  0  0  0  0  0  0  0  0  0
   56.6132   32.4116   44.5213 H   0  0  0  0  0  0  0  0  0  0  0  0
   58.1430   31.1600   43.6590 C   0  0  0  0  0  0  0  0  0  0  0  0
   59.2421   31.1220   43.6377 H   0  0  0  0  0  0  0  0  0  0  0  0
   57.7206   31.2145   42.6448 H   0  0  0  0  0  0  0  0  0  0  0  0
   57.6300   29.9030   44.3000 N   0  0  1  0  0  0  0  0  0  0  0  0
   56.1980   29.7370   43.9050 C   0  0  0  0  0  0  0  0  0  0  0  0
   55.5745   29.6647   44.8083 H   0  0  0  0  0  0  0  0  0  0  0  0
   55.8794   30.6042   43.3080 H   0  0  0  0  0  0  0  0  0  0  0  0
   56.0863   28.8199   43.3080 H   0  0  0  0  0  0  0  0  0  0  0  0
   58.3310   28.6740   43.7670 C   0  0  0  0  0  0  0  0  0  0  0  0
   59.3232   28.9962   43.4180 H   0  0  0  0  0  0  0  0  0  0  0  0
   57.6388   28.2890   43.0037 H   0  0  0  0  0  0  0  0  0  0  0  0
   58.5540   27.4590   44.7090 C   0  0  0  0  0  0  0  0  0  0  0  0
   58.6318   26.5566   44.0849 H   0  0  0  0  0  0  0  0  0  0  0  0
   57.6963   27.4505   45.3977 H   0  0  0  0  0  0  0  0  0  0  0  0
   59.7690   27.5270   45.5710 C   0  0  0  0  0  0  0  0  0  0  0  0
   60.4860   28.5650   45.5730 O   0  0  0  0  0  0  0  0  0  0  0  0
   60.0670   26.4520   46.4130 O   0  0  0  0  0  0  0  0  0  0  0  0
   59.1200   25.8810   47.3070 C   0  0  0  0  0  0  0  0  0  0  0  0
   58.5166   26.6788   47.7646 H   0  0  0  0  0  0  0  0  0  0  0  0
   59.6434   25.3260   48.0995 H   0  0  0  0  0  0  0  0  0  0  0  0
   58.2730   24.9990   46.5800 O   0  0  0  0  0  0  0  0  0  0  0  0
   56.8820   25.0160   46.7060 C   0  0  0  0  0  0  0  0  0  0  0  0
   56.3230   24.5360   47.7330 O   0  0  0  0  0  0  0  0  0  0  0  0
   56.0540   25.5440   45.5810 C   0  0  0  0  0  0  0  0  0  0  0  0
   56.4041   25.1117   44.6320 H   0  0  0  0  0  0  0  0  0  0  0  0
   56.1456   26.6393   45.5370 H   0  0  0  0  0  0  0  0  0  0  0  0
   54.7040   25.1890   45.7920 O   0  0  0  0  0  0  0  0  0  0  0  0
   54.4280   23.9510   45.1740 C   0  0  0  0  0  0  0  0  0  0  0  0
   53.3842   23.9440   44.8270 H   0  0  0  0  0  0  0  0  0  0  0  0
   54.5893   23.1442   45.9041 H   0  0  0  0  0  0  0  0  0  0  0  0
   55.3610   23.7310   43.9750 C   0  0  0  0  0  0  0  0  0  0  0  0
   56.2043   24.4330   44.0523 H   0  0  0  0  0  0  0  0  0  0  0  0
   54.7721   23.9001   43.0614 H   0  0  0  0  0  0  0  0  0  0  0  0
   55.8990   22.3480   43.9110 N   0  0  0  0  0  0  0  0  0  0  0  0
   56.6010   22.1240   42.6340 C   0  0  0  0  0  0  0  0  0  0  0  0
   57.6313   21.7952   42.8348 H   0  0  0  0  0  0  0  0  0  0  0  0
   56.0747   21.3492   42.0572 H   0  0  0  0  0  0  0  0  0  0  0  0
   56.6207   23.0605   42.0572 H   0  0  0  0  0  0  0  0  0  0  0  0
   56.7330   21.9420   45.0690 C   0  0  0  0  0  0  0  0  0  0  0  0
   56.5704   20.8692   45.2495 H   0  0  0  0  0  0  0  0  0  0  0  0
   56.4218   22.5738   45.9140 H   0  0  0  0  0  0  0  0  0  0  0  0
   58.2420   22.1740   44.8840 C   0  0  0  0  0  0  0  0  0  0  0  0
   58.7251   22.2483   45.8695 H   0  0  0  0  0  0  0  0  0  0  0  0
   58.6766   21.3321   44.3251 H   0  0  0  0  0  0  0  0  0  0  0  0
   58.4036   23.1075   44.3251 H   0  0  0  0  0  0  0  0  0  0  0  0
   57.6700   29.9630   45.8090 C   0  0  0  0  0  0  0  0  0  0  0  0
   58.0168   28.9876   46.1808 H   0  0  0  0  0  0  0  0  0  0  0  0
   56.6502   30.2154   46.1351 H   0  0  0  0  0  0  0  0  0  0  0  0
   58.5900   31.0500   46.3890 C   0  0  0  0  0  0  0  0  0  0  0  0
   59.6313   30.7722   46.1686 H   0  0  0  0  0  0  0  0  0  0  0  0
   58.3762   31.0979   47.4670 H   0  0  0  0  0  0  0  0  0  0  0  0
   60.1940   32.5940   51.6270 C   0  0  0  0  0  0  0  0  0  0  0  0
   58.8040   32.3940   51.5120 C   0  0  0  0  0  0  0  0  0  0  0  0
   58.3290   31.3990   50.7320 N   0  0  0  0  0  0  0  0  0  0  0  0
   59.1300   30.5720   50.0270 C   0  0  0  0  0  0  0  0  0  0  0  0
   58.5250   29.5740   49.2550 C   0  0  0  0  0  0  0  0  0  0  0  0
   57.4279   29.5049   49.2149 H   0  0  0  0  0  0  0  0  0  0  0  0
   57.8050   33.1940   52.3060 C   0  0  0  0  0  0  0  0  0  0  0  0
   56.9305   33.3956   51.6700 H   0  0  0  0  0  0  0  0  0  0  0  0
   57.5353   32.6021   53.1931 H   0  0  0  0  0  0  0  0  0  0  0  0
   58.3710   34.5260   52.7950 C   0  0  0  0  0  0  0  0  0  0  0  0
   58.5005   35.2039   51.9384 H   0  0  0  0  0  0  0  0  0  0  0  0
   57.6738   34.9719   53.5196 H   0  0  0  0  0  0  0  0  0  0  0  0
   59.7190   34.3000   53.4690 C   0  0  0  0  0  0  0  0  0  0  0  0
   60.0894   35.2562   53.8672 H   0  0  0  0  0  0  0  0  0  0  0  0
   59.5913   33.5733   54.2848 H   0  0  0  0  0  0  0  0  0  0  0  0
   60.7340   33.7450   52.4660 C   0  0  0  0  0  0  0  0  0  0  0  0
   61.0343   34.5582   51.7888 H   0  0  0  0  0  0  0  0  0  0  0  0
   61.5807   33.3513   53.0476 H   0  0  0  0  0  0  0  0  0  0  0  0
  1  2  1  0
  2  3  2  0
  3  4  1  0
  3  5  1  0
  5  6  1  0
  5  7  2  0
  7  8  1  0
  8  9  2  0
  9 10  1  0
 10 11  1  0
 10 12  1  0
 10 13  1  0
 13 14  1  0
 13 15  1  0
 13 16  1  0
 16 17  1  0
 16 18  1  0
 16 19  1  0
 19 20  1  0
 19 21  1  0
 21 22  1  0
 21 23  1  0
 21 24  1  0
 24 25  1  0
 24 26  1  0
 24 27  1  0
 27 28  1  0
 27 29  1  0
 27 30  1  0
 30 31  1  0
 30 32  1  0
 30 33  1  0
 33 34  1  0
 33 35  1  0
 35 36  1  6
 35 37  1  0
 37 38  1  0
 37 39  1  0
 37 40  1  0
 40 41  1  0
 40 42  1  0
 40 43  1  0
 43 44  1  6
 44 45  1  0
 44 46  1  0
 44 47  1  0
 43 48  1  0
 48 49  1  0
 48 50  1  0
 48 51  1  0
 51 52  1  0
 51 53  1  0
 51 54  1  0
 54 55  2  0
 54 56  1  0
 56 57  1  0
 57 58  1  0
 57 59  1  0
 57 60  1  0
 60 61  1  0
 61 62  2  0
 61 63  1  0
 63 64  1  0
 63 65  1  0
 63 66  1  0
 66 67  1  0
 67 68  1  0
 67 69  1  0
 67 70  1  0
 70 71  1  0
 70 72  1  0
 70 73  1  0
 73 74  1  0
 74 75  1  0
 74 76  1  0
 74 77  1  0
 73 78  1  0
 78 79  1  0
 78 80  1  0
 78 81  1  0
 81 82  1  0
 81 83  1  0
 81 84  1  0
 43 85  1  0
 85 86  1  0
 85 87  1  0
 85 88  1  0
 88 89  1  0
 88 90  1  0
  8 91  1  0
 91 92  2  0
 92 93  1  0
 93 94  1  0
 94 95  2  0
 95 96  1  0
 92 97  1  0
 97 98  1  0
 97 99  1  0
 97100  1  0
100101  1  0
100102  1  0
100103  1  0
103104  1  0
103105  1  0
103106  1  0
106107  1  0
106108  1  0
 95  2  1  0
 94  7  1  0
 88 35  1  0
106 91  1  0
M  CHG  2  43   1  93  -1
M  END
>  <UniqueID>  (15) 
15

>  <SMILES>  (15) 
CCN(C)CCOCC(=O)OCOC(=O)CC[N+]1(C)CCC(NCCCCNCCC/N=c2/c3c([n-]c4ccccc24)CCCC3)CC1

>  <Energy>  (15) 
138.50108482743295

>  <Genealogy>  (15) 
CCN(C)CCOCC(=O)OCOC(=O)CC[N+]1(C)CCC(NCCCCNCCCN=c2c3c([n-]c4ccccc24)CCCC3)CC1 (protonated)
CCN(C)CCOCC(=O)OCOC(=O)CC[N+]1(C)CCC(NCCCCNCCC/N=c2/c3c([n-]c4ccccc24)CCCC3)CC1 (cis-trans isomerization)
CCN(C)CCOCC(=O)OCOC(=O)CC[N+]1(C)CCC(NCCCCNCCC/N=c2/c3c([n-]c4ccccc24)CCCC3)CC1 (3D coordinates assigned)
CCN(C)CCOCC(=O)OCOC(=O)CC[N+]1(C)CCC(NCCCCNCCC/N=c2/c3c([n-]c4ccccc24)CCCC3)CC1 (nonaromatic ring conformer: 138.50108482743295 kcal/mol)

>  <smiles>  (15) 
CCN(C)CCOCC(=O)OCOC(=O)CC[N+]1(C)CCC(NCCCCNCCCN=c2c3c([nH]c4ccccc24)CCCC3)CC1

>  <score_type>  (15) 
oracle

>  <origin>  (15) 
adg

>  <m_score__min__energy>  (15) 
-8

>  <m_primary>  (15) 
energy

$$$$
15:0
     RDKit          3D

 39 40  0  0  0  0  0  0  0  0999 V2000
   56.3670   29.7230   42.6840 C   0  0  0  0  0  0  0  0  0  0  0  0
   55.8630   30.2830   44.0110 C   0  0  0  0  0  0  0  0  0  0  0  0
   56.9930   30.6440   44.8780 N   0  0  0  0  0  0  0  0  0  0  0  0
   58.0560   31.3190   44.1210 C   0  0  0  0  0  0  0  0  0  0  0  0
   57.6170   32.7090   43.7480 C   0  0  0  0  0  0  0  0  0  0  0  0
   57.8900   33.8020   44.4820 C   0  0  0  0  0  0  0  0  0  0  0  0
   57.8630   33.8180   45.9900 C   0  0  0  0  0  0  0  0  0  0  0  0
   59.0930   33.2060   46.5330 N   0  0  0  0  0  0  0  0  0  0  0  0
   60.2760   33.8910   46.4740 C   0  0  0  0  0  0  0  0  0  0  0  0
   60.3160   35.0410   45.9490 O   0  0  0  0  0  0  0  0  0  0  0  0
   61.4450   33.3270   46.9970 C   0  0  0  0  0  0  0  0  0  0  0  0
   62.6770   34.0100   46.9310 C   0  0  0  0  0  0  0  0  0  0  0  0
   63.8330   33.4350   47.4550 C   0  0  0  0  0  0  0  0  0  0  0  0
   63.7770   32.1770   48.0490 C   0  0  0  0  0  0  0  0  0  0  0  0
   62.5650   31.4880   48.1250 C   0  0  0  0  0  0  0  0  0  0  0  0
   61.3740   32.0500   47.6010 C   0  0  0  0  0  0  0  0  0  0  0  0
   60.1650   31.3940   47.6700 N   0  0  0  0  0  0  0  0  0  0  0  0
   60.0730   30.0640   48.3090 C   0  0  0  0  0  0  0  0  0  0  0  0
   59.0340   31.9790   47.1470 C   0  0  0  0  0  0  0  0  0  0  0  0
   57.9200   31.3870   47.2350 O   0  0  0  0  0  0  0  0  0  0  0  0
   57.0914   28.9181   42.8772 H   0  0  0  0  0  0  0  0  0  0  0  0
   55.5189   29.3228   42.1091 H   0  0  0  0  0  0  0  0  0  0  0  0
   56.8540   30.5244   42.1091 H   0  0  0  0  0  0  0  0  0  0  0  0
   55.2538   31.1784   43.8183 H   0  0  0  0  0  0  0  0  0  0  0  0
   55.2581   29.5149   44.5152 H   0  0  0  0  0  0  0  0  0  0  0  0
   56.6430   31.3170   45.6010 H   0  0  0  0  0  0  0  0  0  0  0  0
   58.9636   31.3771   44.7398 H   0  0  0  0  0  0  0  0  0  0  0  0
   58.2660   30.7479   43.2046 H   0  0  0  0  0  0  0  0  0  0  0  0
   57.0392   32.8385   42.8210 H   0  0  0  0  0  0  0  0  0  0  0  0
   58.1464   34.7330   43.9553 H   0  0  0  0  0  0  0  0  0  0  0  0
   57.7905   34.8582   46.3403 H   0  0  0  0  0  0  0  0  0  0  0  0
   56.9935   33.2409   46.3377 H   0  0  0  0  0  0  0  0  0  0  0  0
   62.7258   35.0040   46.4624 H   0  0  0  0  0  0  0  0  0  0  0  0
   64.7898   33.9749   47.3994 H   0  0  0  0  0  0  0  0  0  0  0  0
   64.6913   31.7241   48.4601 H   0  0  0  0  0  0  0  0  0  0  0  0
   62.5340   30.4954   48.5980 H   0  0  0  0  0  0  0  0  0  0  0  0
   60.0811   30.1813   49.4027 H   0  0  0  0  0  0  0  0  0  0  0  0
   59.1387   29.5725   47.9999 H   0  0  0  0  0  0  0  0  0  0  0  0
   60.9307   29.4486   47.9999 H   0  0  0  0  0  0  0  0  0  0  0  0
  1  2  1  0
  2  3  1  0
  3  4  1  0
  4  5  1  0
  5  6  2  3
  6  7  1  0
  7  8  1  0
  8  9  1  0
  9 10  2  0
  9 11  1  0
 11 12  2  0
 12 13  1  0
 13 14  2  0
 14 15  1  0
 15 16  2  0
 16 17  1  0
 17 18  1  0
 17 19  1  0
 19 20  2  0
 19  8  1  0
 16 11  1  0
  1 21  1  0
  1 22  1  0
  1 23  1  0
  2 24  1  0
  2 25  1  0
  3 26  1  0
  4 27  1  0
  4 28  1  0
  5 29  1  0
  6 30  1  0
  7 31  1  0
  7 32  1  0
 12 33  1  0
 13 34  1  0
 14 35  1  0
 15 36  1  0
 18 37  1  0
 18 38  1  0
 18 39  1  0
M  END
>  <UniqueID>  (16) 
16

>  <SMILES>  (16) 
CCNCC=CCn1c(=O)c2ccccc2n(C)c1=O

>  <Energy>  (16) 
47.13007592468101

>  <Genealogy>  (16) 
CCNCC=CCn1c(=O)c2ccccc2n(C)c1=O (3D coordinates assigned)
CCNCC=CCn1c(=O)c2ccccc2n(C)c1=O (optimized conformer: 47.13007592468101 kcal/mol)

>  <smiles>  (16) 
CCNCC=CCn1c(=O)c2ccccc2n(C)c1=O

>  <score_type>  (16) 
oracle

>  <origin>  (16) 
adg

>  <m_score__min__energy>  (16) 
-6.3700000000000001

>  <m_primary>  (16) 
energy

$$$$
16:0
     RDKit          3D

 95 94  0  0  0  0  0  0  0  0999 V2000
   63.0000   34.2490   50.1630 C   0  0  0  0  0  0  0  0  0  0  0  0
   64.4510   33.8280   50.4230 C   0  0  0  0  0  0  0  0  0  0  0  0
   64.8860   32.6930   49.5700 N   0  0  1  0  0  0  0  0  0  0  0  0
   65.8880   31.8640   50.2730 C   0  0  0  0  0  0  0  0  0  0  0  0
   63.7340   31.8350   49.1850 C   0  0  0  0  0  0  0  0  0  0  0  0
   63.3470   31.9360   47.6970 C   0  0  0  0  0  0  0  0  0  0  0  0
   64.0470   32.9870   47.0540 O   0  0  0  0  0  0  0  0  0  0  0  0
   63.1590   33.8850   46.4120 C   0  0  0  0  0  0  0  0  0  0  0  0
   61.7670   33.8220   47.0530 C   0  0  0  0  0  0  0  0  0  0  0  0
   60.6700   33.6080   46.0000 C   0  0  0  0  0  0  0  0  0  0  0  0
   59.6170   34.7270   46.0570 C   0  0  0  0  0  0  0  0  0  0  0  0
   58.3930   34.4280   45.1730 C   0  0  0  0  0  0  0  0  0  0  0  0
   57.2220   33.8180   45.9520 C   0  0  0  0  0  0  0  0  0  0  0  0
   56.7380   32.6830   45.2630 O   0  0  0  0  0  0  0  0  0  0  0  0
   57.6110   32.3160   44.2110 C   0  0  0  0  0  0  0  0  0  0  0  0
   57.4410   30.8250   43.9020 C   0  0  0  0  0  0  0  0  0  0  0  0
   56.6270   30.1900   44.8720 O   0  0  0  0  0  0  0  0  0  0  0  0
   56.7520   28.7770   44.8250 C   0  0  0  0  0  0  0  0  0  0  0  0
   57.6870   28.3170   45.9490 C   0  0  0  0  0  0  0  0  0  0  0  0
   58.6930   27.2540   45.4810 C   0  0  0  0  0  0  0  0  0  0  0  0
   60.1410   27.6140   45.8630 C   0  0  0  0  0  0  0  0  0  0  0  0
   60.6060   28.9430   45.2480 C   0  0  0  0  0  0  0  0  0  0  0  0
   60.7520   30.0660   46.2860 C   0  0  0  0  0  0  0  0  0  0  0  0
   60.5180   29.5320   47.7070 C   0  0  0  0  0  0  0  0  0  0  0  0
   59.3460   30.2290   48.4220 C   0  0  0  0  0  0  0  0  0  0  0  0
   58.8840   31.5580   47.7880 C   0  0  0  0  0  0  0  0  0  0  0  0
   58.5710   32.6910   48.7850 C   0  0  0  0  0  0  0  0  0  0  0  0
   59.7260   32.9330   49.7890 C   0  0  0  0  0  0  0  0  0  0  0  0
   59.4160   32.5730   51.2110 N   0  0  0  0  0  0  0  0  0  0  0  0
   59.0290   33.8180   51.9260 C   0  0  0  0  0  0  0  0  0  0  0  0
   60.6350   32.0460   51.8780 C   0  0  0  0  0  0  0  0  0  0  0  0
   58.3290   31.5520   51.3480 C   0  0  0  0  0  0  0  0  0  0  0  0
   57.0640   32.0330   52.0770 C   0  0  0  0  0  0  0  0  0  0  0  0
   62.4840   34.3987   51.1229 H   0  0  0  0  0  0  0  0  0  0  0  0
   62.9877   35.1878   49.5898 H   0  0  0  0  0  0  0  0  0  0  0  0
   62.4871   33.4626   49.5898 H   0  0  0  0  0  0  0  0  0  0  0  0
   65.1070   34.6882   50.2236 H   0  0  0  0  0  0  0  0  0  0  0  0
   64.5157   33.4972   51.4701 H   0  0  0  0  0  0  0  0  0  0  0  0
   65.3400   33.0630   48.7030 H   0  0  0  0  0  0  0  0  0  0  0  0
   65.7565   31.9728   51.3597 H   0  0  0  0  0  0  0  0  0  0  0  0
   65.7540   30.8092   49.9912 H   0  0  0  0  0  0  0  0  0  0  0  0
   66.8990   32.1932   49.9912 H   0  0  0  0  0  0  0  0  0  0  0  0
   63.9933   30.7888   49.4047 H   0  0  0  0  0  0  0  0  0  0  0  0
   62.8674   32.1872   49.7638 H   0  0  0  0  0  0  0  0  0  0  0  0
   63.5895   30.9860   47.1982 H   0  0  0  0  0  0  0  0  0  0  0  0
   62.2691   32.1453   47.6316 H   0  0  0  0  0  0  0  0  0  0  0  0
   63.5523   34.9083   46.5025 H   0  0  0  0  0  0  0  0  0  0  0  0
   63.0737   33.6013   45.3526 H   0  0  0  0  0  0  0  0  0  0  0  0
   61.7414   32.9882   47.7700 H   0  0  0  0  0  0  0  0  0  0  0  0
   61.5769   34.7802   47.5586 H   0  0  0  0  0  0  0  0  0  0  0  0
   61.1293   33.5984   45.0005 H   0  0  0  0  0  0  0  0  0  0  0  0
   60.1710   32.6499   46.2074 H   0  0  0  0  0  0  0  0  0  0  0  0
   59.2809   34.8428   47.0980 H   0  0  0  0  0  0  0  0  0  0  0  0
   60.0859   35.6477   45.6795 H   0  0  0  0  0  0  0  0  0  0  0  0
   58.0553   35.3685   44.7132 H   0  0  0  0  0  0  0  0  0  0  0  0
   58.7054   33.6897   44.4198 H   0  0  0  0  0  0  0  0  0  0  0  0
   57.5638   33.5203   46.9543 H   0  0  0  0  0  0  0  0  0  0  0  0
   56.4166   34.5615   46.0450 H   0  0  0  0  0  0  0  0  0  0  0  0
   57.3721   32.9058   43.3138 H   0  0  0  0  0  0  0  0  0  0  0  0
   58.6506   32.5115   44.5126 H   0  0  0  0  0  0  0  0  0  0  0  0
   56.9726   30.7148   42.9129 H   0  0  0  0  0  0  0  0  0  0  0  0
   58.4336   30.3511   43.9163 H   0  0  0  0  0  0  0  0  0  0  0  0
   55.7624   28.3153   44.9574 H   0  0  0  0  0  0  0  0  0  0  0  0
   57.1664   28.4744   43.8520 H   0  0  0  0  0  0  0  0  0  0  0  0
   58.2438   29.1887   46.3234 H   0  0  0  0  0  0  0  0  0  0  0  0
   57.0656   27.8648   46.7360 H   0  0  0  0  0  0  0  0  0  0  0  0
   58.4330   26.2915   45.9458 H   0  0  0  0  0  0  0  0  0  0  0  0
   58.6378   27.1971   44.3839 H   0  0  0  0  0  0  0  0  0  0  0  0
   60.2066   27.6916   46.9583 H   0  0  0  0  0  0  0  0  0  0  0  0
   60.7941   26.8208   45.4703 H   0  0  0  0  0  0  0  0  0  0  0  0
   61.5812   28.7834   44.7647 H   0  0  0  0  0  0  0  0  0  0  0  0
   59.8374   29.2589   44.5273 H   0  0  0  0  0  0  0  0  0  0  0  0
   61.7665   30.4864   46.2216 H   0  0  0  0  0  0  0  0  0  0  0  0
   60.0010   30.8411   46.0735 H   0  0  0  0  0  0  0  0  0  0  0  0
   60.3021   28.4551   47.6464 H   0  0  0  0  0  0  0  0  0  0  0  0
   61.4285   29.7340   48.2903 H   0  0  0  0  0  0  0  0  0  0  0  0
   58.4901   29.5380   48.4247 H   0  0  0  0  0  0  0  0  0  0  0  0
   59.7107   30.4823   49.4284 H   0  0  0  0  0  0  0  0  0  0  0  0
   59.6805   31.9082   47.1150 H   0  0  0  0  0  0  0  0  0  0  0  0
   57.9374   31.3361   47.2735 H   0  0  0  0  0  0  0  0  0  0  0  0
   58.3937   33.6185   48.2208 H   0  0  0  0  0  0  0  0  0  0  0  0
   57.6832   32.3930   49.3620 H   0  0  0  0  0  0  0  0  0  0  0  0
   60.5900   32.3337   49.4660 H   0  0  0  0  0  0  0  0  0  0  0  0
   59.9179   34.0161   49.7812 H   0  0  0  0  0  0  0  0  0  0  0  0
   59.0816   33.6488   53.0116 H   0  0  0  0  0  0  0  0  0  0  0  0
   59.7172   34.6297   51.6476 H   0  0  0  0  0  0  0  0  0  0  0  0
   58.0019   34.0965   51.6476 H   0  0  0  0  0  0  0  0  0  0  0  0
   60.5085   32.1007   52.9693 H   0  0  0  0  0  0  0  0  0  0  0  0
   60.7930   30.9992   51.5792 H   0  0  0  0  0  0  0  0  0  0  0  0
   61.5058   32.6480   51.5792 H   0  0  0  0  0  0  0  0  0  0  0  0
   58.0370   31.2289   50.3379 H   0  0  0  0  0  0  0  0  0  0  0  0
   58.7472   30.7435   51.9657 H   0  0  0  0  0  0  0  0  0  0  0  0
   57.2220   31.9729   53.1639 H   0  0  0  0  0  0  0  0  0  0  0  0
   56.8516   33.0746   51.7944 H   0  0  0  0  0  0  0  0  0  0  0  0
   56.2132   31.3956   51.7944 H   0  0  0  0  0  0  0  0  0  0  0  0
  1  2  1  0
  2  3  1  0
  3  4  1  0
  3  5  1  0
  5  6  1  0
  6  7  1  0
  7  8  1  0
  8  9  1  0
  9 10  1  0
 10 11  1  0
 11 12  1  0
 12 13  1  0
 13 14  1  0
 14 15  1  0
 15 16  1  0
 16 17  1  0
 17 18  1  0
 18 19  1  0
 19 20  1  0
 20 21  1  0
 21 22  1  0
 22 23  1  0
 23 24  1  0
 24 25  1  0
 25 26  1  0
 26 27  1  0
 27 28  1  0
 28 29  1  0
 29 30  1  0
 29 31  1  0
 29 32  1  0
 32 33  1  0
  1 34  1  0
  1 35  1  0
  1 36  1  0
  2 37  1  0
  2 38  1  0
  3 39  1  6
  4 40  1  0
  4 41  1  0
  4 42  1  0
  5 43  1  0
  5 44  1  0
  6 45  1  0
  6 46  1  0
  8 47  1  0
  8 48  1  0
  9 49  1  0
  9 50  1  0
 10 51  1  0
 10 52  1  0
 11 53  1  0
 11 54  1  0
 12 55  1  0
 12 56  1  0
 13 57  1  0
 13 58  1  0
 15 59  1  0
 15 60  1  0
 16 61  1  0
 16 62  1  0
 18 63  1  0
 18 64  1  0
 19 65  1  0
 19 66  1  0
 20 67  1  0
 20 68  1  0
 21 69  1  0
 21 70  1  0
 22 71  1  0
 22 72  1  0
 23 73  1  0
 23 74  1  0
 24 75  1  0
 24 76  1  0
 25 77  1  0
 25 78  1  0
 26 79  1  0
 26 80  1  0
 27 81  1  0
 27 82  1  0
 28 83  1  0
 28 84  1  0
 30 85  1  0
 30 86  1  0
 30 87  1  0
 31 88  1  0
 31 89  1  0
 31 90  1  0
 32 91  1  0
 32 92  1  0
 33 93  1  0
 33 94  1  0
 33 95  1  0
M  CHG  2   3   1  29   1
M  END
>  <UniqueID>  (17) 
17

>  <SMILES>  (17) 
CC[N@@H+](C)CCOCCCCCCOCCOCCCCCCCCCCC[N+](C)(C)CC

>  <Energy>  (17) 
81.51719944534673

>  <Genealogy>  (17) 
CC[NH+](C)CCOCCCCCCOCCOCCCCCCCCCCC[N+](C)(C)CC (protonated)
CC[N@@H+](C)CCOCCCCCCOCCOCCCCCCCCCCC[N+](C)(C)CC (chirality)
CC[N@@H+](C)CCOCCCCCCOCCOCCCCCCCCCCC[N+](C)(C)CC (3D coordinates assigned)
CC[N@@H+](C)CCOCCCCCCOCCOCCCCCCCCCCC[N+](C)(C)CC (optimized conformer: 81.51719944534673 kcal/mol)

>  <smiles>  (17) 
CCN(C)CCOCCCCCCOCCOCCCCCCCCCCC[N+](C)(C)CC

>  <score_type>  (17) 
oracle

>  <origin>  (17) 
adg

>  <m_score__min__energy>  (17) 
-4.3499999999999996

>  <m_primary>  (17) 
energy

$$$$
17:0
     RDKit          3D

 31 31  0  0  0  0  0  0  0  0999 V2000
   55.6720   23.8560   46.3930 C   0  0  0  0  0  0  0  0  0  0  0  0
   54.9040   24.9090   45.6100 C   0  0  0  0  0  0  0  0  0  0  0  0
   55.1780   26.1960   46.1490 O   0  0  0  0  0  0  0  0  0  0  0  0
   56.4690   26.7220   46.2320 C   0  0  0  0  0  0  0  0  0  0  0  0
   57.2570   26.3580   47.1470 O   0  0  0  0  0  0  0  0  0  0  0  0
   56.9010   27.7660   45.2530 C   0  0  0  0  0  0  0  0  0  0  0  0
   55.8350   28.7390   45.0500 N   0  0  0  0  0  0  0  0  0  0  0  0
   56.0010   29.9290   44.2760 C   0  0  0  0  0  0  0  0  0  0  0  0
   55.6720   29.9240   43.0590 O   0  0  0  0  0  0  0  0  0  0  0  0
   56.5300   31.0830   44.8670 O   0  0  0  0  0  0  0  0  0  0  0  0
   57.4260   31.9680   44.2000 C   0  0  0  0  0  0  0  0  0  0  0  0
   58.0390   32.9290   45.1820 C   0  0  0  0  0  0  0  0  0  0  0  0
   57.9420   32.7020   46.5640 C   0  0  0  0  0  0  0  0  0  0  0  0
   58.5320   33.5930   47.4670 C   0  0  0  0  0  0  0  0  0  0  0  0
   59.2210   34.7130   46.9960 C   0  0  0  0  0  0  0  0  0  0  0  0
   59.3260   34.9420   45.6210 C   0  0  0  0  0  0  0  0  0  0  0  0
   58.7380   34.0540   44.7160 C   0  0  0  0  0  0  0  0  0  0  0  0
   55.5425   24.0336   47.4708 H   0  0  0  0  0  0  0  0  0  0  0  0
   55.2889   22.8571   46.1373 H   0  0  0  0  0  0  0  0  0  0  0  0
   56.7402   23.9156   46.1373 H   0  0  0  0  0  0  0  0  0  0  0  0
   55.2143   24.8799   44.5551 H   0  0  0  0  0  0  0  0  0  0  0  0
   53.8256   24.7042   45.6815 H   0  0  0  0  0  0  0  0  0  0  0  0
   57.7930   28.2801   45.6403 H   0  0  0  0  0  0  0  0  0  0  0  0
   57.1328   27.2827   44.2925 H   0  0  0  0  0  0  0  0  0  0  0  0
   58.2235   31.3825   43.7193 H   0  0  0  0  0  0  0  0  0  0  0  0
   56.8680   32.5380   43.4426 H   0  0  0  0  0  0  0  0  0  0  0  0
   57.4003   31.8207   46.9381 H   0  0  0  0  0  0  0  0  0  0  0  0
   58.4532   33.4113   48.5490 H   0  0  0  0  0  0  0  0  0  0  0  0
   59.6810   35.4149   47.7071 H   0  0  0  0  0  0  0  0  0  0  0  0
   59.8721   35.8222   45.2508 H   0  0  0  0  0  0  0  0  0  0  0  0
   58.8231   34.2371   43.6347 H   0  0  0  0  0  0  0  0  0  0  0  0
  1  2  1  0
  2  3  1  0
  3  4  1  0
  4  5  2  0
  4  6  1  0
  6  7  1  0
  7  8  1  0
  8  9  2  0
  8 10  1  0
 10 11  1  0
 11 12  1  0
 12 13  2  0
 13 14  1  0
 14 15  2  0
 15 16  1  0
 16 17  2  0
 17 12  1  0
  1 18  1  0
  1 19  1  0
  1 20  1  0
  2 21  1  0
  2 22  1  0
  6 23  1  0
  6 24  1  0
 11 25  1  0
 11 26  1  0
 13 27  1  0
 14 28  1  0
 15 29  1  0
 16 30  1  0
 17 31  1  0
M  CHG  1   7  -1
M  END
>  <UniqueID>  (18) 
18

>  <SMILES>  (18) 
CCOC(=O)C[N-]C(=O)OCc1ccccc1

>  <Energy>  (18) 
17.630066867714458

>  <Genealogy>  (18) 
CCOC(=O)C[N-]C(=O)OCc1ccccc1 (protonated)
CCOC(=O)C[N-]C(=O)OCc1ccccc1 (3D coordinates assigned)
CCOC(=O)C[N-]C(=O)OCc1ccccc1 (optimized conformer: 17.630066867714458 kcal/mol)

>  <smiles>  (18) 
CCOC(=O)CNC(=O)OCc1ccccc1

>  <score_type>  (18) 
oracle

>  <origin>  (18) 
adg

>  <m_score__min__energy>  (18) 
-8.6199999999999992

>  <m_primary>  (18) 
energy

$$$$
18:0
     RDKit          3D

 46 45  0  0  0  0  0  0  0  0999 V2000
   57.7940   31.8640   44.5070 C   0  0  0  0  0  0  0  0  0  0  0  0
   57.7520   30.7620   45.5580 C   0  0  0  0  0  0  0  0  0  0  0  0
   56.7380   29.7650   45.1980 N   0  0  0  0  0  0  0  0  0  0  0  0
   56.5210   29.7520   43.7470 C   0  0  0  0  0  0  0  0  0  0  0  0
   57.2860   28.5920   43.0890 C   0  0  0  0  0  0  0  0  0  0  0  0
   58.5850   28.2310   43.8240 C   0  0  0  0  0  0  0  0  0  0  0  0
   58.3750   27.2230   44.8980 N   0  0  0  0  0  0  0  0  0  0  0  0
   57.7970   25.9530   44.3690 C   0  0  0  0  0  0  0  0  0  0  0  0
   57.0310   25.1680   45.4470 C   0  0  0  0  0  0  0  0  0  0  0  0
   55.8110   25.9260   45.9770 C   0  0  0  0  0  0  0  0  0  0  0  0
   55.9050   27.3370   45.6220 N   0  0  0  0  0  0  0  0  0  0  0  0
   59.6520   26.9660   45.6160 C   0  0  0  0  0  0  0  0  0  0  0  0
   60.4150   28.2720   45.8650 C   0  0  0  0  0  0  0  0  0  0  0  0
   60.1150   28.8430   47.2610 C   0  0  0  0  0  0  0  0  0  0  0  0
   59.0940   27.9920   48.0230 C   0  0  0  0  0  0  0  0  0  0  0  0
   57.7970   28.0060   47.3550 N   0  0  0  0  0  0  0  0  0  0  0  0
   57.8314   32.8442   45.0048 H   0  0  0  0  0  0  0  0  0  0  0  0
   58.6880   31.7376   43.8787 H   0  0  0  0  0  0  0  0  0  0  0  0
   56.8930   31.8060   43.8787 H   0  0  0  0  0  0  0  0  0  0  0  0
   58.7370   30.2756   45.6157 H   0  0  0  0  0  0  0  0  0  0  0  0
   57.4961   31.2020   46.5331 H   0  0  0  0  0  0  0  0  0  0  0  0
   57.1000   28.8220   45.4780 H   0  0  0  0  0  0  0  0  0  0  0  0
   55.4461   29.6355   43.5445 H   0  0  0  0  0  0  0  0  0  0  0  0
   56.8901   30.6996   43.3276 H   0  0  0  0  0  0  0  0  0  0  0  0
   56.6340   27.7061   43.0755 H   0  0  0  0  0  0  0  0  0  0  0  0
   57.5630   28.9162   42.0750 H   0  0  0  0  0  0  0  0  0  0  0  0
   59.3009   27.8243   43.0946 H   0  0  0  0  0  0  0  0  0  0  0  0
   58.9647   29.1480   44.2982 H   0  0  0  0  0  0  0  0  0  0  0  0
   57.1055   26.1938   43.5481 H   0  0  0  0  0  0  0  0  0  0  0  0
   58.6291   25.3233   44.0210 H   0  0  0  0  0  0  0  0  0  0  0  0
   56.6922   24.2152   45.0141 H   0  0  0  0  0  0  0  0  0  0  0  0
   57.7167   25.0105   46.2926 H   0  0  0  0  0  0  0  0  0  0  0  0
   54.8979   25.4998   45.5358 H   0  0  0  0  0  0  0  0  0  0  0  0
   55.7764   25.8318   47.0724 H   0  0  0  0  0  0  0  0  0  0  0  0
   56.6640   27.7620   46.2030 H   0  0  0  0  0  0  0  0  0  0  0  0
   56.2210   27.4040   44.6280 H   0  0  0  0  0  0  0  0  0  0  0  0
   59.4316   26.4884   46.5821 H   0  0  0  0  0  0  0  0  0  0  0  0
   60.2771   26.3081   44.9944 H   0  0  0  0  0  0  0  0  0  0  0  0
   61.4944   28.0764   45.7833 H   0  0  0  0  0  0  0  0  0  0  0  0
   60.0924   29.0085   45.1144 H   0  0  0  0  0  0  0  0  0  0  0  0
   61.0503   28.8774   47.8389 H   0  0  0  0  0  0  0  0  0  0  0  0
   59.6893   29.8490   47.1318 H   0  0  0  0  0  0  0  0  0  0  0  0
   59.4590   26.9558   48.0775 H   0  0  0  0  0  0  0  0  0  0  0  0
   58.9722   28.4121   49.0323 H   0  0  0  0  0  0  0  0  0  0  0  0
   57.8790   28.6310   46.5190 H   0  0  0  0  0  0  0  0  0  0  0  0
   57.6090   27.0440   46.9870 H   0  0  0  0  0  0  0  0  0  0  0  0
  1  2  1  0
  2  3  1  0
  3  4  1  0
  4  5  1  0
  5  6  1  0
  6  7  1  0
  7  8  1  0
  8  9  1  0
  9 10  1  0
 10 11  1  0
  7 12  1  0
 12 13  1  0
 13 14  1  0
 14 15  1  0
 15 16  1  0
  1 17  1  0
  1 18  1  0
  1 19  1  0
  2 20  1  0
  2 21  1  0
  3 22  1  0
  4 23  1  0
  4 24  1  0
  5 25  1  0
  5 26  1  0
  6 27  1  0
  6 28  1  0
  8 29  1  0
  8 30  1  0
  9 31  1  0
  9 32  1  0
 10 33  1  0
 10 34  1  0
 11 35  1  0
 11 36  1  0
 12 37  1  0
 12 38  1  0
 13 39  1  0
 13 40  1  0
 14 41  1  0
 14 42  1  0
 15 43  1  0
 15 44  1  0
 16 45  1  0
 16 46  1  0
M  END
>  <UniqueID>  (19) 
19

>  <SMILES>  (19) 
CCNCCCN(CCCN)CCCCN

>  <Energy>  (19) 
23.98550603118373

>  <Genealogy>  (19) 
CCNCCCN(CCCN)CCCCN (3D coordinates assigned)
CCNCCCN(CCCN)CCCCN (optimized conformer: 23.98550603118373 kcal/mol)

>  <smiles>  (19) 
CCNCCCN(CCCN)CCCCN

>  <score_type>  (19) 
oracle

>  <origin>  (19) 
adg

>  <m_score__min__energy>  (19) 
-3.4500000000000002

>  <m_primary>  (19) 
energy

$$$$
19:0
     RDKit          3D

 71 74  0  0  0  0  0  0  0  0999 V2000
   66.1710   32.7120   50.0840 C   0  0  0  0  0  0  0  0  0  0  0  0
   64.9490   31.7880   50.1550 C   0  0  0  0  0  0  0  0  0  0  0  0
   63.8430   32.3710   50.9330 N   0  0  0  0  0  0  0  0  0  0  0  0
   63.9940   33.8220   51.1100 C   0  0  0  0  0  0  0  0  0  0  0  0
   62.7970   34.5710   50.5070 C   0  0  0  0  0  0  0  0  0  0  0  0
   62.7190   34.4160   48.9820 C   0  0  0  0  0  0  0  0  0  0  0  0
   62.1490   33.1070   48.6330 N   0  0  0  0  0  0  0  0  0  0  0  0
   62.9330   32.4430   47.5790 C   0  0  0  0  0  0  0  0  0  0  0  0
   62.2440   31.1610   47.1220 C   0  0  0  0  0  0  0  0  0  0  0  0
   60.8400   31.1500   47.5330 N   0  0  0  0  0  0  0  0  0  0  0  0
   59.7670   31.0550   46.5820 C   0  0  0  0  0  0  0  0  0  0  0  0
   59.2650   32.2450   46.0090 C   0  0  0  0  0  0  0  0  0  0  0  0
   59.7020   33.5130   46.4570 C   0  0  0  0  0  0  0  0  0  0  0  0
   59.2140   34.6850   45.8840 C   0  0  0  0  0  0  0  0  0  0  0  0
   58.2640   34.6200   44.8730 C   0  0  0  0  0  0  0  0  0  0  0  0
   57.7900   33.3840   44.4380 C   0  0  0  0  0  0  0  0  0  0  0  0
   58.2820   32.1730   44.9920 C   0  0  0  0  0  0  0  0  0  0  0  0
   57.7890   30.9480   44.6010 N   0  0  0  0  0  0  0  0  0  0  0  0
   56.9790   30.8350   43.3660 C   0  0  0  0  0  0  0  0  0  0  0  0
   58.0320   29.8300   45.3730 C   0  0  0  0  0  0  0  0  0  0  0  0
   57.2040   28.6900   45.2570 C   0  0  0  0  0  0  0  0  0  0  0  0
   57.4200   27.5630   46.0340 C   0  0  0  0  0  0  0  0  0  0  0  0
   58.5010   27.5100   46.8930 C   0  0  0  0  0  0  0  0  0  0  0  0
   59.4040   28.5820   46.9980 C   0  0  0  0  0  0  0  0  0  0  0  0
   60.5880   28.3950   47.8020 N   0  0  0  0  0  0  0  0  0  0  0  0
   60.7530   27.3560   48.8330 C   0  0  0  0  0  0  0  0  0  0  0  0
   60.5130   27.8340   50.2790 C   0  0  0  0  0  0  0  0  0  0  0  0
   60.1730   29.2940   50.3880 C   0  0  0  0  0  0  0  0  0  0  0  0
   58.8670   29.7480   50.1390 C   0  0  0  0  0  0  0  0  0  0  0  0
   58.5960   31.1180   50.1250 C   0  0  0  0  0  0  0  0  0  0  0  0
   59.6310   32.0240   50.3670 C   0  0  0  0  0  0  0  0  0  0  0  0
   60.8880   31.5700   50.6210 N   0  0  0  0  0  0  0  0  0  0  0  0
   61.1780   30.2410   50.6400 C   0  0  0  0  0  0  0  0  0  0  0  0
   59.0980   29.8200   46.3290 C   0  0  0  0  0  0  0  0  0  0  0  0
   66.5014   32.9619   51.1030 H   0  0  0  0  0  0  0  0  0  0  0  0
   66.9857   32.2020   49.5490 H   0  0  0  0  0  0  0  0  0  0  0  0
   65.9023   33.6348   49.5490 H   0  0  0  0  0  0  0  0  0  0  0  0
   64.5953   31.5923   49.1320 H   0  0  0  0  0  0  0  0  0  0  0  0
   65.2603   30.8620   50.6606 H   0  0  0  0  0  0  0  0  0  0  0  0
   62.9460   32.1740   50.4330 H   0  0  0  0  0  0  0  0  0  0  0  0
   64.0582   34.0497   52.1842 H   0  0  0  0  0  0  0  0  0  0  0  0
   64.9099   34.1472   50.5949 H   0  0  0  0  0  0  0  0  0  0  0  0
   61.8719   34.1740   50.9504 H   0  0  0  0  0  0  0  0  0  0  0  0
   62.9234   35.6408   50.7298 H   0  0  0  0  0  0  0  0  0  0  0  0
   62.0821   35.2116   48.5681 H   0  0  0  0  0  0  0  0  0  0  0  0
   63.7328   34.4894   48.5616 H   0  0  0  0  0  0  0  0  0  0  0  0
   62.1970   32.5020   49.4880 H   0  0  0  0  0  0  0  0  0  0  0  0
   63.0346   33.1240   46.7211 H   0  0  0  0  0  0  0  0  0  0  0  0
   63.9239   32.1877   47.9827 H   0  0  0  0  0  0  0  0  0  0  0  0
   62.2992   31.0933   46.0255 H   0  0  0  0  0  0  0  0  0  0  0  0
   62.7533   30.3030   47.5851 H   0  0  0  0  0  0  0  0  0  0  0  0
   60.6060   31.5070   48.4870 H   0  0  0  0  0  0  0  0  0  0  0  0
   60.4392   33.5748   47.2711 H   0  0  0  0  0  0  0  0  0  0  0  0
   59.5809   35.6618   46.2321 H   0  0  0  0  0  0  0  0  0  0  0  0
   57.8852   35.5456   44.4150 H   0  0  0  0  0  0  0  0  0  0  0  0
   57.0215   33.3459   43.6519 H   0  0  0  0  0  0  0  0  0  0  0  0
   55.9221   30.6876   43.6329 H   0  0  0  0  0  0  0  0  0  0  0  0
   57.0826   31.7563   42.7740 H   0  0  0  0  0  0  0  0  0  0  0  0
   57.3308   29.9772   42.7740 H   0  0  0  0  0  0  0  0  0  0  0  0
   56.3728   28.6977   44.5366 H   0  0  0  0  0  0  0  0  0  0  0  0
   56.7297   26.7092   45.9668 H   0  0  0  0  0  0  0  0  0  0  0  0
   58.6580   26.6109   47.5069 H   0  0  0  0  0  0  0  0  0  0  0  0
   61.1500   29.2460   48.0060 H   0  0  0  0  0  0  0  0  0  0  0  0
   60.0413   26.5452   48.6183 H   0  0  0  0  0  0  0  0  0  0  0  0
   61.8043   27.0361   48.7838 H   0  0  0  0  0  0  0  0  0  0  0  0
   59.6815   27.2519   50.7029 H   0  0  0  0  0  0  0  0  0  0  0  0
   61.4553   27.6833   50.8262 H   0  0  0  0  0  0  0  0  0  0  0  0
   58.0586   29.0250   49.9552 H   0  0  0  0  0  0  0  0  0  0  0  0
   57.5767   31.4802   49.9252 H   0  0  0  0  0  0  0  0  0  0  0  0
   59.4297   33.1053   50.3522 H   0  0  0  0  0  0  0  0  0  0  0  0
   62.2041   29.9072   50.8537 H   0  0  0  0  0  0  0  0  0  0  0  0
  1  2  1  0
  2  3  1  0
  3  4  1  0
  4  5  1  0
  5  6  1  0
  6  7  1  0
  7  8  1  0
  8  9  1  0
  9 10  1  0
 10 11  1  0
 11 12  2  0
 12 13  1  0
 13 14  2  0
 14 15  1  0
 15 16  2  0
 16 17  1  0
 17 18  2  0
 18 19  1  0
 18 20  1  0
 20 21  2  0
 21 22  1  0
 22 23  2  0
 23 24  1  0
 24 25  1  0
 25 26  1  0
 26 27  1  0
 27 28  1  0
 28 29  2  0
 29 30  1  0
 30 31  2  0
 31 32  1  0
 32 33  2  0
 24 34  2  0
 34 11  1  0
 17 12  1  0
 34 20  1  0
 33 28  1  0
  1 35  1  0
  1 36  1  0
  1 37  1  0
  2 38  1  0
  2 39  1  0
  3 40  1  0
  4 41  1  0
  4 42  1  0
  5 43  1  0
  5 44  1  0
  6 45  1  0
  6 46  1  0
  7 47  1  0
  8 48  1  0
  8 49  1  0
  9 50  1  0
  9 51  1  0
 10 52  1  0
 13 53  1  0
 14 54  1  0
 15 55  1  0
 16 56  1  0
 19 57  1  0
 19 58  1  0
 19 59  1  0
 21 60  1  0
 22 61  1  0
 23 62  1  0
 25 63  1  0
 26 64  1  0
 26 65  1  0
 27 66  1  0
 27 67  1  0
 29 68  1  0
 30 69  1  0
 31 70  1  0
 33 71  1  0
M  CHG  1  18   1
M  END
>  <UniqueID>  (20) 
20

>  <SMILES>  (20) 
CCNCCCNCCNc1c2ccccc2[n+](C)c2cccc(NCCc3cccnc3)c12

>  <Energy>  (20) 
103.17366790514922

>  <Genealogy>  (20) 
CCNCCCNCCNc1c2ccccc2[n+](C)c2cccc(NCCc3cccnc3)c12 (3D coordinates assigned)
CCNCCCNCCNc1c2ccccc2[n+](C)c2cccc(NCCc3cccnc3)c12 (optimized conformer: 103.17366790514922 kcal/mol)

>  <smiles>  (20) 
CCNCCCNCCNc1c2ccccc2[n+](C)c2cccc(NCCc3cccnc3)c12

>  <score_type>  (20) 
oracle

>  <origin>  (20) 
adg

>  <m_score__min__energy>  (20) 
-5.4500000000000002

>  <m_primary>  (20) 
energy

$$$$
20:0
     RDKit          3D

 56 60  0  0  0  0  0  0  0  0999 V2000
   62.9060   34.5880   49.2870 C   0  0  0  0  0  0  0  0  0  0  0  0
   61.6500   33.7850   49.3720 C   0  0  0  0  0  0  0  0  0  0  0  0
   60.8080   33.5040   50.7980 S   0  0  0  0  0  0  0  0  0  0  0  0
   59.6520   32.4900   50.1210 C   0  0  0  0  0  0  0  0  0  0  0  0
   59.9120   32.3290   48.7590 C   0  0  0  0  0  0  0  0  0  0  0  0
   61.0650   33.0390   48.3420 C   0  0  0  0  0  0  0  0  0  0  0  0
   61.6340   32.9920   46.9520 C   0  0  0  0  0  0  0  0  0  0  0  0
   59.0280   31.5510   47.8430 C   0  0  0  0  0  0  0  0  0  0  0  0
   58.6020   32.1560   46.5520 C   0  0  0  0  0  0  0  0  0  0  0  0
   58.1400   33.4860   46.5410 C   0  0  0  0  0  0  0  0  0  0  0  0
   57.7310   34.0890   45.3510 C   0  0  0  0  0  0  0  0  0  0  0  0
   57.7670   33.3740   44.1550 C   0  0  0  0  0  0  0  0  0  0  0  0
   58.2120   32.0540   44.1470 C   0  0  0  0  0  0  0  0  0  0  0  0
   58.6310   31.4360   45.3340 C   0  0  0  0  0  0  0  0  0  0  0  0
   59.2290   29.7850   45.2260 Cl  0  0  0  0  0  0  0  0  0  0  0  0
   58.5120   30.4030   48.1890 N   0  0  0  0  0  0  0  0  0  0  0  0
   58.7030   29.6630   49.4400 C   0  0  1  0  0  0  0  0  0  0  0  0
   60.1570   29.1710   49.6300 C   0  0  0  0  0  0  0  0  0  0  0  0
   60.5130   27.9400   48.7820 C   0  0  0  0  0  0  0  0  0  0  0  0
   59.4020   27.5620   47.9050 N   0  0  0  0  0  0  0  0  0  0  0  0
   59.8740   26.7180   46.8010 C   0  0  0  0  0  0  0  0  0  0  0  0
   58.6710   26.2600   45.9700 C   0  0  0  0  0  0  0  0  0  0  0  0
   57.5040   25.6950   46.7650 C   0  0  0  0  0  0  0  0  0  0  0  0
   57.4050   27.0840   46.1530 C   0  0  0  0  0  0  0  0  0  0  0  0
   58.2490   30.4950   50.6050 C   0  0  0  0  0  0  0  0  0  0  0  0
   57.3990   30.0590   51.5550 N   0  0  0  0  0  0  0  0  0  0  0  0
   57.2670   31.0420   52.4380 N   0  0  0  0  0  0  0  0  0  0  0  0
   58.0430   32.0600   52.0160 C   0  0  0  0  0  0  0  0  0  0  0  0
   58.1730   33.3520   52.7580 C   0  0  0  0  0  0  0  0  0  0  0  0
   58.6780   31.7450   50.8660 N   0  0  0  0  0  0  0  0  0  0  0  0
   63.2642   34.8170   50.3015 H   0  0  0  0  0  0  0  0  0  0  0  0
   63.6733   34.0126   48.7484 H   0  0  0  0  0  0  0  0  0  0  0  0
   62.7058   35.5260   48.7484 H   0  0  0  0  0  0  0  0  0  0  0  0
   62.7289   32.9016   47.0069 H   0  0  0  0  0  0  0  0  0  0  0  0
   61.2209   32.1249   46.4158 H   0  0  0  0  0  0  0  0  0  0  0  0
   61.3687   33.9151   46.4158 H   0  0  0  0  0  0  0  0  0  0  0  0
   58.1011   34.0560   47.4810 H   0  0  0  0  0  0  0  0  0  0  0  0
   57.3793   35.1312   45.3567 H   0  0  0  0  0  0  0  0  0  0  0  0
   57.4443   33.8517   43.2182 H   0  0  0  0  0  0  0  0  0  0  0  0
   58.2349   31.4918   43.2018 H   0  0  0  0  0  0  0  0  0  0  0  0
   58.0820   28.7567   49.3847 H   0  0  0  0  0  0  0  0  0  0  0  0
   60.8384   29.9897   49.3554 H   0  0  0  0  0  0  0  0  0  0  0  0
   60.2584   28.8731   50.6840 H   0  0  0  0  0  0  0  0  0  0  0  0
   61.3941   28.1715   48.1655 H   0  0  0  0  0  0  0  0  0  0  0  0
   60.7239   27.0993   49.4594 H   0  0  0  0  0  0  0  0  0  0  0  0
   59.0100   28.4310   47.4760 H   0  0  0  0  0  0  0  0  0  0  0  0
   60.5628   27.2940   46.1655 H   0  0  0  0  0  0  0  0  0  0  0  0
   60.4011   25.8409   47.2044 H   0  0  0  0  0  0  0  0  0  0  0  0
   59.2631   25.9189   45.1080 H   0  0  0  0  0  0  0  0  0  0  0  0
   56.9066   24.8685   46.3527 H   0  0  0  0  0  0  0  0  0  0  0  0
   57.3802   25.2801   47.7762 H   0  0  0  0  0  0  0  0  0  0  0  0
   56.7362   27.2620   45.2980 H   0  0  0  0  0  0  0  0  0  0  0  0
   57.1802   28.0896   46.5381 H   0  0  0  0  0  0  0  0  0  0  0  0
   58.1534   33.1568   53.8404 H   0  0  0  0  0  0  0  0  0  0  0  0
   59.1243   33.8348   52.4897 H   0  0  0  0  0  0  0  0  0  0  0  0
   57.3370   34.0147   52.4897 H   0  0  0  0  0  0  0  0  0  0  0  0
  1  2  1  0
  2  3  1  0
  3  4  1  0
  4  5  2  0
  5  6  1  0
  6  7  1  0
  5  8  1  0
  8  9  1  0
  9 10  2  0
 10 11  1  0
 11 12  2  0
 12 13  1  0
 13 14  2  0
 14 15  1  0
  8 16  2  0
 16 17  1  0
 17 18  1  0
 18 19  1  0
 19 20  1  0
 20 21  1  0
 21 22  1  0
 22 23  1  0
 23 24  1  0
 17 25  1  0
 25 26  2  0
 26 27  1  0
 27 28  2  0
 28 29  1  0
 28 30  1  0
  6  2  2  0
 14  9  1  0
 24 22  1  0
 30 25  1  0
 30  4  1  0
  1 31  1  0
  1 32  1  0
  1 33  1  0
  7 34  1  0
  7 35  1  0
  7 36  1  0
 10 37  1  0
 11 38  1  0
 12 39  1  0
 13 40  1  0
 17 41  1  6
 18 42  1  0
 18 43  1  0
 19 44  1  0
 19 45  1  0
 20 46  1  0
 21 47  1  0
 21 48  1  0
 22 49  1  0
 23 50  1  0
 23 51  1  0
 24 52  1  0
 24 53  1  0
 29 54  1  0
 29 55  1  0
 29 56  1  0
M  END
>  <UniqueID>  (21) 
21

>  <SMILES>  (21) 
Cc1sc2c(c1C)C(c1ccccc1Cl)=N[C@@H](CCNCC1CC1)c1nnc(C)n1-2

>  <Energy>  (21) 
394.1434873006081

>  <Genealogy>  (21) 
Cc1sc2c(c1C)C(c1ccccc1Cl)=N[C@@H](CCNCC1CC1)c1nnc(C)n1-2 (chirality)
Cc1sc2c(c1C)C(c1ccccc1Cl)=N[C@@H](CCNCC1CC1)c1nnc(C)n1-2 (3D coordinates assigned)
Cc1sc2c(c1C)C(c1ccccc1Cl)=N[C@@H](CCNCC1CC1)c1nnc(C)n1-2 (nonaromatic ring conformer: 394.1434873006081 kcal/mol)

>  <smiles>  (21) 
Cc1sc2c(c1C)C(c1ccccc1Cl)=NC(CCNCC1CC1)c1nnc(C)n1-2

>  <score_type>  (21) 
oracle

>  <origin>  (21) 
adg

>  <m_score__min__energy>  (21) 
-8.7899999999999991

>  <m_primary>  (21) 
energy

$$$$
21:0
     RDKit          3D

 84 87  0  0  0  0  0  0  0  0999 V2000
   54.7600   30.2810   52.0820 C   0  0  0  0  0  0  0  0  0  0  0  0
   56.0510   30.9520   51.6430 C   0  0  0  0  0  0  0  0  0  0  0  0
   57.1530   29.9870   51.6930 N   0  0  0  0  0  0  0  0  0  0  0  0
   57.6480   29.7780   53.0590 C   0  0  0  0  0  0  0  0  0  0  0  0
   58.5650   30.9080   53.5410 C   0  0  0  0  0  0  0  0  0  0  0  0
   58.8930   31.7210   52.4330 O   0  0  0  0  0  0  0  0  0  0  0  0
   58.7360   33.0900   52.7360 C   0  0  0  0  0  0  0  0  0  0  0  0
   59.1740   33.9510   51.5420 C   0  0  0  0  0  0  0  0  0  0  0  0
   59.5980   33.1050   50.3260 C   0  0  0  0  0  0  0  0  0  0  0  0
   58.4990   32.2910   49.7490 N   0  0  0  0  0  0  0  0  0  0  0  0
   58.7930   31.7040   48.4450 C   0  0  0  0  0  0  0  0  0  0  0  0
   58.6530   32.4780   47.2670 C   0  0  0  0  0  0  0  0  0  0  0  0
   58.7690   33.8850   47.2880 C   0  0  0  0  0  0  0  0  0  0  0  0
   58.5280   34.6340   46.1410 C   0  0  0  0  0  0  0  0  0  0  0  0
   58.2000   33.9970   44.9500 C   0  0  0  0  0  0  0  0  0  0  0  0
   58.1530   32.6060   44.8890 C   0  0  0  0  0  0  0  0  0  0  0  0
   58.3990   31.8250   46.0400 C   0  0  0  0  0  0  0  0  0  0  0  0
   58.4380   30.4580   45.9860 N   0  0  0  0  0  0  0  0  0  0  0  0
   57.8350   29.7330   44.8480 C   0  0  0  0  0  0  0  0  0  0  0  0
   59.0810   29.7690   46.9790 C   0  0  0  0  0  0  0  0  0  0  0  0
   59.6130   28.4890   46.7180 C   0  0  0  0  0  0  0  0  0  0  0  0
   60.2570   27.7620   47.7090 C   0  0  0  0  0  0  0  0  0  0  0  0
   60.3810   28.2880   48.9830 C   0  0  0  0  0  0  0  0  0  0  0  0
   59.8750   29.5580   49.2950 C   0  0  0  0  0  0  0  0  0  0  0  0
   60.1160   30.0120   50.6340 N   0  0  0  0  0  0  0  0  0  0  0  0
   61.4930   30.0200   51.1240 C   0  0  0  0  0  0  0  0  0  0  0  0
   61.9720   31.4510   51.4330 C   0  0  0  0  0  0  0  0  0  0  0  0
   63.4470   31.7250   51.0190 C   0  0  0  0  0  0  0  0  0  0  0  0
   63.6810   32.4880   49.7400 N   0  0  0  0  0  0  0  0  0  0  0  0
   65.1220   32.8160   49.6080 C   0  0  0  0  0  0  0  0  0  0  0  0
   62.8930   33.7720   49.8370 C   0  0  0  0  0  0  0  0  0  0  0  0
   62.0200   34.0990   48.6080 C   0  0  0  0  0  0  0  0  0  0  0  0
   62.8090   33.8780   47.3280 C   0  0  0  0  0  0  0  0  0  0  0  0
   63.2710   32.4230   47.2210 C   0  0  0  0  0  0  0  0  0  0  0  0
   63.2490   31.6650   48.5690 C   0  0  0  0  0  0  0  0  0  0  0  0
   59.2330   30.3520   48.2770 C   0  0  0  0  0  0  0  0  0  0  0  0
   54.7143   30.2573   53.1808 H   0  0  0  0  0  0  0  0  0  0  0  0
   53.9014   30.8470   51.6915 H   0  0  0  0  0  0  0  0  0  0  0  0
   54.7298   29.2531   51.6915 H   0  0  0  0  0  0  0  0  0  0  0  0
   55.9377   31.3242   50.6141 H   0  0  0  0  0  0  0  0  0  0  0  0
   56.2722   31.7917   52.3182 H   0  0  0  0  0  0  0  0  0  0  0  0
   57.9320   30.3260   51.0810 H   0  0  0  0  0  0  0  0  0  0  0  0
   56.7855   29.7120   53.7385 H   0  0  0  0  0  0  0  0  0  0  0  0
   58.2399   28.8508   53.0572 H   0  0  0  0  0  0  0  0  0  0  0  0
   58.0452   31.5091   54.3016 H   0  0  0  0  0  0  0  0  0  0  0  0
   59.4797   30.4883   53.9851 H   0  0  0  0  0  0  0  0  0  0  0  0
   57.6788   33.2932   52.9621 H   0  0  0  0  0  0  0  0  0  0  0  0
   59.3608   33.3390   53.6065 H   0  0  0  0  0  0  0  0  0  0  0  0
   58.3341   34.5969   51.2463 H   0  0  0  0  0  0  0  0  0  0  0  0
   60.0470   34.5407   51.8586 H   0  0  0  0  0  0  0  0  0  0  0  0
   59.9734   33.7834   49.5457 H   0  0  0  0  0  0  0  0  0  0  0  0
   60.3666   32.4012   50.6781 H   0  0  0  0  0  0  0  0  0  0  0  0
   57.7080   32.9550   49.6950 H   0  0  0  0  0  0  0  0  0  0  0  0
   58.2470   31.5350   50.4280 H   0  0  0  0  0  0  0  0  0  0  0  0
   59.0529   34.3940   48.2209 H   0  0  0  0  0  0  0  0  0  0  0  0
   58.5970   35.7313   46.1765 H   0  0  0  0  0  0  0  0  0  0  0  0
   57.9768   34.5930   44.0528 H   0  0  0  0  0  0  0  0  0  0  0  0
   57.9219   32.1106   43.9344 H   0  0  0  0  0  0  0  0  0  0  0  0
   57.1748   28.9392   45.2274 H   0  0  0  0  0  0  0  0  0  0  0  0
   57.2502   30.4344   44.2348 H   0  0  0  0  0  0  0  0  0  0  0  0
   58.6312   29.2858   44.2348 H   0  0  0  0  0  0  0  0  0  0  0  0
   59.5155   28.0591   45.7102 H   0  0  0  0  0  0  0  0  0  0  0  0
   60.6689   26.7676   47.4820 H   0  0  0  0  0  0  0  0  0  0  0  0
   60.8850   27.6999   49.7641 H   0  0  0  0  0  0  0  0  0  0  0  0
   59.3240   30.0110   51.3180 H   0  0  0  0  0  0  0  0  0  0  0  0
   61.5493   29.4177   52.0427 H   0  0  0  0  0  0  0  0  0  0  0  0
   62.1412   29.5998   50.3409 H   0  0  0  0  0  0  0  0  0  0  0  0
   61.3239   32.1573   50.8935 H   0  0  0  0  0  0  0  0  0  0  0  0
   61.9178   31.5774   52.5244 H   0  0  0  0  0  0  0  0  0  0  0  0
   63.9173   32.2954   51.8336 H   0  0  0  0  0  0  0  0  0  0  0  0
   63.8754   30.7290   50.8334 H   0  0  0  0  0  0  0  0  0  0  0  0
   65.5681   32.9175   50.6084 H   0  0  0  0  0  0  0  0  0  0  0  0
   65.6325   32.0111   49.0589 H   0  0  0  0  0  0  0  0  0  0  0  0
   65.2338   33.7626   49.0589 H   0  0  0  0  0  0  0  0  0  0  0  0
   62.2333   33.7014   50.7144 H   0  0  0  0  0  0  0  0  0  0  0  0
   63.6344   34.5814   49.9100 H   0  0  0  0  0  0  0  0  0  0  0  0
   61.1354   33.4452   48.6067 H   0  0  0  0  0  0  0  0  0  0  0  0
   61.7090   35.1528   48.6597 H   0  0  0  0  0  0  0  0  0  0  0  0
   62.1712   34.1186   46.4647 H   0  0  0  0  0  0  0  0  0  0  0  0
   63.6949   34.5299   47.3419 H   0  0  0  0  0  0  0  0  0  0  0  0
   62.6085   31.8988   46.5165 H   0  0  0  0  0  0  0  0  0  0  0  0
   64.3161   32.4411   46.8784 H   0  0  0  0  0  0  0  0  0  0  0  0
   62.2220   31.3161   48.7522 H   0  0  0  0  0  0  0  0  0  0  0  0
   63.9693   30.8385   48.4796 H   0  0  0  0  0  0  0  0  0  0  0  0
  1  2  1  0
  2  3  1  0
  3  4  1  0
  4  5  1  0
  5  6  1  0
  6  7  1  0
  7  8  1  0
  8  9  1  0
  9 10  1  0
 10 11  1  0
 11 12  2  0
 12 13  1  0
 13 14  2  0
 14 15  1  0
 15 16  2  0
 16 17  1  0
 17 18  2  0
 18 19  1  0
 18 20  1  0
 20 21  2  0
 21 22  1  0
 22 23  2  0
 23 24  1  0
 24 25  1  0
 25 26  1  0
 26 27  1  0
 27 28  1  0
 28 29  1  0
 29 30  1  0
 29 31  1  0
 31 32  1  0
 32 33  1  0
 33 34  1  0
 34 35  1  0
 24 36  2  0
 36 11  1  0
 17 12  1  0
 36 20  1  0
 35 29  1  0
  1 37  1  0
  1 38  1  0
  1 39  1  0
  2 40  1  0
  2 41  1  0
  3 42  1  0
  4 43  1  0
  4 44  1  0
  5 45  1  0
  5 46  1  0
  7 47  1  0
  7 48  1  0
  8 49  1  0
  8 50  1  0
  9 51  1  0
  9 52  1  0
 10 53  1  0
 10 54  1  0
 13 55  1  0
 14 56  1  0
 15 57  1  0
 16 58  1  0
 19 59  1  0
 19 60  1  0
 19 61  1  0
 21 62  1  0
 22 63  1  0
 23 64  1  0
 25 65  1  0
 26 66  1  0
 26 67  1  0
 27 68  1  0
 27 69  1  0
 28 70  1  0
 28 71  1  0
 30 72  1  0
 30 73  1  0
 30 74  1  0
 31 75  1  0
 31 76  1  0
 32 77  1  0
 32 78  1  0
 33 79  1  0
 33 80  1  0
 34 81  1  0
 34 82  1  0
 35 83  1  0
 35 84  1  0
M  CHG  3  10   1  18   1  29   1
M  END
>  <UniqueID>  (22) 
22

>  <SMILES>  (22) 
CCNCCOCCC[NH2+]c1c2ccccc2[n+](C)c2cccc(NCCC[N+]3(C)CCCCC3)c12

>  <Energy>  (22) 
152.28619443081712

>  <Genealogy>  (22) 
CCNCCOCCC[NH2+]c1c2ccccc2[n+](C)c2cccc(NCCC[N+]3(C)CCCCC3)c12 (protonated)
CCNCCOCCC[NH2+]c1c2ccccc2[n+](C)c2cccc(NCCC[N+]3(C)CCCCC3)c12 (3D coordinates assigned)
CCNCCOCCC[NH2+]c1c2ccccc2[n+](C)c2cccc(NCCC[N+]3(C)CCCCC3)c12 (nonaromatic ring conformer: 152.28619443081712 kcal/mol)

>  <smiles>  (22) 
CCNCCOCCCNc1c2ccccc2[n+](C)c2cccc(NCCC[N+]3(C)CCCCC3)c12

>  <score_type>  (22) 
oracle

>  <origin>  (22) 
adg

>  <m_score__min__energy>  (22) 
-4.0499999999999998

>  <m_primary>  (22) 
energy

$$$$
22:0
     RDKit          3D

 38 40  0  0  0  0  0  0  0  0999 V2000
   58.7948   30.2083   47.7625 H   0  0  0  0  0  0  0  0  0  0  0  0
   58.9960   30.7490   46.8260 C   0  0  0  0  0  0  0  0  0  0  0  0
   58.6040   30.1830   45.6770 C   0  0  0  0  0  0  0  0  0  0  0  0
   59.5340   28.8600   44.9080 S   0  0  0  0  0  0  0  0  0  0  0  0
   58.0070   28.4240   44.0620 C   0  0  0  0  0  0  0  0  0  0  0  0
   57.6660   27.1690   43.9480 N   0  0  0  0  0  0  0  0  0  0  0  0
   57.0530   26.8990   43.1460 H   0  0  0  0  0  0  0  0  0  0  0  0
   58.1160   26.0800   44.8180 C   0  0  0  0  0  0  0  0  0  0  0  0
   59.2136   26.1006   44.8880 H   0  0  0  0  0  0  0  0  0  0  0  0
   57.7852   25.1207   44.3933 H   0  0  0  0  0  0  0  0  0  0  0  0
   57.5190   26.2400   46.2120 C   0  0  0  0  0  0  0  0  0  0  0  0
   58.2912   26.0330   46.9676 H   0  0  0  0  0  0  0  0  0  0  0  0
   57.1501   27.2687   46.3370 H   0  0  0  0  0  0  0  0  0  0  0  0
   56.6851   25.5337   46.3370 H   0  0  0  0  0  0  0  0  0  0  0  0
   57.0760   29.5090   43.9310 N   0  0  0  0  0  0  0  0  0  0  0  0
   56.4510   29.8840   42.6570 C   0  0  0  0  0  0  0  0  0  0  0  0
   56.6515   29.0998   41.9121 H   0  0  0  0  0  0  0  0  0  0  0  0
   55.3679   29.9942   42.8141 H   0  0  0  0  0  0  0  0  0  0  0  0
   57.0100   31.2110   42.1500 C   0  0  0  0  0  0  0  0  0  0  0  0
   57.2780   31.8471   43.0065 H   0  0  0  0  0  0  0  0  0  0  0  0
   57.9051   31.0224   41.5391 H   0  0  0  0  0  0  0  0  0  0  0  0
   56.2497   31.7197   41.5391 H   0  0  0  0  0  0  0  0  0  0  0  0
   57.3960   30.4920   44.9090 C   0  0  0  0  0  0  0  0  0  0  0  0
   56.7270   31.5520   45.0430 O   0  0  0  0  0  0  0  0  0  0  0  0
   59.6800   32.0510   46.9130 C   0  0  0  0  0  0  0  0  0  0  0  0
   58.9990   33.2560   46.7390 C   0  0  0  0  0  0  0  0  0  0  0  0
   57.9208   33.3580   46.5462 H   0  0  0  0  0  0  0  0  0  0  0  0
   60.0970   34.5340   46.8720 S   0  0  0  0  0  0  0  0  0  0  0  0
   61.4420   33.5640   47.1240 C   0  0  0  0  0  0  0  0  0  0  0  0
   62.7650   33.9610   47.3010 C   0  0  0  0  0  0  0  0  0  0  0  0
   63.0377   35.0265   47.3165 H   0  0  0  0  0  0  0  0  0  0  0  0
   63.7410   32.9650   47.4590 C   0  0  0  0  0  0  0  0  0  0  0  0
   64.7935   33.2483   47.6069 H   0  0  0  0  0  0  0  0  0  0  0  0
   63.3790   31.6050   47.4290 C   0  0  0  0  0  0  0  0  0  0  0  0
   64.1517   30.8313   47.5488 H   0  0  0  0  0  0  0  0  0  0  0  0
   62.0370   31.2290   47.2470 C   0  0  0  0  0  0  0  0  0  0  0  0
   61.7543   30.1664   47.2141 H   0  0  0  0  0  0  0  0  0  0  0  0
   61.0640   32.2290   47.1080 C   0  0  0  0  0  0  0  0  0  0  0  0
  1  2  1  0
  2  3  2  3
  3  4  1  0
  4  5  1  0
  5  6  2  0
  6  7  1  0
  6  8  1  0
  8  9  1  0
  8 10  1  0
  8 11  1  0
 11 12  1  0
 11 13  1  0
 11 14  1  0
  5 15  1  0
 15 16  1  0
 16 17  1  0
 16 18  1  0
 16 19  1  0
 19 20  1  0
 19 21  1  0
 19 22  1  0
 15 23  1  0
 23 24  2  0
  2 25  1  0
 25 26  2  0
 26 27  1  0
 26 28  1  0
 28 29  1  0
 29 30  2  0
 30 31  1  0
 30 32  1  0
 32 33  1  0
 32 34  2  0
 34 35  1  0
 34 36  1  0
 36 37  1  0
 36 38  2  0
 23  3  1  0
 38 25  1  0
 38 29  1  0
M  CHG  1   6   1
M  END
>  <UniqueID>  (23) 
23

>  <SMILES>  (23) 
CC/[NH+]=C1/SC(=Cc2csc3ccccc23)C(=O)N1CC

>  <Energy>  (23) 
98.11936398194933

>  <Genealogy>  (23) 
CC[NH+]=C1SC(=Cc2csc3ccccc23)C(=O)N1CC (protonated)
CC/[NH+]=C1/SC(=Cc2csc3ccccc23)C(=O)N1CC (cis-trans isomerization)
CC/[NH+]=C1/SC(=Cc2csc3ccccc23)C(=O)N1CC (3D coordinates assigned)
CC/[NH+]=C1/SC(=Cc2csc3ccccc23)C(=O)N1CC (nonaromatic ring conformer: 98.11936398194933 kcal/mol)

>  <smiles>  (23) 
CCN=C1SC(=Cc2csc3ccccc23)C(=O)N1CC

>  <score_type>  (23) 
oracle

>  <origin>  (23) 
adg

>  <m_score__min__energy>  (23) 
-6.5499999999999998

>  <m_primary>  (23) 
energy

$$$$
23:0
     RDKit          3D

 58 60  0  0  0  0  0  0  0  0999 V2000
   58.4400   30.8950   50.5120 C   0  0  0  0  0  0  0  0  0  0  0  0
   58.5500   32.3900   50.2440 C   0  0  0  0  0  0  0  0  0  0  0  0
   59.8660   32.6980   49.6700 N   0  0  0  0  0  0  0  0  0  0  0  0
   60.7370   33.3670   50.6460 C   0  0  0  0  0  0  0  0  0  0  0  0
   61.8950   34.0890   49.9500 C   0  0  0  0  0  0  0  0  0  0  0  0
   61.8190   33.8880   48.5500 O   0  0  0  0  0  0  0  0  0  0  0  0
   63.1100   33.8380   47.9800 C   0  0  0  0  0  0  0  0  0  0  0  0
   63.5510   32.3810   47.8690 C   0  0  0  0  0  0  0  0  0  0  0  0
   62.4800   31.5300   47.1460 C   0  0  0  0  0  0  0  0  0  0  0  0
   61.0930   31.6380   47.6770 N   0  0  0  0  0  0  0  0  0  0  0  0
   60.0690   30.8790   46.9710 C   0  0  0  0  0  0  0  0  0  0  0  0
   59.9450   29.4850   47.2050 C   0  0  0  0  0  0  0  0  0  0  0  0
   60.5830   28.8580   48.3040 C   0  0  0  0  0  0  0  0  0  0  0  0
   60.4230   27.4970   48.5480 C   0  0  0  0  0  0  0  0  0  0  0  0
   59.6180   26.7320   47.7160 C   0  0  0  0  0  0  0  0  0  0  0  0
   58.9860   27.3180   46.6220 C   0  0  0  0  0  0  0  0  0  0  0  0
   59.1610   28.6960   46.3260 C   0  0  0  0  0  0  0  0  0  0  0  0
   58.5860   29.2670   45.2140 N   0  0  0  0  0  0  0  0  0  0  0  0
   58.0990   28.4060   44.1120 C   0  0  0  0  0  0  0  0  0  0  0  0
   58.4730   30.6400   45.1220 C   0  0  0  0  0  0  0  0  0  0  0  0
   57.6120   31.2300   44.1670 C   0  0  0  0  0  0  0  0  0  0  0  0
   57.5090   32.6050   44.0380 C   0  0  0  0  0  0  0  0  0  0  0  0
   58.2200   33.4380   44.8830 C   0  0  0  0  0  0  0  0  0  0  0  0
   59.0460   32.9100   45.8920 C   0  0  0  0  0  0  0  0  0  0  0  0
   59.6600   33.7800   46.8070 O   0  0  0  0  0  0  0  0  0  0  0  0
   59.6420   35.2040   46.7390 C   0  0  0  0  0  0  0  0  0  0  0  0
   59.2110   31.4910   46.0040 C   0  0  0  0  0  0  0  0  0  0  0  0
   58.4269   30.7171   51.5974 H   0  0  0  0  0  0  0  0  0  0  0  0
   57.5111   30.5099   50.0661 H   0  0  0  0  0  0  0  0  0  0  0  0
   59.3025   30.3781   50.0661 H   0  0  0  0  0  0  0  0  0  0  0  0
   57.7635   32.6929   49.5371 H   0  0  0  0  0  0  0  0  0  0  0  0
   58.4297   32.9379   51.1902 H   0  0  0  0  0  0  0  0  0  0  0  0
   59.7150   33.3600   48.8720 H   0  0  0  0  0  0  0  0  0  0  0  0
   60.1446   34.1010   51.2120 H   0  0  0  0  0  0  0  0  0  0  0  0
   61.1557   32.6049   51.3198 H   0  0  0  0  0  0  0  0  0  0  0  0
   61.8363   35.1657   50.1672 H   0  0  0  0  0  0  0  0  0  0  0  0
   62.8482   33.6851   50.3218 H   0  0  0  0  0  0  0  0  0  0  0  0
   63.0886   34.2936   46.9790 H   0  0  0  0  0  0  0  0  0  0  0  0
   63.8171   34.3918   48.6150 H   0  0  0  0  0  0  0  0  0  0  0  0
   64.4921   32.3324   47.3015 H   0  0  0  0  0  0  0  0  0  0  0  0
   63.6910   31.9794   48.8835 H   0  0  0  0  0  0  0  0  0  0  0  0
   62.4612   31.8385   46.0903 H   0  0  0  0  0  0  0  0  0  0  0  0
   62.7773   30.4827   47.3035 H   0  0  0  0  0  0  0  0  0  0  0  0
   60.8180   32.6470   47.6900 H   0  0  0  0  0  0  0  0  0  0  0  0
   61.0720   31.4180   48.6960 H   0  0  0  0  0  0  0  0  0  0  0  0
   61.2154   29.4570   48.9757 H   0  0  0  0  0  0  0  0  0  0  0  0
   60.9350   27.0276   49.4009 H   0  0  0  0  0  0  0  0  0  0  0  0
   59.4787   25.6603   47.9210 H   0  0  0  0  0  0  0  0  0  0  0  0
   58.3409   26.7036   45.9768 H   0  0  0  0  0  0  0  0  0  0  0  0
   57.5985   27.5211   44.5319 H   0  0  0  0  0  0  0  0  0  0  0  0
   57.3866   28.9709   43.4928 H   0  0  0  0  0  0  0  0  0  0  0  0
   58.9502   28.0865   43.4928 H   0  0  0  0  0  0  0  0  0  0  0  0
   57.0108   30.5820   43.5122 H   0  0  0  0  0  0  0  0  0  0  0  0
   56.8600   33.0359   43.2614 H   0  0  0  0  0  0  0  0  0  0  0  0
   58.1384   34.5285   44.7644 H   0  0  0  0  0  0  0  0  0  0  0  0
   59.6367   35.6197   47.7574 H   0  0  0  0  0  0  0  0  0  0  0  0
   60.5358   35.5568   46.2036 H   0  0  0  0  0  0  0  0  0  0  0  0
   58.7396   35.5341   46.2036 H   0  0  0  0  0  0  0  0  0  0  0  0
  1  2  1  0
  2  3  1  0
  3  4  1  0
  4  5  1  0
  5  6  1  0
  6  7  1  0
  7  8  1  0
  8  9  1  0
  9 10  1  0
 10 11  1  0
 11 12  2  0
 12 13  1  0
 13 14  2  0
 14 15  1  0
 15 16  2  0
 16 17  1  0
 17 18  2  0
 18 19  1  0
 18 20  1  0
 20 21  2  0
 21 22  1  0
 22 23  2  0
 23 24  1  0
 24 25  1  0
 25 26  1  0
 24 27  2  0
 27 11  1  0
 17 12  1  0
 27 20  1  0
  1 28  1  0
  1 29  1  0
  1 30  1  0
  2 31  1  0
  2 32  1  0
  3 33  1  0
  4 34  1  0
  4 35  1  0
  5 36  1  0
  5 37  1  0
  7 38  1  0
  7 39  1  0
  8 40  1  0
  8 41  1  0
  9 42  1  0
  9 43  1  0
 10 44  1  0
 10 45  1  0
 13 46  1  0
 14 47  1  0
 15 48  1  0
 16 49  1  0
 19 50  1  0
 19 51  1  0
 19 52  1  0
 21 53  1  0
 22 54  1  0
 23 55  1  0
 26 56  1  0
 26 57  1  0
 26 58  1  0
M  CHG  2  10   1  18   1
M  END
>  <UniqueID>  (24) 
24

>  <SMILES>  (24) 
CCNCCOCCC[NH2+]c1c2ccccc2[n+](C)c2cccc(OC)c12

>  <Energy>  (24) 
91.06922695017565

>  <Genealogy>  (24) 
CCNCCOCCC[NH2+]c1c2ccccc2[n+](C)c2cccc(OC)c12 (protonated)
CCNCCOCCC[NH2+]c1c2ccccc2[n+](C)c2cccc(OC)c12 (3D coordinates assigned)
CCNCCOCCC[NH2+]c1c2ccccc2[n+](C)c2cccc(OC)c12 (optimized conformer: 91.06922695017565 kcal/mol)

>  <smiles>  (24) 
CCNCCOCCCNc1c2ccccc2[n+](C)c2cccc(OC)c12

>  <score_type>  (24) 
oracle

>  <origin>  (24) 
adg

>  <m_score__min__energy>  (24) 
-2.4199999999999999

>  <m_primary>  (24) 
energy

$$$$
24:0
     RDKit          3D

 25 24  0  0  0  0  0  0  0  0999 V2000
   57.0610   33.2600   45.6290 C   0  0  0  0  0  0  0  0  0  0  0  0
   57.6490   32.2220   44.6780 C   0  0  0  0  0  0  0  0  0  0  0  0
   56.9900   30.9110   44.8740 N   0  0  0  0  0  0  0  0  0  0  0  0
   56.3800   30.3910   43.6280 C   0  0  0  0  0  0  0  0  0  0  0  0
   56.9630   31.1100   42.4160 C   0  0  0  0  0  0  0  0  0  0  0  0
   57.8890   29.9240   45.5170 C   0  0  0  0  0  0  0  0  0  0  0  0
   57.2470   28.6100   45.7120 C   0  0  0  0  0  0  0  0  0  0  0  0
   56.7290   27.5330   45.8720 C   0  0  0  0  0  0  0  0  0  0  0  0
   56.1030   26.2230   46.0690 C   0  0  0  0  0  0  0  0  0  0  0  0
   54.7140   26.3290   45.9160 O   0  0  0  0  0  0  0  0  0  0  0  0
   57.2383   32.9470   46.6685 H   0  0  0  0  0  0  0  0  0  0  0  0
   57.5418   34.2334   45.4521 H   0  0  0  0  0  0  0  0  0  0  0  0
   55.9789   33.3480   45.4521 H   0  0  0  0  0  0  0  0  0  0  0  0
   57.4958   32.5532   43.6403 H   0  0  0  0  0  0  0  0  0  0  0  0
   58.7239   32.1158   44.8860 H   0  0  0  0  0  0  0  0  0  0  0  0
   56.5857   29.3136   43.5449 H   0  0  0  0  0  0  0  0  0  0  0  0
   55.2943   30.5648   43.6603 H   0  0  0  0  0  0  0  0  0  0  0  0
   57.6223   31.9231   42.7541 H   0  0  0  0  0  0  0  0  0  0  0  0
   57.5412   30.3971   41.8099 H   0  0  0  0  0  0  0  0  0  0  0  0
   56.1460   31.5284   41.8099 H   0  0  0  0  0  0  0  0  0  0  0  0
   58.7770   29.7908   44.8816 H   0  0  0  0  0  0  0  0  0  0  0  0
   58.1540   30.3145   46.5106 H   0  0  0  0  0  0  0  0  0  0  0  0
   56.4985   25.5146   45.3262 H   0  0  0  0  0  0  0  0  0  0  0  0
   56.3286   25.8633   47.0837 H   0  0  0  0  0  0  0  0  0  0  0  0
   54.3620   26.7110   46.7630 H   0  0  0  0  0  0  0  0  0  0  0  0
  1  2  1  0
  2  3  1  0
  3  4  1  0
  4  5  1  0
  3  6  1  0
  6  7  1  0
  7  8  3  0
  8  9  1  0
  9 10  1  0
  1 11  1  0
  1 12  1  0
  1 13  1  0
  2 14  1  0
  2 15  1  0
  4 16  1  0
  4 17  1  0
  5 18  1  0
  5 19  1  0
  5 20  1  0
  6 21  1  0
  6 22  1  0
  9 23  1  0
  9 24  1  0
 10 25  1  0
M  END
>  <UniqueID>  (25) 
25

>  <SMILES>  (25) 
CCN(CC)CC#CCO

>  <Energy>  (25) 
15.452701474304249

>  <Genealogy>  (25) 
CCN(CC)CC#CCO (3D coordinates assigned)
CCN(CC)CC#CCO (optimized conformer: 15.452701474304249 kcal/mol)

>  <smiles>  (25) 
CCN(CC)CC#CCO

>  <score_type>  (25) 
oracle

>  <origin>  (25) 
adg

>  <m_score__min__energy>  (25) 
-4.9699999999999998

>  <m_primary>  (25) 
energy

$$$$
25:0
     RDKit          3D

 71 73  0  0  0  0  0  0  0  0999 V2000
   61.5220   28.5360   50.7210 C   0  0  0  0  0  0  0  0  0  0  0  0
   60.3870   27.7880   50.0320 C   0  0  0  0  0  0  0  0  0  0  0  0
   59.5790   28.6830   49.2660 O   0  0  0  0  0  0  0  0  0  0  0  0
   59.5300   28.7990   47.8690 C   0  0  0  0  0  0  0  0  0  0  0  0
   59.6150   27.6380   47.0790 C   0  0  0  0  0  0  0  0  0  0  0  0
   59.5140   27.7040   45.7040 C   0  0  0  0  0  0  0  0  0  0  0  0
   59.2720   28.9150   45.0850 C   0  0  0  0  0  0  0  0  0  0  0  0
   59.1410   30.1110   45.8280 C   0  0  0  0  0  0  0  0  0  0  0  0
   59.3760   30.0830   47.2390 C   0  0  0  0  0  0  0  0  0  0  0  0
   59.4350   31.3350   47.9450 C   0  0  0  0  0  0  0  0  0  0  0  0
   59.7620   31.4010   49.3690 N   0  0  0  0  0  0  0  0  0  0  0  0
   58.6150   31.6450   50.2870 C   0  0  0  0  0  0  0  0  0  0  0  0
   58.8480   32.6880   51.3950 C   0  0  0  0  0  0  0  0  0  0  0  0
   59.9370   33.5180   51.0460 O   0  0  0  0  0  0  0  0  0  0  0  0
   60.9330   33.4620   52.0440 C   0  0  0  0  0  0  0  0  0  0  0  0
   61.2490   32.0020   52.3580 C   0  0  0  0  0  0  0  0  0  0  0  0
   61.6370   31.3200   51.1800 O   0  0  0  0  0  0  0  0  0  0  0  0
   63.0250   31.4550   50.9510 C   0  0  0  0  0  0  0  0  0  0  0  0
   63.3010   31.4550   49.4410 C   0  0  0  0  0  0  0  0  0  0  0  0
   62.6280   32.5720   48.7350 N   0  0  0  0  0  0  0  0  0  0  0  0
   62.3570   32.2280   47.3190 C   0  0  0  0  0  0  0  0  0  0  0  0
   62.5580   33.4490   46.4270 C   0  0  0  0  0  0  0  0  0  0  0  0
   63.3140   33.8810   48.8670 C   0  0  0  0  0  0  0  0  0  0  0  0
   62.9860   34.6340   50.1650 C   0  0  0  0  0  0  0  0  0  0  0  0
   59.2350   32.5470   47.2150 C   0  0  0  0  0  0  0  0  0  0  0  0
   59.2700   33.8230   47.8420 C   0  0  0  0  0  0  0  0  0  0  0  0
   59.1440   34.9970   47.1060 C   0  0  0  0  0  0  0  0  0  0  0  0
   58.9850   34.9420   45.7300 C   0  0  0  0  0  0  0  0  0  0  0  0
   58.9000   33.7110   45.0920 C   0  0  0  0  0  0  0  0  0  0  0  0
   58.9710   32.4950   45.8210 C   0  0  0  0  0  0  0  0  0  0  0  0
   58.7940   31.2840   45.1930 N   0  0  0  0  0  0  0  0  0  0  0  0
   58.1700   31.2390   43.8490 C   0  0  0  0  0  0  0  0  0  0  0  0
   61.4036   28.4580   51.8118 H   0  0  0  0  0  0  0  0  0  0  0  0
   62.4851   28.0950   50.4243 H   0  0  0  0  0  0  0  0  0  0  0  0
   61.4966   29.5949   50.4243 H   0  0  0  0  0  0  0  0  0  0  0  0
   60.8120   27.0246   49.3637 H   0  0  0  0  0  0  0  0  0  0  0  0
   59.7578   27.3170   50.8016 H   0  0  0  0  0  0  0  0  0  0  0  0
   59.7643   26.6624   47.5647 H   0  0  0  0  0  0  0  0  0  0  0  0
   59.6263   26.7913   45.1004 H   0  0  0  0  0  0  0  0  0  0  0  0
   59.1791   28.9497   43.9895 H   0  0  0  0  0  0  0  0  0  0  0  0
   60.5010   32.1130   49.5490 H   0  0  0  0  0  0  0  0  0  0  0  0
   60.2880   30.5510   49.6630 H   0  0  0  0  0  0  0  0  0  0  0  0
   57.7635   31.9843   49.6789 H   0  0  0  0  0  0  0  0  0  0  0  0
   58.4440   30.6915   50.8082 H   0  0  0  0  0  0  0  0  0  0  0  0
   57.9435   33.3025   51.5148 H   0  0  0  0  0  0  0  0  0  0  0  0
   59.0716   32.1717   52.3402 H   0  0  0  0  0  0  0  0  0  0  0  0
   61.8423   33.9660   51.6847 H   0  0  0  0  0  0  0  0  0  0  0  0
   60.5730   33.9655   52.9533 H   0  0  0  0  0  0  0  0  0  0  0  0
   62.0688   31.9573   53.0901 H   0  0  0  0  0  0  0  0  0  0  0  0
   60.3495   31.5215   52.7704 H   0  0  0  0  0  0  0  0  0  0  0  0
   63.3776   32.4012   51.3874 H   0  0  0  0  0  0  0  0  0  0  0  0
   63.5557   30.6128   51.4190 H   0  0  0  0  0  0  0  0  0  0  0  0
   64.3860   31.5412   49.2818 H   0  0  0  0  0  0  0  0  0  0  0  0
   62.9024   30.5153   49.0309 H   0  0  0  0  0  0  0  0  0  0  0  0
   63.0448   31.4303   47.0018 H   0  0  0  0  0  0  0  0  0  0  0  0
   61.3151   31.8873   47.2278 H   0  0  0  0  0  0  0  0  0  0  0  0
   62.7048   34.3409   47.0539 H   0  0  0  0  0  0  0  0  0  0  0  0
   63.4433   33.2974   45.7919 H   0  0  0  0  0  0  0  0  0  0  0  0
   61.6708   33.5892   45.7919 H   0  0  0  0  0  0  0  0  0  0  0  0
   64.3996   33.7068   48.8338 H   0  0  0  0  0  0  0  0  0  0  0  0
   62.9586   34.5099   48.0375 H   0  0  0  0  0  0  0  0  0  0  0  0
   63.2577   34.0103   51.0294 H   0  0  0  0  0  0  0  0  0  0  0  0
   63.5561   35.5742   50.1976 H   0  0  0  0  0  0  0  0  0  0  0  0
   61.9093   34.8568   50.1976 H   0  0  0  0  0  0  0  0  0  0  0  0
   59.3995   33.8831   48.9327 H   0  0  0  0  0  0  0  0  0  0  0  0
   59.1706   35.9707   47.6170 H   0  0  0  0  0  0  0  0  0  0  0  0
   58.9263   35.8714   45.1445 H   0  0  0  0  0  0  0  0  0  0  0  0
   58.7751   33.6778   43.9996 H   0  0  0  0  0  0  0  0  0  0  0  0
   57.0779   31.1602   43.9542 H   0  0  0  0  0  0  0  0  0  0  0  0
   58.4199   32.1575   43.2977 H   0  0  0  0  0  0  0  0  0  0  0  0
   58.5492   30.3659   43.2977 H   0  0  0  0  0  0  0  0  0  0  0  0
  1  2  1  0
  2  3  1  0
  3  4  1  0
  4  5  2  0
  5  6  1  0
  6  7  2  0
  7  8  1  0
  8  9  2  0
  9 10  1  0
 10 11  1  0
 11 12  1  0
 12 13  1  0
 13 14  1  0
 14 15  1  0
 15 16  1  0
 16 17  1  0
 17 18  1  0
 18 19  1  0
 19 20  1  0
 20 21  1  0
 21 22  1  0
 20 23  1  0
 23 24  1  0
 10 25  2  0
 25 26  1  0
 26 27  2  0
 27 28  1  0
 28 29  2  0
 29 30  1  0
 30 31  2  0
 31 32  1  0
  9  4  1  0
 30 25  1  0
 31  8  1  0
  1 33  1  0
  1 34  1  0
  1 35  1  0
  2 36  1  0
  2 37  1  0
  5 38  1  0
  6 39  1  0
  7 40  1  0
 11 41  1  0
 11 42  1  0
 12 43  1  0
 12 44  1  0
 13 45  1  0
 13 46  1  0
 15 47  1  0
 15 48  1  0
 16 49  1  0
 16 50  1  0
 18 51  1  0
 18 52  1  0
 19 53  1  0
 19 54  1  0
 21 55  1  0
 21 56  1  0
 22 57  1  0
 22 58  1  0
 22 59  1  0
 23 60  1  0
 23 61  1  0
 24 62  1  0
 24 63  1  0
 24 64  1  0
 26 65  1  0
 27 66  1  0
 28 67  1  0
 29 68  1  0
 32 69  1  0
 32 70  1  0
 32 71  1  0
M  CHG  2  11   1  31   1
M  END
>  <UniqueID>  (26) 
26

>  <SMILES>  (26) 
CCOc1cccc2c1c([NH2+]CCOCCOCCN(CC)CC)c1ccccc1[n+]2C

>  <Energy>  (26) 
105.13721818595867

>  <Genealogy>  (26) 
CCOc1cccc2c1c([NH2+]CCOCCOCCN(CC)CC)c1ccccc1[n+]2C (protonated)
CCOc1cccc2c1c([NH2+]CCOCCOCCN(CC)CC)c1ccccc1[n+]2C (3D coordinates assigned)
CCOc1cccc2c1c([NH2+]CCOCCOCCN(CC)CC)c1ccccc1[n+]2C (optimized conformer: 105.13721818595867 kcal/mol)

>  <smiles>  (26) 
CCOc1cccc2c1c(NCCOCCOCCN(CC)CC)c1ccccc1[n+]2C

>  <score_type>  (26) 
oracle

>  <origin>  (26) 
adg

>  <m_score__min__energy>  (26) 
-3.1400000000000001

>  <m_primary>  (26) 
energy

$$$$
26:0
     RDKit          3D

 39 41  0  0  0  0  0  0  0  0999 V2000
   59.2480   34.5650   44.8690 C   0  0  0  0  0  0  0  0  0  0  0  0
   59.6210   34.9670   46.2900 C   0  0  0  0  0  0  0  0  0  0  0  0
   59.1290   33.9760   47.2420 N   0  0  0  0  0  0  0  0  0  0  0  0
   57.8790   33.5560   47.3170 N   0  0  0  0  0  0  0  0  0  0  0  0
   57.7730   32.7220   48.3410 N   0  0  0  0  0  0  0  0  0  0  0  0
   58.9460   32.5990   48.9530 N   0  0  0  0  0  0  0  0  0  0  0  0
   59.7830   33.3880   48.2570 C   0  0  0  0  0  0  0  0  0  0  0  0
   61.5110   33.6460   48.6740 S   0  0  0  0  0  0  0  0  0  0  0  0
   62.0420   31.9550   48.2190 C   0  0  0  0  0  0  0  0  0  0  0  0
   61.3570   31.4590   46.9380 C   0  0  0  0  0  0  0  0  0  0  0  0
   59.9740   31.0280   47.1940 N   0  0  0  0  0  0  0  0  0  0  0  0
   59.6380   29.8990   46.3510 C   0  0  0  0  0  0  0  0  0  0  0  0
   60.3640   28.7030   46.4980 C   0  0  0  0  0  0  0  0  0  0  0  0
   60.0870   27.5910   45.7050 C   0  0  0  0  0  0  0  0  0  0  0  0
   59.0860   27.6500   44.7400 C   0  0  0  0  0  0  0  0  0  0  0  0
   58.3540   28.8290   44.5500 C   0  0  0  0  0  0  0  0  0  0  0  0
   57.3580   28.8800   43.5620 C   0  0  0  0  0  0  0  0  0  0  0  0
   56.6320   30.0530   43.3530 C   0  0  0  0  0  0  0  0  0  0  0  0
   56.8940   31.1830   44.1250 C   0  0  0  0  0  0  0  0  0  0  0  0
   57.8790   31.1500   45.1140 C   0  0  0  0  0  0  0  0  0  0  0  0
   58.6250   29.9730   45.3500 C   0  0  0  0  0  0  0  0  0  0  0  0
   58.5001   33.7590   44.9003 H   0  0  0  0  0  0  0  0  0  0  0  0
   58.8289   35.4337   44.3402 H   0  0  0  0  0  0  0  0  0  0  0  0
   60.1456   34.2120   44.3402 H   0  0  0  0  0  0  0  0  0  0  0  0
   60.7157   35.0368   46.3719 H   0  0  0  0  0  0  0  0  0  0  0  0
   59.1634   35.9409   46.5184 H   0  0  0  0  0  0  0  0  0  0  0  0
   63.1307   31.9555   48.0615 H   0  0  0  0  0  0  0  0  0  0  0  0
   61.7573   31.2788   49.0386 H   0  0  0  0  0  0  0  0  0  0  0  0
   61.3456   32.2752   46.2006 H   0  0  0  0  0  0  0  0  0  0  0  0
   61.9217   30.5943   46.5592 H   0  0  0  0  0  0  0  0  0  0  0  0
   59.2930   31.8050   47.0460 H   0  0  0  0  0  0  0  0  0  0  0  0
   59.8880   30.7550   48.2010 H   0  0  0  0  0  0  0  0  0  0  0  0
   61.1635   28.6446   47.2513 H   0  0  0  0  0  0  0  0  0  0  0  0
   60.6617   26.6632   45.8423 H   0  0  0  0  0  0  0  0  0  0  0  0
   58.8684   26.7657   44.1230 H   0  0  0  0  0  0  0  0  0  0  0  0
   57.1489   27.9906   42.9495 H   0  0  0  0  0  0  0  0  0  0  0  0
   55.8520   30.0857   42.5780 H   0  0  0  0  0  0  0  0  0  0  0  0
   56.3214   32.1066   43.9543 H   0  0  0  0  0  0  0  0  0  0  0  0
   58.0765   32.0494   45.7157 H   0  0  0  0  0  0  0  0  0  0  0  0
  1  2  1  0
  2  3  1  0
  3  4  1  0
  4  5  2  0
  5  6  1  0
  6  7  2  0
  7  8  1  0
  8  9  1  0
  9 10  1  0
 10 11  1  0
 11 12  1  0
 12 13  2  0
 13 14  1  0
 14 15  2  0
 15 16  1  0
 16 17  2  0
 17 18  1  0
 18 19  2  0
 19 20  1  0
 20 21  2  0
  7  3  1  0
 21 12  1  0
 21 16  1  0
  1 22  1  0
  1 23  1  0
  1 24  1  0
  2 25  1  0
  2 26  1  0
  9 27  1  0
  9 28  1  0
 10 29  1  0
 10 30  1  0
 11 31  1  0
 11 32  1  0
 13 33  1  0
 14 34  1  0
 15 35  1  0
 17 36  1  0
 18 37  1  0
 19 38  1  0
 20 39  1  0
M  CHG  1  11   1
M  END
>  <UniqueID>  (27) 
27

>  <SMILES>  (27) 
CCn1nnnc1SCC[NH2+]c1cccc2ccccc12

>  <Energy>  (27) 
78.48311279844752

>  <Genealogy>  (27) 
CCn1nnnc1SCC[NH2+]c1cccc2ccccc12 (protonated)
CCn1nnnc1SCC[NH2+]c1cccc2ccccc12 (3D coordinates assigned)
CCn1nnnc1SCC[NH2+]c1cccc2ccccc12 (optimized conformer: 78.48311279844752 kcal/mol)

>  <smiles>  (27) 
CCn1nnnc1SCCNc1cccc2ccccc12

>  <score_type>  (27) 
oracle

>  <origin>  (27) 
adg

>  <m_score__min__energy>  (27) 
-6.0899999999999999

>  <m_primary>  (27) 
energy

$$$$
