0:0
     RDKit          3D

 51 53  0  0  0  0  0  0  0  0999 V2000
   54.7880   25.2090   45.6270 C   0  0  0  0  0  0  0  0  0  0  0  0
   55.5170   26.2570   46.2570 O   0  0  0  0  0  0  0  0  0  0  0  0
   56.5860   26.9520   45.6700 C   0  0  0  0  0  0  0  0  0  0  0  0
   56.4500   28.2850   45.2310 C   0  0  0  0  0  0  0  0  0  0  0  0
   57.5260   28.9590   44.6380 C   0  0  0  0  0  0  0  0  0  0  0  0
   57.3550   30.3670   44.1350 C   0  0  0  0  0  0  0  0  0  0  0  0
   57.9780   31.3410   45.0980 C   0  0  0  0  0  0  0  0  0  0  0  0
   58.2250   30.9620   46.4250 C   0  0  0  0  0  0  0  0  0  0  0  0
   58.7690   31.8750   47.3290 C   0  0  0  0  0  0  0  0  0  0  0  0
   59.0720   33.1860   46.9270 C   0  0  0  0  0  0  0  0  0  0  0  0
   59.6520   34.1490   47.9300 C   0  0  0  0  0  0  0  0  0  0  0  0
   58.8030   33.5850   45.5970 C   0  0  0  0  0  0  0  0  0  0  0  0
   59.1000   34.9830   45.1240 C   0  0  0  0  0  0  0  0  0  0  0  0
   58.2590   32.6540   44.6930 C   0  0  0  0  0  0  0  0  0  0  0  0
   58.7430   28.2890   44.4590 C   0  0  0  0  0  0  0  0  0  0  0  0
   58.8910   26.9710   44.8920 C   0  0  0  0  0  0  0  0  0  0  0  0
   57.8270   26.2960   45.5120 C   0  0  0  0  0  0  0  0  0  0  0  0
   58.0230   24.8640   45.9770 C   0  0  0  0  0  0  0  0  0  0  0  0
   57.4140   23.8490   45.0880 N   0  0  0  0  0  0  0  0  0  0  0  0
   57.1370   24.3430   43.7290 C   0  0  0  0  0  0  0  0  0  0  0  0
   56.3670   23.2700   42.9300 C   0  0  0  0  0  0  0  0  0  0  0  0
   56.2030   22.0700   43.6670 O   0  0  0  0  0  0  0  0  0  0  0  0
   57.4670   21.5870   44.0840 C   0  0  0  0  0  0  0  0  0  0  0  0
   58.1590   22.5790   45.0400 C   0  0  0  0  0  0  0  0  0  0  0  0
   54.3382   24.5623   46.3947 H   0  0  0  0  0  0  0  0  0  0  0  0
   53.9940   25.6403   44.9997 H   0  0  0  0  0  0  0  0  0  0  0  0
   55.4686   24.6146   44.9997 H   0  0  0  0  0  0  0  0  0  0  0  0
   55.4873   28.8023   45.3556 H   0  0  0  0  0  0  0  0  0  0  0  0
   57.8422   30.4641   43.1536 H   0  0  0  0  0  0  0  0  0  0  0  0
   56.2813   30.5883   44.0443 H   0  0  0  0  0  0  0  0  0  0  0  0
   57.9887   29.9397   46.7551 H   0  0  0  0  0  0  0  0  0  0  0  0
   58.9624   31.5649   48.3665 H   0  0  0  0  0  0  0  0  0  0  0  0
   59.4369   33.7919   48.9480 H   0  0  0  0  0  0  0  0  0  0  0  0
   60.7406   34.2157   47.7872 H   0  0  0  0  0  0  0  0  0  0  0  0
   59.2019   35.1425   47.7872 H   0  0  0  0  0  0  0  0  0  0  0  0
   59.2400   35.6422   45.9934 H   0  0  0  0  0  0  0  0  0  0  0  0
   60.0170   34.9775   44.5165 H   0  0  0  0  0  0  0  0  0  0  0  0
   58.2599   35.3508   44.5165 H   0  0  0  0  0  0  0  0  0  0  0  0
   58.0517   32.9595   43.6568 H   0  0  0  0  0  0  0  0  0  0  0  0
   59.5857   28.8043   43.9749 H   0  0  0  0  0  0  0  0  0  0  0  0
   59.8515   26.4550   44.7462 H   0  0  0  0  0  0  0  0  0  0  0  0
   59.1033   24.6658   46.0378 H   0  0  0  0  0  0  0  0  0  0  0  0
   57.5182   24.7756   46.9503 H   0  0  0  0  0  0  0  0  0  0  0  0
   56.5303   25.2586   43.7897 H   0  0  0  0  0  0  0  0  0  0  0  0
   58.0878   24.5617   43.2210 H   0  0  0  0  0  0  0  0  0  0  0  0
   55.3738   23.6656   42.6712 H   0  0  0  0  0  0  0  0  0  0  0  0
   56.9514   23.0357   42.0280 H   0  0  0  0  0  0  0  0  0  0  0  0
   57.3302   20.6264   44.6022 H   0  0  0  0  0  0  0  0  0  0  0  0
   58.1016   21.4627   43.1942 H   0  0  0  0  0  0  0  0  0  0  0  0
   58.1978   22.1430   46.0491 H   0  0  0  0  0  0  0  0  0  0  0  0
   59.1776   22.7759   44.6745 H   0  0  0  0  0  0  0  0  0  0  0  0
  1  2  1  0
  2  3  1  0
  3  4  2  0
  4  5  1  0
  5  6  1  0
  6  7  1  0
  7  8  2  0
  8  9  1  0
  9 10  2  0
 10 11  1  0
 10 12  1  0
 12 13  1  0
 12 14  2  0
  5 15  2  0
 15 16  1  0
 16 17  2  0
 17 18  1  0
 18 19  1  0
 19 20  1  0
 20 21  1  0
 21 22  1  0
 22 23  1  0
 23 24  1  0
 17  3  1  0
 24 19  1  0
 14  7  1  0
  1 25  1  0
  1 26  1  0
  1 27  1  0
  4 28  1  0
  6 29  1  0
  6 30  1  0
  8 31  1  0
  9 32  1  0
 11 33  1  0
 11 34  1  0
 11 35  1  0
 13 36  1  0
 13 37  1  0
 13 38  1  0
 14 39  1  0
 15 40  1  0
 16 41  1  0
 18 42  1  0
 18 43  1  0
 20 44  1  0
 20 45  1  0
 21 46  1  0
 21 47  1  0
 23 48  1  0
 23 49  1  0
 24 50  1  0
 24 51  1  0
M  END
>  <UniqueID>  (1) 
1

>  <SMILES>  (1) 
COc1cc(Cc2ccc(C)c(C)c2)ccc1CN1CCOCC1

>  <Energy>  (1) 
61.87052528540371

>  <Genealogy>  (1) 
COc1cc(Cc2ccc(C)c(C)c2)ccc1CN1CCOCC1 (3D coordinates assigned)
COc1cc(Cc2ccc(C)c(C)c2)ccc1CN1CCOCC1 (nonaromatic ring conformer: 61.87052528540371 kcal/mol)

>  <smiles>  (1) 
COc1cc(Cc2ccc(C)c(C)c2)ccc1CN1CCOCC1

>  <score_type>  (1) 
oracle

>  <origin>  (1) 
adg

>  <m_score__min__energy>  (1) 
-8.2799999999999994

>  <m_primary>  (1) 
energy

$$$$
1:0
     RDKit          3D

 70 72  0  0  0  0  0  0  0  0999 V2000
   61.1260   28.3780   50.2350 C   0  0  0  0  0  0  0  0  0  0  0  0
   61.2720   29.7660   50.8670 C   0  0  0  0  0  0  0  0  0  0  0  0
   62.2830   30.5920   50.1890 N   0  0  0  0  0  0  0  0  0  0  0  0
   63.4790   30.8060   51.0200 C   0  0  0  0  0  0  0  0  0  0  0  0
   64.5050   31.6690   50.2730 C   0  0  0  0  0  0  0  0  0  0  0  0
   63.9560   33.0540   49.8630 C   0  0  0  0  0  0  0  0  0  0  0  0
   62.9910   32.9700   48.7540 N   0  0  0  0  0  0  0  0  0  0  0  0
   63.5090   32.1530   47.6470 C   0  0  0  0  0  0  0  0  0  0  0  0
   62.4360   31.1900   47.1200 C   0  0  0  0  0  0  0  0  0  0  0  0
   61.0900   31.4980   47.6520 N   0  0  0  0  0  0  0  0  0  0  0  0
   60.0320   31.1960   46.6910 C   0  0  0  0  0  0  0  0  0  0  0  0
   59.6920   29.8260   46.4590 C   0  0  0  0  0  0  0  0  0  0  0  0
   60.3590   28.7610   47.1260 C   0  0  0  0  0  0  0  0  0  0  0  0
   59.9790   27.4350   46.9400 C   0  0  0  0  0  0  0  0  0  0  0  0
   58.9240   27.1260   46.0960 C   0  0  0  0  0  0  0  0  0  0  0  0
   58.2700   28.1400   45.4050 C   0  0  0  0  0  0  0  0  0  0  0  0
   58.6640   29.4980   45.5380 C   0  0  0  0  0  0  0  0  0  0  0  0
   58.0540   30.4830   44.8010 N   0  0  0  0  0  0  0  0  0  0  0  0
   57.2510   30.1170   43.6100 C   0  0  0  0  0  0  0  0  0  0  0  0
   58.2140   31.8090   45.1420 C   0  0  0  0  0  0  0  0  0  0  0  0
   57.3180   32.7780   44.6290 C   0  0  0  0  0  0  0  0  0  0  0  0
   57.5080   34.1260   44.8540 C   0  0  0  0  0  0  0  0  0  0  0  0
   58.5920   34.5570   45.5890 C   0  0  0  0  0  0  0  0  0  0  0  0
   59.4760   33.6420   46.1860 C   0  0  0  0  0  0  0  0  0  0  0  0
   60.5800   34.1500   46.8860 O   0  0  0  0  0  0  0  0  0  0  0  0
   60.6000   34.6140   48.2390 C   0  0  0  0  0  0  0  0  0  0  0  0
   59.5140   33.9250   49.0720 C   0  0  0  0  0  0  0  0  0  0  0  0
   60.0510   32.7320   49.7610 N   0  0  0  0  0  0  0  0  0  0  0  0
   59.0060   31.7120   49.9440 C   0  0  0  0  0  0  0  0  0  0  0  0
   60.6220   33.0970   51.0670 C   0  0  0  0  0  0  0  0  0  0  0  0
   59.2670   32.2240   46.0220 C   0  0  0  0  0  0  0  0  0  0  0  0
   61.0463   27.6204   51.0285 H   0  0  0  0  0  0  0  0  0  0  0  0
   60.2202   28.3525   49.6114 H   0  0  0  0  0  0  0  0  0  0  0  0
   62.0067   28.1646   49.6114 H   0  0  0  0  0  0  0  0  0  0  0  0
   60.3018   30.2816   50.8132 H   0  0  0  0  0  0  0  0  0  0  0  0
   61.5993   29.6258   51.9078 H   0  0  0  0  0  0  0  0  0  0  0  0
   61.8660   31.5200   49.9460 H   0  0  0  0  0  0  0  0  0  0  0  0
   63.1870   31.3148   51.9505 H   0  0  0  0  0  0  0  0  0  0  0  0
   63.9332   29.8304   51.2478 H   0  0  0  0  0  0  0  0  0  0  0  0
   65.3771   31.8186   50.9265 H   0  0  0  0  0  0  0  0  0  0  0  0
   64.7671   31.1355   49.3474 H   0  0  0  0  0  0  0  0  0  0  0  0
   63.4567   33.5074   50.7320 H   0  0  0  0  0  0  0  0  0  0  0  0
   64.8057   33.6639   49.5224 H   0  0  0  0  0  0  0  0  0  0  0  0
   62.1400   32.4970   49.1380 H   0  0  0  0  0  0  0  0  0  0  0  0
   63.8284   32.8166   46.8299 H   0  0  0  0  0  0  0  0  0  0  0  0
   64.3577   31.5600   48.0185 H   0  0  0  0  0  0  0  0  0  0  0  0
   62.4066   31.2605   46.0227 H   0  0  0  0  0  0  0  0  0  0  0  0
   62.7036   30.1761   47.4522 H   0  0  0  0  0  0  0  0  0  0  0  0
   60.9370   30.9370   48.5190 H   0  0  0  0  0  0  0  0  0  0  0  0
   61.0500   32.4480   48.0610 H   0  0  0  0  0  0  0  0  0  0  0  0
   61.1941   28.9907   47.8042 H   0  0  0  0  0  0  0  0  0  0  0  0
   60.5169   26.6310   47.4637 H   0  0  0  0  0  0  0  0  0  0  0  0
   58.6047   26.0806   45.9730 H   0  0  0  0  0  0  0  0  0  0  0  0
   57.4303   27.8852   44.7418 H   0  0  0  0  0  0  0  0  0  0  0  0
   56.2941   29.6809   43.9328 H   0  0  0  0  0  0  0  0  0  0  0  0
   57.0590   31.0165   43.0067 H   0  0  0  0  0  0  0  0  0  0  0  0
   57.8040   29.3820   43.0067 H   0  0  0  0  0  0  0  0  0  0  0  0
   56.4509   32.4487   44.0377 H   0  0  0  0  0  0  0  0  0  0  0  0
   56.7942   34.8572   44.4468 H   0  0  0  0  0  0  0  0  0  0  0  0
   58.7680   35.6360   45.7102 H   0  0  0  0  0  0  0  0  0  0  0  0
   61.5840   34.3957   48.6796 H   0  0  0  0  0  0  0  0  0  0  0  0
   60.4086   35.6972   48.2408 H   0  0  0  0  0  0  0  0  0  0  0  0
   59.1333   34.6330   49.8229 H   0  0  0  0  0  0  0  0  0  0  0  0
   58.7054   33.6058   48.3980 H   0  0  0  0  0  0  0  0  0  0  0  0
   58.8379   31.5480   51.0186 H   0  0  0  0  0  0  0  0  0  0  0  0
   58.0722   32.0556   49.4751 H   0  0  0  0  0  0  0  0  0  0  0  0
   59.3269   30.7701   49.4751 H   0  0  0  0  0  0  0  0  0  0  0  0
   59.9887   32.6922   51.8701 H   0  0  0  0  0  0  0  0  0  0  0  0
   61.6358   32.6791   51.1536 H   0  0  0  0  0  0  0  0  0  0  0  0
   60.6684   34.1926   51.1536 H   0  0  0  0  0  0  0  0  0  0  0  0
  1  2  1  0
  2  3  1  0
  3  4  1  0
  4  5  1  0
  5  6  1  0
  6  7  1  0
  7  8  1  0
  8  9  1  0
  9 10  1  0
 10 11  1  0
 11 12  2  0
 12 13  1  0
 13 14  2  0
 14 15  1  0
 15 16  2  0
 16 17  1  0
 17 18  2  0
 18 19  1  0
 18 20  1  0
 20 21  2  0
 21 22  1  0
 22 23  2  0
 23 24  1  0
 24 25  1  0
 25 26  1  0
 26 27  1  0
 27 28  1  0
 28 29  1  0
 28 30  1  0
 24 31  2  0
 31 11  1  0
 17 12  1  0
 31 20  1  0
  1 32  1  0
  1 33  1  0
  1 34  1  0
  2 35  1  0
  2 36  1  0
  3 37  1  0
  4 38  1  0
  4 39  1  0
  5 40  1  0
  5 41  1  0
  6 42  1  0
  6 43  1  0
  7 44  1  0
  8 45  1  0
  8 46  1  0
  9 47  1  0
  9 48  1  0
 10 49  1  0
 10 50  1  0
 13 51  1  0
 14 52  1  0
 15 53  1  0
 16 54  1  0
 19 55  1  0
 19 56  1  0
 19 57  1  0
 21 58  1  0
 22 59  1  0
 23 60  1  0
 26 61  1  0
 26 62  1  0
 27 63  1  0
 27 64  1  0
 29 65  1  0
 29 66  1  0
 29 67  1  0
 30 68  1  0
 30 69  1  0
 30 70  1  0
M  CHG  2  10   1  18   1
M  END
>  <UniqueID>  (2) 
2

>  <SMILES>  (2) 
CCNCCCNCC[NH2+]c1c2ccccc2[n+](C)c2cccc(OCCN(C)C)c12

>  <Energy>  (2) 
102.89014217357182

>  <Genealogy>  (2) 
CCNCCCNCC[NH2+]c1c2ccccc2[n+](C)c2cccc(OCCN(C)C)c12 (protonated)
CCNCCCNCC[NH2+]c1c2ccccc2[n+](C)c2cccc(OCCN(C)C)c12 (3D coordinates assigned)
CCNCCCNCC[NH2+]c1c2ccccc2[n+](C)c2cccc(OCCN(C)C)c12 (optimized conformer: 102.89014217357182 kcal/mol)

>  <smiles>  (2) 
CCNCCCNCCNc1c2ccccc2[n+](C)c2cccc(OCCN(C)C)c12

>  <score_type>  (2) 
oracle

>  <origin>  (2) 
adg

>  <m_score__min__energy>  (2) 
-3.8999999999999999

>  <m_primary>  (2) 
energy

$$$$
2:0
     RDKit          3D

 45 46  0  0  0  0  0  0  0  0999 V2000
   55.1320   23.5490   44.1610 C   0  0  0  0  0  0  0  0  0  0  0  0
   54.1860   24.3300   45.0660 C   0  0  0  0  0  0  0  0  0  0  0  0
   54.9250   25.3750   45.7840 N   0  0  0  0  0  0  0  0  0  0  0  0
   55.9130   24.7720   46.6860 C   0  0  0  0  0  0  0  0  0  0  0  0
   57.1770   25.6330   46.7430 C   0  0  0  0  0  0  0  0  0  0  0  0
   57.2420   26.5540   45.6080 N   0  0  0  0  0  0  0  0  0  0  0  0
   58.4610   27.2240   45.2600 C   0  0  0  0  0  0  0  0  0  0  0  0
   59.5310   26.9460   45.8650 O   0  0  0  0  0  0  0  0  0  0  0  0
   58.4780   28.2420   44.1540 C   0  0  0  0  0  0  0  0  0  0  0  0
   58.3140   29.6490   44.7040 C   0  0  0  0  0  0  0  0  0  0  0  0
   57.1340   30.3740   44.4230 C   0  0  0  0  0  0  0  0  0  0  0  0
   55.8530   29.7360   43.3970 Cl  0  0  0  0  0  0  0  0  0  0  0  0
   56.9510   31.6120   44.9400 N   0  0  0  0  0  0  0  0  0  0  0  0
   57.8640   32.2090   45.7410 C   0  0  0  0  0  0  0  0  0  0  0  0
   57.5890   33.4780   46.2620 C   0  0  0  0  0  0  0  0  0  0  0  0
   58.5040   34.1070   47.1040 C   0  0  0  0  0  0  0  0  0  0  0  0
   59.7080   33.4680   47.4450 C   0  0  0  0  0  0  0  0  0  0  0  0
   60.6530   34.0540   48.3010 O   0  0  0  0  0  0  0  0  0  0  0  0
   62.0530   33.7930   48.2540 C   0  0  0  0  0  0  0  0  0  0  0  0
   59.9860   32.2000   46.9200 C   0  0  0  0  0  0  0  0  0  0  0  0
   59.0770   31.5550   46.0500 C   0  0  0  0  0  0  0  0  0  0  0  0
   59.3330   30.2760   45.4810 C   0  0  0  0  0  0  0  0  0  0  0  0
   60.6650   29.5950   45.7290 C   0  0  0  0  0  0  0  0  0  0  0  0
   55.8343   22.9692   44.7779 H   0  0  0  0  0  0  0  0  0  0  0  0
   54.5503   22.8645   43.5260 H   0  0  0  0  0  0  0  0  0  0  0  0
   55.6939   24.2497   43.5260 H   0  0  0  0  0  0  0  0  0  0  0  0
   53.3988   24.7954   44.4547 H   0  0  0  0  0  0  0  0  0  0  0  0
   53.7346   23.6416   45.7956 H   0  0  0  0  0  0  0  0  0  0  0  0
   54.2380   25.9080   46.3700 H   0  0  0  0  0  0  0  0  0  0  0  0
   55.4822   24.6930   47.6950 H   0  0  0  0  0  0  0  0  0  0  0  0
   56.1778   23.7730   46.3094 H   0  0  0  0  0  0  0  0  0  0  0  0
   57.1733   26.2143   47.6769 H   0  0  0  0  0  0  0  0  0  0  0  0
   58.0528   24.9687   46.7028 H   0  0  0  0  0  0  0  0  0  0  0  0
   56.3820   26.7500   45.0470 H   0  0  0  0  0  0  0  0  0  0  0  0
   59.4365   28.1749   43.6185 H   0  0  0  0  0  0  0  0  0  0  0  0
   57.6397   28.0327   43.4732 H   0  0  0  0  0  0  0  0  0  0  0  0
   56.6454   33.9819   46.0056 H   0  0  0  0  0  0  0  0  0  0  0  0
   58.2828   35.1078   47.5033 H   0  0  0  0  0  0  0  0  0  0  0  0
   62.4469   33.7196   49.2784 H   0  0  0  0  0  0  0  0  0  0  0  0
   62.2318   32.8460   47.7236 H   0  0  0  0  0  0  0  0  0  0  0  0
   62.5611   34.6119   47.7236 H   0  0  0  0  0  0  0  0  0  0  0  0
   60.9269   31.6975   47.1888 H   0  0  0  0  0  0  0  0  0  0  0  0
   60.8361   29.5075   46.8121 H   0  0  0  0  0  0  0  0  0  0  0  0
   60.6537   28.5920   45.2774 H   0  0  0  0  0  0  0  0  0  0  0  0
   61.4714   30.1914   45.2774 H   0  0  0  0  0  0  0  0  0  0  0  0
  1  2  1  0
  2  3  1  0
  3  4  1  0
  4  5  1  0
  5  6  1  0
  6  7  1  0
  7  8  2  0
  7  9  1  0
  9 10  1  0
 10 11  2  0
 11 12  1  0
 11 13  1  0
 13 14  2  0
 14 15  1  0
 15 16  2  0
 16 17  1  0
 17 18  1  0
 18 19  1  0
 17 20  2  0
 20 21  1  0
 21 22  2  0
 22 23  1  0
 22 10  1  0
 21 14  1  0
  1 24  1  0
  1 25  1  0
  1 26  1  0
  2 27  1  0
  2 28  1  0
  3 29  1  0
  4 30  1  0
  4 31  1  0
  5 32  1  0
  5 33  1  0
  6 34  1  0
  9 35  1  0
  9 36  1  0
 15 37  1  0
 16 38  1  0
 19 39  1  0
 19 40  1  0
 19 41  1  0
 20 42  1  0
 23 43  1  0
 23 44  1  0
 23 45  1  0
M  END
>  <UniqueID>  (3) 
3

>  <SMILES>  (3) 
CCNCCNC(=O)Cc1c(Cl)nc2ccc(OC)cc2c1C

>  <Energy>  (3) 
44.35806243334361

>  <Genealogy>  (3) 
CCNCCNC(=O)Cc1c(Cl)nc2ccc(OC)cc2c1C (3D coordinates assigned)
CCNCCNC(=O)Cc1c(Cl)nc2ccc(OC)cc2c1C (optimized conformer: 44.35806243334361 kcal/mol)

>  <smiles>  (3) 
CCNCCNC(=O)Cc1c(Cl)nc2ccc(OC)cc2c1C

>  <score_type>  (3) 
oracle

>  <origin>  (3) 
adg

>  <m_score__min__energy>  (3) 
-7.7000000000000002

>  <m_primary>  (3) 
energy

$$$$
3:0
     RDKit          3D

 65 67  0  0  0  0  0  0  0  0999 V2000
   55.7200   25.0130   45.6280 C   0  0  0  0  0  0  0  0  0  0  0  0
   56.7190   25.5050   46.6760 C   0  0  0  0  0  0  0  0  0  0  0  0
   57.3520   26.7830   46.2770 N   0  0  0  0  0  0  0  0  0  0  0  0
   57.6560   26.7800   44.8310 C   0  0  0  0  0  0  0  0  0  0  0  0
   58.5840   27.0100   47.0710 C   0  0  0  0  0  0  0  0  0  0  0  0
   59.0000   28.4920   47.0930 C   0  0  0  0  0  0  0  0  0  0  0  0
   57.9240   29.3710   46.6230 N   0  0  0  0  0  0  0  0  0  0  0  0
   58.1530   30.7230   46.1840 C   0  0  0  0  0  0  0  0  0  0  0  0
   57.8410   31.0900   44.8640 C   0  0  0  0  0  0  0  0  0  0  0  0
   57.2540   30.1600   43.9770 C   0  0  0  0  0  0  0  0  0  0  0  0
   57.0100   30.5000   42.6480 C   0  0  0  0  0  0  0  0  0  0  0  0
   57.3540   31.7620   42.1780 C   0  0  0  0  0  0  0  0  0  0  0  0
   57.9250   32.7000   43.0370 C   0  0  0  0  0  0  0  0  0  0  0  0
   58.1570   32.3980   44.4030 C   0  0  0  0  0  0  0  0  0  0  0  0
   58.7110   33.3230   45.2690 N   0  0  0  0  0  0  0  0  0  0  0  0
   58.7960   34.7480   44.8730 C   0  0  0  0  0  0  0  0  0  0  0  0
   59.1380   32.9290   46.5240 C   0  0  0  0  0  0  0  0  0  0  0  0
   59.9460   33.7670   47.3340 C   0  0  0  0  0  0  0  0  0  0  0  0
   60.2890   33.4070   48.6400 C   0  0  0  0  0  0  0  0  0  0  0  0
   61.1200   34.2710   49.3680 O   0  0  0  0  0  0  0  0  0  0  0  0
   61.8880   33.8910   50.5080 C   0  0  0  0  0  0  0  0  0  0  0  0
   63.3940   34.0250   50.1940 C   0  0  0  0  0  0  0  0  0  0  0  0
   64.0000   32.8760   49.4470 N   0  0  0  0  0  0  0  0  0  0  0  0
   65.4440   32.7420   49.7630 C   0  0  0  0  0  0  0  0  0  0  0  0
   63.3050   31.5990   49.7400 C   0  0  0  0  0  0  0  0  0  0  0  0
   63.8680   33.1520   47.9960 C   0  0  0  0  0  0  0  0  0  0  0  0
   59.8000   32.2080   49.1710 C   0  0  0  0  0  0  0  0  0  0  0  0
   59.0560   31.3410   48.3750 C   0  0  0  0  0  0  0  0  0  0  0  0
   58.7840   31.6530   47.0290 C   0  0  0  0  0  0  0  0  0  0  0  0
   54.8428   24.5810   46.1319 H   0  0  0  0  0  0  0  0  0  0  0  0
   55.4025   25.8578   44.9991 H   0  0  0  0  0  0  0  0  0  0  0  0
   56.1961   24.2463   44.9991 H   0  0  0  0  0  0  0  0  0  0  0  0
   56.1908   25.6520   47.6296 H   0  0  0  0  0  0  0  0  0  0  0  0
   57.5110   24.7480   46.7745 H   0  0  0  0  0  0  0  0  0  0  0  0
   58.7463   26.7692   44.6856 H   0  0  0  0  0  0  0  0  0  0  0  0
   57.2151   25.8862   44.3655 H   0  0  0  0  0  0  0  0  0  0  0  0
   57.2329   27.6824   44.3655 H   0  0  0  0  0  0  0  0  0  0  0  0
   58.4053   26.6774   48.1042 H   0  0  0  0  0  0  0  0  0  0  0  0
   59.3978   26.4390   46.6002 H   0  0  0  0  0  0  0  0  0  0  0  0
   59.2628   28.7720   48.1238 H   0  0  0  0  0  0  0  0  0  0  0  0
   59.8589   28.6142   46.4167 H   0  0  0  0  0  0  0  0  0  0  0  0
   56.9620   28.9720   46.5220 H   0  0  0  0  0  0  0  0  0  0  0  0
   56.9867   29.1565   44.3396 H   0  0  0  0  0  0  0  0  0  0  0  0
   56.5448   29.7691   41.9702 H   0  0  0  0  0  0  0  0  0  0  0  0
   57.1750   32.0217   41.1242 H   0  0  0  0  0  0  0  0  0  0  0  0
   58.2003   33.6916   42.6484 H   0  0  0  0  0  0  0  0  0  0  0  0
   58.8335   35.3774   45.7743 H   0  0  0  0  0  0  0  0  0  0  0  0
   59.7053   34.9089   44.2753 H   0  0  0  0  0  0  0  0  0  0  0  0
   57.9122   35.0158   44.2753 H   0  0  0  0  0  0  0  0  0  0  0  0
   60.3106   34.7210   46.9254 H   0  0  0  0  0  0  0  0  0  0  0  0
   61.6322   34.5448   51.3548 H   0  0  0  0  0  0  0  0  0  0  0  0
   61.6627   32.8454   50.7649 H   0  0  0  0  0  0  0  0  0  0  0  0
   63.5353   34.9340   49.5909 H   0  0  0  0  0  0  0  0  0  0  0  0
   63.9048   34.0564   51.1677 H   0  0  0  0  0  0  0  0  0  0  0  0
   65.5809   32.7293   50.8544 H   0  0  0  0  0  0  0  0  0  0  0  0
   65.8277   31.8044   49.3344 H   0  0  0  0  0  0  0  0  0  0  0  0
   65.9936   33.5930   49.3344 H   0  0  0  0  0  0  0  0  0  0  0  0
   63.2311   31.4633   50.8291 H   0  0  0  0  0  0  0  0  0  0  0  0
   62.2953   31.6226   49.3041 H   0  0  0  0  0  0  0  0  0  0  0  0
   63.8731   30.7640   49.3041 H   0  0  0  0  0  0  0  0  0  0  0  0
   63.3975   34.1357   47.8512 H   0  0  0  0  0  0  0  0  0  0  0  0
   64.8645   33.1500   47.5302 H   0  0  0  0  0  0  0  0  0  0  0  0
   63.2440   32.3750   47.5302 H   0  0  0  0  0  0  0  0  0  0  0  0
   60.0041   31.9497   50.2206 H   0  0  0  0  0  0  0  0  0  0  0  0
   58.6763   30.4013   48.8026 H   0  0  0  0  0  0  0  0  0  0  0  0
  1  2  1  0
  2  3  1  0
  3  4  1  0
  3  5  1  0
  5  6  1  0
  6  7  1  0
  7  8  1  0
  8  9  2  0
  9 10  1  0
 10 11  2  0
 11 12  1  0
 12 13  2  0
 13 14  1  0
 14 15  2  0
 15 16  1  0
 15 17  1  0
 17 18  2  0
 18 19  1  0
 19 20  1  0
 20 21  1  0
 21 22  1  0
 22 23  1  0
 23 24  1  0
 23 25  1  0
 23 26  1  0
 19 27  2  0
 27 28  1  0
 28 29  2  0
 29  8  1  0
 14  9  1  0
 29 17  1  0
  1 30  1  0
  1 31  1  0
  1 32  1  0
  2 33  1  0
  2 34  1  0
  4 35  1  0
  4 36  1  0
  4 37  1  0
  5 38  1  0
  5 39  1  0
  6 40  1  0
  6 41  1  0
  7 42  1  0
 10 43  1  0
 11 44  1  0
 12 45  1  0
 13 46  1  0
 16 47  1  0
 16 48  1  0
 16 49  1  0
 18 50  1  0
 21 51  1  0
 21 52  1  0
 22 53  1  0
 22 54  1  0
 24 55  1  0
 24 56  1  0
 24 57  1  0
 25 58  1  0
 25 59  1  0
 25 60  1  0
 26 61  1  0
 26 62  1  0
 26 63  1  0
 27 64  1  0
 28 65  1  0
M  CHG  2  15   1  23   1
M  END
>  <UniqueID>  (4) 
4

>  <SMILES>  (4) 
CCN(C)CCNc1c2ccccc2[n+](C)c2cc(OCC[N+](C)(C)C)ccc12

>  <Energy>  (4) 
94.41668115578062

>  <Genealogy>  (4) 
CCN(C)CCNc1c2ccccc2[n+](C)c2cc(OCC[N+](C)(C)C)ccc12 (3D coordinates assigned)
CCN(C)CCNc1c2ccccc2[n+](C)c2cc(OCC[N+](C)(C)C)ccc12 (optimized conformer: 94.41668115578062 kcal/mol)

>  <smiles>  (4) 
CCN(C)CCNc1c2ccccc2[n+](C)c2cc(OCC[N+](C)(C)C)ccc12

>  <score_type>  (4) 
oracle

>  <origin>  (4) 
adg

>  <m_score__min__energy>  (4) 
-4.2999999999999998

>  <m_primary>  (4) 
energy

$$$$
4:0
     RDKit          3D

 48 50  0  0  0  0  0  0  0  0999 V2000
   64.1890   32.3550   49.4290 C   0  0  0  0  0  0  0  0  0  0  0  0
   62.7700   32.2880   49.9840 C   0  0  0  0  0  0  0  0  0  0  0  0
   61.8770   31.4920   49.0800 C   0  0  0  0  0  0  0  0  0  0  0  0
   61.4070   30.2570   49.3750 N   0  0  0  0  0  0  0  0  0  0  0  0
   60.6060   29.9370   48.3380 C   0  0  0  0  0  0  0  0  0  0  0  0
   59.8960   28.7500   48.1830 C   0  0  0  0  0  0  0  0  0  0  0  0
   59.1210   28.6010   47.0220 C   0  0  0  0  0  0  0  0  0  0  0  0
   59.0780   29.6260   46.0470 C   0  0  0  0  0  0  0  0  0  0  0  0
   58.2570   29.4570   44.7870 C   0  0  0  0  0  0  0  0  0  0  0  0
   57.1510   30.4320   44.6550 N   0  0  0  0  0  0  0  0  0  0  0  0
   55.8390   29.7850   44.4980 C   0  0  0  0  0  0  0  0  0  0  0  0
   57.3830   31.4150   43.5850 C   0  0  0  0  0  0  0  0  0  0  0  0
   59.8120   30.8080   46.2710 C   0  0  0  0  0  0  0  0  0  0  0  0
   60.5400   30.9100   47.4120 N   0  0  0  0  0  0  0  0  0  0  0  0
   61.3340   31.8960   47.8680 C   0  0  0  0  0  0  0  0  0  0  0  0
   61.5180   33.1710   47.2330 N   0  0  0  0  0  0  0  0  0  0  0  0
   62.8260   33.4920   46.6540 C   0  0  0  0  0  0  0  0  0  0  0  0
   60.5570   34.2420   47.5190 C   0  0  0  0  0  0  0  0  0  0  0  0
   59.3280   34.1170   46.6690 C   0  0  0  0  0  0  0  0  0  0  0  0
   59.1740   34.6010   45.3760 C   0  0  0  0  0  0  0  0  0  0  0  0
   57.8910   34.3880   44.8590 C   0  0  0  0  0  0  0  0  0  0  0  0
   57.0330   33.7440   45.7410 C   0  0  0  0  0  0  0  0  0  0  0  0
   57.8710   33.4440   47.1690 S   0  0  0  0  0  0  0  0  0  0  0  0
   64.9071   32.3889   50.2616 H   0  0  0  0  0  0  0  0  0  0  0  0
   64.3840   31.4651   48.8126 H   0  0  0  0  0  0  0  0  0  0  0  0
   64.2993   33.2594   48.8126 H   0  0  0  0  0  0  0  0  0  0  0  0
   62.7936   31.8129   50.9758 H   0  0  0  0  0  0  0  0  0  0  0  0
   62.3732   33.3114   50.0566 H   0  0  0  0  0  0  0  0  0  0  0  0
   61.6130   29.6810   50.2220 H   0  0  0  0  0  0  0  0  0  0  0  0
   59.9406   27.9565   48.9435 H   0  0  0  0  0  0  0  0  0  0  0  0
   58.5415   27.6787   46.8686 H   0  0  0  0  0  0  0  0  0  0  0  0
   58.9250   29.5720   43.9206 H   0  0  0  0  0  0  0  0  0  0  0  0
   57.7976   28.4588   44.8374 H   0  0  0  0  0  0  0  0  0  0  0  0
   55.4128   29.5748   45.4900 H   0  0  0  0  0  0  0  0  0  0  0  0
   55.1644   30.4538   43.9433 H   0  0  0  0  0  0  0  0  0  0  0  0
   55.9589   28.8427   43.9433 H   0  0  0  0  0  0  0  0  0  0  0  0
   57.6140   32.3940   44.0302 H   0  0  0  0  0  0  0  0  0  0  0  0
   58.2283   31.0867   42.9624 H   0  0  0  0  0  0  0  0  0  0  0  0
   56.4801   31.4993   42.9624 H   0  0  0  0  0  0  0  0  0  0  0  0
   59.7953   31.6285   45.5385 H   0  0  0  0  0  0  0  0  0  0  0  0
   63.5509   33.6699   47.4620 H   0  0  0  0  0  0  0  0  0  0  0  0
   63.1683   32.6512   46.0328 H   0  0  0  0  0  0  0  0  0  0  0  0
   62.7402   34.3957   46.0328 H   0  0  0  0  0  0  0  0  0  0  0  0
   60.2662   34.1881   48.5785 H   0  0  0  0  0  0  0  0  0  0  0  0
   61.0365   35.2060   47.2939 H   0  0  0  0  0  0  0  0  0  0  0  0
   59.9782   35.1005   44.8158 H   0  0  0  0  0  0  0  0  0  0  0  0
   57.5902   34.7014   43.8484 H   0  0  0  0  0  0  0  0  0  0  0  0
   55.9852   33.4760   45.5404 H   0  0  0  0  0  0  0  0  0  0  0  0
  1  2  1  0
  2  3  1  0
  3  4  1  0
  4  5  2  0
  5  6  1  0
  6  7  2  0
  7  8  1  0
  8  9  1  0
  9 10  1  0
 10 11  1  0
 10 12  1  0
  8 13  2  0
 13 14  1  0
 14 15  1  0
 15 16  1  0
 16 17  1  0
 16 18  1  0
 18 19  1  0
 19 20  2  0
 20 21  1  0
 21 22  2  0
 22 23  1  0
 15  3  2  0
 23 19  1  0
 14  5  1  0
  1 24  1  0
  1 25  1  0
  1 26  1  0
  2 27  1  0
  2 28  1  0
  4 29  1  0
  6 30  1  0
  7 31  1  0
  9 32  1  0
  9 33  1  0
 11 34  1  0
 11 35  1  0
 11 36  1  0
 12 37  1  0
 12 38  1  0
 12 39  1  0
 13 40  1  0
 17 41  1  0
 17 42  1  0
 17 43  1  0
 18 44  1  0
 18 45  1  0
 20 46  1  0
 21 47  1  0
 22 48  1  0
M  CHG  1   4   1
M  END
>  <UniqueID>  (5) 
5

>  <SMILES>  (5) 
CCc1[nH+]c2ccc(CN(C)C)cn2c1N(C)Cc1cccs1

>  <Energy>  (5) 
112.53561715831468

>  <Genealogy>  (5) 
CCc1[nH+]c2ccc(CN(C)C)cn2c1N(C)Cc1cccs1 (protonated)
CCc1[nH+]c2ccc(CN(C)C)cn2c1N(C)Cc1cccs1 (3D coordinates assigned)
CCc1[nH+]c2ccc(CN(C)C)cn2c1N(C)Cc1cccs1 (optimized conformer: 112.53561715831468 kcal/mol)

>  <smiles>  (5) 
CCc1nc2ccc(CN(C)C)cn2c1N(C)Cc1cccs1

>  <score_type>  (5) 
oracle

>  <origin>  (5) 
adg

>  <m_score__min__energy>  (5) 
-5.8399999999999999

>  <m_primary>  (5) 
energy

$$$$
5:0
     RDKit          3D

 62 64  0  0  0  0  0  0  0  0999 V2000
   56.9460   34.2890   45.1990 C   0  0  0  0  0  0  0  0  0  0  0  0
   58.3690   34.2870   44.6470 C   0  0  0  0  0  0  0  0  0  0  0  0
   59.2550   33.2030   45.2840 C   0  0  0  0  0  0  0  0  0  0  0  0
   58.5200   32.3840   46.2650 N   0  0  0  0  0  0  0  0  0  0  0  0
   58.5860   32.7480   47.6900 C   0  0  0  0  0  0  0  0  0  0  0  0
   59.3290   34.0780   47.9120 C   0  0  0  0  0  0  0  0  0  0  0  0
   60.0100   34.1490   49.2770 C   0  0  0  0  0  0  0  0  0  0  0  0
   58.0210   31.0870   45.8700 C   0  0  0  0  0  0  0  0  0  0  0  0
   57.0890   30.9820   44.8740 N   0  0  0  0  0  0  0  0  0  0  0  0
   56.5920   29.7700   44.4650 C   0  0  0  0  0  0  0  0  0  0  0  0
   55.6110   29.7160   43.3380 C   0  0  0  0  0  0  0  0  0  0  0  0
   57.0320   28.6140   45.0500 N   0  0  0  0  0  0  0  0  0  0  0  0
   57.9340   28.7110   46.0610 C   0  0  0  0  0  0  0  0  0  0  0  0
   58.4460   29.8990   46.4660 C   0  0  0  0  0  0  0  0  0  0  0  0
   59.3550   29.7060   47.4410 N   0  0  0  0  0  0  0  0  0  0  0  0
   59.3670   28.3560   47.5900 C   0  0  0  0  0  0  0  0  0  0  0  0
   58.5020   27.7160   46.7610 N   0  0  0  0  0  0  0  0  0  0  0  0
   58.2600   26.3000   46.6950 C   0  0  0  0  0  0  0  0  0  0  0  0
   59.1230   25.4610   45.9740 C   0  0  0  0  0  0  0  0  0  0  0  0
   58.8760   24.0870   45.9020 C   0  0  0  0  0  0  0  0  0  0  0  0
   57.7530   23.5330   46.5450 C   0  0  0  0  0  0  0  0  0  0  0  0
   57.4640   22.1610   46.5080 O   0  0  0  0  0  0  0  0  0  0  0  0
   57.4240   21.3780   45.3180 C   0  0  0  0  0  0  0  0  0  0  0  0
   56.0370   21.4870   44.6830 C   0  0  0  0  0  0  0  0  0  0  0  0
   56.1310   21.8150   43.2440 N   0  0  0  0  0  0  0  0  0  0  0  0
   57.3220   21.1760   42.6600 C   0  0  0  0  0  0  0  0  0  0  0  0
   56.2090   23.2720   43.0350 C   0  0  0  0  0  0  0  0  0  0  0  0
   56.8840   24.3760   47.2490 C   0  0  0  0  0  0  0  0  0  0  0  0
   57.1320   25.7500   47.3200 C   0  0  0  0  0  0  0  0  0  0  0  0
   56.9792   34.2890   46.2985 H   0  0  0  0  0  0  0  0  0  0  0  0
   56.4179   35.1879   44.8482 H   0  0  0  0  0  0  0  0  0  0  0  0
   56.4154   33.3916   44.8482 H   0  0  0  0  0  0  0  0  0  0  0  0
   58.3246   34.1115   43.5620 H   0  0  0  0  0  0  0  0  0  0  0  0
   58.8175   35.2628   44.8851 H   0  0  0  0  0  0  0  0  0  0  0  0
   59.6359   32.5453   44.4888 H   0  0  0  0  0  0  0  0  0  0  0  0
   60.0752   33.7083   45.8150 H   0  0  0  0  0  0  0  0  0  0  0  0
   57.5619   32.8441   48.0797 H   0  0  0  0  0  0  0  0  0  0  0  0
   59.1400   31.9573   48.2172 H   0  0  0  0  0  0  0  0  0  0  0  0
   60.0947   34.1887   47.1300 H   0  0  0  0  0  0  0  0  0  0  0  0
   58.5848   34.8869   47.8683 H   0  0  0  0  0  0  0  0  0  0  0  0
   59.2515   34.0699   50.0697 H   0  0  0  0  0  0  0  0  0  0  0  0
   60.7276   33.3208   49.3723 H   0  0  0  0  0  0  0  0  0  0  0  0
   60.5414   35.1074   49.3723 H   0  0  0  0  0  0  0  0  0  0  0  0
   54.5899   29.6598   43.7431 H   0  0  0  0  0  0  0  0  0  0  0  0
   55.7113   30.6210   42.7209 H   0  0  0  0  0  0  0  0  0  0  0  0
   55.8101   28.8275   42.7209 H   0  0  0  0  0  0  0  0  0  0  0  0
   56.6920   27.6860   44.7130 H   0  0  0  0  0  0  0  0  0  0  0  0
   60.0130   27.8329   48.3104 H   0  0  0  0  0  0  0  0  0  0  0  0
   59.9988   25.8868   45.4625 H   0  0  0  0  0  0  0  0  0  0  0  0
   59.5621   23.4359   45.3405 H   0  0  0  0  0  0  0  0  0  0  0  0
   58.1813   21.7470   44.6106 H   0  0  0  0  0  0  0  0  0  0  0  0
   57.6335   20.3264   45.5636 H   0  0  0  0  0  0  0  0  0  0  0  0
   55.5132   20.5266   44.7985 H   0  0  0  0  0  0  0  0  0  0  0  0
   55.4853   22.2934   45.1884 H   0  0  0  0  0  0  0  0  0  0  0  0
   57.9811   20.8224   43.4666 H   0  0  0  0  0  0  0  0  0  0  0  0
   57.0127   20.3227   42.0386 H   0  0  0  0  0  0  0  0  0  0  0  0
   57.8620   21.9055   42.0386 H   0  0  0  0  0  0  0  0  0  0  0  0
   56.2363   23.7813   44.0096 H   0  0  0  0  0  0  0  0  0  0  0  0
   57.1213   23.5130   42.4697 H   0  0  0  0  0  0  0  0  0  0  0  0
   55.3276   23.6090   42.4697 H   0  0  0  0  0  0  0  0  0  0  0  0
   56.0001   23.9540   47.7496 H   0  0  0  0  0  0  0  0  0  0  0  0
   56.4382   26.4033   47.8694 H   0  0  0  0  0  0  0  0  0  0  0  0
  1  2  1  0
  2  3  1  0
  3  4  1  0
  4  5  1  0
  5  6  1  0
  6  7  1  0
  4  8  1  0
  8  9  2  0
  9 10  1  0
 10 11  1  0
 10 12  2  0
 12 13  1  0
 13 14  2  0
 14 15  1  0
 15 16  2  0
 16 17  1  0
 17 18  1  0
 18 19  2  0
 19 20  1  0
 20 21  2  0
 21 22  1  0
 22 23  1  0
 23 24  1  0
 24 25  1  0
 25 26  1  0
 25 27  1  0
 21 28  1  0
 28 29  2  0
 14  8  1  0
 29 18  1  0
 17 13  1  0
  1 30  1  0
  1 31  1  0
  1 32  1  0
  2 33  1  0
  2 34  1  0
  3 35  1  0
  3 36  1  0
  5 37  1  0
  5 38  1  0
  6 39  1  0
  6 40  1  0
  7 41  1  0
  7 42  1  0
  7 43  1  0
 11 44  1  0
 11 45  1  0
 11 46  1  0
 12 47  1  0
 16 48  1  0
 19 49  1  0
 20 50  1  0
 23 51  1  0
 23 52  1  0
 24 53  1  0
 24 54  1  0
 26 55  1  0
 26 56  1  0
 26 57  1  0
 27 58  1  0
 27 59  1  0
 27 60  1  0
 28 61  1  0
 29 62  1  0
M  CHG  1  12   1
M  END
>  <UniqueID>  (6) 
6

>  <SMILES>  (6) 
CCCN(CCC)c1nc(C)[nH+]c2c1ncn2-c1ccc(OCCN(C)C)cc1

>  <Energy>  (6) 
99.94686854151634

>  <Genealogy>  (6) 
CCCN(CCC)c1nc(C)[nH+]c2c1ncn2-c1ccc(OCCN(C)C)cc1 (protonated)
CCCN(CCC)c1nc(C)[nH+]c2c1ncn2-c1ccc(OCCN(C)C)cc1 (3D coordinates assigned)
CCCN(CCC)c1nc(C)[nH+]c2c1ncn2-c1ccc(OCCN(C)C)cc1 (optimized conformer: 99.94686854151634 kcal/mol)

>  <smiles>  (6) 
CCCN(CCC)c1nc(C)nc2c1ncn2-c1ccc(OCCN(C)C)cc1

>  <score_type>  (6) 
oracle

>  <origin>  (6) 
adg

>  <m_score__min__energy>  (6) 
-6.04

>  <m_primary>  (6) 
energy

$$$$
6:0
     RDKit          3D

 55 57  0  0  0  0  0  0  0  0999 V2000
   56.2670   29.7540   42.6590 C   0  0  0  0  0  0  0  0  0  0  0  0
   56.9690   29.1970   43.8930 C   0  0  0  0  0  0  0  0  0  0  0  0
   56.7700   30.0560   45.0150 O   0  0  0  0  0  0  0  0  0  0  0  0
   57.4190   31.2850   45.2340 C   0  0  0  0  0  0  0  0  0  0  0  0
   56.8130   32.5200   44.9250 C   0  0  0  0  0  0  0  0  0  0  0  0
   57.4840   33.7190   45.1760 C   0  0  0  0  0  0  0  0  0  0  0  0
   58.7640   33.7050   45.7300 C   0  0  0  0  0  0  0  0  0  0  0  0
   59.6770   35.3470   46.0690 Br  0  0  0  0  0  0  0  0  0  0  0  0
   59.3780   32.4870   46.0340 C   0  0  0  0  0  0  0  0  0  0  0  0
   58.7140   31.2770   45.7900 C   0  0  0  0  0  0  0  0  0  0  0  0
   59.3740   30.0020   46.1290 C   0  0  0  0  0  0  0  0  0  0  0  0
   59.9100   29.1060   45.2220 C   0  0  0  0  0  0  0  0  0  0  0  0
   60.3510   28.0250   45.9580 C   0  0  0  0  0  0  0  0  0  0  0  0
   60.0940   28.2190   47.2670 N   0  0  0  0  0  0  0  0  0  0  0  0
   60.3840   27.2690   48.3370 C   0  0  0  0  0  0  0  0  0  0  0  0
   59.5040   29.4300   47.3880 C   0  0  0  0  0  0  0  0  0  0  0  0
   58.9000   29.9630   48.6590 C   0  0  0  0  0  0  0  0  0  0  0  0
   59.8450   30.8890   49.2960 N   0  0  0  0  0  0  0  0  0  0  0  0
   59.2600   32.2230   49.4840 C   0  0  0  0  0  0  0  0  0  0  0  0
   60.2680   33.3290   49.1090 C   0  0  0  0  0  0  0  0  0  0  0  0
   61.6200   32.8020   48.7900 N   0  0  0  0  0  0  0  0  0  0  0  0
   62.0900   33.2450   47.4540 C   0  0  0  0  0  0  0  0  0  0  0  0
   63.6180   33.1090   47.3060 C   0  0  0  0  0  0  0  0  0  0  0  0
   64.1230   32.1670   48.2270 O   0  0  0  0  0  0  0  0  0  0  0  0
   63.9920   32.6700   49.5450 C   0  0  0  0  0  0  0  0  0  0  0  0
   62.5770   33.2220   49.8360 C   0  0  0  0  0  0  0  0  0  0  0  0
   55.4408   30.4095   42.9717 H   0  0  0  0  0  0  0  0  0  0  0  0
   56.9852   30.3307   42.0576 H   0  0  0  0  0  0  0  0  0  0  0  0
   55.8687   28.9235   42.0576 H   0  0  0  0  0  0  0  0  0  0  0  0
   56.5607   28.2018   44.1228 H   0  0  0  0  0  0  0  0  0  0  0  0
   58.0472   29.1277   43.6864 H   0  0  0  0  0  0  0  0  0  0  0  0
   55.8056   32.5394   44.4836 H   0  0  0  0  0  0  0  0  0  0  0  0
   57.0012   34.6778   44.9359 H   0  0  0  0  0  0  0  0  0  0  0  0
   60.3889   32.4778   46.4676 H   0  0  0  0  0  0  0  0  0  0  0  0
   59.9724   29.2303   44.1308 H   0  0  0  0  0  0  0  0  0  0  0  0
   60.8410   27.1345   45.5375 H   0  0  0  0  0  0  0  0  0  0  0  0
   60.2349   27.7574   49.3113 H   0  0  0  0  0  0  0  0  0  0  0  0
   59.7088   26.4047   48.2529 H   0  0  0  0  0  0  0  0  0  0  0  0
   61.4268   26.9291   48.2529 H   0  0  0  0  0  0  0  0  0  0  0  0
   57.9653   30.4944   48.4267 H   0  0  0  0  0  0  0  0  0  0  0  0
   58.6855   29.1283   49.3426 H   0  0  0  0  0  0  0  0  0  0  0  0
   60.0810   30.5040   50.2410 H   0  0  0  0  0  0  0  0  0  0  0  0
   58.3689   32.3177   48.8461 H   0  0  0  0  0  0  0  0  0  0  0  0
   58.9907   32.3403   50.5441 H   0  0  0  0  0  0  0  0  0  0  0  0
   59.8857   33.8674   48.2293 H   0  0  0  0  0  0  0  0  0  0  0  0
   60.3711   33.9887   49.9831 H   0  0  0  0  0  0  0  0  0  0  0  0
   61.5750   31.7540   48.8020 H   0  0  0  0  0  0  0  0  0  0  0  0
   61.6023   32.6295   46.6837 H   0  0  0  0  0  0  0  0  0  0  0  0
   61.8302   34.3075   47.3372 H   0  0  0  0  0  0  0  0  0  0  0  0
   63.8544   32.7782   46.2839 H   0  0  0  0  0  0  0  0  0  0  0  0
   64.0826   34.0858   47.5062 H   0  0  0  0  0  0  0  0  0  0  0  0
   64.2052   31.8570   50.2546 H   0  0  0  0  0  0  0  0  0  0  0  0
   64.7022   33.5028   49.6546 H   0  0  0  0  0  0  0  0  0  0  0  0
   62.2355   32.8415   50.8100 H   0  0  0  0  0  0  0  0  0  0  0  0
   62.6245   34.3209   49.8473 H   0  0  0  0  0  0  0  0  0  0  0  0
  1  2  1  0
  2  3  1  0
  3  4  1  0
  4  5  2  0
  5  6  1  0
  6  7  2  0
  7  8  1  0
  7  9  1  0
  9 10  2  0
 10 11  1  0
 11 12  1  0
 12 13  2  0
 13 14  1  0
 14 15  1  0
 14 16  1  0
 16 17  1  0
 17 18  1  0
 18 19  1  0
 19 20  1  0
 20 21  1  0
 21 22  1  0
 22 23  1  0
 23 24  1  0
 24 25  1  0
 25 26  1  0
 10  4  1  0
 16 11  2  0
 26 21  1  0
  1 27  1  0
  1 28  1  0
  1 29  1  0
  2 30  1  0
  2 31  1  0
  5 32  1  0
  6 33  1  0
  9 34  1  0
 12 35  1  0
 13 36  1  0
 15 37  1  0
 15 38  1  0
 15 39  1  0
 17 40  1  0
 17 41  1  0
 18 42  1  0
 19 43  1  0
 19 44  1  0
 20 45  1  0
 20 46  1  0
 21 47  1  0
 22 48  1  0
 22 49  1  0
 23 50  1  0
 23 51  1  0
 25 52  1  0
 25 53  1  0
 26 54  1  0
 26 55  1  0
M  CHG  1  21   1
M  END
>  <UniqueID>  (7) 
7

>  <SMILES>  (7) 
CCOc1ccc(Br)cc1-c1ccn(C)c1CNCC[NH+]1CCOCC1

>  <Energy>  (7) 
92.18583883018128

>  <Genealogy>  (7) 
CCOc1ccc(Br)cc1-c1ccn(C)c1CNCC[NH+]1CCOCC1 (protonated)
CCOc1ccc(Br)cc1-c1ccn(C)c1CNCC[NH+]1CCOCC1 (3D coordinates assigned)
CCOc1ccc(Br)cc1-c1ccn(C)c1CNCC[NH+]1CCOCC1 (nonaromatic ring conformer: 92.18583883018128 kcal/mol)

>  <smiles>  (7) 
CCOc1ccc(Br)cc1-c1ccn(C)c1CNCCN1CCOCC1

>  <score_type>  (7) 
oracle

>  <origin>  (7) 
adg

>  <m_score__min__energy>  (7) 
-5.7699999999999996

>  <m_primary>  (7) 
energy

$$$$
7:0
     RDKit          3D

 60 63  0  0  0  0  0  0  0  0999 V2000
   60.4410   28.7790   44.8660 C   0  0  0  0  0  0  0  0  0  0  0  0
   59.2510   27.8410   45.1100 C   0  0  0  0  0  0  0  0  0  0  0  0
   58.8250   27.7540   46.5290 N   0  0  0  0  0  0  0  0  0  0  0  0
   57.5470   27.0240   46.6830 C   0  0  0  0  0  0  0  0  0  0  0  0
   57.1140   26.4280   45.3470 C   0  0  0  0  0  0  0  0  0  0  0  0
   59.8670   27.2280   47.4430 C   0  0  0  0  0  0  0  0  0  0  0  0
   60.2540   28.2530   48.5210 C   0  0  0  0  0  0  0  0  0  0  0  0
   59.3080   29.3780   48.5400 N   0  0  0  0  0  0  0  0  0  0  0  0
   59.9410   30.5710   48.0130 C   0  0  0  0  0  0  0  0  0  0  0  0
   59.3720   31.3430   46.9580 C   0  0  0  0  0  0  0  0  0  0  0  0
   58.1600   30.9650   46.3370 C   0  0  0  0  0  0  0  0  0  0  0  0
   57.5780   31.7520   45.3420 C   0  0  0  0  0  0  0  0  0  0  0  0
   56.3300   31.3360   44.7720 N   0  0  0  0  0  0  0  0  0  0  0  0
   56.0130   30.0320   44.2650 C   0  0  0  0  0  0  0  0  0  0  0  0
   56.7020   29.4540   43.0670 C   0  0  0  0  0  0  0  0  0  0  0  0
   55.1500   29.3380   44.8660 O   0  0  0  0  0  0  0  0  0  0  0  0
   58.1720   32.9660   44.9910 C   0  0  0  0  0  0  0  0  0  0  0  0
   59.3850   33.3500   45.5580 C   0  0  0  0  0  0  0  0  0  0  0  0
   60.0410   32.5330   46.5070 C   0  0  0  0  0  0  0  0  0  0  0  0
   61.2880   32.8740   47.0110 N   0  0  0  0  0  0  0  0  0  0  0  0
   62.1250   33.9030   46.3680 C   0  0  0  0  0  0  0  0  0  0  0  0
   61.7720   32.1610   48.0750 C   0  0  0  0  0  0  0  0  0  0  0  0
   61.1590   31.0170   48.5410 C   0  0  0  0  0  0  0  0  0  0  0  0
   61.8760   30.4480   49.5390 N   0  0  0  0  0  0  0  0  0  0  0  0
   62.9290   31.2640   49.7310 C   0  0  0  0  0  0  0  0  0  0  0  0
   63.9230   31.1160   50.6980 C   0  0  0  0  0  0  0  0  0  0  0  0
   64.9050   32.1140   50.7950 C   0  0  0  0  0  0  0  0  0  0  0  0
   64.8640   33.2400   49.9500 C   0  0  0  0  0  0  0  0  0  0  0  0
   63.8500   33.3730   48.9830 C   0  0  0  0  0  0  0  0  0  0  0  0
   62.9040   32.3440   48.8690 C   0  0  0  0  0  0  0  0  0  0  0  0
   60.8548   29.1052   45.8316 H   0  0  0  0  0  0  0  0  0  0  0  0
   61.2166   28.2467   44.2958 H   0  0  0  0  0  0  0  0  0  0  0  0
   60.1046   29.6574   44.2958 H   0  0  0  0  0  0  0  0  0  0  0  0
   58.3990   28.2031   44.5158 H   0  0  0  0  0  0  0  0  0  0  0  0
   59.5782   26.8327   44.8162 H   0  0  0  0  0  0  0  0  0  0  0  0
   57.6774   26.2145   47.4163 H   0  0  0  0  0  0  0  0  0  0  0  0
   56.7736   27.7252   47.0297 H   0  0  0  0  0  0  0  0  0  0  0  0
   56.4761   25.5500   45.5267 H   0  0  0  0  0  0  0  0  0  0  0  0
   56.5502   27.1800   44.7755 H   0  0  0  0  0  0  0  0  0  0  0  0
   58.0035   26.1242   44.7755 H   0  0  0  0  0  0  0  0  0  0  0  0
   59.4840   26.3218   47.9350 H   0  0  0  0  0  0  0  0  0  0  0  0
   60.7638   27.0060   46.8459 H   0  0  0  0  0  0  0  0  0  0  0  0
   60.2477   27.7607   49.5047 H   0  0  0  0  0  0  0  0  0  0  0  0
   61.2572   28.6417   48.2919 H   0  0  0  0  0  0  0  0  0  0  0  0
   58.9820   29.5400   49.5190 H   0  0  0  0  0  0  0  0  0  0  0  0
   58.4410   29.1490   48.0050 H   0  0  0  0  0  0  0  0  0  0  0  0
   57.6654   30.0317   46.6440 H   0  0  0  0  0  0  0  0  0  0  0  0
   57.5061   28.7795   43.3964 H   0  0  0  0  0  0  0  0  0  0  0  0
   55.9757   28.8910   42.4625 H   0  0  0  0  0  0  0  0  0  0  0  0
   57.1302   30.2671   42.4625 H   0  0  0  0  0  0  0  0  0  0  0  0
   57.6782   33.6242   44.2610 H   0  0  0  0  0  0  0  0  0  0  0  0
   59.8407   34.3064   45.2619 H   0  0  0  0  0  0  0  0  0  0  0  0
   62.6187   34.5099   47.1413 H   0  0  0  0  0  0  0  0  0  0  0  0
   62.8872   33.4167   45.7414 H   0  0  0  0  0  0  0  0  0  0  0  0
   61.4937   34.5502   45.7414 H   0  0  0  0  0  0  0  0  0  0  0  0
   61.6720   29.5730   50.0690 H   0  0  0  0  0  0  0  0  0  0  0  0
   63.9369   30.2419   51.3657 H   0  0  0  0  0  0  0  0  0  0  0  0
   65.7121   32.0161   51.5360 H   0  0  0  0  0  0  0  0  0  0  0  0
   65.6312   34.0224   50.0466 H   0  0  0  0  0  0  0  0  0  0  0  0
   63.8009   34.2600   48.3343 H   0  0  0  0  0  0  0  0  0  0  0  0
  1  2  1  0
  2  3  1  0
  3  4  1  0
  4  5  1  0
  3  6  1  0
  6  7  1  0
  7  8  1  0
  8  9  1  0
  9 10  2  0
 10 11  1  0
 11 12  2  0
 12 13  1  0
 13 14  1  0
 14 15  1  0
 14 16  2  0
 12 17  1  0
 17 18  2  0
 18 19  1  0
 19 20  2  0
 20 21  1  0
 20 22  1  0
 22 23  2  0
 23 24  1  0
 24 25  1  0
 25 26  2  0
 26 27  1  0
 27 28  2  0
 28 29  1  0
 29 30  2  0
 23  9  1  0
 30 25  1  0
 19 10  1  0
 30 22  1  0
  1 31  1  0
  1 32  1  0
  1 33  1  0
  2 34  1  0
  2 35  1  0
  4 36  1  0
  4 37  1  0
  5 38  1  0
  5 39  1  0
  5 40  1  0
  6 41  1  0
  6 42  1  0
  7 43  1  0
  7 44  1  0
  8 45  1  0
  8 46  1  0
 11 47  1  0
 15 48  1  0
 15 49  1  0
 15 50  1  0
 17 51  1  0
 18 52  1  0
 21 53  1  0
 21 54  1  0
 21 55  1  0
 24 56  1  0
 26 57  1  0
 27 58  1  0
 28 59  1  0
 29 60  1  0
M  CHG  3   8   1  13  -1  20   1
M  END
>  <UniqueID>  (8) 
8

>  <SMILES>  (8) 
CCN(CC)CC[NH2+]c1c2cc([N-]C(C)=O)ccc2[n+](C)c2c1[nH]c1ccccc12

>  <Energy>  (8) 
126.25642756238942

>  <Genealogy>  (8) 
CCN(CC)CC[NH2+]c1c2cc([N-]C(C)=O)ccc2[n+](C)c2c1[nH]c1ccccc12 (protonated)
CCN(CC)CC[NH2+]c1c2cc([N-]C(C)=O)ccc2[n+](C)c2c1[nH]c1ccccc12 (3D coordinates assigned)
CCN(CC)CC[NH2+]c1c2cc([N-]C(C)=O)ccc2[n+](C)c2c1[nH]c1ccccc12 (optimized conformer: 126.25642756238942 kcal/mol)

>  <smiles>  (8) 
CCN(CC)CCNc1c2cc(NC(C)=O)ccc2[n+](C)c2c1[nH]c1ccccc12

>  <score_type>  (8) 
oracle

>  <origin>  (8) 
adg

>  <m_score__min__energy>  (8) 
-7.0499999999999998

>  <m_primary>  (8) 
energy

$$$$
8:0
     RDKit          3D

 47 48  0  0  0  0  0  0  0  0999 V2000
   58.1430   27.0610   42.8030 C   0  0  0  0  0  0  0  0  0  0  0  0
   57.9760   27.8560   44.1070 C   0  0  0  0  0  0  0  0  0  0  0  0
   58.3780   29.2860   44.0110 N   0  0  0  0  0  0  0  0  0  0  0  0
   57.2580   30.2310   44.2700 C   0  0  0  0  0  0  0  0  0  0  0  0
   57.4950   31.6190   43.6620 C   0  0  0  0  0  0  0  0  0  0  0  0
   59.5350   29.5800   44.9040 C   0  0  0  0  0  0  0  0  0  0  0  0
   59.5570   28.7040   46.1740 C   0  0  0  0  0  0  0  0  0  0  0  0
   58.5610   29.1870   47.2390 C   0  0  0  0  0  0  0  0  0  0  0  0
   59.2310   30.0230   48.2370 N   0  0  0  0  0  0  0  0  0  0  0  0
   60.1890   31.0370   47.8740 C   0  0  0  0  0  0  0  0  0  0  0  0
   61.5490   30.8260   48.1210 C   0  0  0  0  0  0  0  0  0  0  0  0
   62.4920   31.7660   47.7200 C   0  0  0  0  0  0  0  0  0  0  0  0
   62.1200   32.9130   47.0770 N   0  0  0  0  0  0  0  0  0  0  0  0
   63.1790   33.8530   46.6760 C   0  0  0  0  0  0  0  0  0  0  0  0
   60.7870   33.1710   46.8260 C   0  0  0  0  0  0  0  0  0  0  0  0
   60.3750   34.3580   46.1760 C   0  0  0  0  0  0  0  0  0  0  0  0
   59.0240   34.6210   45.9530 C   0  0  0  0  0  0  0  0  0  0  0  0
   58.0550   33.7190   46.3780 C   0  0  0  0  0  0  0  0  0  0  0  0
   58.4290   32.5380   47.0180 C   0  0  0  0  0  0  0  0  0  0  0  0
   59.7910   32.2340   47.2340 C   0  0  0  0  0  0  0  0  0  0  0  0
   58.3638   26.0098   43.0402 H   0  0  0  0  0  0  0  0  0  0  0  0
   57.2134   27.1174   42.2176 H   0  0  0  0  0  0  0  0  0  0  0  0
   58.9713   27.4866   42.2176 H   0  0  0  0  0  0  0  0  0  0  0  0
   56.9169   27.8154   44.4015 H   0  0  0  0  0  0  0  0  0  0  0  0
   58.6447   27.3908   44.8462 H   0  0  0  0  0  0  0  0  0  0  0  0
   58.6810   29.4300   43.0200 H   0  0  0  0  0  0  0  0  0  0  0  0
   56.3376   29.8112   43.8380 H   0  0  0  0  0  0  0  0  0  0  0  0
   57.1783   30.3574   45.3598 H   0  0  0  0  0  0  0  0  0  0  0  0
   57.6209   32.3561   44.4688 H   0  0  0  0  0  0  0  0  0  0  0  0
   58.4024   31.5970   43.0406 H   0  0  0  0  0  0  0  0  0  0  0  0
   56.6317   31.8994   43.0406 H   0  0  0  0  0  0  0  0  0  0  0  0
   60.4643   29.4053   44.3420 H   0  0  0  0  0  0  0  0  0  0  0  0
   59.4410   30.6267   45.2290 H   0  0  0  0  0  0  0  0  0  0  0  0
   59.3015   27.6712   45.8946 H   0  0  0  0  0  0  0  0  0  0  0  0
   60.5663   28.7680   46.6068 H   0  0  0  0  0  0  0  0  0  0  0  0
   57.7679   29.7730   46.7516 H   0  0  0  0  0  0  0  0  0  0  0  0
   58.1328   28.3091   47.7449 H   0  0  0  0  0  0  0  0  0  0  0  0
   59.0030   29.8770   49.2460 H   0  0  0  0  0  0  0  0  0  0  0  0
   61.8751   29.9103   48.6360 H   0  0  0  0  0  0  0  0  0  0  0  0
   63.5573   31.5829   47.9242 H   0  0  0  0  0  0  0  0  0  0  0  0
   63.6542   34.2748   47.5739 H   0  0  0  0  0  0  0  0  0  0  0  0
   63.9334   33.3217   46.0772 H   0  0  0  0  0  0  0  0  0  0  0  0
   62.7410   34.6651   46.0772 H   0  0  0  0  0  0  0  0  0  0  0  0
   61.1311   35.0837   45.8418 H   0  0  0  0  0  0  0  0  0  0  0  0
   58.7236   35.5458   45.4388 H   0  0  0  0  0  0  0  0  0  0  0  0
   56.9903   33.9377   46.2089 H   0  0  0  0  0  0  0  0  0  0  0  0
   57.6543   31.8352   47.3585 H   0  0  0  0  0  0  0  0  0  0  0  0
  1  2  1  0
  2  3  1  0
  3  4  1  0
  4  5  1  0
  3  6  1  0
  6  7  1  0
  7  8  1  0
  8  9  1  0
  9 10  1  0
 10 11  2  0
 11 12  1  0
 12 13  2  0
 13 14  1  0
 13 15  1  0
 15 16  2  0
 16 17  1  0
 17 18  2  0
 18 19  1  0
 19 20  2  0
 20 10  1  0
 20 15  1  0
  1 21  1  0
  1 22  1  0
  1 23  1  0
  2 24  1  0
  2 25  1  0
  3 26  1  0
  4 27  1  0
  4 28  1  0
  5 29  1  0
  5 30  1  0
  5 31  1  0
  6 32  1  0
  6 33  1  0
  7 34  1  0
  7 35  1  0
  8 36  1  0
  8 37  1  0
  9 38  1  0
 11 39  1  0
 12 40  1  0
 14 41  1  0
 14 42  1  0
 14 43  1  0
 16 44  1  0
 17 45  1  0
 18 46  1  0
 19 47  1  0
M  CHG  2   3   1  13   1
M  END
>  <UniqueID>  (9) 
9

>  <SMILES>  (9) 
CC[NH+](CC)CCCNc1cc[n+](C)c2ccccc12

>  <Energy>  (9) 
58.56180570326618

>  <Genealogy>  (9) 
CC[NH+](CC)CCCNc1cc[n+](C)c2ccccc12 (protonated)
CC[NH+](CC)CCCNc1cc[n+](C)c2ccccc12 (3D coordinates assigned)
CC[NH+](CC)CCCNc1cc[n+](C)c2ccccc12 (optimized conformer: 58.56180570326618 kcal/mol)

>  <smiles>  (9) 
CCN(CC)CCCNc1cc[n+](C)c2ccccc12

>  <score_type>  (9) 
oracle

>  <origin>  (9) 
adg

>  <m_score__min__energy>  (9) 
-3.5

>  <m_primary>  (9) 
energy

$$$$
9:0
     RDKit          3D

 38 41  0  0  0  0  0  0  0  0999 V2000
   57.1917   22.6710   47.8415 H   0  0  0  0  0  0  0  0  0  0  0  0
   56.8840   23.1870   46.9200 C   0  0  0  0  0  0  0  0  0  0  0  0
   56.9370   22.5180   45.6940 C   0  0  0  0  0  0  0  0  0  0  0  0
   57.2783   21.4731   45.6523 H   0  0  0  0  0  0  0  0  0  0  0  0
   56.5560   23.1770   44.5190 C   0  0  0  0  0  0  0  0  0  0  0  0
   56.6440   22.3440   42.9790 Cl  0  0  0  0  0  0  0  0  0  0  0  0
   56.1120   24.5030   44.5740 C   0  0  0  0  0  0  0  0  0  0  0  0
   55.8335   25.0266   43.6476 H   0  0  0  0  0  0  0  0  0  0  0  0
   56.0210   25.1660   45.8050 C   0  0  0  0  0  0  0  0  0  0  0  0
   55.6190   26.5420   45.8350 N   0  0  0  0  0  0  0  0  0  0  0  0
   56.3120   27.6330   45.6320 C   0  0  0  0  0  0  0  0  0  0  0  0
   55.6160   28.7240   45.2290 N   0  0  0  0  0  0  0  0  0  0  0  0
   56.2060   29.8530   44.8460 N   0  0  0  0  0  0  0  0  0  0  0  0
   57.5530   29.9940   44.8210 C   0  0  0  0  0  0  0  0  0  0  0  0
   58.0890   31.3060   44.4050 C   0  0  0  0  0  0  0  0  0  0  0  0
   58.4940   32.3550   45.2160 C   0  0  0  0  0  0  0  0  0  0  0  0
   58.5729   32.3309   46.3129 H   0  0  0  0  0  0  0  0  0  0  0  0
   58.7740   33.4090   44.4250 N   0  0  0  0  0  0  0  0  0  0  0  0
   59.1420   34.7440   44.8790 C   0  0  0  0  0  0  0  0  0  0  0  0
   59.1487   34.7684   45.9787 H   0  0  0  0  0  0  0  0  0  0  0  0
   60.1434   34.9970   44.5005 H   0  0  0  0  0  0  0  0  0  0  0  0
   58.4117   35.4743   44.5005 H   0  0  0  0  0  0  0  0  0  0  0  0
   58.5230   33.0920   43.1660 N   0  0  0  0  0  0  0  0  0  0  0  0
   58.6110   33.7430   42.3530 H   0  0  0  0  0  0  0  0  0  0  0  0
   58.0970   31.8170   43.1180 C   0  0  0  0  0  0  0  0  0  0  0  0
   57.8041   31.2716   42.2087 H   0  0  0  0  0  0  0  0  0  0  0  0
   58.3610   28.9170   45.2550 C   0  0  0  0  0  0  0  0  0  0  0  0
   59.7710   28.9810   45.2170 C   0  0  0  0  0  0  0  0  0  0  0  0
   60.2648   29.8376   44.7349 H   0  0  0  0  0  0  0  0  0  0  0  0
   60.5420   27.9700   45.7840 C   0  0  0  0  0  0  0  0  0  0  0  0
   61.6395   28.0211   45.7310 H   0  0  0  0  0  0  0  0  0  0  0  0
   59.9270   26.8960   46.4170 C   0  0  0  0  0  0  0  0  0  0  0  0
   60.5378   26.1310   46.9186 H   0  0  0  0  0  0  0  0  0  0  0  0
   58.5360   26.7870   46.4170 C   0  0  0  0  0  0  0  0  0  0  0  0
   58.0582   25.9486   46.9449 H   0  0  0  0  0  0  0  0  0  0  0  0
   57.7310   27.7390   45.7480 C   0  0  0  0  0  0  0  0  0  0  0  0
   56.4400   24.5120   46.9760 C   0  0  0  0  0  0  0  0  0  0  0  0
   56.4187   25.0434   47.9389 H   0  0  0  0  0  0  0  0  0  0  0  0
  1  2  1  0
  2  3  2  0
  3  4  1  0
  3  5  1  0
  5  6  1  0
  5  7  2  0
  7  8  1  0
  7  9  1  0
  9 10  1  0
 10 11  2  0
 11 12  1  0
 12 13  1  0
 13 14  2  0
 14 15  1  0
 15 16  2  0
 16 17  1  0
 16 18  1  0
 18 19  1  0
 19 20  1  0
 19 21  1  0
 19 22  1  0
 18 23  1  0
 23 24  1  0
 23 25  2  0
 25 26  1  0
 14 27  1  0
 27 28  2  0
 28 29  1  0
 28 30  1  0
 30 31  1  0
 30 32  2  0
 32 33  1  0
 32 34  1  0
 34 35  1  0
 34 36  2  0
  9 37  2  0
 37 38  1  0
 37  2  1  0
 36 11  1  0
 25 15  1  0
 36 27  1  0
M  CHG  2  12  -1  23   1
M  END
>  <UniqueID>  (10) 
10

>  <SMILES>  (10) 
Cn1cc(-c2n[n-]/c(=N/c3cccc(Cl)c3)c3ccccc23)c[nH+]1

>  <Energy>  (10) 
104.23604212973059

>  <Genealogy>  (10) 
Cn1cc(-c2n[n-]c(=Nc3cccc(Cl)c3)c3ccccc23)c[nH+]1 (protonated)
Cn1cc(-c2n[n-]/c(=N/c3cccc(Cl)c3)c3ccccc23)c[nH+]1 (cis-trans isomerization)
Cn1cc(-c2n[n-]/c(=N/c3cccc(Cl)c3)c3ccccc23)c[nH+]1 (3D coordinates assigned)
Cn1cc(-c2n[n-]/c(=N/c3cccc(Cl)c3)c3ccccc23)c[nH+]1 (optimized conformer: 104.23604212973059 kcal/mol)

>  <smiles>  (10) 
Cn1cc(-c2n[nH]c(=Nc3cccc(Cl)c3)c3ccccc23)cn1

>  <score_type>  (10) 
oracle

>  <origin>  (10) 
adg

>  <m_score__min__energy>  (10) 
-8.8499999999999996

>  <m_primary>  (10) 
energy

$$$$
10:0
     RDKit          3D

 53 55  0  0  0  0  0  0  0  0999 V2000
   56.0620   30.0570   43.4810 C   0  0  0  0  0  0  0  0  0  0  0  0
   57.4230   30.1870   44.1580 C   0  0  0  0  0  0  0  0  0  0  0  0
   57.3340   29.8590   45.5460 O   0  0  0  0  0  0  0  0  0  0  0  0
   58.3910   29.9010   46.4730 C   0  0  0  0  0  0  0  0  0  0  0  0
   59.1920   31.0410   46.6450 C   0  0  0  0  0  0  0  0  0  0  0  0
   60.2290   31.0710   47.5990 C   0  0  0  0  0  0  0  0  0  0  0  0
   61.0440   32.2100   47.7470 C   0  0  0  0  0  0  0  0  0  0  0  0
   60.8050   33.3840   46.9510 N   0  0  0  0  0  0  0  0  0  0  0  0
   60.2360   34.5920   47.5460 C   0  0  0  0  0  0  0  0  0  0  0  0
   58.9040   34.9380   46.8690 C   0  0  0  0  0  0  0  0  0  0  0  0
   58.6200   34.0030   45.7600 N   0  0  0  0  0  0  0  0  0  0  0  0
   57.1650   33.8730   45.5700 C   0  0  0  0  0  0  0  0  0  0  0  0
   59.2330   34.4700   44.5030 C   0  0  0  0  0  0  0  0  0  0  0  0
   62.1300   32.1730   48.6370 C   0  0  0  0  0  0  0  0  0  0  0  0
   63.0530   33.2400   48.6980 C   0  0  0  0  0  0  0  0  0  0  0  0
   64.1520   33.1820   49.5500 C   0  0  0  0  0  0  0  0  0  0  0  0
   64.3630   32.0570   50.3380 C   0  0  0  0  0  0  0  0  0  0  0  0
   63.4690   30.9900   50.2930 C   0  0  0  0  0  0  0  0  0  0  0  0
   62.3170   31.0330   49.4640 C   0  0  0  0  0  0  0  0  0  0  0  0
   61.4040   29.9970   49.4330 N   0  0  0  0  0  0  0  0  0  0  0  0
   61.4270   28.9580   50.4870 C   0  0  0  0  0  0  0  0  0  0  0  0
   60.4500   29.9450   48.4310 C   0  0  0  0  0  0  0  0  0  0  0  0
   59.6800   28.7800   48.1970 C   0  0  0  0  0  0  0  0  0  0  0  0
   58.6580   28.7580   47.2380 C   0  0  0  0  0  0  0  0  0  0  0  0
   57.8440   27.5090   47.0310 C   0  0  0  0  0  0  0  0  0  0  0  0
   55.2768   29.9820   44.2477 H   0  0  0  0  0  0  0  0  0  0  0  0
   55.8786   30.9417   42.8536 H   0  0  0  0  0  0  0  0  0  0  0  0
   56.0494   29.1536   42.8536 H   0  0  0  0  0  0  0  0  0  0  0  0
   58.1345   29.5038   43.6711 H   0  0  0  0  0  0  0  0  0  0  0  0
   57.7652   31.2281   44.0635 H   0  0  0  0  0  0  0  0  0  0  0  0
   59.0065   31.9288   46.0226 H   0  0  0  0  0  0  0  0  0  0  0  0
   60.7860   33.2920   45.9100 H   0  0  0  0  0  0  0  0  0  0  0  0
   60.0650   34.4227   48.6194 H   0  0  0  0  0  0  0  0  0  0  0  0
   60.9382   35.4269   47.4051 H   0  0  0  0  0  0  0  0  0  0  0  0
   58.0948   34.8734   47.6113 H   0  0  0  0  0  0  0  0  0  0  0  0
   58.9700   35.9578   46.4620 H   0  0  0  0  0  0  0  0  0  0  0  0
   56.6696   33.8287   46.5511 H   0  0  0  0  0  0  0  0  0  0  0  0
   56.7895   34.7412   45.0085 H   0  0  0  0  0  0  0  0  0  0  0  0
   56.9494   32.9520   45.0085 H   0  0  0  0  0  0  0  0  0  0  0  0
   60.0888   35.1219   44.7325 H   0  0  0  0  0  0  0  0  0  0  0  0
   59.5781   33.6038   43.9194 H   0  0  0  0  0  0  0  0  0  0  0  0
   58.4895   35.0327   43.9194 H   0  0  0  0  0  0  0  0  0  0  0  0
   62.9017   34.1269   48.0651 H   0  0  0  0  0  0  0  0  0  0  0  0
   64.8541   34.0273   49.5997 H   0  0  0  0  0  0  0  0  0  0  0  0
   65.2400   32.0090   51.0002 H   0  0  0  0  0  0  0  0  0  0  0  0
   63.6585   30.0992   50.9099 H   0  0  0  0  0  0  0  0  0  0  0  0
   61.4164   29.4389   51.4762 H   0  0  0  0  0  0  0  0  0  0  0  0
   60.5429   28.3116   50.3840 H   0  0  0  0  0  0  0  0  0  0  0  0
   62.3388   28.3513   50.3840 H   0  0  0  0  0  0  0  0  0  0  0  0
   59.8886   27.8715   48.7811 H   0  0  0  0  0  0  0  0  0  0  0  0
   57.5678   27.0852   48.0078 H   0  0  0  0  0  0  0  0  0  0  0  0
   56.9322   27.7549   46.4670 H   0  0  0  0  0  0  0  0  0  0  0  0
   58.4371   26.7741   46.4670 H   0  0  0  0  0  0  0  0  0  0  0  0
  1  2  1  0
  2  3  1  0
  3  4  1  0
  4  5  2  0
  5  6  1  0
  6  7  2  0
  7  8  1  0
  8  9  1  0
  9 10  1  0
 10 11  1  0
 11 12  1  0
 11 13  1  0
  7 14  1  0
 14 15  2  0
 15 16  1  0
 16 17  2  0
 17 18  1  0
 18 19  2  0
 19 20  1  0
 20 21  1  0
 20 22  2  0
 22 23  1  0
 23 24  2  0
 24 25  1  0
 24  4  1  0
 22  6  1  0
 19 14  1  0
  1 26  1  0
  1 27  1  0
  1 28  1  0
  2 29  1  0
  2 30  1  0
  5 31  1  0
  8 32  1  0
  9 33  1  0
  9 34  1  0
 10 35  1  0
 10 36  1  0
 12 37  1  0
 12 38  1  0
 12 39  1  0
 13 40  1  0
 13 41  1  0
 13 42  1  0
 15 43  1  0
 16 44  1  0
 17 45  1  0
 18 46  1  0
 21 47  1  0
 21 48  1  0
 21 49  1  0
 23 50  1  0
 25 51  1  0
 25 52  1  0
 25 53  1  0
M  CHG  1  20   1
M  END
>  <UniqueID>  (11) 
11

>  <SMILES>  (11) 
CCOc1cc2c(NCCN(C)C)c3ccccc3[n+](C)c2cc1C

>  <Energy>  (11) 
75.48142035404351

>  <Genealogy>  (11) 
CCOc1cc2c(NCCN(C)C)c3ccccc3[n+](C)c2cc1C (3D coordinates assigned)
CCOc1cc2c(NCCN(C)C)c3ccccc3[n+](C)c2cc1C (optimized conformer: 75.48142035404351 kcal/mol)

>  <smiles>  (11) 
CCOc1cc2c(NCCN(C)C)c3ccccc3[n+](C)c2cc1C

>  <score_type>  (11) 
oracle

>  <origin>  (11) 
adg

>  <m_score__min__energy>  (11) 
-5.7199999999999998

>  <m_primary>  (11) 
energy

$$$$
11:0
     RDKit          3D

 36 37  0  0  0  0  0  0  0  0999 V2000
   63.3190   33.8310   46.7550 C   0  0  0  0  0  0  0  0  0  0  0  0
   62.5720   32.7350   47.4990 C   0  0  0  0  0  0  0  0  0  0  0  0
   61.2640   32.6230   46.9750 O   0  0  0  0  0  0  0  0  0  0  0  0
   60.3560   32.2270   47.9870 C   0  0  0  0  0  0  0  0  0  0  0  0
   59.1310   33.1430   48.0050 C   0  0  0  0  0  0  0  0  0  0  0  0
   59.1390   34.0480   46.8550 N   0  0  0  0  0  0  0  0  0  0  0  0
   59.8390   35.1650   46.7850 N   0  0  0  0  0  0  0  0  0  0  0  0
   59.6470   35.7150   45.5950 N   0  0  0  0  0  0  0  0  0  0  0  0
   58.8280   34.9620   44.8730 N   0  0  0  0  0  0  0  0  0  0  0  0
   58.5230   33.9170   45.6640 C   0  0  0  0  0  0  0  0  0  0  0  0
   57.5940   32.8090   45.2680 C   0  0  0  0  0  0  0  0  0  0  0  0
   58.3540   31.7370   44.5890 N   0  0  0  0  0  0  0  0  0  0  0  0
   57.7270   31.3360   43.3150 C   0  0  0  0  0  0  0  0  0  0  0  0
   56.4090   30.5570   43.5430 C   0  0  0  0  0  0  0  0  0  0  0  0
   56.2700   30.0730   44.8680 O   0  0  0  0  0  0  0  0  0  0  0  0
   57.4800   29.4880   45.3000 C   0  0  0  0  0  0  0  0  0  0  0  0
   58.5740   30.5620   45.4670 C   0  0  0  0  0  0  0  0  0  0  0  0
   63.7849   34.5145   47.4801 H   0  0  0  0  0  0  0  0  0  0  0  0
   64.0984   33.3798   46.1234 H   0  0  0  0  0  0  0  0  0  0  0  0
   62.6141   34.3915   46.1234 H   0  0  0  0  0  0  0  0  0  0  0  0
   63.1014   31.7790   47.3733 H   0  0  0  0  0  0  0  0  0  0  0  0
   62.5203   32.9851   48.5690 H   0  0  0  0  0  0  0  0  0  0  0  0
   60.0310   31.1936   47.7960 H   0  0  0  0  0  0  0  0  0  0  0  0
   60.8619   32.2948   48.9614 H   0  0  0  0  0  0  0  0  0  0  0  0
   58.2202   32.5271   47.9723 H   0  0  0  0  0  0  0  0  0  0  0  0
   59.1552   33.7443   48.9258 H   0  0  0  0  0  0  0  0  0  0  0  0
   57.1093   32.4000   46.1668 H   0  0  0  0  0  0  0  0  0  0  0  0
   56.8299   33.2032   44.5819 H   0  0  0  0  0  0  0  0  0  0  0  0
   57.5095   32.2389   42.7255 H   0  0  0  0  0  0  0  0  0  0  0  0
   58.4269   30.6752   42.7826 H   0  0  0  0  0  0  0  0  0  0  0  0
   55.5643   31.2271   43.3249 H   0  0  0  0  0  0  0  0  0  0  0  0
   56.4254   29.6831   42.8752 H   0  0  0  0  0  0  0  0  0  0  0  0
   57.3148   28.9873   46.2654 H   0  0  0  0  0  0  0  0  0  0  0  0
   57.8108   28.7598   44.5448 H   0  0  0  0  0  0  0  0  0  0  0  0
   58.5800   30.8998   46.5138 H   0  0  0  0  0  0  0  0  0  0  0  0
   59.5349   30.1077   45.1836 H   0  0  0  0  0  0  0  0  0  0  0  0
  1  2  1  0
  2  3  1  0
  3  4  1  0
  4  5  1  0
  5  6  1  0
  6  7  1  0
  7  8  2  0
  8  9  1  0
  9 10  2  0
 10 11  1  0
 11 12  1  0
 12 13  1  0
 13 14  1  0
 14 15  1  0
 15 16  1  0
 16 17  1  0
 10  6  1  0
 17 12  1  0
  1 18  1  0
  1 19  1  0
  1 20  1  0
  2 21  1  0
  2 22  1  0
  4 23  1  0
  4 24  1  0
  5 25  1  0
  5 26  1  0
 11 27  1  0
 11 28  1  0
 13 29  1  0
 13 30  1  0
 14 31  1  0
 14 32  1  0
 16 33  1  0
 16 34  1  0
 17 35  1  0
 17 36  1  0
M  END
>  <UniqueID>  (12) 
12

>  <SMILES>  (12) 
CCOCCn1nnnc1CN1CCOCC1

>  <Energy>  (12) 
80.76015134100737

>  <Genealogy>  (12) 
CCOCCn1nnnc1CN1CCOCC1 (3D coordinates assigned)
CCOCCn1nnnc1CN1CCOCC1 (nonaromatic ring conformer: 80.76015134100737 kcal/mol)

>  <smiles>  (12) 
CCOCCn1nnnc1CN1CCOCC1

>  <score_type>  (12) 
oracle

>  <origin>  (12) 
adg

>  <m_score__min__energy>  (12) 
-5.9400000000000004

>  <m_primary>  (12) 
energy

$$$$
12:0
     RDKit          3D

 46 47  0  0  0  0  0  0  0  0999 V2000
   56.5070   29.7360   42.6490 C   0  0  0  0  0  0  0  0  0  0  0  0
   55.6480   30.0590   43.8670 C   0  0  0  0  0  0  0  0  0  0  0  0
   56.4260   30.7060   44.8580 O   0  0  0  0  0  0  0  0  0  0  0  0
   57.7840   30.3410   44.7380 C   0  0  0  0  0  0  0  0  0  0  0  0
   58.6520   31.4420   45.3420 C   0  0  0  0  0  0  0  0  0  0  0  0
   57.9270   32.7330   45.3210 N   0  0  0  0  0  0  0  0  0  0  0  0
   58.7200   33.8130   44.7000 C   0  0  0  0  0  0  0  0  0  0  0  0
   59.9410   34.2110   45.5610 C   0  0  0  0  0  0  0  0  0  0  0  0
   59.7860   33.8000   46.9730 N   0  0  0  0  0  0  0  0  0  0  0  0
   60.7650   34.5000   47.8250 C   0  0  0  0  0  0  0  0  0  0  0  0
   61.9140   33.5930   48.1540 C   0  0  0  0  0  0  0  0  0  0  0  0
   62.0620   32.8220   49.2930 C   0  0  0  0  0  0  0  0  0  0  0  0
   63.2090   32.1240   49.1820 N   0  0  0  0  0  0  0  0  0  0  0  0
   63.7700   31.2330   50.1880 C   0  0  0  0  0  0  0  0  0  0  0  0
   63.8030   32.4300   48.0390 N   0  0  0  0  0  0  0  0  0  0  0  0
   63.0390   33.3280   47.3880 C   0  0  0  0  0  0  0  0  0  0  0  0
   63.3420   33.8480   46.0200 C   0  0  0  0  0  0  0  0  0  0  0  0
   58.4050   34.0400   47.4290 C   0  0  0  0  0  0  0  0  0  0  0  0
   57.4250   33.1310   46.6590 C   0  0  0  0  0  0  0  0  0  0  0  0
   57.4888   29.3668   42.9802 H   0  0  0  0  0  0  0  0  0  0  0  0
   56.0098   28.9634   42.0441 H   0  0  0  0  0  0  0  0  0  0  0  0
   56.6420   30.6448   42.0441 H   0  0  0  0  0  0  0  0  0  0  0  0
   54.8227   30.7202   43.5643 H   0  0  0  0  0  0  0  0  0  0  0  0
   55.2469   29.1222   44.2813 H   0  0  0  0  0  0  0  0  0  0  0  0
   57.9605   29.3969   45.2742 H   0  0  0  0  0  0  0  0  0  0  0  0
   58.0397   30.2077   43.6765 H   0  0  0  0  0  0  0  0  0  0  0  0
   58.8992   31.1808   46.3815 H   0  0  0  0  0  0  0  0  0  0  0  0
   59.5741   31.5381   44.7499 H   0  0  0  0  0  0  0  0  0  0  0  0
   59.0762   33.4706   43.7172 H   0  0  0  0  0  0  0  0  0  0  0  0
   58.0714   34.6964   44.6056 H   0  0  0  0  0  0  0  0  0  0  0  0
   60.8386   33.7277   45.1478 H   0  0  0  0  0  0  0  0  0  0  0  0
   60.0293   35.3072   45.5359 H   0  0  0  0  0  0  0  0  0  0  0  0
   61.1427   35.3848   47.2916 H   0  0  0  0  0  0  0  0  0  0  0  0
   60.2716   34.8047   48.7597 H   0  0  0  0  0  0  0  0  0  0  0  0
   61.3640   32.7852   50.1424 H   0  0  0  0  0  0  0  0  0  0  0  0
   63.5295   31.6149   51.1911 H   0  0  0  0  0  0  0  0  0  0  0  0
   63.3421   30.2270   50.0664 H   0  0  0  0  0  0  0  0  0  0  0  0
   64.8622   31.1841   50.0664 H   0  0  0  0  0  0  0  0  0  0  0  0
   64.7100   32.0290   47.7090 H   0  0  0  0  0  0  0  0  0  0  0  0
   63.8943   34.7958   46.1020 H   0  0  0  0  0  0  0  0  0  0  0  0
   63.9534   33.1133   45.4756 H   0  0  0  0  0  0  0  0  0  0  0  0
   62.4014   34.0176   45.4756 H   0  0  0  0  0  0  0  0  0  0  0  0
   58.3343   33.8217   48.5048 H   0  0  0  0  0  0  0  0  0  0  0  0
   58.1424   35.0916   47.2415 H   0  0  0  0  0  0  0  0  0  0  0  0
   57.2520   32.2212   47.2525 H   0  0  0  0  0  0  0  0  0  0  0  0
   56.4994   33.7048   46.5039 H   0  0  0  0  0  0  0  0  0  0  0  0
  1  2  1  0
  2  3  1  0
  3  4  1  0
  4  5  1  0
  5  6  1  0
  6  7  1  0
  7  8  1  0
  8  9  1  0
  9 10  1  0
 10 11  1  0
 11 12  2  0
 12 13  1  0
 13 14  1  0
 13 15  1  0
 15 16  2  0
 16 17  1  0
  9 18  1  0
 18 19  1  0
 19  6  1  0
 16 11  1  0
  1 20  1  0
  1 21  1  0
  1 22  1  0
  2 23  1  0
  2 24  1  0
  4 25  1  0
  4 26  1  0
  5 27  1  0
  5 28  1  0
  7 29  1  0
  7 30  1  0
  8 31  1  0
  8 32  1  0
 10 33  1  0
 10 34  1  0
 12 35  1  0
 14 36  1  0
 14 37  1  0
 14 38  1  0
 15 39  1  0
 17 40  1  0
 17 41  1  0
 17 42  1  0
 18 43  1  0
 18 44  1  0
 19 45  1  0
 19 46  1  0
M  CHG  1  15   1
M  END
>  <UniqueID>  (13) 
13

>  <SMILES>  (13) 
CCOCCN1CCN(Cc2cn(C)[nH+]c2C)CC1

>  <Energy>  (13) 
80.11334368830344

>  <Genealogy>  (13) 
CCOCCN1CCN(Cc2cn(C)[nH+]c2C)CC1 (protonated)
CCOCCN1CCN(Cc2cn(C)[nH+]c2C)CC1 (3D coordinates assigned)
CCOCCN1CCN(Cc2cn(C)[nH+]c2C)CC1 (nonaromatic ring conformer: 80.11334368830344 kcal/mol)

>  <smiles>  (13) 
CCOCCN1CCN(Cc2cn(C)nc2C)CC1

>  <score_type>  (13) 
oracle

>  <origin>  (13) 
adg

>  <m_score__min__energy>  (13) 
-5.4699999999999998

>  <m_primary>  (13) 
energy

$$$$
13:0
     RDKit          3D

 60 61  0  0  0  0  0  0  0  0999 V2000
   60.7120   27.7200   45.6240 C   0  0  0  0  0  0  0  0  0  0  0  0
   60.1730   29.0630   45.1230 C   0  0  0  0  0  0  0  0  0  0  0  0
   58.7130   29.2890   45.3200 N   0  0  0  0  0  0  0  0  0  0  0  0
   58.1870   28.9050   46.6610 C   0  0  0  0  0  0  0  0  0  0  0  0
   59.0650   29.3030   47.8550 C   0  0  0  0  0  0  0  0  0  0  0  0
   57.8370   29.0030   44.1410 C   0  0  0  0  0  0  0  0  0  0  0  0
   56.6430   29.9550   43.8990 C   0  0  0  0  0  0  0  0  0  0  0  0
   56.5910   31.0170   44.8470 O   0  0  0  0  0  0  0  0  0  0  0  0
   57.4710   32.1060   44.8280 C   0  0  0  0  0  0  0  0  0  0  0  0
   58.5010   32.0900   44.1010 O   0  0  0  0  0  0  0  0  0  0  0  0
   57.1760   33.3070   45.6740 C   0  0  0  0  0  0  0  0  0  0  0  0
   57.8520   34.5750   45.1280 C   0  0  0  0  0  0  0  0  0  0  0  0
   59.3880   34.5330   45.1630 C   0  0  0  0  0  0  0  0  0  0  0  0
   59.8800   34.0450   46.4620 N   0  0  0  0  0  0  0  0  0  0  0  0
   59.4870   34.7580   47.6870 C   0  0  0  0  0  0  0  0  0  0  0  0
   59.2870   33.7850   48.8070 C   0  0  0  0  0  0  0  0  0  0  0  0
   59.8910   33.8380   50.0580 C   0  0  0  0  0  0  0  0  0  0  0  0
   59.5450   32.7620   50.8820 C   0  0  0  0  0  0  0  0  0  0  0  0
   58.6700   31.8600   50.2840 C   0  0  0  0  0  0  0  0  0  0  0  0
   58.3340   32.4010   48.7280 S   0  0  0  0  0  0  0  0  0  0  0  0
   60.6240   32.8080   46.5330 C   0  0  0  0  0  0  0  0  0  0  0  0
   60.0170   31.7100   46.4000 O   0  0  0  0  0  0  0  0  0  0  0  0
   62.1230   32.7950   46.7430 C   0  0  2  0  0  0  0  0  0  0  0  0
   62.5580   31.6980   47.7200 C   0  0  0  0  0  0  0  0  0  0  0  0
   63.1870   32.4430   48.8650 C   0  0  0  0  0  0  0  0  0  0  0  0
   62.7890   33.8790   48.6150 C   0  0  0  0  0  0  0  0  0  0  0  0
   62.5590   34.0430   47.2380 O   0  0  0  0  0  0  0  0  0  0  0  0
   60.7147   27.7133   46.7240 H   0  0  0  0  0  0  0  0  0  0  0  0
   60.0707   26.9065   45.2539 H   0  0  0  0  0  0  0  0  0  0  0  0
   61.7378   27.5755   45.2539 H   0  0  0  0  0  0  0  0  0  0  0  0
   60.7128   29.8621   45.6521 H   0  0  0  0  0  0  0  0  0  0  0  0
   60.3314   29.0617   44.0345 H   0  0  0  0  0  0  0  0  0  0  0  0
   58.6720   30.3380   45.3730 H   0  0  0  0  0  0  0  0  0  0  0  0
   57.2045   29.3828   46.7889 H   0  0  0  0  0  0  0  0  0  0  0  0
   58.1503   27.8056   46.6670 H   0  0  0  0  0  0  0  0  0  0  0  0
   58.5398   29.0649   48.7918 H   0  0  0  0  0  0  0  0  0  0  0  0
   60.0131   28.7466   47.8146 H   0  0  0  0  0  0  0  0  0  0  0  0
   59.2714   30.3827   47.8146 H   0  0  0  0  0  0  0  0  0  0  0  0
   58.4712   29.0330   43.2428 H   0  0  0  0  0  0  0  0  0  0  0  0
   57.3805   28.0260   44.3579 H   0  0  0  0  0  0  0  0  0  0  0  0
   56.7342   30.3860   42.8911 H   0  0  0  0  0  0  0  0  0  0  0  0
   55.7197   29.3667   44.0053 H   0  0  0  0  0  0  0  0  0  0  0  0
   56.0879   33.4665   45.6974 H   0  0  0  0  0  0  0  0  0  0  0  0
   57.5718   33.1180   46.6828 H   0  0  0  0  0  0  0  0  0  0  0  0
   57.5341   34.7136   44.0841 H   0  0  0  0  0  0  0  0  0  0  0  0
   57.5428   35.4049   45.7805 H   0  0  0  0  0  0  0  0  0  0  0  0
   59.7463   33.8615   44.3688 H   0  0  0  0  0  0  0  0  0  0  0  0
   59.7670   35.5542   45.0094 H   0  0  0  0  0  0  0  0  0  0  0  0
   60.2775   35.4718   47.9620 H   0  0  0  0  0  0  0  0  0  0  0  0
   58.5446   35.2952   47.5042 H   0  0  0  0  0  0  0  0  0  0  0  0
   60.5719   34.6443   50.3683 H   0  0  0  0  0  0  0  0  0  0  0  0
   59.9283   32.6403   51.9059 H   0  0  0  0  0  0  0  0  0  0  0  0
   58.2670   30.9486   50.7499 H   0  0  0  0  0  0  0  0  0  0  0  0
   62.5811   32.5914   45.7639 H   0  0  0  0  0  0  0  0  0  0  0  0
   61.6897   31.1169   48.0641 H   0  0  0  0  0  0  0  0  0  0  0  0
   63.2493   30.9770   47.2593 H   0  0  0  0  0  0  0  0  0  0  0  0
   62.7926   32.0881   49.8286 H   0  0  0  0  0  0  0  0  0  0  0  0
   64.2769   32.3043   48.9183 H   0  0  0  0  0  0  0  0  0  0  0  0
   61.8717   34.1131   49.1752 H   0  0  0  0  0  0  0  0  0  0  0  0
   63.5896   34.5562   48.9475 H   0  0  0  0  0  0  0  0  0  0  0  0
  1  2  1  0
  2  3  1  0
  3  4  1  0
  4  5  1  0
  3  6  1  0
  6  7  1  0
  7  8  1  0
  8  9  1  0
  9 10  2  0
  9 11  1  0
 11 12  1  0
 12 13  1  0
 13 14  1  0
 14 15  1  0
 15 16  1  0
 16 17  2  0
 17 18  1  0
 18 19  2  0
 19 20  1  0
 14 21  1  0
 21 22  2  0
 21 23  1  0
 23 24  1  0
 24 25  1  0
 25 26  1  0
 26 27  1  0
 20 16  1  0
 27 23  1  0
  1 28  1  0
  1 29  1  0
  1 30  1  0
  2 31  1  0
  2 32  1  0
  3 33  1  0
  4 34  1  0
  4 35  1  0
  5 36  1  0
  5 37  1  0
  5 38  1  0
  6 39  1  0
  6 40  1  0
  7 41  1  0
  7 42  1  0
 11 43  1  0
 11 44  1  0
 12 45  1  0
 12 46  1  0
 13 47  1  0
 13 48  1  0
 15 49  1  0
 15 50  1  0
 17 51  1  0
 18 52  1  0
 19 53  1  0
 23 54  1  6
 24 55  1  0
 24 56  1  0
 25 57  1  0
 25 58  1  0
 26 59  1  0
 26 60  1  0
M  CHG  1   3   1
M  END
>  <UniqueID>  (14) 
14

>  <SMILES>  (14) 
CC[NH+](CC)CCOC(=O)CCCN(Cc1cccs1)C(=O)[C@@H]1CCCO1

>  <Energy>  (14) 
93.25453646044369

>  <Genealogy>  (14) 
CC[NH+](CC)CCOC(=O)CCCN(Cc1cccs1)C(=O)C1CCCO1 (protonated)
CC[NH+](CC)CCOC(=O)CCCN(Cc1cccs1)C(=O)[C@@H]1CCCO1 (chirality)
CC[NH+](CC)CCOC(=O)CCCN(Cc1cccs1)C(=O)[C@@H]1CCCO1 (3D coordinates assigned)
CC[NH+](CC)CCOC(=O)CCCN(Cc1cccs1)C(=O)[C@@H]1CCCO1 (nonaromatic ring conformer: 93.25453646044369 kcal/mol)

>  <smiles>  (14) 
CCN(CC)CCOC(=O)CCCN(Cc1cccs1)C(=O)C1CCCO1

>  <score_type>  (14) 
oracle

>  <origin>  (14) 
adg

>  <m_score__min__energy>  (14) 
-5.54

>  <m_primary>  (14) 
energy

$$$$
14:0
     RDKit          3D

 43 45  0  0  0  0  0  0  0  0999 V2000
   58.4680   31.1770   53.5150 C   0  0  0  0  0  0  0  0  0  0  0  0
   58.0270   31.9200   52.3240 N   0  0  0  0  0  0  0  0  0  0  0  0
   56.6230   31.6190   51.9980 C   0  0  0  0  0  0  0  0  0  0  0  0
   58.3010   33.3710   52.4110 C   0  0  0  0  0  0  0  0  0  0  0  0
   59.3810   33.8750   51.4310 C   0  0  0  0  0  0  0  0  0  0  0  0
   59.9620   32.7550   50.6930 N   0  0  0  0  0  0  0  0  0  0  0  0
   60.8130   32.9630   49.5530 C   0  0  0  0  0  0  0  0  0  0  0  0
   60.2600   33.3450   48.3190 C   0  0  0  0  0  0  0  0  0  0  0  0
   58.8620   33.4510   48.1550 C   0  0  0  0  0  0  0  0  0  0  0  0
   58.3160   33.7980   46.9220 C   0  0  0  0  0  0  0  0  0  0  0  0
   59.1480   34.0320   45.8330 C   0  0  0  0  0  0  0  0  0  0  0  0
   60.5320   33.9460   45.9750 C   0  0  0  0  0  0  0  0  0  0  0  0
   61.1210   33.6330   47.2270 C   0  0  0  0  0  0  0  0  0  0  0  0
   62.4930   33.5930   47.3970 N   0  0  0  0  0  0  0  0  0  0  0  0
   63.3880   34.1740   46.3750 C   0  0  0  0  0  0  0  0  0  0  0  0
   63.0310   33.0290   48.5370 C   0  0  0  0  0  0  0  0  0  0  0  0
   64.3690   32.7240   48.6210 N   0  0  0  0  0  0  0  0  0  0  0  0
   64.9230   32.1980   49.7460 C   0  0  0  0  0  0  0  0  0  0  0  0
   64.1340   31.9230   50.8560 C   0  0  0  0  0  0  0  0  0  0  0  0
   62.7690   32.1770   50.8020 C   0  0  0  0  0  0  0  0  0  0  0  0
   62.1950   32.7320   49.6430 C   0  0  0  0  0  0  0  0  0  0  0  0
   58.1494   31.7137   54.4208 H   0  0  0  0  0  0  0  0  0  0  0  0
   58.0198   30.1725   53.5073 H   0  0  0  0  0  0  0  0  0  0  0  0
   59.5645   31.0893   53.5073 H   0  0  0  0  0  0  0  0  0  0  0  0
   56.0489   31.4959   52.9282 H   0  0  0  0  0  0  0  0  0  0  0  0
   56.1974   32.4463   51.4111 H   0  0  0  0  0  0  0  0  0  0  0  0
   56.5739   30.6899   51.4111 H   0  0  0  0  0  0  0  0  0  0  0  0
   57.3661   33.9110   52.2003 H   0  0  0  0  0  0  0  0  0  0  0  0
   58.6847   33.5580   53.4248 H   0  0  0  0  0  0  0  0  0  0  0  0
   58.9249   34.5798   50.7202 H   0  0  0  0  0  0  0  0  0  0  0  0
   60.1758   34.3762   52.0029 H   0  0  0  0  0  0  0  0  0  0  0  0
   59.7070   31.7790   50.9630 H   0  0  0  0  0  0  0  0  0  0  0  0
   58.1973   33.2575   49.0098 H   0  0  0  0  0  0  0  0  0  0  0  0
   57.2254   33.8871   46.8095 H   0  0  0  0  0  0  0  0  0  0  0  0
   58.7124   34.2860   44.8554 H   0  0  0  0  0  0  0  0  0  0  0  0
   61.1777   34.1237   45.1024 H   0  0  0  0  0  0  0  0  0  0  0  0
   64.2118   34.7088   46.8704 H   0  0  0  0  0  0  0  0  0  0  0  0
   63.7983   33.3696   45.7469 H   0  0  0  0  0  0  0  0  0  0  0  0
   62.8202   34.8762   45.7469 H   0  0  0  0  0  0  0  0  0  0  0  0
   65.0110   32.8380   47.8070 H   0  0  0  0  0  0  0  0  0  0  0  0
   66.0025   31.9890   49.7774 H   0  0  0  0  0  0  0  0  0  0  0  0
   64.5857   31.5080   51.7691 H   0  0  0  0  0  0  0  0  0  0  0  0
   62.1340   31.9432   51.6692 H   0  0  0  0  0  0  0  0  0  0  0  0
  1  2  1  0
  2  3  1  0
  2  4  1  0
  4  5  1  0
  5  6  1  0
  6  7  1  0
  7  8  2  0
  8  9  1  0
  9 10  2  0
 10 11  1  0
 11 12  2  0
 12 13  1  0
 13 14  2  0
 14 15  1  0
 14 16  1  0
 16 17  2  0
 17 18  1  0
 18 19  2  0
 19 20  1  0
 20 21  2  0
 21  7  1  0
 13  8  1  0
 21 16  1  0
  1 22  1  0
  1 23  1  0
  1 24  1  0
  3 25  1  0
  3 26  1  0
  3 27  1  0
  4 28  1  0
  4 29  1  0
  5 30  1  0
  5 31  1  0
  6 32  1  0
  9 33  1  0
 10 34  1  0
 11 35  1  0
 12 36  1  0
 15 37  1  0
 15 38  1  0
 15 39  1  0
 17 40  1  0
 18 41  1  0
 19 42  1  0
 20 43  1  0
M  CHG  2  14   1  17   1
M  END
>  <UniqueID>  (15) 
15

>  <SMILES>  (15) 
CN(C)CCNc1c2ccccc2[n+](C)c2[nH+]cccc12

>  <Energy>  (15) 
71.06954312766399

>  <Genealogy>  (15) 
CN(C)CCNc1c2ccccc2[n+](C)c2[nH+]cccc12 (protonated)
CN(C)CCNc1c2ccccc2[n+](C)c2[nH+]cccc12 (3D coordinates assigned)
CN(C)CCNc1c2ccccc2[n+](C)c2[nH+]cccc12 (optimized conformer: 71.06954312766399 kcal/mol)

>  <smiles>  (15) 
CN(C)CCNc1c2ccccc2[n+](C)c2ncccc12

>  <score_type>  (15) 
oracle

>  <origin>  (15) 
adg

>  <m_score__min__energy>  (15) 
-3.77

>  <m_primary>  (15) 
energy

$$$$
15:0
     RDKit          3D

 53 56  0  0  0  0  0  0  0  0999 V2000
   63.3530   33.8440   46.4020 C   0  0  0  0  0  0  0  0  0  0  0  0
   63.2720   32.7680   47.4820 C   0  0  0  0  0  0  0  0  0  0  0  0
   63.4410   33.3650   48.8270 N   0  0  0  0  0  0  0  0  0  0  0  0
   64.6140   32.7730   49.5040 C   0  0  0  0  0  0  0  0  0  0  0  0
   62.2150   33.1750   49.6380 C   0  0  0  0  0  0  0  0  0  0  0  0
   61.1250   34.1950   49.2640 C   0  0  0  0  0  0  0  0  0  0  0  0
   59.7820   33.6200   49.4500 N   0  0  0  0  0  0  0  0  0  0  0  0
   59.6190   32.4260   48.6370 C   0  0  0  0  0  0  0  0  0  0  0  0
   59.8290   31.1370   49.1940 C   0  0  0  0  0  0  0  0  0  0  0  0
   59.9900   30.9340   50.5860 C   0  0  0  0  0  0  0  0  0  0  0  0
   60.2870   29.6720   51.0960 C   0  0  0  0  0  0  0  0  0  0  0  0
   60.4300   28.5870   50.2390 C   0  0  0  0  0  0  0  0  0  0  0  0
   60.2540   28.7530   48.8660 C   0  0  0  0  0  0  0  0  0  0  0  0
   59.9310   30.0190   48.3220 C   0  0  0  0  0  0  0  0  0  0  0  0
   59.7260   30.1790   46.9730 N   0  0  0  0  0  0  0  0  0  0  0  0
   60.4210   29.2710   46.0320 C   0  0  0  0  0  0  0  0  0  0  0  0
   59.1160   31.3230   46.5060 C   0  0  0  0  0  0  0  0  0  0  0  0
   59.2250   32.5150   47.2730 C   0  0  0  0  0  0  0  0  0  0  0  0
   58.9580   33.7510   46.6440 C   0  0  0  0  0  0  0  0  0  0  0  0
   58.5960   33.8090   45.3030 C   0  0  0  0  0  0  0  0  0  0  0  0
   58.3210   32.6380   44.5970 C   0  0  0  0  0  0  0  0  0  0  0  0
   57.8360   32.7150   43.2830 C   0  0  0  0  0  0  0  0  0  0  0  0
   57.3960   31.5660   42.6300 C   0  0  0  0  0  0  0  0  0  0  0  0
   57.3600   30.3510   43.3120 C   0  0  0  0  0  0  0  0  0  0  0  0
   57.8450   30.2550   44.6220 C   0  0  0  0  0  0  0  0  0  0  0  0
   57.3750   28.8180   45.5290 Cl  0  0  0  0  0  0  0  0  0  0  0  0
   58.4610   31.3800   45.2360 C   0  0  0  0  0  0  0  0  0  0  0  0
   63.4275   34.8340   46.8756 H   0  0  0  0  0  0  0  0  0  0  0  0
   64.2405   33.6692   45.7761 H   0  0  0  0  0  0  0  0  0  0  0  0
   62.4493   33.8041   45.7761 H   0  0  0  0  0  0  0  0  0  0  0  0
   62.2910   32.2735   47.4267 H   0  0  0  0  0  0  0  0  0  0  0  0
   64.0768   32.0369   47.3150 H   0  0  0  0  0  0  0  0  0  0  0  0
   64.4809   32.8402   50.5939 H   0  0  0  0  0  0  0  0  0  0  0  0
   64.7123   31.7173   49.2110 H   0  0  0  0  0  0  0  0  0  0  0  0
   65.5217   33.3209   49.2110 H   0  0  0  0  0  0  0  0  0  0  0  0
   61.8277   32.1597   49.4671 H   0  0  0  0  0  0  0  0  0  0  0  0
   62.4761   33.3227   50.6963 H   0  0  0  0  0  0  0  0  0  0  0  0
   61.2283   35.0836   49.9041 H   0  0  0  0  0  0  0  0  0  0  0  0
   61.2472   34.4681   48.2055 H   0  0  0  0  0  0  0  0  0  0  0  0
   59.0510   34.3310   49.2210 H   0  0  0  0  0  0  0  0  0  0  0  0
   59.6080   33.4090   50.4570 H   0  0  0  0  0  0  0  0  0  0  0  0
   59.8790   31.7847   51.2745 H   0  0  0  0  0  0  0  0  0  0  0  0
   60.4087   29.5337   52.1805 H   0  0  0  0  0  0  0  0  0  0  0  0
   60.6823   27.5961   50.6446 H   0  0  0  0  0  0  0  0  0  0  0  0
   60.3678   27.8879   48.1962 H   0  0  0  0  0  0  0  0  0  0  0  0
   60.9936   28.5229   46.5998 H   0  0  0  0  0  0  0  0  0  0  0  0
   59.6796   28.7619   45.3986 H   0  0  0  0  0  0  0  0  0  0  0  0
   61.1060   29.8537   45.3986 H   0  0  0  0  0  0  0  0  0  0  0  0
   59.0377   34.6822   47.2241 H   0  0  0  0  0  0  0  0  0  0  0  0
   58.5261   34.7829   44.7964 H   0  0  0  0  0  0  0  0  0  0  0  0
   57.8030   33.6857   42.7667 H   0  0  0  0  0  0  0  0  0  0  0  0
   57.0776   31.6174   41.5783 H   0  0  0  0  0  0  0  0  0  0  0  0
   56.9470   29.4598   42.8168 H   0  0  0  0  0  0  0  0  0  0  0  0
  1  2  1  0
  2  3  1  0
  3  4  1  0
  3  5  1  0
  5  6  1  0
  6  7  1  0
  7  8  1  0
  8  9  2  0
  9 10  1  0
 10 11  2  0
 11 12  1  0
 12 13  2  0
 13 14  1  0
 14 15  2  0
 15 16  1  0
 15 17  1  0
 17 18  2  0
 18 19  1  0
 19 20  2  0
 20 21  1  0
 21 22  2  0
 22 23  1  0
 23 24  2  0
 24 25  1  0
 25 26  1  0
 25 27  2  0
 18  8  1  0
 27 21  1  0
 14  9  1  0
 27 17  1  0
  1 28  1  0
  1 29  1  0
  1 30  1  0
  2 31  1  0
  2 32  1  0
  4 33  1  0
  4 34  1  0
  4 35  1  0
  5 36  1  0
  5 37  1  0
  6 38  1  0
  6 39  1  0
  7 40  1  0
  7 41  1  0
 10 42  1  0
 11 43  1  0
 12 44  1  0
 13 45  1  0
 16 46  1  0
 16 47  1  0
 16 48  1  0
 19 49  1  0
 20 50  1  0
 22 51  1  0
 23 52  1  0
 24 53  1  0
M  CHG  2   7   1  15   1
M  END
>  <UniqueID>  (16) 
16

>  <SMILES>  (16) 
CCN(C)CC[NH2+]c1c2ccccc2[n+](C)c2c1ccc1cccc(Cl)c12

>  <Energy>  (16) 
106.62834862480824

>  <Genealogy>  (16) 
CCN(C)CC[NH2+]c1c2ccccc2[n+](C)c2c1ccc1cccc(Cl)c12 (protonated)
CCN(C)CC[NH2+]c1c2ccccc2[n+](C)c2c1ccc1cccc(Cl)c12 (3D coordinates assigned)
CCN(C)CC[NH2+]c1c2ccccc2[n+](C)c2c1ccc1cccc(Cl)c12 (optimized conformer: 106.62834862480824 kcal/mol)

>  <smiles>  (16) 
CCN(C)CCNc1c2ccccc2[n+](C)c2c1ccc1cccc(Cl)c12

>  <score_type>  (16) 
oracle

>  <origin>  (16) 
adg

>  <m_score__min__energy>  (16) 
-5.3899999999999997

>  <m_primary>  (16) 
energy

$$$$
16:0
     RDKit          3D

 41 43  0  0  0  0  0  0  0  0999 V2000
   58.9340   31.9660   47.4330 C   0  0  0  0  0  0  0  0  0  0  0  0
   59.1840   33.2220   46.7250 N   0  0  0  0  0  0  0  0  0  0  0  0
   58.3830   33.8340   45.8270 C   0  0  0  0  0  0  0  0  0  0  0  0
   56.7880   33.2150   45.2810 S   0  0  0  0  0  0  0  0  0  0  0  0
   57.4910   31.9870   44.1240 C   0  0  0  0  0  0  0  0  0  0  0  0
   57.0210   30.5990   44.4630 C   0  0  0  0  0  0  0  0  0  0  0  0
   55.7770   30.3870   44.4970 O   0  0  0  0  0  0  0  0  0  0  0  0
   57.9420   29.5110   44.7070 N   0  0  0  0  0  0  0  0  0  0  0  0
   59.3210   29.7720   45.1500 C   0  0  0  0  0  0  0  0  0  0  0  0
   60.2260   28.5830   44.8140 C   0  0  0  0  0  0  0  0  0  0  0  0
   59.6660   27.3730   45.2850 O   0  0  0  0  0  0  0  0  0  0  0  0
   58.4680   27.1060   44.5830 C   0  0  0  0  0  0  0  0  0  0  0  0
   57.4040   28.1580   44.9060 C   0  0  0  0  0  0  0  0  0  0  0  0
   58.9220   34.9830   45.3760 N   0  0  0  0  0  0  0  0  0  0  0  0
   60.0860   35.1090   45.9930 N   0  0  0  0  0  0  0  0  0  0  0  0
   60.2570   34.0420   46.7970 C   0  0  0  0  0  0  0  0  0  0  0  0
   61.4590   33.8330   47.6340 C   0  0  0  0  0  0  0  0  0  0  0  0
   61.4380   34.2060   48.9880 C   0  0  0  0  0  0  0  0  0  0  0  0
   62.5730   34.0280   49.7870 C   0  0  0  0  0  0  0  0  0  0  0  0
   63.7380   33.4880   49.2380 C   0  0  0  0  0  0  0  0  0  0  0  0
   63.7740   33.1330   47.8870 C   0  0  0  0  0  0  0  0  0  0  0  0
   62.6410   33.3090   47.0850 C   0  0  0  0  0  0  0  0  0  0  0  0
   58.9693   32.1434   48.5180 H   0  0  0  0  0  0  0  0  0  0  0  0
   57.9415   31.5805   47.1566 H   0  0  0  0  0  0  0  0  0  0  0  0
   59.7032   31.2299   47.1566 H   0  0  0  0  0  0  0  0  0  0  0  0
   57.1742   32.2344   43.1001 H   0  0  0  0  0  0  0  0  0  0  0  0
   58.5877   32.0160   44.2047 H   0  0  0  0  0  0  0  0  0  0  0  0
   59.7005   30.6708   44.6420 H   0  0  0  0  0  0  0  0  0  0  0  0
   59.3222   29.9235   46.2395 H   0  0  0  0  0  0  0  0  0  0  0  0
   60.3496   28.5217   43.7227 H   0  0  0  0  0  0  0  0  0  0  0  0
   61.1996   28.7334   45.3034 H   0  0  0  0  0  0  0  0  0  0  0  0
   58.6724   27.1195   43.5022 H   0  0  0  0  0  0  0  0  0  0  0  0
   58.0923   26.1184   44.8887 H   0  0  0  0  0  0  0  0  0  0  0  0
   56.5376   28.0118   44.2442 H   0  0  0  0  0  0  0  0  0  0  0  0
   57.1006   28.0465   45.9574 H   0  0  0  0  0  0  0  0  0  0  0  0
   60.7500   35.9010   45.8460 H   0  0  0  0  0  0  0  0  0  0  0  0
   60.5253   34.6400   49.4223 H   0  0  0  0  0  0  0  0  0  0  0  0
   62.5475   34.3138   50.8489 H   0  0  0  0  0  0  0  0  0  0  0  0
   64.6271   33.3421   49.8690 H   0  0  0  0  0  0  0  0  0  0  0  0
   64.6943   32.7146   47.4534 H   0  0  0  0  0  0  0  0  0  0  0  0
   62.6761   33.0358   46.0200 H   0  0  0  0  0  0  0  0  0  0  0  0
  1  2  1  0
  2  3  1  0
  3  4  1  0
  4  5  1  0
  5  6  1  0
  6  7  2  0
  6  8  1  0
  8  9  1  0
  9 10  1  0
 10 11  1  0
 11 12  1  0
 12 13  1  0
  3 14  2  0
 14 15  1  0
 15 16  2  0
 16 17  1  0
 17 18  2  0
 18 19  1  0
 19 20  2  0
 20 21  1  0
 21 22  2  0
 16  2  1  0
 22 17  1  0
 13  8  1  0
  1 23  1  0
  1 24  1  0
  1 25  1  0
  5 26  1  0
  5 27  1  0
  9 28  1  0
  9 29  1  0
 10 30  1  0
 10 31  1  0
 12 32  1  0
 12 33  1  0
 13 34  1  0
 13 35  1  0
 15 36  1  0
 18 37  1  0
 19 38  1  0
 20 39  1  0
 21 40  1  0
 22 41  1  0
M  CHG  1  15   1
M  END
>  <UniqueID>  (17) 
17

>  <SMILES>  (17) 
Cn1c(SCC(=O)N2CCOCC2)n[nH+]c1-c1ccccc1

>  <Energy>  (17) 
79.53003342521679

>  <Genealogy>  (17) 
Cn1c(SCC(=O)N2CCOCC2)n[nH+]c1-c1ccccc1 (protonated)
Cn1c(SCC(=O)N2CCOCC2)n[nH+]c1-c1ccccc1 (3D coordinates assigned)
Cn1c(SCC(=O)N2CCOCC2)n[nH+]c1-c1ccccc1 (nonaromatic ring conformer: 79.53003342521679 kcal/mol)

>  <smiles>  (17) 
Cn1c(SCC(=O)N2CCOCC2)nnc1-c1ccccc1

>  <score_type>  (17) 
oracle

>  <origin>  (17) 
adg

>  <m_score__min__energy>  (17) 
-6.6200000000000001

>  <m_primary>  (17) 
energy

$$$$
17:0
     RDKit          3D

 44 47  0  0  0  0  0  0  0  0999 V2000
   58.9520   34.9710   44.8650 C   0  0  0  0  0  0  0  0  0  0  0  0
   59.1110   34.5210   46.2410 N   0  0  0  0  0  0  0  0  0  0  0  0
   59.4470   35.3380   47.2310 N   0  0  0  0  0  0  0  0  0  0  0  0
   59.6100   34.5970   48.3460 C   0  0  0  0  0  0  0  0  0  0  0  0
   59.3810   33.2750   48.0330 C   0  0  0  0  0  0  0  0  0  0  0  0
   59.0300   33.2540   46.7090 C   0  0  0  0  0  0  0  0  0  0  0  0
   58.8460   31.9740   45.9240 C   0  0  2  0  0  0  0  0  0  0  0  0
   57.5490   31.9830   45.0730 C   0  0  0  0  0  0  0  0  0  0  0  0
   56.8620   30.7470   45.1700 O   0  0  0  0  0  0  0  0  0  0  0  0
   57.0710   29.9680   44.0060 C   0  0  0  0  0  0  0  0  0  0  0  0
   58.2460   28.9870   44.1710 C   0  0  0  0  0  0  0  0  0  0  0  0
   57.9310   27.7930   45.0610 C   0  0  0  0  0  0  0  0  0  0  0  0
   58.1460   27.5880   43.5700 C   0  0  0  0  0  0  0  0  0  0  0  0
   58.8340   30.7490   46.8880 C   0  0  0  0  0  0  0  0  0  0  0  0
   59.7740   30.8590   48.0290 N   0  0  0  0  0  0  0  0  0  0  0  0
   61.1790   30.4890   47.7430 C   0  0  0  0  0  0  0  0  0  0  0  0
   62.1220   31.6570   47.7020 C   0  0  0  0  0  0  0  0  0  0  0  0
   62.0890   32.6170   46.7520 N   0  0  0  0  0  0  0  0  0  0  0  0
   63.0270   33.5770   46.9650 C   0  0  0  0  0  0  0  0  0  0  0  0
   63.8040   33.4000   48.1030 C   0  0  0  0  0  0  0  0  0  0  0  0
   63.2920   31.9910   48.8640 S   0  0  0  0  0  0  0  0  0  0  0  0
   59.5830   32.0590   48.8730 C   0  0  0  0  0  0  0  0  0  0  0  0
   58.5855   36.0081   44.8584 H   0  0  0  0  0  0  0  0  0  0  0  0
   59.9220   34.9216   44.3487 H   0  0  0  0  0  0  0  0  0  0  0  0
   58.2283   34.3232   44.3487 H   0  0  0  0  0  0  0  0  0  0  0  0
   59.8806   34.9836   49.3396 H   0  0  0  0  0  0  0  0  0  0  0  0
   59.6964   31.8962   45.2307 H   0  0  0  0  0  0  0  0  0  0  0  0
   56.8907   32.7882   45.4313 H   0  0  0  0  0  0  0  0  0  0  0  0
   57.8248   32.1458   44.0207 H   0  0  0  0  0  0  0  0  0  0  0  0
   56.1567   29.3944   43.7938 H   0  0  0  0  0  0  0  0  0  0  0  0
   57.3131   30.6516   43.1790 H   0  0  0  0  0  0  0  0  0  0  0  0
   59.0120   29.7740   44.1091 H   0  0  0  0  0  0  0  0  0  0  0  0
   58.6809   27.4301   45.7793 H   0  0  0  0  0  0  0  0  0  0  0  0
   57.1289   27.5441   45.7714 H   0  0  0  0  0  0  0  0  0  0  0  0
   59.0516   27.0780   43.2098 H   0  0  0  0  0  0  0  0  0  0  0  0
   57.5648   27.1307   42.7557 H   0  0  0  0  0  0  0  0  0  0  0  0
   57.8162   30.6375   47.2901 H   0  0  0  0  0  0  0  0  0  0  0  0
   59.1585   29.8804   46.2962 H   0  0  0  0  0  0  0  0  0  0  0  0
   61.5205   29.7961   48.5261 H   0  0  0  0  0  0  0  0  0  0  0  0
   61.1909   30.0350   46.7411 H   0  0  0  0  0  0  0  0  0  0  0  0
   63.1612   34.4319   46.2859 H   0  0  0  0  0  0  0  0  0  0  0  0
   64.6112   34.0641   48.4455 H   0  0  0  0  0  0  0  0  0  0  0  0
   58.7001   31.9125   49.5125 H   0  0  0  0  0  0  0  0  0  0  0  0
   60.4837   32.2027   49.4879 H   0  0  0  0  0  0  0  0  0  0  0  0
  1  2  1  0
  2  3  1  0
  3  4  2  0
  4  5  1  0
  5  6  2  0
  6  7  1  0
  7  8  1  0
  8  9  1  0
  9 10  1  0
 10 11  1  0
 11 12  1  0
 12 13  1  0
  7 14  1  0
 14 15  1  0
 15 16  1  0
 16 17  1  0
 17 18  2  0
 18 19  1  0
 19 20  2  0
 20 21  1  0
 15 22  1  0
  6  2  1  0
 13 11  1  0
 21 17  1  0
 22  5  1  0
  1 23  1  0
  1 24  1  0
  1 25  1  0
  4 26  1  0
  7 27  1  6
  8 28  1  0
  8 29  1  0
 10 30  1  0
 10 31  1  0
 11 32  1  0
 12 33  1  0
 12 34  1  0
 13 35  1  0
 13 36  1  0
 14 37  1  0
 14 38  1  0
 16 39  1  0
 16 40  1  0
 19 41  1  0
 20 42  1  0
 22 43  1  0
 22 44  1  0
M  END
>  <UniqueID>  (18) 
18

>  <SMILES>  (18) 
Cn1ncc2c1[C@H](COCC1CC1)CN(Cc1nccs1)C2

>  <Energy>  (18) 
384.50000450717545

>  <Genealogy>  (18) 
Cn1ncc2c1[C@H](COCC1CC1)CN(Cc1nccs1)C2 (chirality)
Cn1ncc2c1[C@H](COCC1CC1)CN(Cc1nccs1)C2 (3D coordinates assigned)
Cn1ncc2c1[C@H](COCC1CC1)CN(Cc1nccs1)C2 (nonaromatic ring conformer: 384.50000450717545 kcal/mol)

>  <smiles>  (18) 
Cn1ncc2c1C(COCC1CC1)CN(Cc1nccs1)C2

>  <score_type>  (18) 
oracle

>  <origin>  (18) 
adg

>  <m_score__min__energy>  (18) 
-6.9699999999999998

>  <m_primary>  (18) 
energy

$$$$
18:0
     RDKit          3D

 50 53  0  0  1  0  0  0  0  0999 V2000
   56.7940   25.5540   46.3880 C   0  0  0  0  0  0  0  0  0  0  0  0
   57.3920   26.9090   46.2560 C   0  0  0  0  0  0  0  0  0  0  0  0
   58.3100   27.3940   47.1100 N   0  0  0  0  0  0  0  0  0  0  0  0
   58.8730   28.6050   47.0270 C   0  0  0  0  0  0  0  0  0  0  0  0
   58.5150   29.4520   46.0060 C   0  0  0  0  0  0  0  0  0  0  0  0
   59.2000   30.5920   46.1330 N   0  0  0  0  0  0  0  0  0  0  0  0
   59.9820   30.4540   47.2300 C   0  0  0  0  0  0  0  0  0  0  0  0
   60.8810   31.5220   47.6660 C   0  0  0  0  0  0  0  0  0  0  0  0
   62.1100   31.7830   47.1210 C   0  0  0  0  0  0  0  0  0  0  0  0
   62.9330   32.8310   47.5520 C   0  0  0  0  0  0  0  0  0  0  0  0
   62.5360   33.6590   48.5630 C   0  0  0  0  0  0  0  0  0  0  0  0
   61.3110   33.4220   49.1290 C   0  0  0  0  0  0  0  0  0  0  0  0
   60.4930   32.3830   48.7020 C   0  0  0  0  0  0  0  0  0  0  0  0
   58.9670   32.2190   49.5280 Cl  0  0  0  0  0  0  0  0  0  0  0  0
   59.8050   29.2500   47.7980 N   0  0  0  0  0  0  0  0  0  0  0  0
   60.3930   28.6280   48.9390 C   0  0  0  0  0  0  0  0  0  0  0  0
   57.5640   28.9500   45.1210 C   0  0  0  0  0  0  0  0  0  0  0  0
   57.1670   29.6560   44.1290 N   0  0  0  0  0  0  0  0  0  0  0  0
   57.8490   30.9190   43.7950 C   0  0  0  0  0  0  0  0  0  0  0  0
   57.0080   31.9590   44.5140 C   0  0  0  0  0  0  0  0  0  0  0  0
   57.5070   33.2840   44.4810 N   0  0  0  0  0  0  0  0  0  0  0  0
   57.0360   34.1300   45.5400 C   0  0  0  0  0  0  0  0  0  0  0  0
   57.8850   33.8620   46.7630 C   0  0  0  0  0  0  0  0  0  0  0  0
   59.2450   33.8210   46.4660 O   0  0  0  0  0  0  0  0  0  0  0  0
   59.4950   34.3600   45.2010 C   0  0  0  0  0  0  0  0  0  0  0  0
   58.8680   33.4800   44.1210 C   0  0  0  0  0  0  0  0  0  0  0  0
   57.0270   27.7230   45.2470 N   0  0  0  0  0  0  0  0  0  0  0  0
   56.6837   25.3041   47.4535 H   0  0  0  0  0  0  0  0  0  0  0  0
   55.8063   25.5404   45.9041 H   0  0  0  0  0  0  0  0  0  0  0  0
   57.4496   24.8151   45.9041 H   0  0  0  0  0  0  0  0  0  0  0  0
   62.4682   31.1381   46.3050 H   0  0  0  0  0  0  0  0  0  0  0  0
   63.9096   32.9890   47.0711 H   0  0  0  0  0  0  0  0  0  0  0  0
   63.1752   34.4844   48.9095 H   0  0  0  0  0  0  0  0  0  0  0  0
   60.9649   34.0732   49.9452 H   0  0  0  0  0  0  0  0  0  0  0  0
   59.9742   29.0710   49.8546 H   0  0  0  0  0  0  0  0  0  0  0  0
   60.1764   27.5497   48.9211 H   0  0  0  0  0  0  0  0  0  0  0  0
   61.4818   28.7837   48.9211 H   0  0  0  0  0  0  0  0  0  0  0  0
   58.8840   30.9205   44.1676 H   0  0  0  0  0  0  0  0  0  0  0  0
   57.9279   31.0970   42.7124 H   0  0  0  0  0  0  0  0  0  0  0  0
   56.0091   31.9628   44.0533 H   0  0  0  0  0  0  0  0  0  0  0  0
   57.0102   31.6648   45.5739 H   0  0  0  0  0  0  0  0  0  0  0  0
   57.1292   35.1855   45.2445 H   0  0  0  0  0  0  0  0  0  0  0  0
   55.9778   33.9206   45.7553 H   0  0  0  0  0  0  0  0  0  0  0  0
   57.7078   34.6609   47.4981 H   0  0  0  0  0  0  0  0  0  0  0  0
   57.5986   32.8774   47.1612 H   0  0  0  0  0  0  0  0  0  0  0  0
   59.0622   35.3697   45.1439 H   0  0  0  0  0  0  0  0  0  0  0  0
   60.5820   34.4084   45.0392 H   0  0  0  0  0  0  0  0  0  0  0  0
   58.9316   33.9795   43.1430 H   0  0  0  0  0  0  0  0  0  0  0  0
   59.3956   32.5178   44.0443 H   0  0  0  0  0  0  0  0  0  0  0  0
   56.3190   27.3760   44.5710 H   0  0  0  0  0  0  0  0  0  0  0  0
  1  2  1  0
  2  3  2  0
  3  4  1  0
  4  5  2  0
  5  6  1  0
  6  7  2  0
  7  8  1  0
  8  9  2  0
  9 10  1  0
 10 11  2  0
 11 12  1  0
 12 13  2  0
 13 14  1  0
  7 15  1  0
 15 16  1  0
  5 17  1  0
 17 18  2  0
 18 19  1  0
 19 20  1  0
 20 21  1  0
 21 22  1  0
 22 23  1  0
 23 24  1  0
 24 25  1  0
 25 26  1  0
 17 27  1  0
 27  2  1  0
 15  4  1  0
 26 21  1  0
 13  8  1  0
  1 28  1  0
  1 29  1  0
  1 30  1  0
  9 31  1  0
 10 32  1  0
 11 33  1  0
 12 34  1  0
 16 35  1  0
 16 36  1  0
 16 37  1  0
 19 38  1  0
 19 39  1  0
 20 40  1  0
 20 41  1  0
 22 42  1  0
 22 43  1  0
 23 44  1  0
 23 45  1  0
 25 46  1  0
 25 47  1  0
 26 48  1  0
 26 49  1  0
 27 50  1  0
M  END
>  <smiles>  (19) 
Cc1nc2c(nc(-c3ccccc3Cl)n2C)c(=NCCN2CCOCC2)[nH]1

>  <score_type>  (19) 
oracle

>  <origin>  (19) 
adg

>  <m_score__min__energy>  (19) 
-8.2400000000000002

>  <m_primary>  (19) 
energy

$$$$
19:0
     RDKit          3D

 54 57  0  0  0  0  0  0  0  0999 V2000
   60.3140   33.8520   50.3600 C   0  0  0  0  0  0  0  0  0  0  0  0
   59.3370   33.4870   51.4720 C   0  0  0  0  0  0  0  0  0  0  0  0
   58.6660   32.2090   51.1470 N   0  0  0  0  0  0  0  0  0  0  0  0
   57.7090   31.7960   52.1850 C   0  0  0  0  0  0  0  0  0  0  0  0
   59.6050   31.1330   50.7480 C   0  0  0  0  0  0  0  0  0  0  0  0
   59.5760   30.7740   49.2430 C   0  0  0  0  0  0  0  0  0  0  0  0
   58.5030   31.4730   48.5330 N   0  0  0  0  0  0  0  0  0  0  0  0
   58.5350   31.6070   47.1030 C   0  0  0  0  0  0  0  0  0  0  0  0
   58.7470   32.8610   46.5040 C   0  0  0  0  0  0  0  0  0  0  0  0
   59.0030   34.0030   47.2900 C   0  0  0  0  0  0  0  0  0  0  0  0
   59.2690   35.2320   46.6910 C   0  0  0  0  0  0  0  0  0  0  0  0
   59.3030   35.3380   45.3050 C   0  0  0  0  0  0  0  0  0  0  0  0
   59.0490   34.2230   44.5060 C   0  0  0  0  0  0  0  0  0  0  0  0
   58.7340   32.9660   45.0850 C   0  0  0  0  0  0  0  0  0  0  0  0
   58.4400   31.8570   44.3090 N   0  0  0  0  0  0  0  0  0  0  0  0
   58.1420   32.0140   42.8690 C   0  0  0  0  0  0  0  0  0  0  0  0
   58.3850   30.6050   44.8890 C   0  0  0  0  0  0  0  0  0  0  0  0
   58.3300   29.4570   44.1350 N   0  0  0  0  0  0  0  0  0  0  0  0
   58.1860   28.2220   44.7080 C   0  0  0  0  0  0  0  0  0  0  0  0
   58.0990   27.0340   43.9330 C   0  0  0  0  0  0  0  0  0  0  0  0
   58.1550   27.0600   42.4280 C   0  0  0  0  0  0  0  0  0  0  0  0
   57.9520   25.7970   44.5880 C   0  0  0  0  0  0  0  0  0  0  0  0
   57.8920   25.7300   45.9800 C   0  0  0  0  0  0  0  0  0  0  0  0
   57.9790   26.8930   46.7430 C   0  0  0  0  0  0  0  0  0  0  0  0
   58.1250   28.1320   46.1130 C   0  0  0  0  0  0  0  0  0  0  0  0
   58.2340   29.2560   46.8590 N   0  0  0  0  0  0  0  0  0  0  0  0
   58.3850   30.4800   46.2940 C   0  0  0  0  0  0  0  0  0  0  0  0
   61.2576   34.2045   50.8020 H   0  0  0  0  0  0  0  0  0  0  0  0
   60.5090   32.9661   49.7378 H   0  0  0  0  0  0  0  0  0  0  0  0
   59.8803   34.6488   49.7378 H   0  0  0  0  0  0  0  0  0  0  0  0
   59.8849   33.3815   52.4200 H   0  0  0  0  0  0  0  0  0  0  0  0
   58.5816   34.2808   51.5681 H   0  0  0  0  0  0  0  0  0  0  0  0
   58.1424   31.9830   53.1786 H   0  0  0  0  0  0  0  0  0  0  0  0
   56.7786   32.3727   52.0763 H   0  0  0  0  0  0  0  0  0  0  0  0
   57.4904   30.7234   52.0763 H   0  0  0  0  0  0  0  0  0  0  0  0
   60.6249   31.4563   51.0034 H   0  0  0  0  0  0  0  0  0  0  0  0
   59.2891   30.2288   51.2890 H   0  0  0  0  0  0  0  0  0  0  0  0
   60.5402   31.0527   48.7928 H   0  0  0  0  0  0  0  0  0  0  0  0
   59.3936   29.6928   49.1550 H   0  0  0  0  0  0  0  0  0  0  0  0
   57.8280   32.0690   49.0640 H   0  0  0  0  0  0  0  0  0  0  0  0
   58.9926   33.9227   48.3870 H   0  0  0  0  0  0  0  0  0  0  0  0
   59.4523   36.1193   47.3148 H   0  0  0  0  0  0  0  0  0  0  0  0
   59.5314   36.3064   44.8360 H   0  0  0  0  0  0  0  0  0  0  0  0
   59.0935   34.3194   43.4111 H   0  0  0  0  0  0  0  0  0  0  0  0
   57.1747   32.5236   42.7482 H   0  0  0  0  0  0  0  0  0  0  0  0
   58.9335   32.6122   42.3939 H   0  0  0  0  0  0  0  0  0  0  0  0
   58.0962   31.0230   42.3939 H   0  0  0  0  0  0  0  0  0  0  0  0
   58.4460   29.5140   43.1020 H   0  0  0  0  0  0  0  0  0  0  0  0
   59.1085   27.5027   42.1042 H   0  0  0  0  0  0  0  0  0  0  0  0
   58.0769   26.0335   42.0404 H   0  0  0  0  0  0  0  0  0  0  0  0
   57.3205   27.6628   42.0404 H   0  0  0  0  0  0  0  0  0  0  0  0
   57.8837   24.8727   43.9956 H   0  0  0  0  0  0  0  0  0  0  0  0
   57.7756   24.7557   46.4773 H   0  0  0  0  0  0  0  0  0  0  0  0
   57.9328   26.8358   47.8405 H   0  0  0  0  0  0  0  0  0  0  0  0
  1  2  1  0
  2  3  1  0
  3  4  1  0
  3  5  1  0
  5  6  1  0
  6  7  1  0
  7  8  1  0
  8  9  2  0
  9 10  1  0
 10 11  2  0
 11 12  1  0
 12 13  2  0
 13 14  1  0
 14 15  2  0
 15 16  1  0
 15 17  1  0
 17 18  2  0
 18 19  1  0
 19 20  2  0
 20 21  1  0
 20 22  1  0
 22 23  2  0
 23 24  1  0
 24 25  2  0
 25 26  1  0
 26 27  2  0
 27  8  1  0
 14  9  1  0
 27 17  1  0
 25 19  1  0
  1 28  1  0
  1 29  1  0
  1 30  1  0
  2 31  1  0
  2 32  1  0
  4 33  1  0
  4 34  1  0
  4 35  1  0
  5 36  1  0
  5 37  1  0
  6 38  1  0
  6 39  1  0
  7 40  1  0
 10 41  1  0
 11 42  1  0
 12 43  1  0
 13 44  1  0
 16 45  1  0
 16 46  1  0
 16 47  1  0
 18 48  1  0
 21 49  1  0
 21 50  1  0
 21 51  1  0
 22 52  1  0
 23 53  1  0
 24 54  1  0
M  CHG  2  15   1  18   1
M  END
>  <UniqueID>  (20) 
19

>  <SMILES>  (20) 
CCN(C)CCNc1c2ccccc2[n+](C)c2[nH+]c3c(C)cccc3nc12

>  <Energy>  (20) 
87.87817058942062

>  <Genealogy>  (20) 
CCN(C)CCNc1c2ccccc2[n+](C)c2[nH+]c3c(C)cccc3nc12 (protonated)
CCN(C)CCNc1c2ccccc2[n+](C)c2[nH+]c3c(C)cccc3nc12 (3D coordinates assigned)
CCN(C)CCNc1c2ccccc2[n+](C)c2[nH+]c3c(C)cccc3nc12 (optimized conformer: 87.87817058942062 kcal/mol)

>  <smiles>  (20) 
CCN(C)CCNc1c2ccccc2[n+](C)c2nc3c(C)cccc3nc12

>  <score_type>  (20) 
oracle

>  <origin>  (20) 
adg

>  <m_score__min__energy>  (20) 
-5.6100000000000003

>  <m_primary>  (20) 
energy

$$$$
20:0
     RDKit          3D

 64 66  0  0  0  0  0  0  0  0999 V2000
   60.0570   28.0550   48.4860 C   0  0  0  0  0  0  0  0  0  0  0  0
   58.8500   28.8060   48.6040 O   0  0  0  0  0  0  0  0  0  0  0  0
   58.8420   30.1960   48.4510 C   0  0  0  0  0  0  0  0  0  0  0  0
   59.0230   31.0120   49.5900 C   0  0  0  0  0  0  0  0  0  0  0  0
   58.9500   30.4730   50.9320 N   0  0  0  0  0  0  0  0  0  0  0  0
   58.6110   31.5150   51.9180 C   0  0  0  0  0  0  0  0  0  0  0  0
   57.1860   31.3440   52.4790 C   0  0  0  0  0  0  0  0  0  0  0  0
   56.5950   30.0700   52.0140 N   0  0  0  0  0  0  0  0  0  0  0  0
   56.9980   28.9650   52.8980 C   0  0  0  0  0  0  0  0  0  0  0  0
   55.1230   30.1520   51.9750 C   0  0  0  0  0  0  0  0  0  0  0  0
   59.1920   32.3880   49.4190 C   0  0  0  0  0  0  0  0  0  0  0  0
   59.1760   32.9570   48.1530 C   0  0  0  0  0  0  0  0  0  0  0  0
   58.9280   32.1770   47.0020 C   0  0  0  0  0  0  0  0  0  0  0  0
   58.6660   30.7870   47.1650 C   0  0  0  0  0  0  0  0  0  0  0  0
   58.2170   30.0490   46.0410 C   0  0  0  0  0  0  0  0  0  0  0  0
   57.8980   28.6530   46.1590 N   0  0  0  0  0  0  0  0  0  0  0  0
   58.4010   27.6790   45.1860 C   0  0  0  0  0  0  0  0  0  0  0  0
   58.3530   26.2600   45.7640 C   0  0  0  0  0  0  0  0  0  0  0  0
   57.2290   26.1220   46.7160 N   0  0  0  0  0  0  0  0  0  0  0  0
   55.9370   26.0760   46.0060 C   0  0  0  0  0  0  0  0  0  0  0  0
   57.3870   24.8950   47.5130 C   0  0  0  0  0  0  0  0  0  0  0  0
   57.9490   30.7210   44.8330 C   0  0  0  0  0  0  0  0  0  0  0  0
   57.2850   30.0700   43.7700 C   0  0  0  0  0  0  0  0  0  0  0  0
   57.0170   30.7370   42.5770 C   0  0  0  0  0  0  0  0  0  0  0  0
   57.3780   32.0700   42.4320 C   0  0  0  0  0  0  0  0  0  0  0  0
   58.0060   32.7450   43.4760 C   0  0  0  0  0  0  0  0  0  0  0  0
   58.3140   32.0860   44.6940 C   0  0  0  0  0  0  0  0  0  0  0  0
   58.9120   32.7480   45.7440 N   0  0  0  0  0  0  0  0  0  0  0  0
   59.5390   34.0720   45.5240 C   0  0  0  0  0  0  0  0  0  0  0  0
   60.4401   27.8166   49.4892 H   0  0  0  0  0  0  0  0  0  0  0  0
   59.8564   27.1220   47.9389 H   0  0  0  0  0  0  0  0  0  0  0  0
   60.8053   28.6472   47.9389 H   0  0  0  0  0  0  0  0  0  0  0  0
   59.8820   30.0690   51.1810 H   0  0  0  0  0  0  0  0  0  0  0  0
   58.2580   29.6960   51.0100 H   0  0  0  0  0  0  0  0  0  0  0  0
   59.3282   31.4618   52.7504 H   0  0  0  0  0  0  0  0  0  0  0  0
   58.6592   32.4893   51.4097 H   0  0  0  0  0  0  0  0  0  0  0  0
   57.2274   31.3438   53.5782 H   0  0  0  0  0  0  0  0  0  0  0  0
   56.5614   32.1766   52.1229 H   0  0  0  0  0  0  0  0  0  0  0  0
   56.8849   29.2750   53.9473 H   0  0  0  0  0  0  0  0  0  0  0  0
   56.3614   28.0892   52.7038 H   0  0  0  0  0  0  0  0  0  0  0  0
   58.0490   28.7047   52.7038 H   0  0  0  0  0  0  0  0  0  0  0  0
   54.7297   30.1739   53.0020 H   0  0  0  0  0  0  0  0  0  0  0  0
   54.8207   31.0684   51.4469 H   0  0  0  0  0  0  0  0  0  0  0  0
   54.7208   29.2749   51.4469 H   0  0  0  0  0  0  0  0  0  0  0  0
   59.3399   33.0298   50.3001 H   0  0  0  0  0  0  0  0  0  0  0  0
   59.3600   34.0360   48.0441 H   0  0  0  0  0  0  0  0  0  0  0  0
   57.3910   28.3320   47.0150 H   0  0  0  0  0  0  0  0  0  0  0  0
   57.7795   27.7206   44.2794 H   0  0  0  0  0  0  0  0  0  0  0  0
   59.4452   27.9272   44.9452 H   0  0  0  0  0  0  0  0  0  0  0  0
   58.2216   25.5397   44.9430 H   0  0  0  0  0  0  0  0  0  0  0  0
   59.2948   26.0627   46.2970 H   0  0  0  0  0  0  0  0  0  0  0  0
   55.1169   26.0468   46.7385 H   0  0  0  0  0  0  0  0  0  0  0  0
   55.8333   26.9710   45.3750 H   0  0  0  0  0  0  0  0  0  0  0  0
   55.8972   25.1759   45.3750 H   0  0  0  0  0  0  0  0  0  0  0  0
   57.3546   25.1464   48.5834 H   0  0  0  0  0  0  0  0  0  0  0  0
   56.5714   24.1960   47.2757 H   0  0  0  0  0  0  0  0  0  0  0  0
   58.3530   24.4255   47.2757 H   0  0  0  0  0  0  0  0  0  0  0  0
   56.9750   29.0210   43.8859 H   0  0  0  0  0  0  0  0  0  0  0  0
   56.5198   30.2083   41.7504 H   0  0  0  0  0  0  0  0  0  0  0  0
   57.1671   32.5951   41.4887 H   0  0  0  0  0  0  0  0  0  0  0  0
   58.2675   33.8065   43.3541 H   0  0  0  0  0  0  0  0  0  0  0  0
   59.7601   34.5389   46.4951 H   0  0  0  0  0  0  0  0  0  0  0  0
   60.4730   33.9457   44.9567 H   0  0  0  0  0  0  0  0  0  0  0  0
   58.8495   34.7145   44.9567 H   0  0  0  0  0  0  0  0  0  0  0  0
  1  2  1  0
  2  3  1  0
  3  4  2  0
  4  5  1  0
  5  6  1  0
  6  7  1  0
  7  8  1  0
  8  9  1  0
  8 10  1  0
  4 11  1  0
 11 12  2  0
 12 13  1  0
 13 14  2  0
 14 15  1  0
 15 16  1  0
 16 17  1  0
 17 18  1  0
 18 19  1  0
 19 20  1  0
 19 21  1  0
 15 22  2  0
 22 23  1  0
 23 24  2  0
 24 25  1  0
 25 26  2  0
 26 27  1  0
 27 28  2  0
 28 29  1  0
 14  3  1  0
 27 22  1  0
 28 13  1  0
  1 30  1  0
  1 31  1  0
  1 32  1  0
  5 33  1  0
  5 34  1  0
  6 35  1  0
  6 36  1  0
  7 37  1  0
  7 38  1  0
  9 39  1  0
  9 40  1  0
  9 41  1  0
 10 42  1  0
 10 43  1  0
 10 44  1  0
 11 45  1  0
 12 46  1  0
 16 47  1  0
 17 48  1  0
 17 49  1  0
 18 50  1  0
 18 51  1  0
 20 52  1  0
 20 53  1  0
 20 54  1  0
 21 55  1  0
 21 56  1  0
 21 57  1  0
 23 58  1  0
 24 59  1  0
 25 60  1  0
 26 61  1  0
 29 62  1  0
 29 63  1  0
 29 64  1  0
M  CHG  2   5   1  28   1
M  END
>  <UniqueID>  (21) 
20

>  <SMILES>  (21) 
COc1c([NH2+]CCN(C)C)ccc2c1c(NCCN(C)C)c1ccccc1[n+]2C

>  <Energy>  (21) 
101.65945068211977

>  <Genealogy>  (21) 
COc1c([NH2+]CCN(C)C)ccc2c1c(NCCN(C)C)c1ccccc1[n+]2C (protonated)
COc1c([NH2+]CCN(C)C)ccc2c1c(NCCN(C)C)c1ccccc1[n+]2C (3D coordinates assigned)
COc1c([NH2+]CCN(C)C)ccc2c1c(NCCN(C)C)c1ccccc1[n+]2C (optimized conformer: 101.65945068211977 kcal/mol)

>  <smiles>  (21) 
COc1c(NCCN(C)C)ccc2c1c(NCCN(C)C)c1ccccc1[n+]2C

>  <score_type>  (21) 
oracle

>  <origin>  (21) 
adg

>  <m_score__min__energy>  (21) 
-3.6200000000000001

>  <m_primary>  (21) 
energy

$$$$
21:0
     RDKit          3D

 58 60  0  0  0  0  0  0  0  0999 V2000
   68.4030   33.8790   50.4970 C   0  0  0  0  0  0  0  0  0  0  0  0
   67.7410   32.5140   50.6740 C   0  0  0  0  0  0  0  0  0  0  0  0
   66.4020   32.4920   50.0600 N   0  0  0  0  0  0  0  0  0  0  0  0
   65.4930   33.4830   50.6820 C   0  0  0  0  0  0  0  0  0  0  0  0
   64.0710   33.4520   50.0840 C   0  0  0  0  0  0  0  0  0  0  0  0
   63.8230   32.2480   49.1600 C   0  0  0  0  0  0  0  0  0  0  0  0
   63.7590   32.6550   47.7490 N   0  0  0  0  0  0  0  0  0  0  0  0
   62.4620   32.3530   47.1210 C   0  0  0  0  0  0  0  0  0  0  0  0
   61.8970   31.0000   47.5840 C   0  0  0  0  0  0  0  0  0  0  0  0
   60.7650   31.1600   48.6160 C   0  0  0  0  0  0  0  0  0  0  0  0
   59.4700   30.6290   48.1660 N   0  0  0  0  0  0  0  0  0  0  0  0
   59.0370   30.6340   46.7940 C   0  0  0  0  0  0  0  0  0  0  0  0
   58.7530   31.8580   46.1620 C   0  0  0  0  0  0  0  0  0  0  0  0
   59.1450   33.0840   46.7430 C   0  0  0  0  0  0  0  0  0  0  0  0
   58.8740   34.2930   46.1080 C   0  0  0  0  0  0  0  0  0  0  0  0
   58.2320   34.3030   44.8760 C   0  0  0  0  0  0  0  0  0  0  0  0
   57.8480   33.1040   44.2760 C   0  0  0  0  0  0  0  0  0  0  0  0
   58.0810   31.8590   44.9150 C   0  0  0  0  0  0  0  0  0  0  0  0
   57.6830   30.6680   44.3480 N   0  0  0  0  0  0  0  0  0  0  0  0
   56.7010   30.6690   43.2410 C   0  0  0  0  0  0  0  0  0  0  0  0
   58.1970   29.4730   44.8190 C   0  0  0  0  0  0  0  0  0  0  0  0
   58.0670   28.2790   44.0680 C   0  0  0  0  0  0  0  0  0  0  0  0
   58.5500   27.0690   44.5470 C   0  0  0  0  0  0  0  0  0  0  0  0
   59.1950   27.0120   45.7710 C   0  0  0  0  0  0  0  0  0  0  0  0
   59.3820   28.1660   46.5350 C   0  0  0  0  0  0  0  0  0  0  0  0
   60.2980   27.9290   48.0240 Cl  0  0  0  0  0  0  0  0  0  0  0  0
   58.8840   29.4240   46.0700 C   0  0  0  0  0  0  0  0  0  0  0  0
   68.6144   34.3148   51.4846 H   0  0  0  0  0  0  0  0  0  0  0  0
   69.3438   33.7607   49.9395 H   0  0  0  0  0  0  0  0  0  0  0  0
   67.7276   34.5446   49.9395 H   0  0  0  0  0  0  0  0  0  0  0  0
   68.3678   31.7459   50.1973 H   0  0  0  0  0  0  0  0  0  0  0  0
   67.6359   32.3129   51.7503 H   0  0  0  0  0  0  0  0  0  0  0  0
   66.5060   32.7210   49.0430 H   0  0  0  0  0  0  0  0  0  0  0  0
   66.0080   31.5240   50.1140 H   0  0  0  0  0  0  0  0  0  0  0  0
   65.4255   33.2698   51.7590 H   0  0  0  0  0  0  0  0  0  0  0  0
   65.9110   34.4818   50.4877 H   0  0  0  0  0  0  0  0  0  0  0  0
   63.3460   33.4125   50.9104 H   0  0  0  0  0  0  0  0  0  0  0  0
   63.9559   34.3594   49.4729 H   0  0  0  0  0  0  0  0  0  0  0  0
   64.6428   31.5256   49.2866 H   0  0  0  0  0  0  0  0  0  0  0  0
   62.8575   31.7971   49.4329 H   0  0  0  0  0  0  0  0  0  0  0  0
   64.5350   32.1920   47.2200 H   0  0  0  0  0  0  0  0  0  0  0  0
   61.7466   33.1455   47.3856 H   0  0  0  0  0  0  0  0  0  0  0  0
   62.6159   32.3017   46.0330 H   0  0  0  0  0  0  0  0  0  0  0  0
   61.5037   30.4629   46.7083 H   0  0  0  0  0  0  0  0  0  0  0  0
   62.7137   30.4418   48.0651 H   0  0  0  0  0  0  0  0  0  0  0  0
   61.0564   30.6300   49.5348 H   0  0  0  0  0  0  0  0  0  0  0  0
   60.6293   32.2397   48.7766 H   0  0  0  0  0  0  0  0  0  0  0  0
   59.0050   29.9400   48.7980 H   0  0  0  0  0  0  0  0  0  0  0  0
   59.6709   33.0837   47.7091 H   0  0  0  0  0  0  0  0  0  0  0  0
   59.1684   35.2409   46.5821 H   0  0  0  0  0  0  0  0  0  0  0  0
   58.0260   35.2591   44.3725 H   0  0  0  0  0  0  0  0  0  0  0  0
   57.3568   33.1240   43.2920 H   0  0  0  0  0  0  0  0  0  0  0  0
   55.6819   30.6700   43.6549 H   0  0  0  0  0  0  0  0  0  0  0  0
   56.8465   31.5670   42.6226 H   0  0  0  0  0  0  0  0  0  0  0  0
   56.8447   29.7707   42.6226 H   0  0  0  0  0  0  0  0  0  0  0  0
   57.5734   28.3113   43.0855 H   0  0  0  0  0  0  0  0  0  0  0  0
   58.4200   26.1527   43.9525 H   0  0  0  0  0  0  0  0  0  0  0  0
   59.5645   26.0462   46.1461 H   0  0  0  0  0  0  0  0  0  0  0  0
  1  2  1  0
  2  3  1  0
  3  4  1  0
  4  5  1  0
  5  6  1  0
  6  7  1  0
  7  8  1  0
  8  9  1  0
  9 10  1  0
 10 11  1  0
 11 12  1  0
 12 13  2  0
 13 14  1  0
 14 15  2  0
 15 16  1  0
 16 17  2  0
 17 18  1  0
 18 19  2  0
 19 20  1  0
 19 21  1  0
 21 22  2  0
 22 23  1  0
 23 24  2  0
 24 25  1  0
 25 26  1  0
 25 27  2  0
 27 12  1  0
 18 13  1  0
 27 21  1  0
  1 28  1  0
  1 29  1  0
  1 30  1  0
  2 31  1  0
  2 32  1  0
  3 33  1  0
  3 34  1  0
  4 35  1  0
  4 36  1  0
  5 37  1  0
  5 38  1  0
  6 39  1  0
  6 40  1  0
  7 41  1  0
  8 42  1  0
  8 43  1  0
  9 44  1  0
  9 45  1  0
 10 46  1  0
 10 47  1  0
 11 48  1  0
 14 49  1  0
 15 50  1  0
 16 51  1  0
 17 52  1  0
 20 53  1  0
 20 54  1  0
 20 55  1  0
 22 56  1  0
 23 57  1  0
 24 58  1  0
M  CHG  2   3   1  19   1
M  END
>  <UniqueID>  (22) 
21

>  <SMILES>  (22) 
CC[NH2+]CCCNCCCNc1c2ccccc2[n+](C)c2cccc(Cl)c12

>  <Energy>  (22) 
88.20489096842475

>  <Genealogy>  (22) 
CC[NH2+]CCCNCCCNc1c2ccccc2[n+](C)c2cccc(Cl)c12 (protonated)
CC[NH2+]CCCNCCCNc1c2ccccc2[n+](C)c2cccc(Cl)c12 (3D coordinates assigned)
CC[NH2+]CCCNCCCNc1c2ccccc2[n+](C)c2cccc(Cl)c12 (optimized conformer: 88.20489096842475 kcal/mol)

>  <smiles>  (22) 
CCNCCCNCCCNc1c2ccccc2[n+](C)c2cccc(Cl)c12

>  <score_type>  (22) 
oracle

>  <origin>  (22) 
adg

>  <m_score__min__energy>  (22) 
-5.5

>  <m_primary>  (22) 
energy

$$$$
22:0
     RDKit          3D

 52 55  0  0  0  0  0  0  0  0999 V2000
   56.1540   28.1030   42.2490 H   0  0  0  0  0  0  0  0  0  0  0  0
   57.1770   28.0510   42.3560 N   0  0  0  0  0  0  0  0  0  0  0  0
   57.8010   28.5530   43.3670 C   0  0  0  0  0  0  0  0  0  0  0  0
   57.5680   30.0160   43.7960 C   0  0  0  0  0  0  0  0  0  0  0  0
   56.3220   30.0570   44.5870 C   0  0  0  0  0  0  0  0  0  0  0  0
   55.3460   30.0900   45.2070 N   0  0  0  0  0  0  0  0  0  0  0  0
   57.3710   30.8830   42.6180 C   0  0  0  0  0  0  0  0  0  0  0  0
   57.2150   31.5640   41.6940 N   0  0  0  0  0  0  0  0  0  0  0  0
   58.7890   30.5860   44.5930 C   0  0  2  0  0  0  0  0  0  0  0  0
   59.4615   30.9124   43.7860 H   0  0  0  0  0  0  0  0  0  0  0  0
   59.3510   29.5680   45.5330 C   0  0  0  0  0  0  0  0  0  0  0  0
   59.2340   30.0180   46.7930 C   0  0  0  0  0  0  0  0  0  0  0  0
   59.5300   29.3960   48.0120 C   0  0  0  0  0  0  0  0  0  0  0  0
   59.9273   28.3705   48.0330 H   0  0  0  0  0  0  0  0  0  0  0  0
   59.3130   30.0980   49.2040 C   0  0  0  0  0  0  0  0  0  0  0  0
   59.5499   29.6162   50.1641 H   0  0  0  0  0  0  0  0  0  0  0  0
   58.7950   31.4150   49.1980 C   0  0  0  0  0  0  0  0  0  0  0  0
   58.5860   32.1130   50.3980 O   0  0  0  0  0  0  0  0  0  0  0  0
   57.5290   31.8560   51.3170 C   0  0  0  0  0  0  0  0  0  0  0  0
   57.9072   31.9480   52.3458 H   0  0  0  0  0  0  0  0  0  0  0  0
   56.7195   32.5835   51.1575 H   0  0  0  0  0  0  0  0  0  0  0  0
   57.1439   30.8380   51.1575 H   0  0  0  0  0  0  0  0  0  0  0  0
   58.4830   32.0320   47.9550 C   0  0  0  0  0  0  0  0  0  0  0  0
   57.9530   33.3310   47.8270 O   0  0  0  0  0  0  0  0  0  0  0  0
   58.5670   34.4310   47.1670 C   0  0  0  0  0  0  0  0  0  0  0  0
   58.9599   35.1349   47.9155 H   0  0  0  0  0  0  0  0  0  0  0  0
   59.3923   34.0667   46.5375 H   0  0  0  0  0  0  0  0  0  0  0  0
   57.8238   34.9422   46.5375 H   0  0  0  0  0  0  0  0  0  0  0  0
   58.7120   31.2980   46.7810 C   0  0  0  0  0  0  0  0  0  0  0  0
   58.4530   31.6960   45.5440 C   0  0  0  0  0  0  0  0  0  0  0  0
   58.0556   32.6817   45.2603 H   0  0  0  0  0  0  0  0  0  0  0  0
   59.7820   28.2480   44.9260 C   0  0  1  0  0  0  0  0  0  0  0  0
   60.5555   28.5327   44.1975 H   0  0  0  0  0  0  0  0  0  0  0  0
   60.5530   27.2480   45.8050 C   0  0  0  0  0  0  0  0  0  0  0  0
   61.1714   27.8179   46.5141 H   0  0  0  0  0  0  0  0  0  0  0  0
   61.1498   26.6240   45.1235 H   0  0  0  0  0  0  0  0  0  0  0  0
   59.6740   26.3090   46.5930 C   0  0  0  0  0  0  0  0  0  0  0  0
   60.1270   25.7411   47.4190 H   0  0  0  0  0  0  0  0  0  0  0  0
   58.3610   26.1290   46.3380 C   0  0  0  0  0  0  0  0  0  0  0  0
   57.5840   25.1860   47.0350 O   0  0  0  0  0  0  0  0  0  0  0  0
   56.7700   24.1650   46.4550 C   0  0  0  0  0  0  0  0  0  0  0  0
   56.6532   23.3433   47.1769 H   0  0  0  0  0  0  0  0  0  0  0  0
   55.7897   24.5960   46.2035 H   0  0  0  0  0  0  0  0  0  0  0  0
   57.4080   23.6230   45.1790 C   0  0  0  0  0  0  0  0  0  0  0  0
   58.2221   22.9314   45.4413 H   0  0  0  0  0  0  0  0  0  0  0  0
   56.6494   23.0890   44.5880 H   0  0  0  0  0  0  0  0  0  0  0  0
   57.8124   24.4580   44.5880 H   0  0  0  0  0  0  0  0  0  0  0  0
   57.6350   26.9910   45.3400 C   0  0  0  0  0  0  0  0  0  0  0  0
   57.1506   27.8187   45.8788 H   0  0  0  0  0  0  0  0  0  0  0  0
   56.9031   26.3517   44.8247 H   0  0  0  0  0  0  0  0  0  0  0  0
   58.5650   27.5830   44.2660 C   0  0  1  0  0  0  0  0  0  0  0  0
   58.9363   26.7699   43.6248 H   0  0  0  0  0  0  0  0  0  0  0  0
  1  2  1  0
  2  3  2  0
  3  4  1  0
  4  5  1  0
  5  6  3  0
  4  7  1  0
  7  8  3  0
  4  9  1  0
  9 10  1  6
  9 11  1  0
 11 12  2  0
 12 13  1  0
 13 14  1  0
 13 15  2  0
 15 16  1  0
 15 17  1  0
 17 18  1  0
 18 19  1  0
 19 20  1  0
 19 21  1  0
 19 22  1  0
 17 23  2  0
 23 24  1  0
 24 25  1  0
 25 26  1  0
 25 27  1  0
 25 28  1  0
 23 29  1  0
 29 30  2  0
 30 31  1  0
 11 32  1  0
 32 33  1  6
 32 34  1  0
 34 35  1  0
 34 36  1  0
 34 37  1  0
 37 38  1  0
 37 39  2  0
 39 40  1  0
 40 41  1  0
 41 42  1  0
 41 43  1  0
 41 44  1  0
 44 45  1  0
 44 46  1  0
 44 47  1  0
 39 48  1  0
 48 49  1  0
 48 50  1  0
 48 51  1  0
 51 52  1  6
 51  3  1  0
 30  9  1  0
 51 32  1  0
 29 12  1  0
M  END
>  <UniqueID>  (23) 
22

>  <SMILES>  (23) 
[H]/N=C1/C2CC(OCC)=CC[C@@H]2C2=c3ccc(OC)c(OC)c3=C[C@@H]2C1(C#N)C#N

>  <Energy>  (23) 
90.58396984689345

>  <Genealogy>  (23) 
CCOC1=CC[C@@H]2C3=c4ccc(OC)c(OC)c4=C[C@@H]3C(C#N)(C#N)C(=N)C2C1 (chirality)
[H]/N=C1/C2CC(OCC)=CC[C@@H]2C2=c3ccc(OC)c(OC)c3=C[C@@H]2C1(C#N)C#N (cis-trans isomerization)
[H]/N=C1/C2CC(OCC)=CC[C@@H]2C2=c3ccc(OC)c(OC)c3=C[C@@H]2C1(C#N)C#N (3D coordinates assigned)
[H]/N=C1/C2CC(OCC)=CC[C@@H]2C2=c3ccc(OC)c(OC)c3=C[C@@H]2C1(C#N)C#N (nonaromatic ring conformer: 90.58396984689345 kcal/mol)

>  <smiles>  (23) 
CCOC1=CCC2C3=c4ccc(OC)c(OC)c4=CC3C(C#N)(C#N)C(=N)C2C1

>  <score_type>  (23) 
oracle

>  <origin>  (23) 
adg

>  <m_score__min__energy>  (23) 
-6.7800000000000002

>  <m_primary>  (23) 
energy

$$$$
23:0
     RDKit          3D

 31 33  0  0  1  0  0  0  0  0999 V2000
   59.6480   34.6470   45.3950 C   0  0  0  0  0  0  0  0  0  0  0  0
   58.8210   33.4590   45.4850 N   0  0  0  0  0  0  0  0  0  0  0  0
   58.5510   32.8430   46.6690 C   0  0  0  0  0  0  0  0  0  0  0  0
   57.7680   31.7820   46.4210 N   0  0  0  0  0  0  0  0  0  0  0  0
   57.5590   31.7420   45.1090 C   0  0  0  0  0  0  0  0  0  0  0  0
   56.8360   30.8710   44.3310 C   0  0  0  0  0  0  0  0  0  0  0  0
   56.2260   29.9020   44.8630 N   0  0  0  0  0  0  0  0  0  0  0  0
   56.6420   28.5510   44.9410 C   0  0  0  0  0  0  0  0  0  0  0  0
   58.0700   28.4000   45.3680 C   0  0  0  0  0  0  0  0  0  0  0  0
   58.4140   27.9620   46.6450 C   0  0  0  0  0  0  0  0  0  0  0  0
   59.7220   27.8170   47.0520 C   0  0  0  0  0  0  0  0  0  0  0  0
   60.7520   28.1070   46.1950 C   0  0  0  0  0  0  0  0  0  0  0  0
   60.4530   28.5430   44.9220 C   0  0  0  0  0  0  0  0  0  0  0  0
   59.1280   28.6830   44.5300 C   0  0  0  0  0  0  0  0  0  0  0  0
   56.7870   31.0590   43.0160 N   0  0  0  0  0  0  0  0  0  0  0  0
   57.4330   32.0920   42.4200 C   0  0  0  0  0  0  0  0  0  0  0  0
   57.3860   32.3640   40.6970 Cl  0  0  0  0  0  0  0  0  0  0  0  0
   58.1560   32.9700   43.1680 N   0  0  0  0  0  0  0  0  0  0  0  0
   58.2050   32.7820   44.4810 C   0  0  0  0  0  0  0  0  0  0  0  0
   59.8938   35.0002   46.4073 H   0  0  0  0  0  0  0  0  0  0  0  0
   60.5758   34.4078   44.8547 H   0  0  0  0  0  0  0  0  0  0  0  0
   59.1016   35.4341   44.8547 H   0  0  0  0  0  0  0  0  0  0  0  0
   58.9125   33.1605   47.6582 H   0  0  0  0  0  0  0  0  0  0  0  0
   56.0021   28.0290   45.6677 H   0  0  0  0  0  0  0  0  0  0  0  0
   56.5540   28.1217   43.9321 H   0  0  0  0  0  0  0  0  0  0  0  0
   57.6096   27.7226   47.3561 H   0  0  0  0  0  0  0  0  0  0  0  0
   59.9415   27.4663   48.0712 H   0  0  0  0  0  0  0  0  0  0  0  0
   61.7976   27.9939   46.5173 H   0  0  0  0  0  0  0  0  0  0  0  0
   61.2634   28.7799   44.2170 H   0  0  0  0  0  0  0  0  0  0  0  0
   58.9138   29.0339   43.5097 H   0  0  0  0  0  0  0  0  0  0  0  0
   56.2290   30.3840   42.4220 H   0  0  0  0  0  0  0  0  0  0  0  0
  1  2  1  0
  2  3  1  0
  3  4  2  0
  4  5  1  0
  5  6  1  0
  6  7  2  0
  7  8  1  0
  8  9  1  0
  9 10  2  0
 10 11  1  0
 11 12  2  0
 12 13  1  0
 13 14  2  0
  6 15  1  0
 15 16  1  0
 16 17  1  0
 16 18  2  0
 18 19  1  0
 19  2  1  0
 19  5  2  0
 14  9  1  0
  1 20  1  0
  1 21  1  0
  1 22  1  0
  3 23  1  0
  8 24  1  0
  8 25  1  0
 10 26  1  0
 11 27  1  0
 12 28  1  0
 13 29  1  0
 14 30  1  0
 15 31  1  0
M  END
>  <smiles>  (24) 
Cn1cnc2c(=NCc3ccccc3)[nH]c(Cl)nc21

>  <score_type>  (24) 
oracle

>  <origin>  (24) 
adg

>  <m_score__min__energy>  (24) 
-6.9800000000000004

>  <m_primary>  (24) 
energy

$$$$
24:0
     RDKit          3D

 79 82  0  0  0  0  0  0  0  0999 V2000
   59.7500   33.6470   50.7010 C   0  0  0  0  0  0  0  0  0  0  0  0
   60.1980   32.2200   50.9930 C   0  0  0  0  0  0  0  0  0  0  0  0
   59.0850   31.2860   50.7100 N   0  0  0  0  0  0  0  0  0  0  0  0
   57.7610   31.9490   50.7310 C   0  0  0  0  0  0  0  0  0  0  0  0
   56.9440   31.5480   51.9590 C   0  0  0  0  0  0  0  0  0  0  0  0
   59.1800   30.0330   51.4980 C   0  0  0  0  0  0  0  0  0  0  0  0
   59.9950   28.9080   50.8280 C   0  0  0  0  0  0  0  0  0  0  0  0
   59.4910   28.6580   49.5330 O   0  0  0  0  0  0  0  0  0  0  0  0
   60.5540   28.5820   48.6090 C   0  0  0  0  0  0  0  0  0  0  0  0
   60.7600   29.9520   47.9550 C   0  0  0  0  0  0  0  0  0  0  0  0
   59.5990   30.8470   48.1360 N   0  0  0  0  0  0  0  0  0  0  0  0
   59.0890   31.3390   46.8600 C   0  0  0  0  0  0  0  0  0  0  0  0
   59.3180   32.6930   46.4780 C   0  0  0  0  0  0  0  0  0  0  0  0
   60.0130   33.6000   47.3190 C   0  0  0  0  0  0  0  0  0  0  0  0
   60.1750   34.9360   46.9650 C   0  0  0  0  0  0  0  0  0  0  0  0
   59.6460   35.4080   45.7730 C   0  0  0  0  0  0  0  0  0  0  0  0
   58.9880   34.5380   44.9090 C   0  0  0  0  0  0  0  0  0  0  0  0
   58.8480   33.1600   45.2200 C   0  0  0  0  0  0  0  0  0  0  0  0
   58.2610   32.2870   44.3300 N   0  0  0  0  0  0  0  0  0  0  0  0
   58.1000   32.6790   42.9100 C   0  0  0  0  0  0  0  0  0  0  0  0
   57.8650   31.0350   44.7470 C   0  0  0  0  0  0  0  0  0  0  0  0
   56.9910   30.2510   43.9530 C   0  0  0  0  0  0  0  0  0  0  0  0
   56.6240   28.9660   44.3310 C   0  0  0  0  0  0  0  0  0  0  0  0
   57.1170   28.4130   45.5170 C   0  0  0  0  0  0  0  0  0  0  0  0
   56.7670   27.1200   45.9410 O   0  0  0  0  0  0  0  0  0  0  0  0
   57.6840   26.0300   46.0270 C   0  0  0  0  0  0  0  0  0  0  0  0
   56.9670   24.7620   46.4990 C   0  0  0  0  0  0  0  0  0  0  0  0
   56.9440   23.7090   45.4600 N   0  0  0  0  0  0  0  0  0  0  0  0
   56.2080   24.1440   44.2440 C   0  0  0  0  0  0  0  0  0  0  0  0
   56.4860   23.2450   43.0200 C   0  0  0  0  0  0  0  0  0  0  0  0
   57.0240   21.8780   43.4440 C   0  0  0  0  0  0  0  0  0  0  0  0
   58.3140   22.0260   44.2690 C   0  0  0  0  0  0  0  0  0  0  0  0
   58.3250   23.3130   45.1110 C   0  0  0  0  0  0  0  0  0  0  0  0
   57.9690   29.1720   46.3200 C   0  0  0  0  0  0  0  0  0  0  0  0
   58.3160   30.5100   45.9920 C   0  0  0  0  0  0  0  0  0  0  0  0
   59.5827   34.1799   51.6486 H   0  0  0  0  0  0  0  0  0  0  0  0
   60.5289   34.1646   50.1218 H   0  0  0  0  0  0  0  0  0  0  0  0
   58.8151   33.6265   50.1218 H   0  0  0  0  0  0  0  0  0  0  0  0
   61.0589   31.9683   50.3561 H   0  0  0  0  0  0  0  0  0  0  0  0
   60.4876   32.1357   52.0508 H   0  0  0  0  0  0  0  0  0  0  0  0
   57.9089   33.0390   50.7423 H   0  0  0  0  0  0  0  0  0  0  0  0
   57.2070   31.6341   49.8344 H   0  0  0  0  0  0  0  0  0  0  0  0
   57.4960   31.8189   52.8711 H   0  0  0  0  0  0  0  0  0  0  0  0
   55.9783   32.0745   51.9448 H   0  0  0  0  0  0  0  0  0  0  0  0
   56.7698   30.4620   51.9448 H   0  0  0  0  0  0  0  0  0  0  0  0
   59.6528   30.2703   52.4625 H   0  0  0  0  0  0  0  0  0  0  0  0
   58.1529   29.6527   51.6001 H   0  0  0  0  0  0  0  0  0  0  0  0
   61.0493   29.2136   50.7568 H   0  0  0  0  0  0  0  0  0  0  0  0
   59.9144   27.9922   51.4320 H   0  0  0  0  0  0  0  0  0  0  0  0
   61.4743   28.2833   49.1323 H   0  0  0  0  0  0  0  0  0  0  0  0
   60.3149   27.8380   47.8349 H   0  0  0  0  0  0  0  0  0  0  0  0
   61.6448   30.4273   48.4036 H   0  0  0  0  0  0  0  0  0  0  0  0
   60.8910   29.7898   46.8749 H   0  0  0  0  0  0  0  0  0  0  0  0
   59.8770   31.6550   48.7340 H   0  0  0  0  0  0  0  0  0  0  0  0
   58.8810   30.3860   48.7300 H   0  0  0  0  0  0  0  0  0  0  0  0
   60.4323   33.2399   48.2701 H   0  0  0  0  0  0  0  0  0  0  0  0
   60.7232   35.6184   47.6312 H   0  0  0  0  0  0  0  0  0  0  0  0
   59.7467   36.4714   45.5102 H   0  0  0  0  0  0  0  0  0  0  0  0
   58.5689   34.9249   43.9684 H   0  0  0  0  0  0  0  0  0  0  0  0
   57.6826   33.6953   42.8552 H   0  0  0  0  0  0  0  0  0  0  0  0
   59.0797   32.6576   42.4104 H   0  0  0  0  0  0  0  0  0  0  0  0
   57.4181   31.9751   42.4104 H   0  0  0  0  0  0  0  0  0  0  0  0
   56.5945   30.6698   43.0163 H   0  0  0  0  0  0  0  0  0  0  0  0
   55.9431   28.3811   43.6952 H   0  0  0  0  0  0  0  0  0  0  0  0
   58.1249   25.8488   45.0357 H   0  0  0  0  0  0  0  0  0  0  0  0
   58.4716   26.2840   46.7517 H   0  0  0  0  0  0  0  0  0  0  0  0
   57.4865   24.3717   47.3865 H   0  0  0  0  0  0  0  0  0  0  0  0
   55.9253   25.0306   46.7284 H   0  0  0  0  0  0  0  0  0  0  0  0
   55.1295   24.1203   44.4592 H   0  0  0  0  0  0  0  0  0  0  0  0
   56.5533   25.1581   43.9941 H   0  0  0  0  0  0  0  0  0  0  0  0
   55.5500   23.1034   42.4597 H   0  0  0  0  0  0  0  0  0  0  0  0
   57.2446   23.7371   42.3936 H   0  0  0  0  0  0  0  0  0  0  0  0
   56.2645   21.3653   44.0525 H   0  0  0  0  0  0  0  0  0  0  0  0
   57.2509   21.2944   42.5396 H   0  0  0  0  0  0  0  0  0  0  0  0
   58.4036   21.1615   44.9433 H   0  0  0  0  0  0  0  0  0  0  0  0
   59.1586   22.0770   43.5661 H   0  0  0  0  0  0  0  0  0  0  0  0
   58.8967   23.1378   46.0343 H   0  0  0  0  0  0  0  0  0  0  0  0
   58.7918   24.1194   44.5263 H   0  0  0  0  0  0  0  0  0  0  0  0
   58.3841   28.7213   47.2336 H   0  0  0  0  0  0  0  0  0  0  0  0
  1  2  1  0
  2  3  1  0
  3  4  1  0
  4  5  1  0
  3  6  1  0
  6  7  1  0
  7  8  1  0
  8  9  1  0
  9 10  1  0
 10 11  1  0
 11 12  1  0
 12 13  2  0
 13 14  1  0
 14 15  2  0
 15 16  1  0
 16 17  2  0
 17 18  1  0
 18 19  2  0
 19 20  1  0
 19 21  1  0
 21 22  2  0
 22 23  1  0
 23 24  2  0
 24 25  1  0
 25 26  1  0
 26 27  1  0
 27 28  1  0
 28 29  1  0
 29 30  1  0
 30 31  1  0
 31 32  1  0
 32 33  1  0
 24 34  1  0
 34 35  2  0
 35 12  1  0
 18 13  1  0
 35 21  1  0
 33 28  1  0
  1 36  1  0
  1 37  1  0
  1 38  1  0
  2 39  1  0
  2 40  1  0
  4 41  1  0
  4 42  1  0
  5 43  1  0
  5 44  1  0
  5 45  1  0
  6 46  1  0
  6 47  1  0
  7 48  1  0
  7 49  1  0
  9 50  1  0
  9 51  1  0
 10 52  1  0
 10 53  1  0
 11 54  1  0
 11 55  1  0
 14 56  1  0
 15 57  1  0
 16 58  1  0
 17 59  1  0
 20 60  1  0
 20 61  1  0
 20 62  1  0
 22 63  1  0
 23 64  1  0
 26 65  1  0
 26 66  1  0
 27 67  1  0
 27 68  1  0
 29 69  1  0
 29 70  1  0
 30 71  1  0
 30 72  1  0
 31 73  1  0
 31 74  1  0
 32 75  1  0
 32 76  1  0
 33 77  1  0
 33 78  1  0
 34 79  1  0
M  CHG  2  11   1  19   1
M  END
>  <UniqueID>  (25) 
23

>  <SMILES>  (25) 
CCN(CC)CCOCC[NH2+]c1c2ccccc2[n+](C)c2ccc(OCCN3CCCCC3)cc12

>  <Energy>  (25) 
110.68679256207291

>  <Genealogy>  (25) 
CCN(CC)CCOCC[NH2+]c1c2ccccc2[n+](C)c2ccc(OCCN3CCCCC3)cc12 (protonated)
CCN(CC)CCOCC[NH2+]c1c2ccccc2[n+](C)c2ccc(OCCN3CCCCC3)cc12 (3D coordinates assigned)
CCN(CC)CCOCC[NH2+]c1c2ccccc2[n+](C)c2ccc(OCCN3CCCCC3)cc12 (nonaromatic ring conformer: 110.68679256207291 kcal/mol)

>  <smiles>  (25) 
CCN(CC)CCOCCNc1c2ccccc2[n+](C)c2ccc(OCCN3CCCCC3)cc12

>  <score_type>  (25) 
oracle

>  <origin>  (25) 
adg

>  <m_score__min__energy>  (25) 
-5.5700000000000003

>  <m_primary>  (25) 
energy

$$$$
25:0
     RDKit          3D

 34 36  0  0  0  0  0  0  0  0999 V2000
   58.0420   26.7900   44.4450 C   0  0  0  0  0  0  0  0  0  0  0  0
   57.8140   27.8340   43.3580 C   0  0  0  0  0  0  0  0  0  0  0  0
   57.6110   29.1510   43.9570 N   0  0  0  0  0  0  0  0  0  0  0  0
   56.5640   29.9950   43.7690 C   0  0  0  0  0  0  0  0  0  0  0  0
   56.6310   31.1160   44.5380 N   0  0  0  0  0  0  0  0  0  0  0  0
   57.7710   30.9320   45.2310 C   0  0  0  0  0  0  0  0  0  0  0  0
   58.3600   31.7420   46.1930 C   0  0  0  0  0  0  0  0  0  0  0  0
   57.6230   33.3050   46.6770 S   0  0  0  0  0  0  0  0  0  0  0  0
   58.9920   34.2940   45.9920 C   0  0  0  0  0  0  0  0  0  0  0  0
   60.1940   34.1690   46.8820 C   0  0  0  0  0  0  0  0  0  0  0  0
   60.0650   34.3250   48.2720 C   0  0  0  0  0  0  0  0  0  0  0  0
   61.1790   34.1750   49.1040 C   0  0  0  0  0  0  0  0  0  0  0  0
   62.4250   33.8590   48.5550 C   0  0  0  0  0  0  0  0  0  0  0  0
   62.5580   33.6880   47.1740 C   0  0  0  0  0  0  0  0  0  0  0  0
   61.4460   33.8370   46.3390 C   0  0  0  0  0  0  0  0  0  0  0  0
   59.5230   31.3060   46.7660 N   0  0  0  0  0  0  0  0  0  0  0  0
   60.0890   30.1080   46.4040 C   0  0  0  0  0  0  0  0  0  0  0  0
   59.5000   29.3190   45.4560 N   0  0  0  0  0  0  0  0  0  0  0  0
   58.3500   29.7600   44.8910 C   0  0  0  0  0  0  0  0  0  0  0  0
   57.9390   27.2614   45.4335 H   0  0  0  0  0  0  0  0  0  0  0  0
   57.2983   25.9860   44.3430 H   0  0  0  0  0  0  0  0  0  0  0  0
   59.0532   26.3692   44.3430 H   0  0  0  0  0  0  0  0  0  0  0  0
   58.6922   27.8673   42.6965 H   0  0  0  0  0  0  0  0  0  0  0  0
   56.9185   27.5608   42.7805 H   0  0  0  0  0  0  0  0  0  0  0  0
   55.7432   29.7928   43.0651 H   0  0  0  0  0  0  0  0  0  0  0  0
   59.2414   33.9272   44.9854 H   0  0  0  0  0  0  0  0  0  0  0  0
   58.6879   35.3495   45.9328 H   0  0  0  0  0  0  0  0  0  0  0  0
   59.0841   34.5660   48.7077 H   0  0  0  0  0  0  0  0  0  0  0  0
   61.0746   34.3058   50.1912 H   0  0  0  0  0  0  0  0  0  0  0  0
   63.3013   33.7448   49.2100 H   0  0  0  0  0  0  0  0  0  0  0  0
   63.5384   33.4360   46.7435 H   0  0  0  0  0  0  0  0  0  0  0  0
   61.5523   33.6937   45.2536 H   0  0  0  0  0  0  0  0  0  0  0  0
   59.9920   31.8920   47.4930 H   0  0  0  0  0  0  0  0  0  0  0  0
   61.0245   29.7807   46.8812 H   0  0  0  0  0  0  0  0  0  0  0  0
  1  2  1  0
  2  3  1  0
  3  4  1  0
  4  5  2  0
  5  6  1  0
  6  7  2  0
  7  8  1  0
  8  9  1  0
  9 10  1  0
 10 11  2  0
 11 12  1  0
 12 13  2  0
 13 14  1  0
 14 15  2  0
  7 16  1  0
 16 17  2  0
 17 18  1  0
 18 19  2  0
 19  3  1  0
 19  6  1  0
 15 10  1  0
  1 20  1  0
  1 21  1  0
  1 22  1  0
  2 23  1  0
  2 24  1  0
  4 25  1  0
  9 26  1  0
  9 27  1  0
 11 28  1  0
 12 29  1  0
 13 30  1  0
 14 31  1  0
 15 32  1  0
 16 33  1  0
 17 34  1  0
M  CHG  1  16   1
M  END
>  <UniqueID>  (26) 
24

>  <SMILES>  (26) 
CCn1cnc2c(SCc3ccccc3)[nH+]cnc21

>  <Energy>  (26) 
68.1508849878671

>  <Genealogy>  (26) 
CCn1cnc2c(SCc3ccccc3)[nH+]cnc21 (protonated)
CCn1cnc2c(SCc3ccccc3)[nH+]cnc21 (3D coordinates assigned)
CCn1cnc2c(SCc3ccccc3)[nH+]cnc21 (optimized conformer: 68.1508849878671 kcal/mol)

>  <smiles>  (26) 
CCn1cnc2c(SCc3ccccc3)ncnc21

>  <score_type>  (26) 
oracle

>  <origin>  (26) 
adg

>  <m_score__min__energy>  (26) 
-5.25

>  <m_primary>  (26) 
energy

$$$$
26:0
     RDKit          3D

 37 39  0  0  0  0  0  0  0  0999 V2000
   59.6470   29.3130   44.4980 C   0  0  0  0  0  0  0  0  0  0  0  0
   58.2000   29.5220   44.5720 N   0  0  0  0  0  0  0  0  0  0  0  0
   57.5090   30.6430   44.2720 C   0  0  0  0  0  0  0  0  0  0  0  0
   58.1120   31.9380   43.8110 C   0  0  0  0  0  0  0  0  0  0  0  0
   57.4110   33.0780   44.4190 N   0  0  0  0  0  0  0  0  0  0  0  0
   58.1860   33.6060   45.5140 C   0  0  0  0  0  0  0  0  0  0  0  0
   58.0990   33.0250   46.7920 C   0  0  0  0  0  0  0  0  0  0  0  0
   58.8740   33.5200   47.8470 C   0  0  0  0  0  0  0  0  0  0  0  0
   59.7460   34.5910   47.6320 C   0  0  0  0  0  0  0  0  0  0  0  0
   59.8480   35.1670   46.3630 C   0  0  0  0  0  0  0  0  0  0  0  0
   59.0760   34.6760   45.3060 C   0  0  0  0  0  0  0  0  0  0  0  0
   56.1940   30.4890   44.5170 N   0  0  0  0  0  0  0  0  0  0  0  0
   56.0230   29.2510   44.9540 N   0  0  0  0  0  0  0  0  0  0  0  0
   57.2360   28.6630   44.9720 C   0  0  0  0  0  0  0  0  0  0  0  0
   57.4410   27.2610   45.3980 C   0  0  0  0  0  0  0  0  0  0  0  0
   57.4120   26.9020   46.7570 C   0  0  0  0  0  0  0  0  0  0  0  0
   57.6290   25.5750   47.1410 C   0  0  0  0  0  0  0  0  0  0  0  0
   57.8910   24.6000   46.1750 C   0  0  0  0  0  0  0  0  0  0  0  0
   57.9440   24.9520   44.8240 C   0  0  0  0  0  0  0  0  0  0  0  0
   57.7280   26.2770   44.4360 C   0  0  0  0  0  0  0  0  0  0  0  0
   60.0613   29.2532   45.5152 H   0  0  0  0  0  0  0  0  0  0  0  0
   59.8551   28.3755   43.9616 H   0  0  0  0  0  0  0  0  0  0  0  0
   60.1119   30.1533   43.9616 H   0  0  0  0  0  0  0  0  0  0  0  0
   59.1722   31.9677   44.1027 H   0  0  0  0  0  0  0  0  0  0  0  0
   58.0175   32.0048   42.7171 H   0  0  0  0  0  0  0  0  0  0  0  0
   57.2610   33.8240   43.6990 H   0  0  0  0  0  0  0  0  0  0  0  0
   56.4710   32.7750   44.7680 H   0  0  0  0  0  0  0  0  0  0  0  0
   57.4187   32.1777   46.9630 H   0  0  0  0  0  0  0  0  0  0  0  0
   58.7968   33.0660   48.8459 H   0  0  0  0  0  0  0  0  0  0  0  0
   60.3526   34.9809   48.4627 H   0  0  0  0  0  0  0  0  0  0  0  0
   60.5368   36.0081   46.1955 H   0  0  0  0  0  0  0  0  0  0  0  0
   59.1647   35.1281   44.3071 H   0  0  0  0  0  0  0  0  0  0  0  0
   57.2177   27.6685   47.5217 H   0  0  0  0  0  0  0  0  0  0  0  0
   57.5934   25.2983   48.2050 H   0  0  0  0  0  0  0  0  0  0  0  0
   58.0555   23.5555   46.4782 H   0  0  0  0  0  0  0  0  0  0  0  0
   58.1561   24.1850   44.0646 H   0  0  0  0  0  0  0  0  0  0  0  0
   57.7828   26.5514   43.3722 H   0  0  0  0  0  0  0  0  0  0  0  0
  1  2  1  0
  2  3  1  0
  3  4  1  0
  4  5  1  0
  5  6  1  0
  6  7  2  0
  7  8  1  0
  8  9  2  0
  9 10  1  0
 10 11  2  0
  3 12  2  0
 12 13  1  0
 13 14  2  0
 14 15  1  0
 15 16  2  0
 16 17  1  0
 17 18  2  0
 18 19  1  0
 19 20  2  0
 14  2  1  0
 20 15  1  0
 11  6  1  0
  1 21  1  0
  1 22  1  0
  1 23  1  0
  4 24  1  0
  4 25  1  0
  5 26  1  0
  5 27  1  0
  7 28  1  0
  8 29  1  0
  9 30  1  0
 10 31  1  0
 11 32  1  0
 16 33  1  0
 17 34  1  0
 18 35  1  0
 19 36  1  0
 20 37  1  0
M  CHG  1   5   1
M  END
>  <UniqueID>  (27) 
25

>  <SMILES>  (27) 
Cn1c(C[NH2+]c2ccccc2)nnc1-c1ccccc1

>  <Energy>  (27) 
78.0245414777466

>  <Genealogy>  (27) 
Cn1c(C[NH2+]c2ccccc2)nnc1-c1ccccc1 (protonated)
Cn1c(C[NH2+]c2ccccc2)nnc1-c1ccccc1 (3D coordinates assigned)
Cn1c(C[NH2+]c2ccccc2)nnc1-c1ccccc1 (optimized conformer: 78.0245414777466 kcal/mol)

>  <smiles>  (27) 
Cn1c(CNc2ccccc2)nnc1-c1ccccc1

>  <score_type>  (27) 
oracle

>  <origin>  (27) 
adg

>  <m_score__min__energy>  (27) 
-6.6100000000000003

>  <m_primary>  (27) 
energy

$$$$
27:0
     RDKit          3D

 52 56  0  0  0  0  0  0  0  0999 V2000
   58.1320   26.7160   42.2430 C   0  0  0  0  0  0  0  0  0  0  0  0
   57.8490   27.4970   43.5220 C   0  0  0  0  0  0  0  0  0  0  0  0
   58.3710   26.8100   44.6560 O   0  0  0  0  0  0  0  0  0  0  0  0
   57.6240   25.9270   45.4490 C   0  0  0  0  0  0  0  0  0  0  0  0
   56.4470   25.4320   44.9810 N   0  0  0  0  0  0  0  0  0  0  0  0
   55.6900   24.5830   45.7150 C   0  0  0  0  0  0  0  0  0  0  0  0
   54.4850   24.0940   45.1980 C   0  0  0  0  0  0  0  0  0  0  0  0
   53.7010   23.2210   45.9570 C   0  0  0  0  0  0  0  0  0  0  0  0
   54.1190   22.8350   47.2350 C   0  0  0  0  0  0  0  0  0  0  0  0
   55.3220   23.3200   47.7570 C   0  0  0  0  0  0  0  0  0  0  0  0
   56.1180   24.1990   46.9980 C   0  0  0  0  0  0  0  0  0  0  0  0
   57.3340   24.7160   47.4760 C   0  0  0  0  0  0  0  0  0  0  0  0
   57.7410   24.3870   48.6260 O   0  0  0  0  0  0  0  0  0  0  0  0
   58.0760   25.5710   46.6950 N   0  0  0  0  0  0  0  0  0  0  0  0
   59.3450   26.1400   47.1930 C   0  0  0  0  0  0  0  0  0  0  0  0
   59.3910   27.6290   46.9490 C   0  0  0  0  0  0  0  0  0  0  0  0
   58.4950   28.4730   47.6260 C   0  0  0  0  0  0  0  0  0  0  0  0
   58.5110   29.8510   47.4020 C   0  0  0  0  0  0  0  0  0  0  0  0
   59.4300   30.4120   46.5040 C   0  0  0  0  0  0  0  0  0  0  0  0
   59.4340   31.8700   46.2540 C   0  0  0  0  0  0  0  0  0  0  0  0
   60.3490   32.6620   46.9710 C   0  0  0  0  0  0  0  0  0  0  0  0
   60.3420   34.0500   46.8430 C   0  0  0  0  0  0  0  0  0  0  0  0
   59.4200   34.6690   46.0020 C   0  0  0  0  0  0  0  0  0  0  0  0
   58.5130   33.9010   45.2700 C   0  0  0  0  0  0  0  0  0  0  0  0
   58.5130   32.4960   45.3700 C   0  0  0  0  0  0  0  0  0  0  0  0
   57.5820   31.7260   44.5070 C   0  0  0  0  0  0  0  0  0  0  0  0
   56.6710   30.8430   44.9710 N   0  0  0  0  0  0  0  0  0  0  0  0
   56.1320   30.4040   43.8210 C   0  0  0  0  0  0  0  0  0  0  0  0
   55.2100   29.5490   43.7640 O   0  0  0  0  0  0  0  0  0  0  0  0
   56.6730   30.9610   42.7700 O   0  0  0  0  0  0  0  0  0  0  0  0
   57.5910   31.7930   43.1570 N   0  0  0  0  0  0  0  0  0  0  0  0
   60.3200   29.5720   45.8160 C   0  0  0  0  0  0  0  0  0  0  0  0
   60.3080   28.1920   46.0400 C   0  0  0  0  0  0  0  0  0  0  0  0
   61.1920   27.4110   45.3680 F   0  0  0  0  0  0  0  0  0  0  0  0
   58.4963   25.7105   42.5004 H   0  0  0  0  0  0  0  0  0  0  0  0
   57.2075   26.6311   41.6531 H   0  0  0  0  0  0  0  0  0  0  0  0
   58.8963   27.2431   41.6531 H   0  0  0  0  0  0  0  0  0  0  0  0
   58.3202   28.4885   43.4517 H   0  0  0  0  0  0  0  0  0  0  0  0
   56.7603   27.6002   43.6405 H   0  0  0  0  0  0  0  0  0  0  0  0
   54.1547   24.3970   44.1935 H   0  0  0  0  0  0  0  0  0  0  0  0
   52.7543   22.8370   45.5492 H   0  0  0  0  0  0  0  0  0  0  0  0
   53.4997   22.1482   47.8307 H   0  0  0  0  0  0  0  0  0  0  0  0
   55.6471   23.0143   48.7624 H   0  0  0  0  0  0  0  0  0  0  0  0
   59.4283   25.9478   48.2729 H   0  0  0  0  0  0  0  0  0  0  0  0
   60.1807   25.6666   46.6569 H   0  0  0  0  0  0  0  0  0  0  0  0
   57.7748   28.0446   48.3386 H   0  0  0  0  0  0  0  0  0  0  0  0
   57.7989   30.4999   47.9328 H   0  0  0  0  0  0  0  0  0  0  0  0
   61.0778   32.1809   47.6398 H   0  0  0  0  0  0  0  0  0  0  0  0
   61.0654   34.6573   47.4068 H   0  0  0  0  0  0  0  0  0  0  0  0
   59.4067   35.7654   45.9146 H   0  0  0  0  0  0  0  0  0  0  0  0
   57.7898   34.3988   44.6073 H   0  0  0  0  0  0  0  0  0  0  0  0
   61.0315   30.0025   45.0959 H   0  0  0  0  0  0  0  0  0  0  0  0
  1  2  1  0
  2  3  1  0
  3  4  1  0
  4  5  2  0
  5  6  1  0
  6  7  2  0
  7  8  1  0
  8  9  2  0
  9 10  1  0
 10 11  2  0
 11 12  1  0
 12 13  2  0
 12 14  1  0
 14 15  1  0
 15 16  1  0
 16 17  2  0
 17 18  1  0
 18 19  2  0
 19 20  1  0
 20 21  2  0
 21 22  1  0
 22 23  2  0
 23 24  1  0
 24 25  2  0
 25 26  1  0
 26 27  2  0
 27 28  1  0
 28 29  2  0
 28 30  1  0
 30 31  1  0
 19 32  1  0
 32 33  2  0
 33 34  1  0
 14  4  1  0
 33 16  1  0
 11  6  1  0
 25 20  1  0
 31 26  1  0
  1 35  1  0
  1 36  1  0
  1 37  1  0
  2 38  1  0
  2 39  1  0
  7 40  1  0
  8 41  1  0
  9 42  1  0
 10 43  1  0
 15 44  1  0
 15 45  1  0
 17 46  1  0
 18 47  1  0
 21 48  1  0
 22 49  1  0
 23 50  1  0
 24 51  1  0
 32 52  1  0
M  CHG  1  31  -1
M  END
>  <UniqueID>  (28) 
26

>  <SMILES>  (28) 
CCOc1nc2ccccc2c(=O)n1Cc1ccc(-c2ccccc2-c2nc(=O)o[n-]2)cc1F

>  <Energy>  (28) 
106.27549683062541

>  <Genealogy>  (28) 
CCOc1nc2ccccc2c(=O)n1Cc1ccc(-c2ccccc2-c2nc(=O)o[n-]2)cc1F (protonated)
CCOc1nc2ccccc2c(=O)n1Cc1ccc(-c2ccccc2-c2nc(=O)o[n-]2)cc1F (3D coordinates assigned)
CCOc1nc2ccccc2c(=O)n1Cc1ccc(-c2ccccc2-c2nc(=O)o[n-]2)cc1F (optimized conformer: 106.27549683062541 kcal/mol)

>  <smiles>  (28) 
CCOc1nc2ccccc2c(=O)n1Cc1ccc(-c2ccccc2-c2nc(=O)o[nH]2)cc1F

>  <score_type>  (28) 
oracle

>  <origin>  (28) 
adg

>  <m_score__min__energy>  (28) 
-10.31

>  <m_primary>  (28) 
energy

$$$$
28:0
     RDKit          3D

 44 47  0  0  0  0  0  0  0  0999 V2000
   57.0320   24.4040   47.8550 C   0  0  0  0  0  0  0  0  0  0  0  0
   57.1970   24.2690   46.4100 N   0  0  0  0  0  0  0  0  0  0  0  0
   57.6690   23.1700   45.7910 C   0  0  0  0  0  0  0  0  0  0  0  0
   57.7620   23.3970   44.4300 C   0  0  0  0  0  0  0  0  0  0  0  0
   57.3240   24.6890   44.2130 C   0  0  0  0  0  0  0  0  0  0  0  0
   56.9660   25.1950   45.4490 C   0  0  0  0  0  0  0  0  0  0  0  0
   56.4310   26.5530   45.6660 C   0  0  0  0  0  0  0  0  0  0  0  0
   55.2190   26.6780   45.9890 O   0  0  0  0  0  0  0  0  0  0  0  0
   57.2670   27.7230   45.5600 N   0  0  0  0  0  0  0  0  0  0  0  0
   56.6350   29.0310   45.3290 C   0  0  0  0  0  0  0  0  0  0  0  0
   57.6640   30.0920   44.9080 C   0  0  0  0  0  0  0  0  0  0  0  0
   58.8920   30.1710   45.8530 C   0  0  0  0  0  0  0  0  0  0  0  0
   58.7820   31.3190   46.7700 N   0  0  0  0  0  0  0  0  0  0  0  0
   58.9200   31.3020   48.1090 C   0  0  0  0  0  0  0  0  0  0  0  0
   58.8220   32.5950   48.5710 C   0  0  0  0  0  0  0  0  0  0  0  0
   58.6260   33.4320   47.5330 N   0  0  0  0  0  0  0  0  0  0  0  0
   58.5980   32.6220   46.4520 C   0  0  0  0  0  0  0  0  0  0  0  0
   58.4590   33.1430   45.0510 C   0  0  0  0  0  0  0  0  0  0  0  0
   57.3840   34.2070   44.8770 C   0  0  0  0  0  0  0  0  0  0  0  0
   58.8500   34.6030   44.8630 C   0  0  0  0  0  0  0  0  0  0  0  0
   59.1410   28.8730   46.6510 C   0  0  0  0  0  0  0  0  0  0  0  0
   58.7070   27.6450   45.8550 C   0  0  0  0  0  0  0  0  0  0  0  0
   57.7846   23.7882   48.3691 H   0  0  0  0  0  0  0  0  0  0  0  0
   57.1623   25.4579   48.1421 H   0  0  0  0  0  0  0  0  0  0  0  0
   56.0248   24.0676   48.1421 H   0  0  0  0  0  0  0  0  0  0  0  0
   57.9406   22.2302   46.2939 H   0  0  0  0  0  0  0  0  0  0  0  0
   58.1160   22.6867   43.6683 H   0  0  0  0  0  0  0  0  0  0  0  0
   57.2705   25.2123   43.2470 H   0  0  0  0  0  0  0  0  0  0  0  0
   55.8828   28.9281   44.5330 H   0  0  0  0  0  0  0  0  0  0  0  0
   56.1697   29.3585   46.2704 H   0  0  0  0  0  0  0  0  0  0  0  0
   58.0188   29.8506   43.8952 H   0  0  0  0  0  0  0  0  0  0  0  0
   57.1589   31.0682   44.9509 H   0  0  0  0  0  0  0  0  0  0  0  0
   59.7640   30.3102   45.1971 H   0  0  0  0  0  0  0  0  0  0  0  0
   59.0832   30.4076   48.7282 H   0  0  0  0  0  0  0  0  0  0  0  0
   58.8928   32.8986   49.6259 H   0  0  0  0  0  0  0  0  0  0  0  0
   58.7162   32.1983   44.5496 H   0  0  0  0  0  0  0  0  0  0  0  0
   56.7950   34.2467   43.9488 H   0  0  0  0  0  0  0  0  0  0  0  0
   56.4999   34.5199   45.4519 H   0  0  0  0  0  0  0  0  0  0  0  0
   59.3225   34.9292   43.9247 H   0  0  0  0  0  0  0  0  0  0  0  0
   59.4667   35.3210   45.4235 H   0  0  0  0  0  0  0  0  0  0  0  0
   60.2140   28.7921   46.8791 H   0  0  0  0  0  0  0  0  0  0  0  0
   58.5500   28.9146   47.5778 H   0  0  0  0  0  0  0  0  0  0  0  0
   59.2710   27.6038   44.9115 H   0  0  0  0  0  0  0  0  0  0  0  0
   58.9070   26.7399   46.4473 H   0  0  0  0  0  0  0  0  0  0  0  0
  1  2  1  0
  2  3  1  0
  3  4  2  0
  4  5  1  0
  5  6  2  0
  6  7  1  0
  7  8  2  0
  7  9  1  0
  9 10  1  0
 10 11  1  0
 11 12  1  0
 12 13  1  0
 13 14  1  0
 14 15  2  0
 15 16  1  0
 16 17  2  0
 17 18  1  0
 18 19  1  0
 19 20  1  0
 12 21  1  0
 21 22  1  0
  6  2  1  0
 22  9  1  0
 17 13  1  0
 20 18  1  0
  1 23  1  0
  1 24  1  0
  1 25  1  0
  3 26  1  0
  4 27  1  0
  5 28  1  0
 10 29  1  0
 10 30  1  0
 11 31  1  0
 11 32  1  0
 12 33  1  0
 14 34  1  0
 15 35  1  0
 18 36  1  0
 19 37  1  0
 19 38  1  0
 20 39  1  0
 20 40  1  0
 21 41  1  0
 21 42  1  0
 22 43  1  0
 22 44  1  0
M  END
>  <UniqueID>  (29) 
27

>  <SMILES>  (29) 
Cn1cccc1C(=O)N1CCC(n2ccnc2C2CC2)CC1

>  <Energy>  (29) 
370.72193260589466

>  <Genealogy>  (29) 
Cn1cccc1C(=O)N1CCC(n2ccnc2C2CC2)CC1 (3D coordinates assigned)
Cn1cccc1C(=O)N1CCC(n2ccnc2C2CC2)CC1 (nonaromatic ring conformer: 370.72193260589466 kcal/mol)

>  <smiles>  (29) 
Cn1cccc1C(=O)N1CCC(n2ccnc2C2CC2)CC1

>  <score_type>  (29) 
oracle

>  <origin>  (29) 
adg

>  <m_score__min__energy>  (29) 
-6.9800000000000004

>  <m_primary>  (29) 
energy

$$$$
29:0
     RDKit          3D

 46 47  0  0  0  0  0  0  0  0999 V2000
   56.8830   26.0900   45.6620 C   0  0  0  0  0  0  0  0  0  0  0  0
   58.0220   26.0980   44.9650 C   0  0  0  0  0  0  0  0  0  0  0  0
   58.2080   26.9860   43.7650 C   0  0  0  0  0  0  0  0  0  0  0  0
   57.8900   28.4170   44.1060 C   0  0  0  0  0  0  0  0  0  0  0  0
   57.0160   29.1550   43.2970 C   0  0  0  0  0  0  0  0  0  0  0  0
   56.6960   30.4730   43.6230 C   0  0  0  0  0  0  0  0  0  0  0  0
   57.2410   31.0760   44.7720 C   0  0  0  0  0  0  0  0  0  0  0  0
   56.9500   32.4040   45.1340 O   0  0  0  0  0  0  0  0  0  0  0  0
   57.7510   33.5410   44.8150 C   0  0  0  0  0  0  0  0  0  0  0  0
   58.6390   33.8970   45.9650 C   0  0  0  0  0  0  0  0  0  0  0  0
   59.9780   33.5930   46.0990 C   0  0  0  0  0  0  0  0  0  0  0  0
   60.3620   34.1090   47.2790 N   0  0  0  0  0  0  0  0  0  0  0  0
   61.6960   34.0200   47.8810 C   0  0  1  0  0  0  0  0  0  0  0  0
   61.7150   32.9080   48.9360 C   0  0  0  0  0  0  0  0  0  0  0  0
   62.7480   33.7970   46.7750 C   0  0  0  0  0  0  0  0  0  0  0  0
   63.7560   32.7040   47.1290 C   0  0  0  0  0  0  0  0  0  0  0  0
   59.3090   34.6990   47.8270 N   0  0  0  0  0  0  0  0  0  0  0  0
   58.2410   34.5910   47.0520 N   0  0  0  0  0  0  0  0  0  0  0  0
   58.1060   30.3390   45.5970 C   0  0  0  0  0  0  0  0  0  0  0  0
   58.6270   30.9630   46.7410 O   0  0  0  0  0  0  0  0  0  0  0  0
   59.4060   30.3050   47.7350 C   0  0  0  0  0  0  0  0  0  0  0  0
   58.4250   29.0090   45.2600 C   0  0  0  0  0  0  0  0  0  0  0  0
   56.7771   25.4294   46.5351 H   0  0  0  0  0  0  0  0  0  0  0  0
   56.0506   26.7440   45.3630 H   0  0  0  0  0  0  0  0  0  0  0  0
   58.8454   25.4383   45.2763 H   0  0  0  0  0  0  0  0  0  0  0  0
   59.2521   26.9195   43.4253 H   0  0  0  0  0  0  0  0  0  0  0  0
   57.5252   26.6524   42.9697 H   0  0  0  0  0  0  0  0  0  0  0  0
   56.5796   28.6924   42.3995 H   0  0  0  0  0  0  0  0  0  0  0  0
   56.0131   31.0449   42.9777 H   0  0  0  0  0  0  0  0  0  0  0  0
   58.3716   33.3113   43.9363 H   0  0  0  0  0  0  0  0  0  0  0  0
   57.0891   34.3929   44.6003 H   0  0  0  0  0  0  0  0  0  0  0  0
   60.6049   33.0398   45.3842 H   0  0  0  0  0  0  0  0  0  0  0  0
   61.9466   34.9613   48.3920 H   0  0  0  0  0  0  0  0  0  0  0  0
   61.7074   33.3557   49.9408 H   0  0  0  0  0  0  0  0  0  0  0  0
   60.8276   32.2699   48.8121 H   0  0  0  0  0  0  0  0  0  0  0  0
   62.6237   32.3005   48.8121 H   0  0  0  0  0  0  0  0  0  0  0  0
   62.2288   33.5098   45.8487 H   0  0  0  0  0  0  0  0  0  0  0  0
   63.3068   34.7368   46.6546 H   0  0  0  0  0  0  0  0  0  0  0  0
   63.8350   32.6184   48.2228 H   0  0  0  0  0  0  0  0  0  0  0  0
   63.4190   31.7446   46.7095 H   0  0  0  0  0  0  0  0  0  0  0  0
   64.7395   32.9624   46.7095 H   0  0  0  0  0  0  0  0  0  0  0  0
   59.3090   35.1810   48.7520 H   0  0  0  0  0  0  0  0  0  0  0  0
   59.0535   30.6027   48.7336 H   0  0  0  0  0  0  0  0  0  0  0  0
   59.3035   29.2159   47.6196 H   0  0  0  0  0  0  0  0  0  0  0  0
   60.4627   30.5881   47.6196 H   0  0  0  0  0  0  0  0  0  0  0  0
   59.0995   28.4294   45.9073 H   0  0  0  0  0  0  0  0  0  0  0  0
  1  2  2  0
  2  3  1  0
  3  4  1  0
  4  5  2  0
  5  6  1  0
  6  7  2  0
  7  8  1  0
  8  9  1  0
  9 10  1  0
 10 11  2  0
 11 12  1  0
 12 13  1  0
 13 14  1  0
 13 15  1  0
 15 16  1  0
 12 17  1  0
 17 18  2  0
  7 19  1  0
 19 20  1  0
 20 21  1  0
 19 22  2  0
 22  4  1  0
 18 10  1  0
  1 23  1  0
  1 24  1  0
  2 25  1  0
  3 26  1  0
  3 27  1  0
  5 28  1  0
  6 29  1  0
  9 30  1  0
  9 31  1  0
 11 32  1  0
 13 33  1  1
 14 34  1  0
 14 35  1  0
 14 36  1  0
 15 37  1  0
 15 38  1  0
 16 39  1  0
 16 40  1  0
 16 41  1  0
 17 42  1  0
 21 43  1  0
 21 44  1  0
 21 45  1  0
 22 46  1  0
M  CHG  1  17   1
M  END
>  <UniqueID>  (30) 
28

>  <SMILES>  (30) 
C=CCc1ccc(OCc2cn([C@@H](C)CC)[nH+]n2)c(OC)c1

>  <Energy>  (30) 
69.43221994766427

>  <Genealogy>  (30) 
C=CCc1ccc(OCc2cn(C(C)CC)[nH+]n2)c(OC)c1 (protonated)
C=CCc1ccc(OCc2cn([C@@H](C)CC)[nH+]n2)c(OC)c1 (chirality)
C=CCc1ccc(OCc2cn([C@@H](C)CC)[nH+]n2)c(OC)c1 (3D coordinates assigned)
C=CCc1ccc(OCc2cn([C@@H](C)CC)[nH+]n2)c(OC)c1 (optimized conformer: 69.43221994766427 kcal/mol)

>  <smiles>  (30) 
C=CCc1ccc(OCc2cn(C(C)CC)nn2)c(OC)c1

>  <score_type>  (30) 
oracle

>  <origin>  (30) 
adg

>  <m_score__min__energy>  (30) 
-6.1600000000000001

>  <m_primary>  (30) 
energy

$$$$
30:0
     RDKit          3D

 55 57  0  0  0  0  0  0  0  0999 V2000
   62.6790   33.8450   46.4920 C   0  0  0  0  0  0  0  0  0  0  0  0
   63.7260   32.9680   47.1780 C   0  0  0  0  0  0  0  0  0  0  0  0
   63.4630   32.8650   48.6290 N   0  0  0  0  0  0  0  0  0  0  0  0
   64.7330   32.8510   49.3730 C   0  0  0  0  0  0  0  0  0  0  0  0
   62.6350   31.6810   48.9730 C   0  0  0  0  0  0  0  0  0  0  0  0
   61.1850   32.1070   49.2240 C   0  0  0  0  0  0  0  0  0  0  0  0
   60.2160   30.9230   49.1390 C   0  0  0  0  0  0  0  0  0  0  0  0
   58.9330   31.3440   48.5820 N   0  0  0  0  0  0  0  0  0  0  0  0
   58.7780   31.5000   47.1650 C   0  0  0  0  0  0  0  0  0  0  0  0
   58.9050   32.7690   46.5810 C   0  0  0  0  0  0  0  0  0  0  0  0
   59.2310   33.8950   47.3660 C   0  0  0  0  0  0  0  0  0  0  0  0
   59.4040   35.1450   46.7780 C   0  0  0  0  0  0  0  0  0  0  0  0
   59.2710   35.2910   45.4010 C   0  0  0  0  0  0  0  0  0  0  0  0
   58.9370   34.1940   44.6070 C   0  0  0  0  0  0  0  0  0  0  0  0
   58.7120   32.9160   45.1820 C   0  0  0  0  0  0  0  0  0  0  0  0
   58.3290   31.8290   44.4170 N   0  0  0  0  0  0  0  0  0  0  0  0
   57.8420   32.0330   43.0350 C   0  0  0  0  0  0  0  0  0  0  0  0
   58.3720   30.5550   44.9560 C   0  0  0  0  0  0  0  0  0  0  0  0
   58.2510   29.3980   44.1470 C   0  0  0  0  0  0  0  0  0  0  0  0
   58.2410   28.1090   44.7000 C   0  0  0  0  0  0  0  0  0  0  0  0
   58.0970   26.9140   43.7920 C   0  0  0  0  0  0  0  0  0  0  0  0
   58.3690   27.9500   46.0940 C   0  0  0  0  0  0  0  0  0  0  0  0
   58.3580   26.5830   46.7300 C   0  0  0  0  0  0  0  0  0  0  0  0
   58.5430   29.0820   46.9010 C   0  0  0  0  0  0  0  0  0  0  0  0
   58.5620   30.3770   46.3490 C   0  0  0  0  0  0  0  0  0  0  0  0
   62.0710   34.3543   47.2542 H   0  0  0  0  0  0  0  0  0  0  0  0
   63.1830   34.5945   45.8640 H   0  0  0  0  0  0  0  0  0  0  0  0
   62.0295   33.2174   45.8640 H   0  0  0  0  0  0  0  0  0  0  0  0
   63.6981   31.9615   46.7351 H   0  0  0  0  0  0  0  0  0  0  0  0
   64.7157   33.4257   47.0331 H   0  0  0  0  0  0  0  0  0  0  0  0
   64.5252   32.8533   50.4532 H   0  0  0  0  0  0  0  0  0  0  0  0
   65.3015   31.9465   49.1109 H   0  0  0  0  0  0  0  0  0  0  0  0
   65.3213   33.7427   49.1109 H   0  0  0  0  0  0  0  0  0  0  0  0
   62.6641   30.9625   48.1406 H   0  0  0  0  0  0  0  0  0  0  0  0
   63.0359   31.2142   49.8848 H   0  0  0  0  0  0  0  0  0  0  0  0
   61.1143   32.5524   50.2273 H   0  0  0  0  0  0  0  0  0  0  0  0
   60.9044   32.8322   48.4460 H   0  0  0  0  0  0  0  0  0  0  0  0
   60.6517   30.1455   48.4943 H   0  0  0  0  0  0  0  0  0  0  0  0
   60.0491   30.5295   50.1526 H   0  0  0  0  0  0  0  0  0  0  0  0
   58.1020   31.4990   49.1970 H   0  0  0  0  0  0  0  0  0  0  0  0
   59.3497   33.7841   48.4539 H   0  0  0  0  0  0  0  0  0  0  0  0
   59.6460   36.0176   47.4025 H   0  0  0  0  0  0  0  0  0  0  0  0
   59.4299   36.2754   44.9365 H   0  0  0  0  0  0  0  0  0  0  0  0
   58.8465   34.3213   43.5181 H   0  0  0  0  0  0  0  0  0  0  0  0
   56.8277   32.4579   43.0626 H   0  0  0  0  0  0  0  0  0  0  0  0
   58.5151   32.7248   42.5074 H   0  0  0  0  0  0  0  0  0  0  0  0
   57.8211   31.0680   42.5074 H   0  0  0  0  0  0  0  0  0  0  0  0
   58.1626   29.5137   43.0567 H   0  0  0  0  0  0  0  0  0  0  0  0
   57.9873   26.0033   44.3991 H   0  0  0  0  0  0  0  0  0  0  0  0
   57.2076   27.0409   43.1572 H   0  0  0  0  0  0  0  0  0  0  0  0
   58.9910   26.8260   43.1572 H   0  0  0  0  0  0  0  0  0  0  0  0
   58.3588   26.6880   47.8250 H   0  0  0  0  0  0  0  0  0  0  0  0
   57.4555   26.0391   46.4145 H   0  0  0  0  0  0  0  0  0  0  0  0
   59.2517   26.0246   46.4145 H   0  0  0  0  0  0  0  0  0  0  0  0
   58.6672   28.9565   47.9867 H   0  0  0  0  0  0  0  0  0  0  0  0
  1  2  1  0
  2  3  1  0
  3  4  1  0
  3  5  1  0
  5  6  1  0
  6  7  1  0
  7  8  1  0
  8  9  1  0
  9 10  2  0
 10 11  1  0
 11 12  2  0
 12 13  1  0
 13 14  2  0
 14 15  1  0
 15 16  2  0
 16 17  1  0
 16 18  1  0
 18 19  2  0
 19 20  1  0
 20 21  1  0
 20 22  2  0
 22 23  1  0
 22 24  1  0
 24 25  2  0
 25  9  1  0
 15 10  1  0
 25 18  1  0
  1 26  1  0
  1 27  1  0
  1 28  1  0
  2 29  1  0
  2 30  1  0
  4 31  1  0
  4 32  1  0
  4 33  1  0
  5 34  1  0
  5 35  1  0
  6 36  1  0
  6 37  1  0
  7 38  1  0
  7 39  1  0
  8 40  1  0
 11 41  1  0
 12 42  1  0
 13 43  1  0
 14 44  1  0
 17 45  1  0
 17 46  1  0
 17 47  1  0
 19 48  1  0
 21 49  1  0
 21 50  1  0
 21 51  1  0
 23 52  1  0
 23 53  1  0
 23 54  1  0
 24 55  1  0
M  CHG  1  16   1
M  END
>  <UniqueID>  (31) 
29

>  <SMILES>  (31) 
CCN(C)CCCNc1c2ccccc2[n+](C)c2cc(C)c(C)cc12

>  <Energy>  (31) 
79.39013019737875

>  <Genealogy>  (31) 
CCN(C)CCCNc1c2ccccc2[n+](C)c2cc(C)c(C)cc12 (3D coordinates assigned)
CCN(C)CCCNc1c2ccccc2[n+](C)c2cc(C)c(C)cc12 (optimized conformer: 79.39013019737875 kcal/mol)

>  <smiles>  (31) 
CCN(C)CCCNc1c2ccccc2[n+](C)c2cc(C)c(C)cc12

>  <score_type>  (31) 
oracle

>  <origin>  (31) 
adg

>  <m_score__min__energy>  (31) 
-6.0499999999999998

>  <m_primary>  (31) 
energy

$$$$
31:0
     RDKit          3D

 54 57  0  0  0  0  0  0  0  0999 V2000
   56.2950   29.8220   42.7690 C   0  0  0  0  0  0  0  0  0  0  0  0
   55.5220   30.0500   44.0630 C   0  0  0  0  0  0  0  0  0  0  0  0
   55.8430   28.9960   45.0310 N   0  0  0  0  0  0  0  0  0  0  0  0
   57.1720   28.4120   44.7840 C   0  0  0  0  0  0  0  0  0  0  0  0
   58.3080   29.2620   45.3890 C   0  0  0  0  0  0  0  0  0  0  0  0
   57.8530   30.2420   46.4000 N   0  0  0  0  0  0  0  0  0  0  0  0
   58.9040   31.1860   46.7830 C   0  0  0  0  0  0  0  0  0  0  0  0
   58.9800   32.4910   46.2050 C   0  0  0  0  0  0  0  0  0  0  0  0
   58.0730   32.9370   45.2060 C   0  0  0  0  0  0  0  0  0  0  0  0
   58.1140   34.2410   44.7170 C   0  0  0  0  0  0  0  0  0  0  0  0
   59.0460   35.1400   45.2040 C   0  0  0  0  0  0  0  0  0  0  0  0
   59.9720   34.7310   46.1550 C   0  0  0  0  0  0  0  0  0  0  0  0
   59.9960   33.3940   46.6390 C   0  0  0  0  0  0  0  0  0  0  0  0
   60.9710   32.9770   47.5240 N   0  0  0  0  0  0  0  0  0  0  0  0
   62.1870   33.8060   47.7220 C   0  0  0  0  0  0  0  0  0  0  0  0
   60.8320   31.7820   48.2020 C   0  0  0  0  0  0  0  0  0  0  0  0
   61.6570   31.4730   49.3140 C   0  0  0  0  0  0  0  0  0  0  0  0
   61.5820   30.2410   49.9710 C   0  0  0  0  0  0  0  0  0  0  0  0
   60.6260   29.2980   49.5580 C   0  0  0  0  0  0  0  0  0  0  0  0
   59.7850   29.5940   48.4800 C   0  0  0  0  0  0  0  0  0  0  0  0
   59.8340   30.8460   47.8130 C   0  0  0  0  0  0  0  0  0  0  0  0
   60.5320   27.9350   50.2100 C   0  0  0  0  0  0  0  0  0  0  0  0
   61.1330   27.9150   51.6200 C   0  0  0  0  0  0  0  0  0  0  0  0
   62.5240   28.5400   51.6090 C   0  0  0  0  0  0  0  0  0  0  0  0
   62.4580   30.0090   51.1850 C   0  0  0  0  0  0  0  0  0  0  0  0
   57.3253   29.5181   43.0060 H   0  0  0  0  0  0  0  0  0  0  0  0
   55.8047   29.0302   42.1836 H   0  0  0  0  0  0  0  0  0  0  0  0
   56.3128   30.7531   42.1836 H   0  0  0  0  0  0  0  0  0  0  0  0
   55.7975   31.0280   44.4845 H   0  0  0  0  0  0  0  0  0  0  0  0
   54.4434   30.0270   43.8483 H   0  0  0  0  0  0  0  0  0  0  0  0
   55.1460   28.2230   44.9060 H   0  0  0  0  0  0  0  0  0  0  0  0
   57.2054   27.4076   45.2312 H   0  0  0  0  0  0  0  0  0  0  0  0
   57.3248   28.3731   43.6954 H   0  0  0  0  0  0  0  0  0  0  0  0
   59.0313   28.5839   45.8655 H   0  0  0  0  0  0  0  0  0  0  0  0
   58.7490   29.8386   44.5625 H   0  0  0  0  0  0  0  0  0  0  0  0
   57.4170   29.7470   47.2050 H   0  0  0  0  0  0  0  0  0  0  0  0
   57.0380   30.7720   46.0160 H   0  0  0  0  0  0  0  0  0  0  0  0
   57.3221   32.2374   44.8101 H   0  0  0  0  0  0  0  0  0  0  0  0
   57.4022   34.5571   43.9403 H   0  0  0  0  0  0  0  0  0  0  0  0
   59.0537   36.1775   44.8385 H   0  0  0  0  0  0  0  0  0  0  0  0
   60.7024   35.4567   46.5421 H   0  0  0  0  0  0  0  0  0  0  0  0
   62.3730   33.9328   48.7987 H   0  0  0  0  0  0  0  0  0  0  0  0
   63.0503   33.3075   47.2570 H   0  0  0  0  0  0  0  0  0  0  0  0
   62.0385   34.7917   47.2570 H   0  0  0  0  0  0  0  0  0  0  0  0
   62.3769   32.2248   49.6698 H   0  0  0  0  0  0  0  0  0  0  0  0
   59.0653   28.8350   48.1396 H   0  0  0  0  0  0  0  0  0  0  0  0
   59.4723   27.6472   50.2743 H   0  0  0  0  0  0  0  0  0  0  0  0
   61.1065   27.2291   49.5922 H   0  0  0  0  0  0  0  0  0  0  0  0
   60.4836   28.4860   52.2998 H   0  0  0  0  0  0  0  0  0  0  0  0
   61.2109   26.8724   51.9620 H   0  0  0  0  0  0  0  0  0  0  0  0
   62.9561   28.4754   52.6185 H   0  0  0  0  0  0  0  0  0  0  0  0
   63.1498   27.9934   50.8882 H   0  0  0  0  0  0  0  0  0  0  0  0
   62.0565   30.5972   52.0234 H   0  0  0  0  0  0  0  0  0  0  0  0
   63.4788   30.3175   50.9153 H   0  0  0  0  0  0  0  0  0  0  0  0
  1  2  1  0
  2  3  1  0
  3  4  1  0
  4  5  1  0
  5  6  1  0
  6  7  1  0
  7  8  2  0
  8  9  1  0
  9 10  2  0
 10 11  1  0
 11 12  2  0
 12 13  1  0
 13 14  2  0
 14 15  1  0
 14 16  1  0
 16 17  2  0
 17 18  1  0
 18 19  2  0
 19 20  1  0
 20 21  2  0
 19 22  1  0
 22 23  1  0
 23 24  1  0
 24 25  1  0
 21  7  1  0
 13  8  1  0
 21 16  1  0
 25 18  1  0
  1 26  1  0
  1 27  1  0
  1 28  1  0
  2 29  1  0
  2 30  1  0
  3 31  1  0
  4 32  1  0
  4 33  1  0
  5 34  1  0
  5 35  1  0
  6 36  1  0
  6 37  1  0
  9 38  1  0
 10 39  1  0
 11 40  1  0
 12 41  1  0
 15 42  1  0
 15 43  1  0
 15 44  1  0
 17 45  1  0
 20 46  1  0
 22 47  1  0
 22 48  1  0
 23 49  1  0
 23 50  1  0
 24 51  1  0
 24 52  1  0
 25 53  1  0
 25 54  1  0
M  CHG  2   6   1  14   1
M  END
>  <UniqueID>  (32) 
30

>  <SMILES>  (32) 
CCNCC[NH2+]c1c2ccccc2[n+](C)c2cc3c(cc12)CCCC3

>  <Energy>  (32) 
82.97755767201977

>  <Genealogy>  (32) 
CCNCC[NH2+]c1c2ccccc2[n+](C)c2cc3c(cc12)CCCC3 (protonated)
CCNCC[NH2+]c1c2ccccc2[n+](C)c2cc3c(cc12)CCCC3 (3D coordinates assigned)
CCNCC[NH2+]c1c2ccccc2[n+](C)c2cc3c(cc12)CCCC3 (nonaromatic ring conformer: 82.97755767201977 kcal/mol)

>  <smiles>  (32) 
CCNCCNc1c2ccccc2[n+](C)c2cc3c(cc12)CCCC3

>  <score_type>  (32) 
oracle

>  <origin>  (32) 
adg

>  <m_score__min__energy>  (32) 
-5.2599999999999998

>  <m_primary>  (32) 
energy

$$$$
32:0
     RDKit          3D

 75 79  0  0  0  0  0  0  0  0999 V2000
   59.6450   29.1550   49.4590 C   0  0  0  0  0  0  0  0  0  0  0  0
   61.1260   29.3900   49.7880 C   0  0  0  0  0  0  0  0  0  0  0  0
   61.3990   29.4700   51.2490 N   0  0  0  0  0  0  0  0  0  0  0  0
   60.4470   28.6190   52.0180 C   0  0  0  0  0  0  0  0  0  0  0  0
   60.9870   27.2060   52.2690 C   0  0  0  0  0  0  0  0  0  0  0  0
   62.8110   29.1530   51.6110 C   0  0  0  0  0  0  0  0  0  0  0  0
   63.7100   30.3920   51.8340 C   0  0  0  0  0  0  0  0  0  0  0  0
   63.1800   31.5170   51.1570 O   0  0  0  0  0  0  0  0  0  0  0  0
   63.5300   31.5150   49.7840 C   0  0  0  0  0  0  0  0  0  0  0  0
   63.5990   32.9470   49.2290 C   0  0  0  0  0  0  0  0  0  0  0  0
   62.8920   33.0550   47.9440 N   0  0  0  0  0  0  0  0  0  0  0  0
   61.9580   34.1900   47.9290 C   0  0  0  0  0  0  0  0  0  0  0  0
   60.5310   33.6890   47.9710 C   0  0  0  0  0  0  0  0  0  0  0  0
   60.0040   33.1550   49.1560 C   0  0  0  0  0  0  0  0  0  0  0  0
   58.7140   32.6880   49.2010 C   0  0  0  0  0  0  0  0  0  0  0  0
   57.8870   32.7130   48.1310 N   0  0  0  0  0  0  0  0  0  0  0  0
   58.3340   33.2290   46.9510 C   0  0  0  0  0  0  0  0  0  0  0  0
   57.4760   33.2520   45.8470 C   0  0  0  0  0  0  0  0  0  0  0  0
   57.9190   33.7580   44.6240 C   0  0  0  0  0  0  0  0  0  0  0  0
   59.2230   34.2420   44.4940 C   0  0  0  0  0  0  0  0  0  0  0  0
   60.0950   34.2260   45.5860 C   0  0  0  0  0  0  0  0  0  0  0  0
   59.6710   33.7260   46.8340 C   0  0  0  0  0  0  0  0  0  0  0  0
   58.4770   32.1430   50.5130 C   0  0  0  0  0  0  0  0  0  0  0  0
   57.3430   31.4990   50.9950 C   0  0  0  0  0  0  0  0  0  0  0  0
   57.3500   31.0010   52.3170 C   0  0  0  0  0  0  0  0  0  0  0  0
   58.5450   31.1230   53.0830 C   0  0  0  0  0  0  0  0  0  0  0  0
   59.6710   31.7700   52.5240 C   0  0  0  0  0  0  0  0  0  0  0  0
   60.7490   31.8670   53.1710 O   0  0  0  0  0  0  0  0  0  0  0  0
   59.5880   32.2740   51.2630 N   0  0  0  0  0  0  0  0  0  0  0  0
   60.6550   32.9300   50.4960 C   0  0  0  0  0  0  0  0  0  0  0  0
   58.6560   30.4320   54.4150 C   0  0  0  0  0  0  0  0  0  0  0  0
   57.3960   30.3570   55.0630 O   0  0  0  0  0  0  0  0  0  0  0  0
   56.2220   30.0660   54.3720 C   0  0  0  0  0  0  0  0  0  0  0  0
   55.2360   29.6250   55.0210 O   0  0  0  0  0  0  0  0  0  0  0  0
   56.1240   30.2510   52.8680 C   0  0  2  0  0  0  0  0  0  0  0  0
   56.0870   28.9640   52.3000 O   0  0  0  0  0  0  0  0  0  0  0  0
   54.7870   30.9970   52.5500 C   0  0  0  0  0  0  0  0  0  0  0  0
   53.8490   30.2150   51.6210 C   0  0  0  0  0  0  0  0  0  0  0  0
   59.0718   29.0640   50.3934 H   0  0  0  0  0  0  0  0  0  0  0  0
   59.2603   30.0033   48.8739 H   0  0  0  0  0  0  0  0  0  0  0  0
   59.5418   28.2292   48.8739 H   0  0  0  0  0  0  0  0  0  0  0  0
   61.7129   28.5598   49.3681 H   0  0  0  0  0  0  0  0  0  0  0  0
   61.4071   30.3593   49.3505 H   0  0  0  0  0  0  0  0  0  0  0  0
   61.2440   30.4650   51.5400 H   0  0  0  0  0  0  0  0  0  0  0  0
   60.2511   29.0985   52.9884 H   0  0  0  0  0  0  0  0  0  0  0  0
   59.5291   28.5227   51.4195 H   0  0  0  0  0  0  0  0  0  0  0  0
   61.0555   27.0267   53.3521 H   0  0  0  0  0  0  0  0  0  0  0  0
   60.3075   26.4682   51.8175 H   0  0  0  0  0  0  0  0  0  0  0  0
   61.9854   27.1094   51.8175 H   0  0  0  0  0  0  0  0  0  0  0  0
   62.8034   28.5626   52.5391 H   0  0  0  0  0  0  0  0  0  0  0  0
   63.2377   28.6067   50.7569 H   0  0  0  0  0  0  0  0  0  0  0  0
   63.7652   30.6102   52.9107 H   0  0  0  0  0  0  0  0  0  0  0  0
   64.7141   30.1790   51.4385 H   0  0  0  0  0  0  0  0  0  0  0  0
   64.5127   31.0355   49.6643 H   0  0  0  0  0  0  0  0  0  0  0  0
   62.7595   30.9611   49.2276 H   0  0  0  0  0  0  0  0  0  0  0  0
   63.1359   33.6345   49.9520 H   0  0  0  0  0  0  0  0  0  0  0  0
   64.6556   33.2070   49.0677 H   0  0  0  0  0  0  0  0  0  0  0  0
   63.6140   33.2330   47.2060 H   0  0  0  0  0  0  0  0  0  0  0  0
   62.1458   34.8275   48.8056 H   0  0  0  0  0  0  0  0  0  0  0  0
   62.1095   34.7690   47.0061 H   0  0  0  0  0  0  0  0  0  0  0  0
   56.4489   32.8701   45.9427 H   0  0  0  0  0  0  0  0  0  0  0  0
   57.2390   33.7757   43.7595 H   0  0  0  0  0  0  0  0  0  0  0  0
   59.5654   34.6380   43.5265 H   0  0  0  0  0  0  0  0  0  0  0  0
   61.1206   34.6067   45.4708 H   0  0  0  0  0  0  0  0  0  0  0  0
   56.4547   31.3792   50.3573 H   0  0  0  0  0  0  0  0  0  0  0  0
   60.9493   33.8830   50.9598 H   0  0  0  0  0  0  0  0  0  0  0  0
   61.5808   32.3387   50.4394 H   0  0  0  0  0  0  0  0  0  0  0  0
   59.0401   29.4131   54.2593 H   0  0  0  0  0  0  0  0  0  0  0  0
   59.3400   31.0125   55.0515 H   0  0  0  0  0  0  0  0  0  0  0  0
   55.7490   28.3340   52.9870 H   0  0  0  0  0  0  0  0  0  0  0  0
   54.2603   31.1844   53.4973 H   0  0  0  0  0  0  0  0  0  0  0  0
   55.0548   31.9269   52.0270 H   0  0  0  0  0  0  0  0  0  0  0  0
   53.1426   29.6261   52.2244 H   0  0  0  0  0  0  0  0  0  0  0  0
   53.2909   30.9190   50.9863 H   0  0  0  0  0  0  0  0  0  0  0  0
   54.4411   29.5393   50.9863 H   0  0  0  0  0  0  0  0  0  0  0  0
  1  2  1  0
  2  3  1  0
  3  4  1  0
  4  5  1  0
  3  6  1  0
  6  7  1  0
  7  8  1  0
  8  9  1  0
  9 10  1  0
 10 11  1  0
 11 12  1  0
 12 13  1  0
 13 14  2  0
 14 15  1  0
 15 16  2  0
 16 17  1  0
 17 18  2  0
 18 19  1  0
 19 20  2  0
 20 21  1  0
 21 22  2  0
 15 23  1  0
 23 24  2  0
 24 25  1  0
 25 26  2  0
 26 27  1  0
 27 28  2  0
 27 29  1  0
 29 30  1  0
 26 31  1  0
 31 32  1  0
 32 33  1  0
 33 34  2  0
 33 35  1  0
 35 36  1  6
 35 37  1  0
 37 38  1  0
 22 13  1  0
 29 23  1  0
 30 14  1  0
 22 17  1  0
 35 25  1  0
  1 39  1  0
  1 40  1  0
  1 41  1  0
  2 42  1  0
  2 43  1  0
  3 44  1  0
  4 45  1  0
  4 46  1  0
  5 47  1  0
  5 48  1  0
  5 49  1  0
  6 50  1  0
  6 51  1  0
  7 52  1  0
  7 53  1  0
  9 54  1  0
  9 55  1  0
 10 56  1  0
 10 57  1  0
 11 58  1  0
 12 59  1  0
 12 60  1  0
 18 61  1  0
 19 62  1  0
 20 63  1  0
 21 64  1  0
 24 65  1  0
 30 66  1  0
 30 67  1  0
 31 68  1  0
 31 69  1  0
 36 70  1  0
 37 71  1  0
 37 72  1  0
 38 73  1  0
 38 74  1  0
 38 75  1  0
M  CHG  1   3   1
M  END
>  <UniqueID>  (33) 
31

>  <SMILES>  (33) 
CC[NH+](CC)CCOCCNCc1c2c(nc3ccccc13)-c1cc3c(c(=O)n1C2)COC(=O)[C@@]3(O)CC

>  <Energy>  (33) 
120.34607689167674

>  <Genealogy>  (33) 
CC[NH+](CC)CCOCCNCc1c2c(nc3ccccc13)-c1cc3c(c(=O)n1C2)COC(=O)C3(O)CC (protonated)
CC[NH+](CC)CCOCCNCc1c2c(nc3ccccc13)-c1cc3c(c(=O)n1C2)COC(=O)[C@@]3(O)CC (chirality)
CC[NH+](CC)CCOCCNCc1c2c(nc3ccccc13)-c1cc3c(c(=O)n1C2)COC(=O)[C@@]3(O)CC (3D coordinates assigned)
CC[NH+](CC)CCOCCNCc1c2c(nc3ccccc13)-c1cc3c(c(=O)n1C2)COC(=O)[C@@]3(O)CC (nonaromatic ring conformer: 120.34607689167674 kcal/mol)

>  <smiles>  (33) 
CCN(CC)CCOCCNCc1c2c(nc3ccccc13)-c1cc3c(c(=O)n1C2)COC(=O)C3(O)CC

>  <score_type>  (33) 
oracle

>  <origin>  (33) 
adg

>  <m_score__min__energy>  (33) 
-6.7599999999999998

>  <m_primary>  (33) 
energy

$$$$
