0:0
     RDKit          3D

 42 43  0  0  0  0  0  0  0  0999 V2000
   60.8250   33.4640   50.7070 C   0  0  0  0  0  0  0  0  0  0  0  0
   62.2230   32.9080   51.0070 C   0  0  0  0  0  0  0  0  0  0  0  0
   63.3070   33.8610   50.6430 N   0  0  0  0  0  0  0  0  0  0  0  0
   63.8090   34.5800   51.8450 C   0  0  0  0  0  0  0  0  0  0  0  0
   65.3380   34.5770   51.9980 C   0  0  0  0  0  0  0  0  0  0  0  0
   64.3800   33.1770   49.8730 C   0  0  0  0  0  0  0  0  0  0  0  0
   64.1550   33.2240   48.3500 C   0  0  0  0  0  0  0  0  0  0  0  0
   62.9340   33.8980   48.0450 O   0  0  0  0  0  0  0  0  0  0  0  0
   61.7990   33.3120   47.4600 C   0  0  0  0  0  0  0  0  0  0  0  0
   61.7510   31.9160   47.3760 C   0  0  0  0  0  0  0  0  0  0  0  0
   60.6530   31.2710   46.8030 C   0  0  0  0  0  0  0  0  0  0  0  0
   59.5780   32.0190   46.3040 C   0  0  0  0  0  0  0  0  0  0  0  0
   58.4710   31.3810   45.7240 C   0  0  0  0  0  0  0  0  0  0  0  0
   57.3960   32.1280   45.2280 C   0  0  0  0  0  0  0  0  0  0  0  0
   56.2850   31.4300   44.6440 N   0  0  0  0  0  0  0  0  0  0  0  0
   56.4030   30.4960   43.7860 C   0  0  0  0  0  0  0  0  0  0  0  0
   56.5530   29.3160   42.7000 S   0  0  0  0  0  0  0  0  0  0  0  0
   57.4340   33.5350   45.3160 C   0  0  0  0  0  0  0  0  0  0  0  0
   58.5330   34.1780   45.8920 C   0  0  0  0  0  0  0  0  0  0  0  0
   59.6100   33.4290   46.3890 C   0  0  0  0  0  0  0  0  0  0  0  0
   60.7170   34.0690   46.9680 C   0  0  0  0  0  0  0  0  0  0  0  0
   60.3024   33.6718   51.6524 H   0  0  0  0  0  0  0  0  0  0  0  0
   60.9170   34.3940   50.1268 H   0  0  0  0  0  0  0  0  0  0  0  0
   60.2532   32.7249   50.1268 H   0  0  0  0  0  0  0  0  0  0  0  0
   62.2921   32.6897   52.0829 H   0  0  0  0  0  0  0  0  0  0  0  0
   62.3586   32.0007   50.4000 H   0  0  0  0  0  0  0  0  0  0  0  0
   62.8920   34.5970   50.0220 H   0  0  0  0  0  0  0  0  0  0  0  0
   63.4719   35.6254   51.7856 H   0  0  0  0  0  0  0  0  0  0  0  0
   63.4065   34.0468   52.7189 H   0  0  0  0  0  0  0  0  0  0  0  0
   65.5996   34.5765   53.0664 H   0  0  0  0  0  0  0  0  0  0  0  0
   65.7527   33.6780   51.5185 H   0  0  0  0  0  0  0  0  0  0  0  0
   65.7562   35.4743   51.5185 H   0  0  0  0  0  0  0  0  0  0  0  0
   65.3393   33.6649   50.1003 H   0  0  0  0  0  0  0  0  0  0  0  0
   64.3748   32.1186   50.1727 H   0  0  0  0  0  0  0  0  0  0  0  0
   64.9916   33.7590   47.8769 H   0  0  0  0  0  0  0  0  0  0  0  0
   64.0980   32.1944   47.9671 H   0  0  0  0  0  0  0  0  0  0  0  0
   62.5887   31.3193   47.7662 H   0  0  0  0  0  0  0  0  0  0  0  0
   60.6318   30.1728   46.7431 H   0  0  0  0  0  0  0  0  0  0  0  0
   58.4477   30.2832   45.6584 H   0  0  0  0  0  0  0  0  0  0  0  0
   56.5936   34.1299   44.9290 H   0  0  0  0  0  0  0  0  0  0  0  0
   58.5536   35.2759   45.9559 H   0  0  0  0  0  0  0  0  0  0  0  0
   60.7400   35.1665   47.0380 H   0  0  0  0  0  0  0  0  0  0  0  0
  1  2  1  0
  2  3  1  0
  3  4  1  0
  4  5  1  0
  3  6  1  0
  6  7  1  0
  7  8  1  0
  8  9  1  0
  9 10  2  0
 10 11  1  0
 11 12  2  0
 12 13  1  0
 13 14  2  0
 14 15  1  0
 15 16  2  0
 16 17  2  0
 14 18  1  0
 18 19  2  0
 19 20  1  0
 20 21  2  0
 21  9  1  0
 20 12  1  0
  1 22  1  0
  1 23  1  0
  1 24  1  0
  2 25  1  0
  2 26  1  0
  3 27  1  0
  4 28  1  0
  4 29  1  0
  5 30  1  0
  5 31  1  0
  5 32  1  0
  6 33  1  0
  6 34  1  0
  7 35  1  0
  7 36  1  0
 10 37  1  0
 11 38  1  0
 13 39  1  0
 18 40  1  0
 19 41  1  0
 21 42  1  0
M  CHG  1   3   1
M  END
>  <UniqueID>  (1) 
1

>  <SMILES>  (1) 
CC[NH+](CC)CCOc1ccc2cc(N=C=S)ccc2c1

>  <Energy>  (1) 
47.58319979965534

>  <Genealogy>  (1) 
CC[NH+](CC)CCOc1ccc2cc(N=C=S)ccc2c1 (protonated)
CC[NH+](CC)CCOc1ccc2cc(N=C=S)ccc2c1 (3D coordinates assigned)
CC[NH+](CC)CCOc1ccc2cc(N=C=S)ccc2c1 (optimized conformer: 47.58319979965534 kcal/mol)

>  <smiles>  (1) 
CCN(CC)CCOc1ccc2cc(N=C=S)ccc2c1

>  <score_type>  (1) 
oracle

>  <origin>  (1) 
adg

>  <m_score__min__energy>  (1) 
-4.7999999999999998

>  <m_primary>  (1) 
energy

$$$$
1:0
     RDKit          3D

 42 44  0  0  0  0  0  0  0  0999 V2000
   57.7770   32.2250   42.7040 C   0  0  0  0  0  0  0  0  0  0  0  0
   57.0220   31.2290   42.2330 C   0  0  0  0  0  0  0  0  0  0  0  0
   56.2830   30.2940   43.1460 C   0  0  0  0  0  0  0  0  0  0  0  0
   57.2540   29.4680   43.9510 C   0  0  0  0  0  0  0  0  0  0  0  0
   57.6630   28.2130   43.4670 C   0  0  0  0  0  0  0  0  0  0  0  0
   58.5750   27.4400   44.1880 C   0  0  0  0  0  0  0  0  0  0  0  0
   59.0940   27.9130   45.3930 C   0  0  0  0  0  0  0  0  0  0  0  0
   58.7080   29.1640   45.8800 C   0  0  0  0  0  0  0  0  0  0  0  0
   57.7910   29.9560   45.1610 C   0  0  0  0  0  0  0  0  0  0  0  0
   57.3960   31.2250   45.6150 O   0  0  0  0  0  0  0  0  0  0  0  0
   58.1670   32.0610   46.4720 C   0  0  0  0  0  0  0  0  0  0  0  0
   58.0830   33.4710   45.9730 C   0  0  0  0  0  0  0  0  0  0  0  0
   57.0100   33.9130   45.5890 O   0  0  0  0  0  0  0  0  0  0  0  0
   59.2940   34.3640   45.9920 C   0  0  0  0  0  0  0  0  0  0  0  0
   60.0410   34.1790   47.2360 N   0  0  0  0  0  0  0  0  0  0  0  0
   59.5660   34.3790   48.4890 C   0  0  0  0  0  0  0  0  0  0  0  0
   60.5730   34.1950   49.4300 C   0  0  0  0  0  0  0  0  0  0  0  0
   61.6990   33.8810   48.7010 C   0  0  0  0  0  0  0  0  0  0  0  0
   63.0050   33.6350   49.1180 C   0  0  0  0  0  0  0  0  0  0  0  0
   63.9740   33.3840   48.1290 C   0  0  0  0  0  0  0  0  0  0  0  0
   63.6180   33.3860   46.7630 C   0  0  0  0  0  0  0  0  0  0  0  0
   62.2910   33.6370   46.3710 C   0  0  0  0  0  0  0  0  0  0  0  0
   61.3490   33.8810   47.3740 C   0  0  0  0  0  0  0  0  0  0  0  0
   58.3052   32.8919   42.0067 H   0  0  0  0  0  0  0  0  0  0  0  0
   57.8707   32.3784   43.7892 H   0  0  0  0  0  0  0  0  0  0  0  0
   56.9393   31.0898   41.1450 H   0  0  0  0  0  0  0  0  0  0  0  0
   55.6513   30.8795   43.8301 H   0  0  0  0  0  0  0  0  0  0  0  0
   55.6600   29.6208   42.5388 H   0  0  0  0  0  0  0  0  0  0  0  0
   57.2618   27.8377   42.5140 H   0  0  0  0  0  0  0  0  0  0  0  0
   58.8847   26.4564   43.8051 H   0  0  0  0  0  0  0  0  0  0  0  0
   59.8088   27.2996   45.9611 H   0  0  0  0  0  0  0  0  0  0  0  0
   59.1222   29.5328   46.8300 H   0  0  0  0  0  0  0  0  0  0  0  0
   57.7700   32.0070   47.4964 H   0  0  0  0  0  0  0  0  0  0  0  0
   59.2152   31.7274   46.4760 H   0  0  0  0  0  0  0  0  0  0  0  0
   59.9422   34.1148   45.1389 H   0  0  0  0  0  0  0  0  0  0  0  0
   58.9672   35.4121   45.9231 H   0  0  0  0  0  0  0  0  0  0  0  0
   58.5271   34.6496   48.7288 H   0  0  0  0  0  0  0  0  0  0  0  0
   60.4886   34.2817   50.5233 H   0  0  0  0  0  0  0  0  0  0  0  0
   63.2702   33.6369   50.1855 H   0  0  0  0  0  0  0  0  0  0  0  0
   65.0154   33.1850   48.4221 H   0  0  0  0  0  0  0  0  0  0  0  0
   64.3847   33.1897   45.9991 H   0  0  0  0  0  0  0  0  0  0  0  0
   62.0038   33.6411   45.3092 H   0  0  0  0  0  0  0  0  0  0  0  0
  1  2  2  0
  2  3  1  0
  3  4  1  0
  4  5  2  0
  5  6  1  0
  6  7  2  0
  7  8  1  0
  8  9  2  0
  9 10  1  0
 10 11  1  0
 11 12  1  0
 12 13  2  0
 12 14  1  0
 14 15  1  0
 15 16  1  0
 16 17  2  0
 17 18  1  0
 18 19  2  0
 19 20  1  0
 20 21  2  0
 21 22  1  0
 22 23  2  0
  9  4  1  0
 23 15  1  0
 23 18  1  0
  1 24  1  0
  1 25  1  0
  2 26  1  0
  3 27  1  0
  3 28  1  0
  5 29  1  0
  6 30  1  0
  7 31  1  0
  8 32  1  0
 11 33  1  0
 11 34  1  0
 14 35  1  0
 14 36  1  0
 16 37  1  0
 17 38  1  0
 19 39  1  0
 20 40  1  0
 21 41  1  0
 22 42  1  0
M  END
>  <UniqueID>  (2) 
2

>  <SMILES>  (2) 
C=CCc1ccccc1OCC(=O)Cn1ccc2ccccc21

>  <Energy>  (2) 
67.21533696336923

>  <Genealogy>  (2) 
C=CCc1ccccc1OCC(=O)Cn1ccc2ccccc21 (3D coordinates assigned)
C=CCc1ccccc1OCC(=O)Cn1ccc2ccccc21 (optimized conformer: 67.21533696336923 kcal/mol)

>  <smiles>  (2) 
C=CCc1ccccc1OCC(=O)Cn1ccc2ccccc21

>  <score_type>  (2) 
oracle

>  <origin>  (2) 
adg

>  <m_score__min__energy>  (2) 
-7.7999999999999998

>  <m_primary>  (2) 
energy

$$$$
2:0
     RDKit          3D

 51 52  0  0  0  0  0  0  0  0999 V2000
   62.3030   33.1680   47.5420 C   0  0  0  0  0  0  0  0  0  0  0  0
   61.4850   33.8360   46.4350 C   0  0  0  0  0  0  0  0  0  0  0  0
   60.0260   33.5240   46.5540 N   0  0  0  0  0  0  0  0  0  0  0  0
   59.2090   34.5220   45.8140 C   0  0  0  0  0  0  0  0  0  0  0  0
   57.8970   33.9250   45.2870 C   0  0  0  0  0  0  0  0  0  0  0  0
   59.5880   33.4810   47.9780 C   0  0  0  0  0  0  0  0  0  0  0  0
   58.8710   32.1670   48.3520 C   0  0  0  0  0  0  0  0  0  0  0  0
   58.6090   31.3400   47.1800 N   0  0  0  0  0  0  0  0  0  0  0  0
   59.5460   30.4020   46.6380 C   0  0  0  0  0  0  0  0  0  0  0  0
   60.7300   30.7650   46.4010 O   0  0  0  0  0  0  0  0  0  0  0  0
   59.1210   29.0120   46.3500 C   0  0  0  0  0  0  0  0  0  0  0  0
   60.0770   28.0130   46.0930 C   0  0  0  0  0  0  0  0  0  0  0  0
   59.6800   26.7030   45.8100 C   0  0  0  0  0  0  0  0  0  0  0  0
   58.3160   26.3680   45.7760 C   0  0  0  0  0  0  0  0  0  0  0  0
   57.8650   25.0670   45.4920 C   0  0  0  0  0  0  0  0  0  0  0  0
   58.7050   24.1550   45.2520 O   0  0  0  0  0  0  0  0  0  0  0  0
   56.5190   24.7890   45.4740 N   0  0  0  0  0  0  0  0  0  0  0  0
   56.0520   23.4280   45.1420 C   0  0  0  0  0  0  0  0  0  0  0  0
   56.0230   23.2130   43.6280 C   0  0  0  0  0  0  0  0  0  0  0  0
   55.9730   21.8280   43.3350 O   0  0  0  0  0  0  0  0  0  0  0  0
   57.2710   21.2800   43.3030 C   0  0  0  0  0  0  0  0  0  0  0  0
   55.6130   25.7940   45.7150 C   0  0  0  0  0  0  0  0  0  0  0  0
   54.3730   25.5680   45.6830 O   0  0  0  0  0  0  0  0  0  0  0  0
   56.0390   27.0530   45.9910 N   0  0  0  0  0  0  0  0  0  0  0  0
   57.3560   27.3630   46.0300 C   0  0  0  0  0  0  0  0  0  0  0  0
   57.7560   28.6740   46.3150 C   0  0  0  0  0  0  0  0  0  0  0  0
   61.9178   33.4825   48.5232 H   0  0  0  0  0  0  0  0  0  0  0  0
   62.2216   32.0749   47.4494 H   0  0  0  0  0  0  0  0  0  0  0  0
   63.3577   33.4663   47.4494 H   0  0  0  0  0  0  0  0  0  0  0  0
   61.6222   34.9255   46.4995 H   0  0  0  0  0  0  0  0  0  0  0  0
   61.8389   33.4485   45.4683 H   0  0  0  0  0  0  0  0  0  0  0  0
   59.8110   32.5880   46.1350 H   0  0  0  0  0  0  0  0  0  0  0  0
   58.9715   35.3562   46.4905 H   0  0  0  0  0  0  0  0  0  0  0  0
   59.7960   34.8617   44.9479 H   0  0  0  0  0  0  0  0  0  0  0  0
   57.2594   33.6349   46.1351 H   0  0  0  0  0  0  0  0  0  0  0  0
   57.3736   34.6736   44.6741 H   0  0  0  0  0  0  0  0  0  0  0  0
   58.1176   33.0386   44.6741 H   0  0  0  0  0  0  0  0  0  0  0  0
   60.4743   33.5911   48.6202 H   0  0  0  0  0  0  0  0  0  0  0  0
   58.8685   34.3001   48.1244 H   0  0  0  0  0  0  0  0  0  0  0  0
   59.5048   31.6023   49.0516 H   0  0  0  0  0  0  0  0  0  0  0  0
   57.9053   32.4236   48.8119 H   0  0  0  0  0  0  0  0  0  0  0  0
   61.1475   28.2650   46.1149 H   0  0  0  0  0  0  0  0  0  0  0  0
   60.4386   25.9312   45.6131 H   0  0  0  0  0  0  0  0  0  0  0  0
   56.7326   22.6932   45.5968 H   0  0  0  0  0  0  0  0  0  0  0  0
   55.0318   23.3021   45.5336 H   0  0  0  0  0  0  0  0  0  0  0  0
   55.1345   23.7064   43.2072 H   0  0  0  0  0  0  0  0  0  0  0  0
   56.9338   23.6425   43.1853 H   0  0  0  0  0  0  0  0  0  0  0  0
   57.6304   21.1283   44.3315 H   0  0  0  0  0  0  0  0  0  0  0  0
   57.2485   20.3146   42.7763 H   0  0  0  0  0  0  0  0  0  0  0  0
   57.9472   21.9694   42.7763 H   0  0  0  0  0  0  0  0  0  0  0  0
   56.9973   29.4455   46.5130 H   0  0  0  0  0  0  0  0  0  0  0  0
  1  2  1  0
  2  3  1  0
  3  4  1  0
  4  5  1  0
  3  6  1  0
  6  7  1  0
  7  8  1  0
  8  9  1  0
  9 10  2  0
  9 11  1  0
 11 12  2  0
 12 13  1  0
 13 14  2  0
 14 15  1  0
 15 16  2  0
 15 17  1  0
 17 18  1  0
 18 19  1  0
 19 20  1  0
 20 21  1  0
 17 22  1  0
 22 23  2  0
 22 24  1  0
 24 25  1  0
 25 26  2  0
 26 11  1  0
 25 14  1  0
  1 27  1  0
  1 28  1  0
  1 29  1  0
  2 30  1  0
  2 31  1  0
  3 32  1  0
  4 33  1  0
  4 34  1  0
  5 35  1  0
  5 36  1  0
  5 37  1  0
  6 38  1  0
  6 39  1  0
  7 40  1  0
  7 41  1  0
 12 42  1  0
 13 43  1  0
 18 44  1  0
 18 45  1  0
 19 46  1  0
 19 47  1  0
 21 48  1  0
 21 49  1  0
 21 50  1  0
 26 51  1  0
M  CHG  3   3   1   8  -1  24  -1
M  END
>  <UniqueID>  (3) 
3

>  <SMILES>  (3) 
CC[NH+](CC)CC[N-]C(=O)c1ccc2c(=O)n(CCOC)c(=O)[n-]c2c1

>  <Energy>  (3) 
59.57739763048363

>  <Genealogy>  (3) 
CC[NH+](CC)CC[N-]C(=O)c1ccc2c(=O)n(CCOC)c(=O)[n-]c2c1 (protonated)
CC[NH+](CC)CC[N-]C(=O)c1ccc2c(=O)n(CCOC)c(=O)[n-]c2c1 (3D coordinates assigned)
CC[NH+](CC)CC[N-]C(=O)c1ccc2c(=O)n(CCOC)c(=O)[n-]c2c1 (optimized conformer: 59.57739763048363 kcal/mol)

>  <smiles>  (3) 
CCN(CC)CCNC(=O)c1ccc2c(=O)n(CCOC)c(=O)[nH]c2c1

>  <score_type>  (3) 
oracle

>  <origin>  (3) 
adg

>  <m_score__min__energy>  (3) 
-8.2899999999999991

>  <m_primary>  (3) 
energy

$$$$
3:0
     RDKit          3D

 44 47  0  0  0  0  0  0  0  0999 V2000
   61.7850   30.8790   47.1450 C   0  0  0  0  0  0  0  0  0  0  0  0
   62.3710   32.0850   47.7220 N   0  0  0  0  0  0  0  0  0  0  0  0
   63.6270   32.1790   48.2040 C   0  0  0  0  0  0  0  0  0  0  0  0
   63.8330   33.4320   48.7450 C   0  0  0  0  0  0  0  0  0  0  0  0
   62.6540   34.1330   48.5820 C   0  0  0  0  0  0  0  0  0  0  0  0
   61.7780   33.2830   47.9330 C   0  0  0  0  0  0  0  0  0  0  0  0
   60.3940   33.6470   47.5670 C   0  0  0  0  0  0  0  0  0  0  0  0
   59.6760   34.2150   48.4360 O   0  0  0  0  0  0  0  0  0  0  0  0
   59.9200   33.5060   46.2060 N   0  0  2  0  0  0  0  0  0  0  0  0
   59.4970   34.8180   45.6310 C   0  0  0  0  0  0  0  0  0  0  0  0
   58.1540   34.5930   44.8780 C   0  0  0  0  0  0  0  0  0  0  0  0
   58.1350   33.0900   44.7870 C   0  0  2  0  0  0  0  0  0  0  0  0
   56.9320   32.1820   44.7100 C   0  0  0  0  0  0  0  0  0  0  0  0
   57.3900   30.9100   45.3420 N   0  0  0  0  0  0  0  0  0  0  0  0
   57.5420   29.8210   44.3620 C   0  0  0  0  0  0  0  0  0  0  0  0
   57.4540   28.4930   45.0490 C   0  0  0  0  0  0  0  0  0  0  0  0
   58.5100   27.6430   45.3070 C   0  0  0  0  0  0  0  0  0  0  0  0
   57.9570   26.5480   45.9360 C   0  0  0  0  0  0  0  0  0  0  0  0
   56.6030   26.7980   46.0210 C   0  0  0  0  0  0  0  0  0  0  0  0
   56.3330   27.9650   45.4830 O   0  0  0  0  0  0  0  0  0  0  0  0
   58.6890   31.2170   46.0050 C   0  0  0  0  0  0  0  0  0  0  0  0
   58.6870   32.7230   46.1100 C   0  0  1  0  0  0  0  0  0  0  0  0
   61.4586   30.2073   47.9527 H   0  0  0  0  0  0  0  0  0  0  0  0
   60.9196   31.1529   46.5237 H   0  0  0  0  0  0  0  0  0  0  0  0
   62.5352   30.3679   46.5237 H   0  0  0  0  0  0  0  0  0  0  0  0
   64.3771   31.3751   48.1709 H   0  0  0  0  0  0  0  0  0  0  0  0
   64.7568   33.8008   49.2148 H   0  0  0  0  0  0  0  0  0  0  0  0
   62.4519   35.1649   48.9051 H   0  0  0  0  0  0  0  0  0  0  0  0
   60.6600   33.0870   45.5960 H   0  0  0  0  0  0  0  0  0  0  0  0
   59.3559   35.5526   46.4375 H   0  0  0  0  0  0  0  0  0  0  0  0
   60.2646   35.2030   44.9435 H   0  0  0  0  0  0  0  0  0  0  0  0
   57.2977   34.9753   45.4529 H   0  0  0  0  0  0  0  0  0  0  0  0
   58.0803   35.1105   43.9101 H   0  0  0  0  0  0  0  0  0  0  0  0
   58.5859   32.9273   43.7969 H   0  0  0  0  0  0  0  0  0  0  0  0
   56.0844   32.6100   45.2653 H   0  0  0  0  0  0  0  0  0  0  0  0
   56.5806   32.0361   43.6779 H   0  0  0  0  0  0  0  0  0  0  0  0
   56.7430   29.8948   43.6095 H   0  0  0  0  0  0  0  0  0  0  0  0
   58.5245   29.9097   43.8754 H   0  0  0  0  0  0  0  0  0  0  0  0
   59.5701   27.8051   45.0622 H   0  0  0  0  0  0  0  0  0  0  0  0
   58.4882   25.6551   46.2972 H   0  0  0  0  0  0  0  0  0  0  0  0
   55.8615   26.1218   46.4715 H   0  0  0  0  0  0  0  0  0  0  0  0
   58.7404   30.7539   47.0015 H   0  0  0  0  0  0  0  0  0  0  0  0
   59.5549   30.8285   45.4489 H   0  0  0  0  0  0  0  0  0  0  0  0
   58.1875   32.9508   47.0632 H   0  0  0  0  0  0  0  0  0  0  0  0
  1  2  1  0
  2  3  1  0
  3  4  2  0
  4  5  1  0
  5  6  2  0
  6  7  1  0
  7  8  2  0
  7  9  1  0
  9 10  1  0
 10 11  1  0
 11 12  1  0
 12 13  1  0
 13 14  1  0
 14 15  1  0
 15 16  1  0
 16 17  2  0
 17 18  1  0
 18 19  2  0
 19 20  1  0
 14 21  1  0
 21 22  1  0
  6  2  1  0
 22  9  1  0
 22 12  1  0
 20 16  1  0
  1 23  1  0
  1 24  1  0
  1 25  1  0
  3 26  1  0
  4 27  1  0
  5 28  1  0
  9 29  1  6
 10 30  1  0
 10 31  1  0
 11 32  1  0
 11 33  1  0
 12 34  1  6
 13 35  1  0
 13 36  1  0
 15 37  1  0
 15 38  1  0
 17 39  1  0
 18 40  1  0
 19 41  1  0
 21 42  1  0
 21 43  1  0
 22 44  1  1
M  CHG  1   9   1
M  END
>  <UniqueID>  (4) 
4

>  <SMILES>  (4) 
Cn1cccc1C(=O)[N@@H+]1CC[C@@H]2CN(Cc3ccco3)CC21

>  <Energy>  (4) 
138.85616791056924

>  <Genealogy>  (4) 
Cn1cccc1C(=O)[NH+]1CCC2CN(Cc3ccco3)CC21 (protonated)
Cn1cccc1C(=O)[N@@H+]1CC[C@@H]2CN(Cc3ccco3)CC21 (chirality)
Cn1cccc1C(=O)[N@@H+]1CC[C@@H]2CN(Cc3ccco3)CC21 (3D coordinates assigned)
Cn1cccc1C(=O)[N@@H+]1CC[C@@H]2CN(Cc3ccco3)CC21 (nonaromatic ring conformer: 138.85616791056924 kcal/mol)

>  <smiles>  (4) 
Cn1cccc1C(=O)N1CCC2CN(Cc3ccco3)CC21

>  <score_type>  (4) 
oracle

>  <origin>  (4) 
adg

>  <m_score__min__energy>  (4) 
-6.1600000000000001

>  <m_primary>  (4) 
energy

$$$$
4:0
     RDKit          3D

 69 72  0  0  0  0  0  0  0  0999 V2000
   57.0110   20.9360   42.9150 C   0  0  0  0  0  0  0  0  0  0  0  0
   56.1890   22.0900   43.0710 O   0  0  0  0  0  0  0  0  0  0  0  0
   56.4800   23.1580   43.9330 C   0  0  0  0  0  0  0  0  0  0  0  0
   56.1170   23.0450   45.2800 C   0  0  0  0  0  0  0  0  0  0  0  0
   56.3890   24.0820   46.1770 C   0  0  0  0  0  0  0  0  0  0  0  0
   57.0270   25.2430   45.7340 C   0  0  0  0  0  0  0  0  0  0  0  0
   57.3960   25.3760   44.3880 C   0  0  0  0  0  0  0  0  0  0  0  0
   58.0990   26.6240   43.9170 C   0  0  0  0  0  0  0  0  0  0  0  0
   58.4960   27.4650   45.0680 N   0  0  0  0  0  0  0  0  0  0  0  0
   57.3590   28.2300   45.6160 C   0  0  0  0  0  0  0  0  0  0  0  0
   56.9380   29.4090   44.7050 C   0  0  0  0  0  0  0  0  0  0  0  0
   58.0700   29.9770   43.9320 N   0  0  0  0  0  0  0  0  0  0  0  0
   57.8210   31.3710   43.6160 C   0  0  0  0  0  0  0  0  0  0  0  0
   58.3440   31.8840   42.6350 O   0  0  0  0  0  0  0  0  0  0  0  0
   57.0070   32.2200   44.5610 C   0  0  0  0  0  0  0  0  0  0  0  0
   57.3720   33.6450   44.4500 N   0  0  0  0  0  0  0  0  0  0  0  0
   58.1030   34.2180   45.6020 C   0  0  0  0  0  0  0  0  0  0  0  0
   57.7960   33.4700   46.9240 C   0  0  0  0  0  0  0  0  0  0  0  0
   58.7810   32.3380   47.2980 C   0  0  0  0  0  0  0  0  0  0  0  0
   60.0290   32.3530   46.5100 N   0  0  0  0  0  0  0  0  0  0  0  0
   61.0510   31.4810   47.1180 C   0  0  0  0  0  0  0  0  0  0  0  0
   61.9800   32.3000   47.9710 C   0  0  0  0  0  0  0  0  0  0  0  0
   63.2990   32.5560   47.5600 C   0  0  0  0  0  0  0  0  0  0  0  0
   64.1540   33.3070   48.3730 C   0  0  0  0  0  0  0  0  0  0  0  0
   63.7030   33.8020   49.6000 C   0  0  0  0  0  0  0  0  0  0  0  0
   62.3940   33.5460   50.0170 C   0  0  0  0  0  0  0  0  0  0  0  0
   61.5340   32.8000   49.2050 C   0  0  0  0  0  0  0  0  0  0  0  0
   60.5220   33.7270   46.3230 C   0  0  0  0  0  0  0  0  0  0  0  0
   59.6160   34.4530   45.3260 C   0  0  0  0  0  0  0  0  0  0  0  0
   59.3500   29.8130   44.6430 C   0  0  0  0  0  0  0  0  0  0  0  0
   59.6860   28.3150   44.7980 C   0  0  0  0  0  0  0  0  0  0  0  0
   57.1220   24.3300   43.4900 C   0  0  0  0  0  0  0  0  0  0  0  0
   57.2883   20.5467   43.9057 H   0  0  0  0  0  0  0  0  0  0  0  0
   56.4580   20.1643   42.3594 H   0  0  0  0  0  0  0  0  0  0  0  0
   57.9211   21.2064   42.3594 H   0  0  0  0  0  0  0  0  0  0  0  0
   55.6140   22.1335   45.6353 H   0  0  0  0  0  0  0  0  0  0  0  0
   56.1001   23.9836   47.2338 H   0  0  0  0  0  0  0  0  0  0  0  0
   57.2407   26.0558   46.4437 H   0  0  0  0  0  0  0  0  0  0  0  0
   58.9977   26.3403   43.3498 H   0  0  0  0  0  0  0  0  0  0  0  0
   57.4114   27.1985   43.2789 H   0  0  0  0  0  0  0  0  0  0  0  0
   56.5013   27.5511   45.7320 H   0  0  0  0  0  0  0  0  0  0  0  0
   57.6767   28.6524   46.5807 H   0  0  0  0  0  0  0  0  0  0  0  0
   56.1754   29.0507   43.9979 H   0  0  0  0  0  0  0  0  0  0  0  0
   56.5513   30.2065   45.3565 H   0  0  0  0  0  0  0  0  0  0  0  0
   58.1420   29.4580   43.0270 H   0  0  0  0  0  0  0  0  0  0  0  0
   55.9403   32.1033   44.3192 H   0  0  0  0  0  0  0  0  0  0  0  0
   57.2111   31.8882   45.5897 H   0  0  0  0  0  0  0  0  0  0  0  0
   57.9640   33.7720   43.5940 H   0  0  0  0  0  0  0  0  0  0  0  0
   57.7068   35.2338   45.7473 H   0  0  0  0  0  0  0  0  0  0  0  0
   57.8038   34.2080   47.7396 H   0  0  0  0  0  0  0  0  0  0  0  0
   56.8217   32.9822   46.7733 H   0  0  0  0  0  0  0  0  0  0  0  0
   59.0408   32.4411   48.3619 H   0  0  0  0  0  0  0  0  0  0  0  0
   58.2746   31.3862   47.0800 H   0  0  0  0  0  0  0  0  0  0  0  0
   60.5578   30.7209   47.7417 H   0  0  0  0  0  0  0  0  0  0  0  0
   61.6289   30.9899   46.3212 H   0  0  0  0  0  0  0  0  0  0  0  0
   63.6598   32.1651   46.5972 H   0  0  0  0  0  0  0  0  0  0  0  0
   65.1847   33.5088   48.0458 H   0  0  0  0  0  0  0  0  0  0  0  0
   64.3780   34.3926   50.2369 H   0  0  0  0  0  0  0  0  0  0  0  0
   62.0399   33.9315   50.9845 H   0  0  0  0  0  0  0  0  0  0  0  0
   60.5030   32.6039   49.5346 H   0  0  0  0  0  0  0  0  0  0  0  0
   60.5087   34.2574   47.2866 H   0  0  0  0  0  0  0  0  0  0  0  0
   61.5519   33.7018   45.9374 H   0  0  0  0  0  0  0  0  0  0  0  0
   59.8206   35.5321   45.3868 H   0  0  0  0  0  0  0  0  0  0  0  0
   59.8359   34.0509   44.3260 H   0  0  0  0  0  0  0  0  0  0  0  0
   60.1491   30.3072   44.0711 H   0  0  0  0  0  0  0  0  0  0  0  0
   59.2664   30.2670   45.6414 H   0  0  0  0  0  0  0  0  0  0  0  0
   60.1592   27.9663   43.8682 H   0  0  0  0  0  0  0  0  0  0  0  0
   60.3542   28.2215   45.6667 H   0  0  0  0  0  0  0  0  0  0  0  0
   57.4113   24.4279   42.4333 H   0  0  0  0  0  0  0  0  0  0  0  0
  1  2  1  0
  2  3  1  0
  3  4  2  0
  4  5  1  0
  5  6  2  0
  6  7  1  0
  7  8  1  0
  8  9  1  0
  9 10  1  0
 10 11  1  0
 11 12  1  0
 12 13  1  0
 13 14  2  0
 13 15  1  0
 15 16  1  0
 16 17  1  0
 17 18  1  0
 18 19  1  0
 19 20  1  0
 20 21  1  0
 21 22  1  0
 22 23  2  0
 23 24  1  0
 24 25  2  0
 25 26  1  0
 26 27  2  0
 20 28  1  0
 28 29  1  0
 12 30  1  0
 30 31  1  0
  7 32  2  0
 32  3  1  0
 31  9  1  0
 29 17  1  0
 27 22  1  0
  1 33  1  0
  1 34  1  0
  1 35  1  0
  4 36  1  0
  5 37  1  0
  6 38  1  0
  8 39  1  0
  8 40  1  0
 10 41  1  0
 10 42  1  0
 11 43  1  0
 11 44  1  0
 12 45  1  0
 15 46  1  0
 15 47  1  0
 16 48  1  0
 17 49  1  0
 18 50  1  0
 18 51  1  0
 19 52  1  0
 19 53  1  0
 21 54  1  0
 21 55  1  0
 23 56  1  0
 24 57  1  0
 25 58  1  0
 26 59  1  0
 27 60  1  0
 28 61  1  0
 28 62  1  0
 29 63  1  0
 29 64  1  0
 30 65  1  0
 30 66  1  0
 31 67  1  0
 31 68  1  0
 32 69  1  0
M  CHG  1  12   1
M  END
>  <UniqueID>  (5) 
5

>  <SMILES>  (5) 
COc1cccc(CN2CC[NH+](C(=O)CNC3CCN(Cc4ccccc4)CC3)CC2)c1

>  <Energy>  (5) 
91.99618160497367

>  <Genealogy>  (5) 
COc1cccc(CN2CC[NH+](C(=O)CNC3CCN(Cc4ccccc4)CC3)CC2)c1 (protonated)
COc1cccc(CN2CC[NH+](C(=O)CNC3CCN(Cc4ccccc4)CC3)CC2)c1 (3D coordinates assigned)
COc1cccc(CN2CC[NH+](C(=O)CNC3CCN(Cc4ccccc4)CC3)CC2)c1 (nonaromatic ring conformer: 91.99618160497367 kcal/mol)

>  <smiles>  (5) 
COc1cccc(CN2CCN(C(=O)CNC3CCN(Cc4ccccc4)CC3)CC2)c1

>  <score_type>  (5) 
oracle

>  <origin>  (5) 
adg

>  <m_score__min__energy>  (5) 
-8.9800000000000004

>  <m_primary>  (5) 
energy

$$$$
5:0
     RDKit          3D

 34 35  0  0  0  0  0  0  0  0999 V2000
   55.1370   29.3290   44.8640 O   0  0  0  0  0  0  0  0  0  0  0  0
   56.2290   29.8310   44.4870 C   0  0  0  0  0  0  0  0  0  0  0  0
   57.2560   28.9370   43.8390 C   0  0  0  0  0  0  0  0  0  0  0  0
   58.1590   28.3010   44.8670 C   0  0  0  0  0  0  0  0  0  0  0  0
   59.5470   28.5230   44.8230 C   0  0  0  0  0  0  0  0  0  0  0  0
   60.3890   27.9340   45.7710 C   0  0  0  0  0  0  0  0  0  0  0  0
   59.8560   27.1090   46.7650 C   0  0  0  0  0  0  0  0  0  0  0  0
   58.4810   26.8680   46.8080 C   0  0  0  0  0  0  0  0  0  0  0  0
   57.6320   27.4540   45.8630 C   0  0  0  0  0  0  0  0  0  0  0  0
   56.3030   27.1870   45.9140 F   0  0  0  0  0  0  0  0  0  0  0  0
   56.4630   31.2250   44.7310 N   0  0  0  0  0  0  0  0  0  0  0  0
   57.5780   32.0080   44.2100 C   0  0  0  0  0  0  0  0  0  0  0  0
   57.4510   33.4720   44.6350 C   0  0  0  0  0  0  0  0  0  0  0  0
   58.2450   33.7250   45.8880 C   0  0  0  0  0  0  0  0  0  0  0  0
   59.2280   34.7290   45.9100 C   0  0  0  0  0  0  0  0  0  0  0  0
   59.9920   34.9410   47.0620 C   0  0  0  0  0  0  0  0  0  0  0  0
   59.7880   34.1470   48.1940 C   0  0  0  0  0  0  0  0  0  0  0  0
   60.5310   34.3520   49.3090 F   0  0  0  0  0  0  0  0  0  0  0  0
   58.8200   33.1370   48.1750 C   0  0  0  0  0  0  0  0  0  0  0  0
   58.0550   32.9230   47.0250 C   0  0  0  0  0  0  0  0  0  0  0  0
   56.7382   28.1448   43.2784 H   0  0  0  0  0  0  0  0  0  0  0  0
   57.8743   29.5503   43.1670 H   0  0  0  0  0  0  0  0  0  0  0  0
   59.9730   29.1644   44.0374 H   0  0  0  0  0  0  0  0  0  0  0  0
   61.4725   28.1202   45.7344 H   0  0  0  0  0  0  0  0  0  0  0  0
   60.5189   26.6497   47.5130 H   0  0  0  0  0  0  0  0  0  0  0  0
   58.0637   26.2146   47.5883 H   0  0  0  0  0  0  0  0  0  0  0  0
   58.5213   31.5985   44.6005 H   0  0  0  0  0  0  0  0  0  0  0  0
   57.5667   31.9548   43.1113 H   0  0  0  0  0  0  0  0  0  0  0  0
   57.8301   34.1176   43.8291 H   0  0  0  0  0  0  0  0  0  0  0  0
   56.3922   33.6959   44.8321 H   0  0  0  0  0  0  0  0  0  0  0  0
   59.3971   35.3502   45.0181 H   0  0  0  0  0  0  0  0  0  0  0  0
   60.7545   35.7337   47.0772 H   0  0  0  0  0  0  0  0  0  0  0  0
   58.6609   32.5111   49.0655 H   0  0  0  0  0  0  0  0  0  0  0  0
   57.3006   32.1226   47.0105 H   0  0  0  0  0  0  0  0  0  0  0  0
  1  2  2  0
  2  3  1  0
  3  4  1  0
  4  5  2  0
  5  6  1  0
  6  7  2  0
  7  8  1  0
  8  9  2  0
  9 10  1  0
  2 11  1  0
 11 12  1  0
 12 13  1  0
 13 14  1  0
 14 15  2  0
 15 16  1  0
 16 17  2  0
 17 18  1  0
 17 19  1  0
 19 20  2  0
  9  4  1  0
 20 14  1  0
  3 21  1  0
  3 22  1  0
  5 23  1  0
  6 24  1  0
  7 25  1  0
  8 26  1  0
 12 27  1  0
 12 28  1  0
 13 29  1  0
 13 30  1  0
 15 31  1  0
 16 32  1  0
 19 33  1  0
 20 34  1  0
M  CHG  1  11  -1
M  END
>  <UniqueID>  (6) 
6

>  <SMILES>  (6) 
O=C(Cc1ccccc1F)[N-]CCc1ccc(F)cc1

>  <Energy>  (6) 
29.76235678876032

>  <Genealogy>  (6) 
O=C(Cc1ccccc1F)[N-]CCc1ccc(F)cc1 (protonated)
O=C(Cc1ccccc1F)[N-]CCc1ccc(F)cc1 (3D coordinates assigned)
O=C(Cc1ccccc1F)[N-]CCc1ccc(F)cc1 (optimized conformer: 29.76235678876032 kcal/mol)

>  <smiles>  (6) 
O=C(Cc1ccccc1F)NCCc1ccc(F)cc1

>  <score_type>  (6) 
oracle

>  <origin>  (6) 
adg

>  <m_score__min__energy>  (6) 
-9.2200000000000006

>  <m_primary>  (6) 
energy

$$$$
6:0
     RDKit          3D

 53 54  0  0  0  0  0  0  0  0999 V2000
   64.1290   33.1190   48.4170 C   0  0  0  0  0  0  0  0  0  0  0  0
   63.4580   32.6710   47.1250 C   0  0  0  0  0  0  0  0  0  0  0  0
   62.2640   33.4800   46.8660 C   0  0  0  0  0  0  0  0  0  0  0  0
   61.2790   34.1470   46.6670 C   0  0  0  0  0  0  0  0  0  0  0  0
   60.0720   34.9480   46.4430 C   0  0  0  0  0  0  0  0  0  0  0  0
   59.4530   34.5740   45.2130 O   0  0  0  0  0  0  0  0  0  0  0  0
   58.7550   33.3760   44.9880 C   0  0  0  0  0  0  0  0  0  0  0  0
   58.3010   32.5510   46.0360 C   0  0  0  0  0  0  0  0  0  0  0  0
   57.6170   31.3650   45.7540 C   0  0  0  0  0  0  0  0  0  0  0  0
   57.3900   30.9770   44.4260 C   0  0  0  0  0  0  0  0  0  0  0  0
   56.5200   29.4830   44.0710 S   0  0  0  0  0  0  0  0  0  0  0  0
   56.2820   29.4060   42.5870 O   0  0  0  0  0  0  0  0  0  0  0  0
   55.1740   29.5610   44.7370 O   0  0  0  0  0  0  0  0  0  0  0  0
   57.3270   28.0130   44.6030 N   0  0  1  0  0  0  0  0  0  0  0  0
   58.5470   27.7160   43.8260 C   0  0  0  0  0  0  0  0  0  0  0  0
   59.7600   28.6120   44.1230 C   0  0  0  0  0  0  0  0  0  0  0  0
   59.7920   29.4000   45.7670 S   0  0  0  0  0  0  0  0  0  0  0  0
   58.8860   28.1220   46.7020 C   0  0  0  0  0  0  0  0  0  0  0  0
   58.7440   28.6670   48.1400 C   0  0  0  0  0  0  0  0  0  0  0  0
   59.7610   26.8440   46.7900 C   0  0  0  0  0  0  0  0  0  0  0  0
   57.4450   27.8980   46.0950 C   0  0  2  0  0  0  0  0  0  0  0  0
   56.8440   26.5950   46.5870 C   0  0  0  0  0  0  0  0  0  0  0  0
   57.4130   25.9520   47.5130 O   0  0  0  0  0  0  0  0  0  0  0  0
   55.6800   26.0980   45.9930 O   0  0  0  0  0  0  0  0  0  0  0  0
   55.5750   24.7660   45.5080 C   0  0  0  0  0  0  0  0  0  0  0  0
   57.8210   31.8090   43.3830 C   0  0  0  0  0  0  0  0  0  0  0  0
   58.5020   32.9970   43.6650 C   0  0  0  0  0  0  0  0  0  0  0  0
   63.5589   32.7384   49.2773 H   0  0  0  0  0  0  0  0  0  0  0  0
   65.1550   32.7241   48.4533 H   0  0  0  0  0  0  0  0  0  0  0  0
   64.1576   34.2180   48.4533 H   0  0  0  0  0  0  0  0  0  0  0  0
   64.1641   32.7881   46.2897 H   0  0  0  0  0  0  0  0  0  0  0  0
   63.1617   31.6161   47.2224 H   0  0  0  0  0  0  0  0  0  0  0  0
   59.3665   34.7809   47.2702 H   0  0  0  0  0  0  0  0  0  0  0  0
   60.3507   36.0111   46.3956 H   0  0  0  0  0  0  0  0  0  0  0  0
   58.4856   32.8415   47.0808 H   0  0  0  0  0  0  0  0  0  0  0  0
   57.2550   30.7329   46.5782 H   0  0  0  0  0  0  0  0  0  0  0  0
   56.6470   27.2830   44.2830 H   0  0  0  0  0  0  0  0  0  0  0  0
   58.8360   26.6754   44.0350 H   0  0  0  0  0  0  0  0  0  0  0  0
   58.2859   27.9033   42.7740 H   0  0  0  0  0  0  0  0  0  0  0  0
   60.6652   27.9942   44.0288 H   0  0  0  0  0  0  0  0  0  0  0  0
   59.7005   29.4390   43.4001 H   0  0  0  0  0  0  0  0  0  0  0  0
   58.9538   27.8619   48.8596 H   0  0  0  0  0  0  0  0  0  0  0  0
   59.4577   29.4901   48.2923 H   0  0  0  0  0  0  0  0  0  0  0  0
   57.7194   29.0372   48.2923 H   0  0  0  0  0  0  0  0  0  0  0  0
   59.9346   26.5905   47.8462 H   0  0  0  0  0  0  0  0  0  0  0  0
   59.2433   26.0103   46.2931 H   0  0  0  0  0  0  0  0  0  0  0  0
   60.7255   27.0251   46.2931 H   0  0  0  0  0  0  0  0  0  0  0  0
   56.8628   28.7505   46.4748 H   0  0  0  0  0  0  0  0  0  0  0  0
   55.5201   24.0696   46.3577 H   0  0  0  0  0  0  0  0  0  0  0  0
   54.6665   24.6694   44.8955 H   0  0  0  0  0  0  0  0  0  0  0  0
   56.4572   24.5282   44.8955 H   0  0  0  0  0  0  0  0  0  0  0  0
   57.6226   31.5259   42.3387 H   0  0  0  0  0  0  0  0  0  0  0  0
   58.8420   33.6395   42.8394 H   0  0  0  0  0  0  0  0  0  0  0  0
  1  2  1  0
  2  3  1  0
  3  4  3  0
  4  5  1  0
  5  6  1  0
  6  7  1  0
  7  8  2  0
  8  9  1  0
  9 10  2  0
 10 11  1  0
 11 12  2  0
 11 13  2  0
 11 14  1  0
 14 15  1  0
 15 16  1  0
 16 17  1  0
 17 18  1  0
 18 19  1  0
 18 20  1  0
 18 21  1  0
 21 22  1  0
 22 23  2  0
 22 24  1  0
 24 25  1  0
 10 26  1  0
 26 27  2  0
 27  7  1  0
 21 14  1  0
  1 28  1  0
  1 29  1  0
  1 30  1  0
  2 31  1  0
  2 32  1  0
  5 33  1  0
  5 34  1  0
  8 35  1  0
  9 36  1  0
 14 37  1  6
 15 38  1  0
 15 39  1  0
 16 40  1  0
 16 41  1  0
 19 42  1  0
 19 43  1  0
 19 44  1  0
 20 45  1  0
 20 46  1  0
 20 47  1  0
 21 48  1  1
 25 49  1  0
 25 50  1  0
 25 51  1  0
 26 52  1  0
 27 53  1  0
M  CHG  1  14   1
M  END
>  <UniqueID>  (7) 
7

>  <SMILES>  (7) 
CCC#CCOc1ccc(S(=O)(=O)[N@H+]2CCSC(C)(C)[C@@H]2C(=O)OC)cc1

>  <Energy>  (7) 
56.651567696256905

>  <Genealogy>  (7) 
CCC#CCOc1ccc(S(=O)(=O)[NH+]2CCSC(C)(C)C2C(=O)OC)cc1 (protonated)
CCC#CCOc1ccc(S(=O)(=O)[N@H+]2CCSC(C)(C)[C@@H]2C(=O)OC)cc1 (chirality)
CCC#CCOc1ccc(S(=O)(=O)[N@H+]2CCSC(C)(C)[C@@H]2C(=O)OC)cc1 (3D coordinates assigned)
CCC#CCOc1ccc(S(=O)(=O)[N@H+]2CCSC(C)(C)[C@@H]2C(=O)OC)cc1 (nonaromatic ring conformer: 56.651567696256905 kcal/mol)

>  <smiles>  (7) 
CCC#CCOc1ccc(S(=O)(=O)N2CCSC(C)(C)C2C(=O)OC)cc1

>  <score_type>  (7) 
oracle

>  <origin>  (7) 
adg

>  <m_score__min__energy>  (7) 
-7.4199999999999999

>  <m_primary>  (7) 
energy

$$$$
7:0
     RDKit          3D

 37 38  0  0  0  0  0  0  0  0999 V2000
   58.9410   34.0590   47.5750 C   0  0  0  0  0  0  0  0  0  0  0  0
   58.5520   33.5200   46.2310 C   0  0  0  0  0  0  0  0  0  0  0  0
   59.2300   33.9370   45.0780 C   0  0  0  0  0  0  0  0  0  0  0  0
   58.8590   33.4430   43.8260 C   0  0  0  0  0  0  0  0  0  0  0  0
   57.7890   32.5420   43.7030 C   0  0  0  0  0  0  0  0  0  0  0  0
   57.3970   32.0190   42.3490 C   0  0  0  0  0  0  0  0  0  0  0  0
   57.0690   32.1610   44.8520 C   0  0  0  0  0  0  0  0  0  0  0  0
   55.9880   31.2260   44.7380 N   0  0  0  0  0  0  0  0  0  0  0  0
   56.0930   29.8570   44.3250 C   0  0  0  0  0  0  0  0  0  0  0  0
   55.1460   29.0740   44.5980 O   0  0  0  0  0  0  0  0  0  0  0  0
   57.3810   29.3020   43.7540 C   0  0  0  0  0  0  0  0  0  0  0  0
   57.4810   27.8350   43.8810 N   0  0  0  0  0  0  0  0  0  0  0  0
   58.6970   27.3920   44.5910 C   0  0  0  0  0  0  0  0  0  0  0  0
   59.2430   28.4400   45.5250 C   0  0  0  0  0  0  0  0  0  0  0  0
   60.4260   29.1430   45.3320 C   0  0  0  0  0  0  0  0  0  0  0  0
   60.7650   29.9660   46.4120 C   0  0  0  0  0  0  0  0  0  0  0  0
   59.8670   29.9000   47.4680 C   0  0  0  0  0  0  0  0  0  0  0  0
   58.6550   28.8090   47.0590 S   0  0  0  0  0  0  0  0  0  0  0  0
   57.4690   32.6370   46.1120 C   0  0  0  0  0  0  0  0  0  0  0  0
   58.4921   33.4370   48.3634 H   0  0  0  0  0  0  0  0  0  0  0  0
   60.0364   34.0421   47.6738 H   0  0  0  0  0  0  0  0  0  0  0  0
   58.5799   35.0933   47.6738 H   0  0  0  0  0  0  0  0  0  0  0  0
   60.0580   34.6566   45.1595 H   0  0  0  0  0  0  0  0  0  0  0  0
   59.4093   33.7622   42.9286 H   0  0  0  0  0  0  0  0  0  0  0  0
   56.7412   31.1441   42.4696 H   0  0  0  0  0  0  0  0  0  0  0  0
   56.8628   32.8038   41.7934 H   0  0  0  0  0  0  0  0  0  0  0  0
   58.3002   31.7265   41.7934 H   0  0  0  0  0  0  0  0  0  0  0  0
   57.4347   29.5663   42.6876 H   0  0  0  0  0  0  0  0  0  0  0  0
   58.2116   29.7401   44.3269 H   0  0  0  0  0  0  0  0  0  0  0  0
   57.4680   27.3980   42.9300 H   0  0  0  0  0  0  0  0  0  0  0  0
   56.6330   27.4800   44.3810 H   0  0  0  0  0  0  0  0  0  0  0  0
   58.4543   26.4924   45.1757 H   0  0  0  0  0  0  0  0  0  0  0  0
   59.4680   27.1906   43.8327 H   0  0  0  0  0  0  0  0  0  0  0  0
   61.0359   29.0607   44.4203 H   0  0  0  0  0  0  0  0  0  0  0  0
   61.6599   30.6056   46.4228 H   0  0  0  0  0  0  0  0  0  0  0  0
   59.9362   30.4640   48.4098 H   0  0  0  0  0  0  0  0  0  0  0  0
   56.9277   32.3141   47.0135 H   0  0  0  0  0  0  0  0  0  0  0  0
  1  2  1  0
  2  3  2  0
  3  4  1  0
  4  5  2  0
  5  6  1  0
  5  7  1  0
  7  8  1  0
  8  9  1  0
  9 10  2  0
  9 11  1  0
 11 12  1  0
 12 13  1  0
 13 14  1  0
 14 15  2  0
 15 16  1  0
 16 17  2  0
 17 18  1  0
  7 19  2  0
 19  2  1  0
 18 14  1  0
  1 20  1  0
  1 21  1  0
  1 22  1  0
  3 23  1  0
  4 24  1  0
  6 25  1  0
  6 26  1  0
  6 27  1  0
 11 28  1  0
 11 29  1  0
 12 30  1  0
 12 31  1  0
 13 32  1  0
 13 33  1  0
 15 34  1  0
 16 35  1  0
 17 36  1  0
 19 37  1  0
M  CHG  2   8  -1  12   1
M  END
>  <UniqueID>  (8) 
8

>  <SMILES>  (8) 
Cc1ccc(C)c([N-]C(=O)C[NH2+]Cc2cccs2)c1

>  <Energy>  (8) 
66.29431104135148

>  <Genealogy>  (8) 
Cc1ccc(C)c([N-]C(=O)C[NH2+]Cc2cccs2)c1 (protonated)
Cc1ccc(C)c([N-]C(=O)C[NH2+]Cc2cccs2)c1 (3D coordinates assigned)
Cc1ccc(C)c([N-]C(=O)C[NH2+]Cc2cccs2)c1 (optimized conformer: 66.29431104135148 kcal/mol)

>  <smiles>  (8) 
Cc1ccc(C)c(NC(=O)CNCc2cccs2)c1

>  <score_type>  (8) 
oracle

>  <origin>  (8) 
adg

>  <m_score__min__energy>  (8) 
-7.21

>  <m_primary>  (8) 
energy

$$$$
8:0
     RDKit          3D

 47 49  0  0  1  0  0  0  0  0999 V2000
   55.9190   29.7360   43.7750 C   0  0  0  0  0  0  0  0  0  0  0  0
   56.6190   30.5020   44.8360 N   0  0  0  0  0  0  0  0  0  0  0  0
   57.6490   29.6440   45.3810 C   0  0  0  0  0  0  0  0  0  0  0  0
   57.2050   31.6700   44.3230 C   0  0  0  0  0  0  0  0  0  0  0  0
   57.0120   32.9850   44.8550 C   0  0  0  0  0  0  0  0  0  0  0  0
   57.7820   33.7770   45.5360 C   0  0  0  0  0  0  0  0  0  0  0  0
   58.9850   33.4680   46.2500 C   0  0  0  0  0  0  0  0  0  0  0  0
   59.2620   32.4420   46.9060 O   0  0  0  0  0  0  0  0  0  0  0  0
   60.0320   34.4460   46.2340 N   0  0  0  0  0  0  0  0  0  0  0  0
   61.2040   34.0720   46.9760 C   0  0  0  0  0  0  0  0  0  0  0  0
   62.4040   33.8260   46.3790 C   0  0  0  0  0  0  0  0  0  0  0  0
   63.5550   33.4610   47.0200 C   0  0  0  0  0  0  0  0  0  0  0  0
   63.5030   33.3320   48.3870 C   0  0  0  0  0  0  0  0  0  0  0  0
   64.6360   32.9670   49.0040 N   0  0  0  0  0  0  0  0  0  0  0  0
   64.6130   32.8260   50.3330 C   0  0  0  0  0  0  0  0  0  0  0  0
   63.4980   33.0420   51.0180 N   0  0  0  0  0  0  0  0  0  0  0  0
   62.3450   33.4120   50.4110 C   0  0  0  0  0  0  0  0  0  0  0  0
   61.3590   33.6010   51.1120 N   0  0  0  0  0  0  0  0  0  0  0  0
   60.1480   33.0070   51.2070 C   0  0  0  0  0  0  0  0  0  0  0  0
   59.7810   31.8630   50.4570 C   0  0  0  0  0  0  0  0  0  0  0  0
   58.5670   31.2810   50.7250 C   0  0  0  0  0  0  0  0  0  0  0  0
   57.6980   31.7750   51.6960 C   0  0  0  0  0  0  0  0  0  0  0  0
   56.0140   30.9560   52.0530 Br  0  0  0  0  0  0  0  0  0  0  0  0
   58.0450   32.8790   52.4220 C   0  0  0  0  0  0  0  0  0  0  0  0
   59.2390   33.4850   52.1890 C   0  0  0  0  0  0  0  0  0  0  0  0
   59.5990   34.5970   52.9170 F   0  0  0  0  0  0  0  0  0  0  0  0
   62.3050   33.5710   49.0490 C   0  0  0  0  0  0  0  0  0  0  0  0
   61.1700   33.9350   48.3730 C   0  0  0  0  0  0  0  0  0  0  0  0
   55.2459   28.9994   44.2380 H   0  0  0  0  0  0  0  0  0  0  0  0
   55.3331   30.4263   43.1503 H   0  0  0  0  0  0  0  0  0  0  0  0
   56.6591   29.2145   43.1503 H   0  0  0  0  0  0  0  0  0  0  0  0
   57.6099   29.6766   46.4798 H   0  0  0  0  0  0  0  0  0  0  0  0
   57.4852   28.6115   45.0387 H   0  0  0  0  0  0  0  0  0  0  0  0
   58.6349   29.9917   45.0387 H   0  0  0  0  0  0  0  0  0  0  0  0
   58.2903   31.4947   44.3597 H   0  0  0  0  0  0  0  0  0  0  0  0
   56.6665   31.7603   43.3681 H   0  0  0  0  0  0  0  0  0  0  0  0
   56.0175   33.4059   44.6458 H   0  0  0  0  0  0  0  0  0  0  0  0
   57.4678   34.8306   45.5697 H   0  0  0  0  0  0  0  0  0  0  0  0
   59.9480   35.3520   45.7250 H   0  0  0  0  0  0  0  0  0  0  0  0
   62.4506   33.9303   45.2850 H   0  0  0  0  0  0  0  0  0  0  0  0
   64.4860   33.2778   46.4634 H   0  0  0  0  0  0  0  0  0  0  0  0
   65.5280   32.7910   48.4830 H   0  0  0  0  0  0  0  0  0  0  0  0
   65.5288   32.5276   50.8644 H   0  0  0  0  0  0  0  0  0  0  0  0
   60.4479   31.4537   49.6839 H   0  0  0  0  0  0  0  0  0  0  0  0
   58.2688   30.3909   50.1516 H   0  0  0  0  0  0  0  0  0  0  0  0
   57.3632   33.2745   53.1893 H   0  0  0  0  0  0  0  0  0  0  0  0
   60.2353   34.1193   48.9230 H   0  0  0  0  0  0  0  0  0  0  0  0
  1  2  1  0
  2  3  1  0
  2  4  1  0
  4  5  1  0
  5  6  2  0
  6  7  1  0
  7  8  2  0
  7  9  1  0
  9 10  1  0
 10 11  2  0
 11 12  1  0
 12 13  2  0
 13 14  1  0
 14 15  1  0
 15 16  2  0
 16 17  1  0
 17 18  2  0
 18 19  1  0
 19 20  2  0
 20 21  1  0
 21 22  2  0
 22 23  1  0
 22 24  1  0
 24 25  2  0
 25 26  1  0
 17 27  1  0
 27 28  2  0
 28 10  1  0
 27 13  1  0
 25 19  1  0
  1 29  1  0
  1 30  1  0
  1 31  1  0
  3 32  1  0
  3 33  1  0
  3 34  1  0
  4 35  1  0
  4 36  1  0
  5 37  1  0
  6 38  1  0
  9 39  1  0
 11 40  1  0
 12 41  1  0
 14 42  1  0
 15 43  1  0
 20 44  1  0
 21 45  1  0
 24 46  1  0
 28 47  1  0
M  END
>  <smiles>  (9) 
CN(C)CC=CC(=O)Nc1ccc2[nH]cnc(=Nc3ccc(Br)cc3F)c2c1

>  <score_type>  (9) 
oracle

>  <origin>  (9) 
adg

>  <m_score__min__energy>  (9) 
-8.1300000000000008

>  <m_primary>  (9) 
energy

$$$$
9:0
     RDKit          3D

 47 50  0  0  0  0  0  0  0  0999 V2000
   59.8390   21.8930   44.8540 C   0  0  0  0  0  0  0  0  0  0  0  0
   58.6960   22.8270   45.1120 C   0  0  0  0  0  0  0  0  0  0  0  0
   57.3910   22.3830   45.1930 C   0  0  0  0  0  0  0  0  0  0  0  0
   56.3200   23.2250   45.4300 C   0  0  0  0  0  0  0  0  0  0  0  0
   54.9240   22.7750   45.5200 C   0  0  0  0  0  0  0  0  0  0  0  0
   56.6060   24.5700   45.5880 C   0  0  0  0  0  0  0  0  0  0  0  0
   55.6370   25.5210   45.8290 C   0  0  0  0  0  0  0  0  0  0  0  0
   54.4200   25.1680   45.9130 N   0  0  0  0  0  0  0  0  0  0  0  0
   55.9750   26.8150   45.9750 N   0  0  0  0  0  0  0  0  0  0  0  0
   57.2560   27.2240   45.8920 C   0  0  0  0  0  0  0  0  0  0  0  0
   57.5680   28.5890   46.0500 N   0  0  0  0  0  0  0  0  0  0  0  0
   56.9090   29.6040   45.2610 C   0  0  0  0  0  0  0  0  0  0  0  0
   58.0270   30.5330   44.7730 C   0  0  0  0  0  0  0  0  0  0  0  0
   58.5020   31.2280   45.9310 N   0  0  0  0  0  0  0  0  0  0  0  0
   58.8830   32.6040   45.9440 C   0  0  0  0  0  0  0  0  0  0  0  0
   58.5390   33.4690   44.9030 C   0  0  0  0  0  0  0  0  0  0  0  0
   58.9030   34.7990   44.9080 C   0  0  0  0  0  0  0  0  0  0  0  0
   59.6240   35.3230   45.9470 C   0  0  0  0  0  0  0  0  0  0  0  0
   60.0020   36.6280   45.9900 F   0  0  0  0  0  0  0  0  0  0  0  0
   59.9760   34.4980   46.9820 C   0  0  0  0  0  0  0  0  0  0  0  0
   59.6090   33.1690   46.9720 C   0  0  0  0  0  0  0  0  0  0  0  0
   58.6060   30.4940   47.1750 C   0  0  0  0  0  0  0  0  0  0  0  0
   58.5540   29.0020   47.0050 C   0  0  0  0  0  0  0  0  0  0  0  0
   58.2240   26.3200   45.6570 N   0  0  0  0  0  0  0  0  0  0  0  0
   57.9090   25.0200   45.5080 C   0  0  0  0  0  0  0  0  0  0  0  0
   58.9120   24.1470   45.2740 N   0  0  0  0  0  0  0  0  0  0  0  0
   60.2570   21.5515   45.8125 H   0  0  0  0  0  0  0  0  0  0  0  0
   59.4812   21.0255   44.2801 H   0  0  0  0  0  0  0  0  0  0  0  0
   60.6179   22.4164   44.2801 H   0  0  0  0  0  0  0  0  0  0  0  0
   57.1940   21.3086   45.0628 H   0  0  0  0  0  0  0  0  0  0  0  0
   54.6361   22.6822   46.5776 H   0  0  0  0  0  0  0  0  0  0  0  0
   54.2699   23.5078   45.0249 H   0  0  0  0  0  0  0  0  0  0  0  0
   54.8210   21.7981   45.0249 H   0  0  0  0  0  0  0  0  0  0  0  0
   53.9230   24.8340   46.7490 H   0  0  0  0  0  0  0  0  0  0  0  0
   56.3873   29.1483   44.4065 H   0  0  0  0  0  0  0  0  0  0  0  0
   56.1522   30.1479   45.8453 H   0  0  0  0  0  0  0  0  0  0  0  0
   58.8399   29.9464   44.3201 H   0  0  0  0  0  0  0  0  0  0  0  0
   57.6613   31.2328   44.0072 H   0  0  0  0  0  0  0  0  0  0  0  0
   57.9602   33.0776   44.0534 H   0  0  0  0  0  0  0  0  0  0  0  0
   58.6108   35.4461   44.0678 H   0  0  0  0  0  0  0  0  0  0  0  0
   60.5554   34.8984   47.8270 H   0  0  0  0  0  0  0  0  0  0  0  0
   59.9074   32.5331   47.8185 H   0  0  0  0  0  0  0  0  0  0  0  0
   59.5615   30.7555   47.6531 H   0  0  0  0  0  0  0  0  0  0  0  0
   57.7373   30.7771   47.7876 H   0  0  0  0  0  0  0  0  0  0  0  0
   59.5403   28.6516   46.6667 H   0  0  0  0  0  0  0  0  0  0  0  0
   58.2792   28.5658   47.9767 H   0  0  0  0  0  0  0  0  0  0  0  0
   59.2270   26.6240   45.5900 H   0  0  0  0  0  0  0  0  0  0  0  0
  1  2  1  0
  2  3  2  0
  3  4  1  0
  4  5  1  0
  4  6  2  0
  6  7  1  0
  7  8  2  3
  7  9  1  0
  9 10  2  0
 10 11  1  0
 11 12  1  0
 12 13  1  0
 13 14  1  0
 14 15  1  0
 15 16  2  0
 16 17  1  0
 17 18  2  0
 18 19  1  0
 18 20  1  0
 20 21  2  0
 14 22  1  0
 22 23  1  0
 10 24  1  0
 24 25  1  0
 25 26  2  0
 26  2  1  0
 25  6  1  0
 23 11  1  0
 21 15  1  0
  1 27  1  0
  1 28  1  0
  1 29  1  0
  3 30  1  0
  5 31  1  0
  5 32  1  0
  5 33  1  0
  8 34  1  0
 12 35  1  0
 12 36  1  0
 13 37  1  0
 13 38  1  0
 16 39  1  0
 17 40  1  0
 20 41  1  0
 21 42  1  0
 22 43  1  0
 22 44  1  0
 23 45  1  0
 23 46  1  0
 24 47  1  0
M  END
>  <smiles>  (10) 
Cc1cc(C)c2c(=N)nc(N3CCN(c4ccc(F)cc4)CC3)[nH]c2n1

>  <score_type>  (10) 
oracle

>  <origin>  (10) 
adg

>  <m_score__min__energy>  (10) 
-7.79

>  <m_primary>  (10) 
energy

$$$$
10:0
     RDKit          3D

 41 43  0  0  0  0  0  0  0  0999 V2000
   57.3210   24.8030   43.7350 C   0  0  0  0  0  0  0  0  0  0  0  0
   57.4170   26.1090   44.2940 O   0  0  0  0  0  0  0  0  0  0  0  0
   58.3910   26.5110   45.2220 C   0  0  0  0  0  0  0  0  0  0  0  0
   59.0320   25.5830   46.0700 C   0  0  0  0  0  0  0  0  0  0  0  0
   60.0250   26.0030   46.9570 C   0  0  0  0  0  0  0  0  0  0  0  0
   60.3930   27.3470   47.0090 C   0  0  0  0  0  0  0  0  0  0  0  0
   59.7650   28.2780   46.1810 C   0  0  0  0  0  0  0  0  0  0  0  0
   58.7540   27.8740   45.2910 C   0  0  0  0  0  0  0  0  0  0  0  0
   58.1120   28.8570   44.4570 N   0  0  0  0  0  0  0  0  0  0  0  0
   58.4560   30.1560   44.3360 C   0  0  0  0  0  0  0  0  0  0  0  0
   57.6140   30.7420   43.4090 C   0  0  0  0  0  0  0  0  0  0  0  0
   57.6610   32.1380   42.9340 C   0  0  0  0  0  0  0  0  0  0  0  0
   57.8420   32.3650   41.7090 O   0  0  0  0  0  0  0  0  0  0  0  0
   57.4450   33.2460   43.8180 N   0  0  0  0  0  0  0  0  0  0  0  0
   58.1250   33.4800   45.0580 C   0  0  0  0  0  0  0  0  0  0  0  0
   59.1510   34.4350   45.1680 C   0  0  0  0  0  0  0  0  0  0  0  0
   59.7810   34.6530   46.3970 C   0  0  0  0  0  0  0  0  0  0  0  0
   59.3800   33.9350   47.5290 C   0  0  0  0  0  0  0  0  0  0  0  0
   60.1910   34.2130   49.1040 S   0  0  0  0  0  0  0  0  0  0  0  0
   61.8430   33.7960   48.4660 C   0  0  0  0  0  0  0  0  0  0  0  0
   58.3450   32.9990   47.4280 C   0  0  0  0  0  0  0  0  0  0  0  0
   57.7150   32.7780   46.1990 C   0  0  0  0  0  0  0  0  0  0  0  0
   56.7790   29.7250   42.9780 C   0  0  0  0  0  0  0  0  0  0  0  0
   57.1080   28.5970   43.6320 N   0  0  0  0  0  0  0  0  0  0  0  0
   57.2664   24.0606   44.5449 H   0  0  0  0  0  0  0  0  0  0  0  0
   56.4155   24.7356   43.1141 H   0  0  0  0  0  0  0  0  0  0  0  0
   58.2069   24.6039   43.1141 H   0  0  0  0  0  0  0  0  0  0  0  0
   58.7473   24.5212   46.0319 H   0  0  0  0  0  0  0  0  0  0  0  0
   60.5177   25.2727   47.6157 H   0  0  0  0  0  0  0  0  0  0  0  0
   61.1802   27.6739   47.7043 H   0  0  0  0  0  0  0  0  0  0  0  0
   60.0630   29.3360   46.2247 H   0  0  0  0  0  0  0  0  0  0  0  0
   59.2667   30.6617   44.8810 H   0  0  0  0  0  0  0  0  0  0  0  0
   59.4591   35.0127   44.2841 H   0  0  0  0  0  0  0  0  0  0  0  0
   60.5935   35.3905   46.4741 H   0  0  0  0  0  0  0  0  0  0  0  0
   62.5286   33.6230   49.3087 H   0  0  0  0  0  0  0  0  0  0  0  0
   61.7798   32.8856   47.8518 H   0  0  0  0  0  0  0  0  0  0  0  0
   62.2194   34.6273   47.8518 H   0  0  0  0  0  0  0  0  0  0  0  0
   58.0260   32.4356   48.3173 H   0  0  0  0  0  0  0  0  0  0  0  0
   56.8938   32.0496   46.1280 H   0  0  0  0  0  0  0  0  0  0  0  0
   55.9811   29.8232   42.2272 H   0  0  0  0  0  0  0  0  0  0  0  0
   56.6480   27.6660   43.5160 H   0  0  0  0  0  0  0  0  0  0  0  0
  1  2  1  0
  2  3  1  0
  3  4  2  0
  4  5  1  0
  5  6  2  0
  6  7  1  0
  7  8  2  0
  8  9  1  0
  9 10  1  0
 10 11  2  0
 11 12  1  0
 12 13  2  0
 12 14  1  0
 14 15  1  0
 15 16  2  0
 16 17  1  0
 17 18  2  0
 18 19  1  0
 19 20  1  0
 18 21  1  0
 21 22  2  0
 11 23  1  0
 23 24  2  0
  8  3  1  0
 24  9  1  0
 22 15  1  0
  1 25  1  0
  1 26  1  0
  1 27  1  0
  4 28  1  0
  5 29  1  0
  6 30  1  0
  7 31  1  0
 10 32  1  0
 16 33  1  0
 17 34  1  0
 20 35  1  0
 20 36  1  0
 20 37  1  0
 21 38  1  0
 22 39  1  0
 23 40  1  0
 24 41  1  0
M  CHG  2  14  -1  24   1
M  END
>  <UniqueID>  (11) 
9

>  <SMILES>  (11) 
COc1ccccc1-n1cc(C(=O)[N-]c2ccc(SC)cc2)c[nH+]1

>  <Energy>  (11) 
79.18923234599333

>  <Genealogy>  (11) 
COc1ccccc1-n1cc(C(=O)[N-]c2ccc(SC)cc2)c[nH+]1 (protonated)
COc1ccccc1-n1cc(C(=O)[N-]c2ccc(SC)cc2)c[nH+]1 (3D coordinates assigned)
COc1ccccc1-n1cc(C(=O)[N-]c2ccc(SC)cc2)c[nH+]1 (optimized conformer: 79.18923234599333 kcal/mol)

>  <smiles>  (11) 
COc1ccccc1-n1cc(C(=O)Nc2ccc(SC)cc2)cn1

>  <score_type>  (11) 
oracle

>  <origin>  (11) 
adg

>  <m_score__min__energy>  (11) 
-7.04

>  <m_primary>  (11) 
energy

$$$$
11:0
     RDKit          3D

 35 37  0  0  0  0  0  0  0  0999 V2000
   58.9190   22.7900   45.1400 C   0  0  0  0  0  0  0  0  0  0  0  0
   58.9420   23.8610   46.0780 O   0  0  0  0  0  0  0  0  0  0  0  0
   58.5800   25.1830   45.7800 C   0  0  0  0  0  0  0  0  0  0  0  0
   58.6410   26.2170   46.7330 C   0  0  0  0  0  0  0  0  0  0  0  0
   58.2680   27.5190   46.3870 C   0  0  0  0  0  0  0  0  0  0  0  0
   57.8280   27.8120   45.0850 C   0  0  0  0  0  0  0  0  0  0  0  0
   57.4350   29.1900   44.7190 C   0  0  0  0  0  0  0  0  0  0  0  0
   56.2050   29.7030   44.9340 N   0  0  0  0  0  0  0  0  0  0  0  0
   56.2630   30.9150   44.4770 O   0  0  0  0  0  0  0  0  0  0  0  0
   57.4590   31.1490   44.0000 C   0  0  0  0  0  0  0  0  0  0  0  0
   57.8830   32.4460   43.3900 C   0  0  0  0  0  0  0  0  0  0  0  0
   57.5860   33.5540   44.2960 N   0  0  0  0  0  0  0  0  0  0  0  0
   58.2740   33.7950   45.5400 C   0  0  0  0  0  0  0  0  0  0  0  0
   59.3390   34.7090   45.5730 C   0  0  0  0  0  0  0  0  0  0  0  0
   60.0180   34.9550   46.7660 C   0  0  0  0  0  0  0  0  0  0  0  0
   59.6270   34.2860   47.9250 C   0  0  0  0  0  0  0  0  0  0  0  0
   58.5920   33.4060   47.8870 N   0  0  0  0  0  0  0  0  0  0  0  0
   57.9130   33.1480   46.7370 C   0  0  0  0  0  0  0  0  0  0  0  0
   58.2640   30.0770   44.1280 N   0  0  0  0  0  0  0  0  0  0  0  0
   57.7680   26.7780   44.1360 C   0  0  0  0  0  0  0  0  0  0  0  0
   58.1410   25.4770   44.4840 C   0  0  0  0  0  0  0  0  0  0  0  0
   58.8984   21.8312   45.6787 H   0  0  0  0  0  0  0  0  0  0  0  0
   58.0225   22.8750   44.5083 H   0  0  0  0  0  0  0  0  0  0  0  0
   59.8183   22.8364   44.5083 H   0  0  0  0  0  0  0  0  0  0  0  0
   58.9839   25.9994   47.7553 H   0  0  0  0  0  0  0  0  0  0  0  0
   58.3193   28.3199   47.1393 H   0  0  0  0  0  0  0  0  0  0  0  0
   58.9649   32.4180   43.1935 H   0  0  0  0  0  0  0  0  0  0  0  0
   57.3328   32.5957   42.4493 H   0  0  0  0  0  0  0  0  0  0  0  0
   56.8310   34.2170   44.0080 H   0  0  0  0  0  0  0  0  0  0  0  0
   59.6392   35.2334   44.6539 H   0  0  0  0  0  0  0  0  0  0  0  0
   60.8537   35.6697   46.7923 H   0  0  0  0  0  0  0  0  0  0  0  0
   60.1568   34.4706   48.8712 H   0  0  0  0  0  0  0  0  0  0  0  0
   57.0787   32.4311   46.7423 H   0  0  0  0  0  0  0  0  0  0  0  0
   57.4255   26.9936   43.1132 H   0  0  0  0  0  0  0  0  0  0  0  0
   58.0890   24.6760   43.7318 H   0  0  0  0  0  0  0  0  0  0  0  0
  1  2  1  0
  2  3  1  0
  3  4  2  0
  4  5  1  0
  5  6  2  0
  6  7  1  0
  7  8  2  0
  8  9  1  0
  9 10  1  0
 10 11  1  0
 11 12  1  0
 12 13  1  0
 13 14  2  0
 14 15  1  0
 15 16  2  0
 16 17  1  0
 17 18  2  0
 10 19  2  0
  6 20  1  0
 20 21  2  0
 21  3  1  0
 19  7  1  0
 18 13  1  0
  1 22  1  0
  1 23  1  0
  1 24  1  0
  4 25  1  0
  5 26  1  0
 11 27  1  0
 11 28  1  0
 12 29  1  0
 14 30  1  0
 15 31  1  0
 16 32  1  0
 18 33  1  0
 20 34  1  0
 21 35  1  0
M  END
>  <UniqueID>  (12) 
10

>  <SMILES>  (12) 
COc1ccc(-c2noc(CNc3cccnc3)n2)cc1

>  <Energy>  (12) 
69.63097241105531

>  <Genealogy>  (12) 
COc1ccc(-c2noc(CNc3cccnc3)n2)cc1 (3D coordinates assigned)
COc1ccc(-c2noc(CNc3cccnc3)n2)cc1 (optimized conformer: 69.63097241105531 kcal/mol)

>  <smiles>  (12) 
COc1ccc(-c2noc(CNc3cccnc3)n2)cc1

>  <score_type>  (12) 
oracle

>  <origin>  (12) 
adg

>  <m_score__min__energy>  (12) 
-7.2800000000000002

>  <m_primary>  (12) 
energy

$$$$
12:0
     RDKit          3D

 38 40  0  0  0  0  0  0  0  0999 V2000
   57.3900   21.1680   43.7460 C   0  0  0  0  0  0  0  0  0  0  0  0
   56.5870   21.8560   42.6500 C   0  0  0  0  0  0  0  0  0  0  0  0
   56.4760   23.2920   42.9370 N   0  0  0  0  0  0  0  0  0  0  0  0
   57.4060   23.7130   43.9960 C   0  0  0  0  0  0  0  0  0  0  0  0
   57.3860   25.2070   44.2110 C   0  0  0  0  0  0  0  0  0  0  0  0
   57.7720   26.0740   43.1770 C   0  0  0  0  0  0  0  0  0  0  0  0
   57.7770   27.4560   43.3800 C   0  0  0  0  0  0  0  0  0  0  0  0
   57.4060   27.9960   44.6240 C   0  0  0  0  0  0  0  0  0  0  0  0
   57.4070   29.4650   44.8340 C   0  0  0  0  0  0  0  0  0  0  0  0
   58.5290   30.0930   45.3950 C   0  0  0  0  0  0  0  0  0  0  0  0
   58.5310   31.4760   45.5820 C   0  0  0  0  0  0  0  0  0  0  0  0
   59.6370   32.1410   46.1320 C   0  0  0  0  0  0  0  0  0  0  0  0
   59.6020   33.5300   46.3010 C   0  0  0  0  0  0  0  0  0  0  0  0
   58.4680   34.2560   45.9230 C   0  0  0  0  0  0  0  0  0  0  0  0
   57.3630   33.5980   45.3730 C   0  0  0  0  0  0  0  0  0  0  0  0
   57.3880   32.2090   45.2000 C   0  0  0  0  0  0  0  0  0  0  0  0
   56.3360   31.5860   44.6800 O   0  0  0  0  0  0  0  0  0  0  0  0
   56.3000   30.2700   44.4880 C   0  0  0  0  0  0  0  0  0  0  0  0
   55.2540   29.7530   44.0130 O   0  0  0  0  0  0  0  0  0  0  0  0
   57.0190   27.1250   45.6570 C   0  0  0  0  0  0  0  0  0  0  0  0
   57.0130   25.7430   45.4540 C   0  0  0  0  0  0  0  0  0  0  0  0
   57.0166   21.4880   44.7300 H   0  0  0  0  0  0  0  0  0  0  0  0
   57.2823   20.0775   43.6498 H   0  0  0  0  0  0  0  0  0  0  0  0
   58.4511   21.4416   43.6498 H   0  0  0  0  0  0  0  0  0  0  0  0
   57.0938   21.7154   41.6839 H   0  0  0  0  0  0  0  0  0  0  0  0
   55.5795   21.4163   42.6094 H   0  0  0  0  0  0  0  0  0  0  0  0
   56.6860   23.8300   42.0620 H   0  0  0  0  0  0  0  0  0  0  0  0
   57.1218   23.2160   44.9353 H   0  0  0  0  0  0  0  0  0  0  0  0
   58.4225   23.4299   43.6852 H   0  0  0  0  0  0  0  0  0  0  0  0
   58.0721   25.6631   42.2018 H   0  0  0  0  0  0  0  0  0  0  0  0
   58.0735   28.1270   42.5603 H   0  0  0  0  0  0  0  0  0  0  0  0
   59.4058   29.4963   45.6870 H   0  0  0  0  0  0  0  0  0  0  0  0
   60.5300   31.5719   46.4299 H   0  0  0  0  0  0  0  0  0  0  0  0
   60.4688   34.0520   46.7323 H   0  0  0  0  0  0  0  0  0  0  0  0
   58.4450   35.3474   46.0586 H   0  0  0  0  0  0  0  0  0  0  0  0
   56.4733   34.1726   45.0760 H   0  0  0  0  0  0  0  0  0  0  0  0
   56.7186   27.5347   46.6326 H   0  0  0  0  0  0  0  0  0  0  0  0
   56.7145   25.0711   46.2722 H   0  0  0  0  0  0  0  0  0  0  0  0
  1  2  1  0
  2  3  1  0
  3  4  1  0
  4  5  1  0
  5  6  2  0
  6  7  1  0
  7  8  2  0
  8  9  1  0
  9 10  2  0
 10 11  1  0
 11 12  2  0
 12 13  1  0
 13 14  2  0
 14 15  1  0
 15 16  2  0
 16 17  1  0
 17 18  1  0
 18 19  2  0
  8 20  1  0
 20 21  2  0
 21  5  1  0
 18  9  1  0
 16 11  1  0
  1 22  1  0
  1 23  1  0
  1 24  1  0
  2 25  1  0
  2 26  1  0
  3 27  1  0
  4 28  1  0
  4 29  1  0
  6 30  1  0
  7 31  1  0
 10 32  1  0
 12 33  1  0
 13 34  1  0
 14 35  1  0
 15 36  1  0
 20 37  1  0
 21 38  1  0
M  END
>  <UniqueID>  (13) 
11

>  <SMILES>  (13) 
CCNCc1ccc(-c2cc3ccccc3oc2=O)cc1

>  <Energy>  (13) 
47.68143940898708

>  <Genealogy>  (13) 
CCNCc1ccc(-c2cc3ccccc3oc2=O)cc1 (3D coordinates assigned)
CCNCc1ccc(-c2cc3ccccc3oc2=O)cc1 (optimized conformer: 47.68143940898708 kcal/mol)

>  <smiles>  (13) 
CCNCc1ccc(-c2cc3ccccc3oc2=O)cc1

>  <score_type>  (13) 
oracle

>  <origin>  (13) 
adg

>  <m_score__min__energy>  (13) 
-7.9500000000000002

>  <m_primary>  (13) 
energy

$$$$
13:0
     RDKit          3D

 35 37  0  0  0  0  0  0  0  0999 V2000
   57.4440   32.3670   40.7880 C   0  0  0  0  0  0  0  0  0  0  0  0
   57.8240   31.9100   42.1920 C   0  0  0  0  0  0  0  0  0  0  0  0
   56.6620   31.5480   42.9340 O   0  0  0  0  0  0  0  0  0  0  0  0
   56.7070   30.8700   44.1560 C   0  0  0  0  0  0  0  0  0  0  0  0
   55.7560   30.1180   44.5030 O   0  0  0  0  0  0  0  0  0  0  0  0
   57.8740   31.0360   45.0460 C   0  0  0  0  0  0  0  0  0  0  0  0
   58.5850   30.0290   45.7110 C   0  0  0  0  0  0  0  0  0  0  0  0
   58.4330   28.5640   45.5790 C   0  0  0  0  0  0  0  0  0  0  0  0
   58.5150   27.7420   46.7160 C   0  0  0  0  0  0  0  0  0  0  0  0
   58.3940   26.3540   46.5940 C   0  0  0  0  0  0  0  0  0  0  0  0
   58.2030   25.7760   45.3370 C   0  0  0  0  0  0  0  0  0  0  0  0
   58.1390   26.5830   44.1990 C   0  0  0  0  0  0  0  0  0  0  0  0
   58.2590   27.9710   44.3160 C   0  0  0  0  0  0  0  0  0  0  0  0
   59.5350   30.6570   46.5070 C   0  0  0  0  0  0  0  0  0  0  0  0
   59.4340   31.9860   46.3450 N   0  0  0  0  0  0  0  0  0  0  0  0
   60.1640   32.9650   46.9410 C   0  0  0  0  0  0  0  0  0  0  0  0
   59.8620   34.2990   46.6400 C   0  0  0  0  0  0  0  0  0  0  0  0
   58.8170   34.5870   45.7430 C   0  0  0  0  0  0  0  0  0  0  0  0
   58.0860   33.5480   45.1490 C   0  0  0  0  0  0  0  0  0  0  0  0
   58.4390   32.2320   45.4710 C   0  0  0  0  0  0  0  0  0  0  0  0
   56.7420   33.2112   40.8546 H   0  0  0  0  0  0  0  0  0  0  0  0
   58.3485   32.6840   40.2482 H   0  0  0  0  0  0  0  0  0  0  0  0
   56.9673   31.5355   40.2482 H   0  0  0  0  0  0  0  0  0  0  0  0
   58.4927   31.0395   42.1201 H   0  0  0  0  0  0  0  0  0  0  0  0
   58.3310   32.7380   42.7091 H   0  0  0  0  0  0  0  0  0  0  0  0
   58.6751   28.1925   47.7067 H   0  0  0  0  0  0  0  0  0  0  0  0
   58.4493   25.7169   47.4890 H   0  0  0  0  0  0  0  0  0  0  0  0
   58.1029   24.6846   45.2433 H   0  0  0  0  0  0  0  0  0  0  0  0
   57.9940   26.1259   43.2091 H   0  0  0  0  0  0  0  0  0  0  0  0
   58.2171   28.6020   43.4160 H   0  0  0  0  0  0  0  0  0  0  0  0
   60.2545   30.1471   47.1645 H   0  0  0  0  0  0  0  0  0  0  0  0
   60.9731   32.7156   47.6433 H   0  0  0  0  0  0  0  0  0  0  0  0
   60.4373   35.1152   47.1013 H   0  0  0  0  0  0  0  0  0  0  0  0
   58.5720   35.6329   45.5063 H   0  0  0  0  0  0  0  0  0  0  0  0
   57.2616   33.7602   44.4523 H   0  0  0  0  0  0  0  0  0  0  0  0
  1  2  1  0
  2  3  1  0
  3  4  1  0
  4  5  2  0
  4  6  1  0
  6  7  1  0
  7  8  1  0
  8  9  2  0
  9 10  1  0
 10 11  2  0
 11 12  1  0
 12 13  2  0
  7 14  2  0
 14 15  1  0
 15 16  1  0
 16 17  2  0
 17 18  1  0
 18 19  2  0
 19 20  1  0
 20  6  2  0
 13  8  1  0
 20 15  1  0
  1 21  1  0
  1 22  1  0
  1 23  1  0
  2 24  1  0
  2 25  1  0
  9 26  1  0
 10 27  1  0
 11 28  1  0
 12 29  1  0
 13 30  1  0
 14 31  1  0
 16 32  1  0
 17 33  1  0
 18 34  1  0
 19 35  1  0
M  END
>  <UniqueID>  (14) 
12

>  <SMILES>  (14) 
CCOC(=O)c1c(-c2ccccc2)cn2ccccc12

>  <Energy>  (14) 
71.9115601430602

>  <Genealogy>  (14) 
CCOC(=O)c1c(-c2ccccc2)cn2ccccc12 (3D coordinates assigned)
CCOC(=O)c1c(-c2ccccc2)cn2ccccc12 (optimized conformer: 71.9115601430602 kcal/mol)

>  <smiles>  (14) 
CCOC(=O)c1c(-c2ccccc2)cn2ccccc12

>  <score_type>  (14) 
oracle

>  <origin>  (14) 
adg

>  <m_score__min__energy>  (14) 
-7.2000000000000002

>  <m_primary>  (14) 
energy

$$$$
14:0
     RDKit          3D

 34 35  0  0  0  0  0  0  0  0999 V2000
   57.3080   32.3390   40.7470 C   0  0  0  0  0  0  0  0  0  0  0  0
   58.1130   32.3430   42.0410 C   0  0  0  0  0  0  0  0  0  0  0  0
   57.6320   31.2920   42.9450 N   0  0  0  0  0  0  0  0  0  0  0  0
   56.5580   30.3830   42.5330 C   0  0  0  0  0  0  0  0  0  0  0  0
   55.8870   29.7650   43.7540 C   0  0  0  0  0  0  0  0  0  0  0  0
   58.2800   31.0920   44.2120 C   0  0  0  0  0  0  0  0  0  0  0  0
   58.9970   29.9520   44.4630 N   0  0  0  0  0  0  0  0  0  0  0  0
   59.6110   29.7470   45.6780 C   0  0  0  0  0  0  0  0  0  0  0  0
   60.3750   28.4860   45.9270 C   0  0  0  0  0  0  0  0  0  0  0  0
   59.5010   30.6790   46.6740 N   0  0  0  0  0  0  0  0  0  0  0  0
   58.7960   31.8060   46.4200 C   0  0  0  0  0  0  0  0  0  0  0  0
   58.1870   32.0320   45.2310 C   0  0  0  0  0  0  0  0  0  0  0  0
   57.5190   33.2310   45.3830 C   0  0  0  0  0  0  0  0  0  0  0  0
   57.7450   33.6870   46.6410 N   0  0  0  0  0  0  0  0  0  0  0  0
   58.5370   32.8170   47.2620 N   0  0  0  0  0  0  0  0  0  0  0  0
   58.9330   32.9180   48.6610 C   0  0  0  0  0  0  0  0  0  0  0  0
   56.2337   32.3337   40.9835 H   0  0  0  0  0  0  0  0  0  0  0  0
   57.5501   33.2384   40.1618 H   0  0  0  0  0  0  0  0  0  0  0  0
   57.5591   31.4421   40.1618 H   0  0  0  0  0  0  0  0  0  0  0  0
   59.1733   32.1644   41.8090 H   0  0  0  0  0  0  0  0  0  0  0  0
   57.9934   33.3195   42.5330 H   0  0  0  0  0  0  0  0  0  0  0  0
   55.8102   30.9446   41.9539 H   0  0  0  0  0  0  0  0  0  0  0  0
   56.9876   29.5793   41.9170 H   0  0  0  0  0  0  0  0  0  0  0  0
   56.3367   30.1792   44.6685 H   0  0  0  0  0  0  0  0  0  0  0  0
   54.8116   29.9955   43.7374 H   0  0  0  0  0  0  0  0  0  0  0  0
   56.0285   28.6743   43.7374 H   0  0  0  0  0  0  0  0  0  0  0  0
   59.0880   29.2300   43.7120 H   0  0  0  0  0  0  0  0  0  0  0  0
   60.4729   28.3245   47.0107 H   0  0  0  0  0  0  0  0  0  0  0  0
   59.8389   27.6375   45.4768 H   0  0  0  0  0  0  0  0  0  0  0  0
   61.3753   28.5683   45.4768 H   0  0  0  0  0  0  0  0  0  0  0  0
   56.9087   33.7306   44.6162 H   0  0  0  0  0  0  0  0  0  0  0  0
   58.0680   32.6974   49.3038 H   0  0  0  0  0  0  0  0  0  0  0  0
   59.7369   32.1961   48.8676 H   0  0  0  0  0  0  0  0  0  0  0  0
   59.2930   33.9367   48.8676 H   0  0  0  0  0  0  0  0  0  0  0  0
  1  2  1  0
  2  3  1  0
  3  4  1  0
  4  5  1  0
  3  6  1  0
  6  7  2  0
  7  8  1  0
  8  9  1  0
  8 10  2  0
 10 11  1  0
 11 12  2  0
 12 13  1  0
 13 14  2  0
 14 15  1  0
 15 16  1  0
 12  6  1  0
 15 11  1  0
  1 17  1  0
  1 18  1  0
  1 19  1  0
  2 20  1  0
  2 21  1  0
  4 22  1  0
  4 23  1  0
  5 24  1  0
  5 25  1  0
  5 26  1  0
  7 27  1  0
  9 28  1  0
  9 29  1  0
  9 30  1  0
 13 31  1  0
 16 32  1  0
 16 33  1  0
 16 34  1  0
M  CHG  1   7   1
M  END
>  <UniqueID>  (15) 
13

>  <SMILES>  (15) 
CCN(CC)c1[nH+]c(C)nc2c1cnn2C

>  <Energy>  (15) 
69.98376092027328

>  <Genealogy>  (15) 
CCN(CC)c1[nH+]c(C)nc2c1cnn2C (protonated)
CCN(CC)c1[nH+]c(C)nc2c1cnn2C (3D coordinates assigned)
CCN(CC)c1[nH+]c(C)nc2c1cnn2C (optimized conformer: 69.98376092027328 kcal/mol)

>  <smiles>  (15) 
CCN(CC)c1nc(C)nc2c1cnn2C

>  <score_type>  (15) 
oracle

>  <origin>  (15) 
adg

>  <m_score__min__energy>  (15) 
-3.8500000000000001

>  <m_primary>  (15) 
energy

$$$$
15:0
     RDKit          3D

 28 30  0  0  0  0  0  0  0  0999 V2000
   56.2610   30.0950   42.4050 N   0  0  0  0  0  0  0  0  0  0  0  0
   56.9290   30.5540   43.2310 C   0  0  0  0  0  0  0  0  0  0  0  0
   57.7600   31.1240   44.2590 C   0  0  0  0  0  0  0  0  0  0  0  0
   58.5690   30.2990   45.0450 C   0  0  0  0  0  0  0  0  0  0  0  0
   59.3760   30.8510   46.0430 C   0  0  0  0  0  0  0  0  0  0  0  0
   59.3920   32.2430   46.2790 C   0  0  0  0  0  0  0  0  0  0  0  0
   60.2720   32.7960   47.3580 C   0  0  0  0  0  0  0  0  0  0  0  0
   59.7920   33.6460   48.3800 C   0  0  0  0  0  0  0  0  0  0  0  0
   60.6670   34.1250   49.3570 C   0  0  0  0  0  0  0  0  0  0  0  0
   62.0170   33.7650   49.3230 C   0  0  0  0  0  0  0  0  0  0  0  0
   62.9270   34.2240   50.2820 C   0  0  0  0  0  0  0  0  0  0  0  0
   64.2660   33.8350   50.2050 C   0  0  0  0  0  0  0  0  0  0  0  0
   64.6790   32.9930   49.1690 C   0  0  0  0  0  0  0  0  0  0  0  0
   63.7830   32.5530   48.2420 N   0  0  0  0  0  0  0  0  0  0  0  0
   62.4720   32.9180   48.2950 C   0  0  0  0  0  0  0  0  0  0  0  0
   61.5970   32.4650   47.3580 N   0  0  0  0  0  0  0  0  0  0  0  0
   58.5670   33.0620   45.4740 C   0  0  0  0  0  0  0  0  0  0  0  0
   57.7610   32.5040   44.4760 C   0  0  0  0  0  0  0  0  0  0  0  0
   58.5704   29.2118   44.8774 H   0  0  0  0  0  0  0  0  0  0  0  0
   60.0088   30.1909   46.6544 H   0  0  0  0  0  0  0  0  0  0  0  0
   58.7296   33.9301   48.4058 H   0  0  0  0  0  0  0  0  0  0  0  0
   60.2938   34.7857   50.1534 H   0  0  0  0  0  0  0  0  0  0  0  0
   62.5895   34.8875   51.0919 H   0  0  0  0  0  0  0  0  0  0  0  0
   64.9899   34.1886   50.9539 H   0  0  0  0  0  0  0  0  0  0  0  0
   65.7326   32.6841   49.1017 H   0  0  0  0  0  0  0  0  0  0  0  0
   64.1150   31.9240   47.4770 H   0  0  0  0  0  0  0  0  0  0  0  0
   58.5589   34.1502   45.6343 H   0  0  0  0  0  0  0  0  0  0  0  0
   57.1247   33.1553   43.8589 H   0  0  0  0  0  0  0  0  0  0  0  0
  1  2  3  0
  2  3  1  0
  3  4  2  0
  4  5  1  0
  5  6  2  0
  6  7  1  0
  7  8  2  0
  8  9  1  0
  9 10  2  0
 10 11  1  0
 11 12  2  0
 12 13  1  0
 13 14  2  0
 14 15  1  0
 15 16  2  0
  6 17  1  0
 17 18  2  0
 18  3  1  0
 16  7  1  0
 15 10  1  0
  4 19  1  0
  5 20  1  0
  8 21  1  0
  9 22  1  0
 11 23  1  0
 12 24  1  0
 13 25  1  0
 14 26  1  0
 17 27  1  0
 18 28  1  0
M  CHG  1  14   1
M  END
>  <UniqueID>  (16) 
14

>  <SMILES>  (16) 
N#Cc1ccc(-c2ccc3ccc[nH+]c3n2)cc1

>  <Energy>  (16) 
38.23934808773082

>  <Genealogy>  (16) 
N#Cc1ccc(-c2ccc3ccc[nH+]c3n2)cc1 (protonated)
N#Cc1ccc(-c2ccc3ccc[nH+]c3n2)cc1 (3D coordinates assigned)
N#Cc1ccc(-c2ccc3ccc[nH+]c3n2)cc1 (optimized conformer: 38.23934808773082 kcal/mol)

>  <smiles>  (16) 
N#Cc1ccc(-c2ccc3cccnc3n2)cc1

>  <score_type>  (16) 
oracle

>  <origin>  (16) 
adg

>  <m_score__min__energy>  (16) 
-5.1500000000000004

>  <m_primary>  (16) 
energy

$$$$
16:0
     RDKit          3D

 46 49  0  0  0  0  0  0  0  0999 V2000
   57.1030   29.9010   52.8580 C   0  0  0  0  0  0  0  0  0  0  0  0
   57.1240   30.1010   51.4480 O   0  0  0  0  0  0  0  0  0  0  0  0
   58.1900   30.6820   50.7430 C   0  0  0  0  0  0  0  0  0  0  0  0
   58.9520   29.9560   49.8090 C   0  0  0  0  0  0  0  0  0  0  0  0
   60.0160   30.5630   49.1390 C   0  0  0  0  0  0  0  0  0  0  0  0
   60.3410   31.9020   49.3890 C   0  0  0  0  0  0  0  0  0  0  0  0
   61.4860   32.5230   48.6870 C   0  0  0  0  0  0  0  0  0  0  0  0
   62.7320   32.5510   49.2000 N   0  0  0  0  0  0  0  0  0  0  0  0
   63.5140   33.1240   48.2970 N   0  0  0  0  0  0  0  0  0  0  0  0
   62.7390   33.4400   47.2420 C   0  0  0  0  0  0  0  0  0  0  0  0
   61.4580   33.0850   47.4540 N   0  0  0  0  0  0  0  0  0  0  0  0
   60.3420   33.3650   46.5910 C   0  0  0  0  0  0  0  0  0  0  0  0
   59.9880   34.6920   46.3070 C   0  0  0  0  0  0  0  0  0  0  0  0
   58.9290   34.9700   45.4400 C   0  0  0  0  0  0  0  0  0  0  0  0
   58.2120   33.9250   44.8500 C   0  0  0  0  0  0  0  0  0  0  0  0
   58.5420   32.5890   45.1330 C   0  0  0  0  0  0  0  0  0  0  0  0
   57.7950   31.4760   44.5010 C   0  0  0  0  0  0  0  0  0  0  0  0
   57.3850   31.5750   43.1590 C   0  0  0  0  0  0  0  0  0  0  0  0
   56.6740   30.5330   42.5570 C   0  0  0  0  0  0  0  0  0  0  0  0
   56.3610   29.3840   43.2860 C   0  0  0  0  0  0  0  0  0  0  0  0
   56.7570   29.2760   44.6210 C   0  0  0  0  0  0  0  0  0  0  0  0
   57.4700   30.3130   45.2320 C   0  0  0  0  0  0  0  0  0  0  0  0
   57.8070   30.1970   46.5410 F   0  0  0  0  0  0  0  0  0  0  0  0
   59.5950   32.3190   46.0240 C   0  0  0  0  0  0  0  0  0  0  0  0
   59.5550   32.6400   50.2870 C   0  0  0  0  0  0  0  0  0  0  0  0
   58.4950   32.0300   50.9860 C   0  0  0  0  0  0  0  0  0  0  0  0
   57.7300   32.7290   51.9330 O   0  0  0  0  0  0  0  0  0  0  0  0
   58.1910   33.8590   52.6660 C   0  0  0  0  0  0  0  0  0  0  0  0
   57.2048   30.8706   53.3674 H   0  0  0  0  0  0  0  0  0  0  0  0
   56.1508   29.4328   53.1478 H   0  0  0  0  0  0  0  0  0  0  0  0
   57.9372   29.2452   53.1478 H   0  0  0  0  0  0  0  0  0  0  0  0
   58.7077   28.9030   49.6053 H   0  0  0  0  0  0  0  0  0  0  0  0
   60.6030   29.9854   48.4097 H   0  0  0  0  0  0  0  0  0  0  0  0
   63.1054   33.9255   46.3255 H   0  0  0  0  0  0  0  0  0  0  0  0
   60.5475   35.5184   46.7697 H   0  0  0  0  0  0  0  0  0  0  0  0
   58.6585   36.0135   45.2209 H   0  0  0  0  0  0  0  0  0  0  0  0
   57.3850   34.1499   44.1605 H   0  0  0  0  0  0  0  0  0  0  0  0
   57.6255   32.4785   42.5795 H   0  0  0  0  0  0  0  0  0  0  0  0
   56.3602   30.6184   41.5062 H   0  0  0  0  0  0  0  0  0  0  0  0
   55.8030   28.5646   42.8093 H   0  0  0  0  0  0  0  0  0  0  0  0
   56.5071   28.3713   45.1947 H   0  0  0  0  0  0  0  0  0  0  0  0
   59.8369   31.2770   46.2802 H   0  0  0  0  0  0  0  0  0  0  0  0
   59.7690   33.7071   50.4470 H   0  0  0  0  0  0  0  0  0  0  0  0
   58.1080   33.6556   53.7438 H   0  0  0  0  0  0  0  0  0  0  0  0
   59.2422   34.0580   52.4103 H   0  0  0  0  0  0  0  0  0  0  0  0
   57.5790   34.7365   52.4103 H   0  0  0  0  0  0  0  0  0  0  0  0
  1  2  1  0
  2  3  1  0
  3  4  2  0
  4  5  1  0
  5  6  2  0
  6  7  1  0
  7  8  2  0
  8  9  1  0
  9 10  2  0
 10 11  1  0
 11 12  1  0
 12 13  2  0
 13 14  1  0
 14 15  2  0
 15 16  1  0
 16 17  1  0
 17 18  2  0
 18 19  1  0
 19 20  2  0
 20 21  1  0
 21 22  2  0
 22 23  1  0
 16 24  2  0
  6 25  1  0
 25 26  2  0
 26 27  1  0
 27 28  1  0
 26  3  1  0
 11  7  1  0
 24 12  1  0
 22 17  1  0
  1 29  1  0
  1 30  1  0
  1 31  1  0
  4 32  1  0
  5 33  1  0
 10 34  1  0
 13 35  1  0
 14 36  1  0
 15 37  1  0
 18 38  1  0
 19 39  1  0
 20 40  1  0
 21 41  1  0
 24 42  1  0
 25 43  1  0
 28 44  1  0
 28 45  1  0
 28 46  1  0
M  END
>  <UniqueID>  (17) 
15

>  <SMILES>  (17) 
COc1ccc(-c2nncn2-c2cccc(-c3ccccc3F)c2)cc1OC

>  <Energy>  (17) 
97.34614713319516

>  <Genealogy>  (17) 
COc1ccc(-c2nncn2-c2cccc(-c3ccccc3F)c2)cc1OC (3D coordinates assigned)
COc1ccc(-c2nncn2-c2cccc(-c3ccccc3F)c2)cc1OC (optimized conformer: 97.34614713319516 kcal/mol)

>  <smiles>  (17) 
COc1ccc(-c2nncn2-c2cccc(-c3ccccc3F)c2)cc1OC

>  <score_type>  (17) 
oracle

>  <origin>  (17) 
adg

>  <m_score__min__energy>  (17) 
-8.1199999999999992

>  <m_primary>  (17) 
energy

$$$$
17:0
     RDKit          3D

 51 54  0  0  0  0  0  0  0  0999 V2000
   54.3130   25.1790   45.6200 C   0  0  0  0  0  0  0  0  0  0  0  0
   55.0350   26.3440   46.0050 O   0  0  0  0  0  0  0  0  0  0  0  0
   56.4350   26.4650   45.9750 C   0  0  0  0  0  0  0  0  0  0  0  0
   57.2780   25.3630   46.2190 C   0  0  0  0  0  0  0  0  0  0  0  0
   58.6670   25.5260   46.2550 C   0  0  0  0  0  0  0  0  0  0  0  0
   59.2360   26.7920   46.0700 C   0  0  0  0  0  0  0  0  0  0  0  0
   60.7270   26.9610   46.0940 C   0  0  0  0  0  0  0  0  0  0  0  0
   58.4040   27.8870   45.7980 C   0  0  0  0  0  0  0  0  0  0  0  0
   57.0130   27.7280   45.7230 C   0  0  0  0  0  0  0  0  0  0  0  0
   56.2080   28.8840   45.4570 N   0  0  0  0  0  0  0  0  0  0  0  0
   56.6330   30.0200   44.6950 C   0  0  0  0  0  0  0  0  0  0  0  0
   55.8960   30.4970   43.7870 O   0  0  0  0  0  0  0  0  0  0  0  0
   57.9570   30.6530   44.9850 C   0  0  0  0  0  0  0  0  0  0  0  0
   57.7740   31.8750   45.8990 C   0  0  0  0  0  0  0  0  0  0  0  0
   58.9630   32.1030   46.7360 N   0  0  0  0  0  0  0  0  0  0  0  0
   59.9460   33.0960   46.3370 C   0  0  0  0  0  0  0  0  0  0  0  0
   59.8340   33.6700   45.2200 O   0  0  0  0  0  0  0  0  0  0  0  0
   61.1130   33.4480   47.1830 C   0  0  0  0  0  0  0  0  0  0  0  0
   62.3880   33.5360   46.5950 C   0  0  0  0  0  0  0  0  0  0  0  0
   63.5080   33.8390   47.3750 C   0  0  0  0  0  0  0  0  0  0  0  0
   63.3640   34.0670   48.7470 C   0  0  0  0  0  0  0  0  0  0  0  0
   62.1000   34.0020   49.3410 C   0  0  0  0  0  0  0  0  0  0  0  0
   60.9720   33.7100   48.5620 C   0  0  0  0  0  0  0  0  0  0  0  0
   59.3590   33.6730   49.3370 S   0  0  0  0  0  0  0  0  0  0  0  0
   59.3280   31.8910   49.1880 C   0  0  0  0  0  0  0  0  0  0  0  0
   59.5180   31.1170   50.2910 N   0  0  0  0  0  0  0  0  0  0  0  0
   59.4960   29.7580   50.2200 C   0  0  0  0  0  0  0  0  0  0  0  0
   59.2840   29.1230   48.9960 C   0  0  0  0  0  0  0  0  0  0  0  0
   59.1000   29.8960   47.8500 C   0  0  0  0  0  0  0  0  0  0  0  0
   59.1340   31.2960   47.9270 C   0  0  0  0  0  0  0  0  0  0  0  0
   53.9793   24.6406   46.5193 H   0  0  0  0  0  0  0  0  0  0  0  0
   53.4375   25.4713   45.0216 H   0  0  0  0  0  0  0  0  0  0  0  0
   54.9643   24.5250   45.0216 H   0  0  0  0  0  0  0  0  0  0  0  0
   56.8408   24.3669   46.3824 H   0  0  0  0  0  0  0  0  0  0  0  0
   59.3157   24.6549   46.4296 H   0  0  0  0  0  0  0  0  0  0  0  0
   61.0748   27.0004   47.1368 H   0  0  0  0  0  0  0  0  0  0  0  0
   61.2007   26.1108   45.5814 H   0  0  0  0  0  0  0  0  0  0  0  0
   60.9984   27.8957   45.5814 H   0  0  0  0  0  0  0  0  0  0  0  0
   58.8472   28.8816   45.6417 H   0  0  0  0  0  0  0  0  0  0  0  0
   58.6081   29.9204   45.4843 H   0  0  0  0  0  0  0  0  0  0  0  0
   58.4134   30.9786   44.0386 H   0  0  0  0  0  0  0  0  0  0  0  0
   57.5989   32.7646   45.2762 H   0  0  0  0  0  0  0  0  0  0  0  0
   56.9159   31.6866   46.5609 H   0  0  0  0  0  0  0  0  0  0  0  0
   62.5045   33.3653   45.5146 H   0  0  0  0  0  0  0  0  0  0  0  0
   64.5028   33.8981   46.9092 H   0  0  0  0  0  0  0  0  0  0  0  0
   64.2473   34.2981   49.3605 H   0  0  0  0  0  0  0  0  0  0  0  0
   61.9907   34.1802   50.4209 H   0  0  0  0  0  0  0  0  0  0  0  0
   59.6710   31.5710   51.2200 H   0  0  0  0  0  0  0  0  0  0  0  0
   59.6458   29.1587   51.1302 H   0  0  0  0  0  0  0  0  0  0  0  0
   59.2622   28.0249   48.9356 H   0  0  0  0  0  0  0  0  0  0  0  0
   58.9273   29.4053   46.8808 H   0  0  0  0  0  0  0  0  0  0  0  0
  1  2  1  0
  2  3  1  0
  3  4  2  0
  4  5  1  0
  5  6  2  0
  6  7  1  0
  6  8  1  0
  8  9  2  0
  9 10  1  0
 10 11  1  0
 11 12  2  0
 11 13  1  0
 13 14  1  0
 14 15  1  0
 15 16  1  0
 16 17  2  0
 16 18  1  0
 18 19  2  0
 19 20  1  0
 20 21  2  0
 21 22  1  0
 22 23  2  0
 23 24  1  0
 24 25  1  0
 25 26  2  0
 26 27  1  0
 27 28  2  0
 28 29  1  0
 29 30  2  0
  9  3  1  0
 30 15  1  0
 23 18  1  0
 30 25  1  0
  1 31  1  0
  1 32  1  0
  1 33  1  0
  4 34  1  0
  5 35  1  0
  7 36  1  0
  7 37  1  0
  7 38  1  0
  8 39  1  0
 13 40  1  0
 13 41  1  0
 14 42  1  0
 14 43  1  0
 19 44  1  0
 20 45  1  0
 21 46  1  0
 22 47  1  0
 26 48  1  0
 27 49  1  0
 28 50  1  0
 29 51  1  0
M  CHG  2  10  -1  26   1
M  END
>  <UniqueID>  (18) 
16

>  <SMILES>  (18) 
COc1ccc(C)cc1[N-]C(=O)CCN1C(=O)c2ccccc2Sc2[nH+]cccc21

>  <Energy>  (18) 
69.59983202266805

>  <Genealogy>  (18) 
COc1ccc(C)cc1[N-]C(=O)CCN1C(=O)c2ccccc2Sc2[nH+]cccc21 (protonated)
COc1ccc(C)cc1[N-]C(=O)CCN1C(=O)c2ccccc2Sc2[nH+]cccc21 (3D coordinates assigned)
COc1ccc(C)cc1[N-]C(=O)CCN1C(=O)c2ccccc2Sc2[nH+]cccc21 (nonaromatic ring conformer: 69.59983202266805 kcal/mol)

>  <smiles>  (18) 
COc1ccc(C)cc1NC(=O)CCN1C(=O)c2ccccc2Sc2ncccc21

>  <score_type>  (18) 
oracle

>  <origin>  (18) 
adg

>  <m_score__min__energy>  (18) 
-10.029999999999999

>  <m_primary>  (18) 
energy

$$$$
18:0
     RDKit          3D

 57 61  0  0  0  0  0  0  0  0999 V2000
   60.6990   26.7130   49.3920 C   0  0  0  0  0  0  0  0  0  0  0  0
   59.7940   26.9070   48.3110 O   0  0  0  0  0  0  0  0  0  0  0  0
   59.5240   28.1340   47.6840 C   0  0  0  0  0  0  0  0  0  0  0  0
   60.2150   29.3190   47.9910 C   0  0  0  0  0  0  0  0  0  0  0  0
   61.1560   29.4450   48.9000 O   0  0  0  0  0  0  0  0  0  0  0  0
   61.5400   30.6950   48.8980 C   0  0  0  0  0  0  0  0  0  0  0  0
   62.5180   31.2530   49.7180 C   0  0  0  0  0  0  0  0  0  0  0  0
   62.7920   32.6190   49.5820 C   0  0  0  0  0  0  0  0  0  0  0  0
   62.0900   33.3950   48.6400 C   0  0  0  0  0  0  0  0  0  0  0  0
   62.3630   34.7170   48.5220 F   0  0  0  0  0  0  0  0  0  0  0  0
   61.1070   32.8110   47.8190 C   0  0  0  0  0  0  0  0  0  0  0  0
   60.8430   31.4380   47.9620 C   0  0  0  0  0  0  0  0  0  0  0  0
   59.9630   30.5360   47.3470 C   0  0  0  0  0  0  0  0  0  0  0  0
   58.9930   30.6350   46.3100 C   0  0  0  0  0  0  0  0  0  0  0  0
   58.7140   31.9150   45.5450 C   0  0  0  0  0  0  0  0  0  0  0  0
   57.5050   32.6160   46.0460 N   0  0  0  0  0  0  0  0  0  0  0  0
   57.1710   33.7980   45.2350 C   0  0  0  0  0  0  0  0  0  0  0  0
   57.6980   33.0220   47.4480 C   0  0  0  0  0  0  0  0  0  0  0  0
   58.2940   29.4320   46.0080 C   0  0  0  0  0  0  0  0  0  0  0  0
   57.2900   29.1440   45.0840 C   0  0  0  0  0  0  0  0  0  0  0  0
   56.6390   30.0060   44.0950 C   0  0  0  0  0  0  0  0  0  0  0  0
   56.6780   29.7080   42.8740 O   0  0  0  0  0  0  0  0  0  0  0  0
   55.8900   31.0990   44.5170 O   0  0  0  0  0  0  0  0  0  0  0  0
   56.9580   27.8150   45.2570 C   0  0  0  0  0  0  0  0  0  0  0  0
   57.6890   27.2580   46.2480 N   0  0  0  0  0  0  0  0  0  0  0  0
   57.6110   25.8490   46.6870 C   0  0  0  0  0  0  0  0  0  0  0  0
   58.6230   24.9800   45.9130 C   0  0  0  0  0  0  0  0  0  0  0  0
   58.2130   23.4950   45.9340 C   0  0  0  0  0  0  0  0  0  0  0  0
   57.4750   23.1920   47.1030 O   0  0  0  0  0  0  0  0  0  0  0  0
   56.1880   23.7960   47.0570 C   0  0  0  0  0  0  0  0  0  0  0  0
   56.2000   25.2530   46.5390 C   0  0  0  0  0  0  0  0  0  0  0  0
   58.5270   28.2350   46.6900 C   0  0  0  0  0  0  0  0  0  0  0  0
   60.1619   26.8281   50.3450 H   0  0  0  0  0  0  0  0  0  0  0  0
   61.1291   25.7023   49.3333 H   0  0  0  0  0  0  0  0  0  0  0  0
   61.5056   27.4586   49.3333 H   0  0  0  0  0  0  0  0  0  0  0  0
   63.0596   30.6377   50.4516 H   0  0  0  0  0  0  0  0  0  0  0  0
   63.5598   33.0886   50.2144 H   0  0  0  0  0  0  0  0  0  0  0  0
   60.5579   33.4156   47.0822 H   0  0  0  0  0  0  0  0  0  0  0  0
   59.5802   32.5852   45.6480 H   0  0  0  0  0  0  0  0  0  0  0  0
   58.5374   31.6476   44.4927 H   0  0  0  0  0  0  0  0  0  0  0  0
   56.6840   31.9670   46.0100 H   0  0  0  0  0  0  0  0  0  0  0  0
   56.9324   34.6424   45.8984 H   0  0  0  0  0  0  0  0  0  0  0  0
   58.0298   34.0617   44.6002 H   0  0  0  0  0  0  0  0  0  0  0  0
   56.3012   33.5733   44.6002 H   0  0  0  0  0  0  0  0  0  0  0  0
   57.3221   32.2312   48.1138 H   0  0  0  0  0  0  0  0  0  0  0  0
   58.7692   33.1835   47.6388 H   0  0  0  0  0  0  0  0  0  0  0  0
   57.1469   33.9547   47.6388 H   0  0  0  0  0  0  0  0  0  0  0  0
   56.1992   27.2805   44.6666 H   0  0  0  0  0  0  0  0  0  0  0  0
   57.8599   25.8459   47.7585 H   0  0  0  0  0  0  0  0  0  0  0  0
   58.6680   25.3251   44.8695 H   0  0  0  0  0  0  0  0  0  0  0  0
   59.6064   25.0767   46.3963 H   0  0  0  0  0  0  0  0  0  0  0  0
   57.5935   23.2798   45.0509 H   0  0  0  0  0  0  0  0  0  0  0  0
   59.1239   22.8784   45.9234 H   0  0  0  0  0  0  0  0  0  0  0  0
   55.5475   23.1972   46.3928 H   0  0  0  0  0  0  0  0  0  0  0  0
   55.8116   23.8266   48.0901 H   0  0  0  0  0  0  0  0  0  0  0  0
   55.9079   25.2657   45.4786 H   0  0  0  0  0  0  0  0  0  0  0  0
   55.4897   25.8527   47.1271 H   0  0  0  0  0  0  0  0  0  0  0  0
  1  2  1  0
  2  3  1  0
  3  4  2  0
  4  5  1  0
  5  6  1  0
  6  7  2  0
  7  8  1  0
  8  9  2  0
  9 10  1  0
  9 11  1  0
 11 12  2  0
 12 13  1  0
 13 14  2  0
 14 15  1  0
 15 16  1  0
 16 17  1  0
 16 18  1  0
 14 19  1  0
 19 20  1  0
 20 21  1  0
 21 22  2  0
 21 23  1  0
 20 24  2  0
 24 25  1  0
 25 26  1  0
 26 27  1  0
 27 28  1  0
 28 29  1  0
 29 30  1  0
 30 31  1  0
 25 32  1  0
 32  3  1  0
 13  4  1  0
 32 19  2  0
 12  6  1  0
 31 26  1  0
  1 33  1  0
  1 34  1  0
  1 35  1  0
  7 36  1  0
  8 37  1  0
 11 38  1  0
 15 39  1  0
 15 40  1  0
 16 41  1  0
 17 42  1  0
 17 43  1  0
 17 44  1  0
 18 45  1  0
 18 46  1  0
 18 47  1  0
 24 48  1  0
 26 49  1  0
 27 50  1  0
 27 51  1  0
 28 52  1  0
 28 53  1  0
 30 54  1  0
 30 55  1  0
 31 56  1  0
 31 57  1  0
M  CHG  2  16   1  23  -1
M  END
>  <UniqueID>  (19) 
17

>  <SMILES>  (19) 
COc1c2oc3ccc(F)cc3c2c(C[NH+](C)C)c2c(C(=O)[O-])cn(C3CCOCC3)c12

>  <Energy>  (19) 
161.84071946924635

>  <Genealogy>  (19) 
COc1c2oc3ccc(F)cc3c2c(C[NH+](C)C)c2c(C(=O)[O-])cn(C3CCOCC3)c12 (protonated)
COc1c2oc3ccc(F)cc3c2c(C[NH+](C)C)c2c(C(=O)[O-])cn(C3CCOCC3)c12 (3D coordinates assigned)
COc1c2oc3ccc(F)cc3c2c(C[NH+](C)C)c2c(C(=O)[O-])cn(C3CCOCC3)c12 (nonaromatic ring conformer: 161.84071946924635 kcal/mol)

>  <smiles>  (19) 
COc1c2oc3ccc(F)cc3c2c(CN(C)C)c2c(C(=O)O)cn(C3CCOCC3)c12

>  <score_type>  (19) 
oracle

>  <origin>  (19) 
adg

>  <m_score__min__energy>  (19) 
-7.3399999999999999

>  <m_primary>  (19) 
energy

$$$$
19:0
     RDKit          3D

 35 35  0  0  0  0  0  0  0  0999 V2000
   60.7160   28.6440   44.8700 C   0  0  0  0  0  0  0  0  0  0  0  0
   59.6460   28.4860   45.9420 C   0  0  0  0  0  0  0  0  0  0  0  0
   58.5670   27.6030   45.4360 N   0  0  0  0  0  0  0  0  0  0  0  0
   57.7250   27.0300   46.5090 C   0  0  0  0  0  0  0  0  0  0  0  0
   56.8780   25.8730   45.9830 C   0  0  0  0  0  0  0  0  0  0  0  0
   57.7660   28.2290   44.3580 C   0  0  0  0  0  0  0  0  0  0  0  0
   56.7540   29.2330   44.8710 C   0  0  0  0  0  0  0  0  0  0  0  0
   55.5340   28.9250   44.8930 O   0  0  0  0  0  0  0  0  0  0  0  0
   57.1420   30.5310   45.3330 N   0  0  0  0  0  0  0  0  0  0  0  0
   56.8050   31.5960   44.7250 N   0  0  0  0  0  0  0  0  0  0  0  0
   57.7370   32.6500   44.4590 C   0  0  0  0  0  0  0  0  0  0  0  0
   58.0010   32.9290   43.2580 O   0  0  0  0  0  0  0  0  0  0  0  0
   58.3890   33.4250   45.5420 C   0  0  0  0  0  0  0  0  0  0  0  0
   59.0660   34.6250   45.2710 C   0  0  0  0  0  0  0  0  0  0  0  0
   59.6530   35.3400   46.3190 C   0  0  0  0  0  0  0  0  0  0  0  0
   59.5600   34.8830   47.5970 N   0  0  0  0  0  0  0  0  0  0  0  0
   58.8930   33.7340   47.8920 C   0  0  0  0  0  0  0  0  0  0  0  0
   58.2920   32.9890   46.8730 C   0  0  0  0  0  0  0  0  0  0  0  0
   61.6959   28.7887   45.3485 H   0  0  0  0  0  0  0  0  0  0  0  0
   60.7437   27.7402   44.2436 H   0  0  0  0  0  0  0  0  0  0  0  0
   60.4813   29.5172   44.2436 H   0  0  0  0  0  0  0  0  0  0  0  0
   60.0925   28.0402   46.8431 H   0  0  0  0  0  0  0  0  0  0  0  0
   59.2269   29.4722   46.1905 H   0  0  0  0  0  0  0  0  0  0  0  0
   58.3740   26.6620   47.3173 H   0  0  0  0  0  0  0  0  0  0  0  0
   57.0513   27.8154   46.8821 H   0  0  0  0  0  0  0  0  0  0  0  0
   56.4637   25.3070   46.8304 H   0  0  0  0  0  0  0  0  0  0  0  0
   56.0554   26.2699   45.3699 H   0  0  0  0  0  0  0  0  0  0  0  0
   57.5049   25.2088   45.3699 H   0  0  0  0  0  0  0  0  0  0  0  0
   58.4507   28.7443   43.6683 H   0  0  0  0  0  0  0  0  0  0  0  0
   57.2044   27.4250   43.8598 H   0  0  0  0  0  0  0  0  0  0  0  0
   59.1341   35.0005   44.2393 H   0  0  0  0  0  0  0  0  0  0  0  0
   60.1921   36.2757   46.1095 H   0  0  0  0  0  0  0  0  0  0  0  0
   60.0010   35.4310   48.3690 H   0  0  0  0  0  0  0  0  0  0  0  0
   58.8266   33.3906   48.9349 H   0  0  0  0  0  0  0  0  0  0  0  0
   57.7454   32.0651   47.1131 H   0  0  0  0  0  0  0  0  0  0  0  0
  1  2  1  0
  2  3  1  0
  3  4  1  0
  4  5  1  0
  3  6  1  0
  6  7  1  0
  7  8  2  0
  7  9  1  0
  9 10  2  3
 10 11  1  0
 11 12  2  0
 11 13  1  0
 13 14  2  0
 14 15  1  0
 15 16  2  0
 16 17  1  0
 17 18  2  0
 18 13  1  0
  1 19  1  0
  1 20  1  0
  1 21  1  0
  2 22  1  0
  2 23  1  0
  4 24  1  0
  4 25  1  0
  5 26  1  0
  5 27  1  0
  5 28  1  0
  6 29  1  0
  6 30  1  0
 14 31  1  0
 15 32  1  0
 16 33  1  0
 17 34  1  0
 18 35  1  0
M  CHG  1  16   1
M  END
>  <UniqueID>  (20) 
18

>  <SMILES>  (20) 
CCN(CC)CC(=O)N=NC(=O)c1cc[nH+]cc1

>  <Energy>  (20) 
36.615845234649186

>  <Genealogy>  (20) 
CCN(CC)CC(=O)N=NC(=O)c1cc[nH+]cc1 (protonated)
CCN(CC)CC(=O)N=NC(=O)c1cc[nH+]cc1 (3D coordinates assigned)
CCN(CC)CC(=O)N=NC(=O)c1cc[nH+]cc1 (optimized conformer: 36.615845234649186 kcal/mol)

>  <smiles>  (20) 
CCN(CC)CC(=O)N=NC(=O)c1ccncc1

>  <score_type>  (20) 
oracle

>  <origin>  (20) 
adg

>  <m_score__min__energy>  (20) 
-5.2800000000000002

>  <m_primary>  (20) 
energy

$$$$
20:0
     RDKit          3D

 45 47  0  0  0  0  0  0  0  0999 V2000
   55.6810   29.5810   53.0230 C   0  0  0  0  0  0  0  0  0  0  0  0
   56.9080   29.2970   52.3570 O   0  0  0  0  0  0  0  0  0  0  0  0
   57.6000   30.2110   51.5500 C   0  0  0  0  0  0  0  0  0  0  0  0
   57.4050   31.5760   51.7770 C   0  0  0  0  0  0  0  0  0  0  0  0
   58.0710   32.5260   51.0020 C   0  0  0  0  0  0  0  0  0  0  0  0
   58.9430   32.1280   49.9830 C   0  0  0  0  0  0  0  0  0  0  0  0
   59.5630   33.1200   49.2180 O   0  0  0  0  0  0  0  0  0  0  0  0
   59.1140   33.4990   47.9480 C   0  0  0  0  0  0  0  0  0  0  0  0
   59.7320   34.5580   47.2840 C   0  0  0  0  0  0  0  0  0  0  0  0
   59.2780   34.9250   46.0190 C   0  0  0  0  0  0  0  0  0  0  0  0
   58.2140   34.2270   45.4500 C   0  0  0  0  0  0  0  0  0  0  0  0
   57.6390   33.2030   46.1370 N   0  0  0  0  0  0  0  0  0  0  0  0
   58.0770   32.8520   47.3480 N   0  0  0  0  0  0  0  0  0  0  0  0
   59.1890   30.7510   49.7690 C   0  0  0  0  0  0  0  0  0  0  0  0
   60.2070   30.2650   48.7610 C   0  0  0  0  0  0  0  0  0  0  0  0
   59.8950   30.7580   47.3980 N   0  0  0  0  0  0  0  0  0  0  0  0
   61.1360   31.1930   46.7360 C   0  0  0  0  0  0  0  0  0  0  0  0
   59.2260   29.7220   46.5740 C   0  0  0  0  0  0  0  0  0  0  0  0
   58.3640   30.3550   45.5280 C   0  0  0  0  0  0  0  0  0  0  0  0
   57.0270   30.4830   45.6440 N   0  0  0  0  0  0  0  0  0  0  0  0
   56.6500   31.0250   44.5270 O   0  0  0  0  0  0  0  0  0  0  0  0
   57.6930   31.2250   43.7610 C   0  0  0  0  0  0  0  0  0  0  0  0
   57.6260   31.7960   42.3860 C   0  0  0  0  0  0  0  0  0  0  0  0
   58.8310   30.8090   44.3470 N   0  0  0  0  0  0  0  0  0  0  0  0
   58.4850   29.8030   50.5340 C   0  0  0  0  0  0  0  0  0  0  0  0
   55.8375   29.5448   54.1112 H   0  0  0  0  0  0  0  0  0  0  0  0
   55.3316   30.5838   52.7360 H   0  0  0  0  0  0  0  0  0  0  0  0
   54.9265   28.8337   52.7360 H   0  0  0  0  0  0  0  0  0  0  0  0
   56.7208   31.9042   52.5733 H   0  0  0  0  0  0  0  0  0  0  0  0
   57.9091   33.5970   51.1938 H   0  0  0  0  0  0  0  0  0  0  0  0
   60.5680   35.0972   47.7534 H   0  0  0  0  0  0  0  0  0  0  0  0
   59.7533   35.7552   45.4760 H   0  0  0  0  0  0  0  0  0  0  0  0
   57.8417   34.5022   44.4522 H   0  0  0  0  0  0  0  0  0  0  0  0
   56.8420   32.6810   45.7100 H   0  0  0  0  0  0  0  0  0  0  0  0
   61.2029   30.6286   49.0541 H   0  0  0  0  0  0  0  0  0  0  0  0
   60.1824   29.1654   48.7460 H   0  0  0  0  0  0  0  0  0  0  0  0
   61.8851   31.4556   47.4975 H   0  0  0  0  0  0  0  0  0  0  0  0
   61.5221   30.3766   46.1080 H   0  0  0  0  0  0  0  0  0  0  0  0
   60.9279   32.0718   46.1080 H   0  0  0  0  0  0  0  0  0  0  0  0
   59.9903   29.1004   46.0847 H   0  0  0  0  0  0  0  0  0  0  0  0
   58.5932   29.1038   47.2277 H   0  0  0  0  0  0  0  0  0  0  0  0
   57.4980   32.8868   42.4478 H   0  0  0  0  0  0  0  0  0  0  0  0
   58.5573   31.5660   41.8477 H   0  0  0  0  0  0  0  0  0  0  0  0
   56.7732   31.3567   41.8477 H   0  0  0  0  0  0  0  0  0  0  0  0
   58.6278   28.7304   50.3359 H   0  0  0  0  0  0  0  0  0  0  0  0
  1  2  1  0
  2  3  1  0
  3  4  2  0
  4  5  1  0
  5  6  2  0
  6  7  1  0
  7  8  1  0
  8  9  2  0
  9 10  1  0
 10 11  2  0
 11 12  1  0
 12 13  2  0
  6 14  1  0
 14 15  1  0
 15 16  1  0
 16 17  1  0
 16 18  1  0
 18 19  1  0
 19 20  2  0
 20 21  1  0
 21 22  1  0
 22 23  1  0
 22 24  2  0
 14 25  2  0
 25  3  1  0
 13  8  1  0
 24 19  1  0
  1 26  1  0
  1 27  1  0
  1 28  1  0
  4 29  1  0
  5 30  1  0
  9 31  1  0
 10 32  1  0
 11 33  1  0
 12 34  1  0
 15 35  1  0
 15 36  1  0
 17 37  1  0
 17 38  1  0
 17 39  1  0
 18 40  1  0
 18 41  1  0
 23 42  1  0
 23 43  1  0
 23 44  1  0
 25 45  1  0
M  CHG  1  12   1
M  END
>  <UniqueID>  (21) 
19

>  <SMILES>  (21) 
COc1ccc(Oc2ccc[nH+]n2)c(CN(C)Cc2noc(C)n2)c1

>  <Energy>  (21) 
83.85726096316196

>  <Genealogy>  (21) 
COc1ccc(Oc2ccc[nH+]n2)c(CN(C)Cc2noc(C)n2)c1 (protonated)
COc1ccc(Oc2ccc[nH+]n2)c(CN(C)Cc2noc(C)n2)c1 (3D coordinates assigned)
COc1ccc(Oc2ccc[nH+]n2)c(CN(C)Cc2noc(C)n2)c1 (optimized conformer: 83.85726096316196 kcal/mol)

>  <smiles>  (21) 
COc1ccc(Oc2cccnn2)c(CN(C)Cc2noc(C)n2)c1

>  <score_type>  (21) 
oracle

>  <origin>  (21) 
adg

>  <m_score__min__energy>  (21) 
-6.9800000000000004

>  <m_primary>  (21) 
energy

$$$$
21:0
     RDKit          3D

 27 29  0  0  0  0  0  0  0  0999 V2000
   59.8640   33.3550   50.8670 C   0  0  0  0  0  0  0  0  0  0  0  0
   59.4530   32.9170   49.5280 N   0  0  0  0  0  0  0  0  0  0  0  0
   58.9280   31.6540   49.3570 C   0  0  0  0  0  0  0  0  0  0  0  0
   58.5190   31.2240   48.1280 N   0  0  0  0  0  0  0  0  0  0  0  0
   58.6460   32.0650   47.0790 C   0  0  0  0  0  0  0  0  0  0  0  0
   58.2930   31.8900   45.7660 C   0  0  0  0  0  0  0  0  0  0  0  0
   57.7140   30.8140   45.1010 C   0  0  0  0  0  0  0  0  0  0  0  0
   57.4540   30.9590   43.7270 C   0  0  0  0  0  0  0  0  0  0  0  0
   56.8890   29.9320   43.0440 F   0  0  0  0  0  0  0  0  0  0  0  0
   57.7700   32.1670   43.0610 C   0  0  0  0  0  0  0  0  0  0  0  0
   57.4350   32.3400   41.3470 Cl  0  0  0  0  0  0  0  0  0  0  0  0
   58.3540   33.2410   43.7630 C   0  0  0  0  0  0  0  0  0  0  0  0
   58.6120   33.0750   45.1290 C   0  0  0  0  0  0  0  0  0  0  0  0
   59.1570   33.9680   46.0020 N   0  0  0  0  0  0  0  0  0  0  0  0
   59.5900   35.3400   45.7360 C   0  0  0  0  0  0  0  0  0  0  0  0
   59.1570   33.3280   47.2010 C   0  0  0  0  0  0  0  0  0  0  0  0
   59.5660   33.7760   48.4580 C   0  0  0  0  0  0  0  0  0  0  0  0
   60.0220   34.9420   48.6100 O   0  0  0  0  0  0  0  0  0  0  0  0
   59.3192   32.7744   51.6260 H   0  0  0  0  0  0  0  0  0  0  0  0
   60.9454   33.1949   50.9893 H   0  0  0  0  0  0  0  0  0  0  0  0
   59.6355   34.4240   50.9893 H   0  0  0  0  0  0  0  0  0  0  0  0
   58.8374   30.9828   50.2238 H   0  0  0  0  0  0  0  0  0  0  0  0
   57.4682   29.8823   45.6317 H   0  0  0  0  0  0  0  0  0  0  0  0
   58.6002   34.1833   43.2517 H   0  0  0  0  0  0  0  0  0  0  0  0
   59.7553   35.8636   46.6891 H   0  0  0  0  0  0  0  0  0  0  0  0
   60.5266   35.3236   45.1594 H   0  0  0  0  0  0  0  0  0  0  0  0
   58.8136   35.8642   45.1594 H   0  0  0  0  0  0  0  0  0  0  0  0
  1  2  1  0
  2  3  1  0
  3  4  2  0
  4  5  1  0
  5  6  1  0
  6  7  2  0
  7  8  1  0
  8  9  1  0
  8 10  2  0
 10 11  1  0
 10 12  1  0
 12 13  2  0
 13 14  1  0
 14 15  1  0
 14 16  1  0
 16 17  1  0
 17 18  2  0
 17  2  1  0
 16  5  2  0
 13  6  1  0
  1 19  1  0
  1 20  1  0
  1 21  1  0
  3 22  1  0
  7 23  1  0
 12 24  1  0
 15 25  1  0
 15 26  1  0
 15 27  1  0
M  END
>  <UniqueID>  (22) 
20

>  <SMILES>  (22) 
Cn1cnc2c3cc(F)c(Cl)cc3n(C)c2c1=O

>  <Energy>  (22) 
77.6171790446924

>  <Genealogy>  (22) 
Cn1cnc2c3cc(F)c(Cl)cc3n(C)c2c1=O (3D coordinates assigned)
Cn1cnc2c3cc(F)c(Cl)cc3n(C)c2c1=O (optimized conformer: 77.6171790446924 kcal/mol)

>  <smiles>  (22) 
Cn1cnc2c3cc(F)c(Cl)cc3n(C)c2c1=O

>  <score_type>  (22) 
oracle

>  <origin>  (22) 
adg

>  <m_score__min__energy>  (22) 
-5.9299999999999997

>  <m_primary>  (22) 
energy

$$$$
22:0
     RDKit          3D

 27 28  0  0  0  0  0  0  0  0999 V2000
   56.6820   33.6520   45.4700 O   0  0  0  0  0  0  0  0  0  0  0  0
   57.7850   33.5430   44.8640 C   0  0  0  0  0  0  0  0  0  0  0  0
   58.8650   34.5380   45.0060 C   0  0  0  0  0  0  0  0  0  0  0  0
   59.6940   34.2720   46.2180 C   0  0  0  0  0  0  0  0  0  0  0  0
   59.1110   34.4530   47.4450 C   0  0  0  0  0  0  0  0  0  0  0  0
   59.8120   34.2280   48.6260 C   0  0  0  0  0  0  0  0  0  0  0  0
   61.1410   33.8060   48.5630 C   0  0  0  0  0  0  0  0  0  0  0  0
   61.7200   33.6260   47.3210 C   0  0  0  0  0  0  0  0  0  0  0  0
   63.1320   33.1780   47.2090 C   0  0  0  0  0  0  0  0  0  0  0  0
   63.7660   33.6400   46.0940 F   0  0  0  0  0  0  0  0  0  0  0  0
   63.2190   31.8050   47.2950 F   0  0  0  0  0  0  0  0  0  0  0  0
   63.8370   33.6730   48.3010 F   0  0  0  0  0  0  0  0  0  0  0  0
   61.0000   33.8570   46.1480 C   0  0  0  0  0  0  0  0  0  0  0  0
   58.0180   32.4330   44.0110 N   0  0  0  0  0  0  0  0  0  0  0  0
   57.3250   31.3630   44.0280 C   0  0  0  0  0  0  0  0  0  0  0  0
   56.2750   31.1840   44.8680 N   0  0  0  0  0  0  0  0  0  0  0  0
   55.7840   29.9900   44.6330 N   0  0  0  0  0  0  0  0  0  0  0  0
   56.4740   29.3890   43.6740 N   0  0  0  0  0  0  0  0  0  0  0  0
   57.4140   30.2390   43.3120 N   0  0  0  0  0  0  0  0  0  0  0  0
   59.5093   34.4965   44.1154 H   0  0  0  0  0  0  0  0  0  0  0  0
   58.4077   35.5330   45.1107 H   0  0  0  0  0  0  0  0  0  0  0  0
   58.0634   34.7842   47.4977 H   0  0  0  0  0  0  0  0  0  0  0  0
   59.3235   34.3812   49.5996 H   0  0  0  0  0  0  0  0  0  0  0  0
   61.7155   33.6206   49.4826 H   0  0  0  0  0  0  0  0  0  0  0  0
   61.4786   33.7066   45.1691 H   0  0  0  0  0  0  0  0  0  0  0  0
   56.2600   28.4360   43.3270 H   0  0  0  0  0  0  0  0  0  0  0  0
   58.1110   30.0490   42.5790 H   0  0  0  0  0  0  0  0  0  0  0  0
  1  2  2  0
  2  3  1  0
  3  4  1  0
  4  5  2  0
  5  6  1  0
  6  7  2  0
  7  8  1  0
  8  9  1  0
  9 10  1  0
  9 11  1  0
  9 12  1  0
  8 13  2  0
  2 14  1  0
 14 15  2  3
 15 16  1  0
 16 17  2  0
 17 18  1  0
 18 19  1  0
 13  4  1  0
 19 15  1  0
  3 20  1  0
  3 21  1  0
  5 22  1  0
  6 23  1  0
  7 24  1  0
 13 25  1  0
 18 26  1  0
 19 27  1  0
M  END
>  <smiles>  (23) 
O=C(Cc1cccc(C(F)(F)F)c1)N=c1nn[nH][nH]1

>  <score_type>  (23) 
oracle

>  <origin>  (23) 
adg

>  <m_score__min__energy>  (23) 
-7.8899999999999997

>  <m_primary>  (23) 
energy

$$$$
23:0
     RDKit          3D

 45 47  0  0  0  0  0  0  0  0999 V2000
   60.7540   29.0495   47.4038 H   0  0  0  0  0  0  0  0  0  0  0  0
   60.0050   28.9710   46.6020 C   0  0  0  0  0  0  0  0  0  0  0  0
   59.8060   27.7500   45.9530 C   0  0  0  0  0  0  0  0  0  0  0  0
   60.7500   26.3460   46.4180 Cl  0  0  0  0  0  0  0  0  0  0  0  0
   58.8560   27.6460   44.9340 C   0  0  0  0  0  0  0  0  0  0  0  0
   58.7023   26.6827   44.4257 H   0  0  0  0  0  0  0  0  0  0  0  0
   58.0960   28.7650   44.5550 C   0  0  0  0  0  0  0  0  0  0  0  0
   58.2930   30.0060   45.2100 C   0  0  0  0  0  0  0  0  0  0  0  0
   59.2570   30.0920   46.2370 C   0  0  0  0  0  0  0  0  0  0  0  0
   59.4203   31.0492   46.7538 H   0  0  0  0  0  0  0  0  0  0  0  0
   57.5200   31.1230   44.8160 C   0  0  0  0  0  0  0  0  0  0  0  0
   57.6930   32.2720   45.4130 N   0  0  0  0  0  0  0  0  0  0  0  0
   57.3400   33.5880   44.8850 C   0  0  0  0  0  0  0  0  0  0  0  0
   56.3875   33.9171   45.3260 H   0  0  0  0  0  0  0  0  0  0  0  0
   57.2356   33.5295   43.7915 H   0  0  0  0  0  0  0  0  0  0  0  0
   58.4410   34.5900   45.2410 C   0  0  0  0  0  0  0  0  0  0  0  0
   58.0547   35.2804   46.0053 H   0  0  0  0  0  0  0  0  0  0  0  0
   58.7194   35.1194   44.3178 H   0  0  0  0  0  0  0  0  0  0  0  0
   59.7060   33.9120   45.7860 C   0  0  0  0  0  0  0  0  0  0  0  0
   60.5854   34.4600   45.4167 H   0  0  0  0  0  0  0  0  0  0  0  0
   59.6991   32.8688   45.4371 H   0  0  0  0  0  0  0  0  0  0  0  0
   59.7530   33.8860   47.3200 C   0  0  0  0  0  0  0  0  0  0  0  0
   59.1046   33.0781   47.6900 H   0  0  0  0  0  0  0  0  0  0  0  0
   59.4031   34.8544   47.7069 H   0  0  0  0  0  0  0  0  0  0  0  0
   61.1280   33.6540   47.7800 N   0  0  0  0  0  0  0  0  0  0  0  0
   61.9830   32.9170   47.0100 C   0  0  0  0  0  0  0  0  0  0  0  0
   61.6286   32.4855   46.0623 H   0  0  0  0  0  0  0  0  0  0  0  0
   63.3010   32.7070   47.4150 C   0  0  0  0  0  0  0  0  0  0  0  0
   63.9819   32.1054   46.7950 H   0  0  0  0  0  0  0  0  0  0  0  0
   63.7490   33.2650   48.6110 C   0  0  0  0  0  0  0  0  0  0  0  0
   64.9390   33.0780   48.9820 O   0  0  0  0  0  0  0  0  0  0  0  0
   62.8800   34.0330   49.3950 C   0  0  0  0  0  0  0  0  0  0  0  0
   63.3570   34.5890   50.5920 O   0  0  0  0  0  0  0  0  0  0  0  0
   63.7140   33.8350   51.7460 C   0  0  0  0  0  0  0  0  0  0  0  0
   63.4463   34.4005   52.6507 H   0  0  0  0  0  0  0  0  0  0  0  0
   63.1740   32.8767   51.7394 H   0  0  0  0  0  0  0  0  0  0  0  0
   64.7975   33.6454   51.7394 H   0  0  0  0  0  0  0  0  0  0  0  0
   61.5570   34.2190   48.9500 C   0  0  0  0  0  0  0  0  0  0  0  0
   60.8613   34.8248   49.5492 H   0  0  0  0  0  0  0  0  0  0  0  0
   56.5770   30.9610   43.7830 C   0  0  0  0  0  0  0  0  0  0  0  0
   55.9644   31.8154   43.4594 H   0  0  0  0  0  0  0  0  0  0  0  0
   56.4190   29.7190   43.1700 C   0  0  0  0  0  0  0  0  0  0  0  0
   55.6798   29.5987   42.3643 H   0  0  0  0  0  0  0  0  0  0  0  0
   57.1700   28.6560   43.5590 N   0  0  0  0  0  0  0  0  0  0  0  0
   57.0230   27.7420   43.0750 H   0  0  0  0  0  0  0  0  0  0  0  0
  1  2  1  0
  2  3  2  0
  3  4  1  0
  3  5  1  0
  5  6  1  0
  5  7  2  0
  7  8  1  0
  8  9  2  0
  9 10  1  0
  8 11  1  0
 11 12  2  0
 12 13  1  0
 13 14  1  0
 13 15  1  0
 13 16  1  0
 16 17  1  0
 16 18  1  0
 16 19  1  0
 19 20  1  0
 19 21  1  0
 19 22  1  0
 22 23  1  0
 22 24  1  0
 22 25  1  0
 25 26  1  0
 26 27  1  0
 26 28  2  0
 28 29  1  0
 28 30  1  0
 30 31  2  0
 30 32  1  0
 32 33  1  0
 33 34  1  0
 34 35  1  0
 34 36  1  0
 34 37  1  0
 32 38  2  0
 38 39  1  0
 11 40  1  0
 40 41  1  0
 40 42  2  0
 42 43  1  0
 42 44  1  0
 44 45  1  0
  9  2  1  0
 38 25  1  0
 44  7  1  0
M  END
>  <UniqueID>  (24) 
21

>  <SMILES>  (24) 
COc1cn(CCCC/N=c2\cc[nH]c3cc(Cl)ccc23)ccc1=O

>  <Energy>  (24) 
48.0390195959129

>  <Genealogy>  (24) 
COc1cn(CCCC/N=c2\cc[nH]c3cc(Cl)ccc23)ccc1=O (cis-trans isomerization)
COc1cn(CCCC/N=c2\cc[nH]c3cc(Cl)ccc23)ccc1=O (3D coordinates assigned)
COc1cn(CCCC/N=c2\cc[nH]c3cc(Cl)ccc23)ccc1=O (optimized conformer: 48.0390195959129 kcal/mol)

>  <smiles>  (24) 
COc1cn(CCCCN=c2cc[nH]c3cc(Cl)ccc23)ccc1=O

>  <score_type>  (24) 
oracle

>  <origin>  (24) 
adg

>  <m_score__min__energy>  (24) 
-8.1699999999999999

>  <m_primary>  (24) 
energy

$$$$
24:0
     RDKit          3D

 35 38  0  0  0  0  0  0  0  0999 V2000
   59.6950   34.9650   47.4350 C   0  0  0  0  0  0  0  0  0  0  0  0
   59.0480   34.0470   46.4470 C   0  0  0  0  0  0  0  0  0  0  0  0
   58.4490   34.5000   45.2750 C   0  0  0  0  0  0  0  0  0  0  0  0
   57.8020   33.1640   44.4870 S   0  0  0  0  0  0  0  0  0  0  0  0
   58.2870   32.0620   45.6690 C   0  0  0  0  0  0  0  0  0  0  0  0
   58.0310   30.6000   45.6300 C   0  0  0  0  0  0  0  0  0  0  0  0
   57.2730   30.0270   44.5940 C   0  0  0  0  0  0  0  0  0  0  0  0
   57.0360   28.6490   44.5650 C   0  0  0  0  0  0  0  0  0  0  0  0
   57.5480   27.8150   45.5730 C   0  0  0  0  0  0  0  0  0  0  0  0
   57.3170   26.3940   45.5450 N   0  0  0  0  0  0  0  0  0  0  0  0
   58.4880   25.2300   45.2840 S   0  0  0  0  0  0  0  0  0  0  0  0
   57.5180   23.8790   45.3930 C   0  0  0  0  0  0  0  0  0  0  0  0
   57.8390   22.5310   45.2750 C   0  0  0  0  0  0  0  0  0  0  0  0
   56.8030   21.5960   45.4240 C   0  0  0  0  0  0  0  0  0  0  0  0
   55.4850   22.0260   45.6850 C   0  0  0  0  0  0  0  0  0  0  0  0
   54.4950   21.1110   45.8280 F   0  0  0  0  0  0  0  0  0  0  0  0
   55.1910   23.3970   45.8010 C   0  0  0  0  0  0  0  0  0  0  0  0
   56.2290   24.3230   45.6480 C   0  0  0  0  0  0  0  0  0  0  0  0
   56.1380   25.7290   45.7350 C   0  0  0  0  0  0  0  0  0  0  0  0
   55.0590   26.3240   45.9990 O   0  0  0  0  0  0  0  0  0  0  0  0
   58.3200   28.3840   46.5960 C   0  0  0  0  0  0  0  0  0  0  0  0
   58.5570   29.7610   46.6260 C   0  0  0  0  0  0  0  0  0  0  0  0
   58.9460   32.7060   46.6630 N   0  0  0  0  0  0  0  0  0  0  0  0
   59.4590   34.6301   48.4559 H   0  0  0  0  0  0  0  0  0  0  0  0
   60.7850   34.9526   47.2879 H   0  0  0  0  0  0  0  0  0  0  0  0
   59.3168   35.9874   47.2879 H   0  0  0  0  0  0  0  0  0  0  0  0
   58.4068   35.5429   44.9277 H   0  0  0  0  0  0  0  0  0  0  0  0
   56.8629   30.6678   43.7995 H   0  0  0  0  0  0  0  0  0  0  0  0
   56.4438   28.2145   43.7461 H   0  0  0  0  0  0  0  0  0  0  0  0
   58.8707   22.2083   45.0716 H   0  0  0  0  0  0  0  0  0  0  0  0
   57.0201   20.5212   45.3367 H   0  0  0  0  0  0  0  0  0  0  0  0
   54.1648   23.7346   46.0080 H   0  0  0  0  0  0  0  0  0  0  0  0
   58.7428   27.7408   47.3819 H   0  0  0  0  0  0  0  0  0  0  0  0
   59.1615   30.1920   47.4377 H   0  0  0  0  0  0  0  0  0  0  0  0
   59.3550   32.2370   47.5010 H   0  0  0  0  0  0  0  0  0  0  0  0
  1  2  1  0
  2  3  2  0
  3  4  1  0
  4  5  1  0
  5  6  1  0
  6  7  2  0
  7  8  1  0
  8  9  2  0
  9 10  1  0
 10 11  1  0
 11 12  1  0
 12 13  2  0
 13 14  1  0
 14 15  2  0
 15 16  1  0
 15 17  1  0
 17 18  2  0
 18 19  1  0
 19 20  2  0
  9 21  1  0
 21 22  2  0
  5 23  2  0
 23  2  1  0
 22  6  1  0
 19 10  1  0
 18 12  1  0
  1 24  1  0
  1 25  1  0
  1 26  1  0
  3 27  1  0
  7 28  1  0
  8 29  1  0
 13 30  1  0
 14 31  1  0
 17 32  1  0
 21 33  1  0
 22 34  1  0
 23 35  1  0
M  CHG  1  23   1
M  END
>  <UniqueID>  (25) 
22

>  <SMILES>  (25) 
Cc1csc(-c2ccc(-n3sc4ccc(F)cc4c3=O)cc2)[nH+]1

>  <Energy>  (25) 
114.64422417577788

>  <Genealogy>  (25) 
Cc1csc(-c2ccc(-n3sc4ccc(F)cc4c3=O)cc2)[nH+]1 (protonated)
Cc1csc(-c2ccc(-n3sc4ccc(F)cc4c3=O)cc2)[nH+]1 (3D coordinates assigned)
Cc1csc(-c2ccc(-n3sc4ccc(F)cc4c3=O)cc2)[nH+]1 (optimized conformer: 114.64422417577788 kcal/mol)

>  <smiles>  (25) 
Cc1csc(-c2ccc(-n3sc4ccc(F)cc4c3=O)cc2)n1

>  <score_type>  (25) 
oracle

>  <origin>  (25) 
adg

>  <m_score__min__energy>  (25) 
-6.3200000000000003

>  <m_primary>  (25) 
energy

$$$$
25:0
     RDKit          3D

 39 41  0  0  0  0  0  0  0  0999 V2000
   55.5270   29.7530   44.1210 C   0  0  0  0  0  0  0  0  0  0  0  0
   56.8740   29.8090   43.4090 C   0  0  0  0  0  0  0  0  0  0  0  0
   57.2430   31.2470   43.0300 C   0  0  0  0  0  0  0  0  0  0  0  0
   57.8580   31.9620   44.2020 C   0  0  0  0  0  0  0  0  0  0  0  0
   58.4600   31.2320   45.2400 C   0  0  0  0  0  0  0  0  0  0  0  0
   59.0640   31.8970   46.3120 C   0  0  0  0  0  0  0  0  0  0  0  0
   59.0770   33.2990   46.3610 C   0  0  0  0  0  0  0  0  0  0  0  0
   59.7520   34.0140   47.5020 C   0  0  0  0  0  0  0  0  0  0  0  0
   61.2460   33.8570   47.3990 C   0  0  0  0  0  0  0  0  0  0  0  0
   61.8710   33.8300   46.2010 N   0  0  0  0  0  0  0  0  0  0  0  0
   63.1550   33.5660   46.3890 N   0  0  0  0  0  0  0  0  0  0  0  0
   63.2920   33.4370   47.7190 C   0  0  0  0  0  0  0  0  0  0  0  0
   64.4570   33.1500   48.3470 N   0  0  0  0  0  0  0  0  0  0  0  0
   64.4690   33.0390   49.7020 C   0  0  0  0  0  0  0  0  0  0  0  0
   63.2900   33.2310   50.4410 C   0  0  0  0  0  0  0  0  0  0  0  0
   62.0910   33.5330   49.7650 C   0  0  0  0  0  0  0  0  0  0  0  0
   60.8520   33.8060   50.5690 C   0  0  0  0  0  0  0  0  0  0  0  0
   62.1390   33.6120   48.3960 N   0  0  0  0  0  0  0  0  0  0  0  0
   58.4960   34.0280   45.3100 C   0  0  0  0  0  0  0  0  0  0  0  0
   57.8920   33.3650   44.2380 C   0  0  0  0  0  0  0  0  0  0  0  0
   55.6870   29.7597   45.2093 H   0  0  0  0  0  0  0  0  0  0  0  0
   54.9238   30.6268   43.8337 H   0  0  0  0  0  0  0  0  0  0  0  0
   54.9984   28.8321   43.8337 H   0  0  0  0  0  0  0  0  0  0  0  0
   57.6492   29.4039   44.0761 H   0  0  0  0  0  0  0  0  0  0  0  0
   56.8047   29.2134   42.4868 H   0  0  0  0  0  0  0  0  0  0  0  0
   57.9637   31.2283   42.1992 H   0  0  0  0  0  0  0  0  0  0  0  0
   56.3291   31.7801   42.7290 H   0  0  0  0  0  0  0  0  0  0  0  0
   58.4564   30.1324   45.2097 H   0  0  0  0  0  0  0  0  0  0  0  0
   59.5316   31.3173   47.1215 H   0  0  0  0  0  0  0  0  0  0  0  0
   59.4950   35.0829   47.4646 H   0  0  0  0  0  0  0  0  0  0  0  0
   59.4088   33.5798   48.4526 H   0  0  0  0  0  0  0  0  0  0  0  0
   61.4300   33.9640   45.2640 H   0  0  0  0  0  0  0  0  0  0  0  0
   65.4074   32.7974   50.2226 H   0  0  0  0  0  0  0  0  0  0  0  0
   63.3025   33.1464   51.5377 H   0  0  0  0  0  0  0  0  0  0  0  0
   61.0917   33.7532   51.6413 H   0  0  0  0  0  0  0  0  0  0  0  0
   60.4717   34.8095   50.3273 H   0  0  0  0  0  0  0  0  0  0  0  0
   60.0852   33.0553   50.3273 H   0  0  0  0  0  0  0  0  0  0  0  0
   58.5166   35.1276   45.3309 H   0  0  0  0  0  0  0  0  0  0  0  0
   57.4414   33.9450   43.4191 H   0  0  0  0  0  0  0  0  0  0  0  0
  1  2  1  0
  2  3  1  0
  3  4  1  0
  4  5  2  0
  5  6  1  0
  6  7  2  0
  7  8  1  0
  8  9  1  0
  9 10  2  0
 10 11  1  0
 11 12  2  0
 12 13  1  0
 13 14  2  0
 14 15  1  0
 15 16  2  0
 16 17  1  0
 16 18  1  0
  7 19  1  0
 19 20  2  0
 20  4  1  0
 18  9  1  0
 18 12  1  0
  1 21  1  0
  1 22  1  0
  1 23  1  0
  2 24  1  0
  2 25  1  0
  3 26  1  0
  3 27  1  0
  5 28  1  0
  6 29  1  0
  8 30  1  0
  8 31  1  0
 10 32  1  0
 14 33  1  0
 15 34  1  0
 17 35  1  0
 17 36  1  0
 17 37  1  0
 19 38  1  0
 20 39  1  0
M  CHG  1  10   1
M  END
>  <UniqueID>  (26) 
23

>  <SMILES>  (26) 
CCCc1ccc(Cc2[nH+]nc3nccc(C)n23)cc1

>  <Energy>  (26) 
81.48872812268735

>  <Genealogy>  (26) 
CCCc1ccc(Cc2[nH+]nc3nccc(C)n23)cc1 (protonated)
CCCc1ccc(Cc2[nH+]nc3nccc(C)n23)cc1 (3D coordinates assigned)
CCCc1ccc(Cc2[nH+]nc3nccc(C)n23)cc1 (optimized conformer: 81.48872812268735 kcal/mol)

>  <smiles>  (26) 
CCCc1ccc(Cc2nnc3nccc(C)n23)cc1

>  <score_type>  (26) 
oracle

>  <origin>  (26) 
adg

>  <m_score__min__energy>  (26) 
-5.9000000000000004

>  <m_primary>  (26) 
energy

$$$$
26:0
     RDKit          3D

 41 42  0  0  0  0  0  0  0  0999 V2000
   57.0140   28.3550   45.4540 C   0  0  0  0  0  0  0  0  0  0  0  0
   56.3950   29.6160   45.2230 O   0  0  0  0  0  0  0  0  0  0  0  0
   56.9820   30.6660   44.5010 C   0  0  0  0  0  0  0  0  0  0  0  0
   56.8430   30.6720   43.1080 C   0  0  0  0  0  0  0  0  0  0  0  0
   57.4020   31.6990   42.3450 C   0  0  0  0  0  0  0  0  0  0  0  0
   58.1100   32.7300   42.9670 C   0  0  0  0  0  0  0  0  0  0  0  0
   58.2740   32.7330   44.3610 C   0  0  0  0  0  0  0  0  0  0  0  0
   59.0050   33.8630   45.0340 C   0  0  0  0  0  0  0  0  0  0  0  0
   58.2970   34.2650   46.3350 C   0  0  0  0  0  0  0  0  0  0  0  0
   59.1500   35.1540   47.1410 N   0  0  0  0  0  0  0  0  0  0  0  0
   59.7210   34.4640   48.3130 C   0  0  0  0  0  0  0  0  0  0  0  0
   60.7540   33.4240   47.9190 C   0  0  0  0  0  0  0  0  0  0  0  0
   62.0480   33.8570   47.5740 C   0  0  0  0  0  0  0  0  0  0  0  0
   63.0250   32.9410   47.1840 C   0  0  0  0  0  0  0  0  0  0  0  0
   62.7290   31.5800   47.1360 C   0  0  0  0  0  0  0  0  0  0  0  0
   61.4540   31.1300   47.4800 C   0  0  0  0  0  0  0  0  0  0  0  0
   60.4520   32.0380   47.8670 C   0  0  0  0  0  0  0  0  0  0  0  0
   59.1050   31.5020   48.2780 C   0  0  0  0  0  0  0  0  0  0  0  0
   57.6980   31.7060   45.1260 C   0  0  0  0  0  0  0  0  0  0  0  0
   57.0993   28.1813   46.5368 H   0  0  0  0  0  0  0  0  0  0  0  0
   56.4043   27.5589   45.0018 H   0  0  0  0  0  0  0  0  0  0  0  0
   58.0168   28.3504   45.0018 H   0  0  0  0  0  0  0  0  0  0  0  0
   56.2894   29.8618   42.6110 H   0  0  0  0  0  0  0  0  0  0  0  0
   57.2846   31.6962   41.2513 H   0  0  0  0  0  0  0  0  0  0  0  0
   58.5403   33.5420   42.3625 H   0  0  0  0  0  0  0  0  0  0  0  0
   60.0316   33.5427   45.2651 H   0  0  0  0  0  0  0  0  0  0  0  0
   59.0203   34.7292   44.3562 H   0  0  0  0  0  0  0  0  0  0  0  0
   57.3611   34.7883   46.0895 H   0  0  0  0  0  0  0  0  0  0  0  0
   58.0859   33.3558   46.9171 H   0  0  0  0  0  0  0  0  0  0  0  0
   59.9450   35.4900   46.5480 H   0  0  0  0  0  0  0  0  0  0  0  0
   58.5940   35.9860   47.4470 H   0  0  0  0  0  0  0  0  0  0  0  0
   60.1998   35.2097   48.9646 H   0  0  0  0  0  0  0  0  0  0  0  0
   58.9013   33.9460   48.8324 H   0  0  0  0  0  0  0  0  0  0  0  0
   62.2914   34.9290   47.6123 H   0  0  0  0  0  0  0  0  0  0  0  0
   64.0313   33.2936   46.9137 H   0  0  0  0  0  0  0  0  0  0  0  0
   63.5011   30.8601   46.8267 H   0  0  0  0  0  0  0  0  0  0  0  0
   61.2300   30.0535   47.4482 H   0  0  0  0  0  0  0  0  0  0  0  0
   59.0401   31.4762   49.3758 H   0  0  0  0  0  0  0  0  0  0  0  0
   58.3138   32.1538   47.8791 H   0  0  0  0  0  0  0  0  0  0  0  0
   58.9779   30.4848   47.8791 H   0  0  0  0  0  0  0  0  0  0  0  0
   57.8065   31.7135   46.2206 H   0  0  0  0  0  0  0  0  0  0  0  0
  1  2  1  0
  2  3  1  0
  3  4  2  0
  4  5  1  0
  5  6  2  0
  6  7  1  0
  7  8  1  0
  8  9  1  0
  9 10  1  0
 10 11  1  0
 11 12  1  0
 12 13  2  0
 13 14  1  0
 14 15  2  0
 15 16  1  0
 16 17  2  0
 17 18  1  0
  7 19  2  0
 19  3  1  0
 17 12  1  0
  1 20  1  0
  1 21  1  0
  1 22  1  0
  4 23  1  0
  5 24  1  0
  6 25  1  0
  8 26  1  0
  8 27  1  0
  9 28  1  0
  9 29  1  0
 10 30  1  0
 10 31  1  0
 11 32  1  0
 11 33  1  0
 13 34  1  0
 14 35  1  0
 15 36  1  0
 16 37  1  0
 18 38  1  0
 18 39  1  0
 18 40  1  0
 19 41  1  0
M  CHG  1  10   1
M  END
>  <UniqueID>  (27) 
24

>  <SMILES>  (27) 
COc1cccc(CC[NH2+]Cc2ccccc2C)c1

>  <Energy>  (27) 
38.49319869366286

>  <Genealogy>  (27) 
COc1cccc(CC[NH2+]Cc2ccccc2C)c1 (protonated)
COc1cccc(CC[NH2+]Cc2ccccc2C)c1 (3D coordinates assigned)
COc1cccc(CC[NH2+]Cc2ccccc2C)c1 (optimized conformer: 38.49319869366286 kcal/mol)

>  <smiles>  (27) 
COc1cccc(CCNCc2ccccc2C)c1

>  <score_type>  (27) 
oracle

>  <origin>  (27) 
adg

>  <m_score__min__energy>  (27) 
-5.5

>  <m_primary>  (27) 
energy

$$$$
27:0
     RDKit          3D

 37 39  0  0  0  0  0  0  0  0999 V2000
   63.0280   33.0380   47.3190 C   0  0  0  0  0  0  0  0  0  0  0  0
   61.7000   33.0560   48.0720 C   0  0  0  0  0  0  0  0  0  0  0  0
   60.8450   34.1610   47.5930 N   0  0  0  0  0  0  0  0  0  0  0  0
   60.7580   34.1510   46.1150 C   0  0  0  0  0  0  0  0  0  0  0  0
   59.5810   35.0030   45.6190 C   0  0  0  0  0  0  0  0  0  0  0  0
   58.2820   34.5130   46.1400 N   0  0  0  0  0  0  0  0  0  0  0  0
   57.4120   33.9050   45.1090 C   0  0  0  0  0  0  0  0  0  0  0  0
   57.5930   32.4170   44.9830 C   0  0  0  0  0  0  0  0  0  0  0  0
   56.5450   31.5580   44.8660 N   0  0  0  0  0  0  0  0  0  0  0  0
   57.1530   30.3650   44.8150 C   0  0  0  0  0  0  0  0  0  0  0  0
   56.5610   29.1080   44.7010 C   0  0  0  0  0  0  0  0  0  0  0  0
   55.2150   28.9700   44.6230 F   0  0  0  0  0  0  0  0  0  0  0  0
   57.4100   27.9850   44.6740 C   0  0  0  0  0  0  0  0  0  0  0  0
   58.8120   28.1470   44.7600 C   0  0  0  0  0  0  0  0  0  0  0  0
   59.3730   29.4330   44.8740 C   0  0  0  0  0  0  0  0  0  0  0  0
   58.5020   30.5200   44.8970 C   0  0  0  0  0  0  0  0  0  0  0  0
   58.8130   31.8190   45.0050 N   0  0  0  0  0  0  0  0  0  0  0  0
   58.3860   33.6830   47.3610 C   0  0  0  0  0  0  0  0  0  0  0  0
   59.5180   34.1850   48.2680 C   0  0  0  0  0  0  0  0  0  0  0  0
   63.8584   33.0267   48.0403 H   0  0  0  0  0  0  0  0  0  0  0  0
   63.0790   32.1391   46.6871 H   0  0  0  0  0  0  0  0  0  0  0  0
   63.1034   33.9352   46.6871 H   0  0  0  0  0  0  0  0  0  0  0  0
   61.1798   32.1004   47.9102 H   0  0  0  0  0  0  0  0  0  0  0  0
   61.9020   33.2031   49.1432 H   0  0  0  0  0  0  0  0  0  0  0  0
   61.6928   34.5543   45.6984 H   0  0  0  0  0  0  0  0  0  0  0  0
   60.5995   33.1141   45.7838 H   0  0  0  0  0  0  0  0  0  0  0  0
   59.7286   36.0408   45.9523 H   0  0  0  0  0  0  0  0  0  0  0  0
   59.5532   34.9377   44.5213 H   0  0  0  0  0  0  0  0  0  0  0  0
   56.3635   34.1086   45.3720 H   0  0  0  0  0  0  0  0  0  0  0  0
   57.6898   34.3510   44.1426 H   0  0  0  0  0  0  0  0  0  0  0  0
   56.9803   26.9763   44.5855 H   0  0  0  0  0  0  0  0  0  0  0  0
   59.4674   27.2639   44.7377 H   0  0  0  0  0  0  0  0  0  0  0  0
   60.4617   29.5748   44.9426 H   0  0  0  0  0  0  0  0  0  0  0  0
   57.4349   33.7310   47.9115 H   0  0  0  0  0  0  0  0  0  0  0  0
   58.6056   32.6467   47.0646 H   0  0  0  0  0  0  0  0  0  0  0  0
   59.2951   35.2188   48.5704 H   0  0  0  0  0  0  0  0  0  0  0  0
   59.5732   33.5117   49.1361 H   0  0  0  0  0  0  0  0  0  0  0  0
  1  2  1  0
  2  3  1  0
  3  4  1  0
  4  5  1  0
  5  6  1  0
  6  7  1  0
  7  8  1  0
  8  9  2  0
  9 10  1  0
 10 11  2  0
 11 12  1  0
 11 13  1  0
 13 14  2  0
 14 15  1  0
 15 16  2  0
 16 17  1  0
  6 18  1  0
 18 19  1  0
 19  3  1  0
 17  8  1  0
 16 10  1  0
  1 20  1  0
  1 21  1  0
  1 22  1  0
  2 23  1  0
  2 24  1  0
  4 25  1  0
  4 26  1  0
  5 27  1  0
  5 28  1  0
  7 29  1  0
  7 30  1  0
 13 31  1  0
 14 32  1  0
 15 33  1  0
 18 34  1  0
 18 35  1  0
 19 36  1  0
 19 37  1  0
M  CHG  1  17  -1
M  END
>  <UniqueID>  (28) 
25

>  <SMILES>  (28) 
CCN1CCN(Cc2nc3c(F)cccc3[n-]2)CC1

>  <Energy>  (28) 
84.3769364091103

>  <Genealogy>  (28) 
CCN1CCN(Cc2nc3c(F)cccc3[n-]2)CC1 (protonated)
CCN1CCN(Cc2nc3c(F)cccc3[n-]2)CC1 (3D coordinates assigned)
CCN1CCN(Cc2nc3c(F)cccc3[n-]2)CC1 (nonaromatic ring conformer: 84.3769364091103 kcal/mol)

>  <smiles>  (28) 
CCN1CCN(Cc2nc3c(F)cccc3[nH]2)CC1

>  <score_type>  (28) 
oracle

>  <origin>  (28) 
adg

>  <m_score__min__energy>  (28) 
-8.3699999999999992

>  <m_primary>  (28) 
energy

$$$$
28:0
     RDKit          3D

 40 42  0  0  0  0  0  0  0  0999 V2000
   59.5510   33.8580   50.7730 C   0  0  0  0  0  0  0  0  0  0  0  0
   60.8380   33.7060   50.1030 N   0  0  0  0  0  0  0  0  0  0  0  0
   61.9930   33.7140   50.7520 N   0  0  0  0  0  0  0  0  0  0  0  0
   62.9780   33.5520   49.8470 C   0  0  0  0  0  0  0  0  0  0  0  0
   62.4270   33.4200   48.5850 C   0  0  0  0  0  0  0  0  0  0  0  0
   63.1690   33.2730   47.2890 C   0  0  0  0  0  0  0  0  0  0  0  0
   64.5190   33.4660   47.5060 F   0  0  0  0  0  0  0  0  0  0  0  0
   62.9720   32.0050   46.7700 F   0  0  0  0  0  0  0  0  0  0  0  0
   62.7150   34.2030   46.3720 F   0  0  0  0  0  0  0  0  0  0  0  0
   61.0610   33.5250   48.7840 C   0  0  0  0  0  0  0  0  0  0  0  0
   60.0170   33.4830   47.7390 C   0  0  0  0  0  0  0  0  0  0  0  0
   59.8810   34.5830   46.8790 C   0  0  0  0  0  0  0  0  0  0  0  0
   58.8830   34.5990   45.9030 C   0  0  0  0  0  0  0  0  0  0  0  0
   58.0120   33.5170   45.7770 C   0  0  0  0  0  0  0  0  0  0  0  0
   58.1390   32.4140   46.6230 C   0  0  0  0  0  0  0  0  0  0  0  0
   59.1390   32.3810   47.6110 C   0  0  0  0  0  0  0  0  0  0  0  0
   59.2820   31.2040   48.4320 N   0  0  0  0  0  0  0  0  0  0  0  0
   58.5820   31.1160   49.7210 C   0  0  0  0  0  0  0  0  0  0  0  0
   59.4060   30.3010   50.7290 C   0  0  0  0  0  0  0  0  0  0  0  0
   60.8400   30.5840   50.5620 N   0  0  0  0  0  0  0  0  0  0  0  0
   61.3590   30.1370   49.2500 C   0  0  0  0  0  0  0  0  0  0  0  0
   60.3070   30.2010   48.1240 C   0  0  0  0  0  0  0  0  0  0  0  0
   59.7005   33.8403   51.8626 H   0  0  0  0  0  0  0  0  0  0  0  0
   59.0964   34.8161   50.4808 H   0  0  0  0  0  0  0  0  0  0  0  0
   58.8857   33.0322   50.4808 H   0  0  0  0  0  0  0  0  0  0  0  0
   64.0536   33.5284   50.0762 H   0  0  0  0  0  0  0  0  0  0  0  0
   60.5655   35.4388   46.9744 H   0  0  0  0  0  0  0  0  0  0  0  0
   58.7835   35.4656   45.2328 H   0  0  0  0  0  0  0  0  0  0  0  0
   57.2238   33.5329   45.0098 H   0  0  0  0  0  0  0  0  0  0  0  0
   57.4505   31.5628   46.5158 H   0  0  0  0  0  0  0  0  0  0  0  0
   58.4259   32.1301   50.1176 H   0  0  0  0  0  0  0  0  0  0  0  0
   57.6150   30.6151   49.5660 H   0  0  0  0  0  0  0  0  0  0  0  0
   59.0994   30.5702   51.7505 H   0  0  0  0  0  0  0  0  0  0  0  0
   59.2294   29.2296   50.5531 H   0  0  0  0  0  0  0  0  0  0  0  0
   61.0010   31.6130   50.6680 H   0  0  0  0  0  0  0  0  0  0  0  0
   61.3710   30.0960   51.3210 H   0  0  0  0  0  0  0  0  0  0  0  0
   62.2071   30.7802   48.9725 H   0  0  0  0  0  0  0  0  0  0  0  0
   61.6561   29.0835   49.3589 H   0  0  0  0  0  0  0  0  0  0  0  0
   60.8037   30.4697   47.1800 H   0  0  0  0  0  0  0  0  0  0  0  0
   59.8243   29.2168   48.0331 H   0  0  0  0  0  0  0  0  0  0  0  0
  1  2  1  0
  2  3  1  0
  3  4  2  0
  4  5  1  0
  5  6  1  0
  6  7  1  0
  6  8  1  0
  6  9  1  0
  5 10  2  0
 10 11  1  0
 11 12  2  0
 12 13  1  0
 13 14  2  0
 14 15  1  0
 15 16  2  0
 16 17  1  0
 17 18  1  0
 18 19  1  0
 19 20  1  0
 20 21  1  0
 21 22  1  0
 10  2  1  0
 16 11  1  0
 22 17  1  0
  1 23  1  0
  1 24  1  0
  1 25  1  0
  4 26  1  0
 12 27  1  0
 13 28  1  0
 14 29  1  0
 15 30  1  0
 18 31  1  0
 18 32  1  0
 19 33  1  0
 19 34  1  0
 20 35  1  0
 20 36  1  0
 21 37  1  0
 21 38  1  0
 22 39  1  0
 22 40  1  0
M  CHG  1  20   1
M  END
>  <UniqueID>  (29) 
26

>  <SMILES>  (29) 
Cn1ncc(C(F)(F)F)c1-c1ccccc1N1CC[NH2+]CC1

>  <Energy>  (29) 
84.93380336621945

>  <Genealogy>  (29) 
Cn1ncc(C(F)(F)F)c1-c1ccccc1N1CC[NH2+]CC1 (protonated)
Cn1ncc(C(F)(F)F)c1-c1ccccc1N1CC[NH2+]CC1 (3D coordinates assigned)
Cn1ncc(C(F)(F)F)c1-c1ccccc1N1CC[NH2+]CC1 (nonaromatic ring conformer: 84.93380336621945 kcal/mol)

>  <smiles>  (29) 
Cn1ncc(C(F)(F)F)c1-c1ccccc1N1CCNCC1

>  <score_type>  (29) 
oracle

>  <origin>  (29) 
adg

>  <m_score__min__energy>  (29) 
-3.9700000000000002

>  <m_primary>  (29) 
energy

$$$$
29:0
     RDKit          3D

 69 73  0  0  1  0  0  0  0  0999 V2000
   59.2770   34.5410   48.6370 C   0  0  0  0  0  0  0  0  0  0  0  0
   60.6440   34.1810   48.1760 C   0  0  0  0  0  0  0  0  0  0  0  0
   61.6290   33.8650   49.0910 C   0  0  0  0  0  0  0  0  0  0  0  0
   62.9220   33.5220   48.7010 C   0  0  0  0  0  0  0  0  0  0  0  0
   63.9110   33.2010   49.6680 N   0  0  0  0  0  0  0  0  0  0  0  0
   64.8770   32.1340   49.5070 C   0  0  0  0  0  0  0  0  0  0  0  0
   66.1920   32.5950   50.1220 C   0  0  0  0  0  0  0  0  0  0  0  0
   66.0320   32.7840   51.5320 N   0  0  0  0  0  0  0  0  0  0  0  0
   64.6870   33.0880   51.9190 C   0  0  0  0  0  0  0  0  0  0  0  0
   63.9760   33.9690   50.8960 C   0  0  0  0  0  0  0  0  0  0  0  0
   63.1610   33.5160   47.3450 C   0  0  0  0  0  0  0  0  0  0  0  0
   62.1800   33.8320   46.4090 C   0  0  0  0  0  0  0  0  0  0  0  0
   60.9080   34.1680   46.8210 C   0  0  0  0  0  0  0  0  0  0  0  0
   57.7600   30.4220   46.2600 N   0  0  0  0  0  0  0  0  0  0  0  0
   58.1470   31.4230   45.5800 C   0  0  0  0  0  0  0  0  0  0  0  0
   58.9470   33.5510   44.0490 N   0  0  0  0  0  0  0  0  0  0  0  0
   58.2380   32.5380   43.4700 C   0  0  0  0  0  0  0  0  0  0  0  0
   57.8290   31.4610   44.2360 C   0  0  0  0  0  0  0  0  0  0  0  0
   59.2500   33.5050   45.3600 C   0  0  0  0  0  0  0  0  0  0  0  0
   59.9200   34.4880   45.8440 N   0  0  0  0  0  0  0  0  0  0  0  0
   58.4830   29.1970   46.2080 C   0  0  0  0  0  0  0  0  0  0  0  0
   58.1140   28.1540   45.3720 C   0  0  0  0  0  0  0  0  0  0  0  0
   58.7960   26.9680   45.3070 C   0  0  0  0  0  0  0  0  0  0  0  0
   59.9040   26.8250   46.1260 C   0  0  0  0  0  0  0  0  0  0  0  0
   60.3090   27.8380   46.9760 C   0  0  0  0  0  0  0  0  0  0  0  0
   59.6050   29.0330   47.0280 C   0  0  0  0  0  0  0  0  0  0  0  0
   60.1130   30.3090   48.0970 S   0  0  0  0  0  0  0  0  0  0  0  0
   58.8940   30.9710   48.6820 O   0  0  0  0  0  0  0  0  0  0  0  0
   60.9440   31.2650   47.2860 O   0  0  0  0  0  0  0  0  0  0  0  0
   61.1120   29.7390   49.4440 C   0  0  0  0  0  0  0  0  0  0  0  0
   60.4220   28.6440   50.2280 C   0  0  0  0  0  0  0  0  0  0  0  0
   61.5320   30.8440   50.3590 C   0  0  0  0  0  0  0  0  0  0  0  0
   58.8430   32.4460   46.0880 N   0  0  0  0  0  0  0  0  0  0  0  0
   57.0890   30.5200   43.3760 C   0  0  0  0  0  0  0  0  0  0  0  0
   56.9710   31.2260   42.0450 C   0  0  0  0  0  0  0  0  0  0  0  0
   57.8180   32.3920   42.1250 N   0  0  0  0  0  0  0  0  0  0  0  0
   59.2508   34.5479   49.7367 H   0  0  0  0  0  0  0  0  0  0  0  0
   59.0132   35.5393   48.2577 H   0  0  0  0  0  0  0  0  0  0  0  0
   58.5557   33.8022   48.2577 H   0  0  0  0  0  0  0  0  0  0  0  0
   61.3847   33.8847   50.1633 H   0  0  0  0  0  0  0  0  0  0  0  0
   64.5219   31.2281   50.0200 H   0  0  0  0  0  0  0  0  0  0  0  0
   65.0143   31.8996   48.4411 H   0  0  0  0  0  0  0  0  0  0  0  0
   66.9654   31.8338   49.9417 H   0  0  0  0  0  0  0  0  0  0  0  0
   66.4924   33.5476   49.6612 H   0  0  0  0  0  0  0  0  0  0  0  0
   66.7110   33.4900   51.8950 H   0  0  0  0  0  0  0  0  0  0  0  0
   64.1278   32.1466   52.0248 H   0  0  0  0  0  0  0  0  0  0  0  0
   64.7266   33.6402   52.8695 H   0  0  0  0  0  0  0  0  0  0  0  0
   62.9622   34.2147   51.2450 H   0  0  0  0  0  0  0  0  0  0  0  0
   64.5130   34.9171   50.7450 H   0  0  0  0  0  0  0  0  0  0  0  0
   64.1668   33.2510   46.9871 H   0  0  0  0  0  0  0  0  0  0  0  0
   62.4209   33.8135   45.3359 H   0  0  0  0  0  0  0  0  0  0  0  0
   59.2550   34.3660   43.4710 H   0  0  0  0  0  0  0  0  0  0  0  0
   57.2306   28.2855   44.7298 H   0  0  0  0  0  0  0  0  0  0  0  0
   58.4765   26.1610   44.6312 H   0  0  0  0  0  0  0  0  0  0  0  0
   60.4744   25.8848   46.0997 H   0  0  0  0  0  0  0  0  0  0  0  0
   61.1936   27.6959   47.6141 H   0  0  0  0  0  0  0  0  0  0  0  0
   62.0228   29.3232   48.9884 H   0  0  0  0  0  0  0  0  0  0  0  0
   60.5413   28.8333   51.3050 H   0  0  0  0  0  0  0  0  0  0  0  0
   59.3517   28.6302   49.9745 H   0  0  0  0  0  0  0  0  0  0  0  0
   60.8714   27.6725   49.9745 H   0  0  0  0  0  0  0  0  0  0  0  0
   61.4095   30.5217   51.4036 H   0  0  0  0  0  0  0  0  0  0  0  0
   62.5873   31.0926   50.1734 H   0  0  0  0  0  0  0  0  0  0  0  0
   60.9082   31.7308   50.1734 H   0  0  0  0  0  0  0  0  0  0  0  0
   59.0890   32.4280   47.1030 H   0  0  0  0  0  0  0  0  0  0  0  0
   57.6438   29.5765   43.2665 H   0  0  0  0  0  0  0  0  0  0  0  0
   56.1067   30.2578   43.7959 H   0  0  0  0  0  0  0  0  0  0  0  0
   57.3089   30.5655   41.2329 H   0  0  0  0  0  0  0  0  0  0  0  0
   55.9283   31.5047   41.8328 H   0  0  0  0  0  0  0  0  0  0  0  0
   58.0590   32.9950   41.3300 H   0  0  0  0  0  0  0  0  0  0  0  0
  1  2  1  0
  2  3  2  0
  3  4  1  0
  4  5  1  0
  5  6  1  0
  6  7  1  0
  7  8  1  0
  8  9  1  0
  9 10  1  0
  4 11  2  0
 11 12  1  0
 12 13  2  0
 13 14  1  0
 14 15  2  0
 15 16  1  0
 16 17  1  0
 17 18  2  0
 18 19  1  0
 19 20  2  0
 20 21  1  0
 21 22  2  0
 22 23  1  0
 23 24  2  0
 24 25  1  0
 25 26  2  0
 26 27  1  0
 27 28  2  0
 27 29  2  0
 27 30  1  0
 30 31  1  0
 30 32  1  0
 19 33  1  0
 18 34  1  0
 34 35  1  0
 35 36  1  0
 13  2  1  0
 33 15  1  0
 10  5  1  0
 36 17  1  0
 26 21  1  0
  1 37  1  0
  1 38  1  0
  1 39  1  0
  3 40  1  0
  6 41  1  0
  6 42  1  0
  7 43  1  0
  7 44  1  0
  8 45  1  0
  9 46  1  0
  9 47  1  0
 10 48  1  0
 10 49  1  0
 11 50  1  0
 12 51  1  0
 16 52  1  0
 22 53  1  0
 23 54  1  0
 24 55  1  0
 25 56  1  0
 30 57  1  0
 31 58  1  0
 31 59  1  0
 31 60  1  0
 32 61  1  0
 32 62  1  0
 32 63  1  0
 33 64  1  0
 34 65  1  0
 34 66  1  0
 35 67  1  0
 35 68  1  0
 36 69  1  0
M  END
>  <smiles>  (30) 
Cc1cc(N2CCNCC2)ccc1N=c1[nH]c2c(c(=Nc3ccccc3S(=O)(=O)C(C)C)[nH]1)CCN2

>  <score_type>  (30) 
oracle

>  <origin>  (30) 
adg

>  <m_score__min__energy>  (30) 
-10.050000000000001

>  <m_primary>  (30) 
energy

$$$$
30:0
     RDKit          3D

 64 69  0  0  0  0  0  0  0  0999 V2000
   58.5040   30.2360   44.7730 C   0  0  0  0  0  0  0  0  0  0  0  0
   59.6660   30.4860   45.5570 O   0  0  0  0  0  0  0  0  0  0  0  0
   59.8150   30.1070   46.8990 C   0  0  0  0  0  0  0  0  0  0  0  0
   58.7150   29.5500   47.5590 C   0  0  0  0  0  0  0  0  0  0  0  0
   58.8180   29.1450   48.8930 C   0  0  0  0  0  0  0  0  0  0  0  0
   60.0310   29.2830   49.5870 C   0  0  0  0  0  0  0  0  0  0  0  0
   60.1660   28.7910   50.9370 N   0  0  0  0  0  0  0  0  0  0  0  0
   61.4110   28.1590   51.4020 C   0  0  0  0  0  0  0  0  0  0  0  0
   62.0860   29.0290   52.4860 C   0  0  0  0  0  0  0  0  0  0  0  0
   61.1730   30.0960   52.9200 N   0  0  0  0  0  0  0  0  0  0  0  0
   61.4070   31.4640   52.5280 C   0  0  0  0  0  0  0  0  0  0  0  0
   60.4620   32.1310   52.0240 O   0  0  0  0  0  0  0  0  0  0  0  0
   62.7530   32.1310   52.7380 C   0  0  0  0  0  0  0  0  0  0  0  0
   62.6700   33.6540   52.4580 C   0  0  0  0  0  0  0  0  0  0  0  0
   63.1720   34.0720   51.0570 C   0  0  0  0  0  0  0  0  0  0  0  0
   63.0530   32.9800   50.0790 N   0  0  0  0  0  0  0  0  0  0  0  0
   62.8130   33.3080   48.7010 C   0  0  0  0  0  0  0  0  0  0  0  0
   63.8630   33.5280   47.8570 N   0  0  0  0  0  0  0  0  0  0  0  0
   63.6760   33.7930   46.5290 C   0  0  0  0  0  0  0  0  0  0  0  0
   62.4180   33.8420   46.0050 N   0  0  0  0  0  0  0  0  0  0  0  0
   61.3500   33.6380   46.8160 C   0  0  0  0  0  0  0  0  0  0  0  0
   61.5240   33.3790   48.1660 C   0  0  0  0  0  0  0  0  0  0  0  0
   60.0140   33.2340   48.9170 S   0  0  0  0  0  0  0  0  0  0  0  0
   59.1410   33.4750   47.4940 C   0  0  0  0  0  0  0  0  0  0  0  0
   57.7580   33.4790   47.3280 C   0  0  0  0  0  0  0  0  0  0  0  0
   57.2450   33.6880   46.0390 C   0  0  0  0  0  0  0  0  0  0  0  0
   58.1150   33.8920   44.9490 C   0  0  0  0  0  0  0  0  0  0  0  0
   59.5070   33.8940   45.1390 C   0  0  0  0  0  0  0  0  0  0  0  0
   60.0090   33.6810   46.4250 C   0  0  0  0  0  0  0  0  0  0  0  0
   63.6180   31.6600   50.3910 C   0  0  0  0  0  0  0  0  0  0  0  0
   63.8660   31.4810   51.8950 C   0  0  0  0  0  0  0  0  0  0  0  0
   59.8050   29.6640   53.2240 C   0  0  0  0  0  0  0  0  0  0  0  0
   59.1420   29.1260   51.9410 C   0  0  0  0  0  0  0  0  0  0  0  0
   61.1340   29.8480   48.9270 C   0  0  0  0  0  0  0  0  0  0  0  0
   61.0280   30.2630   47.5960 C   0  0  0  0  0  0  0  0  0  0  0  0
   57.6465   30.0515   45.4368 H   0  0  0  0  0  0  0  0  0  0  0  0
   58.2950   31.1097   44.1382 H   0  0  0  0  0  0  0  0  0  0  0  0
   58.6728   29.3536   44.1382 H   0  0  0  0  0  0  0  0  0  0  0  0
   57.7613   29.4296   47.0242 H   0  0  0  0  0  0  0  0  0  0  0  0
   57.9429   28.7153   49.4025 H   0  0  0  0  0  0  0  0  0  0  0  0
   61.1795   27.1698   51.8238 H   0  0  0  0  0  0  0  0  0  0  0  0
   62.0981   28.0556   50.5493 H   0  0  0  0  0  0  0  0  0  0  0  0
   62.3447   28.3983   53.3493 H   0  0  0  0  0  0  0  0  0  0  0  0
   62.9962   29.4830   52.0672 H   0  0  0  0  0  0  0  0  0  0  0  0
   63.0193   31.9842   53.7951 H   0  0  0  0  0  0  0  0  0  0  0  0
   61.6193   33.9651   52.5544 H   0  0  0  0  0  0  0  0  0  0  0  0
   63.3302   34.1448   53.1883 H   0  0  0  0  0  0  0  0  0  0  0  0
   62.5762   34.9280   50.7074 H   0  0  0  0  0  0  0  0  0  0  0  0
   64.2365   34.3357   51.1430 H   0  0  0  0  0  0  0  0  0  0  0  0
   64.5459   33.9678   45.8789 H   0  0  0  0  0  0  0  0  0  0  0  0
   57.0860   33.3225   48.1847 H   0  0  0  0  0  0  0  0  0  0  0  0
   56.1569   33.6927   45.8780 H   0  0  0  0  0  0  0  0  0  0  0  0
   57.7011   34.0508   43.9423 H   0  0  0  0  0  0  0  0  0  0  0  0
   60.1883   34.0601   44.2915 H   0  0  0  0  0  0  0  0  0  0  0  0
   62.9157   30.8841   50.0522 H   0  0  0  0  0  0  0  0  0  0  0  0
   64.5856   31.5742   49.8748 H   0  0  0  0  0  0  0  0  0  0  0  0
   63.9048   30.4059   52.1243 H   0  0  0  0  0  0  0  0  0  0  0  0
   64.8174   31.9727   52.1462 H   0  0  0  0  0  0  0  0  0  0  0  0
   59.8313   28.8697   53.9845 H   0  0  0  0  0  0  0  0  0  0  0  0
   59.2263   30.5175   53.6069 H   0  0  0  0  0  0  0  0  0  0  0  0
   58.5627   28.2229   52.1834 H   0  0  0  0  0  0  0  0  0  0  0  0
   58.4784   29.9009   51.5298 H   0  0  0  0  0  0  0  0  0  0  0  0
   62.0886   29.9650   49.4610 H   0  0  0  0  0  0  0  0  0  0  0  0
   61.8958   30.7131   47.0916 H   0  0  0  0  0  0  0  0  0  0  0  0
  1  2  1  0
  2  3  1  0
  3  4  2  0
  4  5  1  0
  5  6  2  0
  6  7  1  0
  7  8  1  0
  8  9  1  0
  9 10  1  0
 10 11  1  0
 11 12  2  0
 11 13  1  0
 13 14  1  0
 14 15  1  0
 15 16  1  0
 16 17  1  0
 17 18  2  0
 18 19  1  0
 19 20  2  0
 20 21  1  0
 21 22  2  0
 22 23  1  0
 23 24  1  0
 24 25  2  0
 25 26  1  0
 26 27  2  0
 27 28  1  0
 28 29  2  0
 16 30  1  0
 30 31  1  0
 10 32  1  0
 32 33  1  0
  6 34  1  0
 34 35  2  0
 35  3  1  0
 33  7  1  0
 31 13  1  0
 22 17  1  0
 29 24  1  0
 29 21  1  0
  1 36  1  0
  1 37  1  0
  1 38  1  0
  4 39  1  0
  5 40  1  0
  8 41  1  0
  8 42  1  0
  9 43  1  0
  9 44  1  0
 13 45  1  0
 14 46  1  0
 14 47  1  0
 15 48  1  0
 15 49  1  0
 19 50  1  0
 25 51  1  0
 26 52  1  0
 27 53  1  0
 28 54  1  0
 30 55  1  0
 30 56  1  0
 31 57  1  0
 31 58  1  0
 32 59  1  0
 32 60  1  0
 33 61  1  0
 33 62  1  0
 34 63  1  0
 35 64  1  0
M  END
>  <UniqueID>  (31) 
27

>  <SMILES>  (31) 
COc1ccc(N2CCN(C(=O)C3CCN(c4ncnc5c4sc4ccccc45)CC3)CC2)cc1

>  <Energy>  (31) 
123.8380228373475

>  <Genealogy>  (31) 
COc1ccc(N2CCN(C(=O)C3CCN(c4ncnc5c4sc4ccccc45)CC3)CC2)cc1 (3D coordinates assigned)
COc1ccc(N2CCN(C(=O)C3CCN(c4ncnc5c4sc4ccccc45)CC3)CC2)cc1 (nonaromatic ring conformer: 123.8380228373475 kcal/mol)

>  <smiles>  (31) 
COc1ccc(N2CCN(C(=O)C3CCN(c4ncnc5c4sc4ccccc45)CC3)CC2)cc1

>  <score_type>  (31) 
oracle

>  <origin>  (31) 
adg

>  <m_score__min__energy>  (31) 
-8.9499999999999993

>  <m_primary>  (31) 
energy

$$$$
31:0
     RDKit          3D

 58 61  0  0  0  0  0  0  0  0999 V2000
   56.2300   30.5240   44.5000 O   0  0  0  0  0  0  0  0  0  0  0  0
   57.4490   30.6530   44.7950 C   0  0  0  0  0  0  0  0  0  0  0  0
   57.9170   31.9870   45.2370 C   0  0  0  0  0  0  0  0  0  0  0  0
   57.5880   33.1190   44.4770 C   0  0  0  0  0  0  0  0  0  0  0  0
   58.0000   34.3870   44.8900 C   0  0  0  0  0  0  0  0  0  0  0  0
   58.7280   34.5390   46.0700 C   0  0  0  0  0  0  0  0  0  0  0  0
   59.0530   33.4200   46.8560 C   0  0  0  0  0  0  0  0  0  0  0  0
   59.8160   33.5900   48.1590 C   0  0  0  0  0  0  0  0  0  0  0  0
   61.2000   34.1170   48.0040 N   0  0  0  0  0  0  0  0  0  0  0  0
   62.0680   33.8800   49.1880 C   0  0  0  0  0  0  0  0  0  0  0  0
   63.0820   32.7490   48.9320 C   0  0  0  0  0  0  0  0  0  0  0  0
   63.9510   33.0050   47.8360 O   0  0  0  0  0  0  0  0  0  0  0  0
   63.3660   33.8040   46.8150 C   0  0  0  0  0  0  0  0  0  0  0  0
   61.8350   33.6810   46.7350 C   0  0  0  0  0  0  0  0  0  0  0  0
   58.6930   32.1400   46.3980 C   0  0  0  0  0  0  0  0  0  0  0  0
   58.3250   29.4990   44.7590 N   0  0  0  0  0  0  0  0  0  0  0  0
   59.6960   29.5510   45.2890 C   0  0  0  0  0  0  0  0  0  0  0  0
   60.1260   28.1810   45.8350 C   0  0  0  0  0  0  0  0  0  0  0  0
   58.9940   27.4720   46.4770 N   0  0  0  0  0  0  0  0  0  0  0  0
   58.4630   28.1670   47.6760 C   0  0  0  0  0  0  0  0  0  0  0  0
   59.5660   28.6820   48.5670 C   0  0  0  0  0  0  0  0  0  0  0  0
   60.3170   27.7950   49.3570 C   0  0  0  0  0  0  0  0  0  0  0  0
   61.3170   28.2820   50.2050 C   0  0  0  0  0  0  0  0  0  0  0  0
   61.5750   29.6540   50.2680 C   0  0  0  0  0  0  0  0  0  0  0  0
   60.8340   30.5420   49.4830 C   0  0  0  0  0  0  0  0  0  0  0  0
   59.8320   30.0590   48.6340 C   0  0  0  0  0  0  0  0  0  0  0  0
   57.9140   27.1710   45.5000 C   0  0  0  0  0  0  0  0  0  0  0  0
   57.8200   28.1850   44.3380 C   0  0  0  0  0  0  0  0  0  0  0  0
   57.0032   33.0071   43.5521 H   0  0  0  0  0  0  0  0  0  0  0  0
   57.7497   35.2694   44.2828 H   0  0  0  0  0  0  0  0  0  0  0  0
   59.0500   35.5417   46.3877 H   0  0  0  0  0  0  0  0  0  0  0  0
   59.2532   34.2869   48.7975 H   0  0  0  0  0  0  0  0  0  0  0  0
   59.9127   32.5853   48.5964 H   0  0  0  0  0  0  0  0  0  0  0  0
   61.0910   35.1580   47.9280 H   0  0  0  0  0  0  0  0  0  0  0  0
   62.6163   34.8051   49.4193 H   0  0  0  0  0  0  0  0  0  0  0  0
   61.4263   33.5819   50.0302 H   0  0  0  0  0  0  0  0  0  0  0  0
   63.6927   32.6171   49.8374 H   0  0  0  0  0  0  0  0  0  0  0  0
   62.5046   31.8462   48.6837 H   0  0  0  0  0  0  0  0  0  0  0  0
   63.6202   34.8565   47.0091 H   0  0  0  0  0  0  0  0  0  0  0  0
   63.7680   33.4453   45.8560 H   0  0  0  0  0  0  0  0  0  0  0  0
   61.4658   34.3115   45.9127 H   0  0  0  0  0  0  0  0  0  0  0  0
   61.5766   32.6266   46.5576 H   0  0  0  0  0  0  0  0  0  0  0  0
   59.0222   31.2500   46.9543 H   0  0  0  0  0  0  0  0  0  0  0  0
   60.3825   29.8488   44.4828 H   0  0  0  0  0  0  0  0  0  0  0  0
   59.7273   30.2819   46.1105 H   0  0  0  0  0  0  0  0  0  0  0  0
   60.5062   27.5685   45.0042 H   0  0  0  0  0  0  0  0  0  0  0  0
   60.9069   28.3414   46.5929 H   0  0  0  0  0  0  0  0  0  0  0  0
   57.8450   29.0163   47.3493 H   0  0  0  0  0  0  0  0  0  0  0  0
   57.8708   27.4421   48.2538 H   0  0  0  0  0  0  0  0  0  0  0  0
   60.1178   26.7143   49.3083 H   0  0  0  0  0  0  0  0  0  0  0  0
   61.9011   27.5842   50.8231 H   0  0  0  0  0  0  0  0  0  0  0  0
   62.3616   30.0353   50.9357 H   0  0  0  0  0  0  0  0  0  0  0  0
   61.0388   31.6216   49.5327 H   0  0  0  0  0  0  0  0  0  0  0  0
   59.2509   30.7603   48.0172 H   0  0  0  0  0  0  0  0  0  0  0  0
   58.0997   26.1735   45.0750 H   0  0  0  0  0  0  0  0  0  0  0  0
   56.9625   27.2259   46.0492 H   0  0  0  0  0  0  0  0  0  0  0  0
   58.4199   27.8212   43.4908 H   0  0  0  0  0  0  0  0  0  0  0  0
   56.7661   28.2879   44.0402 H   0  0  0  0  0  0  0  0  0  0  0  0
  1  2  2  0
  2  3  1  0
  3  4  2  0
  4  5  1  0
  5  6  2  0
  6  7  1  0
  7  8  1  0
  8  9  1  0
  9 10  1  0
 10 11  1  0
 11 12  1  0
 12 13  1  0
 13 14  1  0
  7 15  2  0
  2 16  1  0
 16 17  1  0
 17 18  1  0
 18 19  1  0
 19 20  1  0
 20 21  1  0
 21 22  2  0
 22 23  1  0
 23 24  2  0
 24 25  1  0
 25 26  2  0
 19 27  1  0
 27 28  1  0
 15  3  1  0
 28 16  1  0
 14  9  1  0
 26 21  1  0
  4 29  1  0
  5 30  1  0
  6 31  1  0
  8 32  1  0
  8 33  1  0
  9 34  1  0
 10 35  1  0
 10 36  1  0
 11 37  1  0
 11 38  1  0
 13 39  1  0
 13 40  1  0
 14 41  1  0
 14 42  1  0
 15 43  1  0
 17 44  1  0
 17 45  1  0
 18 46  1  0
 18 47  1  0
 20 48  1  0
 20 49  1  0
 22 50  1  0
 23 51  1  0
 24 52  1  0
 25 53  1  0
 26 54  1  0
 27 55  1  0
 27 56  1  0
 28 57  1  0
 28 58  1  0
M  CHG  1   9   1
M  END
>  <UniqueID>  (32) 
28

>  <SMILES>  (32) 
O=C(c1cccc(C[NH+]2CCOCC2)c1)N1CCN(Cc2ccccc2)CC1

>  <Energy>  (32) 
89.95033514036054

>  <Genealogy>  (32) 
O=C(c1cccc(C[NH+]2CCOCC2)c1)N1CCN(Cc2ccccc2)CC1 (protonated)
O=C(c1cccc(C[NH+]2CCOCC2)c1)N1CCN(Cc2ccccc2)CC1 (3D coordinates assigned)
O=C(c1cccc(C[NH+]2CCOCC2)c1)N1CCN(Cc2ccccc2)CC1 (nonaromatic ring conformer: 89.95033514036054 kcal/mol)

>  <smiles>  (32) 
O=C(c1cccc(CN2CCOCC2)c1)N1CCN(Cc2ccccc2)CC1

>  <score_type>  (32) 
oracle

>  <origin>  (32) 
adg

>  <m_score__min__energy>  (32) 
-7.7599999999999998

>  <m_primary>  (32) 
energy

$$$$
32:0
     RDKit          3D

 50 53  0  0  0  0  0  0  0  0999 V2000
   56.5320   25.8360   45.6710 C   0  0  0  0  0  0  0  0  0  0  0  0
   57.5190   26.7550   46.2660 N   0  0  0  0  0  0  0  0  0  0  0  0
   57.7240   27.9940   45.7040 C   0  0  0  0  0  0  0  0  0  0  0  0
   57.0940   28.3460   44.6700 O   0  0  0  0  0  0  0  0  0  0  0  0
   58.6710   28.8370   46.2840 C   0  0  0  0  0  0  0  0  0  0  0  0
   59.4130   28.3980   47.3270 C   0  0  0  0  0  0  0  0  0  0  0  0
   60.3460   29.3040   47.6660 N   0  0  0  0  0  0  0  0  0  0  0  0
   60.1280   30.3180   46.7900 C   0  0  0  0  0  0  0  0  0  0  0  0
   61.0390   31.5250   46.7620 C   0  0  0  0  0  0  0  0  0  0  0  0
   62.0010   31.5250   47.9010 N   0  0  0  0  0  0  0  0  0  0  0  0
   63.3890   31.7470   47.4420 C   0  0  0  0  0  0  0  0  0  0  0  0
   63.5970   33.1870   46.9170 C   0  0  0  0  0  0  0  0  0  0  0  0
   62.5730   34.0790   47.3190 O   0  0  0  0  0  0  0  0  0  0  0  0
   62.2870   33.9040   48.6890 C   0  0  0  0  0  0  0  0  0  0  0  0
   61.6420   32.5240   48.9410 C   0  0  0  0  0  0  0  0  0  0  0  0
   59.0780   30.0800   45.9440 N   0  0  0  0  0  0  0  0  0  0  0  0
   58.5650   30.9420   44.8670 C   0  0  0  0  0  0  0  0  0  0  0  0
   57.8160   32.1510   45.3750 C   0  0  0  0  0  0  0  0  0  0  0  0
   56.5620   32.1580   45.2430 O   0  0  0  0  0  0  0  0  0  0  0  0
   58.4590   33.3490   45.9640 C   0  0  0  0  0  0  0  0  0  0  0  0
   58.5480   33.7180   47.3060 C   0  0  0  0  0  0  0  0  0  0  0  0
   59.2240   34.9270   47.5110 C   0  0  0  0  0  0  0  0  0  0  0  0
   59.6730   35.5230   46.3420 C   0  0  0  0  0  0  0  0  0  0  0  0
   59.2270   34.5410   45.0560 S   0  0  0  0  0  0  0  0  0  0  0  0
   59.2410   27.1680   47.8840 N   0  0  0  0  0  0  0  0  0  0  0  0
   60.1020   26.7160   48.9850 C   0  0  0  0  0  0  0  0  0  0  0  0
   58.2940   26.3350   47.3320 C   0  0  0  0  0  0  0  0  0  0  0  0
   58.1430   25.1700   47.7980 O   0  0  0  0  0  0  0  0  0  0  0  0
   55.9801   25.3221   46.4718 H   0  0  0  0  0  0  0  0  0  0  0  0
   55.8276   26.4074   45.0486 H   0  0  0  0  0  0  0  0  0  0  0  0
   57.0517   25.0927   45.0486 H   0  0  0  0  0  0  0  0  0  0  0  0
   61.6052   31.5208   45.8189 H   0  0  0  0  0  0  0  0  0  0  0  0
   60.4128   32.4254   46.8461 H   0  0  0  0  0  0  0  0  0  0  0  0
   61.9890   30.5790   48.3530 H   0  0  0  0  0  0  0  0  0  0  0  0
   64.0747   31.5726   48.2842 H   0  0  0  0  0  0  0  0  0  0  0  0
   63.5917   31.0493   46.6161 H   0  0  0  0  0  0  0  0  0  0  0  0
   64.5580   33.5629   47.2979 H   0  0  0  0  0  0  0  0  0  0  0  0
   63.5787   33.1410   45.8181 H   0  0  0  0  0  0  0  0  0  0  0  0
   63.2214   33.9762   49.2648 H   0  0  0  0  0  0  0  0  0  0  0  0
   61.5817   34.6866   49.0054 H   0  0  0  0  0  0  0  0  0  0  0  0
   61.9799   32.1508   49.9190 H   0  0  0  0  0  0  0  0  0  0  0  0
   60.5505   32.6569   48.9115 H   0  0  0  0  0  0  0  0  0  0  0  0
   59.4157   31.2875   44.2612 H   0  0  0  0  0  0  0  0  0  0  0  0
   57.8545   30.3417   44.2797 H   0  0  0  0  0  0  0  0  0  0  0  0
   58.1273   33.1166   48.1253 H   0  0  0  0  0  0  0  0  0  0  0  0
   59.3842   35.3639   48.5077 H   0  0  0  0  0  0  0  0  0  0  0  0
   60.2243   36.4721   46.2703 H   0  0  0  0  0  0  0  0  0  0  0  0
   59.6287   26.9645   49.9464 H   0  0  0  0  0  0  0  0  0  0  0  0
   60.2436   25.6273   48.9166 H   0  0  0  0  0  0  0  0  0  0  0  0
   61.0785   27.2177   48.9166 H   0  0  0  0  0  0  0  0  0  0  0  0
  1  2  1  0
  2  3  1  0
  3  4  2  0
  3  5  1  0
  5  6  2  0
  6  7  1  0
  7  8  2  0
  8  9  1  0
  9 10  1  0
 10 11  1  0
 11 12  1  0
 12 13  1  0
 13 14  1  0
 14 15  1  0
  8 16  1  0
 16 17  1  0
 17 18  1  0
 18 19  2  0
 18 20  1  0
 20 21  2  0
 21 22  1  0
 22 23  2  0
 23 24  1  0
  6 25  1  0
 25 26  1  0
 25 27  1  0
 27 28  2  0
 27  2  1  0
 16  5  1  0
 24 20  1  0
 15 10  1  0
  1 29  1  0
  1 30  1  0
  1 31  1  0
  9 32  1  0
  9 33  1  0
 10 34  1  0
 11 35  1  0
 11 36  1  0
 12 37  1  0
 12 38  1  0
 14 39  1  0
 14 40  1  0
 15 41  1  0
 15 42  1  0
 17 43  1  0
 17 44  1  0
 21 45  1  0
 22 46  1  0
 23 47  1  0
 26 48  1  0
 26 49  1  0
 26 50  1  0
M  CHG  1  10   1
M  END
>  <UniqueID>  (33) 
29

>  <SMILES>  (33) 
Cn1c(=O)c2c(nc(C[NH+]3CCOCC3)n2CC(=O)c2cccs2)n(C)c1=O

>  <Energy>  (33) 
140.10762068893007

>  <Genealogy>  (33) 
Cn1c(=O)c2c(nc(C[NH+]3CCOCC3)n2CC(=O)c2cccs2)n(C)c1=O (protonated)
Cn1c(=O)c2c(nc(C[NH+]3CCOCC3)n2CC(=O)c2cccs2)n(C)c1=O (3D coordinates assigned)
Cn1c(=O)c2c(nc(C[NH+]3CCOCC3)n2CC(=O)c2cccs2)n(C)c1=O (nonaromatic ring conformer: 140.10762068893007 kcal/mol)

>  <smiles>  (33) 
Cn1c(=O)c2c(nc(CN3CCOCC3)n2CC(=O)c2cccs2)n(C)c1=O

>  <score_type>  (33) 
oracle

>  <origin>  (33) 
adg

>  <m_score__min__energy>  (33) 
-5.8499999999999996

>  <m_primary>  (33) 
energy

$$$$
33:0
     RDKit          3D

 49 51  0  0  0  0  0  0  0  0999 V2000
   58.3174   29.6270   47.8668 H   0  0  0  0  0  0  0  0  0  0  0  0
   58.6200   29.3260   46.8530 C   0  0  0  0  0  0  0  0  0  0  0  0
   59.1260   30.2060   46.0440 N   0  0  0  0  0  0  0  0  0  0  0  0
   58.6740   31.5640   45.9170 C   0  0  0  0  0  0  0  0  0  0  0  0
   59.4750   32.5780   46.4580 C   0  0  0  0  0  0  0  0  0  0  0  0
   60.4182   32.3178   46.9606 H   0  0  0  0  0  0  0  0  0  0  0  0
   59.0870   33.9150   46.3650 C   0  0  0  0  0  0  0  0  0  0  0  0
   59.7302   34.7041   46.7817 H   0  0  0  0  0  0  0  0  0  0  0  0
   57.8840   34.2520   45.7440 C   0  0  0  0  0  0  0  0  0  0  0  0
   57.5865   35.3077   45.6600 H   0  0  0  0  0  0  0  0  0  0  0  0
   57.0570   33.2520   45.2290 C   0  0  0  0  0  0  0  0  0  0  0  0
   56.1065   33.5238   44.7467 H   0  0  0  0  0  0  0  0  0  0  0  0
   57.4320   31.8960   45.3230 C   0  0  0  0  0  0  0  0  0  0  0  0
   56.5880   30.8680   44.8710 O   0  0  0  0  0  0  0  0  0  0  0  0
   56.3180   30.5790   43.5030 C   0  0  0  0  0  0  0  0  0  0  0  0
   56.7266   31.3810   42.8706 H   0  0  0  0  0  0  0  0  0  0  0  0
   55.2310   30.5105   43.3488 H   0  0  0  0  0  0  0  0  0  0  0  0
   56.9690   29.2570   43.1300 C   0  0  0  0  0  0  0  0  0  0  0  0
   57.2385   28.7098   44.0454 H   0  0  0  0  0  0  0  0  0  0  0  0
   56.2641   28.6555   42.5373 H   0  0  0  0  0  0  0  0  0  0  0  0
   57.8756   29.4490   42.5373 H   0  0  0  0  0  0  0  0  0  0  0  0
   58.4480   27.9280   46.4240 C   0  0  0  0  0  0  0  0  0  0  0  0
   59.3790   26.8970   46.4940 C   0  0  0  0  0  0  0  0  0  0  0  0
   60.7700   26.9980   47.0500 C   0  0  0  0  0  0  0  0  0  0  0  0
   60.7267   26.9949   48.1491 H   0  0  0  0  0  0  0  0  0  0  0  0
   61.3663   26.1408   46.7041 H   0  0  0  0  0  0  0  0  0  0  0  0
   61.2362   27.9324   46.7041 H   0  0  0  0  0  0  0  0  0  0  0  0
   58.8040   25.7560   46.0360 N   0  0  0  0  0  0  0  0  0  0  0  0
   59.4310   24.4320   46.0000 C   0  0  0  0  0  0  0  0  0  0  0  0
   59.5988   24.0777   47.0278 H   0  0  0  0  0  0  0  0  0  0  0  0
   58.7707   23.7278   45.4726 H   0  0  0  0  0  0  0  0  0  0  0  0
   60.3942   24.4966   45.4726 H   0  0  0  0  0  0  0  0  0  0  0  0
   57.5650   26.0330   45.6360 N   0  0  0  0  0  0  0  0  0  0  0  0
   56.6430   25.1050   45.0350 C   0  0  0  0  0  0  0  0  0  0  0  0
   56.9990   24.4130   43.8670 C   0  0  0  0  0  0  0  0  0  0  0  0
   57.9855   24.5801   43.4100 H   0  0  0  0  0  0  0  0  0  0  0  0
   56.1050   23.5130   43.2830 C   0  0  0  0  0  0  0  0  0  0  0  0
   56.3851   22.9815   42.3616 H   0  0  0  0  0  0  0  0  0  0  0  0
   54.8560   23.2860   43.8660 C   0  0  0  0  0  0  0  0  0  0  0  0
   54.1506   22.5856   43.3950 H   0  0  0  0  0  0  0  0  0  0  0  0
   54.4980   23.9480   45.0500 C   0  0  0  0  0  0  0  0  0  0  0  0
   53.1450   23.7300   45.6600 C   0  0  0  0  0  0  0  0  0  0  0  0
   53.2306   23.7438   46.7566 H   0  0  0  0  0  0  0  0  0  0  0  0
   52.4632   24.5299   45.3354 H   0  0  0  0  0  0  0  0  0  0  0  0
   52.7490   22.7565   45.3354 H   0  0  0  0  0  0  0  0  0  0  0  0
   55.3910   24.8660   45.6240 C   0  0  0  0  0  0  0  0  0  0  0  0
   55.1081   25.4021   46.5419 H   0  0  0  0  0  0  0  0  0  0  0  0
   57.3270   27.3390   45.8700 C   0  0  0  0  0  0  0  0  0  0  0  0
   56.2420   27.9220   45.6040 O   0  0  0  0  0  0  0  0  0  0  0  0
  1  2  1  0
  2  3  2  0
  3  4  1  0
  4  5  2  0
  5  6  1  0
  5  7  1  0
  7  8  1  0
  7  9  2  0
  9 10  1  0
  9 11  1  0
 11 12  1  0
 11 13  2  0
 13 14  1  0
 14 15  1  0
 15 16  1  0
 15 17  1  0
 15 18  1  0
 18 19  1  0
 18 20  1  0
 18 21  1  0
  2 22  1  0
 22 23  2  0
 23 24  1  0
 24 25  1  0
 24 26  1  0
 24 27  1  0
 23 28  1  0
 28 29  1  0
 29 30  1  0
 29 31  1  0
 29 32  1  0
 28 33  1  0
 33 34  1  0
 34 35  2  0
 35 36  1  0
 35 37  1  0
 37 38  1  0
 37 39  2  0
 39 40  1  0
 39 41  1  0
 41 42  1  0
 42 43  1  0
 42 44  1  0
 42 45  1  0
 41 46  2  0
 46 47  1  0
 33 48  1  0
 48 49  2  0
 13  4  1  0
 48 22  1  0
 46 34  1  0
M  END
>  <UniqueID>  (34) 
30

>  <SMILES>  (34) 
CCOc1ccccc1/N=C/c1c(C)n(C)n(-c2cccc(C)c2)c1=O

>  <Energy>  (34) 
90.5321151534813

>  <Genealogy>  (34) 
CCOc1ccccc1/N=C/c1c(C)n(C)n(-c2cccc(C)c2)c1=O (cis-trans isomerization)
CCOc1ccccc1/N=C/c1c(C)n(C)n(-c2cccc(C)c2)c1=O (3D coordinates assigned)
CCOc1ccccc1/N=C/c1c(C)n(C)n(-c2cccc(C)c2)c1=O (optimized conformer: 90.5321151534813 kcal/mol)

>  <smiles>  (34) 
CCOc1ccccc1N=Cc1c(C)n(C)n(-c2cccc(C)c2)c1=O

>  <score_type>  (34) 
oracle

>  <origin>  (34) 
adg

>  <m_score__min__energy>  (34) 
-8.3300000000000001

>  <m_primary>  (34) 
energy

$$$$
34:0
     RDKit          3D

 29 30  0  0  0  0  0  0  0  0999 V2000
   55.9120   30.0700   43.5920 C   0  0  0  0  0  0  0  0  0  0  0  0
   56.5220   30.0940   44.8770 O   0  0  0  0  0  0  0  0  0  0  0  0
   57.8820   29.8440   45.1230 C   0  0  0  0  0  0  0  0  0  0  0  0
   58.5600   28.7770   44.4990 C   0  0  0  0  0  0  0  0  0  0  0  0
   59.9050   28.5350   44.7780 C   0  0  0  0  0  0  0  0  0  0  0  0
   60.5890   29.3450   45.6820 C   0  0  0  0  0  0  0  0  0  0  0  0
   59.9330   30.4060   46.3060 C   0  0  0  0  0  0  0  0  0  0  0  0
   58.5810   30.6770   46.0240 C   0  0  0  0  0  0  0  0  0  0  0  0
   57.8940   31.8390   46.7080 C   0  0  0  0  0  0  0  0  0  0  0  0
   58.5780   33.1190   46.4210 N   0  0  0  0  0  0  0  0  0  0  0  0
   59.2640   33.7290   47.4410 C   0  0  0  0  0  0  0  0  0  0  0  0
   59.9130   34.9470   47.2430 C   0  0  0  0  0  0  0  0  0  0  0  0
   59.8730   35.5490   45.9910 C   0  0  0  0  0  0  0  0  0  0  0  0
   59.1950   34.9260   44.9490 C   0  0  0  0  0  0  0  0  0  0  0  0
   58.5490   33.7010   45.1690 C   0  0  0  0  0  0  0  0  0  0  0  0
   57.7950   32.9940   43.8890 S   0  0  0  0  0  0  0  0  0  0  0  0
   54.8188   30.0270   43.7058 H   0  0  0  0  0  0  0  0  0  0  0  0
   56.1875   30.9797   43.0383 H   0  0  0  0  0  0  0  0  0  0  0  0
   56.2581   29.1848   43.0383 H   0  0  0  0  0  0  0  0  0  0  0  0
   58.0248   28.1311   43.7874 H   0  0  0  0  0  0  0  0  0  0  0  0
   60.4269   27.7027   44.2832 H   0  0  0  0  0  0  0  0  0  0  0  0
   61.6481   29.1474   45.9040 H   0  0  0  0  0  0  0  0  0  0  0  0
   60.4770   31.0364   47.0247 H   0  0  0  0  0  0  0  0  0  0  0  0
   56.8555   31.9008   46.3506 H   0  0  0  0  0  0  0  0  0  0  0  0
   57.9250   31.6673   47.7941 H   0  0  0  0  0  0  0  0  0  0  0  0
   59.3025   33.2496   48.4303 H   0  0  0  0  0  0  0  0  0  0  0  0
   60.4529   35.4281   48.0719 H   0  0  0  0  0  0  0  0  0  0  0  0
   60.3752   36.5135   45.8252 H   0  0  0  0  0  0  0  0  0  0  0  0
   59.1655   35.3934   43.9537 H   0  0  0  0  0  0  0  0  0  0  0  0
  1  2  1  0
  2  3  1  0
  3  4  2  0
  4  5  1  0
  5  6  2  0
  6  7  1  0
  7  8  2  0
  8  9  1  0
  9 10  1  0
 10 11  1  0
 11 12  2  0
 12 13  1  0
 13 14  2  0
 14 15  1  0
 15 16  2  0
  8  3  1  0
 15 10  1  0
  1 17  1  0
  1 18  1  0
  1 19  1  0
  4 20  1  0
  5 21  1  0
  6 22  1  0
  7 23  1  0
  9 24  1  0
  9 25  1  0
 11 26  1  0
 12 27  1  0
 13 28  1  0
 14 29  1  0
M  END
>  <UniqueID>  (35) 
31

>  <SMILES>  (35) 
COc1ccccc1Cn1ccccc1=S

>  <Energy>  (35) 
33.82639547915563

>  <Genealogy>  (35) 
COc1ccccc1Cn1ccccc1=S (3D coordinates assigned)
COc1ccccc1Cn1ccccc1=S (optimized conformer: 33.82639547915563 kcal/mol)

>  <smiles>  (35) 
COc1ccccc1Cn1ccccc1=S

>  <score_type>  (35) 
oracle

>  <origin>  (35) 
adg

>  <m_score__min__energy>  (35) 
-5.9000000000000004

>  <m_primary>  (35) 
energy

$$$$
35:0
     RDKit          3D

 39 41  0  0  0  0  0  0  0  0999 V2000
   62.3423   34.6975   51.0065 H   0  0  0  0  0  0  0  0  0  0  0  0
   63.0750   34.0910   50.4540 C   0  0  0  0  0  0  0  0  0  0  0  0
   64.2450   33.6430   50.9490 N   0  0  0  0  0  0  0  0  0  0  0  0
   64.8410   32.9460   49.9960 N   0  0  0  0  0  0  0  0  0  0  0  0
   66.1660   32.3570   50.1280 C   0  0  0  0  0  0  0  0  0  0  0  0
   66.4138   32.2469   51.1941 H   0  0  0  0  0  0  0  0  0  0  0  0
   66.1778   31.3689   49.6448 H   0  0  0  0  0  0  0  0  0  0  0  0
   66.9075   33.0103   49.6448 H   0  0  0  0  0  0  0  0  0  0  0  0
   64.0890   32.9470   48.8810 C   0  0  0  0  0  0  0  0  0  0  0  0
   64.3452   32.4587   47.9292 H   0  0  0  0  0  0  0  0  0  0  0  0
   62.9370   33.6690   49.1390 C   0  0  0  0  0  0  0  0  0  0  0  0
   61.8100   33.9440   48.2100 C   0  0  0  0  0  0  0  0  0  0  0  0
   61.8850   33.5830   46.8560 C   0  0  0  0  0  0  0  0  0  0  0  0
   62.7899   33.0902   46.4710 H   0  0  0  0  0  0  0  0  0  0  0  0
   60.8200   33.8450   45.9960 C   0  0  0  0  0  0  0  0  0  0  0  0
   60.8844   33.5609   44.9353 H   0  0  0  0  0  0  0  0  0  0  0  0
   59.6700   34.4700   46.4860 C   0  0  0  0  0  0  0  0  0  0  0  0
   58.6850   34.6960   45.6610 N   0  0  0  0  0  0  0  0  0  0  0  0
   57.5180   33.8450   45.4210 C   0  0  0  0  0  0  0  0  0  0  0  0
   57.0607   34.1256   44.4607 H   0  0  0  0  0  0  0  0  0  0  0  0
   56.8058   33.9895   46.2468 H   0  0  0  0  0  0  0  0  0  0  0  0
   57.9070   32.3830   45.3740 C   0  0  0  0  0  0  0  0  0  0  0  0
   58.1420   31.7040   46.5840 C   0  0  0  0  0  0  0  0  0  0  0  0
   58.0329   32.2400   47.5383 H   0  0  0  0  0  0  0  0  0  0  0  0
   58.5120   30.3580   46.5870 C   0  0  0  0  0  0  0  0  0  0  0  0
   58.6980   29.8415   47.5402 H   0  0  0  0  0  0  0  0  0  0  0  0
   58.6460   29.6680   45.3840 C   0  0  0  0  0  0  0  0  0  0  0  0
   58.9455   28.6096   45.3885 H   0  0  0  0  0  0  0  0  0  0  0  0
   58.4010   30.3170   44.1740 C   0  0  0  0  0  0  0  0  0  0  0  0
   58.5132   29.7665   43.2283 H   0  0  0  0  0  0  0  0  0  0  0  0
   58.0120   31.6680   44.1510 C   0  0  0  0  0  0  0  0  0  0  0  0
   57.7670   32.3300   42.8190 C   0  0  0  0  0  0  0  0  0  0  0  0
   57.3893   33.3504   42.9806 H   0  0  0  0  0  0  0  0  0  0  0  0
   58.7087   32.3731   42.2522 H   0  0  0  0  0  0  0  0  0  0  0  0
   57.0241   31.7496   42.2522 H   0  0  0  0  0  0  0  0  0  0  0  0
   59.6090   34.8260   47.8050 N   0  0  0  0  0  0  0  0  0  0  0  0
   58.7740   35.3100   48.1980 H   0  0  0  0  0  0  0  0  0  0  0  0
   60.6390   34.5780   48.6610 C   0  0  0  0  0  0  0  0  0  0  0  0
   60.5538   34.8769   49.7162 H   0  0  0  0  0  0  0  0  0  0  0  0
  1  2  1  0
  2  3  2  0
  3  4  1  0
  4  5  1  0
  5  6  1  0
  5  7  1  0
  5  8  1  0
  4  9  1  0
  9 10  1  0
  9 11  2  0
 11 12  1  0
 12 13  1  0
 13 14  1  0
 13 15  2  0
 15 16  1  0
 15 17  1  0
 17 18  2  0
 18 19  1  0
 19 20  1  0
 19 21  1  0
 19 22  1  0
 22 23  2  0
 23 24  1  0
 23 25  1  0
 25 26  1  0
 25 27  2  0
 27 28  1  0
 27 29  1  0
 29 30  1  0
 29 31  2  0
 31 32  1  0
 32 33  1  0
 32 34  1  0
 32 35  1  0
 17 36  1  0
 36 37  1  0
 36 38  1  0
 38 39  1  0
 11  2  1  0
 38 12  2  0
 31 22  1  0
M  END
>  <UniqueID>  (36) 
32

>  <SMILES>  (36) 
Cc1ccccc1C/N=c1/ccc(-c2cnn(C)c2)c[nH]1

>  <Energy>  (36) 
74.66268971908696

>  <Genealogy>  (36) 
Cc1ccccc1C/N=c1/ccc(-c2cnn(C)c2)c[nH]1 (cis-trans isomerization)
Cc1ccccc1C/N=c1/ccc(-c2cnn(C)c2)c[nH]1 (3D coordinates assigned)
Cc1ccccc1C/N=c1/ccc(-c2cnn(C)c2)c[nH]1 (optimized conformer: 74.66268971908696 kcal/mol)

>  <smiles>  (36) 
Cc1ccccc1CN=c1ccc(-c2cnn(C)c2)c[nH]1

>  <score_type>  (36) 
oracle

>  <origin>  (36) 
adg

>  <m_score__min__energy>  (36) 
-7.2400000000000002

>  <m_primary>  (36) 
energy

$$$$
36:0
     RDKit          3D

 42 44  0  0  0  0  0  0  0  0999 V2000
   56.3920   21.1260   49.4130 C   0  0  0  0  0  0  0  0  0  0  0  0
   57.3000   21.7080   48.4830 O   0  0  0  0  0  0  0  0  0  0  0  0
   56.9230   22.3320   47.2820 C   0  0  0  0  0  0  0  0  0  0  0  0
   56.7710   23.7270   47.1880 C   0  0  0  0  0  0  0  0  0  0  0  0
   56.3840   24.3270   45.9830 C   0  0  0  0  0  0  0  0  0  0  0  0
   56.2280   25.7990   45.8810 C   0  0  0  0  0  0  0  0  0  0  0  0
   55.0900   26.3110   46.0620 O   0  0  0  0  0  0  0  0  0  0  0  0
   57.3790   26.6900   45.6110 C   0  0  0  0  0  0  0  0  0  0  0  0
   58.7060   26.2800   45.7630 C   0  0  0  0  0  0  0  0  0  0  0  0
   59.7240   27.5810   45.4210 S   0  0  0  0  0  0  0  0  0  0  0  0
   58.4970   28.6780   45.1020 C   0  0  0  0  0  0  0  0  0  0  0  0
   57.2760   28.0420   45.2260 C   0  0  0  0  0  0  0  0  0  0  0  0
   56.0580   28.7410   44.9330 N   0  0  0  0  0  0  0  0  0  0  0  0
   56.1060   30.0950   44.3720 C   0  0  0  0  0  0  0  0  0  0  0  0
   57.3430   30.8680   44.8760 C   0  0  0  0  0  0  0  0  0  0  0  0
   58.6440   30.0860   44.6200 C   0  0  0  0  0  0  0  0  0  0  0  0
   56.1750   23.5190   44.8570 C   0  0  0  0  0  0  0  0  0  0  0  0
   56.3240   22.1200   44.9250 C   0  0  0  0  0  0  0  0  0  0  0  0
   56.1060   21.3170   43.7940 O   0  0  0  0  0  0  0  0  0  0  0  0
   57.0640   21.0660   42.7710 C   0  0  0  0  0  0  0  0  0  0  0  0
   56.7000   21.5240   46.1560 C   0  0  0  0  0  0  0  0  0  0  0  0
   56.8710   20.1360   46.3330 O   0  0  0  0  0  0  0  0  0  0  0  0
   56.1520   19.1010   45.6720 C   0  0  0  0  0  0  0  0  0  0  0  0
   56.7284   21.3416   50.4379 H   0  0  0  0  0  0  0  0  0  0  0  0
   55.3885   21.5496   49.2597 H   0  0  0  0  0  0  0  0  0  0  0  0
   56.3578   20.0373   49.2597 H   0  0  0  0  0  0  0  0  0  0  0  0
   56.9584   24.3546   48.0717 H   0  0  0  0  0  0  0  0  0  0  0  0
   59.0338   25.2722   46.0579 H   0  0  0  0  0  0  0  0  0  0  0  0
   55.1490   28.2300   44.9070 H   0  0  0  0  0  0  0  0  0  0  0  0
   56.1487   30.0269   43.2749 H   0  0  0  0  0  0  0  0  0  0  0  0
   55.2040   30.6360   44.6939 H   0  0  0  0  0  0  0  0  0  0  0  0
   57.3982   31.8337   44.3521 H   0  0  0  0  0  0  0  0  0  0  0  0
   57.2380   31.0147   45.9611 H   0  0  0  0  0  0  0  0  0  0  0  0
   58.8601   30.0812   43.5414 H   0  0  0  0  0  0  0  0  0  0  0  0
   59.4692   30.5696   45.1633 H   0  0  0  0  0  0  0  0  0  0  0  0
   55.8894   23.9859   43.9028 H   0  0  0  0  0  0  0  0  0  0  0  0
   58.0315   20.8125   43.2289 H   0  0  0  0  0  0  0  0  0  0  0  0
   56.7227   20.2270   42.1469 H   0  0  0  0  0  0  0  0  0  0  0  0
   57.1779   21.9646   42.1469 H   0  0  0  0  0  0  0  0  0  0  0  0
   55.6919   18.4387   46.4201 H   0  0  0  0  0  0  0  0  0  0  0  0
   55.3665   19.5446   45.0425 H   0  0  0  0  0  0  0  0  0  0  0  0
   56.8418   18.5197   45.0425 H   0  0  0  0  0  0  0  0  0  0  0  0
  1  2  1  0
  2  3  1  0
  3  4  2  0
  4  5  1  0
  5  6  1  0
  6  7  2  0
  6  8  1  0
  8  9  2  0
  9 10  1  0
 10 11  1  0
 11 12  2  0
 12 13  1  0
 13 14  1  0
 14 15  1  0
 15 16  1  0
  5 17  2  0
 17 18  1  0
 18 19  1  0
 19 20  1  0
 18 21  2  0
 21 22  1  0
 22 23  1  0
 21  3  1  0
 12  8  1  0
 16 11  1  0
  1 24  1  0
  1 25  1  0
  1 26  1  0
  4 27  1  0
  9 28  1  0
 13 29  1  0
 14 30  1  0
 14 31  1  0
 15 32  1  0
 15 33  1  0
 16 34  1  0
 16 35  1  0
 17 36  1  0
 20 37  1  0
 20 38  1  0
 20 39  1  0
 23 40  1  0
 23 41  1  0
 23 42  1  0
M  END
>  <UniqueID>  (37) 
33

>  <SMILES>  (37) 
COc1cc(C(=O)c2csc3c2NCCC3)cc(OC)c1OC

>  <Energy>  (37) 
76.69960563059439

>  <Genealogy>  (37) 
COc1cc(C(=O)c2csc3c2NCCC3)cc(OC)c1OC (3D coordinates assigned)
COc1cc(C(=O)c2csc3c2NCCC3)cc(OC)c1OC (nonaromatic ring conformer: 76.69960563059439 kcal/mol)

>  <smiles>  (37) 
COc1cc(C(=O)c2csc3c2NCCC3)cc(OC)c1OC

>  <score_type>  (37) 
oracle

>  <origin>  (37) 
adg

>  <m_score__min__energy>  (37) 
-7.8099999999999996

>  <m_primary>  (37) 
energy

$$$$
37:0
     RDKit          3D

 32 33  0  0  0  0  0  0  0  0999 V2000
   59.6450   35.1500   46.5690 C   0  0  0  0  0  0  0  0  0  0  0  0
   59.1730   34.7370   45.2900 O   0  0  0  0  0  0  0  0  0  0  0  0
   58.5760   33.4940   45.0300 C   0  0  0  0  0  0  0  0  0  0  0  0
   58.3800   32.6150   46.0990 C   0  0  0  0  0  0  0  0  0  0  0  0
   57.7890   31.3640   45.8950 C   0  0  0  0  0  0  0  0  0  0  0  0
   57.3790   30.9660   44.6070 C   0  0  0  0  0  0  0  0  0  0  0  0
   56.7490   29.6390   44.3600 C   0  0  0  0  0  0  0  0  0  0  0  0
   55.6170   29.3890   44.8580 O   0  0  0  0  0  0  0  0  0  0  0  0
   57.3910   28.5780   43.5060 C   0  0  0  0  0  0  0  0  0  0  0  0
   58.0770   27.5210   44.3740 C   0  0  0  0  0  0  0  0  0  0  0  0
   59.0560   28.1540   45.2550 N   0  0  0  0  0  0  0  0  0  0  0  0
   60.1110   28.8970   44.8660 C   0  0  0  0  0  0  0  0  0  0  0  0
   60.7670   29.3870   45.9780 C   0  0  0  0  0  0  0  0  0  0  0  0
   60.0710   28.9290   47.0810 C   0  0  0  0  0  0  0  0  0  0  0  0
   59.0180   28.1780   46.6010 C   0  0  0  0  0  0  0  0  0  0  0  0
   57.5820   31.8550   43.5340 C   0  0  0  0  0  0  0  0  0  0  0  0
   58.1720   33.1050   43.7420 C   0  0  0  0  0  0  0  0  0  0  0  0
   59.0657   34.6431   47.3548 H   0  0  0  0  0  0  0  0  0  0  0  0
   60.7083   34.8870   46.6699 H   0  0  0  0  0  0  0  0  0  0  0  0
   59.5254   36.2388   46.6699 H   0  0  0  0  0  0  0  0  0  0  0  0
   58.6938   32.9103   47.1111 H   0  0  0  0  0  0  0  0  0  0  0  0
   57.6429   30.6846   46.7477 H   0  0  0  0  0  0  0  0  0  0  0  0
   56.6179   28.0934   42.8916 H   0  0  0  0  0  0  0  0  0  0  0  0
   58.1486   29.0528   42.8652 H   0  0  0  0  0  0  0  0  0  0  0  0
   57.3210   27.0032   44.9825 H   0  0  0  0  0  0  0  0  0  0  0  0
   58.5917   26.7989   43.7231 H   0  0  0  0  0  0  0  0  0  0  0  0
   60.4046   29.0844   43.8226 H   0  0  0  0  0  0  0  0  0  0  0  0
   61.6676   30.0185   45.9847 H   0  0  0  0  0  0  0  0  0  0  0  0
   60.3103   29.1253   48.1366 H   0  0  0  0  0  0  0  0  0  0  0  0
   58.2625   27.6754   47.2228 H   0  0  0  0  0  0  0  0  0  0  0  0
   57.2725   31.5622   42.5198 H   0  0  0  0  0  0  0  0  0  0  0  0
   58.3208   33.7878   42.8925 H   0  0  0  0  0  0  0  0  0  0  0  0
  1  2  1  0
  2  3  1  0
  3  4  2  0
  4  5  1  0
  5  6  2  0
  6  7  1  0
  7  8  2  0
  7  9  1  0
  9 10  1  0
 10 11  1  0
 11 12  1  0
 12 13  2  0
 13 14  1  0
 14 15  2  0
  6 16  1  0
 16 17  2  0
 17  3  1  0
 15 11  1  0
  1 18  1  0
  1 19  1  0
  1 20  1  0
  4 21  1  0
  5 22  1  0
  9 23  1  0
  9 24  1  0
 10 25  1  0
 10 26  1  0
 12 27  1  0
 13 28  1  0
 14 29  1  0
 15 30  1  0
 16 31  1  0
 17 32  1  0
M  END
>  <UniqueID>  (38) 
34

>  <SMILES>  (38) 
COc1ccc(C(=O)CCn2cccc2)cc1

>  <Energy>  (38) 
54.83444159485889

>  <Genealogy>  (38) 
COc1ccc(C(=O)CCn2cccc2)cc1 (3D coordinates assigned)
COc1ccc(C(=O)CCn2cccc2)cc1 (optimized conformer: 54.83444159485889 kcal/mol)

>  <smiles>  (38) 
COc1ccc(C(=O)CCn2cccc2)cc1

>  <score_type>  (38) 
oracle

>  <origin>  (38) 
adg

>  <m_score__min__energy>  (38) 
-6.0099999999999998

>  <m_primary>  (38) 
energy

$$$$
38:0
     RDKit          3D

 31 33  0  0  0  0  0  0  0  0999 V2000
   64.9120   33.4570   50.2790 C   0  0  0  0  0  0  0  0  0  0  0  0
   63.7180   33.4480   49.3710 C   0  0  0  0  0  0  0  0  0  0  0  0
   62.4810   33.9280   49.8270 C   0  0  0  0  0  0  0  0  0  0  0  0
   61.3760   33.9550   48.9710 C   0  0  0  0  0  0  0  0  0  0  0  0
   61.4960   33.5120   47.6420 C   0  0  0  0  0  0  0  0  0  0  0  0
   60.3330   33.5380   46.7330 C   0  0  0  0  0  0  0  0  0  0  0  0
   59.5470   34.6140   46.5280 N   0  0  0  0  0  0  0  0  0  0  0  0
   58.6330   34.2250   45.6550 N   0  0  0  0  0  0  0  0  0  0  0  0
   58.8810   32.9360   45.3520 C   0  0  0  0  0  0  0  0  0  0  0  0
   58.1010   32.1000   44.4120 C   0  0  0  0  0  0  0  0  0  0  0  0
   58.0920   32.4210   43.0430 C   0  0  0  0  0  0  0  0  0  0  0  0
   57.3630   31.6460   42.1370 C   0  0  0  0  0  0  0  0  0  0  0  0
   56.6330   30.5430   42.5870 C   0  0  0  0  0  0  0  0  0  0  0  0
   56.6330   30.2140   43.9430 C   0  0  0  0  0  0  0  0  0  0  0  0
   57.3610   30.9860   44.8550 C   0  0  0  0  0  0  0  0  0  0  0  0
   59.9300   32.5110   46.0160 O   0  0  0  0  0  0  0  0  0  0  0  0
   62.7390   33.0500   47.1830 C   0  0  0  0  0  0  0  0  0  0  0  0
   63.8440   33.0240   48.0410 C   0  0  0  0  0  0  0  0  0  0  0  0
   64.5761   33.4545   51.3265 H   0  0  0  0  0  0  0  0  0  0  0  0
   65.5245   32.5634   50.0882 H   0  0  0  0  0  0  0  0  0  0  0  0
   65.5110   34.3597   50.0882 H   0  0  0  0  0  0  0  0  0  0  0  0
   62.3802   34.2847   50.8627 H   0  0  0  0  0  0  0  0  0  0  0  0
   60.4076   34.3248   49.3391 H   0  0  0  0  0  0  0  0  0  0  0  0
   57.8720   34.8410   45.2940 H   0  0  0  0  0  0  0  0  0  0  0  0
   58.6633   33.2891   42.6823 H   0  0  0  0  0  0  0  0  0  0  0  0
   57.3639   31.9048   41.0679 H   0  0  0  0  0  0  0  0  0  0  0  0
   56.0587   29.9345   41.8729 H   0  0  0  0  0  0  0  0  0  0  0  0
   56.0587   29.3448   44.2962 H   0  0  0  0  0  0  0  0  0  0  0  0
   57.3555   30.7219   45.9228 H   0  0  0  0  0  0  0  0  0  0  0  0
   62.8452   32.7065   46.1434 H   0  0  0  0  0  0  0  0  0  0  0  0
   64.8167   32.6689   47.6698 H   0  0  0  0  0  0  0  0  0  0  0  0
  1  2  1  0
  2  3  2  0
  3  4  1  0
  4  5  2  0
  5  6  1  0
  6  7  2  0
  7  8  1  0
  8  9  2  0
  9 10  1  0
 10 11  2  0
 11 12  1  0
 12 13  2  0
 13 14  1  0
 14 15  2  0
  9 16  1  0
  5 17  1  0
 17 18  2  0
 18  2  1  0
 16  6  1  0
 15 10  1  0
  1 19  1  0
  1 20  1  0
  1 21  1  0
  3 22  1  0
  4 23  1  0
  8 24  1  0
 11 25  1  0
 12 26  1  0
 13 27  1  0
 14 28  1  0
 15 29  1  0
 17 30  1  0
 18 31  1  0
M  CHG  1   8   1
M  END
>  <UniqueID>  (39) 
35

>  <SMILES>  (39) 
Cc1ccc(-c2n[nH+]c(-c3ccccc3)o2)cc1

>  <Energy>  (39) 
69.22147164678991

>  <Genealogy>  (39) 
Cc1ccc(-c2n[nH+]c(-c3ccccc3)o2)cc1 (protonated)
Cc1ccc(-c2n[nH+]c(-c3ccccc3)o2)cc1 (3D coordinates assigned)
Cc1ccc(-c2n[nH+]c(-c3ccccc3)o2)cc1 (optimized conformer: 69.22147164678991 kcal/mol)

>  <smiles>  (39) 
Cc1ccc(-c2nnc(-c3ccccc3)o2)cc1

>  <score_type>  (39) 
oracle

>  <origin>  (39) 
adg

>  <m_score__min__energy>  (39) 
-5.4900000000000002

>  <m_primary>  (39) 
energy

$$$$
39:0
     RDKit          3D

 41 44  0  0  0  0  0  0  0  0999 V2000
   60.7600   27.7000   49.8910 C   0  0  0  0  0  0  0  0  0  0  0  0
   60.1860   26.9210   48.8480 O   0  0  0  0  0  0  0  0  0  0  0  0
   59.3650   27.4700   47.8590 C   0  0  0  0  0  0  0  0  0  0  0  0
   59.2660   28.8160   47.7480 N   0  0  0  0  0  0  0  0  0  0  0  0
   58.4860   29.4020   46.8010 C   0  0  0  0  0  0  0  0  0  0  0  0
   58.3870   30.9070   46.8030 C   0  0  0  0  0  0  0  0  0  0  0  0
   59.7440   31.5360   46.9200 C   0  0  0  0  0  0  0  0  0  0  0  0
   60.0970   32.7850   46.4100 C   0  0  0  0  0  0  0  0  0  0  0  0
   61.4300   32.9300   46.7270 C   0  0  0  0  0  0  0  0  0  0  0  0
   62.3210   33.9650   46.4640 C   0  0  0  0  0  0  0  0  0  0  0  0
   63.6420   33.8050   46.9210 C   0  0  0  0  0  0  0  0  0  0  0  0
   64.0130   32.6680   47.5940 N   0  0  0  0  0  0  0  0  0  0  0  0
   63.1270   31.6580   47.8440 C   0  0  0  0  0  0  0  0  0  0  0  0
   61.8180   31.8060   47.3980 C   0  0  0  0  0  0  0  0  0  0  0  0
   60.7980   30.9440   47.5300 N   0  0  0  0  0  0  0  0  0  0  0  0
   57.7500   28.5870   45.9070 C   0  0  0  0  0  0  0  0  0  0  0  0
   56.8700   29.1580   44.8620 C   0  0  0  0  0  0  0  0  0  0  0  0
   57.2780   29.8430   43.7410 C   0  0  0  0  0  0  0  0  0  0  0  0
   56.1950   30.2030   43.0320 N   0  0  0  0  0  0  0  0  0  0  0  0
   55.1570   29.7270   43.7510 C   0  0  0  0  0  0  0  0  0  0  0  0
   55.5280   29.0820   44.8770 N   0  0  0  0  0  0  0  0  0  0  0  0
   57.8650   27.1910   46.0450 C   0  0  0  0  0  0  0  0  0  0  0  0
   57.1690   26.3400   45.1780 O   0  0  0  0  0  0  0  0  0  0  0  0
   56.4550   25.1950   45.6300 C   0  0  0  0  0  0  0  0  0  0  0  0
   58.6670   26.6710   47.0120 N   0  0  0  0  0  0  0  0  0  0  0  0
   60.4569   27.2887   50.8651 H   0  0  0  0  0  0  0  0  0  0  0  0
   61.8565   27.6740   49.8071 H   0  0  0  0  0  0  0  0  0  0  0  0
   60.4104   28.7396   49.8071 H   0  0  0  0  0  0  0  0  0  0  0  0
   57.9172   31.2376   45.8650 H   0  0  0  0  0  0  0  0  0  0  0  0
   57.7819   31.2168   47.6678 H   0  0  0  0  0  0  0  0  0  0  0  0
   59.4533   33.4973   45.8731 H   0  0  0  0  0  0  0  0  0  0  0  0
   62.0066   34.8693   45.9223 H   0  0  0  0  0  0  0  0  0  0  0  0
   64.3829   34.5971   46.7375 H   0  0  0  0  0  0  0  0  0  0  0  0
   65.0000   32.5720   47.9220 H   0  0  0  0  0  0  0  0  0  0  0  0
   63.4408   30.7522   48.3835 H   0  0  0  0  0  0  0  0  0  0  0  0
   60.8170   30.0100   47.9970 H   0  0  0  0  0  0  0  0  0  0  0  0
   58.3214   30.0607   43.4692 H   0  0  0  0  0  0  0  0  0  0  0  0
   54.1071   29.8529   43.4478 H   0  0  0  0  0  0  0  0  0  0  0  0
   56.4453   25.1795   46.7298 H   0  0  0  0  0  0  0  0  0  0  0  0
   55.4218   25.2355   45.2548 H   0  0  0  0  0  0  0  0  0  0  0  0
   56.9460   24.2850   45.2548 H   0  0  0  0  0  0  0  0  0  0  0  0
  1  2  1  0
  2  3  1  0
  3  4  2  0
  4  5  1  0
  5  6  1  0
  6  7  1  0
  7  8  2  0
  8  9  1  0
  9 10  2  0
 10 11  1  0
 11 12  2  0
 12 13  1  0
 13 14  2  0
 14 15  1  0
  5 16  2  0
 16 17  1  0
 17 18  2  0
 18 19  1  0
 19 20  1  0
 20 21  2  0
 16 22  1  0
 22 23  1  0
 23 24  1  0
 22 25  2  0
 25  3  1  0
 15  7  1  0
 21 17  1  0
 14  9  1  0
  1 26  1  0
  1 27  1  0
  1 28  1  0
  6 29  1  0
  6 30  1  0
  8 31  1  0
 10 32  1  0
 11 33  1  0
 12 34  1  0
 13 35  1  0
 15 36  1  0
 18 37  1  0
 20 38  1  0
 24 39  1  0
 24 40  1  0
 24 41  1  0
M  CHG  2  12   1  19  -1
M  END
>  <UniqueID>  (40) 
36

>  <SMILES>  (40) 
COc1nc(Cc2cc3cc[nH+]cc3[nH]2)c(-c2c[n-]cn2)c(OC)n1

>  <Energy>  (40) 
106.43145465428732

>  <Genealogy>  (40) 
COc1nc(Cc2cc3cc[nH+]cc3[nH]2)c(-c2c[n-]cn2)c(OC)n1 (protonated)
COc1nc(Cc2cc3cc[nH+]cc3[nH]2)c(-c2c[n-]cn2)c(OC)n1 (3D coordinates assigned)
COc1nc(Cc2cc3cc[nH+]cc3[nH]2)c(-c2c[n-]cn2)c(OC)n1 (optimized conformer: 106.43145465428732 kcal/mol)

>  <smiles>  (40) 
COc1nc(Cc2cc3ccncc3[nH]2)c(-c2c[nH]cn2)c(OC)n1

>  <score_type>  (40) 
oracle

>  <origin>  (40) 
adg

>  <m_score__min__energy>  (40) 
-6.9199999999999999

>  <m_primary>  (40) 
energy

$$$$
40:0
     RDKit          3D

 35 37  0  0  0  0  0  0  0  0999 V2000
   60.3030   26.1470   46.5860 C   0  0  0  0  0  0  0  0  0  0  0  0
   59.0790   26.9080   46.1720 C   0  0  0  0  0  0  0  0  0  0  0  0
   57.8030   26.3780   46.4060 C   0  0  0  0  0  0  0  0  0  0  0  0
   56.6620   27.0690   45.9860 C   0  0  0  0  0  0  0  0  0  0  0  0
   56.7810   28.2970   45.3080 C   0  0  0  0  0  0  0  0  0  0  0  0
   55.6290   29.0350   44.8570 N   0  0  0  0  0  0  0  0  0  0  0  0
   55.6190   29.9300   43.6990 C   0  0  0  0  0  0  0  0  0  0  0  0
   56.5770   31.0670   43.9030 C   0  0  0  0  0  0  0  0  0  0  0  0
   57.3140   31.5800   42.8250 C   0  0  0  0  0  0  0  0  0  0  0  0
   58.1890   32.6470   43.0340 C   0  0  0  0  0  0  0  0  0  0  0  0
   58.3260   33.1960   44.3150 C   0  0  0  0  0  0  0  0  0  0  0  0
   59.1940   34.2700   44.5600 C   0  0  0  0  0  0  0  0  0  0  0  0
   59.3060   34.7970   45.8500 C   0  0  0  0  0  0  0  0  0  0  0  0
   58.5550   34.2560   46.8990 C   0  0  0  0  0  0  0  0  0  0  0  0
   57.6870   33.1850   46.6640 C   0  0  0  0  0  0  0  0  0  0  0  0
   57.5690   32.6510   45.3750 C   0  0  0  0  0  0  0  0  0  0  0  0
   56.7250   31.6110   45.1420 N   0  0  0  0  0  0  0  0  0  0  0  0
   58.0640   28.8180   45.0680 C   0  0  0  0  0  0  0  0  0  0  0  0
   59.2030   28.1270   45.4880 C   0  0  0  0  0  0  0  0  0  0  0  0
   60.3591   26.1121   47.6840 H   0  0  0  0  0  0  0  0  0  0  0  0
   60.2496   25.1226   46.1888 H   0  0  0  0  0  0  0  0  0  0  0  0
   61.1981   26.6481   46.1888 H   0  0  0  0  0  0  0  0  0  0  0  0
   57.6983   25.4128   46.9231 H   0  0  0  0  0  0  0  0  0  0  0  0
   55.6649   26.6502   46.1868 H   0  0  0  0  0  0  0  0  0  0  0  0
   54.7460   28.9680   45.4140 H   0  0  0  0  0  0  0  0  0  0  0  0
   55.9140   29.3649   42.8026 H   0  0  0  0  0  0  0  0  0  0  0  0
   54.6051   30.3381   43.5745 H   0  0  0  0  0  0  0  0  0  0  0  0
   57.2029   31.1439   41.8213 H   0  0  0  0  0  0  0  0  0  0  0  0
   58.7699   33.0559   42.1942 H   0  0  0  0  0  0  0  0  0  0  0  0
   59.7864   34.6975   43.7376 H   0  0  0  0  0  0  0  0  0  0  0  0
   59.9868   35.6397   46.0408 H   0  0  0  0  0  0  0  0  0  0  0  0
   58.6476   34.6744   47.9121 H   0  0  0  0  0  0  0  0  0  0  0  0
   57.0975   32.7625   47.4910 H   0  0  0  0  0  0  0  0  0  0  0  0
   58.1723   29.7793   44.5443 H   0  0  0  0  0  0  0  0  0  0  0  0
   60.2014   28.5401   45.2817 H   0  0  0  0  0  0  0  0  0  0  0  0
  1  2  1  0
  2  3  2  0
  3  4  1  0
  4  5  2  0
  5  6  1  0
  6  7  1  0
  7  8  1  0
  8  9  2  0
  9 10  1  0
 10 11  2  0
 11 12  1  0
 12 13  2  0
 13 14  1  0
 14 15  2  0
 15 16  1  0
 16 17  2  0
  5 18  1  0
 18 19  2  0
 19  2  1  0
 17  8  1  0
 16 11  1  0
  1 20  1  0
  1 21  1  0
  1 22  1  0
  3 23  1  0
  4 24  1  0
  6 25  1  0
  7 26  1  0
  7 27  1  0
  9 28  1  0
 10 29  1  0
 12 30  1  0
 13 31  1  0
 14 32  1  0
 15 33  1  0
 18 34  1  0
 19 35  1  0
M  END
>  <UniqueID>  (41) 
37

>  <SMILES>  (41) 
Cc1ccc(NCc2ccc3ccccc3n2)cc1

>  <Energy>  (41) 
38.41979364917034

>  <Genealogy>  (41) 
Cc1ccc(NCc2ccc3ccccc3n2)cc1 (3D coordinates assigned)
Cc1ccc(NCc2ccc3ccccc3n2)cc1 (optimized conformer: 38.41979364917034 kcal/mol)

>  <smiles>  (41) 
Cc1ccc(NCc2ccc3ccccc3n2)cc1

>  <score_type>  (41) 
oracle

>  <origin>  (41) 
adg

>  <m_score__min__energy>  (41) 
-8.7200000000000006

>  <m_primary>  (41) 
energy

$$$$
41:0
     RDKit          3D

 25 27  0  0  0  0  0  0  0  0999 V2000
   63.1170   33.2960   46.7590 C   0  0  0  0  0  0  0  0  0  0  0  0
   63.6850   33.0870   48.0160 C   0  0  0  0  0  0  0  0  0  0  0  0
   62.9960   33.4230   49.1380 N   0  0  0  0  0  0  0  0  0  0  0  0
   61.7520   33.9690   49.0780 C   0  0  0  0  0  0  0  0  0  0  0  0
   61.1420   34.2060   47.8340 C   0  0  0  0  0  0  0  0  0  0  0  0
   59.8130   34.7550   47.7580 N   0  0  0  0  0  0  0  0  0  0  0  0
   59.0140   33.9620   46.8570 C   0  0  0  0  0  0  0  0  0  0  0  0
   58.3210   34.5830   45.7780 C   0  0  0  0  0  0  0  0  0  0  0  0
   57.5120   33.8230   44.9110 C   0  0  0  0  0  0  0  0  0  0  0  0
   57.4180   32.4590   45.1570 C   0  0  0  0  0  0  0  0  0  0  0  0
   56.7210   31.5270   44.4930 N   0  0  0  0  0  0  0  0  0  0  0  0
   56.9720   30.4140   45.1390 O   0  0  0  0  0  0  0  0  0  0  0  0
   57.7750   30.5530   46.1660 N   0  0  0  0  0  0  0  0  0  0  0  0
   58.0660   31.8620   46.1840 C   0  0  0  0  0  0  0  0  0  0  0  0
   58.8750   32.5680   47.0660 C   0  0  0  0  0  0  0  0  0  0  0  0
   61.8410   33.8540   46.6670 C   0  0  0  0  0  0  0  0  0  0  0  0
   63.6701   33.0233   45.8481 H   0  0  0  0  0  0  0  0  0  0  0  0
   64.6911   32.6500   48.0989 H   0  0  0  0  0  0  0  0  0  0  0  0
   61.2211   34.2262   50.0065 H   0  0  0  0  0  0  0  0  0  0  0  0
   59.8510   35.7470   47.4250 H   0  0  0  0  0  0  0  0  0  0  0  0
   59.3740   34.7700   48.7080 H   0  0  0  0  0  0  0  0  0  0  0  0
   58.4188   35.6673   45.6205 H   0  0  0  0  0  0  0  0  0  0  0  0
   56.9758   34.2910   44.0723 H   0  0  0  0  0  0  0  0  0  0  0  0
   59.3890   32.0624   47.8968 H   0  0  0  0  0  0  0  0  0  0  0  0
   61.3825   34.0182   45.6807 H   0  0  0  0  0  0  0  0  0  0  0  0
  1  2  2  0
  2  3  1  0
  3  4  2  0
  4  5  1  0
  5  6  1  0
  6  7  1  0
  7  8  1  0
  8  9  2  0
  9 10  1  0
 10 11  2  0
 11 12  1  0
 12 13  1  0
 13 14  2  0
 14 15  1  0
  5 16  2  0
 16  1  1  0
 15  7  2  0
 14 10  1  0
  1 17  1  0
  2 18  1  0
  4 19  1  0
  6 20  1  0
  6 21  1  0
  8 22  1  0
  9 23  1  0
 15 24  1  0
 16 25  1  0
M  CHG  1   6   1
M  END
>  <UniqueID>  (42) 
38

>  <SMILES>  (42) 
c1cncc([NH2+]c2ccc3nonc3c2)c1

>  <Energy>  (42) 
73.45266206006771

>  <Genealogy>  (42) 
c1cncc([NH2+]c2ccc3nonc3c2)c1 (protonated)
c1cncc([NH2+]c2ccc3nonc3c2)c1 (3D coordinates assigned)
c1cncc([NH2+]c2ccc3nonc3c2)c1 (optimized conformer: 73.45266206006771 kcal/mol)

>  <smiles>  (42) 
c1cncc(Nc2ccc3nonc3c2)c1

>  <score_type>  (42) 
oracle

>  <origin>  (42) 
adg

>  <m_score__min__energy>  (42) 
-5.5199999999999996

>  <m_primary>  (42) 
energy

$$$$
42:0
     RDKit          3D

 28 29  0  0  0  0  0  0  0  0999 V2000
   57.4000   31.8740   42.1790 C   0  0  0  0  0  0  0  0  0  0  0  0
   57.4970   30.6910   43.0470 N   0  0  0  0  0  0  0  0  0  0  0  0
   56.2630   29.8930   42.9860 C   0  0  0  0  0  0  0  0  0  0  0  0
   57.7910   31.0810   44.4120 C   0  0  0  0  0  0  0  0  0  0  0  0
   57.9890   30.1980   45.4130 C   0  0  0  0  0  0  0  0  0  0  0  0
   58.5230   30.8790   46.6570 C   0  0  0  0  0  0  0  0  0  0  0  0
   58.1460   32.3100   46.3260 C   0  0  1  0  0  0  0  0  0  0  0  0
   58.7970   33.5590   46.7590 C   0  0  0  0  0  0  0  0  0  0  0  0
   59.2800   33.7570   47.8620 O   0  0  0  0  0  0  0  0  0  0  0  0
   58.6580   34.5930   45.6720 C   0  0  0  0  0  0  0  0  0  0  0  0
   58.0210   33.8010   44.4950 C   0  0  0  0  0  0  0  0  0  0  0  0
   58.4050   32.3710   44.8480 C   0  0  2  0  0  0  0  0  0  0  0  0
   57.3258   32.7791   42.7997 H   0  0  0  0  0  0  0  0  0  0  0  0
   58.2960   31.9373   41.5440 H   0  0  0  0  0  0  0  0  0  0  0  0
   56.5057   31.7905   41.5440 H   0  0  0  0  0  0  0  0  0  0  0  0
   58.2770   30.0870   42.6910 H   0  0  0  0  0  0  0  0  0  0  0  0
   55.9193   29.6707   44.0070 H   0  0  0  0  0  0  0  0  0  0  0  0
   55.4857   30.4599   42.4527 H   0  0  0  0  0  0  0  0  0  0  0  0
   56.4611   28.9516   42.4527 H   0  0  0  0  0  0  0  0  0  0  0  0
   57.7880   29.1193   45.3357 H   0  0  0  0  0  0  0  0  0  0  0  0
   58.0232   30.5215   47.5694 H   0  0  0  0  0  0  0  0  0  0  0  0
   59.5888   30.7080   46.8688 H   0  0  0  0  0  0  0  0  0  0  0  0
   57.1825   32.3719   46.8531 H   0  0  0  0  0  0  0  0  0  0  0  0
   58.0015   35.4151   45.9933 H   0  0  0  0  0  0  0  0  0  0  0  0
   59.6157   35.0626   45.4031 H   0  0  0  0  0  0  0  0  0  0  0  0
   56.9288   33.9290   44.4692 H   0  0  0  0  0  0  0  0  0  0  0  0
   58.3621   34.1243   43.5005 H   0  0  0  0  0  0  0  0  0  0  0  0
   59.3678   32.3304   44.3176 H   0  0  0  0  0  0  0  0  0  0  0  0
  1  2  1  0
  2  3  1  0
  2  4  1  0
  4  5  2  0
  5  6  1  0
  6  7  1  0
  7  8  1  0
  8  9  2  0
  8 10  1  0
 10 11  1  0
 11 12  1  0
 12  4  1  0
 12  7  1  0
  1 13  1  0
  1 14  1  0
  1 15  1  0
  2 16  1  0
  3 17  1  0
  3 18  1  0
  3 19  1  0
  5 20  1  0
  6 21  1  0
  6 22  1  0
  7 23  1  6
 10 24  1  0
 10 25  1  0
 11 26  1  0
 11 27  1  0
 12 28  1  1
M  CHG  1   2   1
M  END
>  <UniqueID>  (43) 
39

>  <SMILES>  (43) 
C[NH+](C)C1=CC[C@H]2C(=O)CC[C@H]12

>  <Energy>  (43) 
73.39729103508563

>  <Genealogy>  (43) 
C[NH+](C)C1=CCC2C(=O)CCC12 (protonated)
C[NH+](C)C1=CC[C@H]2C(=O)CC[C@H]12 (chirality)
C[NH+](C)C1=CC[C@H]2C(=O)CC[C@H]12 (3D coordinates assigned)
C[NH+](C)C1=CC[C@H]2C(=O)CC[C@H]12 (nonaromatic ring conformer: 73.39729103508563 kcal/mol)

>  <smiles>  (43) 
CN(C)C1=CCC2C(=O)CCC12

>  <score_type>  (43) 
oracle

>  <origin>  (43) 
adg

>  <m_score__min__energy>  (43) 
-4.04

>  <m_primary>  (43) 
energy

$$$$
43:0
     RDKit          3D

 36 38  0  0  0  0  0  0  0  0999 V2000
   58.4940   30.9400   49.1640 F   0  0  0  0  0  0  0  0  0  0  0  0
   59.5090   30.0180   48.9760 C   0  0  0  0  0  0  0  0  0  0  0  0
   60.7010   30.6060   49.3600 F   0  0  0  0  0  0  0  0  0  0  0  0
   59.2720   28.9150   49.7750 F   0  0  0  0  0  0  0  0  0  0  0  0
   59.5660   29.5820   47.5330 C   0  0  0  0  0  0  0  0  0  0  0  0
   60.7400   29.7530   46.7810 C   0  0  0  0  0  0  0  0  0  0  0  0
   60.7930   29.3360   45.4490 C   0  0  0  0  0  0  0  0  0  0  0  0
   59.6800   28.7360   44.8560 C   0  0  0  0  0  0  0  0  0  0  0  0
   58.5050   28.5370   45.5970 C   0  0  0  0  0  0  0  0  0  0  0  0
   57.2850   27.9580   44.9290 C   0  0  0  0  0  0  0  0  0  0  0  0
   57.1240   28.5250   43.5770 N   0  0  0  0  0  0  0  0  0  0  0  0
   56.2740   29.7260   43.5600 C   0  0  0  0  0  0  0  0  0  0  0  0
   57.0810   30.9670   43.8000 C   0  0  0  0  0  0  0  0  0  0  0  0
   57.5560   31.8240   42.8330 C   0  0  0  0  0  0  0  0  0  0  0  0
   58.1550   32.8130   43.4500 O   0  0  0  0  0  0  0  0  0  0  0  0
   58.0590   32.5800   44.7400 C   0  0  0  0  0  0  0  0  0  0  0  0
   58.5620   33.4960   45.7670 C   0  0  0  0  0  0  0  0  0  0  0  0
   59.2400   34.6860   45.5370 C   0  0  0  0  0  0  0  0  0  0  0  0
   59.6460   35.3230   46.7150 C   0  0  0  0  0  0  0  0  0  0  0  0
   59.2930   34.6360   47.8700 C   0  0  0  0  0  0  0  0  0  0  0  0
   58.4780   33.2340   47.4240 S   0  0  0  0  0  0  0  0  0  0  0  0
   57.4110   31.4300   45.0200 N   0  0  0  0  0  0  0  0  0  0  0  0
   58.4620   28.9400   46.9420 C   0  0  0  0  0  0  0  0  0  0  0  0
   61.6229   30.2181   47.2438 H   0  0  0  0  0  0  0  0  0  0  0  0
   61.7141   29.4806   44.8653 H   0  0  0  0  0  0  0  0  0  0  0  0
   59.7246   28.4181   43.8039 H   0  0  0  0  0  0  0  0  0  0  0  0
   57.3962   26.8662   44.8537 H   0  0  0  0  0  0  0  0  0  0  0  0
   56.3970   28.2059   45.5290 H   0  0  0  0  0  0  0  0  0  0  0  0
   56.6430   27.8030   42.9900 H   0  0  0  0  0  0  0  0  0  0  0  0
   55.7814   29.8027   42.5794 H   0  0  0  0  0  0  0  0  0  0  0  0
   55.5283   29.6355   44.3636 H   0  0  0  0  0  0  0  0  0  0  0  0
   57.4521   31.7015   41.7448 H   0  0  0  0  0  0  0  0  0  0  0  0
   59.4376   35.0868   44.5319 H   0  0  0  0  0  0  0  0  0  0  0  0
   60.1929   36.2774   46.7256 H   0  0  0  0  0  0  0  0  0  0  0  0
   59.5096   34.9547   48.9003 H   0  0  0  0  0  0  0  0  0  0  0  0
   57.5572   28.7520   47.5386 H   0  0  0  0  0  0  0  0  0  0  0  0
  1  2  1  0
  2  3  1  0
  2  4  1  0
  2  5  1  0
  5  6  2  0
  6  7  1  0
  7  8  2  0
  8  9  1  0
  9 10  1  0
 10 11  1  0
 11 12  1  0
 12 13  1  0
 13 14  2  0
 14 15  1  0
 15 16  1  0
 16 17  1  0
 17 18  2  0
 18 19  1  0
 19 20  2  0
 20 21  1  0
 16 22  2  0
  9 23  2  0
 23  5  1  0
 22 13  1  0
 21 17  1  0
  6 24  1  0
  7 25  1  0
  8 26  1  0
 10 27  1  0
 10 28  1  0
 11 29  1  0
 12 30  1  0
 12 31  1  0
 14 32  1  0
 18 33  1  0
 19 34  1  0
 20 35  1  0
 23 36  1  0
M  END
>  <UniqueID>  (44) 
40

>  <SMILES>  (44) 
FC(F)(F)c1cccc(CNCc2coc(-c3cccs3)n2)c1

>  <Energy>  (44) 
88.13642850601815

>  <Genealogy>  (44) 
FC(F)(F)c1cccc(CNCc2coc(-c3cccs3)n2)c1 (3D coordinates assigned)
FC(F)(F)c1cccc(CNCc2coc(-c3cccs3)n2)c1 (optimized conformer: 88.13642850601815 kcal/mol)

>  <smiles>  (44) 
FC(F)(F)c1cccc(CNCc2coc(-c3cccs3)n2)c1

>  <score_type>  (44) 
oracle

>  <origin>  (44) 
adg

>  <m_score__min__energy>  (44) 
-7.1500000000000004

>  <m_primary>  (44) 
energy

$$$$
44:0
     RDKit          3D

 46 48  0  0  0  0  0  0  0  0999 V2000
   58.1070   32.3700   42.4880 C   0  0  0  0  0  0  0  0  0  0  0  0
   58.0120   32.8390   43.9040 C   0  0  0  0  0  0  0  0  0  0  0  0
   58.1320   34.1020   44.2470 O   0  0  0  0  0  0  0  0  0  0  0  0
   58.0450   34.1990   45.5540 C   0  0  0  0  0  0  0  0  0  0  0  0
   57.8590   32.9480   46.1040 C   0  0  0  0  0  0  0  0  0  0  0  0
   57.8150   32.0660   45.0420 C   0  0  0  0  0  0  0  0  0  0  0  0
   57.6540   30.6040   45.1590 C   0  0  0  0  0  0  0  0  0  0  0  0
   56.5270   30.1010   44.9080 O   0  0  0  0  0  0  0  0  0  0  0  0
   58.7580   29.7630   45.5390 N   0  0  0  0  0  0  0  0  0  0  0  0
   58.6510   28.3490   45.7710 C   0  0  0  0  0  0  0  0  0  0  0  0
   59.8180   27.5710   45.7990 C   0  0  0  0  0  0  0  0  0  0  0  0
   59.7440   26.1900   45.9980 C   0  0  0  0  0  0  0  0  0  0  0  0
   58.5020   25.5700   46.1460 C   0  0  0  0  0  0  0  0  0  0  0  0
   57.3230   26.3260   46.0810 C   0  0  0  0  0  0  0  0  0  0  0  0
   56.0070   25.6730   46.2250 C   0  0  0  0  0  0  0  0  0  0  0  0
   54.9670   26.3430   45.9800 O   0  0  0  0  0  0  0  0  0  0  0  0
   55.8890   24.2930   46.6270 N   0  0  0  0  0  0  0  0  0  0  0  0
   56.6290   23.8370   47.8060 C   0  0  0  0  0  0  0  0  0  0  0  0
   54.9310   23.3940   45.9600 C   0  0  0  0  0  0  0  0  0  0  0  0
   55.5240   22.8460   44.6900 C   0  0  0  0  0  0  0  0  0  0  0  0
   55.7790   23.5770   43.5470 C   0  0  0  0  0  0  0  0  0  0  0  0
   56.2960   22.6580   42.6560 C   0  0  0  0  0  0  0  0  0  0  0  0
   56.3410   21.4410   43.2330 N   0  0  0  0  0  0  0  0  0  0  0  0
   55.8700   21.5620   44.4640 N   0  0  0  0  0  0  0  0  0  0  0  0
   55.7510   20.4410   45.3910 C   0  0  0  0  0  0  0  0  0  0  0  0
   57.4010   27.7160   45.9000 C   0  0  0  0  0  0  0  0  0  0  0  0
   58.3254   31.2920   42.4727 H   0  0  0  0  0  0  0  0  0  0  0  0
   57.1525   32.5581   41.9746 H   0  0  0  0  0  0  0  0  0  0  0  0
   58.9130   32.9147   41.9746 H   0  0  0  0  0  0  0  0  0  0  0  0
   58.1106   35.1373   46.1244 H   0  0  0  0  0  0  0  0  0  0  0  0
   57.7648   32.7024   47.1721 H   0  0  0  0  0  0  0  0  0  0  0  0
   59.6870   30.2030   45.7140 H   0  0  0  0  0  0  0  0  0  0  0  0
   60.7982   28.0515   45.6633 H   0  0  0  0  0  0  0  0  0  0  0  0
   60.6655   25.5906   46.0381 H   0  0  0  0  0  0  0  0  0  0  0  0
   58.4481   24.4843   46.3142 H   0  0  0  0  0  0  0  0  0  0  0  0
   56.1036   24.1608   48.7165 H   0  0  0  0  0  0  0  0  0  0  0  0
   56.6984   22.7393   47.7934 H   0  0  0  0  0  0  0  0  0  0  0  0
   57.6407   24.2685   47.7934 H   0  0  0  0  0  0  0  0  0  0  0  0
   54.6856   22.5606   46.6347 H   0  0  0  0  0  0  0  0  0  0  0  0
   54.0211   23.9609   45.7138 H   0  0  0  0  0  0  0  0  0  0  0  0
   55.6084   24.6512   43.3830 H   0  0  0  0  0  0  0  0  0  0  0  0
   56.6219   22.8848   41.6302 H   0  0  0  0  0  0  0  0  0  0  0  0
   55.7906   20.8144   46.4249 H   0  0  0  0  0  0  0  0  0  0  0  0
   54.7932   19.9267   45.2234 H   0  0  0  0  0  0  0  0  0  0  0  0
   56.5795   19.7370   45.2234 H   0  0  0  0  0  0  0  0  0  0  0  0
   56.4788   28.3142   45.8588 H   0  0  0  0  0  0  0  0  0  0  0  0
  1  2  1  0
  2  3  1  0
  3  4  1  0
  4  5  2  0
  5  6  1  0
  6  7  1  0
  7  8  2  0
  7  9  1  0
  9 10  1  0
 10 11  2  0
 11 12  1  0
 12 13  2  0
 13 14  1  0
 14 15  1  0
 15 16  2  0
 15 17  1  0
 17 18  1  0
 17 19  1  0
 19 20  1  0
 20 21  2  0
 21 22  1  0
 22 23  2  0
 23 24  1  0
 24 25  1  0
 14 26  2  0
  6  2  2  0
 26 10  1  0
 24 20  1  0
  1 27  1  0
  1 28  1  0
  1 29  1  0
  4 30  1  0
  5 31  1  0
  9 32  1  0
 11 33  1  0
 12 34  1  0
 13 35  1  0
 18 36  1  0
 18 37  1  0
 18 38  1  0
 19 39  1  0
 19 40  1  0
 21 41  1  0
 22 42  1  0
 25 43  1  0
 25 44  1  0
 25 45  1  0
 26 46  1  0
M  END
>  <UniqueID>  (45) 
41

>  <SMILES>  (45) 
Cc1occc1C(=O)Nc1cccc(C(=O)N(C)Cc2ccnn2C)c1

>  <Energy>  (45) 
110.5094166064098

>  <Genealogy>  (45) 
Cc1occc1C(=O)Nc1cccc(C(=O)N(C)Cc2ccnn2C)c1 (3D coordinates assigned)
Cc1occc1C(=O)Nc1cccc(C(=O)N(C)Cc2ccnn2C)c1 (optimized conformer: 110.5094166064098 kcal/mol)

>  <smiles>  (45) 
Cc1occc1C(=O)Nc1cccc(C(=O)N(C)Cc2ccnn2C)c1

>  <score_type>  (45) 
oracle

>  <origin>  (45) 
adg

>  <m_score__min__energy>  (45) 
-8.2699999999999996

>  <m_primary>  (45) 
energy

$$$$
45:0
     RDKit          3D

 38 39  0  0  0  0  0  0  0  0999 V2000
   59.3780   30.1010   48.1670 C   0  0  0  0  0  0  0  0  0  0  0  0
   59.1080   30.2260   46.7330 N   0  0  0  0  0  0  0  0  0  0  0  0
   59.2530   29.0810   45.8730 C   0  0  0  0  0  0  0  0  0  0  0  0
   59.9290   29.1760   44.8120 O   0  0  0  0  0  0  0  0  0  0  0  0
   58.6460   27.8290   46.2340 N   0  0  0  0  0  0  0  0  0  0  0  0
   58.3490   26.7850   45.2900 C   0  0  0  0  0  0  0  0  0  0  0  0
   58.7240   26.8940   44.0900 O   0  0  0  0  0  0  0  0  0  0  0  0
   57.6120   25.5690   45.7090 C   0  0  0  0  0  0  0  0  0  0  0  0
   56.2250   25.6360   45.9600 C   0  0  0  0  0  0  0  0  0  0  0  0
   55.5440   26.7970   45.7920 F   0  0  0  0  0  0  0  0  0  0  0  0
   55.5250   24.4950   46.3630 C   0  0  0  0  0  0  0  0  0  0  0  0
   56.1930   23.2810   46.5270 C   0  0  0  0  0  0  0  0  0  0  0  0
   57.5670   23.2040   46.2930 C   0  0  0  0  0  0  0  0  0  0  0  0
   58.2790   24.3370   45.8880 C   0  0  0  0  0  0  0  0  0  0  0  0
   59.6210   24.2330   45.7180 F   0  0  0  0  0  0  0  0  0  0  0  0
   58.8150   31.5210   46.1820 C   0  0  0  0  0  0  0  0  0  0  0  0
   59.6590   32.5590   46.4370 N   0  0  0  0  0  0  0  0  0  0  0  0
   59.4310   33.8100   45.9560 C   0  0  0  0  0  0  0  0  0  0  0  0
   58.3050   34.0620   45.1750 C   0  0  0  0  0  0  0  0  0  0  0  0
   57.4260   33.0190   44.8820 C   0  0  0  0  0  0  0  0  0  0  0  0
   57.6750   31.7280   45.3760 C   0  0  0  0  0  0  0  0  0  0  0  0
   56.8240   30.6150   45.0590 N   0  0  0  0  0  0  0  0  0  0  0  0
   56.3990   30.0680   43.4690 S   0  0  0  0  0  0  0  0  0  0  0  0
   57.3680   28.7050   43.0260 N   0  0  0  0  0  0  0  0  0  0  0  0
   56.6510   31.1810   42.4930 O   0  0  0  0  0  0  0  0  0  0  0  0
   54.9420   29.7060   43.4200 O   0  0  0  0  0  0  0  0  0  0  0  0
   58.5241   30.4963   48.7367 H   0  0  0  0  0  0  0  0  0  0  0  0
   59.5290   29.0414   48.4207 H   0  0  0  0  0  0  0  0  0  0  0  0
   60.2837   30.6714   48.4207 H   0  0  0  0  0  0  0  0  0  0  0  0
   58.4210   27.6770   47.2400 H   0  0  0  0  0  0  0  0  0  0  0  0
   54.4429   24.5545   46.5516 H   0  0  0  0  0  0  0  0  0  0  0  0
   55.6371   22.3851   46.8405 H   0  0  0  0  0  0  0  0  0  0  0  0
   58.0922   22.2470   46.4279 H   0  0  0  0  0  0  0  0  0  0  0  0
   60.1357   34.6235   46.1835 H   0  0  0  0  0  0  0  0  0  0  0  0
   58.1107   35.0749   44.7926 H   0  0  0  0  0  0  0  0  0  0  0  0
   56.5365   33.2080   44.2631 H   0  0  0  0  0  0  0  0  0  0  0  0
   58.3320   28.8900   43.3810 H   0  0  0  0  0  0  0  0  0  0  0  0
   57.0040   27.8790   43.5500 H   0  0  0  0  0  0  0  0  0  0  0  0
  1  2  1  0
  2  3  1  0
  3  4  2  0
  3  5  1  0
  5  6  1  0
  6  7  2  0
  6  8  1  0
  8  9  2  0
  9 10  1  0
  9 11  1  0
 11 12  2  0
 12 13  1  0
 13 14  2  0
 14 15  1  0
  2 16  1  0
 16 17  2  0
 17 18  1  0
 18 19  2  0
 19 20  1  0
 20 21  2  0
 21 22  1  0
 22 23  1  0
 23 24  1  0
 23 25  2  0
 23 26  2  0
 14  8  1  0
 21 16  1  0
  1 27  1  0
  1 28  1  0
  1 29  1  0
  5 30  1  0
 11 31  1  0
 12 32  1  0
 13 33  1  0
 18 34  1  0
 19 35  1  0
 20 36  1  0
 24 37  1  0
 24 38  1  0
M  CHG  1  22  -1
M  END
>  <UniqueID>  (46) 
42

>  <SMILES>  (46) 
CN(C(=O)NC(=O)c1c(F)cccc1F)c1ncccc1[N-]S(N)(=O)=O

>  <Energy>  (46) 
49.33134001120853

>  <Genealogy>  (46) 
CN(C(=O)NC(=O)c1c(F)cccc1F)c1ncccc1[N-]S(N)(=O)=O (protonated)
CN(C(=O)NC(=O)c1c(F)cccc1F)c1ncccc1[N-]S(N)(=O)=O (3D coordinates assigned)
CN(C(=O)NC(=O)c1c(F)cccc1F)c1ncccc1[N-]S(N)(=O)=O (optimized conformer: 49.33134001120853 kcal/mol)

>  <smiles>  (46) 
CN(C(=O)NC(=O)c1c(F)cccc1F)c1ncccc1NS(N)(=O)=O

>  <score_type>  (46) 
oracle

>  <origin>  (46) 
adg

>  <m_score__min__energy>  (46) 
-9.6600000000000001

>  <m_primary>  (46) 
energy

$$$$
46:0
     RDKit          3D

 35 36  0  0  0  0  0  0  0  0999 V2000
   58.7340   34.2340   44.5150 C   0  0  0  0  0  0  0  0  0  0  0  0
   57.9790   32.9430   44.6320 C   0  0  0  0  0  0  0  0  0  0  0  0
   57.6460   32.0980   43.5920 C   0  0  0  0  0  0  0  0  0  0  0  0
   57.9900   32.3420   41.7250 Br  0  0  0  0  0  0  0  0  0  0  0  0
   57.0560   31.0060   44.2030 C   0  0  0  0  0  0  0  0  0  0  0  0
   56.5420   29.7780   43.5210 C   0  0  0  0  0  0  0  0  0  0  0  0
   55.4090   29.3240   44.1710 F   0  0  0  0  0  0  0  0  0  0  0  0
   57.5100   28.7920   43.5470 F   0  0  0  0  0  0  0  0  0  0  0  0
   56.2230   30.0610   42.2040 F   0  0  0  0  0  0  0  0  0  0  0  0
   57.0550   31.1820   45.5400 N   0  0  0  0  0  0  0  0  0  0  0  0
   57.6100   32.3570   45.7940 N   0  0  0  0  0  0  0  0  0  0  0  0
   57.8730   32.8380   47.1500 C   0  0  0  0  0  0  0  0  0  0  0  0
   59.0200   32.0730   47.7440 C   0  0  0  0  0  0  0  0  0  0  0  0
   58.9800   31.7670   48.9670 O   0  0  0  0  0  0  0  0  0  0  0  0
   60.1960   31.7690   46.9690 N   0  0  0  0  0  0  0  0  0  0  0  0
   60.3690   30.4360   46.3840 C   0  0  0  0  0  0  0  0  0  0  0  0
   61.1970   32.8160   46.7390 C   0  0  0  0  0  0  0  0  0  0  0  0
   62.2390   32.7570   47.8120 C   0  0  0  0  0  0  0  0  0  0  0  0
   62.0100   32.3080   49.0660 N   0  0  0  0  0  0  0  0  0  0  0  0
   63.0840   32.4700   49.8820 C   0  0  0  0  0  0  0  0  0  0  0  0
   64.1870   33.0640   49.2810 C   0  0  0  0  0  0  0  0  0  0  0  0
   63.7870   33.4010   47.6810 S   0  0  0  0  0  0  0  0  0  0  0  0
   58.9594   34.6194   45.5203 H   0  0  0  0  0  0  0  0  0  0  0  0
   59.6734   34.0612   43.9694 H   0  0  0  0  0  0  0  0  0  0  0  0
   58.1228   34.9680   43.9694 H   0  0  0  0  0  0  0  0  0  0  0  0
   58.1256   33.9081   47.1160 H   0  0  0  0  0  0  0  0  0  0  0  0
   56.9763   32.6900   47.7696 H   0  0  0  0  0  0  0  0  0  0  0  0
   60.4655   29.6922   47.1886 H   0  0  0  0  0  0  0  0  0  0  0  0
   59.4950   30.1922   45.7622 H   0  0  0  0  0  0  0  0  0  0  0  0
   61.2763   30.4234   45.7622 H   0  0  0  0  0  0  0  0  0  0  0  0
   61.6713   32.6604   45.7588 H   0  0  0  0  0  0  0  0  0  0  0  0
   60.7074   33.8008   46.7582 H   0  0  0  0  0  0  0  0  0  0  0  0
   61.1030   31.8990   49.3830 H   0  0  0  0  0  0  0  0  0  0  0  0
   63.0807   32.1555   50.9361 H   0  0  0  0  0  0  0  0  0  0  0  0
   65.1515   33.2765   49.7653 H   0  0  0  0  0  0  0  0  0  0  0  0
  1  2  1  0
  2  3  2  0
  3  4  1  0
  3  5  1  0
  5  6  1  0
  6  7  1  0
  6  8  1  0
  6  9  1  0
  5 10  2  0
 10 11  1  0
 11 12  1  0
 12 13  1  0
 13 14  2  0
 13 15  1  0
 15 16  1  0
 15 17  1  0
 17 18  1  0
 18 19  2  0
 19 20  1  0
 20 21  2  0
 21 22  1  0
 11  2  1  0
 22 18  1  0
  1 23  1  0
  1 24  1  0
  1 25  1  0
 12 26  1  0
 12 27  1  0
 16 28  1  0
 16 29  1  0
 16 30  1  0
 17 31  1  0
 17 32  1  0
 19 33  1  0
 20 34  1  0
 21 35  1  0
M  CHG  1  19   1
M  END
>  <UniqueID>  (47) 
43

>  <SMILES>  (47) 
Cc1c(Br)c(C(F)(F)F)nn1CC(=O)N(C)Cc1[nH+]ccs1

>  <Energy>  (47) 
84.5602848235769

>  <Genealogy>  (47) 
Cc1c(Br)c(C(F)(F)F)nn1CC(=O)N(C)Cc1[nH+]ccs1 (protonated)
Cc1c(Br)c(C(F)(F)F)nn1CC(=O)N(C)Cc1[nH+]ccs1 (3D coordinates assigned)
Cc1c(Br)c(C(F)(F)F)nn1CC(=O)N(C)Cc1[nH+]ccs1 (optimized conformer: 84.5602848235769 kcal/mol)

>  <smiles>  (47) 
Cc1c(Br)c(C(F)(F)F)nn1CC(=O)N(C)Cc1nccs1

>  <score_type>  (47) 
oracle

>  <origin>  (47) 
adg

>  <m_score__min__energy>  (47) 
-5.8399999999999999

>  <m_primary>  (47) 
energy

$$$$
