0:0
     RDKit          3D

 50 52  0  0  0  0  0  0  0  0999 V2000
   57.8010   23.4440   44.7120 C   0  0  0  0  0  0  0  0  0  0  0  0
   58.3600   24.5180   45.6400 C   0  0  0  0  0  0  0  0  0  0  0  0
   58.1910   25.8590   45.0460 N   0  0  0  0  0  0  0  0  0  0  0  0
   57.7250   25.8240   43.6430 C   0  0  0  0  0  0  0  0  0  0  0  0
   58.2130   27.0020   42.7920 C   0  0  0  0  0  0  0  0  0  0  0  0
   57.2750   26.9710   46.0540 S   0  0  0  0  0  0  0  0  0  0  0  0
   57.6540   26.7730   47.4950 O   0  0  0  0  0  0  0  0  0  0  0  0
   55.8130   26.6440   45.9270 O   0  0  0  0  0  0  0  0  0  0  0  0
   57.4960   28.6780   45.6340 C   0  0  0  0  0  0  0  0  0  0  0  0
   56.7140   29.2680   44.6340 C   0  0  0  0  0  0  0  0  0  0  0  0
   56.8820   30.6140   44.3160 C   0  0  0  0  0  0  0  0  0  0  0  0
   57.8510   31.3790   44.9700 C   0  0  0  0  0  0  0  0  0  0  0  0
   57.9590   32.6940   44.6740 N   0  0  0  0  0  0  0  0  0  0  0  0
   58.8410   33.5150   45.2930 C   0  0  0  0  0  0  0  0  0  0  0  0
   58.8380   34.9630   44.8920 C   0  0  0  0  0  0  0  0  0  0  0  0
   59.7040   33.0000   46.2930 C   0  0  0  0  0  0  0  0  0  0  0  0
   59.7200   31.5930   46.5370 C   0  0  0  0  0  0  0  0  0  0  0  0
   58.7050   30.7930   45.9310 C   0  0  0  0  0  0  0  0  0  0  0  0
   58.4980   29.4320   46.2620 C   0  0  0  0  0  0  0  0  0  0  0  0
   60.7640   30.9180   47.4450 C   0  0  0  0  0  0  0  0  0  0  0  0
   62.2710   31.1930   47.2150 C   0  0  0  0  0  0  0  0  0  0  0  0
   62.7250   32.6000   47.6240 C   0  0  0  0  0  0  0  0  0  0  0  0
   62.0840   33.6860   46.7480 C   0  0  0  0  0  0  0  0  0  0  0  0
   60.6050   33.9310   47.0730 C   0  0  0  0  0  0  0  0  0  0  0  0
   57.3754   22.6262   45.3121 H   0  0  0  0  0  0  0  0  0  0  0  0
   57.0156   23.8803   44.0774 H   0  0  0  0  0  0  0  0  0  0  0  0
   58.6090   23.0510   44.0774 H   0  0  0  0  0  0  0  0  0  0  0  0
   57.8262   24.4786   46.6010 H   0  0  0  0  0  0  0  0  0  0  0  0
   59.4332   24.3308   45.7922 H   0  0  0  0  0  0  0  0  0  0  0  0
   58.0854   24.8924   43.1824 H   0  0  0  0  0  0  0  0  0  0  0  0
   56.6272   25.8866   43.6717 H   0  0  0  0  0  0  0  0  0  0  0  0
   58.5501   27.8156   43.4511 H   0  0  0  0  0  0  0  0  0  0  0  0
   59.0493   26.6741   42.1571 H   0  0  0  0  0  0  0  0  0  0  0  0
   57.3898   27.3616   42.1571 H   0  0  0  0  0  0  0  0  0  0  0  0
   55.9647   28.6672   44.0977 H   0  0  0  0  0  0  0  0  0  0  0  0
   56.2480   31.0771   43.5455 H   0  0  0  0  0  0  0  0  0  0  0  0
   58.8367   35.5932   45.7936 H   0  0  0  0  0  0  0  0  0  0  0  0
   59.7357   35.1798   44.2944 H   0  0  0  0  0  0  0  0  0  0  0  0
   57.9394   35.1761   44.2944 H   0  0  0  0  0  0  0  0  0  0  0  0
   59.1337   28.9581   47.0244 H   0  0  0  0  0  0  0  0  0  0  0  0
   60.5370   31.2259   48.4763 H   0  0  0  0  0  0  0  0  0  0  0  0
   60.6586   29.8492   47.2072 H   0  0  0  0  0  0  0  0  0  0  0  0
   62.8480   30.4612   47.7995 H   0  0  0  0  0  0  0  0  0  0  0  0
   62.4453   31.1078   46.1322 H   0  0  0  0  0  0  0  0  0  0  0  0
   62.4405   32.7748   48.6721 H   0  0  0  0  0  0  0  0  0  0  0  0
   63.8158   32.6573   47.4942 H   0  0  0  0  0  0  0  0  0  0  0  0
   62.6351   34.6261   46.8978 H   0  0  0  0  0  0  0  0  0  0  0  0
   62.1359   33.3376   45.7059 H   0  0  0  0  0  0  0  0  0  0  0  0
   60.4435   33.7666   48.1486 H   0  0  0  0  0  0  0  0  0  0  0  0
   60.3572   34.9655   46.7932 H   0  0  0  0  0  0  0  0  0  0  0  0
  1  2  1  0
  2  3  1  0
  3  4  1  0
  4  5  1  0
  3  6  1  0
  6  7  2  0
  6  8  2  0
  6  9  1  0
  9 10  2  0
 10 11  1  0
 11 12  2  0
 12 13  1  0
 13 14  2  0
 14 15  1  0
 14 16  1  0
 16 17  2  0
 17 18  1  0
 18 19  2  0
 17 20  1  0
 20 21  1  0
 21 22  1  0
 22 23  1  0
 23 24  1  0
 19  9  1  0
 18 12  1  0
 24 16  1  0
  1 25  1  0
  1 26  1  0
  1 27  1  0
  2 28  1  0
  2 29  1  0
  4 30  1  0
  4 31  1  0
  5 32  1  0
  5 33  1  0
  5 34  1  0
 10 35  1  0
 11 36  1  0
 15 37  1  0
 15 38  1  0
 15 39  1  0
 19 40  1  0
 20 41  1  0
 20 42  1  0
 21 43  1  0
 21 44  1  0
 22 45  1  0
 22 46  1  0
 23 47  1  0
 23 48  1  0
 24 49  1  0
 24 50  1  0
M  END
>  <UniqueID>  (1) 
1

>  <SMILES>  (1) 
CCN(CC)S(=O)(=O)c1ccc2nc(C)c3c(c2c1)CCCCC3

>  <Energy>  (1) 
69.35029164568952

>  <Genealogy>  (1) 
CCN(CC)S(=O)(=O)c1ccc2nc(C)c3c(c2c1)CCCCC3 (3D coordinates assigned)
CCN(CC)S(=O)(=O)c1ccc2nc(C)c3c(c2c1)CCCCC3 (nonaromatic ring conformer: 69.35029164568952 kcal/mol)

>  <smiles>  (1) 
CCN(CC)S(=O)(=O)c1ccc2nc(C)c3c(c2c1)CCCCC3

>  <score_type>  (1) 
oracle

>  <origin>  (1) 
adg

>  <m_score__min__energy>  (1) 
-7.04

>  <m_primary>  (1) 
energy

$$$$
1:0
     RDKit          3D

 45 47  0  0  0  0  0  0  0  0999 V2000
   57.7616   30.3958   47.7831 H   0  0  0  0  0  0  0  0  0  0  0  0
   58.6730   30.6240   47.2110 C   0  0  0  0  0  0  0  0  0  0  0  0
   59.7880   30.0630   47.5860 N   0  0  0  0  0  0  0  0  0  0  0  0
   60.9890   30.7030   48.0530 C   0  0  0  0  0  0  0  0  0  0  0  0
   61.9500   31.2390   47.1750 C   0  0  0  0  0  0  0  0  0  0  0  0
   61.7911   31.1810   46.0881 H   0  0  0  0  0  0  0  0  0  0  0  0
   63.1060   31.8450   47.6780 C   0  0  0  0  0  0  0  0  0  0  0  0
   63.8419   32.2826   46.9874 H   0  0  0  0  0  0  0  0  0  0  0  0
   63.3270   31.8950   49.0580 C   0  0  0  0  0  0  0  0  0  0  0  0
   64.9030   32.7280   49.7440 Br  0  0  0  0  0  0  0  0  0  0  0  0
   62.4030   31.3170   49.9320 C   0  0  0  0  0  0  0  0  0  0  0  0
   62.5837   31.3407   51.0168 H   0  0  0  0  0  0  0  0  0  0  0  0
   61.2500   30.7090   49.4300 C   0  0  0  0  0  0  0  0  0  0  0  0
   60.5407   30.2307   50.1214 H   0  0  0  0  0  0  0  0  0  0  0  0
   58.5590   31.5510   46.0600 C   0  0  0  0  0  0  0  0  0  0  0  0
   58.0530   31.0820   44.8250 C   0  0  0  0  0  0  0  0  0  0  0  0
   57.7560   29.6850   44.6260 N   0  0  0  0  0  0  0  0  0  0  0  0
   56.4250   29.3270   44.1050 C   0  0  0  0  0  0  0  0  0  0  0  0
   55.6655   29.9024   44.6546 H   0  0  0  0  0  0  0  0  0  0  0  0
   56.2940   28.2437   44.2442 H   0  0  0  0  0  0  0  0  0  0  0  0
   56.2770   29.6220   42.6130 C   0  0  0  0  0  0  0  0  0  0  0  0
   55.7874   30.5979   42.4790 H   0  0  0  0  0  0  0  0  0  0  0  0
   57.2713   29.6430   42.1430 H   0  0  0  0  0  0  0  0  0  0  0  0
   55.6657   28.8375   42.1430 H   0  0  0  0  0  0  0  0  0  0  0  0
   58.8950   28.7610   44.4990 C   0  0  0  0  0  0  0  0  0  0  0  0
   59.6665   29.2257   43.8674 H   0  0  0  0  0  0  0  0  0  0  0  0
   59.2923   28.5545   45.5037 H   0  0  0  0  0  0  0  0  0  0  0  0
   58.4610   27.4410   43.8670 C   0  0  0  0  0  0  0  0  0  0  0  0
   58.2226   26.7160   44.6592 H   0  0  0  0  0  0  0  0  0  0  0  0
   57.5706   27.6084   43.2432 H   0  0  0  0  0  0  0  0  0  0  0  0
   59.2770   27.0474   43.2432 H   0  0  0  0  0  0  0  0  0  0  0  0
   57.8990   31.9730   43.7530 C   0  0  0  0  0  0  0  0  0  0  0  0
   57.4850   31.6107   42.8005 H   0  0  0  0  0  0  0  0  0  0  0  0
   58.2640   33.3110   43.8800 C   0  0  0  0  0  0  0  0  0  0  0  0
   58.1302   33.9977   43.0312 H   0  0  0  0  0  0  0  0  0  0  0  0
   58.8000   33.7860   45.0820 C   0  0  0  0  0  0  0  0  0  0  0  0
   59.1750   35.1340   45.1970 C   0  0  0  0  0  0  0  0  0  0  0  0
   59.0522   35.8117   44.3393 H   0  0  0  0  0  0  0  0  0  0  0  0
   59.7030   35.6180   46.3950 C   0  0  0  0  0  0  0  0  0  0  0  0
   59.9974   36.6746   46.4781 H   0  0  0  0  0  0  0  0  0  0  0  0
   59.8580   34.7640   47.4870 C   0  0  0  0  0  0  0  0  0  0  0  0
   60.2729   35.1504   48.4297 H   0  0  0  0  0  0  0  0  0  0  0  0
   59.4890   33.4210   47.3890 C   0  0  0  0  0  0  0  0  0  0  0  0
   59.6122   32.7572   48.2574 H   0  0  0  0  0  0  0  0  0  0  0  0
   58.9590   32.9070   46.1850 C   0  0  0  0  0  0  0  0  0  0  0  0
  1  2  1  0
  2  3  2  0
  3  4  1  0
  4  5  2  0
  5  6  1  0
  5  7  1  0
  7  8  1  0
  7  9  2  0
  9 10  1  0
  9 11  1  0
 11 12  1  0
 11 13  2  0
 13 14  1  0
  2 15  1  0
 15 16  2  0
 16 17  1  0
 17 18  1  0
 18 19  1  0
 18 20  1  0
 18 21  1  0
 21 22  1  0
 21 23  1  0
 21 24  1  0
 17 25  1  0
 25 26  1  0
 25 27  1  0
 25 28  1  0
 28 29  1  0
 28 30  1  0
 28 31  1  0
 16 32  1  0
 32 33  1  0
 32 34  2  0
 34 35  1  0
 34 36  1  0
 36 37  2  0
 37 38  1  0
 37 39  1  0
 39 40  1  0
 39 41  2  0
 41 42  1  0
 41 43  1  0
 43 44  1  0
 43 45  2  0
 13  4  1  0
 45 15  1  0
 45 36  1  0
M  END
>  <UniqueID>  (2) 
2

>  <SMILES>  (2) 
CCN(CC)c1ccc2ccccc2c1/C=N\c1ccc(Br)cc1

>  <Energy>  (2) 
63.50500700755101

>  <Genealogy>  (2) 
CCN(CC)c1ccc2ccccc2c1/C=N\c1ccc(Br)cc1 (cis-trans isomerization)
CCN(CC)c1ccc2ccccc2c1/C=N\c1ccc(Br)cc1 (3D coordinates assigned)
CCN(CC)c1ccc2ccccc2c1/C=N\c1ccc(Br)cc1 (optimized conformer: 63.50500700755101 kcal/mol)

>  <smiles>  (2) 
CCN(CC)c1ccc2ccccc2c1C=Nc1ccc(Br)cc1

>  <score_type>  (2) 
oracle

>  <origin>  (2) 
adg

>  <m_score__min__energy>  (2) 
-8.0299999999999994

>  <m_primary>  (2) 
energy

$$$$
2:0
     RDKit          3D

 39 40  0  0  0  0  0  0  0  0999 V2000
   58.2800   30.7590   44.0430 O   0  0  0  0  0  0  0  0  0  0  0  0
   57.7260   29.8890   44.7680 C   0  0  0  0  0  0  0  0  0  0  0  0
   56.6420   29.0270   44.1930 C   0  0  0  0  0  0  0  0  0  0  0  0
   55.9080   28.3410   45.2530 N   0  0  0  0  0  0  0  0  0  0  0  0
   56.2520   27.0860   45.8580 C   0  0  0  0  0  0  0  0  0  0  0  0
   55.3450   26.2280   46.0170 O   0  0  0  0  0  0  0  0  0  0  0  0
   57.6240   26.7400   46.2670 C   0  0  0  0  0  0  0  0  0  0  0  0
   58.5680   26.0530   45.5260 C   0  0  0  0  0  0  0  0  0  0  0  0
   59.6970   26.0030   46.3150 C   0  0  0  0  0  0  0  0  0  0  0  0
   59.3790   26.6670   47.4800 C   0  0  0  0  0  0  0  0  0  0  0  0
   58.1400   27.0990   47.4200 O   0  0  0  0  0  0  0  0  0  0  0  0
   58.1250   29.7220   46.1360 N   0  0  0  0  0  0  0  0  0  0  0  0
   59.2100   30.4950   46.7420 C   0  0  0  0  0  0  0  0  0  0  0  0
   58.6600   31.5820   47.6740 C   0  0  0  0  0  0  0  0  0  0  0  0
   58.4640   32.8900   46.9440 C   0  0  0  0  0  0  0  0  0  0  0  0
   57.6480   32.9680   45.8790 C   0  0  0  0  0  0  0  0  0  0  0  0
   57.5090   34.2740   45.1470 C   0  0  0  0  0  0  0  0  0  0  0  0
   58.8910   34.9110   44.9130 C   0  0  0  0  0  0  0  0  0  0  0  0
   59.8370   34.8290   46.1420 C   0  0  0  0  0  0  0  0  0  0  0  0
   59.2120   34.1350   47.3660 C   0  0  0  0  0  0  0  0  0  0  0  0
   55.9450   29.6574   43.6214 H   0  0  0  0  0  0  0  0  0  0  0  0
   57.1017   28.2728   43.5373 H   0  0  0  0  0  0  0  0  0  0  0  0
   58.4437   25.6336   44.5167 H   0  0  0  0  0  0  0  0  0  0  0  0
   60.6577   25.5289   46.0653 H   0  0  0  0  0  0  0  0  0  0  0  0
   60.0599   26.8131   48.3315 H   0  0  0  0  0  0  0  0  0  0  0  0
   57.6050   29.0430   46.7350 H   0  0  0  0  0  0  0  0  0  0  0  0
   59.8539   29.8171   47.3215 H   0  0  0  0  0  0  0  0  0  0  0  0
   59.7836   30.9808   45.9389 H   0  0  0  0  0  0  0  0  0  0  0  0
   57.6925   31.2500   48.0785 H   0  0  0  0  0  0  0  0  0  0  0  0
   59.3878   31.7438   48.4828 H   0  0  0  0  0  0  0  0  0  0  0  0
   57.0861   32.0832   45.5454 H   0  0  0  0  0  0  0  0  0  0  0  0
   57.0239   34.0949   44.1761 H   0  0  0  0  0  0  0  0  0  0  0  0
   56.8998   34.9593   45.7547 H   0  0  0  0  0  0  0  0  0  0  0  0
   59.3726   34.3940   44.0699 H   0  0  0  0  0  0  0  0  0  0  0  0
   58.7208   35.9789   44.7113 H   0  0  0  0  0  0  0  0  0  0  0  0
   60.7375   34.2693   45.8490 H   0  0  0  0  0  0  0  0  0  0  0  0
   60.0611   35.8634   46.4417 H   0  0  0  0  0  0  0  0  0  0  0  0
   60.0094   33.8569   48.0709 H   0  0  0  0  0  0  0  0  0  0  0  0
   58.5062   34.8285   47.8465 H   0  0  0  0  0  0  0  0  0  0  0  0
  1  2  2  0
  2  3  1  0
  3  4  1  0
  4  5  1  0
  5  6  2  0
  5  7  1  0
  7  8  2  0
  8  9  1  0
  9 10  2  0
 10 11  1  0
  2 12  1  0
 12 13  1  0
 13 14  1  0
 14 15  1  0
 15 16  2  0
 16 17  1  0
 17 18  1  0
 18 19  1  0
 19 20  1  0
 11  7  1  0
 20 15  1  0
  3 21  1  0
  3 22  1  0
  8 23  1  0
  9 24  1  0
 10 25  1  0
 12 26  1  0
 13 27  1  0
 13 28  1  0
 14 29  1  0
 14 30  1  0
 16 31  1  0
 17 32  1  0
 17 33  1  0
 18 34  1  0
 18 35  1  0
 19 36  1  0
 19 37  1  0
 20 38  1  0
 20 39  1  0
M  CHG  1   4  -1
M  END
>  <UniqueID>  (3) 
3

>  <SMILES>  (3) 
O=C(C[N-]C(=O)c1ccco1)NCCC1=CCCCC1

>  <Energy>  (3) 
59.65137619387302

>  <Genealogy>  (3) 
O=C(C[N-]C(=O)c1ccco1)NCCC1=CCCCC1 (protonated)
O=C(C[N-]C(=O)c1ccco1)NCCC1=CCCCC1 (3D coordinates assigned)
O=C(C[N-]C(=O)c1ccco1)NCCC1=CCCCC1 (nonaromatic ring conformer: 59.65137619387302 kcal/mol)

>  <smiles>  (3) 
O=C(CNC(=O)c1ccco1)NCCC1=CCCCC1

>  <score_type>  (3) 
oracle

>  <origin>  (3) 
adg

>  <m_score__min__energy>  (3) 
-9.0199999999999996

>  <m_primary>  (3) 
energy

$$$$
3:0
     RDKit          3D

 36 36  0  0  0  0  0  0  0  0999 V2000
   60.2760   28.9400   44.9080 C   0  0  0  0  0  0  0  0  0  0  0  0
   59.0380   28.1780   44.4430 C   0  0  0  0  0  0  0  0  0  0  0  0
   57.8550   28.5970   45.2190 N   0  0  0  0  0  0  0  0  0  0  0  0
   57.0190   27.4460   45.6220 C   0  0  0  0  0  0  0  0  0  0  0  0
   57.6380   26.1520   45.1060 C   0  0  0  0  0  0  0  0  0  0  0  0
   56.9140   29.7400   44.2860 S   0  0  0  0  0  0  0  0  0  0  0  0
   55.5330   29.8830   44.8630 O   0  0  0  0  0  0  0  0  0  0  0  0
   56.7930   29.2580   42.8660 O   0  0  0  0  0  0  0  0  0  0  0  0
   57.7050   31.3130   44.3440 C   0  0  0  0  0  0  0  0  0  0  0  0
   57.8680   32.1890   43.2850 C   0  0  0  0  0  0  0  0  0  0  0  0
   57.4360   31.9660   41.8690 C   0  0  0  0  0  0  0  0  0  0  0  0
   58.4990   33.2930   43.7230 N   0  0  0  0  0  0  0  0  0  0  0  0
   58.7370   33.1610   45.0190 N   0  0  0  0  0  0  0  0  0  0  0  0
   59.3970   34.1790   45.8330 C   0  0  0  0  0  0  0  0  0  0  0  0
   58.2610   31.9650   45.4370 C   0  0  0  0  0  0  0  0  0  0  0  0
   58.3210   31.4490   46.8450 C   0  0  0  0  0  0  0  0  0  0  0  0
   60.3043   28.9574   46.0075 H   0  0  0  0  0  0  0  0  0  0  0  0
   61.1787   28.4410   44.5258 H   0  0  0  0  0  0  0  0  0  0  0  0
   60.2372   29.9707   44.5258 H   0  0  0  0  0  0  0  0  0  0  0  0
   58.8641   28.3851   43.3768 H   0  0  0  0  0  0  0  0  0  0  0  0
   59.2028   27.1013   44.5968 H   0  0  0  0  0  0  0  0  0  0  0  0
   56.9549   27.4078   46.7195 H   0  0  0  0  0  0  0  0  0  0  0  0
   56.0117   27.5619   45.1955 H   0  0  0  0  0  0  0  0  0  0  0  0
   57.9384   25.5241   45.9578 H   0  0  0  0  0  0  0  0  0  0  0  0
   56.9009   25.6115   44.4939 H   0  0  0  0  0  0  0  0  0  0  0  0
   58.5214   26.3867   44.4939 H   0  0  0  0  0  0  0  0  0  0  0  0
   56.4586   31.4615   41.8590 H   0  0  0  0  0  0  0  0  0  0  0  0
   57.3540   32.9344   41.3538 H   0  0  0  0  0  0  0  0  0  0  0  0
   58.1780   31.3383   41.3538 H   0  0  0  0  0  0  0  0  0  0  0  0
   58.7590   34.1260   43.1480 H   0  0  0  0  0  0  0  0  0  0  0  0
   59.2483   33.9496   46.8985 H   0  0  0  0  0  0  0  0  0  0  0  0
   60.4734   34.1883   45.6067 H   0  0  0  0  0  0  0  0  0  0  0  0
   58.9662   35.1655   45.6067 H   0  0  0  0  0  0  0  0  0  0  0  0
   58.2233   32.2894   47.5480 H   0  0  0  0  0  0  0  0  0  0  0  0
   57.4997   30.7360   47.0095 H   0  0  0  0  0  0  0  0  0  0  0  0
   59.2840   30.9434   47.0095 H   0  0  0  0  0  0  0  0  0  0  0  0
  1  2  1  0
  2  3  1  0
  3  4  1  0
  4  5  1  0
  3  6  1  0
  6  7  2  0
  6  8  2  0
  6  9  1  0
  9 10  1  0
 10 11  1  0
 10 12  2  0
 12 13  1  0
 13 14  1  0
 13 15  1  0
 15 16  1  0
 15  9  2  0
  1 17  1  0
  1 18  1  0
  1 19  1  0
  2 20  1  0
  2 21  1  0
  4 22  1  0
  4 23  1  0
  5 24  1  0
  5 25  1  0
  5 26  1  0
 11 27  1  0
 11 28  1  0
 11 29  1  0
 12 30  1  0
 14 31  1  0
 14 32  1  0
 14 33  1  0
 16 34  1  0
 16 35  1  0
 16 36  1  0
M  CHG  1  12   1
M  END
>  <UniqueID>  (4) 
4

>  <SMILES>  (4) 
CCN(CC)S(=O)(=O)c1c(C)[nH+]n(C)c1C

>  <Energy>  (4) 
58.35804680301969

>  <Genealogy>  (4) 
CCN(CC)S(=O)(=O)c1c(C)[nH+]n(C)c1C (protonated)
CCN(CC)S(=O)(=O)c1c(C)[nH+]n(C)c1C (3D coordinates assigned)
CCN(CC)S(=O)(=O)c1c(C)[nH+]n(C)c1C (optimized conformer: 58.35804680301969 kcal/mol)

>  <smiles>  (4) 
CCN(CC)S(=O)(=O)c1c(C)nn(C)c1C

>  <score_type>  (4) 
oracle

>  <origin>  (4) 
adg

>  <m_score__min__energy>  (4) 
-4.7800000000000002

>  <m_primary>  (4) 
energy

$$$$
4:0
     RDKit          3D

 50 52  0  0  0  0  0  0  0  0999 V2000
   63.3530   33.8190   46.3810 C   0  0  0  0  0  0  0  0  0  0  0  0
   62.9680   33.7670   47.8600 C   0  0  0  0  0  0  0  0  0  0  0  0
   62.9390   32.3760   48.3700 N   0  0  0  0  0  0  0  0  0  0  0  0
   64.1340   32.0950   49.1910 C   0  0  0  0  0  0  0  0  0  0  0  0
   61.7060   32.1300   49.1530 C   0  0  0  0  0  0  0  0  0  0  0  0
   60.9560   30.9120   48.5920 C   0  0  0  0  0  0  0  0  0  0  0  0
   61.2610   30.6580   47.1670 N   0  0  0  0  0  0  0  0  0  0  0  0
   60.0630   30.6010   46.3360 C   0  0  0  0  0  0  0  0  0  0  0  0
   59.5030   29.3560   45.9250 C   0  0  0  0  0  0  0  0  0  0  0  0
   60.0220   28.1100   46.3630 C   0  0  0  0  0  0  0  0  0  0  0  0
   59.4220   26.9070   45.9980 C   0  0  0  0  0  0  0  0  0  0  0  0
   58.2900   26.9080   45.2000 C   0  0  0  0  0  0  0  0  0  0  0  0
   57.7660   28.1090   44.7350 C   0  0  0  0  0  0  0  0  0  0  0  0
   58.3780   29.3510   45.0500 C   0  0  0  0  0  0  0  0  0  0  0  0
   57.8910   30.5320   44.5330 N   0  0  0  0  0  0  0  0  0  0  0  0
   56.9610   30.5060   43.3800 C   0  0  0  0  0  0  0  0  0  0  0  0
   58.2890   31.7390   45.0670 C   0  0  0  0  0  0  0  0  0  0  0  0
   57.5930   32.9380   44.7680 C   0  0  0  0  0  0  0  0  0  0  0  0
   58.0280   34.1670   45.2500 C   0  0  0  0  0  0  0  0  0  0  0  0
   59.1530   34.2440   46.0650 C   0  0  0  0  0  0  0  0  0  0  0  0
   59.6480   35.5770   46.5500 C   0  0  0  0  0  0  0  0  0  0  0  0
   59.8430   33.0740   46.3980 C   0  0  0  0  0  0  0  0  0  0  0  0
   59.4090   31.8030   45.9410 C   0  0  0  0  0  0  0  0  0  0  0  0
   64.4394   33.9657   46.2898 H   0  0  0  0  0  0  0  0  0  0  0  0
   63.0685   32.8743   45.8946 H   0  0  0  0  0  0  0  0  0  0  0  0
   62.8281   34.6544   45.8946 H   0  0  0  0  0  0  0  0  0  0  0  0
   63.7030   34.3442   48.4402 H   0  0  0  0  0  0  0  0  0  0  0  0
   61.9594   34.1927   47.9670 H   0  0  0  0  0  0  0  0  0  0  0  0
   63.8695   32.1572   50.2569 H   0  0  0  0  0  0  0  0  0  0  0  0
   64.5057   31.0850   48.9638 H   0  0  0  0  0  0  0  0  0  0  0  0
   64.9169   32.8335   48.9638 H   0  0  0  0  0  0  0  0  0  0  0  0
   61.9740   31.9399   50.2028 H   0  0  0  0  0  0  0  0  0  0  0  0
   61.0555   33.0145   49.0859 H   0  0  0  0  0  0  0  0  0  0  0  0
   61.2405   30.0243   49.1760 H   0  0  0  0  0  0  0  0  0  0  0  0
   59.8789   31.1222   48.6680 H   0  0  0  0  0  0  0  0  0  0  0  0
   61.8870   31.4160   46.8120 H   0  0  0  0  0  0  0  0  0  0  0  0
   61.8690   29.8170   47.0680 H   0  0  0  0  0  0  0  0  0  0  0  0
   60.9161   28.0938   47.0036 H   0  0  0  0  0  0  0  0  0  0  0  0
   59.8483   25.9540   46.3444 H   0  0  0  0  0  0  0  0  0  0  0  0
   57.8048   25.9574   44.9337 H   0  0  0  0  0  0  0  0  0  0  0  0
   56.8601   28.0968   44.1112 H   0  0  0  0  0  0  0  0  0  0  0  0
   55.9240   30.4770   43.7459 H   0  0  0  0  0  0  0  0  0  0  0  0
   57.1091   31.4086   42.7690 H   0  0  0  0  0  0  0  0  0  0  0  0
   57.1593   29.6130   42.7690 H   0  0  0  0  0  0  0  0  0  0  0  0
   56.6899   32.8944   44.1415 H   0  0  0  0  0  0  0  0  0  0  0  0
   57.4800   35.0834   44.9857 H   0  0  0  0  0  0  0  0  0  0  0  0
   59.6523   35.5885   47.6499 H   0  0  0  0  0  0  0  0  0  0  0  0
   60.6690   35.7466   46.1776 H   0  0  0  0  0  0  0  0  0  0  0  0
   58.9851   36.3719   46.1776 H   0  0  0  0  0  0  0  0  0  0  0  0
   60.7421   33.1407   47.0282 H   0  0  0  0  0  0  0  0  0  0  0  0
  1  2  1  0
  2  3  1  0
  3  4  1  0
  3  5  1  0
  5  6  1  0
  6  7  1  0
  7  8  1  0
  8  9  2  0
  9 10  1  0
 10 11  2  0
 11 12  1  0
 12 13  2  0
 13 14  1  0
 14 15  2  0
 15 16  1  0
 15 17  1  0
 17 18  2  0
 18 19  1  0
 19 20  2  0
 20 21  1  0
 20 22  1  0
 22 23  2  0
 23  8  1  0
 14  9  1  0
 23 17  1  0
  1 24  1  0
  1 25  1  0
  1 26  1  0
  2 27  1  0
  2 28  1  0
  4 29  1  0
  4 30  1  0
  4 31  1  0
  5 32  1  0
  5 33  1  0
  6 34  1  0
  6 35  1  0
  7 36  1  0
  7 37  1  0
 10 38  1  0
 11 39  1  0
 12 40  1  0
 13 41  1  0
 16 42  1  0
 16 43  1  0
 16 44  1  0
 18 45  1  0
 19 46  1  0
 21 47  1  0
 21 48  1  0
 21 49  1  0
 22 50  1  0
M  CHG  2   7   1  15   1
M  END
>  <UniqueID>  (5) 
5

>  <SMILES>  (5) 
CCN(C)CC[NH2+]c1c2ccccc2[n+](C)c2ccc(C)cc12

>  <Energy>  (5) 
80.28090440920583

>  <Genealogy>  (5) 
CCN(C)CC[NH2+]c1c2ccccc2[n+](C)c2ccc(C)cc12 (protonated)
CCN(C)CC[NH2+]c1c2ccccc2[n+](C)c2ccc(C)cc12 (3D coordinates assigned)
CCN(C)CC[NH2+]c1c2ccccc2[n+](C)c2ccc(C)cc12 (optimized conformer: 80.28090440920583 kcal/mol)

>  <smiles>  (5) 
CCN(C)CCNc1c2ccccc2[n+](C)c2ccc(C)cc12

>  <score_type>  (5) 
oracle

>  <origin>  (5) 
adg

>  <m_score__min__energy>  (5) 
-4.1200000000000001

>  <m_primary>  (5) 
energy

$$$$
5:0
     RDKit          3D

 37 38  0  0  1  0  0  0  0  0999 V2000
   60.3630   28.1830   45.4200 C   0  0  0  0  0  0  0  0  0  0  0  0
   59.9130   27.8740   46.8440 C   0  0  0  0  0  0  0  0  0  0  0  0
   59.5390   29.0450   47.5810 N   0  0  0  0  0  0  0  0  0  0  0  0
   59.5980   28.9210   49.0510 C   0  0  0  0  0  0  0  0  0  0  0  0
   59.1230   30.2780   47.0150 C   0  0  0  0  0  0  0  0  0  0  0  0
   59.8030   31.3890   47.3750 N   0  0  0  0  0  0  0  0  0  0  0  0
   59.4360   32.5730   46.8620 C   0  0  0  0  0  0  0  0  0  0  0  0
   58.3940   32.7080   45.9810 C   0  0  0  0  0  0  0  0  0  0  0  0
   58.2650   34.0170   45.6310 C   0  0  0  0  0  0  0  0  0  0  0  0
   59.2810   34.6710   46.3450 C   0  0  0  0  0  0  0  0  0  0  0  0
   59.9700   33.7820   47.0760 N   0  0  0  0  0  0  0  0  0  0  0  0
   61.0970   34.1410   47.9380 C   0  0  0  0  0  0  0  0  0  0  0  0
   57.7110   31.5840   45.6210 C   0  0  0  0  0  0  0  0  0  0  0  0
   56.7320   31.6040   44.8470 N   0  0  0  0  0  0  0  0  0  0  0  0
   56.6020   30.8130   43.6730 C   0  0  0  0  0  0  0  0  0  0  0  0
   56.0880   29.4090   43.8820 C   0  0  0  0  0  0  0  0  0  0  0  0
   55.5340   29.2320   45.1460 O   0  0  0  0  0  0  0  0  0  0  0  0
   58.1030   30.4090   46.1540 N   0  0  0  0  0  0  0  0  0  0  0  0
   61.2695   28.8055   45.4488 H   0  0  0  0  0  0  0  0  0  0  0  0
   60.5805   27.2428   44.8920 H   0  0  0  0  0  0  0  0  0  0  0  0
   59.5636   28.7236   44.8920 H   0  0  0  0  0  0  0  0  0  0  0  0
   59.0470   27.1972   46.7986 H   0  0  0  0  0  0  0  0  0  0  0  0
   60.7661   27.4159   47.3659 H   0  0  0  0  0  0  0  0  0  0  0  0
   59.1690   29.8226   49.5125 H   0  0  0  0  0  0  0  0  0  0  0  0
   59.0234   28.0381   49.3678 H   0  0  0  0  0  0  0  0  0  0  0  0
   60.6455   28.8099   49.3678 H   0  0  0  0  0  0  0  0  0  0  0  0
   57.5303   34.4619   44.9437 H   0  0  0  0  0  0  0  0  0  0  0  0
   59.4824   35.7519   46.3103 H   0  0  0  0  0  0  0  0  0  0  0  0
   60.7973   34.0455   48.9921 H   0  0  0  0  0  0  0  0  0  0  0  0
   61.9429   33.4679   47.7349 H   0  0  0  0  0  0  0  0  0  0  0  0
   61.3977   35.1794   47.7349 H   0  0  0  0  0  0  0  0  0  0  0  0
   55.9081   31.3290   42.9932 H   0  0  0  0  0  0  0  0  0  0  0  0
   57.6204   30.7024   43.2722 H   0  0  0  0  0  0  0  0  0  0  0  0
   55.3178   29.1980   43.1255 H   0  0  0  0  0  0  0  0  0  0  0  0
   56.9413   28.7211   43.7893 H   0  0  0  0  0  0  0  0  0  0  0  0
   55.3720   30.0950   45.6190 H   0  0  0  0  0  0  0  0  0  0  0  0
   57.5780   29.5690   45.8750 H   0  0  0  0  0  0  0  0  0  0  0  0
  1  2  1  0
  2  3  1  0
  3  4  1  0
  3  5  1  0
  5  6  2  0
  6  7  1  0
  7  8  2  0
  8  9  1  0
  9 10  2  0
 10 11  1  0
 11 12  1  0
  8 13  1  0
 13 14  2  0
 14 15  1  0
 15 16  1  0
 16 17  1  0
 13 18  1  0
 18  5  1  0
 11  7  1  0
  1 19  1  0
  1 20  1  0
  1 21  1  0
  2 22  1  0
  2 23  1  0
  4 24  1  0
  4 25  1  0
  4 26  1  0
  9 27  1  0
 10 28  1  0
 12 29  1  0
 12 30  1  0
 12 31  1  0
 15 32  1  0
 15 33  1  0
 16 34  1  0
 16 35  1  0
 17 36  1  0
 18 37  1  0
M  END
>  <smiles>  (6) 
CCN(C)c1nc2c(ccn2C)c(=NCCO)[nH]1

>  <score_type>  (6) 
oracle

>  <origin>  (6) 
adg

>  <m_score__min__energy>  (6) 
-5.7300000000000004

>  <m_primary>  (6) 
energy

$$$$
6:0
     RDKit          3D

 24 24  0  0  0  0  0  0  0  0999 V2000
   57.7040   33.3810   45.9520 C   0  0  0  0  0  0  0  0  0  0  0  0
   57.4200   32.5760   45.1020 C   0  0  0  0  0  0  0  0  0  0  0  0
   57.0720   31.5910   44.0610 C   0  0  1  0  0  0  0  0  0  0  0  0
   57.7760   31.9290   42.7450 C   0  0  0  0  0  0  0  0  0  0  0  0
   57.4120   30.2160   44.4980 N   0  0  0  0  0  0  0  0  0  0  0  0
   58.7240   29.8140   44.4960 C   0  0  0  0  0  0  0  0  0  0  0  0
   59.0810   28.5240   44.8820 C   0  0  0  0  0  0  0  0  0  0  0  0
   58.0940   27.6250   45.2690 C   0  0  0  0  0  0  0  0  0  0  0  0
   56.7480   28.0190   45.2610 C   0  0  0  0  0  0  0  0  0  0  0  0
   55.7120   27.1480   45.6350 O   0  0  0  0  0  0  0  0  0  0  0  0
   55.8960   25.7800   45.9840 C   0  0  0  0  0  0  0  0  0  0  0  0
   56.4260   29.3270   44.8660 C   0  0  0  0  0  0  0  0  0  0  0  0
   55.2110   29.6720   44.8490 O   0  0  0  0  0  0  0  0  0  0  0  0
   57.9633   34.1161   46.7282 H   0  0  0  0  0  0  0  0  0  0  0  0
   55.9854   31.6366   43.8958 H   0  0  0  0  0  0  0  0  0  0  0  0
   58.7487   32.3960   42.9589 H   0  0  0  0  0  0  0  0  0  0  0  0
   57.9314   31.0073   42.1650 H   0  0  0  0  0  0  0  0  0  0  0  0
   57.1540   32.6266   42.1650 H   0  0  0  0  0  0  0  0  0  0  0  0
   59.5064   30.5217   44.1846 H   0  0  0  0  0  0  0  0  0  0  0  0
   60.1378   28.2186   44.8806 H   0  0  0  0  0  0  0  0  0  0  0  0
   58.3681   26.6064   45.5810 H   0  0  0  0  0  0  0  0  0  0  0  0
   55.9095   25.6796   47.0793 H   0  0  0  0  0  0  0  0  0  0  0  0
   55.0702   25.1820   45.5712 H   0  0  0  0  0  0  0  0  0  0  0  0
   56.8505   25.4214   45.5712 H   0  0  0  0  0  0  0  0  0  0  0  0
  1  2  3  0
  2  3  1  0
  3  4  1  0
  3  5  1  0
  5  6  1  0
  6  7  2  0
  7  8  1  0
  8  9  2  0
  9 10  1  0
 10 11  1  0
  9 12  1  0
 12 13  2  0
 12  5  1  0
  1 14  1  0
  3 15  1  6
  4 16  1  0
  4 17  1  0
  4 18  1  0
  6 19  1  0
  7 20  1  0
  8 21  1  0
 11 22  1  0
 11 23  1  0
 11 24  1  0
M  END
>  <UniqueID>  (7) 
6

>  <SMILES>  (7) 
C#C[C@@H](C)n1cccc(OC)c1=O

>  <Energy>  (7) 
22.126331362755707

>  <Genealogy>  (7) 
C#C[C@@H](C)n1cccc(OC)c1=O (chirality)
C#C[C@@H](C)n1cccc(OC)c1=O (3D coordinates assigned)
C#C[C@@H](C)n1cccc(OC)c1=O (optimized conformer: 22.126331362755707 kcal/mol)

>  <smiles>  (7) 
C#CC(C)n1cccc(OC)c1=O

>  <score_type>  (7) 
oracle

>  <origin>  (7) 
adg

>  <m_score__min__energy>  (7) 
-5.4500000000000002

>  <m_primary>  (7) 
energy

$$$$
7:0
     RDKit          3D

 52 53  0  0  0  0  0  0  0  0999 V2000
   56.6770   30.4570   42.8110 C   0  0  0  0  0  0  0  0  0  0  0  0
   56.1180   30.6230   44.2190 C   0  0  0  0  0  0  0  0  0  0  0  0
   57.1570   31.1800   45.1120 N   0  0  0  0  0  0  0  0  0  0  0  0
   57.0790   32.6550   45.2610 C   0  0  0  0  0  0  0  0  0  0  0  0
   58.0000   33.2260   46.3170 C   0  0  0  0  0  0  0  0  0  0  0  0
   58.1550   32.7850   47.6190 C   0  0  0  0  0  0  0  0  0  0  0  0
   59.1590   33.5630   48.1580 C   0  0  0  0  0  0  0  0  0  0  0  0
   59.6960   33.4540   49.5550 C   0  0  0  0  0  0  0  0  0  0  0  0
   61.0720   33.9710   49.6580 N   0  0  0  0  0  0  0  0  0  0  0  0
   62.0970   32.9130   49.7690 C   0  0  0  0  0  0  0  0  0  0  0  0
   63.0880   32.9240   48.5940 C   0  0  0  0  0  0  0  0  0  0  0  0
   62.8620   34.0600   47.7800 O   0  0  0  0  0  0  0  0  0  0  0  0
   63.3160   33.8260   46.4660 C   0  0  0  0  0  0  0  0  0  0  0  0
   59.6190   34.4010   47.2580 O   0  0  0  0  0  0  0  0  0  0  0  0
   58.9530   34.2190   46.1420 C   0  0  0  0  0  0  0  0  0  0  0  0
   59.2520   34.9590   44.8760 C   0  0  0  0  0  0  0  0  0  0  0  0
   58.5080   30.6730   44.7730 C   0  0  0  0  0  0  0  0  0  0  0  0
   59.1230   29.9020   45.9210 C   0  0  0  0  0  0  0  0  0  0  0  0
   60.1810   30.4660   46.6640 C   0  0  0  0  0  0  0  0  0  0  0  0
   60.6630   31.7000   46.3670 F   0  0  0  0  0  0  0  0  0  0  0  0
   60.7480   29.7620   47.7290 C   0  0  0  0  0  0  0  0  0  0  0  0
   60.2800   28.4910   48.0600 C   0  0  0  0  0  0  0  0  0  0  0  0
   59.2460   27.9130   47.3220 C   0  0  0  0  0  0  0  0  0  0  0  0
   58.6670   28.6060   46.2530 C   0  0  0  0  0  0  0  0  0  0  0  0
   57.3840   27.8120   45.3450 Cl  0  0  0  0  0  0  0  0  0  0  0  0
   57.7300   30.1443   42.8691 H   0  0  0  0  0  0  0  0  0  0  0  0
   56.0966   29.6925   42.2738 H   0  0  0  0  0  0  0  0  0  0  0  0
   56.6079   31.4144   42.2738 H   0  0  0  0  0  0  0  0  0  0  0  0
   55.2567   31.3067   44.1910 H   0  0  0  0  0  0  0  0  0  0  0  0
   55.8018   29.6410   44.6006 H   0  0  0  0  0  0  0  0  0  0  0  0
   57.3379   33.1126   44.2948 H   0  0  0  0  0  0  0  0  0  0  0  0
   56.0523   32.8842   45.5826 H   0  0  0  0  0  0  0  0  0  0  0  0
   57.5948   31.9818   48.1200 H   0  0  0  0  0  0  0  0  0  0  0  0
   59.0480   34.0312   50.2309 H   0  0  0  0  0  0  0  0  0  0  0  0
   59.7108   32.3895   49.8318 H   0  0  0  0  0  0  0  0  0  0  0  0
   61.1390   34.5930   50.4980 H   0  0  0  0  0  0  0  0  0  0  0  0
   61.2730   34.5660   48.8200 H   0  0  0  0  0  0  0  0  0  0  0  0
   62.6573   33.0621   50.7038 H   0  0  0  0  0  0  0  0  0  0  0  0
   61.5775   31.9435   49.7574 H   0  0  0  0  0  0  0  0  0  0  0  0
   64.1158   32.9546   48.9847 H   0  0  0  0  0  0  0  0  0  0  0  0
   62.9443   32.0145   47.9922 H   0  0  0  0  0  0  0  0  0  0  0  0
   64.2933   33.3223   46.5000 H   0  0  0  0  0  0  0  0  0  0  0  0
   62.5930   33.1882   45.9364 H   0  0  0  0  0  0  0  0  0  0  0  0
   63.4160   34.7849   45.9364 H   0  0  0  0  0  0  0  0  0  0  0  0
   59.6539   35.9537   45.1189 H   0  0  0  0  0  0  0  0  0  0  0  0
   59.9937   34.3971   44.2893 H   0  0  0  0  0  0  0  0  0  0  0  0
   58.3282   35.0701   44.2893 H   0  0  0  0  0  0  0  0  0  0  0  0
   58.4304   30.0092   43.8993 H   0  0  0  0  0  0  0  0  0  0  0  0
   59.1533   31.5372   44.5567 H   0  0  0  0  0  0  0  0  0  0  0  0
   61.5671   30.2122   48.3089 H   0  0  0  0  0  0  0  0  0  0  0  0
   60.7260   27.9435   48.9034 H   0  0  0  0  0  0  0  0  0  0  0  0
   58.8842   26.9073   47.5820 H   0  0  0  0  0  0  0  0  0  0  0  0
  1  2  1  0
  2  3  1  0
  3  4  1  0
  4  5  1  0
  5  6  1  0
  6  7  2  0
  7  8  1  0
  8  9  1  0
  9 10  1  0
 10 11  1  0
 11 12  1  0
 12 13  1  0
  7 14  1  0
 14 15  1  0
 15 16  1  0
  3 17  1  0
 17 18  1  0
 18 19  2  0
 19 20  1  0
 19 21  1  0
 21 22  2  0
 22 23  1  0
 23 24  2  0
 24 25  1  0
 15  5  2  0
 24 18  1  0
  1 26  1  0
  1 27  1  0
  1 28  1  0
  2 29  1  0
  2 30  1  0
  4 31  1  0
  4 32  1  0
  6 33  1  0
  8 34  1  0
  8 35  1  0
  9 36  1  0
  9 37  1  0
 10 38  1  0
 10 39  1  0
 11 40  1  0
 11 41  1  0
 13 42  1  0
 13 43  1  0
 13 44  1  0
 16 45  1  0
 16 46  1  0
 16 47  1  0
 17 48  1  0
 17 49  1  0
 21 50  1  0
 22 51  1  0
 23 52  1  0
M  CHG  1   9   1
M  END
>  <UniqueID>  (8) 
7

>  <SMILES>  (8) 
CCN(Cc1cc(C[NH2+]CCOC)oc1C)Cc1c(F)cccc1Cl

>  <Energy>  (8) 
80.79842433308157

>  <Genealogy>  (8) 
CCN(Cc1cc(C[NH2+]CCOC)oc1C)Cc1c(F)cccc1Cl (protonated)
CCN(Cc1cc(C[NH2+]CCOC)oc1C)Cc1c(F)cccc1Cl (3D coordinates assigned)
CCN(Cc1cc(C[NH2+]CCOC)oc1C)Cc1c(F)cccc1Cl (optimized conformer: 80.79842433308157 kcal/mol)

>  <smiles>  (8) 
CCN(Cc1cc(CNCCOC)oc1C)Cc1c(F)cccc1Cl

>  <score_type>  (8) 
oracle

>  <origin>  (8) 
adg

>  <m_score__min__energy>  (8) 
-5.3499999999999996

>  <m_primary>  (8) 
energy

$$$$
8:0
     RDKit          3D

 54 56  0  0  0  0  0  0  0  0999 V2000
   55.8950   30.2160   52.7830 C   0  0  0  0  0  0  0  0  0  0  0  0
   56.9980   29.7070   52.0400 O   0  0  0  0  0  0  0  0  0  0  0  0
   57.7670   30.4660   51.1460 C   0  0  0  0  0  0  0  0  0  0  0  0
   58.5090   29.8830   50.1070 C   0  0  0  0  0  0  0  0  0  0  0  0
   59.2490   30.6830   49.2320 C   0  0  0  0  0  0  0  0  0  0  0  0
   59.2130   32.0920   49.3200 C   0  0  0  0  0  0  0  0  0  0  0  0
   60.0980   32.9570   48.3890 C   0  0  1  0  0  0  0  0  0  0  0  0
   60.6100   34.0010   49.1880 O   0  0  0  0  0  0  0  0  0  0  0  0
   61.3410   32.1860   47.8250 C   0  0  0  0  0  0  0  0  0  0  0  0
   62.5730   32.1760   48.7170 C   0  0  0  0  0  0  0  0  0  0  0  0
   62.7530   31.1070   49.6130 C   0  0  0  0  0  0  0  0  0  0  0  0
   63.8370   31.0840   50.5070 C   0  0  0  0  0  0  0  0  0  0  0  0
   64.0080   30.0440   51.4370 O   0  0  0  0  0  0  0  0  0  0  0  0
   62.9670   29.1810   51.8860 C   0  0  0  0  0  0  0  0  0  0  0  0
   64.7730   32.1290   50.4790 C   0  0  0  0  0  0  0  0  0  0  0  0
   65.9450   32.1170   51.4210 C   0  0  0  0  0  0  0  0  0  0  0  0
   64.6250   33.1740   49.5550 C   0  0  0  0  0  0  0  0  0  0  0  0
   63.5350   33.2040   48.6650 C   0  0  0  0  0  0  0  0  0  0  0  0
   63.3950   34.2250   47.7140 O   0  0  0  0  0  0  0  0  0  0  0  0
   63.4020   34.0320   46.3030 C   0  0  0  0  0  0  0  0  0  0  0  0
   59.3330   33.5580   47.1890 C   0  0  0  0  0  0  0  0  0  0  0  0
   59.9550   34.5020   46.3420 C   0  0  0  0  0  0  0  0  0  0  0  0
   59.3000   34.9860   45.2050 C   0  0  0  0  0  0  0  0  0  0  0  0
   58.0250   34.5230   44.8790 C   0  0  0  0  0  0  0  0  0  0  0  0
   57.4050   33.5670   45.6830 C   0  0  0  0  0  0  0  0  0  0  0  0
   58.0530   33.0800   46.8210 C   0  0  0  0  0  0  0  0  0  0  0  0
   58.5520   32.6490   50.4400 C   0  0  0  0  0  0  0  0  0  0  0  0
   57.8120   31.8500   51.3140 C   0  0  0  0  0  0  0  0  0  0  0  0
   56.1023   30.1203   53.8590 H   0  0  0  0  0  0  0  0  0  0  0  0
   55.7416   31.2759   52.5320 H   0  0  0  0  0  0  0  0  0  0  0  0
   54.9890   29.6449   52.5320 H   0  0  0  0  0  0  0  0  0  0  0  0
   58.5081   28.7903   49.9807 H   0  0  0  0  0  0  0  0  0  0  0  0
   59.8712   30.2062   48.4603 H   0  0  0  0  0  0  0  0  0  0  0  0
   61.4660   34.3050   48.7840 H   0  0  0  0  0  0  0  0  0  0  0  0
   61.0408   31.1420   47.6520 H   0  0  0  0  0  0  0  0  0  0  0  0
   61.6371   32.7230   46.9118 H   0  0  0  0  0  0  0  0  0  0  0  0
   62.0333   30.2751   49.6140 H   0  0  0  0  0  0  0  0  0  0  0  0
   62.9507   29.1675   52.9858 H   0  0  0  0  0  0  0  0  0  0  0  0
   62.0001   29.5461   51.5094 H   0  0  0  0  0  0  0  0  0  0  0  0
   63.1465   28.1632   51.5094 H   0  0  0  0  0  0  0  0  0  0  0  0
   65.5811   32.1207   52.4591 H   0  0  0  0  0  0  0  0  0  0  0  0
   66.5464   31.2127   51.2465 H   0  0  0  0  0  0  0  0  0  0  0  0
   66.5648   33.0088   51.2465 H   0  0  0  0  0  0  0  0  0  0  0  0
   65.3714   33.9815   49.5256 H   0  0  0  0  0  0  0  0  0  0  0  0
   63.4410   32.9555   46.0804 H   0  0  0  0  0  0  0  0  0  0  0  0
   62.4876   34.4632   45.8694 H   0  0  0  0  0  0  0  0  0  0  0  0
   64.2827   34.5283   45.8694 H   0  0  0  0  0  0  0  0  0  0  0  0
   60.9673   34.8609   46.5797 H   0  0  0  0  0  0  0  0  0  0  0  0
   59.7917   35.7341   44.5658 H   0  0  0  0  0  0  0  0  0  0  0  0
   57.5092   34.9117   43.9886 H   0  0  0  0  0  0  0  0  0  0  0  0
   56.4034   33.1955   45.4206 H   0  0  0  0  0  0  0  0  0  0  0  0
   57.5614   32.3145   47.4393 H   0  0  0  0  0  0  0  0  0  0  0  0
   58.6223   33.7309   50.6257 H   0  0  0  0  0  0  0  0  0  0  0  0
   57.2593   32.3164   52.1428 H   0  0  0  0  0  0  0  0  0  0  0  0
  1  2  1  0
  2  3  1  0
  3  4  2  0
  4  5  1  0
  5  6  2  0
  6  7  1  0
  7  8  1  1
  7  9  1  0
  9 10  1  0
 10 11  2  0
 11 12  1  0
 12 13  1  0
 13 14  1  0
 12 15  2  0
 15 16  1  0
 15 17  1  0
 17 18  2  0
 18 19  1  0
 19 20  1  0
  7 21  1  0
 21 22  2  0
 22 23  1  0
 23 24  2  0
 24 25  1  0
 25 26  2  0
  6 27  1  0
 27 28  2  0
 28  3  1  0
 18 10  1  0
 26 21  1  0
  1 29  1  0
  1 30  1  0
  1 31  1  0
  4 32  1  0
  5 33  1  0
  8 34  1  0
  9 35  1  0
  9 36  1  0
 11 37  1  0
 14 38  1  0
 14 39  1  0
 14 40  1  0
 16 41  1  0
 16 42  1  0
 16 43  1  0
 17 44  1  0
 20 45  1  0
 20 46  1  0
 20 47  1  0
 22 48  1  0
 23 49  1  0
 24 50  1  0
 25 51  1  0
 26 52  1  0
 27 53  1  0
 28 54  1  0
M  END
>  <UniqueID>  (9) 
8

>  <SMILES>  (9) 
COc1ccc([C@@](O)(Cc2cc(OC)c(C)cc2OC)c2ccccc2)cc1

>  <Energy>  (9) 
65.92010663470607

>  <Genealogy>  (9) 
COc1ccc(C(O)(Cc2cc(OC)c(C)cc2OC)c2ccccc2)cc1 (protonated)
COc1ccc([C@@](O)(Cc2cc(OC)c(C)cc2OC)c2ccccc2)cc1 (chirality)
COc1ccc([C@@](O)(Cc2cc(OC)c(C)cc2OC)c2ccccc2)cc1 (3D coordinates assigned)
COc1ccc([C@@](O)(Cc2cc(OC)c(C)cc2OC)c2ccccc2)cc1 (optimized conformer: 65.92010663470607 kcal/mol)

>  <smiles>  (9) 
COc1ccc(C([O-])(Cc2cc(OC)c(C)cc2OC)c2ccccc2)cc1

>  <score_type>  (9) 
oracle

>  <origin>  (9) 
adg

>  <m_score__min__energy>  (9) 
-7.21

>  <m_primary>  (9) 
energy

$$$$
9:0
     RDKit          3D

 64 67  0  0  0  0  0  0  0  0999 V2000
   57.4010   24.7660   47.8050 C   0  0  0  0  0  0  0  0  0  0  0  0
   57.9340   25.2550   46.5780 O   0  0  0  0  0  0  0  0  0  0  0  0
   57.7700   26.5670   46.1060 C   0  0  0  0  0  0  0  0  0  0  0  0
   58.8620   27.4370   45.9230 C   0  0  0  0  0  0  0  0  0  0  0  0
   58.6570   28.7430   45.4540 C   0  0  0  0  0  0  0  0  0  0  0  0
   57.3660   29.1870   45.1430 C   0  0  0  0  0  0  0  0  0  0  0  0
   56.2770   28.3180   45.3250 C   0  0  0  0  0  0  0  0  0  0  0  0
   56.4730   27.0120   45.8120 C   0  0  0  0  0  0  0  0  0  0  0  0
   55.4030   26.1230   46.0130 O   0  0  0  0  0  0  0  0  0  0  0  0
   55.2780   24.8540   45.3780 C   0  0  0  0  0  0  0  0  0  0  0  0
   57.1510   30.5600   44.5210 C   0  0  2  0  0  0  0  0  0  0  0  0
   57.0410   30.3840   43.0020 C   0  0  0  0  0  0  0  0  0  0  0  0
   58.2340   31.5570   44.8060 N   0  0  0  0  0  0  0  0  0  0  0  0
   57.7030   32.8400   45.3220 C   0  0  0  0  0  0  0  0  0  0  0  0
   58.8010   33.9110   45.4060 C   0  0  0  0  0  0  0  0  0  0  0  0
   59.0490   34.3390   46.8550 C   0  0  0  0  0  0  0  0  0  0  0  0
   60.0520   33.4630   47.4750 N   0  0  0  0  0  0  0  0  0  0  0  0
   59.7160   32.7010   48.6530 C   0  0  0  0  0  0  0  0  0  0  0  0
   58.5430   32.7260   49.1160 O   0  0  0  0  0  0  0  0  0  0  0  0
   60.7400   31.8300   49.3220 C   0  0  0  0  0  0  0  0  0  0  0  0
   62.1610   32.4240   49.1800 C   0  0  0  0  0  0  0  0  0  0  0  0
   63.2070   31.4900   49.8040 C   0  0  0  0  0  0  0  0  0  0  0  0
   64.3600   32.3830   50.2490 C   0  0  0  0  0  0  0  0  0  0  0  0
   63.7980   33.7970   50.3780 C   0  0  0  0  0  0  0  0  0  0  0  0
   62.3260   33.7250   49.9850 C   0  0  0  0  0  0  0  0  0  0  0  0
   62.4720   32.6480   47.6760 C   0  0  0  0  0  0  0  0  0  0  0  0
   61.4170   33.4830   47.0070 C   0  0  0  0  0  0  0  0  0  0  0  0
   61.7380   34.1770   46.0040 O   0  0  0  0  0  0  0  0  0  0  0  0
   59.3240   31.0840   45.6880 C   0  0  0  0  0  0  0  0  0  0  0  0
   59.8000   29.6910   45.2900 C   0  0  0  0  0  0  0  0  0  0  0  0
   57.9221   25.2441   48.6475 H   0  0  0  0  0  0  0  0  0  0  0  0
   56.3274   24.9999   47.8575 H   0  0  0  0  0  0  0  0  0  0  0  0
   57.5418   23.6763   47.8575 H   0  0  0  0  0  0  0  0  0  0  0  0
   59.8813   27.0906   46.1490 H   0  0  0  0  0  0  0  0  0  0  0  0
   55.2603   28.6620   45.0843 H   0  0  0  0  0  0  0  0  0  0  0  0
   55.2005   24.0673   46.1429 H   0  0  0  0  0  0  0  0  0  0  0  0
   54.3747   24.8454   44.7504 H   0  0  0  0  0  0  0  0  0  0  0  0
   56.1623   24.6694   44.7504 H   0  0  0  0  0  0  0  0  0  0  0  0
   56.2352   30.9667   44.9747 H   0  0  0  0  0  0  0  0  0  0  0  0
   56.4701   29.4706   42.7791 H   0  0  0  0  0  0  0  0  0  0  0  0
   56.5254   31.2536   42.5685 H   0  0  0  0  0  0  0  0  0  0  0  0
   58.0486   30.3016   42.5685 H   0  0  0  0  0  0  0  0  0  0  0  0
   56.9086   33.1946   44.6488 H   0  0  0  0  0  0  0  0  0  0  0  0
   57.3103   32.6683   46.3351 H   0  0  0  0  0  0  0  0  0  0  0  0
   59.7330   33.5026   44.9882 H   0  0  0  0  0  0  0  0  0  0  0  0
   58.4723   34.7916   44.8346 H   0  0  0  0  0  0  0  0  0  0  0  0
   59.4129   35.3770   46.8707 H   0  0  0  0  0  0  0  0  0  0  0  0
   58.1075   34.2642   47.4189 H   0  0  0  0  0  0  0  0  0  0  0  0
   60.4932   31.7425   50.3904 H   0  0  0  0  0  0  0  0  0  0  0  0
   60.7261   30.8425   48.8376 H   0  0  0  0  0  0  0  0  0  0  0  0
   62.7789   30.9605   50.6679 H   0  0  0  0  0  0  0  0  0  0  0  0
   63.5435   30.7273   49.0864 H   0  0  0  0  0  0  0  0  0  0  0  0
   64.7515   32.0411   51.2185 H   0  0  0  0  0  0  0  0  0  0  0  0
   65.1866   32.3513   49.5239 H   0  0  0  0  0  0  0  0  0  0  0  0
   63.8960   34.1501   51.4152 H   0  0  0  0  0  0  0  0  0  0  0  0
   64.3448   34.4990   49.7313 H   0  0  0  0  0  0  0  0  0  0  0  0
   61.6920   33.7007   50.8836 H   0  0  0  0  0  0  0  0  0  0  0  0
   62.0248   34.6030   49.3948 H   0  0  0  0  0  0  0  0  0  0  0  0
   63.4417   33.1594   47.5851 H   0  0  0  0  0  0  0  0  0  0  0  0
   62.4955   31.6657   47.1814 H   0  0  0  0  0  0  0  0  0  0  0  0
   60.1695   31.7842   45.6183 H   0  0  0  0  0  0  0  0  0  0  0  0
   58.9390   31.0363   46.7173 H   0  0  0  0  0  0  0  0  0  0  0  0
   60.1319   29.6963   44.2413 H   0  0  0  0  0  0  0  0  0  0  0  0
   60.6441   29.3821   45.9242 H   0  0  0  0  0  0  0  0  0  0  0  0
  1  2  1  0
  2  3  1  0
  3  4  2  0
  4  5  1  0
  5  6  2  0
  6  7  1  0
  7  8  2  0
  8  9  1  0
  9 10  1  0
  6 11  1  0
 11 12  1  0
 11 13  1  0
 13 14  1  0
 14 15  1  0
 15 16  1  0
 16 17  1  0
 17 18  1  0
 18 19  2  0
 18 20  1  0
 20 21  1  0
 21 22  1  0
 22 23  1  0
 23 24  1  0
 24 25  1  0
 21 26  1  0
 26 27  1  0
 27 28  2  0
 13 29  1  0
 29 30  1  0
  8  3  1  0
 27 17  1  0
 30  5  1  0
 25 21  1  0
  1 31  1  0
  1 32  1  0
  1 33  1  0
  4 34  1  0
  7 35  1  0
 10 36  1  0
 10 37  1  0
 10 38  1  0
 11 39  1  1
 12 40  1  0
 12 41  1  0
 12 42  1  0
 14 43  1  0
 14 44  1  0
 15 45  1  0
 15 46  1  0
 16 47  1  0
 16 48  1  0
 20 49  1  0
 20 50  1  0
 22 51  1  0
 22 52  1  0
 23 53  1  0
 23 54  1  0
 24 55  1  0
 24 56  1  0
 25 57  1  0
 25 58  1  0
 26 59  1  0
 26 60  1  0
 29 61  1  0
 29 62  1  0
 30 63  1  0
 30 64  1  0
M  END
>  <UniqueID>  (10) 
9

>  <SMILES>  (10) 
COc1cc2c(cc1OC)[C@H](C)N(CCCN1C(=O)CC3(CCCC3)CC1=O)CC2

>  <Energy>  (10) 
69.10882971598024

>  <Genealogy>  (10) 
COc1cc2c(cc1OC)[C@H](C)N(CCCN1C(=O)CC3(CCCC3)CC1=O)CC2 (chirality)
COc1cc2c(cc1OC)[C@H](C)N(CCCN1C(=O)CC3(CCCC3)CC1=O)CC2 (3D coordinates assigned)
COc1cc2c(cc1OC)[C@H](C)N(CCCN1C(=O)CC3(CCCC3)CC1=O)CC2 (nonaromatic ring conformer: 69.10882971598024 kcal/mol)

>  <smiles>  (10) 
COc1cc2c(cc1OC)C(C)N(CCCN1C(=O)CC3(CCCC3)CC1=O)CC2

>  <score_type>  (10) 
oracle

>  <origin>  (10) 
adg

>  <m_score__min__energy>  (10) 
-9.5600000000000005

>  <m_primary>  (10) 
energy

$$$$
10:0
     RDKit          3D

 48 49  0  0  0  0  0  0  0  0999 V2000
   65.2200   32.9080   49.7630 C   0  0  0  0  0  0  0  0  0  0  0  0
   64.0750   33.8380   50.1460 C   0  0  0  0  0  0  0  0  0  0  0  0
   62.9350   33.7110   49.1710 C   0  0  0  0  0  0  0  0  0  0  0  0
   61.6120   33.8960   49.6020 C   0  0  0  0  0  0  0  0  0  0  0  0
   60.5540   33.8020   48.6930 C   0  0  0  0  0  0  0  0  0  0  0  0
   60.8030   33.5340   47.3370 C   0  0  0  0  0  0  0  0  0  0  0  0
   59.6810   33.4070   46.3880 C   0  0  0  0  0  0  0  0  0  0  0  0
   59.4580   32.3050   45.6370 N   0  0  0  0  0  0  0  0  0  0  0  0
   58.3290   32.6060   44.9700 C   0  0  0  0  0  0  0  0  0  0  0  0
   57.6200   31.6480   44.0610 C   0  0  0  0  0  0  0  0  0  0  0  0
   56.9270   30.5910   44.8360 N   0  0  0  0  0  0  0  0  0  0  0  0
   55.6950   30.1950   44.1310 C   0  0  0  0  0  0  0  0  0  0  0  0
   57.7900   29.4050   45.0500 C   0  0  0  0  0  0  0  0  0  0  0  0
   58.6840   29.6130   46.2470 C   0  0  0  0  0  0  0  0  0  0  0  0
   58.1380   29.9240   47.3420 O   0  0  0  0  0  0  0  0  0  0  0  0
   60.1210   29.4540   46.1890 N   0  0  0  0  0  0  0  0  0  0  0  0
   60.9190   29.7960   47.3720 C   0  0  0  0  0  0  0  0  0  0  0  0
   60.7870   28.9560   44.9800 C   0  0  0  0  0  0  0  0  0  0  0  0
   57.9120   33.8690   45.3330 C   0  0  0  0  0  0  0  0  0  0  0  0
   56.6850   34.5860   44.8770 C   0  0  0  0  0  0  0  0  0  0  0  0
   58.7660   34.3360   46.2080 O   0  0  0  0  0  0  0  0  0  0  0  0
   62.1290   33.3650   46.9060 C   0  0  0  0  0  0  0  0  0  0  0  0
   63.1870   33.4580   47.8140 C   0  0  0  0  0  0  0  0  0  0  0  0
   65.6978   32.5199   50.6747 H   0  0  0  0  0  0  0  0  0  0  0  0
   64.8281   32.0693   49.1689 H   0  0  0  0  0  0  0  0  0  0  0  0
   65.9606   33.4636   49.1689 H   0  0  0  0  0  0  0  0  0  0  0  0
   63.7190   33.5761   51.1533 H   0  0  0  0  0  0  0  0  0  0  0  0
   64.4414   34.8750   50.1273 H   0  0  0  0  0  0  0  0  0  0  0  0
   61.4067   34.1160   50.6600 H   0  0  0  0  0  0  0  0  0  0  0  0
   59.5199   33.9388   49.0421 H   0  0  0  0  0  0  0  0  0  0  0  0
   56.8791   32.2003   43.4643 H   0  0  0  0  0  0  0  0  0  0  0  0
   58.3646   31.1706   43.4070 H   0  0  0  0  0  0  0  0  0  0  0  0
   54.9161   29.9446   44.8663 H   0  0  0  0  0  0  0  0  0  0  0  0
   55.3498   31.0274   43.5002 H   0  0  0  0  0  0  0  0  0  0  0  0
   55.8995   29.3173   43.5002 H   0  0  0  0  0  0  0  0  0  0  0  0
   57.1565   28.5220   45.2201 H   0  0  0  0  0  0  0  0  0  0  0  0
   58.4170   29.2550   44.1587 H   0  0  0  0  0  0  0  0  0  0  0  0
   60.3499   29.5521   48.2812 H   0  0  0  0  0  0  0  0  0  0  0  0
   61.8564   29.2206   47.3608 H   0  0  0  0  0  0  0  0  0  0  0  0
   61.1488   30.8717   47.3608 H   0  0  0  0  0  0  0  0  0  0  0  0
   61.6377   28.3199   45.2656 H   0  0  0  0  0  0  0  0  0  0  0  0
   60.0734   28.3681   44.3840 H   0  0  0  0  0  0  0  0  0  0  0  0
   61.1491   29.8067   44.3840 H   0  0  0  0  0  0  0  0  0  0  0  0
   56.1100   34.9220   45.7525 H   0  0  0  0  0  0  0  0  0  0  0  0
   56.9735   35.4577   44.2712 H   0  0  0  0  0  0  0  0  0  0  0  0
   56.0672   33.9068   44.2712 H   0  0  0  0  0  0  0  0  0  0  0  0
   62.3362   33.1579   45.8457 H   0  0  0  0  0  0  0  0  0  0  0  0
   64.2220   33.3323   47.4635 H   0  0  0  0  0  0  0  0  0  0  0  0
  1  2  1  0
  2  3  1  0
  3  4  2  0
  4  5  1  0
  5  6  2  0
  6  7  1  0
  7  8  2  0
  8  9  1  0
  9 10  1  0
 10 11  1  0
 11 12  1  0
 11 13  1  0
 13 14  1  0
 14 15  2  0
 14 16  1  0
 16 17  1  0
 16 18  1  0
  9 19  2  0
 19 20  1  0
 19 21  1  0
  6 22  1  0
 22 23  2  0
 23  3  1  0
 21  7  1  0
  1 24  1  0
  1 25  1  0
  1 26  1  0
  2 27  1  0
  2 28  1  0
  4 29  1  0
  5 30  1  0
 10 31  1  0
 10 32  1  0
 12 33  1  0
 12 34  1  0
 12 35  1  0
 13 36  1  0
 13 37  1  0
 17 38  1  0
 17 39  1  0
 17 40  1  0
 18 41  1  0
 18 42  1  0
 18 43  1  0
 20 44  1  0
 20 45  1  0
 20 46  1  0
 22 47  1  0
 23 48  1  0
M  END
>  <UniqueID>  (11) 
10

>  <SMILES>  (11) 
CCc1ccc(-c2nc(CN(C)CC(=O)N(C)C)c(C)o2)cc1

>  <Energy>  (11) 
67.85769363674122

>  <Genealogy>  (11) 
CCc1ccc(-c2nc(CN(C)CC(=O)N(C)C)c(C)o2)cc1 (3D coordinates assigned)
CCc1ccc(-c2nc(CN(C)CC(=O)N(C)C)c(C)o2)cc1 (optimized conformer: 67.85769363674122 kcal/mol)

>  <smiles>  (11) 
CCc1ccc(-c2nc(CN(C)CC(=O)N(C)C)c(C)o2)cc1

>  <score_type>  (11) 
oracle

>  <origin>  (11) 
adg

>  <m_score__min__energy>  (11) 
-7.1200000000000001

>  <m_primary>  (11) 
energy

$$$$
11:0
     RDKit          3D

 53 55  0  0  0  0  0  0  0  0999 V2000
   58.9910   29.7380   48.5940 C   0  0  0  0  0  0  0  0  0  0  0  0
   58.5200   29.3500   47.1890 C   0  0  0  0  0  0  0  0  0  0  0  0
   59.3990   29.9850   46.0690 C   0  0  2  0  0  0  0  0  0  0  0  0
   60.5000   30.9320   46.6700 C   0  0  0  0  0  0  0  0  0  0  0  0
   60.2100   32.4200   46.3780 C   0  0  1  0  0  0  0  0  0  0  0  0
   58.7270   32.6940   46.5490 C   0  0  1  0  0  0  0  0  0  0  0  0
   58.6030   34.2140   46.5000 C   0  0  0  0  0  0  0  0  0  0  0  0
   59.9980   34.7600   46.8400 C   0  0  0  0  0  0  0  0  0  0  0  0
   60.9190   33.5470   47.1860 C   0  0  2  0  0  0  0  0  0  0  0  0
   62.3380   33.8400   46.6380 C   0  0  0  0  0  0  0  0  0  0  0  0
   63.4190   32.8660   47.1160 C   0  0  0  0  0  0  0  0  0  0  0  0
   63.1290   32.1930   48.4690 C   0  0  0  0  0  0  0  0  0  0  0  0
   62.2480   32.9770   49.3750 N   0  0  0  0  0  0  0  0  0  0  0  0
   62.0020   32.1510   50.5850 C   0  0  0  0  0  0  0  0  0  0  0  0
   62.9430   34.2110   49.8340 C   0  0  0  0  0  0  0  0  0  0  0  0
   60.9230   33.3090   48.7500 C   0  0  0  0  0  0  0  0  0  0  0  0
   57.8860   31.9030   45.5170 C   0  0  0  0  0  0  0  0  0  0  0  0
   58.5940   30.6910   45.0210 N   0  0  2  0  0  0  0  0  0  0  0  0
   57.6640   29.7990   44.3000 C   0  0  0  0  0  0  0  0  0  0  0  0
   58.3695   29.2261   49.3435 H   0  0  0  0  0  0  0  0  0  0  0  0
   60.0419   29.4401   48.7237 H   0  0  0  0  0  0  0  0  0  0  0  0
   58.8998   30.8265   48.7237 H   0  0  0  0  0  0  0  0  0  0  0  0
   58.5621   28.2551   47.0925 H   0  0  0  0  0  0  0  0  0  0  0  0
   57.4944   29.7275   47.0638 H   0  0  0  0  0  0  0  0  0  0  0  0
   59.9026   29.1473   45.5645 H   0  0  0  0  0  0  0  0  0  0  0  0
   60.5375   30.7853   47.7595 H   0  0  0  0  0  0  0  0  0  0  0  0
   61.4605   30.6758   46.1990 H   0  0  0  0  0  0  0  0  0  0  0  0
   60.6238   32.4939   45.3615 H   0  0  0  0  0  0  0  0  0  0  0  0
   58.3123   32.3356   47.5027 H   0  0  0  0  0  0  0  0  0  0  0  0
   58.2984   34.5411   45.4949 H   0  0  0  0  0  0  0  0  0  0  0  0
   57.8423   34.5806   47.2050 H   0  0  0  0  0  0  0  0  0  0  0  0
   60.4066   35.3046   45.9761 H   0  0  0  0  0  0  0  0  0  0  0  0
   59.9404   35.4520   47.6931 H   0  0  0  0  0  0  0  0  0  0  0  0
   62.2976   33.7959   45.5396 H   0  0  0  0  0  0  0  0  0  0  0  0
   62.6211   34.8321   47.0195 H   0  0  0  0  0  0  0  0  0  0  0  0
   63.5279   32.0767   46.3576 H   0  0  0  0  0  0  0  0  0  0  0  0
   64.3327   33.4622   47.2564 H   0  0  0  0  0  0  0  0  0  0  0  0
   62.6452   31.2246   48.2736 H   0  0  0  0  0  0  0  0  0  0  0  0
   64.0969   32.0964   48.9826 H   0  0  0  0  0  0  0  0  0  0  0  0
   62.1824   32.7567   51.4853 H   0  0  0  0  0  0  0  0  0  0  0  0
   60.9599   31.7987   50.5828 H   0  0  0  0  0  0  0  0  0  0  0  0
   62.6815   31.2860   50.5828 H   0  0  0  0  0  0  0  0  0  0  0  0
   62.9573   34.2363   50.9336 H   0  0  0  0  0  0  0  0  0  0  0  0
   63.9752   34.2135   49.4538 H   0  0  0  0  0  0  0  0  0  0  0  0
   62.4101   35.0950   49.4538 H   0  0  0  0  0  0  0  0  0  0  0  0
   60.2354   32.4772   48.9630 H   0  0  0  0  0  0  0  0  0  0  0  0
   60.6266   34.2720   49.1913 H   0  0  0  0  0  0  0  0  0  0  0  0
   56.9437   31.5926   45.9921 H   0  0  0  0  0  0  0  0  0  0  0  0
   57.7036   32.5622   44.6555 H   0  0  0  0  0  0  0  0  0  0  0  0
   59.2720   31.0050   44.2860 H   0  0  0  0  0  0  0  0  0  0  0  0
   57.0676   29.2270   45.0260 H   0  0  0  0  0  0  0  0  0  0  0  0
   56.9941   30.4010   43.6684 H   0  0  0  0  0  0  0  0  0  0  0  0
   58.2375   29.1046   43.6684 H   0  0  0  0  0  0  0  0  0  0  0  0
  1  2  1  0
  2  3  1  0
  3  4  1  0
  4  5  1  0
  5  6  1  0
  6  7  1  0
  7  8  1  0
  9  8  1  1
  9 10  1  0
 10 11  1  0
 11 12  1  0
 12 13  1  0
 13 14  1  0
 13 15  1  0
 13 16  1  0
  6 17  1  0
 17 18  1  0
 18 19  1  0
 18  3  1  0
  9  5  1  0
 16  9  1  0
  1 20  1  0
  1 21  1  0
  1 22  1  0
  2 23  1  0
  2 24  1  0
  3 25  1  6
  4 26  1  0
  4 27  1  0
  5 28  1  6
  6 29  1  1
  7 30  1  0
  7 31  1  0
  8 32  1  0
  8 33  1  0
 10 34  1  0
 10 35  1  0
 11 36  1  0
 11 37  1  0
 12 38  1  0
 12 39  1  0
 14 40  1  0
 14 41  1  0
 14 42  1  0
 15 43  1  0
 15 44  1  0
 15 45  1  0
 16 46  1  0
 16 47  1  0
 17 48  1  0
 17 49  1  0
 18 50  1  6
 19 51  1  0
 19 52  1  0
 19 53  1  0
M  CHG  2  13   1  18   1
M  END
>  <UniqueID>  (12) 
11

>  <SMILES>  (12) 
CC[C@@H]1C[C@H]2C(CCC23CCC[N+](C)(C)C3)C[NH+]1C

>  <Energy>  (12) 
93.97487638122529

>  <Genealogy>  (12) 
CCC1CC2C(CCC23CCC[N+](C)(C)C3)C[NH+]1C (protonated)
CC[C@@H]1C[C@H]2C(CCC23CCC[N+](C)(C)C3)C[NH+]1C (chirality)
CC[C@@H]1C[C@H]2C(CCC23CCC[N+](C)(C)C3)C[NH+]1C (3D coordinates assigned)
CC[C@@H]1C[C@H]2C(CCC23CCC[N+](C)(C)C3)C[NH+]1C (nonaromatic ring conformer: 93.97487638122529 kcal/mol)

>  <smiles>  (12) 
CCC1CC2C(CCC23CCC[N+](C)(C)C3)CN1C

>  <score_type>  (12) 
oracle

>  <origin>  (12) 
adg

>  <m_score__min__energy>  (12) 
-4.3499999999999996

>  <m_primary>  (12) 
energy

$$$$
12:0
     RDKit          3D

 51 53  0  0  0  0  0  0  0  0999 V2000
   60.7510   26.7750   49.3130 C   0  0  0  0  0  0  0  0  0  0  0  0
   59.8070   26.6660   48.2530 O   0  0  0  0  0  0  0  0  0  0  0  0
   59.3280   27.7460   47.4940 C   0  0  0  0  0  0  0  0  0  0  0  0
   59.9230   29.0160   47.5460 C   0  0  0  0  0  0  0  0  0  0  0  0
   59.4250   30.0830   46.7730 C   0  0  0  0  0  0  0  0  0  0  0  0
   59.9930   31.3650   46.8720 C   0  0  0  0  0  0  0  0  0  0  0  0
   61.1090   31.5910   47.7440 N   0  0  0  0  0  0  0  0  0  0  0  0
   60.9350   32.3510   48.9810 C   0  0  0  0  0  0  0  0  0  0  0  0
   62.1730   33.2040   49.2850 C   0  0  0  0  0  0  0  0  0  0  0  0
   63.3000   32.8420   48.3950 N   0  0  0  0  0  0  0  0  0  0  0  0
   64.5660   32.8660   49.1430 C   0  0  0  0  0  0  0  0  0  0  0  0
   63.3890   33.7640   47.2490 C   0  0  0  0  0  0  0  0  0  0  0  0
   59.4160   32.4350   46.1730 C   0  0  0  0  0  0  0  0  0  0  0  0
   59.8880   33.7520   46.3530 C   0  0  0  0  0  0  0  0  0  0  0  0
   59.2840   34.8190   45.6940 C   0  0  0  0  0  0  0  0  0  0  0  0
   58.1930   34.5960   44.8610 C   0  0  0  0  0  0  0  0  0  0  0  0
   57.7130   33.3020   44.6640 C   0  0  0  0  0  0  0  0  0  0  0  0
   58.3310   32.1880   45.2900 C   0  0  0  0  0  0  0  0  0  0  0  0
   57.8940   30.8940   45.0740 N   0  0  0  0  0  0  0  0  0  0  0  0
   56.9760   30.6020   43.9490 C   0  0  0  0  0  0  0  0  0  0  0  0
   58.3380   29.8690   45.8900 C   0  0  0  0  0  0  0  0  0  0  0  0
   57.7200   28.5930   45.8890 C   0  0  0  0  0  0  0  0  0  0  0  0
   58.2150   27.5390   46.6760 C   0  0  0  0  0  0  0  0  0  0  0  0
   57.6240   26.2640   46.6740 O   0  0  0  0  0  0  0  0  0  0  0  0
   57.9260   25.2310   45.7410 C   0  0  0  0  0  0  0  0  0  0  0  0
   60.2270   26.7145   50.2783 H   0  0  0  0  0  0  0  0  0  0  0  0
   61.4807   25.9551   49.2399 H   0  0  0  0  0  0  0  0  0  0  0  0
   61.2747   27.7396   49.2399 H   0  0  0  0  0  0  0  0  0  0  0  0
   60.7916   29.1807   48.2005 H   0  0  0  0  0  0  0  0  0  0  0  0
   62.0580   31.2930   47.4230 H   0  0  0  0  0  0  0  0  0  0  0  0
   60.0610   33.0108   48.8771 H   0  0  0  0  0  0  0  0  0  0  0  0
   60.7883   31.6415   49.8087 H   0  0  0  0  0  0  0  0  0  0  0  0
   61.9239   34.2650   49.1362 H   0  0  0  0  0  0  0  0  0  0  0  0
   62.4768   33.0212   50.3263 H   0  0  0  0  0  0  0  0  0  0  0  0
   64.3543   32.8620   50.2224 H   0  0  0  0  0  0  0  0  0  0  0  0
   65.1624   31.9790   48.8830 H   0  0  0  0  0  0  0  0  0  0  0  0
   65.1283   33.7750   48.8830 H   0  0  0  0  0  0  0  0  0  0  0  0
   63.4886   34.7963   47.6158 H   0  0  0  0  0  0  0  0  0  0  0  0
   64.2664   33.5057   46.6379 H   0  0  0  0  0  0  0  0  0  0  0  0
   62.4784   33.6783   46.6379 H   0  0  0  0  0  0  0  0  0  0  0  0
   60.7420   33.9377   47.0209 H   0  0  0  0  0  0  0  0  0  0  0  0
   59.6701   35.8397   45.8323 H   0  0  0  0  0  0  0  0  0  0  0  0
   57.7070   35.4436   44.3557 H   0  0  0  0  0  0  0  0  0  0  0  0
   56.8411   33.1417   44.0128 H   0  0  0  0  0  0  0  0  0  0  0  0
   55.9980   30.2909   44.3450 H   0  0  0  0  0  0  0  0  0  0  0  0
   56.8518   31.5050   43.3332 H   0  0  0  0  0  0  0  0  0  0  0  0
   57.3963   29.7932   43.3332 H   0  0  0  0  0  0  0  0  0  0  0  0
   56.8343   28.4243   45.2589 H   0  0  0  0  0  0  0  0  0  0  0  0
   58.1944   24.3130   46.2845 H   0  0  0  0  0  0  0  0  0  0  0  0
   57.0464   25.0391   45.1090 H   0  0  0  0  0  0  0  0  0  0  0  0
   58.7705   25.5431   45.1090 H   0  0  0  0  0  0  0  0  0  0  0  0
  1  2  1  0
  2  3  1  0
  3  4  2  0
  4  5  1  0
  5  6  2  0
  6  7  1  0
  7  8  1  0
  8  9  1  0
  9 10  1  0
 10 11  1  0
 10 12  1  0
  6 13  1  0
 13 14  2  0
 14 15  1  0
 15 16  2  0
 16 17  1  0
 17 18  2  0
 18 19  1  0
 19 20  1  0
 19 21  2  0
 21 22  1  0
 22 23  2  0
 23 24  1  0
 24 25  1  0
 23  3  1  0
 21  5  1  0
 18 13  1  0
  1 26  1  0
  1 27  1  0
  1 28  1  0
  4 29  1  0
  7 30  1  0
  8 31  1  0
  8 32  1  0
  9 33  1  0
  9 34  1  0
 11 35  1  0
 11 36  1  0
 11 37  1  0
 12 38  1  0
 12 39  1  0
 12 40  1  0
 14 41  1  0
 15 42  1  0
 16 43  1  0
 17 44  1  0
 20 45  1  0
 20 46  1  0
 20 47  1  0
 22 48  1  0
 25 49  1  0
 25 50  1  0
 25 51  1  0
M  CHG  1  19   1
M  END
>  <UniqueID>  (13) 
12

>  <SMILES>  (13) 
COc1cc2c(NCCN(C)C)c3ccccc3[n+](C)c2cc1OC

>  <Energy>  (13) 
75.3753642741666

>  <Genealogy>  (13) 
COc1cc2c(NCCN(C)C)c3ccccc3[n+](C)c2cc1OC (3D coordinates assigned)
COc1cc2c(NCCN(C)C)c3ccccc3[n+](C)c2cc1OC (optimized conformer: 75.3753642741666 kcal/mol)

>  <smiles>  (13) 
COc1cc2c(NCCN(C)C)c3ccccc3[n+](C)c2cc1OC

>  <score_type>  (13) 
oracle

>  <origin>  (13) 
adg

>  <m_score__min__energy>  (13) 
-5.1799999999999997

>  <m_primary>  (13) 
energy

$$$$
13:0
     RDKit          3D

 42 44  0  0  0  0  0  0  0  0999 V2000
   63.0520   32.5650   47.4360 C   0  0  0  0  0  0  0  0  0  0  0  0
   62.5030   33.8050   46.7250 C   0  0  0  0  0  0  0  0  0  0  0  0
   61.1070   33.6370   46.2910 N   0  0  0  0  0  0  0  0  0  0  0  0
   60.1840   34.4980   47.0450 C   0  0  0  0  0  0  0  0  0  0  0  0
   58.7330   34.1920   46.6530 C   0  0  0  0  0  0  0  0  0  0  0  0
   58.2110   32.8760   47.2410 C   0  0  0  0  0  0  0  0  0  0  0  0
   58.9150   31.7330   46.6490 N   0  0  0  0  0  0  0  0  0  0  0  0
   58.5320   30.7150   45.9140 C   0  0  0  0  0  0  0  0  0  0  0  0
   58.0660   31.0060   44.6100 C   0  0  0  0  0  0  0  0  0  0  0  0
   58.2710   32.2710   44.0130 C   0  0  0  0  0  0  0  0  0  0  0  0
   57.7580   32.5510   42.7440 C   0  0  0  0  0  0  0  0  0  0  0  0
   57.0250   31.5860   42.0550 C   0  0  0  0  0  0  0  0  0  0  0  0
   56.8000   30.3360   42.6320 C   0  0  0  0  0  0  0  0  0  0  0  0
   57.3150   30.0350   43.9050 C   0  0  0  0  0  0  0  0  0  0  0  0
   57.0710   28.8200   44.4640 N   0  0  0  0  0  0  0  0  0  0  0  0
   57.6300   28.4530   45.6490 C   0  0  0  0  0  0  0  0  0  0  0  0
   57.4550   27.1400   46.1210 C   0  0  0  0  0  0  0  0  0  0  0  0
   58.1510   26.6930   47.2420 C   0  0  0  0  0  0  0  0  0  0  0  0
   59.0620   27.5360   47.8700 C   0  0  0  0  0  0  0  0  0  0  0  0
   59.2290   28.8490   47.4240 C   0  0  0  0  0  0  0  0  0  0  0  0
   58.4410   29.3680   46.3750 C   0  0  0  0  0  0  0  0  0  0  0  0
   62.9885   32.7084   48.5248 H   0  0  0  0  0  0  0  0  0  0  0  0
   62.4597   31.6843   47.1470 H   0  0  0  0  0  0  0  0  0  0  0  0
   64.1022   32.4115   47.1470 H   0  0  0  0  0  0  0  0  0  0  0  0
   62.5569   34.6597   47.4154 H   0  0  0  0  0  0  0  0  0  0  0  0
   63.1138   33.9709   45.8254 H   0  0  0  0  0  0  0  0  0  0  0  0
   60.8240   32.6360   46.4150 H   0  0  0  0  0  0  0  0  0  0  0  0
   60.3154   34.3160   48.1219 H   0  0  0  0  0  0  0  0  0  0  0  0
   60.4041   35.5503   46.8119 H   0  0  0  0  0  0  0  0  0  0  0  0
   58.0940   35.0124   47.0115 H   0  0  0  0  0  0  0  0  0  0  0  0
   58.7051   34.0934   45.5578 H   0  0  0  0  0  0  0  0  0  0  0  0
   58.3726   32.8765   48.3291 H   0  0  0  0  0  0  0  0  0  0  0  0
   57.1377   32.7874   47.0168 H   0  0  0  0  0  0  0  0  0  0  0  0
   58.8399   33.0423   44.5529 H   0  0  0  0  0  0  0  0  0  0  0  0
   57.9331   33.5362   42.2871 H   0  0  0  0  0  0  0  0  0  0  0  0
   56.6237   31.8103   41.0557 H   0  0  0  0  0  0  0  0  0  0  0  0
   56.2153   29.5803   42.0869 H   0  0  0  0  0  0  0  0  0  0  0  0
   56.4880   28.1270   43.9400 H   0  0  0  0  0  0  0  0  0  0  0  0
   56.7634   26.4607   45.6012 H   0  0  0  0  0  0  0  0  0  0  0  0
   57.9808   25.6775   47.6290 H   0  0  0  0  0  0  0  0  0  0  0  0
   59.6532   27.1671   48.7212 H   0  0  0  0  0  0  0  0  0  0  0  0
   59.9874   29.4891   47.8984 H   0  0  0  0  0  0  0  0  0  0  0  0
  1  2  1  0
  2  3  1  0
  3  4  1  0
  4  5  1  0
  5  6  1  0
  6  7  1  0
  7  8  2  3
  8  9  1  0
  9 10  2  0
 10 11  1  0
 11 12  2  0
 12 13  1  0
 13 14  2  0
 14 15  1  0
 15 16  1  0
 16 17  2  0
 17 18  1  0
 18 19  2  0
 19 20  1  0
 20 21  2  0
 21  8  1  0
 14  9  1  0
 21 16  1  0
  1 22  1  0
  1 23  1  0
  1 24  1  0
  2 25  1  0
  2 26  1  0
  3 27  1  0
  4 28  1  0
  4 29  1  0
  5 30  1  0
  5 31  1  0
  6 32  1  0
  6 33  1  0
 10 34  1  0
 11 35  1  0
 12 36  1  0
 13 37  1  0
 15 38  1  0
 17 39  1  0
 18 40  1  0
 19 41  1  0
 20 42  1  0
M  END
>  <UniqueID>  (14) 
13

>  <SMILES>  (14) 
CCNCCCN=c1c2ccccc2[nH]c2ccccc12

>  <Energy>  (14) 
69.34811092153865

>  <Genealogy>  (14) 
CCNCCCN=c1c2ccccc2[nH]c2ccccc12 (3D coordinates assigned)
CCNCCCN=c1c2ccccc2[nH]c2ccccc12 (optimized conformer: 69.34811092153865 kcal/mol)

>  <smiles>  (14) 
CCNCCCN=c1c2ccccc2[nH]c2ccccc12

>  <score_type>  (14) 
oracle

>  <origin>  (14) 
adg

>  <m_score__min__energy>  (14) 
-7.6299999999999999

>  <m_primary>  (14) 
energy

$$$$
14:0
     RDKit          3D

 63 66  0  0  0  0  0  0  0  0999 V2000
   56.7480   21.4010   42.9610 C   0  0  0  0  0  0  0  0  0  0  0  0
   56.3700   22.8850   43.0030 C   0  0  0  0  0  0  0  0  0  0  0  0
   56.4000   23.4170   44.3870 N   0  0  0  0  0  0  0  0  0  0  0  0
   55.0470   23.4240   44.9910 C   0  0  0  0  0  0  0  0  0  0  0  0
   54.7430   24.7940   45.5940 C   0  0  0  0  0  0  0  0  0  0  0  0
   57.3480   22.6350   45.2210 C   0  0  0  0  0  0  0  0  0  0  0  0
   58.8010   23.0160   44.9150 C   0  0  0  0  0  0  0  0  0  0  0  0
   59.3510   23.8180   45.9660 O   0  0  0  0  0  0  0  0  0  0  0  0
   59.1550   25.1970   46.1300 C   0  0  0  0  0  0  0  0  0  0  0  0
   57.8820   25.7940   46.0720 C   0  0  0  0  0  0  0  0  0  0  0  0
   57.7380   27.1680   46.2790 C   0  0  0  0  0  0  0  0  0  0  0  0
   58.8640   27.9640   46.5300 C   0  0  0  0  0  0  0  0  0  0  0  0
   58.7130   29.4160   46.7460 C   0  0  0  0  0  0  0  0  0  0  0  0
   59.0340   29.9320   48.0070 C   0  0  0  0  0  0  0  0  0  0  0  0
   58.9440   31.2990   48.2610 C   0  0  0  0  0  0  0  0  0  0  0  0
   58.5070   32.1880   47.2640 C   0  0  0  0  0  0  0  0  0  0  0  0
   58.3930   33.5720   47.5050 O   0  0  0  0  0  0  0  0  0  0  0  0
   59.3130   34.5750   47.0670 C   0  0  0  0  0  0  0  0  0  0  0  0
   60.7300   34.2060   47.4210 C   0  0  0  0  0  0  0  0  0  0  0  0
   61.1450   34.1920   48.7640 C   0  0  0  0  0  0  0  0  0  0  0  0
   62.4590   33.8410   49.0920 C   0  0  0  0  0  0  0  0  0  0  0  0
   63.3620   33.4850   48.0850 C   0  0  0  0  0  0  0  0  0  0  0  0
   62.9510   33.4790   46.7500 C   0  0  0  0  0  0  0  0  0  0  0  0
   61.6410   33.8350   46.4170 C   0  0  0  0  0  0  0  0  0  0  0  0
   58.1700   31.6830   45.9900 C   0  0  0  0  0  0  0  0  0  0  0  0
   57.7240   32.5480   44.9730 C   0  0  0  0  0  0  0  0  0  0  0  0
   57.3920   32.0500   43.7120 C   0  0  0  0  0  0  0  0  0  0  0  0
   57.4900   30.6860   43.4490 C   0  0  0  0  0  0  0  0  0  0  0  0
   57.9220   29.8080   44.4430 C   0  0  0  0  0  0  0  0  0  0  0  0
   58.2740   30.2890   45.7230 C   0  0  0  0  0  0  0  0  0  0  0  0
   60.1360   27.3770   46.5550 C   0  0  0  0  0  0  0  0  0  0  0  0
   60.2780   26.0020   46.3530 C   0  0  0  0  0  0  0  0  0  0  0  0
   56.8455   21.0183   43.9876 H   0  0  0  0  0  0  0  0  0  0  0  0
   55.9646   20.8379   42.4326 H   0  0  0  0  0  0  0  0  0  0  0  0
   57.7053   21.2813   42.4326 H   0  0  0  0  0  0  0  0  0  0  0  0
   57.0829   23.4526   42.3869 H   0  0  0  0  0  0  0  0  0  0  0  0
   55.3457   22.9902   42.6161 H   0  0  0  0  0  0  0  0  0  0  0  0
   54.3018   23.1957   44.2147 H   0  0  0  0  0  0  0  0  0  0  0  0
   55.0064   22.6657   45.7868 H   0  0  0  0  0  0  0  0  0  0  0  0
   54.7587   24.7232   46.6916 H   0  0  0  0  0  0  0  0  0  0  0  0
   55.5025   25.5173   45.2623 H   0  0  0  0  0  0  0  0  0  0  0  0
   53.7489   25.1282   45.2623 H   0  0  0  0  0  0  0  0  0  0  0  0
   57.1408   22.8348   46.2827 H   0  0  0  0  0  0  0  0  0  0  0  0
   57.2128   21.5673   44.9934 H   0  0  0  0  0  0  0  0  0  0  0  0
   59.3995   22.0990   44.8109 H   0  0  0  0  0  0  0  0  0  0  0  0
   58.8228   23.5971   43.9813 H   0  0  0  0  0  0  0  0  0  0  0  0
   56.9964   25.1760   45.8627 H   0  0  0  0  0  0  0  0  0  0  0  0
   56.7386   27.6263   46.2449 H   0  0  0  0  0  0  0  0  0  0  0  0
   59.3609   29.2507   48.8063 H   0  0  0  0  0  0  0  0  0  0  0  0
   59.2181   31.6869   49.2532 H   0  0  0  0  0  0  0  0  0  0  0  0
   59.2325   34.6837   45.9753 H   0  0  0  0  0  0  0  0  0  0  0  0
   59.0631   35.5207   47.5702 H   0  0  0  0  0  0  0  0  0  0  0  0
   60.4340   34.4580   49.5600 H   0  0  0  0  0  0  0  0  0  0  0  0
   62.7824   33.8450   50.1434 H   0  0  0  0  0  0  0  0  0  0  0  0
   64.3951   33.2100   48.3441 H   0  0  0  0  0  0  0  0  0  0  0  0
   63.6600   33.1934   45.9589 H   0  0  0  0  0  0  0  0  0  0  0  0
   61.3216   33.8248   45.3644 H   0  0  0  0  0  0  0  0  0  0  0  0
   57.6363   33.6260   45.1738 H   0  0  0  0  0  0  0  0  0  0  0  0
   57.0518   32.7373   42.9234 H   0  0  0  0  0  0  0  0  0  0  0  0
   57.2257   30.2995   42.4536 H   0  0  0  0  0  0  0  0  0  0  0  0
   57.9891   28.7313   44.2278 H   0  0  0  0  0  0  0  0  0  0  0  0
   61.0246   28.0001   46.7341 H   0  0  0  0  0  0  0  0  0  0  0  0
   61.2801   25.5485   46.3693 H   0  0  0  0  0  0  0  0  0  0  0  0
  1  2  1  0
  2  3  1  0
  3  4  1  0
  4  5  1  0
  3  6  1  0
  6  7  1  0
  7  8  1  0
  8  9  1  0
  9 10  2  0
 10 11  1  0
 11 12  2  0
 12 13  1  0
 13 14  2  0
 14 15  1  0
 15 16  2  0
 16 17  1  0
 17 18  1  0
 18 19  1  0
 19 20  2  0
 20 21  1  0
 21 22  2  0
 22 23  1  0
 23 24  2  0
 16 25  1  0
 25 26  2  0
 26 27  1  0
 27 28  2  0
 28 29  1  0
 29 30  2  0
 12 31  1  0
 31 32  2  0
 32  9  1  0
 30 13  1  0
 24 19  1  0
 30 25  1  0
  1 33  1  0
  1 34  1  0
  1 35  1  0
  2 36  1  0
  2 37  1  0
  4 38  1  0
  4 39  1  0
  5 40  1  0
  5 41  1  0
  5 42  1  0
  6 43  1  0
  6 44  1  0
  7 45  1  0
  7 46  1  0
 10 47  1  0
 11 48  1  0
 14 49  1  0
 15 50  1  0
 18 51  1  0
 18 52  1  0
 20 53  1  0
 21 54  1  0
 22 55  1  0
 23 56  1  0
 24 57  1  0
 26 58  1  0
 27 59  1  0
 28 60  1  0
 29 61  1  0
 31 62  1  0
 32 63  1  0
M  END
>  <UniqueID>  (15) 
14

>  <SMILES>  (15) 
CCN(CC)CCOc1ccc(-c2ccc(OCc3ccccc3)c3ccccc23)cc1

>  <Energy>  (15) 
76.42904240684263

>  <Genealogy>  (15) 
CCN(CC)CCOc1ccc(-c2ccc(OCc3ccccc3)c3ccccc23)cc1 (3D coordinates assigned)
CCN(CC)CCOc1ccc(-c2ccc(OCc3ccccc3)c3ccccc23)cc1 (optimized conformer: 76.42904240684263 kcal/mol)

>  <smiles>  (15) 
CCN(CC)CCOc1ccc(-c2ccc(OCc3ccccc3)c3ccccc23)cc1

>  <score_type>  (15) 
oracle

>  <origin>  (15) 
adg

>  <m_score__min__energy>  (15) 
-8.6400000000000006

>  <m_primary>  (15) 
energy

$$$$
15:0
     RDKit          3D

 55 58  0  0  0  0  0  0  0  0999 V2000
   57.0440   24.3860   43.3330 C   0  0  0  0  0  0  0  0  0  0  0  0
   56.2920   23.2000   42.7300 C   0  0  0  0  0  0  0  0  0  0  0  0
   56.0120   22.1580   43.7430 N   0  0  0  0  0  0  0  0  0  0  0  0
   57.0990   21.1650   43.7950 C   0  0  0  0  0  0  0  0  0  0  0  0
   55.6460   22.6720   45.0880 C   0  0  0  0  0  0  0  0  0  0  0  0
   56.4490   22.0710   46.2620 C   0  0  0  0  0  0  0  0  0  0  0  0
   57.6800   22.7640   46.4750 O   0  0  0  0  0  0  0  0  0  0  0  0
   57.8530   24.1570   46.4370 C   0  0  0  0  0  0  0  0  0  0  0  0
   56.8430   25.0630   46.8130 C   0  0  0  0  0  0  0  0  0  0  0  0
   57.0700   26.4410   46.7440 C   0  0  0  0  0  0  0  0  0  0  0  0
   58.3110   26.9330   46.3140 C   0  0  0  0  0  0  0  0  0  0  0  0
   58.5450   28.3920   46.2190 C   0  0  0  0  0  0  0  0  0  0  0  0
   59.2890   29.0060   47.2340 C   0  0  0  0  0  0  0  0  0  0  0  0
   59.5940   30.3630   47.1730 C   0  0  0  0  0  0  0  0  0  0  0  0
   59.1710   31.1440   46.0950 C   0  0  0  0  0  0  0  0  0  0  0  0
   59.6040   32.5130   46.0410 N   0  0  0  0  0  0  0  0  0  0  0  0
   58.6800   33.6300   46.2470 C   0  0  0  0  0  0  0  0  0  0  0  0
   58.5180   34.5500   45.0450 C   0  0  0  0  0  0  0  0  0  0  0  0
   59.3720   34.9840   46.2240 C   0  0  0  0  0  0  0  0  0  0  0  0
   58.3560   30.5670   45.0900 C   0  0  0  0  0  0  0  0  0  0  0  0
   57.8020   31.3510   44.0570 C   0  0  0  0  0  0  0  0  0  0  0  0
   56.9960   30.7720   43.0780 C   0  0  0  0  0  0  0  0  0  0  0  0
   56.7120   29.4100   43.1190 C   0  0  0  0  0  0  0  0  0  0  0  0
   57.2220   28.6180   44.1470 C   0  0  0  0  0  0  0  0  0  0  0  0
   58.0490   29.1760   45.1450 C   0  0  0  0  0  0  0  0  0  0  0  0
   59.3160   26.0310   45.9350 C   0  0  0  0  0  0  0  0  0  0  0  0
   59.0870   24.6540   46.0030 C   0  0  0  0  0  0  0  0  0  0  0  0
   57.0053   24.3250   44.4306 H   0  0  0  0  0  0  0  0  0  0  0  0
   58.0925   24.3624   43.0012 H   0  0  0  0  0  0  0  0  0  0  0  0
   56.5755   25.3243   43.0012 H   0  0  0  0  0  0  0  0  0  0  0  0
   55.3389   23.5570   42.3127 H   0  0  0  0  0  0  0  0  0  0  0  0
   56.9233   22.7559   41.9463 H   0  0  0  0  0  0  0  0  0  0  0  0
   57.3425   20.9425   44.8444 H   0  0  0  0  0  0  0  0  0  0  0  0
   56.7773   20.2424   43.2897 H   0  0  0  0  0  0  0  0  0  0  0  0
   57.9888   21.5686   43.2897 H   0  0  0  0  0  0  0  0  0  0  0  0
   55.8027   23.7608   45.0905 H   0  0  0  0  0  0  0  0  0  0  0  0
   54.5987   22.3786   45.2525 H   0  0  0  0  0  0  0  0  0  0  0  0
   55.8422   22.1343   47.1773 H   0  0  0  0  0  0  0  0  0  0  0  0
   56.6846   21.0255   46.0142 H   0  0  0  0  0  0  0  0  0  0  0  0
   55.8709   24.6851   47.1626 H   0  0  0  0  0  0  0  0  0  0  0  0
   56.2717   27.1423   47.0282 H   0  0  0  0  0  0  0  0  0  0  0  0
   59.6367   28.4089   48.0899 H   0  0  0  0  0  0  0  0  0  0  0  0
   60.1754   30.8260   47.9839 H   0  0  0  0  0  0  0  0  0  0  0  0
   60.5370   32.7220   45.6210 H   0  0  0  0  0  0  0  0  0  0  0  0
   57.9828   33.1092   46.9198 H   0  0  0  0  0  0  0  0  0  0  0  0
   58.9932   34.2922   44.0870 H   0  0  0  0  0  0  0  0  0  0  0  0
   57.6619   34.9802   44.5045 H   0  0  0  0  0  0  0  0  0  0  0  0
   60.4655   35.0408   46.1193 H   0  0  0  0  0  0  0  0  0  0  0  0
   59.3900   35.8591   46.8903 H   0  0  0  0  0  0  0  0  0  0  0  0
   58.0081   32.4310   44.0234 H   0  0  0  0  0  0  0  0  0  0  0  0
   56.5829   31.3938   42.2701 H   0  0  0  0  0  0  0  0  0  0  0  0
   56.0834   28.9571   42.3381 H   0  0  0  0  0  0  0  0  0  0  0  0
   56.9769   27.5462   44.1804 H   0  0  0  0  0  0  0  0  0  0  0  0
   60.2874   26.4086   45.5832 H   0  0  0  0  0  0  0  0  0  0  0  0
   59.8844   23.9542   45.7126 H   0  0  0  0  0  0  0  0  0  0  0  0
  1  2  1  0
  2  3  1  0
  3  4  1  0
  3  5  1  0
  5  6  1  0
  6  7  1  0
  7  8  1  0
  8  9  2  0
  9 10  1  0
 10 11  2  0
 11 12  1  0
 12 13  2  0
 13 14  1  0
 14 15  2  0
 15 16  1  0
 16 17  1  0
 17 18  1  0
 18 19  1  0
 15 20  1  0
 20 21  2  0
 21 22  1  0
 22 23  2  0
 23 24  1  0
 24 25  2  0
 11 26  1  0
 26 27  2  0
 27  8  1  0
 25 12  1  0
 19 17  1  0
 25 20  1  0
  1 28  1  0
  1 29  1  0
  1 30  1  0
  2 31  1  0
  2 32  1  0
  4 33  1  0
  4 34  1  0
  4 35  1  0
  5 36  1  0
  5 37  1  0
  6 38  1  0
  6 39  1  0
  9 40  1  0
 10 41  1  0
 13 42  1  0
 14 43  1  0
 16 44  1  0
 17 45  1  0
 18 46  1  0
 18 47  1  0
 19 48  1  0
 19 49  1  0
 21 50  1  0
 22 51  1  0
 23 52  1  0
 24 53  1  0
 26 54  1  0
 27 55  1  0
M  END
>  <UniqueID>  (16) 
15

>  <SMILES>  (16) 
CCN(C)CCOc1ccc(-c2ccc(NC3CC3)c3ccccc23)cc1

>  <Energy>  (16) 
342.9378341722475

>  <Genealogy>  (16) 
CCN(C)CCOc1ccc(-c2ccc(NC3CC3)c3ccccc23)cc1 (3D coordinates assigned)
CCN(C)CCOc1ccc(-c2ccc(NC3CC3)c3ccccc23)cc1 (nonaromatic ring conformer: 342.9378341722475 kcal/mol)

>  <smiles>  (16) 
CCN(C)CCOc1ccc(-c2ccc(NC3CC3)c3ccccc23)cc1

>  <score_type>  (16) 
oracle

>  <origin>  (16) 
adg

>  <m_score__min__energy>  (16) 
-7.9800000000000004

>  <m_primary>  (16) 
energy

$$$$
16:0
     RDKit          3D

 39 40  0  0  0  0  0  0  0  0999 V2000
   59.6620   34.5720   48.6390 C   0  0  0  0  0  0  0  0  0  0  0  0
   58.8370   33.3430   48.2700 C   0  0  0  0  0  0  0  0  0  0  0  0
   59.2770   32.7750   46.9880 N   0  0  0  0  0  0  0  0  0  0  0  0
   60.5380   33.2000   46.3660 C   0  0  0  0  0  0  0  0  0  0  0  0
   61.7140   32.7080   47.1630 C   0  0  0  0  0  0  0  0  0  0  0  0
   61.5790   31.7480   48.1660 C   0  0  0  0  0  0  0  0  0  0  0  0
   63.1050   31.5650   48.8120 S   0  0  0  0  0  0  0  0  0  0  0  0
   63.9420   32.6490   47.8810 N   0  0  0  0  0  0  0  0  0  0  0  0
   63.0390   33.2030   47.0310 C   0  0  0  0  0  0  0  0  0  0  0  0
   63.4530   34.2150   46.0070 C   0  0  0  0  0  0  0  0  0  0  0  0
   58.3330   32.0350   46.1990 C   0  0  0  0  0  0  0  0  0  0  0  0
   57.3260   32.5550   45.4080 C   0  0  0  0  0  0  0  0  0  0  0  0
   57.0060   34.0000   45.2060 C   0  0  0  0  0  0  0  0  0  0  0  0
   56.7330   31.5510   44.7310 N   0  0  0  0  0  0  0  0  0  0  0  0
   57.3250   30.4190   45.0890 N   0  0  0  0  0  0  0  0  0  0  0  0
   56.9730   29.1180   44.5330 C   0  0  0  0  0  0  0  0  0  0  0  0
   58.3170   30.6750   45.9670 C   0  0  0  0  0  0  0  0  0  0  0  0
   59.2340   29.6440   46.5530 C   0  0  0  0  0  0  0  0  0  0  0  0
   59.7205   34.6591   49.7340 H   0  0  0  0  0  0  0  0  0  0  0  0
   60.6759   34.4710   48.2245 H   0  0  0  0  0  0  0  0  0  0  0  0
   59.1845   35.4721   48.2245 H   0  0  0  0  0  0  0  0  0  0  0  0
   58.9519   32.5837   49.0575 H   0  0  0  0  0  0  0  0  0  0  0  0
   57.7837   33.6454   48.1747 H   0  0  0  0  0  0  0  0  0  0  0  0
   60.5948   32.7894   45.3471 H   0  0  0  0  0  0  0  0  0  0  0  0
   60.5654   34.2992   46.3357 H   0  0  0  0  0  0  0  0  0  0  0  0
   60.6604   31.2230   48.4669 H   0  0  0  0  0  0  0  0  0  0  0  0
   64.9610   32.8630   47.9390 H   0  0  0  0  0  0  0  0  0  0  0  0
   63.8227   35.1188   46.5133 H   0  0  0  0  0  0  0  0  0  0  0  0
   64.2514   33.7946   45.3779 H   0  0  0  0  0  0  0  0  0  0  0  0
   62.5888   34.4747   45.3779 H   0  0  0  0  0  0  0  0  0  0  0  0
   56.8971   34.4916   46.1840 H   0  0  0  0  0  0  0  0  0  0  0  0
   57.8195   34.4804   44.6426 H   0  0  0  0  0  0  0  0  0  0  0  0
   56.0657   34.0920   44.6426 H   0  0  0  0  0  0  0  0  0  0  0  0
   56.7812   28.4090   45.3519 H   0  0  0  0  0  0  0  0  0  0  0  0
   56.0691   29.2163   43.9138 H   0  0  0  0  0  0  0  0  0  0  0  0
   57.8031   28.7471   43.9138 H   0  0  0  0  0  0  0  0  0  0  0  0
   59.1889   29.6947   47.6509 H   0  0  0  0  0  0  0  0  0  0  0  0
   58.9219   28.6435   46.2190 H   0  0  0  0  0  0  0  0  0  0  0  0
   60.2641   29.8373   46.2190 H   0  0  0  0  0  0  0  0  0  0  0  0
  1  2  1  0
  2  3  1  0
  3  4  1  0
  4  5  1  0
  5  6  2  0
  6  7  1  0
  7  8  1  0
  8  9  2  0
  9 10  1  0
  3 11  1  0
 11 12  1  0
 12 13  1  0
 12 14  2  0
 14 15  1  0
 15 16  1  0
 15 17  1  0
 17 18  1  0
  9  5  1  0
 17 11  2  0
  1 19  1  0
  1 20  1  0
  1 21  1  0
  2 22  1  0
  2 23  1  0
  4 24  1  0
  4 25  1  0
  6 26  1  0
  8 27  1  0
 10 28  1  0
 10 29  1  0
 10 30  1  0
 13 31  1  0
 13 32  1  0
 13 33  1  0
 16 34  1  0
 16 35  1  0
 16 36  1  0
 18 37  1  0
 18 38  1  0
 18 39  1  0
M  CHG  1   8   1
M  END
>  <UniqueID>  (17) 
16

>  <SMILES>  (17) 
CCN(Cc1cs[nH+]c1C)c1c(C)nn(C)c1C

>  <Energy>  (17) 
96.17662847348224

>  <Genealogy>  (17) 
CCN(Cc1cs[nH+]c1C)c1c(C)nn(C)c1C (protonated)
CCN(Cc1cs[nH+]c1C)c1c(C)nn(C)c1C (3D coordinates assigned)
CCN(Cc1cs[nH+]c1C)c1c(C)nn(C)c1C (optimized conformer: 96.17662847348224 kcal/mol)

>  <smiles>  (17) 
CCN(Cc1csnc1C)c1c(C)nn(C)c1C

>  <score_type>  (17) 
oracle

>  <origin>  (17) 
adg

>  <m_score__min__energy>  (17) 
-5.1200000000000001

>  <m_primary>  (17) 
energy

$$$$
17:0
     RDKit          3D

 48 50  0  0  0  0  0  0  0  0999 V2000
   60.4210   26.7380   48.3710 C   0  0  0  0  0  0  0  0  0  0  0  0
   59.7340   27.4650   47.2520 C   0  0  0  0  0  0  0  0  0  0  0  0
   58.3560   27.3090   47.0360 C   0  0  0  0  0  0  0  0  0  0  0  0
   57.7180   28.0170   46.0150 C   0  0  0  0  0  0  0  0  0  0  0  0
   58.4490   28.8830   45.1850 C   0  0  0  0  0  0  0  0  0  0  0  0
   57.7510   29.6080   44.1590 N   0  0  0  0  0  0  0  0  0  0  0  0
   56.7190   30.5860   44.3570 C   0  0  0  0  0  0  0  0  0  0  0  0
   55.5160   30.3070   44.1020 O   0  0  0  0  0  0  0  0  0  0  0  0
   57.1010   31.9520   44.8770 C   0  0  0  0  0  0  0  0  0  0  0  0
   57.9720   32.7430   43.8660 C   0  0  0  0  0  0  0  0  0  0  0  0
   58.6390   33.9530   44.5260 C   0  0  0  0  0  0  0  0  0  0  0  0
   59.4290   33.5500   45.7020 N   0  0  0  0  0  0  0  0  0  0  0  0
   60.3630   34.4850   46.2710 C   0  0  0  0  0  0  0  0  0  0  0  0
   60.1980   35.7180   46.0740 O   0  0  0  0  0  0  0  0  0  0  0  0
   61.5380   34.0330   47.0540 C   0  0  0  0  0  0  0  0  0  0  0  0
   62.7440   33.7720   46.3770 C   0  0  0  0  0  0  0  0  0  0  0  0
   63.8790   33.3540   47.0770 C   0  0  0  0  0  0  0  0  0  0  0  0
   63.8270   33.2000   48.4630 C   0  0  0  0  0  0  0  0  0  0  0  0
   62.6390   33.4590   49.1530 C   0  0  0  0  0  0  0  0  0  0  0  0
   61.4840   33.8740   48.4620 C   0  0  0  0  0  0  0  0  0  0  0  0
   60.2140   34.1190   49.2370 C   0  0  0  0  0  0  0  0  0  0  0  0
   59.2400   32.2120   46.2900 C   0  0  0  0  0  0  0  0  0  0  0  0
   57.7520   31.8420   46.2860 C   0  0  0  0  0  0  0  0  0  0  0  0
   59.8240   29.0660   45.4230 C   0  0  0  0  0  0  0  0  0  0  0  0
   60.4610   28.3620   46.4490 C   0  0  0  0  0  0  0  0  0  0  0  0
   60.0578   27.1224   49.3355 H   0  0  0  0  0  0  0  0  0  0  0  0
   60.2016   25.6625   48.2988 H   0  0  0  0  0  0  0  0  0  0  0  0
   61.5072   26.8963   48.2988 H   0  0  0  0  0  0  0  0  0  0  0  0
   57.7758   26.6260   47.6738 H   0  0  0  0  0  0  0  0  0  0  0  0
   56.6358   27.8956   45.8598 H   0  0  0  0  0  0  0  0  0  0  0  0
   56.1794   32.5415   44.9916 H   0  0  0  0  0  0  0  0  0  0  0  0
   58.7524   32.0771   43.4689 H   0  0  0  0  0  0  0  0  0  0  0  0
   57.3193   33.1065   43.0587 H   0  0  0  0  0  0  0  0  0  0  0  0
   59.3038   34.4386   43.7964 H   0  0  0  0  0  0  0  0  0  0  0  0
   57.8523   34.6474   44.8561 H   0  0  0  0  0  0  0  0  0  0  0  0
   62.7937   33.8984   45.2854 H   0  0  0  0  0  0  0  0  0  0  0  0
   64.8136   33.1463   46.5354 H   0  0  0  0  0  0  0  0  0  0  0  0
   64.7220   32.8744   49.0134 H   0  0  0  0  0  0  0  0  0  0  0  0
   62.6060   33.3375   50.2458 H   0  0  0  0  0  0  0  0  0  0  0  0
   60.4286   34.0776   50.3151 H   0  0  0  0  0  0  0  0  0  0  0  0
   59.8136   35.1109   48.9807 H   0  0  0  0  0  0  0  0  0  0  0  0
   59.4733   33.3472   48.9807 H   0  0  0  0  0  0  0  0  0  0  0  0
   59.8007   31.4723   45.6997 H   0  0  0  0  0  0  0  0  0  0  0  0
   59.6074   32.2184   47.3268 H   0  0  0  0  0  0  0  0  0  0  0  0
   57.6477   30.8058   46.6402 H   0  0  0  0  0  0  0  0  0  0  0  0
   57.2342   32.5555   46.9439 H   0  0  0  0  0  0  0  0  0  0  0  0
   60.3996   29.7657   44.7993 H   0  0  0  0  0  0  0  0  0  0  0  0
   61.5360   28.5103   46.6292 H   0  0  0  0  0  0  0  0  0  0  0  0
  1  2  1  0
  2  3  2  0
  3  4  1  0
  4  5  2  0
  5  6  1  0
  6  7  1  0
  7  8  2  0
  7  9  1  0
  9 10  1  0
 10 11  1  0
 11 12  1  0
 12 13  1  0
 13 14  2  0
 13 15  1  0
 15 16  2  0
 16 17  1  0
 17 18  2  0
 18 19  1  0
 19 20  2  0
 20 21  1  0
 12 22  1  0
 22 23  1  0
  5 24  1  0
 24 25  2  0
 25  2  1  0
 23  9  1  0
 20 15  1  0
  1 26  1  0
  1 27  1  0
  1 28  1  0
  3 29  1  0
  4 30  1  0
  9 31  1  0
 10 32  1  0
 10 33  1  0
 11 34  1  0
 11 35  1  0
 16 36  1  0
 17 37  1  0
 18 38  1  0
 19 39  1  0
 21 40  1  0
 21 41  1  0
 21 42  1  0
 22 43  1  0
 22 44  1  0
 23 45  1  0
 23 46  1  0
 24 47  1  0
 25 48  1  0
M  CHG  1   6  -1
M  END
>  <UniqueID>  (18) 
17

>  <SMILES>  (18) 
Cc1ccc([N-]C(=O)C2CCN(C(=O)c3ccccc3C)CC2)cc1

>  <Energy>  (18) 
61.28134367383486

>  <Genealogy>  (18) 
Cc1ccc([N-]C(=O)C2CCN(C(=O)c3ccccc3C)CC2)cc1 (protonated)
Cc1ccc([N-]C(=O)C2CCN(C(=O)c3ccccc3C)CC2)cc1 (3D coordinates assigned)
Cc1ccc([N-]C(=O)C2CCN(C(=O)c3ccccc3C)CC2)cc1 (nonaromatic ring conformer: 61.28134367383486 kcal/mol)

>  <smiles>  (18) 
Cc1ccc(NC(=O)C2CCN(C(=O)c3ccccc3C)CC2)cc1

>  <score_type>  (18) 
oracle

>  <origin>  (18) 
adg

>  <m_score__min__energy>  (18) 
-10.289999999999999

>  <m_primary>  (18) 
energy

$$$$
18:0
     RDKit          3D

 39 42  0  0  0  0  0  0  0  0999 V2000
   57.0460   31.2560   43.6830 C   0  0  0  0  0  0  0  0  0  0  0  0
   57.0970   31.8540   44.9740 O   0  0  0  0  0  0  0  0  0  0  0  0
   57.9540   32.9080   45.3320 C   0  0  0  0  0  0  0  0  0  0  0  0
   58.1460   34.0240   44.4930 C   0  0  0  0  0  0  0  0  0  0  0  0
   58.9890   35.0660   44.8840 C   0  0  0  0  0  0  0  0  0  0  0  0
   59.6440   35.0130   46.1140 C   0  0  0  0  0  0  0  0  0  0  0  0
   59.4650   33.9140   46.9540 C   0  0  0  0  0  0  0  0  0  0  0  0
   58.6330   32.8480   46.5690 C   0  0  0  0  0  0  0  0  0  0  0  0
   58.4630   31.6590   47.4880 C   0  0  0  0  0  0  0  0  0  0  0  0
   59.1610   30.4800   46.9540 N   0  0  0  0  0  0  0  0  0  0  0  0
   60.4570   30.0810   47.1320 C   0  0  0  0  0  0  0  0  0  0  0  0
   61.5240   30.8810   47.7570 C   0  0  0  0  0  0  0  0  0  0  0  0
   62.3820   31.7600   47.1250 C   0  0  0  0  0  0  0  0  0  0  0  0
   63.2250   32.2310   48.1090 C   0  0  0  0  0  0  0  0  0  0  0  0
   62.8370   31.6030   49.2760 C   0  0  0  0  0  0  0  0  0  0  0  0
   61.8280   30.8010   49.0320 O   0  0  0  0  0  0  0  0  0  0  0  0
   60.7090   28.8300   46.6590 N   0  0  0  0  0  0  0  0  0  0  0  0
   59.5250   28.4520   46.1500 C   0  0  0  0  0  0  0  0  0  0  0  0
   59.1970   27.2500   45.5350 C   0  0  0  0  0  0  0  0  0  0  0  0
   57.8710   27.0930   45.0940 C   0  0  0  0  0  0  0  0  0  0  0  0
   56.9400   28.1390   45.2840 C   0  0  0  0  0  0  0  0  0  0  0  0
   57.3170   29.3030   45.8980 N   0  0  0  0  0  0  0  0  0  0  0  0
   58.6030   29.4340   46.3190 C   0  0  0  0  0  0  0  0  0  0  0  0
   56.9530   30.1650   43.7877 H   0  0  0  0  0  0  0  0  0  0  0  0
   56.1779   31.6468   43.1319 H   0  0  0  0  0  0  0  0  0  0  0  0
   57.9677   31.4942   43.1319 H   0  0  0  0  0  0  0  0  0  0  0  0
   57.6283   34.0744   43.5238 H   0  0  0  0  0  0  0  0  0  0  0  0
   59.1368   35.9307   44.2204 H   0  0  0  0  0  0  0  0  0  0  0  0
   60.3024   35.8386   46.4220 H   0  0  0  0  0  0  0  0  0  0  0  0
   59.9791   33.8810   47.9259 H   0  0  0  0  0  0  0  0  0  0  0  0
   58.8771   31.9057   48.4767 H   0  0  0  0  0  0  0  0  0  0  0  0
   57.3908   31.4267   47.5681 H   0  0  0  0  0  0  0  0  0  0  0  0
   62.3908   32.0284   46.0583 H   0  0  0  0  0  0  0  0  0  0  0  0
   64.0408   32.9590   47.9889 H   0  0  0  0  0  0  0  0  0  0  0  0
   63.3033   31.7526   50.2610 H   0  0  0  0  0  0  0  0  0  0  0  0
   59.9439   26.4540   45.3987 H   0  0  0  0  0  0  0  0  0  0  0  0
   57.5595   26.1593   44.6029 H   0  0  0  0  0  0  0  0  0  0  0  0
   55.9038   28.0169   44.9356 H   0  0  0  0  0  0  0  0  0  0  0  0
   56.6250   30.0740   46.0180 H   0  0  0  0  0  0  0  0  0  0  0  0
  1  2  1  0
  2  3  1  0
  3  4  2  0
  4  5  1  0
  5  6  2  0
  6  7  1  0
  7  8  2  0
  8  9  1  0
  9 10  1  0
 10 11  1  0
 11 12  1  0
 12 13  2  0
 13 14  1  0
 14 15  2  0
 15 16  1  0
 11 17  2  0
 17 18  1  0
 18 19  2  0
 19 20  1  0
 20 21  2  0
 21 22  1  0
 22 23  2  0
  8  3  1  0
 23 10  1  0
 16 12  1  0
 23 18  1  0
  1 24  1  0
  1 25  1  0
  1 26  1  0
  4 27  1  0
  5 28  1  0
  6 29  1  0
  7 30  1  0
  9 31  1  0
  9 32  1  0
 13 33  1  0
 14 34  1  0
 15 35  1  0
 19 36  1  0
 20 37  1  0
 21 38  1  0
 22 39  1  0
M  CHG  1  22   1
M  END
>  <UniqueID>  (19) 
18

>  <SMILES>  (19) 
COc1ccccc1Cn1c(-c2ccco2)nc2ccc[nH+]c21

>  <Energy>  (19) 
111.01896053530065

>  <Genealogy>  (19) 
COc1ccccc1Cn1c(-c2ccco2)nc2ccc[nH+]c21 (protonated)
COc1ccccc1Cn1c(-c2ccco2)nc2ccc[nH+]c21 (3D coordinates assigned)
COc1ccccc1Cn1c(-c2ccco2)nc2ccc[nH+]c21 (optimized conformer: 111.01896053530065 kcal/mol)

>  <smiles>  (19) 
COc1ccccc1Cn1c(-c2ccco2)nc2cccnc21

>  <score_type>  (19) 
oracle

>  <origin>  (19) 
adg

>  <m_score__min__energy>  (19) 
-5.4000000000000004

>  <m_primary>  (19) 
energy

$$$$
19:0
     RDKit          3D

 47 50  0  0  0  0  0  0  0  0999 V2000
   63.3230   33.6130   46.9270 C   0  0  0  0  0  0  0  0  0  0  0  0
   62.7650   33.5630   48.3480 C   0  0  0  0  0  0  0  0  0  0  0  0
   61.8930   32.3950   48.5390 N   0  0  0  0  0  0  0  0  0  0  0  0
   62.2750   31.2490   47.6920 C   0  0  0  0  0  0  0  0  0  0  0  0
   61.2430   30.1170   47.8620 C   0  0  0  0  0  0  0  0  0  0  0  0
   59.8390   30.5650   48.0300 N   0  0  0  0  0  0  0  0  0  0  0  0
   59.0410   30.4290   46.8210 C   0  0  0  0  0  0  0  0  0  0  0  0
   58.5890   29.1280   46.4280 C   0  0  0  0  0  0  0  0  0  0  0  0
   58.8700   27.9610   47.1880 C   0  0  0  0  0  0  0  0  0  0  0  0
   58.3950   26.7110   46.7990 C   0  0  0  0  0  0  0  0  0  0  0  0
   57.6500   26.5780   45.6400 C   0  0  0  0  0  0  0  0  0  0  0  0
   57.3840   27.6930   44.8540 C   0  0  0  0  0  0  0  0  0  0  0  0
   57.8460   28.9840   45.2240 C   0  0  0  0  0  0  0  0  0  0  0  0
   57.6160   30.0780   44.4230 N   0  0  0  0  0  0  0  0  0  0  0  0
   56.8330   29.9400   43.1750 C   0  0  0  0  0  0  0  0  0  0  0  0
   58.1400   31.2890   44.7850 C   0  0  0  0  0  0  0  0  0  0  0  0
   58.0950   32.6710   43.8090 S   0  0  0  0  0  0  0  0  0  0  0  0
   58.8420   33.6110   44.9480 C   0  0  0  0  0  0  0  0  0  0  0  0
   59.1120   34.9720   44.8320 C   0  0  0  0  0  0  0  0  0  0  0  0
   59.6530   35.6380   45.9300 C   0  0  0  0  0  0  0  0  0  0  0  0
   59.8730   34.9460   47.1240 C   0  0  0  0  0  0  0  0  0  0  0  0
   59.5860   33.5740   47.2240 C   0  0  0  0  0  0  0  0  0  0  0  0
   59.1090   32.8580   46.0960 C   0  0  0  0  0  0  0  0  0  0  0  0
   58.7720   31.5070   45.9840 N   0  0  0  0  0  0  0  0  0  0  0  0
   64.4179   33.7111   46.9663 H   0  0  0  0  0  0  0  0  0  0  0  0
   63.0566   32.6874   46.3957 H   0  0  0  0  0  0  0  0  0  0  0  0
   62.8963   34.4765   46.3957 H   0  0  0  0  0  0  0  0  0  0  0  0
   63.6018   33.5056   49.0597 H   0  0  0  0  0  0  0  0  0  0  0  0
   62.1699   34.4721   48.5193 H   0  0  0  0  0  0  0  0  0  0  0  0
   61.9720   32.1070   49.5420 H   0  0  0  0  0  0  0  0  0  0  0  0
   62.3025   31.5648   46.6387 H   0  0  0  0  0  0  0  0  0  0  0  0
   63.2691   30.8866   47.9926 H   0  0  0  0  0  0  0  0  0  0  0  0
   61.2914   29.4751   46.9700 H   0  0  0  0  0  0  0  0  0  0  0  0
   61.5113   29.5953   48.7925 H   0  0  0  0  0  0  0  0  0  0  0  0
   59.3800   30.1800   48.8730 H   0  0  0  0  0  0  0  0  0  0  0  0
   59.8590   31.5720   48.3040 H   0  0  0  0  0  0  0  0  0  0  0  0
   59.4752   28.0465   48.1025 H   0  0  0  0  0  0  0  0  0  0  0  0
   58.6127   25.8261   47.4151 H   0  0  0  0  0  0  0  0  0  0  0  0
   57.2687   25.5904   45.3412 H   0  0  0  0  0  0  0  0  0  0  0  0
   56.8041   27.5732   43.9270 H   0  0  0  0  0  0  0  0  0  0  0  0
   55.7776   29.7540   43.4230 H   0  0  0  0  0  0  0  0  0  0  0  0
   56.9138   30.8662   42.5871 H   0  0  0  0  0  0  0  0  0  0  0  0
   57.2256   29.0972   42.5871 H   0  0  0  0  0  0  0  0  0  0  0  0
   58.9030   35.5092   43.8951 H   0  0  0  0  0  0  0  0  0  0  0  0
   59.9063   36.7060   45.8571 H   0  0  0  0  0  0  0  0  0  0  0  0
   60.2757   35.4818   47.9962 H   0  0  0  0  0  0  0  0  0  0  0  0
   59.7319   33.0527   48.1816 H   0  0  0  0  0  0  0  0  0  0  0  0
  1  2  1  0
  2  3  1  0
  3  4  1  0
  4  5  1  0
  5  6  1  0
  6  7  1  0
  7  8  2  0
  8  9  1  0
  9 10  2  0
 10 11  1  0
 11 12  2  0
 12 13  1  0
 13 14  2  0
 14 15  1  0
 14 16  1  0
 16 17  1  0
 17 18  1  0
 18 19  2  0
 19 20  1  0
 20 21  2  0
 21 22  1  0
 22 23  2  0
 23 24  1  0
 24  7  1  0
 13  8  1  0
 24 16  2  0
 23 18  1  0
  1 25  1  0
  1 26  1  0
  1 27  1  0
  2 28  1  0
  2 29  1  0
  3 30  1  0
  4 31  1  0
  4 32  1  0
  5 33  1  0
  5 34  1  0
  6 35  1  0
  6 36  1  0
  9 37  1  0
 10 38  1  0
 11 39  1  0
 12 40  1  0
 15 41  1  0
 15 42  1  0
 15 43  1  0
 19 44  1  0
 20 45  1  0
 21 46  1  0
 22 47  1  0
M  CHG  3   6   1  14   1  24   1
M  END
>  <UniqueID>  (20) 
19

>  <SMILES>  (20) 
CCNCC[NH2+]c1c2ccccc2[n+](C)c2sc3ccccc3[n+]12

>  <Energy>  (20) 
122.30631588157654

>  <Genealogy>  (20) 
CCNCC[NH2+]c1c2ccccc2[n+](C)c2sc3ccccc3[n+]12 (protonated)
CCNCC[NH2+]c1c2ccccc2[n+](C)c2sc3ccccc3[n+]12 (3D coordinates assigned)
CCNCC[NH2+]c1c2ccccc2[n+](C)c2sc3ccccc3[n+]12 (optimized conformer: 122.30631588157654 kcal/mol)

>  <smiles>  (20) 
CCNCCNc1c2ccccc2[n+](C)c2sc3ccccc3[n+]12

>  <score_type>  (20) 
oracle

>  <origin>  (20) 
adg

>  <m_score__min__energy>  (20) 
-3.7000000000000002

>  <m_primary>  (20) 
energy

$$$$
20:0
     RDKit          3D

 59 62  0  0  0  0  0  0  0  0999 V2000
   62.0570   32.9040   50.5280 C   0  0  0  0  0  0  0  0  0  0  0  0
   61.1010   31.7360   50.7370 C   0  0  0  0  0  0  0  0  0  0  0  0
   59.8220   32.0160   50.0400 N   0  0  0  0  0  0  0  0  0  0  0  0
   59.2660   33.3490   50.3660 C   0  0  0  0  0  0  0  0  0  0  0  0
   58.8100   33.4900   51.8260 C   0  0  0  0  0  0  0  0  0  0  0  0
   58.8290   30.9290   50.1700 C   0  0  0  0  0  0  0  0  0  0  0  0
   59.0300   29.8800   49.0650 C   0  0  0  0  0  0  0  0  0  0  0  0
   60.1010   30.2880   48.1380 N   0  0  0  0  0  0  0  0  0  0  0  0
   59.6030   30.3380   46.7670 C   0  0  0  0  0  0  0  0  0  0  0  0
   59.2760   29.1400   46.0830 C   0  0  0  0  0  0  0  0  0  0  0  0
   59.8380   27.9000   46.4740 C   0  0  0  0  0  0  0  0  0  0  0  0
   59.4690   26.7160   45.8430 C   0  0  0  0  0  0  0  0  0  0  0  0
   58.5270   26.7330   44.8260 C   0  0  0  0  0  0  0  0  0  0  0  0
   57.9650   27.9390   44.4120 C   0  0  0  0  0  0  0  0  0  0  0  0
   58.3520   29.1730   45.0000 C   0  0  0  0  0  0  0  0  0  0  0  0
   57.8060   30.3730   44.5850 N   0  0  0  0  0  0  0  0  0  0  0  0
   56.9670   30.4240   43.3660 C   0  0  0  0  0  0  0  0  0  0  0  0
   58.0950   31.5380   45.2660 C   0  0  0  0  0  0  0  0  0  0  0  0
   57.3330   32.7320   45.0700 C   0  0  0  0  0  0  0  0  0  0  0  0
   57.7070   33.9410   45.6690 C   0  0  0  0  0  0  0  0  0  0  0  0
   58.8830   33.9660   46.4010 C   0  0  0  0  0  0  0  0  0  0  0  0
   59.5750   35.0480   46.8920 C   0  0  0  0  0  0  0  0  0  0  0  0
   60.7840   34.5350   47.3310 C   0  0  0  0  0  0  0  0  0  0  0  0
   60.8420   33.1950   47.1290 N   0  0  0  0  0  0  0  0  0  0  0  0
   62.0690   32.4430   47.1150 C   0  0  0  0  0  0  0  0  0  0  0  0
   63.3920   33.1410   47.0640 C   0  0  0  0  0  0  0  0  0  0  0  0
   62.0390   31.1850   47.0720 O   0  0  0  0  0  0  0  0  0  0  0  0
   59.6340   32.8380   46.6160 C   0  0  0  0  0  0  0  0  0  0  0  0
   59.1620   31.5630   46.2100 C   0  0  0  0  0  0  0  0  0  0  0  0
   62.3771   33.2951   51.5050 H   0  0  0  0  0  0  0  0  0  0  0  0
   62.9370   32.5612   49.9641 H   0  0  0  0  0  0  0  0  0  0  0  0
   61.5470   33.6989   49.9641 H   0  0  0  0  0  0  0  0  0  0  0  0
   61.5483   30.8179   50.3284 H   0  0  0  0  0  0  0  0  0  0  0  0
   60.9122   31.6034   51.8125 H   0  0  0  0  0  0  0  0  0  0  0  0
   60.0404   34.1052   50.1699 H   0  0  0  0  0  0  0  0  0  0  0  0
   58.3742   33.4869   49.7370 H   0  0  0  0  0  0  0  0  0  0  0  0
   59.6429   33.2325   52.4968 H   0  0  0  0  0  0  0  0  0  0  0  0
   58.4956   34.5273   52.0134 H   0  0  0  0  0  0  0  0  0  0  0  0
   57.9649   32.8112   52.0134 H   0  0  0  0  0  0  0  0  0  0  0  0
   58.9464   30.4472   51.1519 H   0  0  0  0  0  0  0  0  0  0  0  0
   57.8199   31.3563   50.0749 H   0  0  0  0  0  0  0  0  0  0  0  0
   59.3004   28.9188   49.5264 H   0  0  0  0  0  0  0  0  0  0  0  0
   58.0926   29.7848   48.4974 H   0  0  0  0  0  0  0  0  0  0  0  0
   60.4130   31.2220   48.4710 H   0  0  0  0  0  0  0  0  0  0  0  0
   60.9270   29.6540   48.2080 H   0  0  0  0  0  0  0  0  0  0  0  0
   60.5770   27.8726   47.2884 H   0  0  0  0  0  0  0  0  0  0  0  0
   59.9258   25.7642   46.1519 H   0  0  0  0  0  0  0  0  0  0  0  0
   58.2224   25.7920   44.3446 H   0  0  0  0  0  0  0  0  0  0  0  0
   57.2072   27.9355   43.6147 H   0  0  0  0  0  0  0  0  0  0  0  0
   55.9070   30.4884   43.6529 H   0  0  0  0  0  0  0  0  0  0  0  0
   57.2398   31.3072   42.7698 H   0  0  0  0  0  0  0  0  0  0  0  0
   57.1309   29.5142   42.7698 H   0  0  0  0  0  0  0  0  0  0  0  0
   56.4348   32.7000   44.4358 H   0  0  0  0  0  0  0  0  0  0  0  0
   57.0865   34.8429   45.5617 H   0  0  0  0  0  0  0  0  0  0  0  0
   59.2404   36.0952   46.9282 H   0  0  0  0  0  0  0  0  0  0  0  0
   61.5888   35.1335   47.7827 H   0  0  0  0  0  0  0  0  0  0  0  0
   63.7474   33.3285   48.0880 H   0  0  0  0  0  0  0  0  0  0  0  0
   64.1196   32.5094   46.5333 H   0  0  0  0  0  0  0  0  0  0  0  0
   63.2814   34.0981   46.5333 H   0  0  0  0  0  0  0  0  0  0  0  0
  1  2  1  0
  2  3  1  0
  3  4  1  0
  4  5  1  0
  3  6  1  0
  6  7  1  0
  7  8  1  0
  8  9  1  0
  9 10  2  0
 10 11  1  0
 11 12  2  0
 12 13  1  0
 13 14  2  0
 14 15  1  0
 15 16  2  0
 16 17  1  0
 16 18  1  0
 18 19  2  0
 19 20  1  0
 20 21  2  0
 21 22  1  0
 22 23  2  0
 23 24  1  0
 24 25  1  0
 25 26  1  0
 25 27  2  0
 24 28  1  0
 28 29  2  0
 29  9  1  0
 15 10  1  0
 29 18  1  0
 28 21  1  0
  1 30  1  0
  1 31  1  0
  1 32  1  0
  2 33  1  0
  2 34  1  0
  4 35  1  0
  4 36  1  0
  5 37  1  0
  5 38  1  0
  5 39  1  0
  6 40  1  0
  6 41  1  0
  7 42  1  0
  7 43  1  0
  8 44  1  0
  8 45  1  0
 11 46  1  0
 12 47  1  0
 13 48  1  0
 14 49  1  0
 17 50  1  0
 17 51  1  0
 17 52  1  0
 19 53  1  0
 20 54  1  0
 22 55  1  0
 23 56  1  0
 26 57  1  0
 26 58  1  0
 26 59  1  0
M  CHG  2   8   1  16   1
M  END
>  <UniqueID>  (21) 
20

>  <SMILES>  (21) 
CCN(CC)CC[NH2+]c1c2ccccc2[n+](C)c2ccc3ccn(C(C)=O)c3c12

>  <Energy>  (21) 
140.44151542659841

>  <Genealogy>  (21) 
CCN(CC)CC[NH2+]c1c2ccccc2[n+](C)c2ccc3ccn(C(C)=O)c3c12 (protonated)
CCN(CC)CC[NH2+]c1c2ccccc2[n+](C)c2ccc3ccn(C(C)=O)c3c12 (3D coordinates assigned)
CCN(CC)CC[NH2+]c1c2ccccc2[n+](C)c2ccc3ccn(C(C)=O)c3c12 (optimized conformer: 140.44151542659841 kcal/mol)

>  <smiles>  (21) 
CCN(CC)CCNc1c2ccccc2[n+](C)c2ccc3ccn(C(C)=O)c3c12

>  <score_type>  (21) 
oracle

>  <origin>  (21) 
adg

>  <m_score__min__energy>  (21) 
-4.46

>  <m_primary>  (21) 
energy

$$$$
21:0
     RDKit          3D

 53 56  0  0  0  0  0  0  0  0999 V2000
   56.3310   30.0500   43.0130 C   0  0  0  0  0  0  0  0  0  0  0  0
   56.1650   29.7090   44.4930 C   0  0  0  0  0  0  0  0  0  0  0  0
   57.3830   30.0370   45.2640 N   0  0  0  0  0  0  0  0  0  0  0  0
   58.4870   30.4630   44.3870 C   0  0  0  0  0  0  0  0  0  0  0  0
   57.7860   29.0520   46.3000 C   0  0  0  0  0  0  0  0  0  0  0  0
   58.9940   29.4310   47.1870 C   0  0  0  0  0  0  0  0  0  0  0  0
   58.6220   29.7910   48.6300 C   0  0  0  0  0  0  0  0  0  0  0  0
   58.9680   31.1810   48.9230 N   0  0  0  0  0  0  0  0  0  0  0  0
   59.6970   31.9640   47.9730 C   0  0  0  0  0  0  0  0  0  0  0  0
   59.1150   32.7240   46.9730 C   0  0  0  0  0  0  0  0  0  0  0  0
   57.7990   32.8340   46.5210 C   0  0  0  0  0  0  0  0  0  0  0  0
   57.5310   33.7750   45.5110 C   0  0  0  0  0  0  0  0  0  0  0  0
   58.5630   34.5950   45.0020 C   0  0  0  0  0  0  0  0  0  0  0  0
   59.8730   34.4880   45.5030 C   0  0  0  0  0  0  0  0  0  0  0  0
   60.1130   33.5350   46.4970 C   0  0  0  0  0  0  0  0  0  0  0  0
   61.2450   33.2880   47.1890 N   0  0  0  0  0  0  0  0  0  0  0  0
   62.4400   33.9220   47.0830 C   0  0  0  0  0  0  0  0  0  0  0  0
   63.4700   33.5490   47.9390 C   0  0  0  0  0  0  0  0  0  0  0  0
   63.2710   32.5080   48.8690 C   0  0  0  0  0  0  0  0  0  0  0  0
   64.3030   32.0690   49.7380 C   0  0  0  0  0  0  0  0  0  0  0  0
   65.6570   32.7310   49.7530 C   0  0  0  0  0  0  0  0  0  0  0  0
   64.0740   31.0150   50.5720 N   0  0  0  0  0  0  0  0  0  0  0  0
   62.8890   30.3550   50.5890 C   0  0  0  0  0  0  0  0  0  0  0  0
   61.8430   30.7550   49.7640 C   0  0  0  0  0  0  0  0  0  0  0  0
   62.0040   31.8660   48.9150 C   0  0  0  0  0  0  0  0  0  0  0  0
   61.0090   32.3280   48.0840 N   0  0  0  0  0  0  0  0  0  0  0  0
   56.8106   31.0351   42.9153 H   0  0  0  0  0  0  0  0  0  0  0  0
   56.9585   29.2871   42.5291 H   0  0  0  0  0  0  0  0  0  0  0  0
   55.3434   30.0733   42.5291 H   0  0  0  0  0  0  0  0  0  0  0  0
   55.3192   30.2830   44.8995 H   0  0  0  0  0  0  0  0  0  0  0  0
   55.9820   28.6278   44.5799 H   0  0  0  0  0  0  0  0  0  0  0  0
   59.3379   30.7913   45.0019 H   0  0  0  0  0  0  0  0  0  0  0  0
   58.7971   29.6200   43.7521 H   0  0  0  0  0  0  0  0  0  0  0  0
   58.1505   31.2958   43.7521 H   0  0  0  0  0  0  0  0  0  0  0  0
   56.9226   28.8937   46.9629 H   0  0  0  0  0  0  0  0  0  0  0  0
   58.1066   28.1603   45.7413 H   0  0  0  0  0  0  0  0  0  0  0  0
   59.6862   28.5765   47.2116 H   0  0  0  0  0  0  0  0  0  0  0  0
   59.4449   30.3301   46.7418 H   0  0  0  0  0  0  0  0  0  0  0  0
   57.5398   29.6515   48.7691 H   0  0  0  0  0  0  0  0  0  0  0  0
   59.1829   29.1361   49.3130 H   0  0  0  0  0  0  0  0  0  0  0  0
   58.8230   31.5770   49.8800 H   0  0  0  0  0  0  0  0  0  0  0  0
   56.9990   32.2062   46.9404 H   0  0  0  0  0  0  0  0  0  0  0  0
   56.5099   33.8735   45.1140 H   0  0  0  0  0  0  0  0  0  0  0  0
   58.3402   35.3227   44.2078 H   0  0  0  0  0  0  0  0  0  0  0  0
   60.6808   35.1322   45.1255 H   0  0  0  0  0  0  0  0  0  0  0  0
   62.5906   34.7146   46.3353 H   0  0  0  0  0  0  0  0  0  0  0  0
   64.4399   34.0658   47.8908 H   0  0  0  0  0  0  0  0  0  0  0  0
   65.9771   32.8875   50.7937 H   0  0  0  0  0  0  0  0  0  0  0  0
   66.3855   32.0874   49.2381 H   0  0  0  0  0  0  0  0  0  0  0  0
   65.5965   33.7012   49.2381 H   0  0  0  0  0  0  0  0  0  0  0  0
   64.8300   30.6790   51.2110 H   0  0  0  0  0  0  0  0  0  0  0  0
   62.7540   29.4952   51.2617 H   0  0  0  0  0  0  0  0  0  0  0  0
   60.8912   30.2037   49.7751 H   0  0  0  0  0  0  0  0  0  0  0  0
  1  2  1  0
  2  3  1  0
  3  4  1  0
  3  5  1  0
  5  6  1  0
  6  7  1  0
  7  8  1  0
  8  9  1  0
  9 10  2  0
 10 11  1  0
 11 12  2  0
 12 13  1  0
 13 14  2  0
 14 15  1  0
 15 16  2  0
 16 17  1  0
 17 18  2  0
 18 19  1  0
 19 20  2  0
 20 21  1  0
 20 22  1  0
 22 23  2  0
 23 24  1  0
 24 25  2  0
 25 26  1  0
 26  9  1  0
 15 10  1  0
 26 16  1  0
 25 19  1  0
  1 27  1  0
  1 28  1  0
  1 29  1  0
  2 30  1  0
  2 31  1  0
  4 32  1  0
  4 33  1  0
  4 34  1  0
  5 35  1  0
  5 36  1  0
  6 37  1  0
  6 38  1  0
  7 39  1  0
  7 40  1  0
  8 41  1  0
 11 42  1  0
 12 43  1  0
 13 44  1  0
 14 45  1  0
 17 46  1  0
 18 47  1  0
 21 48  1  0
 21 49  1  0
 21 50  1  0
 22 51  1  0
 23 52  1  0
 24 53  1  0
M  CHG  2  16   1  22   1
M  END
>  <UniqueID>  (22) 
21

>  <SMILES>  (22) 
CCN(C)CCCNc1c2ccccc2[n+]2ccc3c(C)[nH+]ccc3n12

>  <Energy>  (22) 
118.77551248204001

>  <Genealogy>  (22) 
CCN(C)CCCNc1c2ccccc2[n+]2ccc3c(C)[nH+]ccc3n12 (protonated)
CCN(C)CCCNc1c2ccccc2[n+]2ccc3c(C)[nH+]ccc3n12 (3D coordinates assigned)
CCN(C)CCCNc1c2ccccc2[n+]2ccc3c(C)[nH+]ccc3n12 (optimized conformer: 118.77551248204001 kcal/mol)

>  <smiles>  (22) 
CCN(C)CCCNc1c2ccccc2[n+]2ccc3c(C)nccc3n12

>  <score_type>  (22) 
oracle

>  <origin>  (22) 
adg

>  <m_score__min__energy>  (22) 
-5.04

>  <m_primary>  (22) 
energy

$$$$
22:0
     RDKit          3D

 35 37  0  0  0  0  0  0  0  0999 V2000
   57.8130   32.3390   42.1690 C   0  0  0  0  0  0  0  0  0  0  0  0
   57.9420   31.7720   43.5090 N   0  0  0  0  0  0  0  0  0  0  0  0
   58.2650   30.5120   43.7490 N   0  0  0  0  0  0  0  0  0  0  0  0
   58.4150   30.3530   45.0780 C   0  0  0  0  0  0  0  0  0  0  0  0
   58.8650   29.1090   45.7220 C   0  0  0  0  0  0  0  0  0  0  0  0
   60.1740   28.7840   46.0600 C   0  0  0  0  0  0  0  0  0  0  0  0
   60.2960   27.5140   46.6380 C   0  0  0  0  0  0  0  0  0  0  0  0
   59.0910   26.8360   46.7560 C   0  0  0  0  0  0  0  0  0  0  0  0
   57.8730   27.8160   46.1380 S   0  0  0  0  0  0  0  0  0  0  0  0
   58.1770   31.5620   45.7110 C   0  0  0  0  0  0  0  0  0  0  0  0
   57.8970   32.4420   44.6810 C   0  0  0  0  0  0  0  0  0  0  0  0
   57.7420   33.9280   44.8270 C   0  0  0  0  0  0  0  0  0  0  0  0
   59.0550   34.5800   44.9680 N   0  0  0  0  0  0  0  0  0  0  0  0
   59.3870   34.8940   46.3680 C   0  0  0  0  0  0  0  0  0  0  0  0
   60.4160   33.9450   46.9030 C   0  0  0  0  0  0  0  0  0  0  0  0
   61.7300   33.8350   46.4640 C   0  0  0  0  0  0  0  0  0  0  0  0
   62.4660   32.8730   47.1660 C   0  0  0  0  0  0  0  0  0  0  0  0
   61.7330   32.2130   48.1440 C   0  0  0  0  0  0  0  0  0  0  0  0
   60.1680   32.8280   48.1370 S   0  0  0  0  0  0  0  0  0  0  0  0
   57.5696   33.4090   42.2455 H   0  0  0  0  0  0  0  0  0  0  0  0
   58.7619   32.2167   41.6262 H   0  0  0  0  0  0  0  0  0  0  0  0
   57.0104   31.8182   41.6262 H   0  0  0  0  0  0  0  0  0  0  0  0
   58.4190   29.7860   43.0140 H   0  0  0  0  0  0  0  0  0  0  0  0
   61.0278   29.4566   45.8905 H   0  0  0  0  0  0  0  0  0  0  0  0
   61.2574   27.0933   46.9677 H   0  0  0  0  0  0  0  0  0  0  0  0
   58.9560   25.8304   47.1808 H   0  0  0  0  0  0  0  0  0  0  0  0
   58.2045   31.7745   46.7899 H   0  0  0  0  0  0  0  0  0  0  0  0
   57.2352   34.3269   43.9359 H   0  0  0  0  0  0  0  0  0  0  0  0
   57.1479   34.1333   45.7297 H   0  0  0  0  0  0  0  0  0  0  0  0
   59.0040   35.4890   44.4520 H   0  0  0  0  0  0  0  0  0  0  0  0
   59.7809   35.9196   46.4227 H   0  0  0  0  0  0  0  0  0  0  0  0
   58.4740   34.7983   46.9741 H   0  0  0  0  0  0  0  0  0  0  0  0
   62.1491   34.4420   45.6480 H   0  0  0  0  0  0  0  0  0  0  0  0
   63.5257   32.6597   46.9621 H   0  0  0  0  0  0  0  0  0  0  0  0
   62.1116   31.4231   48.8093 H   0  0  0  0  0  0  0  0  0  0  0  0
  1  2  1  0
  2  3  1  0
  3  4  2  0
  4  5  1  0
  5  6  2  0
  6  7  1  0
  7  8  2  0
  8  9  1  0
  4 10  1  0
 10 11  2  0
 11 12  1  0
 12 13  1  0
 13 14  1  0
 14 15  1  0
 15 16  2  0
 16 17  1  0
 17 18  2  0
 18 19  1  0
 11  2  1  0
 19 15  1  0
  9  5  1  0
  1 20  1  0
  1 21  1  0
  1 22  1  0
  3 23  1  0
  6 24  1  0
  7 25  1  0
  8 26  1  0
 10 27  1  0
 12 28  1  0
 12 29  1  0
 13 30  1  0
 14 31  1  0
 14 32  1  0
 16 33  1  0
 17 34  1  0
 18 35  1  0
M  CHG  1   3   1
M  END
>  <UniqueID>  (23) 
22

>  <SMILES>  (23) 
Cn1[nH+]c(-c2cccs2)cc1CNCc1cccs1

>  <Energy>  (23) 
113.14397746534505

>  <Genealogy>  (23) 
Cn1[nH+]c(-c2cccs2)cc1CNCc1cccs1 (protonated)
Cn1[nH+]c(-c2cccs2)cc1CNCc1cccs1 (3D coordinates assigned)
Cn1[nH+]c(-c2cccs2)cc1CNCc1cccs1 (optimized conformer: 113.14397746534505 kcal/mol)

>  <smiles>  (23) 
Cn1nc(-c2cccs2)cc1CNCc1cccs1

>  <score_type>  (23) 
oracle

>  <origin>  (23) 
adg

>  <m_score__min__energy>  (23) 
-5.46

>  <m_primary>  (23) 
energy

$$$$
23:0
     RDKit          3D

 27 28  0  0  0  0  0  0  0  0999 V2000
   56.6720   29.6520   42.9670 Cl  0  0  0  0  0  0  0  0  0  0  0  0
   57.3640   30.9910   43.8750 C   0  0  0  0  0  0  0  0  0  0  0  0
   57.4730   30.8810   45.2640 C   0  0  0  0  0  0  0  0  0  0  0  0
   58.0200   31.9270   46.0120 C   0  0  0  0  0  0  0  0  0  0  0  0
   58.4690   33.0980   45.3810 C   0  0  0  0  0  0  0  0  0  0  0  0
   59.0330   34.1550   46.1820 N   0  0  0  0  0  0  0  0  0  0  0  0
   60.4300   34.5870   46.1180 C   0  0  0  0  0  0  0  0  0  0  0  0
   61.3290   33.5870   46.7970 C   0  0  0  0  0  0  0  0  0  0  0  0
   60.8030   32.6100   47.6530 C   0  0  0  0  0  0  0  0  0  0  0  0
   61.6540   31.6900   48.2680 C   0  0  0  0  0  0  0  0  0  0  0  0
   63.0250   31.7510   48.0150 C   0  0  0  0  0  0  0  0  0  0  0  0
   63.5230   32.6960   47.1730 N   0  0  0  0  0  0  0  0  0  0  0  0
   62.7130   33.6030   46.5630 C   0  0  0  0  0  0  0  0  0  0  0  0
   58.3470   33.2070   43.9820 C   0  0  0  0  0  0  0  0  0  0  0  0
   57.8010   32.1590   43.2310 C   0  0  0  0  0  0  0  0  0  0  0  0
   57.6760   32.3380   41.4860 Cl  0  0  0  0  0  0  0  0  0  0  0  0
   57.1270   29.9678   45.7703 H   0  0  0  0  0  0  0  0  0  0  0  0
   58.0995   31.8320   47.1050 H   0  0  0  0  0  0  0  0  0  0  0  0
   58.4230   34.6220   46.8910 H   0  0  0  0  0  0  0  0  0  0  0  0
   60.7297   34.6846   45.0641 H   0  0  0  0  0  0  0  0  0  0  0  0
   60.5247   35.5542   46.6333 H   0  0  0  0  0  0  0  0  0  0  0  0
   59.7199   32.5681   47.8402 H   0  0  0  0  0  0  0  0  0  0  0  0
   61.2478   30.9244   48.9454 H   0  0  0  0  0  0  0  0  0  0  0  0
   63.7045   31.0332   48.4976 H   0  0  0  0  0  0  0  0  0  0  0  0
   64.5520   32.7250   46.9910 H   0  0  0  0  0  0  0  0  0  0  0  0
   63.1446   34.3524   45.8832 H   0  0  0  0  0  0  0  0  0  0  0  0
   58.6836   34.1234   43.4751 H   0  0  0  0  0  0  0  0  0  0  0  0
  1  2  1  0
  2  3  2  0
  3  4  1  0
  4  5  2  0
  5  6  1  0
  6  7  1  0
  7  8  1  0
  8  9  2  0
  9 10  1  0
 10 11  2  0
 11 12  1  0
 12 13  2  0
  5 14  1  0
 14 15  2  0
 15 16  1  0
 15  2  1  0
 13  8  1  0
  3 17  1  0
  4 18  1  0
  6 19  1  0
  7 20  1  0
  7 21  1  0
  9 22  1  0
 10 23  1  0
 11 24  1  0
 12 25  1  0
 13 26  1  0
 14 27  1  0
M  CHG  1  12   1
M  END
>  <UniqueID>  (24) 
23

>  <SMILES>  (24) 
Clc1ccc(NCc2ccc[nH+]c2)cc1Cl

>  <Energy>  (24) 
27.528427259402125

>  <Genealogy>  (24) 
Clc1ccc(NCc2ccc[nH+]c2)cc1Cl (protonated)
Clc1ccc(NCc2ccc[nH+]c2)cc1Cl (3D coordinates assigned)
Clc1ccc(NCc2ccc[nH+]c2)cc1Cl (optimized conformer: 27.528427259402125 kcal/mol)

>  <smiles>  (24) 
Clc1ccc(NCc2cccnc2)cc1Cl

>  <score_type>  (24) 
oracle

>  <origin>  (24) 
adg

>  <m_score__min__energy>  (24) 
-5.2300000000000004

>  <m_primary>  (24) 
energy

$$$$
24:0
     RDKit          3D

 78 80  0  0  0  0  0  0  0  0999 V2000
   54.1050   23.2020   45.8200 C   0  0  0  0  0  0  0  0  0  0  0  0
   54.7630   24.0490   44.7280 C   0  0  0  0  0  0  0  0  0  0  0  0
   56.1460   23.5910   44.4720 N   0  0  0  0  0  0  0  0  0  0  0  0
   56.3280   23.0410   43.1060 C   0  0  0  0  0  0  0  0  0  0  0  0
   57.0020   21.6570   43.0590 C   0  0  0  0  0  0  0  0  0  0  0  0
   57.1700   24.6010   44.8330 C   0  0  0  0  0  0  0  0  0  0  0  0
   56.7070   25.4560   46.0210 C   0  0  0  0  0  0  0  0  0  0  0  0
   56.4940   26.8140   45.6270 O   0  0  0  0  0  0  0  0  0  0  0  0
   57.2920   27.9080   45.9980 C   0  0  0  0  0  0  0  0  0  0  0  0
   58.1750   27.8690   47.0850 C   0  0  0  0  0  0  0  0  0  0  0  0
   58.8540   29.0170   47.4760 C   0  0  0  0  0  0  0  0  0  0  0  0
   58.6880   30.2280   46.7750 C   0  0  0  0  0  0  0  0  0  0  0  0
   59.2730   31.4180   47.2400 C   0  0  0  0  0  0  0  0  0  0  0  0
   59.9040   31.4660   48.5330 N   0  0  0  0  0  0  0  0  0  0  0  0
   59.1660   31.7890   49.7570 C   0  0  0  0  0  0  0  0  0  0  0  0
   60.0910   32.3350   50.8400 C   0  0  0  0  0  0  0  0  0  0  0  0
   61.3650   32.6190   50.2910 O   0  0  0  0  0  0  0  0  0  0  0  0
   61.4480   33.9800   49.9100 C   0  0  0  0  0  0  0  0  0  0  0  0
   62.7330   34.2320   49.1040 C   0  0  0  0  0  0  0  0  0  0  0  0
   63.4920   32.9730   48.8450 N   0  0  0  0  0  0  0  0  0  0  0  0
   63.4030   32.5880   47.4110 C   0  0  0  0  0  0  0  0  0  0  0  0
   63.3400   33.8010   46.4730 C   0  0  0  0  0  0  0  0  0  0  0  0
   64.8880   33.0580   49.3620 C   0  0  0  0  0  0  0  0  0  0  0  0
   65.2400   32.0210   50.4460 C   0  0  0  0  0  0  0  0  0  0  0  0
   59.1780   32.5860   46.4610 C   0  0  0  0  0  0  0  0  0  0  0  0
   59.7650   33.7930   46.8960 C   0  0  0  0  0  0  0  0  0  0  0  0
   59.6280   34.9620   46.1510 C   0  0  0  0  0  0  0  0  0  0  0  0
   58.8920   34.9540   44.9730 C   0  0  0  0  0  0  0  0  0  0  0  0
   58.3130   33.7710   44.5160 C   0  0  0  0  0  0  0  0  0  0  0  0
   58.4690   32.5530   45.2290 C   0  0  0  0  0  0  0  0  0  0  0  0
   57.9340   31.3630   44.7650 N   0  0  0  0  0  0  0  0  0  0  0  0
   57.4110   31.2800   43.3810 C   0  0  0  0  0  0  0  0  0  0  0  0
   57.9380   30.2400   45.5730 C   0  0  0  0  0  0  0  0  0  0  0  0
   57.1960   29.0780   45.2410 C   0  0  0  0  0  0  0  0  0  0  0  0
   54.4013   23.5834   46.8083 H   0  0  0  0  0  0  0  0  0  0  0  0
   53.0111   23.2580   45.7182 H   0  0  0  0  0  0  0  0  0  0  0  0
   54.4297   22.1559   45.7182 H   0  0  0  0  0  0  0  0  0  0  0  0
   54.1767   23.9621   43.8014 H   0  0  0  0  0  0  0  0  0  0  0  0
   54.7941   25.0961   45.0637 H   0  0  0  0  0  0  0  0  0  0  0  0
   55.3376   22.9569   42.6348 H   0  0  0  0  0  0  0  0  0  0  0  0
   56.9989   23.7337   42.5768 H   0  0  0  0  0  0  0  0  0  0  0  0
   57.1763   21.2990   44.0844 H   0  0  0  0  0  0  0  0  0  0  0  0
   56.3481   20.9485   42.5295 H   0  0  0  0  0  0  0  0  0  0  0  0
   57.9630   21.7350   42.5295 H   0  0  0  0  0  0  0  0  0  0  0  0
   58.1035   24.0857   45.1032 H   0  0  0  0  0  0  0  0  0  0  0  0
   57.3299   25.2615   43.9680 H   0  0  0  0  0  0  0  0  0  0  0  0
   55.7658   25.0444   46.4144 H   0  0  0  0  0  0  0  0  0  0  0  0
   57.4909   25.4353   46.7924 H   0  0  0  0  0  0  0  0  0  0  0  0
   58.3314   26.9268   47.6308 H   0  0  0  0  0  0  0  0  0  0  0  0
   59.5294   28.9797   48.3435 H   0  0  0  0  0  0  0  0  0  0  0  0
   60.9400   31.3490   48.5920 H   0  0  0  0  0  0  0  0  0  0  0  0
   58.4021   32.5456   49.5246 H   0  0  0  0  0  0  0  0  0  0  0  0
   58.7011   30.8659   50.1334 H   0  0  0  0  0  0  0  0  0  0  0  0
   59.6599   33.2574   51.2562 H   0  0  0  0  0  0  0  0  0  0  0  0
   60.2000   31.5824   51.6348 H   0  0  0  0  0  0  0  0  0  0  0  0
   60.5755   34.2374   49.2915 H   0  0  0  0  0  0  0  0  0  0  0  0
   61.4658   34.6043   50.8155 H   0  0  0  0  0  0  0  0  0  0  0  0
   62.4629   34.6875   48.1399 H   0  0  0  0  0  0  0  0  0  0  0  0
   63.3773   34.8992   49.6954 H   0  0  0  0  0  0  0  0  0  0  0  0
   63.0290   32.1970   49.3780 H   0  0  0  0  0  0  0  0  0  0  0  0
   64.2886   31.9891   47.1522 H   0  0  0  0  0  0  0  0  0  0  0  0
   62.4719   32.0176   47.2781 H   0  0  0  0  0  0  0  0  0  0  0  0
   63.2921   34.7238   47.0697 H   0  0  0  0  0  0  0  0  0  0  0  0
   64.2383   33.8209   45.8385 H   0  0  0  0  0  0  0  0  0  0  0  0
   62.4445   33.7277   45.8385 H   0  0  0  0  0  0  0  0  0  0  0  0
   65.5757   32.9150   48.5155 H   0  0  0  0  0  0  0  0  0  0  0  0
   64.9829   34.0460   49.8362 H   0  0  0  0  0  0  0  0  0  0  0  0
   65.0892   32.4651   51.4410 H   0  0  0  0  0  0  0  0  0  0  0  0
   64.5905   31.1401   50.3354 H   0  0  0  0  0  0  0  0  0  0  0  0
   66.2915   31.7175   50.3354 H   0  0  0  0  0  0  0  0  0  0  0  0
   60.3378   33.8111   47.8349 H   0  0  0  0  0  0  0  0  0  0  0  0
   60.1031   35.8923   46.4959 H   0  0  0  0  0  0  0  0  0  0  0  0
   58.7656   35.8838   44.3990 H   0  0  0  0  0  0  0  0  0  0  0  0
   57.7248   33.7813   43.5865 H   0  0  0  0  0  0  0  0  0  0  0  0
   56.3250   31.1076   43.4092 H   0  0  0  0  0  0  0  0  0  0  0  0
   57.6191   32.2224   42.8532 H   0  0  0  0  0  0  0  0  0  0  0  0
   57.9007   30.4483   42.8532 H   0  0  0  0  0  0  0  0  0  0  0  0
   56.5290   29.0985   44.3665 H   0  0  0  0  0  0  0  0  0  0  0  0
  1  2  1  0
  2  3  1  0
  3  4  1  0
  4  5  1  0
  3  6  1  0
  6  7  1  0
  7  8  1  0
  8  9  1  0
  9 10  2  0
 10 11  1  0
 11 12  2  0
 12 13  1  0
 13 14  1  0
 14 15  1  0
 15 16  1  0
 16 17  1  0
 17 18  1  0
 18 19  1  0
 19 20  1  0
 20 21  1  0
 21 22  1  0
 20 23  1  0
 23 24  1  0
 13 25  2  0
 25 26  1  0
 26 27  2  0
 27 28  1  0
 28 29  2  0
 29 30  1  0
 30 31  2  0
 31 32  1  0
 31 33  1  0
 33 34  2  0
 34  9  1  0
 33 12  1  0
 30 25  1  0
  1 35  1  0
  1 36  1  0
  1 37  1  0
  2 38  1  0
  2 39  1  0
  4 40  1  0
  4 41  1  0
  5 42  1  0
  5 43  1  0
  5 44  1  0
  6 45  1  0
  6 46  1  0
  7 47  1  0
  7 48  1  0
 10 49  1  0
 11 50  1  0
 14 51  1  0
 15 52  1  0
 15 53  1  0
 16 54  1  0
 16 55  1  0
 18 56  1  0
 18 57  1  0
 19 58  1  0
 19 59  1  0
 20 60  1  0
 21 61  1  0
 21 62  1  0
 22 63  1  0
 22 64  1  0
 22 65  1  0
 23 66  1  0
 23 67  1  0
 24 68  1  0
 24 69  1  0
 24 70  1  0
 26 71  1  0
 27 72  1  0
 28 73  1  0
 29 74  1  0
 32 75  1  0
 32 76  1  0
 32 77  1  0
 34 78  1  0
M  CHG  2  20   1  31   1
M  END
>  <UniqueID>  (25) 
24

>  <SMILES>  (25) 
CCN(CC)CCOc1ccc2c(NCCOCC[NH+](CC)CC)c3ccccc3[n+](C)c2c1

>  <Energy>  (25) 
104.60353754674314

>  <Genealogy>  (25) 
CCN(CC)CCOc1ccc2c(NCCOCC[NH+](CC)CC)c3ccccc3[n+](C)c2c1 (protonated)
CCN(CC)CCOc1ccc2c(NCCOCC[NH+](CC)CC)c3ccccc3[n+](C)c2c1 (3D coordinates assigned)
CCN(CC)CCOc1ccc2c(NCCOCC[NH+](CC)CC)c3ccccc3[n+](C)c2c1 (optimized conformer: 104.60353754674314 kcal/mol)

>  <smiles>  (25) 
CCN(CC)CCOCCNc1c2ccccc2[n+](C)c2cc(OCCN(CC)CC)ccc12

>  <score_type>  (25) 
oracle

>  <origin>  (25) 
adg

>  <m_score__min__energy>  (25) 
-4.3200000000000003

>  <m_primary>  (25) 
energy

$$$$
25:0
     RDKit          3D

 50 52  0  0  0  0  0  0  0  0999 V2000
   57.4900   20.6540   46.2190 C   0  0  0  0  0  0  0  0  0  0  0  0
   57.3740   20.7050   44.7010 C   0  0  0  0  0  0  0  0  0  0  0  0
   57.1220   22.0740   44.2600 N   0  0  0  0  0  0  0  0  0  0  0  0
   57.5380   23.1930   44.8800 C   0  0  0  0  0  0  0  0  0  0  0  0
   57.1550   24.2800   44.1140 C   0  0  0  0  0  0  0  0  0  0  0  0
   57.3980   25.7180   44.3940 C   0  0  0  0  0  0  0  0  0  0  0  0
   57.1790   26.2500   45.6740 C   0  0  0  0  0  0  0  0  0  0  0  0
   57.4090   27.6020   45.9250 C   0  0  0  0  0  0  0  0  0  0  0  0
   57.8640   28.4340   44.8920 C   0  0  0  0  0  0  0  0  0  0  0  0
   58.1230   29.8750   45.1430 C   0  0  0  0  0  0  0  0  0  0  0  0
   57.9160   30.8210   44.1220 C   0  0  0  0  0  0  0  0  0  0  0  0
   58.1550   32.1780   44.3560 C   0  0  0  0  0  0  0  0  0  0  0  0
   58.5920   32.6090   45.6130 C   0  0  0  0  0  0  0  0  0  0  0  0
   58.9010   34.3530   45.9080 S   0  0  0  0  0  0  0  0  0  0  0  0
   60.7080   34.1710   46.1440 C   0  0  0  0  0  0  0  0  0  0  0  0
   61.0830   33.8500   47.5980 C   0  0  0  0  0  0  0  0  0  0  0  0
   62.4250   33.2350   47.6970 N   0  0  0  0  0  0  0  0  0  0  0  0
   62.3290   31.7800   47.4940 C   0  0  0  0  0  0  0  0  0  0  0  0
   63.3470   33.8060   46.6990 C   0  0  0  0  0  0  0  0  0  0  0  0
   58.8110   31.6740   46.6310 C   0  0  0  0  0  0  0  0  0  0  0  0
   58.5750   30.3160   46.4000 C   0  0  0  0  0  0  0  0  0  0  0  0
   58.0740   27.9020   43.6510 N   0  0  0  0  0  0  0  0  0  0  0  0
   57.8530   26.5850   43.3870 C   0  0  0  0  0  0  0  0  0  0  0  0
   56.5060   23.7240   43.0200 C   0  0  0  0  0  0  0  0  0  0  0  0
   56.5050   22.3810   43.1310 N   0  0  0  0  0  0  0  0  0  0  0  0
   56.5718   21.0577   46.6707 H   0  0  0  0  0  0  0  0  0  0  0  0
   57.6295   19.6116   46.5413 H   0  0  0  0  0  0  0  0  0  0  0  0
   58.3525   21.2559   46.5413 H   0  0  0  0  0  0  0  0  0  0  0  0
   58.3121   20.3457   44.2527 H   0  0  0  0  0  0  0  0  0  0  0  0
   56.5369   20.0659   44.3834 H   0  0  0  0  0  0  0  0  0  0  0  0
   58.0878   23.2365   45.8318 H   0  0  0  0  0  0  0  0  0  0  0  0
   56.8237   25.5963   46.4842 H   0  0  0  0  0  0  0  0  0  0  0  0
   57.2342   28.0145   46.9296 H   0  0  0  0  0  0  0  0  0  0  0  0
   57.5639   30.4904   43.1337 H   0  0  0  0  0  0  0  0  0  0  0  0
   57.9990   32.9093   43.5493 H   0  0  0  0  0  0  0  0  0  0  0  0
   61.0674   33.3556   45.4990 H   0  0  0  0  0  0  0  0  0  0  0  0
   61.1770   35.1310   45.8826 H   0  0  0  0  0  0  0  0  0  0  0  0
   61.0747   34.7822   48.1818 H   0  0  0  0  0  0  0  0  0  0  0  0
   60.3481   33.1313   47.9897 H   0  0  0  0  0  0  0  0  0  0  0  0
   62.2957   31.2749   48.4706 H   0  0  0  0  0  0  0  0  0  0  0  0
   61.4136   31.5481   46.9298 H   0  0  0  0  0  0  0  0  0  0  0  0
   63.2060   31.4298   46.9298 H   0  0  0  0  0  0  0  0  0  0  0  0
   64.1734   34.3178   47.2138 H   0  0  0  0  0  0  0  0  0  0  0  0
   63.7507   32.9996   46.0691 H   0  0  0  0  0  0  0  0  0  0  0  0
   62.8050   34.5268   46.0691 H   0  0  0  0  0  0  0  0  0  0  0  0
   59.1698   32.0088   47.6155 H   0  0  0  0  0  0  0  0  0  0  0  0
   58.7438   29.5872   47.2064 H   0  0  0  0  0  0  0  0  0  0  0  0
   58.3940   28.5120   42.8660 H   0  0  0  0  0  0  0  0  0  0  0  0
   58.0327   26.1956   42.3741 H   0  0  0  0  0  0  0  0  0  0  0  0
   56.0609   24.2924   42.1900 H   0  0  0  0  0  0  0  0  0  0  0  0
  1  2  1  0
  2  3  1  0
  3  4  1  0
  4  5  2  0
  5  6  1  0
  6  7  2  0
  7  8  1  0
  8  9  2  0
  9 10  1  0
 10 11  2  0
 11 12  1  0
 12 13  2  0
 13 14  1  0
 14 15  1  0
 15 16  1  0
 16 17  1  0
 17 18  1  0
 17 19  1  0
 13 20  1  0
 20 21  2  0
  9 22  1  0
 22 23  2  0
  5 24  1  0
 24 25  2  0
 25  3  1  0
 23  6  1  0
 21 10  1  0
  1 26  1  0
  1 27  1  0
  1 28  1  0
  2 29  1  0
  2 30  1  0
  4 31  1  0
  7 32  1  0
  8 33  1  0
 11 34  1  0
 12 35  1  0
 15 36  1  0
 15 37  1  0
 16 38  1  0
 16 39  1  0
 18 40  1  0
 18 41  1  0
 18 42  1  0
 19 43  1  0
 19 44  1  0
 19 45  1  0
 20 46  1  0
 21 47  1  0
 22 48  1  0
 23 49  1  0
 24 50  1  0
M  CHG  1  22   1
M  END
>  <UniqueID>  (26) 
25

>  <SMILES>  (26) 
CCn1cc(-c2ccc(-c3ccc(SCCN(C)C)cc3)[nH+]c2)cn1

>  <Energy>  (26) 
79.86882811753003

>  <Genealogy>  (26) 
CCn1cc(-c2ccc(-c3ccc(SCCN(C)C)cc3)[nH+]c2)cn1 (protonated)
CCn1cc(-c2ccc(-c3ccc(SCCN(C)C)cc3)[nH+]c2)cn1 (3D coordinates assigned)
CCn1cc(-c2ccc(-c3ccc(SCCN(C)C)cc3)[nH+]c2)cn1 (optimized conformer: 79.86882811753003 kcal/mol)

>  <smiles>  (26) 
CCn1cc(-c2ccc(-c3ccc(SCCN(C)C)cc3)nc2)cn1

>  <score_type>  (26) 
oracle

>  <origin>  (26) 
adg

>  <m_score__min__energy>  (26) 
-6.1500000000000004

>  <m_primary>  (26) 
energy

$$$$
26:0
     RDKit          3D

 49 52  0  0  0  0  0  0  0  0999 V2000
   59.0780   26.0610   46.0000 C   0  0  0  0  0  0  0  0  0  0  0  0
   60.4510   26.6240   46.3810 C   0  0  0  0  0  0  0  0  0  0  0  0
   60.5150   27.0670   47.7830 N   0  0  0  0  0  0  0  0  0  0  0  0
   59.2590   27.6870   48.2230 C   0  0  0  0  0  0  0  0  0  0  0  0
   59.3950   29.2100   48.1960 C   0  0  0  0  0  0  0  0  0  0  0  0
   60.3600   29.6300   47.1810 N   0  0  0  0  0  0  0  0  0  0  0  0
   60.4210   30.9970   46.7450 C   0  0  0  0  0  0  0  0  0  0  0  0
   61.4850   31.8020   47.1860 C   0  0  0  0  0  0  0  0  0  0  0  0
   62.6460   31.2270   47.7460 C   0  0  0  0  0  0  0  0  0  0  0  0
   63.7250   32.0260   48.1200 C   0  0  0  0  0  0  0  0  0  0  0  0
   63.6670   33.4030   47.9380 C   0  0  0  0  0  0  0  0  0  0  0  0
   62.5140   33.9930   47.4200 C   0  0  0  0  0  0  0  0  0  0  0  0
   61.3830   33.2090   47.0760 C   0  0  0  0  0  0  0  0  0  0  0  0
   60.1940   33.7790   46.6730 N   0  0  0  0  0  0  0  0  0  0  0  0
   59.9420   35.2160   46.9340 C   0  0  0  0  0  0  0  0  0  0  0  0
   59.2300   33.0040   46.0500 C   0  0  0  0  0  0  0  0  0  0  0  0
   58.0890   33.5960   45.4580 C   0  0  0  0  0  0  0  0  0  0  0  0
   57.0880   32.8250   44.8850 C   0  0  0  0  0  0  0  0  0  0  0  0
   57.2380   31.4470   44.7640 C   0  0  0  0  0  0  0  0  0  0  0  0
   56.2450   30.7020   44.1050 C   0  0  0  0  0  0  0  0  0  0  0  0
   56.4330   29.3450   43.8590 C   0  0  0  0  0  0  0  0  0  0  0  0
   57.6270   28.7320   44.2260 C   0  0  0  0  0  0  0  0  0  0  0  0
   58.6170   29.4600   44.8890 C   0  0  0  0  0  0  0  0  0  0  0  0
   58.4130   30.8150   45.2500 C   0  0  0  0  0  0  0  0  0  0  0  0
   59.3640   31.5830   46.0020 C   0  0  0  0  0  0  0  0  0  0  0  0
   58.5108   25.8284   46.9133 H   0  0  0  0  0  0  0  0  0  0  0  0
   58.5280   26.8062   45.4066 H   0  0  0  0  0  0  0  0  0  0  0  0
   59.2095   25.1442   45.4066 H   0  0  0  0  0  0  0  0  0  0  0  0
   61.2079   25.8413   46.2245 H   0  0  0  0  0  0  0  0  0  0  0  0
   60.6370   27.5030   45.7464 H   0  0  0  0  0  0  0  0  0  0  0  0
   61.2930   27.7590   47.8890 H   0  0  0  0  0  0  0  0  0  0  0  0
   58.4452   27.3812   47.5491 H   0  0  0  0  0  0  0  0  0  0  0  0
   59.0333   27.3609   49.2490 H   0  0  0  0  0  0  0  0  0  0  0  0
   58.4153   29.6550   47.9675 H   0  0  0  0  0  0  0  0  0  0  0  0
   59.7507   29.5485   49.1803 H   0  0  0  0  0  0  0  0  0  0  0  0
   61.1960   29.0220   47.0230 H   0  0  0  0  0  0  0  0  0  0  0  0
   62.6998   30.1376   47.8887 H   0  0  0  0  0  0  0  0  0  0  0  0
   64.6229   31.5669   48.5594 H   0  0  0  0  0  0  0  0  0  0  0  0
   64.5321   34.0286   48.2030 H   0  0  0  0  0  0  0  0  0  0  0  0
   62.4813   35.0831   47.2761 H   0  0  0  0  0  0  0  0  0  0  0  0
   59.9112   35.3916   48.0195 H   0  0  0  0  0  0  0  0  0  0  0  0
   60.7485   35.8166   46.4881 H   0  0  0  0  0  0  0  0  0  0  0  0
   58.9792   35.5063   46.4881 H   0  0  0  0  0  0  0  0  0  0  0  0
   57.9937   34.6918   45.4520 H   0  0  0  0  0  0  0  0  0  0  0  0
   56.1679   33.3072   44.5232 H   0  0  0  0  0  0  0  0  0  0  0  0
   55.3153   31.1934   43.7823 H   0  0  0  0  0  0  0  0  0  0  0  0
   55.6386   28.7579   43.3750 H   0  0  0  0  0  0  0  0  0  0  0  0
   57.7916   27.6697   43.9929 H   0  0  0  0  0  0  0  0  0  0  0  0
   59.5721   28.9731   45.1354 H   0  0  0  0  0  0  0  0  0  0  0  0
  1  2  1  0
  2  3  1  0
  3  4  1  0
  4  5  1  0
  5  6  1  0
  6  7  1  0
  7  8  2  0
  8  9  1  0
  9 10  2  0
 10 11  1  0
 11 12  2  0
 12 13  1  0
 13 14  2  0
 14 15  1  0
 14 16  1  0
 16 17  2  0
 17 18  1  0
 18 19  2  0
 19 20  1  0
 20 21  2  0
 21 22  1  0
 22 23  2  0
 23 24  1  0
 24 25  2  0
 25  7  1  0
 13  8  1  0
 25 16  1  0
 24 19  1  0
  1 26  1  0
  1 27  1  0
  1 28  1  0
  2 29  1  0
  2 30  1  0
  3 31  1  0
  4 32  1  0
  4 33  1  0
  5 34  1  0
  5 35  1  0
  6 36  1  0
  9 37  1  0
 10 38  1  0
 11 39  1  0
 12 40  1  0
 15 41  1  0
 15 42  1  0
 15 43  1  0
 17 44  1  0
 18 45  1  0
 20 46  1  0
 21 47  1  0
 22 48  1  0
 23 49  1  0
M  CHG  1  14   1
M  END
>  <UniqueID>  (27) 
26

>  <SMILES>  (27) 
CCNCCNc1c2ccccc2[n+](C)c2ccc3ccccc3c12

>  <Energy>  (27) 
89.76227965690819

>  <Genealogy>  (27) 
CCNCCNc1c2ccccc2[n+](C)c2ccc3ccccc3c12 (3D coordinates assigned)
CCNCCNc1c2ccccc2[n+](C)c2ccc3ccccc3c12 (optimized conformer: 89.76227965690819 kcal/mol)

>  <smiles>  (27) 
CCNCCNc1c2ccccc2[n+](C)c2ccc3ccccc3c12

>  <score_type>  (27) 
oracle

>  <origin>  (27) 
adg

>  <m_score__min__energy>  (27) 
-6.6799999999999997

>  <m_primary>  (27) 
energy

$$$$
27:0
     RDKit          3D

 35 36  0  0  0  0  0  0  0  0999 V2000
   58.5110   26.7050   42.1730 C   0  0  0  0  0  0  0  0  0  0  0  0
   57.3970   27.0380   43.0650 N   0  0  0  0  0  0  0  0  0  0  0  0
   57.8630   27.1830   44.4510 C   0  0  0  0  0  0  0  0  0  0  0  0
   58.0110   28.6390   44.8070 C   0  0  0  0  0  0  0  0  0  0  0  0
   59.2110   29.1230   45.3450 C   0  0  0  0  0  0  0  0  0  0  0  0
   59.3250   30.4670   45.7060 C   0  0  0  0  0  0  0  0  0  0  0  0
   58.2280   31.3270   45.5290 C   0  0  0  0  0  0  0  0  0  0  0  0
   58.3000   32.7150   45.9090 N   0  0  0  0  0  0  0  0  0  0  0  0
   58.7370   33.0580   47.2710 C   0  0  0  0  0  0  0  0  0  0  0  0
   58.9160   34.5730   47.4440 C   0  0  0  0  0  0  0  0  0  0  0  0
   59.6410   35.1660   46.2300 C   0  0  0  0  0  0  0  0  0  0  0  0
   58.9070   34.8860   44.8990 C   0  0  0  0  0  0  0  0  0  0  0  0
   57.8430   33.7820   45.0080 C   0  0  0  0  0  0  0  0  0  0  0  0
   57.0620   30.8240   45.0360 N   0  0  0  0  0  0  0  0  0  0  0  0
   56.9290   29.5200   44.6770 C   0  0  0  0  0  0  0  0  0  0  0  0
   59.3945   26.4409   42.7727 H   0  0  0  0  0  0  0  0  0  0  0  0
   58.2301   25.8516   41.5384 H   0  0  0  0  0  0  0  0  0  0  0  0
   58.7446   27.5726   41.5384 H   0  0  0  0  0  0  0  0  0  0  0  0
   56.9670   27.9370   42.7410 H   0  0  0  0  0  0  0  0  0  0  0  0
   56.6830   26.2750   43.0090 H   0  0  0  0  0  0  0  0  0  0  0  0
   57.1332   26.7167   45.1292 H   0  0  0  0  0  0  0  0  0  0  0  0
   58.8415   26.6905   44.5512 H   0  0  0  0  0  0  0  0  0  0  0  0
   60.0645   28.4430   45.4831 H   0  0  0  0  0  0  0  0  0  0  0  0
   60.2669   30.8498   46.1260 H   0  0  0  0  0  0  0  0  0  0  0  0
   57.9815   32.7039   47.9878 H   0  0  0  0  0  0  0  0  0  0  0  0
   59.7083   32.5745   47.4520 H   0  0  0  0  0  0  0  0  0  0  0  0
   57.9279   35.0460   47.5431 H   0  0  0  0  0  0  0  0  0  0  0  0
   59.5165   34.7613   48.3462 H   0  0  0  0  0  0  0  0  0  0  0  0
   59.7205   36.2547   46.3653 H   0  0  0  0  0  0  0  0  0  0  0  0
   60.6304   34.6892   46.1695 H   0  0  0  0  0  0  0  0  0  0  0  0
   58.4147   35.8133   44.5708 H   0  0  0  0  0  0  0  0  0  0  0  0
   59.6624   34.5384   44.1790 H   0  0  0  0  0  0  0  0  0  0  0  0
   56.9115   34.2145   45.4020 H   0  0  0  0  0  0  0  0  0  0  0  0
   57.6696   33.3548   44.0093 H   0  0  0  0  0  0  0  0  0  0  0  0
   55.9690   29.1549   44.2831 H   0  0  0  0  0  0  0  0  0  0  0  0
  1  2  1  0
  2  3  1  0
  3  4  1  0
  4  5  2  0
  5  6  1  0
  6  7  2  0
  7  8  1  0
  8  9  1  0
  9 10  1  0
 10 11  1  0
 11 12  1  0
 12 13  1  0
  7 14  1  0
 14 15  2  0
 15  4  1  0
 13  8  1  0
  1 16  1  0
  1 17  1  0
  1 18  1  0
  2 19  1  0
  2 20  1  0
  3 21  1  0
  3 22  1  0
  5 23  1  0
  6 24  1  0
  9 25  1  0
  9 26  1  0
 10 27  1  0
 10 28  1  0
 11 29  1  0
 11 30  1  0
 12 31  1  0
 12 32  1  0
 13 33  1  0
 13 34  1  0
 15 35  1  0
M  CHG  1   2   1
M  END
>  <UniqueID>  (28) 
27

>  <SMILES>  (28) 
C[NH2+]Cc1ccc(N2CCCCC2)nc1

>  <Energy>  (28) 
36.21794498309931

>  <Genealogy>  (28) 
C[NH2+]Cc1ccc(N2CCCCC2)nc1 (protonated)
C[NH2+]Cc1ccc(N2CCCCC2)nc1 (3D coordinates assigned)
C[NH2+]Cc1ccc(N2CCCCC2)nc1 (nonaromatic ring conformer: 36.21794498309931 kcal/mol)

>  <smiles>  (28) 
CNCc1ccc(N2CCCCC2)nc1

>  <score_type>  (28) 
oracle

>  <origin>  (28) 
adg

>  <m_score__min__energy>  (28) 
-4.6399999999999997

>  <m_primary>  (28) 
energy

$$$$
28:0
     RDKit          3D

 54 57  0  0  0  0  0  0  0  0999 V2000
   63.4320   33.2340   46.7510 C   0  0  0  0  0  0  0  0  0  0  0  0
   62.1070   33.6350   47.3280 C   0  0  0  0  0  0  0  0  0  0  0  0
   61.1090   34.1770   46.5070 C   0  0  0  0  0  0  0  0  0  0  0  0
   59.8910   34.5820   47.0570 C   0  0  0  0  0  0  0  0  0  0  0  0
   59.6620   34.4580   48.4320 C   0  0  0  0  0  0  0  0  0  0  0  0
   60.6540   33.9100   49.2680 C   0  0  0  0  0  0  0  0  0  0  0  0
   60.4610   33.7170   50.6460 O   0  0  0  0  0  0  0  0  0  0  0  0
   61.3620   33.0460   51.5300 C   0  0  0  0  0  0  0  0  0  0  0  0
   61.1220   31.5330   51.5630 C   0  0  0  0  0  0  0  0  0  0  0  0
   61.5510   30.9120   50.3470 O   0  0  0  0  0  0  0  0  0  0  0  0
   60.7360   30.2270   49.4310 C   0  0  0  0  0  0  0  0  0  0  0  0
   60.7550   28.8300   49.4530 C   0  0  0  0  0  0  0  0  0  0  0  0
   59.9450   28.1080   48.5730 C   0  0  0  0  0  0  0  0  0  0  0  0
   59.1640   28.7610   47.6720 N   0  0  0  0  0  0  0  0  0  0  0  0
   59.1530   30.1250   47.5900 C   0  0  0  0  0  0  0  0  0  0  0  0
   58.3500   30.8180   46.5560 C   0  0  0  0  0  0  0  0  0  0  0  0
   58.2250   32.1600   46.5040 N   0  0  0  0  0  0  0  0  0  0  0  0
   57.4100   32.3320   45.4410 C   0  0  0  0  0  0  0  0  0  0  0  0
   57.0190   33.6670   44.9100 C   0  0  0  0  0  0  0  0  0  0  0  0
   57.0720   31.1710   44.8480 N   0  0  0  0  0  0  0  0  0  0  0  0
   57.6640   30.2240   45.5540 N   0  0  0  0  0  0  0  0  0  0  0  0
   57.6700   28.8420   45.1660 C   0  0  0  0  0  0  0  0  0  0  0  0
   58.1810   28.4580   43.9160 C   0  0  0  0  0  0  0  0  0  0  0  0
   58.1450   27.1110   43.5490 C   0  0  0  0  0  0  0  0  0  0  0  0
   57.6300   26.1610   44.4290 C   0  0  0  0  0  0  0  0  0  0  0  0
   57.1590   26.5750   45.6800 C   0  0  0  0  0  0  0  0  0  0  0  0
   56.5950   25.5830   46.6460 C   0  0  0  0  0  0  0  0  0  0  0  0
   57.1860   27.8930   46.0150 N   0  0  0  0  0  0  0  0  0  0  0  0
   59.8980   30.8770   48.5090 C   0  0  0  0  0  0  0  0  0  0  0  0
   61.8790   33.5190   48.7090 C   0  0  0  0  0  0  0  0  0  0  0  0
   64.1378   33.0204   47.5672 H   0  0  0  0  0  0  0  0  0  0  0  0
   63.3048   32.3341   46.1313 H   0  0  0  0  0  0  0  0  0  0  0  0
   63.8252   34.0534   46.1313 H   0  0  0  0  0  0  0  0  0  0  0  0
   61.2855   34.2837   45.4265 H   0  0  0  0  0  0  0  0  0  0  0  0
   59.1084   35.0002   46.4068 H   0  0  0  0  0  0  0  0  0  0  0  0
   58.7048   34.7894   48.8609 H   0  0  0  0  0  0  0  0  0  0  0  0
   62.3927   33.2339   51.1948 H   0  0  0  0  0  0  0  0  0  0  0  0
   61.1932   33.4367   52.5443 H   0  0  0  0  0  0  0  0  0  0  0  0
   61.6829   31.0994   52.4041 H   0  0  0  0  0  0  0  0  0  0  0  0
   60.0430   31.3550   51.6820 H   0  0  0  0  0  0  0  0  0  0  0  0
   61.4070   28.2993   50.1624 H   0  0  0  0  0  0  0  0  0  0  0  0
   59.9392   27.0086   48.6092 H   0  0  0  0  0  0  0  0  0  0  0  0
   58.5530   28.1900   47.0460 H   0  0  0  0  0  0  0  0  0  0  0  0
   56.8188   34.3507   45.7481 H   0  0  0  0  0  0  0  0  0  0  0  0
   57.8366   34.0707   44.2948 H   0  0  0  0  0  0  0  0  0  0  0  0
   56.1128   33.5658   44.2948 H   0  0  0  0  0  0  0  0  0  0  0  0
   58.6048   29.2094   43.2336 H   0  0  0  0  0  0  0  0  0  0  0  0
   58.5236   26.7996   42.5643 H   0  0  0  0  0  0  0  0  0  0  0  0
   57.5942   25.0992   44.1439 H   0  0  0  0  0  0  0  0  0  0  0  0
   56.7879   25.9222   47.6745 H   0  0  0  0  0  0  0  0  0  0  0  0
   55.5103   25.4924   46.4871 H   0  0  0  0  0  0  0  0  0  0  0  0
   57.0719   24.6046   46.4871 H   0  0  0  0  0  0  0  0  0  0  0  0
   59.8267   31.9747   48.5084 H   0  0  0  0  0  0  0  0  0  0  0  0
   62.6701   33.1170   49.3591 H   0  0  0  0  0  0  0  0  0  0  0  0
  1  2  1  0
  2  3  2  0
  3  4  1  0
  4  5  2  0
  5  6  1  0
  6  7  1  0
  7  8  1  0
  8  9  1  0
  9 10  1  0
 10 11  1  0
 11 12  2  0
 12 13  1  0
 13 14  2  0
 14 15  1  0
 15 16  1  0
 16 17  2  0
 17 18  1  0
 18 19  1  0
 18 20  2  0
 20 21  1  0
 21 22  1  0
 22 23  2  0
 23 24  1  0
 24 25  2  0
 25 26  1  0
 26 27  1  0
 26 28  2  0
 15 29  2  0
  6 30  2  0
 30  2  1  0
 29 11  1  0
 21 16  1  0
 28 22  1  0
  1 31  1  0
  1 32  1  0
  1 33  1  0
  3 34  1  0
  4 35  1  0
  5 36  1  0
  8 37  1  0
  8 38  1  0
  9 39  1  0
  9 40  1  0
 12 41  1  0
 13 42  1  0
 14 43  1  0
 19 44  1  0
 19 45  1  0
 19 46  1  0
 23 47  1  0
 24 48  1  0
 25 49  1  0
 27 50  1  0
 27 51  1  0
 27 52  1  0
 29 53  1  0
 30 54  1  0
M  CHG  1  14   1
M  END
>  <UniqueID>  (29) 
28

>  <SMILES>  (29) 
Cc1cccc(OCCOc2cc[nH+]c(-c3nc(C)nn3-c3cccc(C)n3)c2)c1

>  <Energy>  (29) 
89.57662596412638

>  <Genealogy>  (29) 
Cc1cccc(OCCOc2cc[nH+]c(-c3nc(C)nn3-c3cccc(C)n3)c2)c1 (protonated)
Cc1cccc(OCCOc2cc[nH+]c(-c3nc(C)nn3-c3cccc(C)n3)c2)c1 (3D coordinates assigned)
Cc1cccc(OCCOc2cc[nH+]c(-c3nc(C)nn3-c3cccc(C)n3)c2)c1 (optimized conformer: 89.57662596412638 kcal/mol)

>  <smiles>  (29) 
Cc1cccc(OCCOc2ccnc(-c3nc(C)nn3-c3cccc(C)n3)c2)c1

>  <score_type>  (29) 
oracle

>  <origin>  (29) 
adg

>  <m_score__min__energy>  (29) 
-6.7999999999999998

>  <m_primary>  (29) 
energy

$$$$
29:0
     RDKit          3D

 52 54  0  0  0  0  0  0  0  0999 V2000
   63.7660   33.1110   46.7470 C   0  0  0  0  0  0  0  0  0  0  0  0
   63.3590   32.0240   47.7350 C   0  0  0  0  0  0  0  0  0  0  0  0
   62.0530   32.3670   48.3540 N   0  0  0  0  0  0  0  0  0  0  0  0
   61.8720   33.8300   48.4930 C   0  0  0  0  0  0  0  0  0  0  0  0
   60.6550   34.1550   49.3580 C   0  0  0  0  0  0  0  0  0  0  0  0
   61.8620   31.6850   49.6550 C   0  0  0  0  0  0  0  0  0  0  0  0
   61.3470   30.2470   49.4690 C   0  0  0  0  0  0  0  0  0  0  0  0
   60.1310   30.1440   48.5360 C   0  0  0  0  0  0  0  0  0  0  0  0
   60.4250   30.6600   47.1980 N   0  0  0  0  0  0  0  0  0  0  0  0
   59.4100   30.7810   46.1810 C   0  0  0  0  0  0  0  0  0  0  0  0
   58.8880   32.0450   45.8390 C   0  0  0  0  0  0  0  0  0  0  0  0
   59.2430   33.2040   46.5650 C   0  0  0  0  0  0  0  0  0  0  0  0
   58.7010   34.4440   46.2350 C   0  0  0  0  0  0  0  0  0  0  0  0
   57.7940   34.5530   45.1880 C   0  0  0  0  0  0  0  0  0  0  0  0
   57.4460   33.4280   44.4420 C   0  0  0  0  0  0  0  0  0  0  0  0
   58.0100   32.1580   44.7270 C   0  0  0  0  0  0  0  0  0  0  0  0
   57.7270   31.0500   43.9530 N   0  0  0  0  0  0  0  0  0  0  0  0
   57.1050   31.2160   42.6210 C   0  0  0  0  0  0  0  0  0  0  0  0
   58.0440   29.7890   44.4150 C   0  0  0  0  0  0  0  0  0  0  0  0
   57.5150   28.6200   43.8110 C   0  0  0  0  0  0  0  0  0  0  0  0
   57.8480   27.3510   44.2820 C   0  0  0  0  0  0  0  0  0  0  0  0
   58.6890   27.2100   45.3810 C   0  0  0  0  0  0  0  0  0  0  0  0
   59.1140   25.4690   46.0410 Br  0  0  0  0  0  0  0  0  0  0  0  0
   59.1980   28.3410   46.0160 C   0  0  0  0  0  0  0  0  0  0  0  0
   58.9010   29.6360   45.5380 C   0  0  0  0  0  0  0  0  0  0  0  0
   64.0996   34.0020   47.2991 H   0  0  0  0  0  0  0  0  0  0  0  0
   64.5872   32.7428   46.1145 H   0  0  0  0  0  0  0  0  0  0  0  0
   62.9049   33.3726   46.1145 H   0  0  0  0  0  0  0  0  0  0  0  0
   63.2707   31.0640   47.2052 H   0  0  0  0  0  0  0  0  0  0  0  0
   64.1234   31.9452   48.5221 H   0  0  0  0  0  0  0  0  0  0  0  0
   62.7700   34.2601   48.9605 H   0  0  0  0  0  0  0  0  0  0  0  0
   61.7135   34.2586   47.4924 H   0  0  0  0  0  0  0  0  0  0  0  0
   60.9302   34.0815   50.4205 H   0  0  0  0  0  0  0  0  0  0  0  0
   60.3111   35.1765   49.1381 H   0  0  0  0  0  0  0  0  0  0  0  0
   59.8476   33.4410   49.1381 H   0  0  0  0  0  0  0  0  0  0  0  0
   62.8245   31.6538   50.1866 H   0  0  0  0  0  0  0  0  0  0  0  0
   61.1132   32.2473   50.2322 H   0  0  0  0  0  0  0  0  0  0  0  0
   62.1607   29.6382   49.0480 H   0  0  0  0  0  0  0  0  0  0  0  0
   61.0251   29.8896   50.4583 H   0  0  0  0  0  0  0  0  0  0  0  0
   59.8349   29.0879   48.4528 H   0  0  0  0  0  0  0  0  0  0  0  0
   59.3196   30.7504   48.9648 H   0  0  0  0  0  0  0  0  0  0  0  0
   61.4280   30.7990   46.9400 H   0  0  0  0  0  0  0  0  0  0  0  0
   59.9551   33.1262   47.3998 H   0  0  0  0  0  0  0  0  0  0  0  0
   58.9917   35.3390   46.8046 H   0  0  0  0  0  0  0  0  0  0  0  0
   57.3493   35.5298   44.9471 H   0  0  0  0  0  0  0  0  0  0  0  0
   56.7226   33.5267   43.6193 H   0  0  0  0  0  0  0  0  0  0  0  0
   56.0487   31.4979   42.7422 H   0  0  0  0  0  0  0  0  0  0  0  0
   57.6335   32.0045   42.0652 H   0  0  0  0  0  0  0  0  0  0  0  0
   57.1703   30.2690   42.0652 H   0  0  0  0  0  0  0  0  0  0  0  0
   56.8299   28.7164   42.9558 H   0  0  0  0  0  0  0  0  0  0  0  0
   57.4442   26.4578   43.7828 H   0  0  0  0  0  0  0  0  0  0  0  0
   59.8398   28.2234   46.9016 H   0  0  0  0  0  0  0  0  0  0  0  0
  1  2  1  0
  2  3  1  0
  3  4  1  0
  4  5  1  0
  3  6  1  0
  6  7  1  0
  7  8  1  0
  8  9  1  0
  9 10  1  0
 10 11  2  0
 11 12  1  0
 12 13  2  0
 13 14  1  0
 14 15  2  0
 15 16  1  0
 16 17  2  0
 17 18  1  0
 17 19  1  0
 19 20  2  0
 20 21  1  0
 21 22  2  0
 22 23  1  0
 22 24  1  0
 24 25  2  0
 25 10  1  0
 16 11  1  0
 25 19  1  0
  1 26  1  0
  1 27  1  0
  1 28  1  0
  2 29  1  0
  2 30  1  0
  4 31  1  0
  4 32  1  0
  5 33  1  0
  5 34  1  0
  5 35  1  0
  6 36  1  0
  6 37  1  0
  7 38  1  0
  7 39  1  0
  8 40  1  0
  8 41  1  0
  9 42  1  0
 12 43  1  0
 13 44  1  0
 14 45  1  0
 15 46  1  0
 18 47  1  0
 18 48  1  0
 18 49  1  0
 20 50  1  0
 21 51  1  0
 24 52  1  0
M  CHG  1  17   1
M  END
>  <UniqueID>  (30) 
29

>  <SMILES>  (30) 
CCN(CC)CCCNc1c2ccccc2[n+](C)c2ccc(Br)cc12

>  <Energy>  (30) 
72.24549490952988

>  <Genealogy>  (30) 
CCN(CC)CCCNc1c2ccccc2[n+](C)c2ccc(Br)cc12 (3D coordinates assigned)
CCN(CC)CCCNc1c2ccccc2[n+](C)c2ccc(Br)cc12 (optimized conformer: 72.24549490952988 kcal/mol)

>  <smiles>  (30) 
CCN(CC)CCCNc1c2ccccc2[n+](C)c2ccc(Br)cc12

>  <score_type>  (30) 
oracle

>  <origin>  (30) 
adg

>  <m_score__min__energy>  (30) 
-6.21

>  <m_primary>  (30) 
energy

$$$$
30:0
     RDKit          3D

 41 43  0  0  0  0  0  0  0  0999 V2000
   63.5020   33.8230   46.4800 C   0  0  0  0  0  0  0  0  0  0  0  0
   64.0690   32.6990   47.2290 N   0  0  0  0  0  0  0  0  0  0  0  0
   63.0320   32.0370   48.0360 C   0  0  0  0  0  0  0  0  0  0  0  0
   62.2990   30.9600   47.2260 C   0  0  0  0  0  0  0  0  0  0  0  0
   60.8600   30.9790   47.4890 N   0  0  0  0  0  0  0  0  0  0  0  0
   59.9260   31.1240   46.4090 C   0  0  0  0  0  0  0  0  0  0  0  0
   59.5270   32.4020   45.9870 C   0  0  0  0  0  0  0  0  0  0  0  0
   60.0430   33.5600   46.6070 C   0  0  0  0  0  0  0  0  0  0  0  0
   59.5990   34.8250   46.2310 C   0  0  0  0  0  0  0  0  0  0  0  0
   58.6320   34.9580   45.2420 C   0  0  0  0  0  0  0  0  0  0  0  0
   58.1270   33.8280   44.5970 C   0  0  0  0  0  0  0  0  0  0  0  0
   58.5920   32.5290   44.9240 C   0  0  0  0  0  0  0  0  0  0  0  0
   58.1510   31.4030   44.2500 N   0  0  0  0  0  0  0  0  0  0  0  0
   57.4090   31.5480   42.9780 C   0  0  0  0  0  0  0  0  0  0  0  0
   58.4320   30.1440   44.7470 C   0  0  0  0  0  0  0  0  0  0  0  0
   57.8000   28.9800   44.2380 C   0  0  0  0  0  0  0  0  0  0  0  0
   58.1320   27.7130   44.7140 C   0  0  0  0  0  0  0  0  0  0  0  0
   59.0870   27.5670   45.7150 C   0  0  0  0  0  0  0  0  0  0  0  0
   59.5390   25.8250   46.3570 Br  0  0  0  0  0  0  0  0  0  0  0  0
   59.6930   28.6930   46.2660 C   0  0  0  0  0  0  0  0  0  0  0  0
   59.3620   29.9870   45.8100 C   0  0  0  0  0  0  0  0  0  0  0  0
   63.1212   34.5778   47.1838 H   0  0  0  0  0  0  0  0  0  0  0  0
   64.2814   34.2721   45.8469 H   0  0  0  0  0  0  0  0  0  0  0  0
   62.6776   33.4631   45.8469 H   0  0  0  0  0  0  0  0  0  0  0  0
   64.4770   32.0160   46.5490 H   0  0  0  0  0  0  0  0  0  0  0  0
   64.8290   33.0630   47.8490 H   0  0  0  0  0  0  0  0  0  0  0  0
   63.5044   31.5675   48.9114 H   0  0  0  0  0  0  0  0  0  0  0  0
   62.2990   32.7950   48.3493 H   0  0  0  0  0  0  0  0  0  0  0  0
   62.4691   31.1409   46.1544 H   0  0  0  0  0  0  0  0  0  0  0  0
   62.6917   29.9766   47.5239 H   0  0  0  0  0  0  0  0  0  0  0  0
   60.4970   31.0360   48.4670 H   0  0  0  0  0  0  0  0  0  0  0  0
   60.8038   33.4622   47.3954 H   0  0  0  0  0  0  0  0  0  0  0  0
   60.0142   35.7200   46.7174 H   0  0  0  0  0  0  0  0  0  0  0  0
   58.2633   35.9571   44.9666 H   0  0  0  0  0  0  0  0  0  0  0  0
   57.3554   33.9471   43.8221 H   0  0  0  0  0  0  0  0  0  0  0  0
   56.3502   31.7549   43.1927 H   0  0  0  0  0  0  0  0  0  0  0  0
   57.8349   32.3799   42.3979 H   0  0  0  0  0  0  0  0  0  0  0  0
   57.4904   30.6170   42.3979 H   0  0  0  0  0  0  0  0  0  0  0  0
   57.0347   29.0794   43.4541 H   0  0  0  0  0  0  0  0  0  0  0  0
   57.6366   26.8242   44.2962 H   0  0  0  0  0  0  0  0  0  0  0  0
   60.4384   28.5726   47.0660 H   0  0  0  0  0  0  0  0  0  0  0  0
  1  2  1  0
  2  3  1  0
  3  4  1  0
  4  5  1  0
  5  6  1  0
  6  7  2  0
  7  8  1  0
  8  9  2  0
  9 10  1  0
 10 11  2  0
 11 12  1  0
 12 13  2  0
 13 14  1  0
 13 15  1  0
 15 16  2  0
 16 17  1  0
 17 18  2  0
 18 19  1  0
 18 20  1  0
 20 21  2  0
 21  6  1  0
 12  7  1  0
 21 15  1  0
  1 22  1  0
  1 23  1  0
  1 24  1  0
  2 25  1  0
  2 26  1  0
  3 27  1  0
  3 28  1  0
  4 29  1  0
  4 30  1  0
  5 31  1  0
  8 32  1  0
  9 33  1  0
 10 34  1  0
 11 35  1  0
 14 36  1  0
 14 37  1  0
 14 38  1  0
 16 39  1  0
 17 40  1  0
 20 41  1  0
M  CHG  2   2   1  13   1
M  END
>  <UniqueID>  (31) 
30

>  <SMILES>  (31) 
C[NH2+]CCNc1c2ccccc2[n+](C)c2ccc(Br)cc12

>  <Energy>  (31) 
65.32411416334291

>  <Genealogy>  (31) 
C[NH2+]CCNc1c2ccccc2[n+](C)c2ccc(Br)cc12 (protonated)
C[NH2+]CCNc1c2ccccc2[n+](C)c2ccc(Br)cc12 (3D coordinates assigned)
C[NH2+]CCNc1c2ccccc2[n+](C)c2ccc(Br)cc12 (optimized conformer: 65.32411416334291 kcal/mol)

>  <smiles>  (31) 
CNCCNc1c2ccccc2[n+](C)c2ccc(Br)cc12

>  <score_type>  (31) 
oracle

>  <origin>  (31) 
adg

>  <m_score__min__energy>  (31) 
-4.5800000000000001

>  <m_primary>  (31) 
energy

$$$$
31:0
     RDKit          3D

 31 32  0  0  0  0  0  0  0  0999 V2000
   55.6890   30.6790   44.5270 O   0  0  0  0  0  0  0  0  0  0  0  0
   56.7070   30.2930   43.8900 C   0  0  0  0  0  0  0  0  0  0  0  0
   56.6730   28.9650   43.1830 C   0  0  0  0  0  0  0  0  0  0  0  0
   57.9350   28.2220   43.3440 N   0  0  0  0  0  0  0  0  0  0  0  0
   58.0660   27.6020   44.6710 C   0  0  0  0  0  0  0  0  0  0  0  0
   58.9180   28.4440   45.5690 C   0  0  0  0  0  0  0  0  0  0  0  0
   60.1450   29.0020   45.2380 C   0  0  0  0  0  0  0  0  0  0  0  0
   60.7260   29.7170   46.2920 C   0  0  0  0  0  0  0  0  0  0  0  0
   59.9610   29.7200   47.4530 C   0  0  0  0  0  0  0  0  0  0  0  0
   58.5620   28.8300   47.1670 S   0  0  0  0  0  0  0  0  0  0  0  0
   57.8810   31.1160   43.8180 N   0  0  0  0  0  0  0  0  0  0  0  0
   58.1240   32.2460   44.6700 C   0  0  0  0  0  0  0  0  0  0  0  0
   58.0370   32.1430   46.0710 C   0  0  0  0  0  0  0  0  0  0  0  0
   58.3040   33.2520   46.8790 C   0  0  0  0  0  0  0  0  0  0  0  0
   58.6740   34.4680   46.2990 C   0  0  0  0  0  0  0  0  0  0  0  0
   58.7850   34.5740   44.9110 C   0  0  0  0  0  0  0  0  0  0  0  0
   58.5200   33.4660   44.0990 C   0  0  0  0  0  0  0  0  0  0  0  0
   55.8510   28.3629   43.5974 H   0  0  0  0  0  0  0  0  0  0  0  0
   56.5249   29.1550   42.1097 H   0  0  0  0  0  0  0  0  0  0  0  0
   58.7380   28.8780   43.2030 H   0  0  0  0  0  0  0  0  0  0  0  0
   57.0671   27.4938   45.1188 H   0  0  0  0  0  0  0  0  0  0  0  0
   58.5420   26.6171   44.5548 H   0  0  0  0  0  0  0  0  0  0  0  0
   60.6131   28.8935   44.2485 H   0  0  0  0  0  0  0  0  0  0  0  0
   61.6964   30.2283   46.2095 H   0  0  0  0  0  0  0  0  0  0  0  0
   60.2252   30.2189   48.3971 H   0  0  0  0  0  0  0  0  0  0  0  0
   58.5670   30.9170   43.0540 H   0  0  0  0  0  0  0  0  0  0  0  0
   57.7574   31.1845   46.5327 H   0  0  0  0  0  0  0  0  0  0  0  0
   58.2227   33.1672   47.9727 H   0  0  0  0  0  0  0  0  0  0  0  0
   58.8778   35.3417   46.9355 H   0  0  0  0  0  0  0  0  0  0  0  0
   59.0813   35.5303   44.4553 H   0  0  0  0  0  0  0  0  0  0  0  0
   58.6225   33.5511   43.0071 H   0  0  0  0  0  0  0  0  0  0  0  0
  1  2  2  0
  2  3  1  0
  3  4  1  0
  4  5  1  0
  5  6  1  0
  6  7  2  0
  7  8  1  0
  8  9  2  0
  9 10  1  0
  2 11  1  0
 11 12  1  0
 12 13  2  0
 13 14  1  0
 14 15  2  0
 15 16  1  0
 16 17  2  0
 10  6  1  0
 17 12  1  0
  3 18  1  0
  3 19  1  0
  4 20  1  0
  5 21  1  0
  5 22  1  0
  7 23  1  0
  8 24  1  0
  9 25  1  0
 11 26  1  0
 13 27  1  0
 14 28  1  0
 15 29  1  0
 16 30  1  0
 17 31  1  0
M  END
>  <UniqueID>  (32) 
31

>  <SMILES>  (32) 
O=C(CNCc1cccs1)Nc1ccccc1

>  <Energy>  (32) 
58.74113459784955

>  <Genealogy>  (32) 
O=C(CNCc1cccs1)Nc1ccccc1 (3D coordinates assigned)
O=C(CNCc1cccs1)Nc1ccccc1 (optimized conformer: 58.74113459784955 kcal/mol)

>  <smiles>  (32) 
O=C(CNCc1cccs1)Nc1ccccc1

>  <score_type>  (32) 
oracle

>  <origin>  (32) 
adg

>  <m_score__min__energy>  (32) 
-6.5

>  <m_primary>  (32) 
energy

$$$$
