0:0
     RDKit          3D

 61 63  0  0  0  0  0  0  0  0999 V2000
   50.9660   24.2420   44.1300 C   0  0  0  0  0  0  0  0  0  0  0  0
   52.3650   24.0770   44.7250 C   0  0  0  0  0  0  0  0  0  0  0  0
   52.5470   22.7160   45.2800 N   0  0  0  0  0  0  0  0  0  0  0  0
   51.2680   22.1980   45.8050 C   0  0  0  0  0  0  0  0  0  0  0  0
   53.6230   22.6540   46.3010 C   0  0  0  0  0  0  0  0  0  0  0  0
   54.9600   22.2900   45.6420 C   0  0  0  0  0  0  0  0  0  0  0  0
   55.2980   23.2320   44.6220 O   0  0  0  0  0  0  0  0  0  0  0  0
   55.9880   24.4380   44.8180 C   0  0  0  0  0  0  0  0  0  0  0  0
   57.0930   24.8290   44.0320 C   0  0  0  0  0  0  0  0  0  0  0  0
   57.7730   26.0190   44.3130 C   0  0  0  0  0  0  0  0  0  0  0  0
   57.3600   26.8390   45.3760 C   0  0  0  0  0  0  0  0  0  0  0  0
   58.1300   28.0520   45.7390 C   0  0  0  0  0  0  0  0  0  0  0  0
   59.4450   27.9200   46.2100 C   0  0  0  0  0  0  0  0  0  0  0  0
   60.1700   28.9870   46.5210 O   0  0  0  0  0  0  0  0  0  0  0  0
   59.7020   30.2280   46.4160 C   0  0  0  0  0  0  0  0  0  0  0  0
   60.5290   31.3040   46.7460 C   0  0  0  0  0  0  0  0  0  0  0  0
   60.0500   32.6180   46.6780 C   0  0  0  0  0  0  0  0  0  0  0  0
   60.9230   33.6550   47.0100 O   0  0  0  0  0  0  0  0  0  0  0  0
   62.2180   33.8230   46.4420 C   0  0  0  0  0  0  0  0  0  0  0  0
   63.2810   33.3800   47.4620 C   0  0  0  0  0  0  0  0  0  0  0  0
   62.6940   32.9910   48.7720 N   0  0  0  0  0  0  0  0  0  0  0  0
   63.0330   31.5890   49.0860 C   0  0  0  0  0  0  0  0  0  0  0  0
   63.1560   33.8750   49.8580 C   0  0  0  0  0  0  0  0  0  0  0  0
   58.7280   32.8520   46.2600 C   0  0  0  0  0  0  0  0  0  0  0  0
   57.8990   31.7820   45.9000 C   0  0  0  0  0  0  0  0  0  0  0  0
   58.3800   30.4580   45.9720 C   0  0  0  0  0  0  0  0  0  0  0  0
   57.5870   29.3460   45.6250 C   0  0  0  0  0  0  0  0  0  0  0  0
   56.3970   29.5020   45.2430 O   0  0  0  0  0  0  0  0  0  0  0  0
   56.2440   26.4640   46.1390 C   0  0  0  0  0  0  0  0  0  0  0  0
   55.5580   25.2810   45.8510 C   0  0  0  0  0  0  0  0  0  0  0  0
   50.2298   24.3288   44.9427 H   0  0  0  0  0  0  0  0  0  0  0  0
   50.9361   25.1499   43.5096 H   0  0  0  0  0  0  0  0  0  0  0  0
   50.7257   23.3660   43.5096 H   0  0  0  0  0  0  0  0  0  0  0  0
   53.1136   24.2476   43.9373 H   0  0  0  0  0  0  0  0  0  0  0  0
   52.4890   24.8073   45.5382 H   0  0  0  0  0  0  0  0  0  0  0  0
   51.2922   22.2078   46.9047 H   0  0  0  0  0  0  0  0  0  0  0  0
   50.4423   22.8326   45.4507 H   0  0  0  0  0  0  0  0  0  0  0  0
   51.1166   21.1677   45.4507 H   0  0  0  0  0  0  0  0  0  0  0  0
   53.7149   23.6342   46.7917 H   0  0  0  0  0  0  0  0  0  0  0  0
   53.3682   21.8839   47.0440 H   0  0  0  0  0  0  0  0  0  0  0  0
   55.7502   22.2884   46.4072 H   0  0  0  0  0  0  0  0  0  0  0  0
   54.8670   21.2941   45.1843 H   0  0  0  0  0  0  0  0  0  0  0  0
   57.4211   24.1954   43.1948 H   0  0  0  0  0  0  0  0  0  0  0  0
   58.6359   26.3141   43.6980 H   0  0  0  0  0  0  0  0  0  0  0  0
   59.8816   26.9167   46.3232 H   0  0  0  0  0  0  0  0  0  0  0  0
   61.5660   31.1175   47.0622 H   0  0  0  0  0  0  0  0  0  0  0  0
   62.3030   33.2098   45.5327 H   0  0  0  0  0  0  0  0  0  0  0  0
   62.3730   34.8809   46.1836 H   0  0  0  0  0  0  0  0  0  0  0  0
   63.8254   32.5173   47.0504 H   0  0  0  0  0  0  0  0  0  0  0  0
   63.9485   34.2363   47.6387 H   0  0  0  0  0  0  0  0  0  0  0  0
   61.6480   33.0490   48.7300 H   0  0  0  0  0  0  0  0  0  0  0  0
   63.0654   31.4552   50.1773 H   0  0  0  0  0  0  0  0  0  0  0  0
   62.2701   30.9225   48.6573 H   0  0  0  0  0  0  0  0  0  0  0  0
   64.0161   31.3446   48.6573 H   0  0  0  0  0  0  0  0  0  0  0  0
   62.9171   33.4179   50.8296 H   0  0  0  0  0  0  0  0  0  0  0  0
   64.2438   34.0173   49.7773 H   0  0  0  0  0  0  0  0  0  0  0  0
   62.6518   34.8493   49.7773 H   0  0  0  0  0  0  0  0  0  0  0  0
   58.3427   33.8813   46.2155 H   0  0  0  0  0  0  0  0  0  0  0  0
   56.8706   31.9746   45.5604 H   0  0  0  0  0  0  0  0  0  0  0  0
   55.9074   27.1041   46.9678 H   0  0  0  0  0  0  0  0  0  0  0  0
   54.6709   25.0088   46.4417 H   0  0  0  0  0  0  0  0  0  0  0  0
  1  2  1  0
  2  3  1  0
  3  4  1  0
  3  5  1  0
  5  6  1  0
  6  7  1  0
  7  8  1  0
  8  9  2  0
  9 10  1  0
 10 11  2  0
 11 12  1  0
 12 13  2  0
 13 14  1  0
 14 15  1  0
 15 16  2  0
 16 17  1  0
 17 18  1  0
 18 19  1  0
 19 20  1  0
 20 21  1  0
 21 22  1  0
 21 23  1  0
 17 24  2  0
 24 25  1  0
 25 26  2  0
 26 27  1  0
 27 28  2  0
 11 29  1  0
 29 30  2  0
 30  8  1  0
 27 12  1  0
 26 15  1  0
  1 31  1  0
  1 32  1  0
  1 33  1  0
  2 34  1  0
  2 35  1  0
  4 36  1  0
  4 37  1  0
  4 38  1  0
  5 39  1  0
  5 40  1  0
  6 41  1  0
  6 42  1  0
  9 43  1  0
 10 44  1  0
 13 45  1  0
 16 46  1  0
 19 47  1  0
 19 48  1  0
 20 49  1  0
 20 50  1  0
 21 51  1  0
 22 52  1  0
 22 53  1  0
 22 54  1  0
 23 55  1  0
 23 56  1  0
 23 57  1  0
 24 58  1  0
 25 59  1  0
 29 60  1  0
 30 61  1  0
M  CHG  1  21   1
M  END
>  <UniqueID>  (1) 
1

>  <SMILES>  (1) 
CCN(C)CCOc1ccc(-c2coc3cc(OCC[NH+](C)C)ccc3c2=O)cc1

>  <Energy>  (1) 
77.44961578954273

>  <Genealogy>  (1) 
CCN(C)CCOc1ccc(-c2coc3cc(OCC[NH+](C)C)ccc3c2=O)cc1 (protonated)
CCN(C)CCOc1ccc(-c2coc3cc(OCC[NH+](C)C)ccc3c2=O)cc1 (3D coordinates assigned)
CCN(C)CCOc1ccc(-c2coc3cc(OCC[NH+](C)C)ccc3c2=O)cc1 (optimized conformer: 77.44961578954273 kcal/mol)

>  <smiles>  (1) 
CCN(C)CCOc1ccc(-c2coc3cc(OCCN(C)C)ccc3c2=O)cc1

>  <score_type>  (1) 
oracle

>  <origin>  (1) 
adg

>  <m_score__min__energy>  (1) 
-5.5700000000000003

>  <m_primary>  (1) 
energy

$$$$
1:0
     RDKit          3D

 71 74  0  0  0  0  0  0  0  0999 V2000
   63.6800   32.7630   47.0430 C   0  0  0  0  0  0  0  0  0  0  0  0
   64.1100   33.4270   48.3570 C   0  0  0  0  0  0  0  0  0  0  0  0
   64.5910   32.4430   49.3650 N   0  0  0  0  0  0  0  0  0  0  0  0
   65.9910   32.7420   49.7750 C   0  0  0  0  0  0  0  0  0  0  0  0
   66.6050   31.7140   50.7370 C   0  0  0  0  0  0  0  0  0  0  0  0
   63.6460   32.3490   50.5090 C   0  0  0  0  0  0  0  0  0  0  0  0
   62.9620   30.9730   50.6140 C   0  0  0  0  0  0  0  0  0  0  0  0
   61.5110   31.1030   50.4660 N   0  0  0  0  0  0  0  0  0  0  0  0
   60.8410   30.7780   49.2360 C   0  0  0  0  0  0  0  0  0  0  0  0
   60.5650   29.4400   48.9040 C   0  0  0  0  0  0  0  0  0  0  0  0
   60.7730   28.3970   49.8310 C   0  0  0  0  0  0  0  0  0  0  0  0
   60.5570   27.0700   49.4650 C   0  0  0  0  0  0  0  0  0  0  0  0
   60.1280   26.7610   48.1780 C   0  0  0  0  0  0  0  0  0  0  0  0
   59.8990   27.7790   47.2510 C   0  0  0  0  0  0  0  0  0  0  0  0
   60.0960   29.1370   47.6000 C   0  0  0  0  0  0  0  0  0  0  0  0
   59.8570   30.1530   46.7010 N   0  0  0  0  0  0  0  0  0  0  0  0
   59.9730   29.8570   45.2550 C   0  0  0  0  0  0  0  0  0  0  0  0
   59.7870   31.4600   47.1450 C   0  0  0  0  0  0  0  0  0  0  0  0
   60.4380   31.8010   48.3570 C   0  0  0  0  0  0  0  0  0  0  0  0
   60.7100   33.1510   48.6440 C   0  0  0  0  0  0  0  0  0  0  0  0
   60.3080   34.1560   47.7730 C   0  0  0  0  0  0  0  0  0  0  0  0
   59.4980   33.8520   46.6760 C   0  0  0  0  0  0  0  0  0  0  0  0
   58.9900   34.8910   45.8830 C   0  0  0  0  0  0  0  0  0  0  0  0
   58.0690   34.6160   44.8770 C   0  0  0  0  0  0  0  0  0  0  0  0
   57.5890   33.3200   44.7060 C   0  0  0  0  0  0  0  0  0  0  0  0
   58.0660   32.2660   45.5100 C   0  0  0  0  0  0  0  0  0  0  0  0
   57.4530   31.0010   45.4900 O   0  0  0  0  0  0  0  0  0  0  0  0
   56.7750   30.4030   44.3840 C   0  0  0  0  0  0  0  0  0  0  0  0
   56.2570   29.0090   44.7540 C   0  0  0  0  0  0  0  0  0  0  0  0
   57.3760   28.1050   45.0980 N   0  0  0  0  0  0  0  0  0  0  0  0
   56.9070   26.9720   45.9150 C   0  0  0  0  0  0  0  0  0  0  0  0
   58.0300   27.5990   43.8810 C   0  0  0  0  0  0  0  0  0  0  0  0
   59.1450   32.5040   46.4040 C   0  0  0  0  0  0  0  0  0  0  0  0
   63.0942   31.8585   47.2638 H   0  0  0  0  0  0  0  0  0  0  0  0
   63.0648   33.4654   46.4614 H   0  0  0  0  0  0  0  0  0  0  0  0
   64.5726   32.4889   46.4614 H   0  0  0  0  0  0  0  0  0  0  0  0
   64.9218   34.1379   48.1433 H   0  0  0  0  0  0  0  0  0  0  0  0
   63.2287   33.9324   48.7789 H   0  0  0  0  0  0  0  0  0  0  0  0
   64.6220   31.5020   48.9040 H   0  0  0  0  0  0  0  0  0  0  0  0
   66.6139   32.7800   48.8691 H   0  0  0  0  0  0  0  0  0  0  0  0
   65.9614   33.6991   50.3163 H   0  0  0  0  0  0  0  0  0  0  0  0
   66.4185   32.0262   51.7751 H   0  0  0  0  0  0  0  0  0  0  0  0
   66.1470   30.7292   50.5624 H   0  0  0  0  0  0  0  0  0  0  0  0
   67.6892   31.6503   50.5624 H   0  0  0  0  0  0  0  0  0  0  0  0
   64.2024   32.5356   51.4394 H   0  0  0  0  0  0  0  0  0  0  0  0
   62.8563   33.0970   50.3453 H   0  0  0  0  0  0  0  0  0  0  0  0
   63.3484   30.3163   49.8206 H   0  0  0  0  0  0  0  0  0  0  0  0
   63.1793   30.5449   51.6037 H   0  0  0  0  0  0  0  0  0  0  0  0
   60.9660   31.5650   51.2290 H   0  0  0  0  0  0  0  0  0  0  0  0
   61.1086   28.6334   50.8515 H   0  0  0  0  0  0  0  0  0  0  0  0
   60.7260   26.2649   50.1952 H   0  0  0  0  0  0  0  0  0  0  0  0
   59.9688   25.7113   47.8902 H   0  0  0  0  0  0  0  0  0  0  0  0
   59.5610   27.5229   46.2360 H   0  0  0  0  0  0  0  0  0  0  0  0
   60.3713   28.8406   45.1196 H   0  0  0  0  0  0  0  0  0  0  0  0
   58.9807   29.9275   44.7855 H   0  0  0  0  0  0  0  0  0  0  0  0
   60.6532   30.5829   44.7855 H   0  0  0  0  0  0  0  0  0  0  0  0
   61.2466   33.4137   49.5676 H   0  0  0  0  0  0  0  0  0  0  0  0
   60.6283   35.1938   47.9476 H   0  0  0  0  0  0  0  0  0  0  0  0
   59.3204   35.9257   46.0567 H   0  0  0  0  0  0  0  0  0  0  0  0
   57.7197   35.4230   44.2162 H   0  0  0  0  0  0  0  0  0  0  0  0
   56.8302   33.1173   43.9359 H   0  0  0  0  0  0  0  0  0  0  0  0
   55.9251   31.0388   44.0951 H   0  0  0  0  0  0  0  0  0  0  0  0
   57.4820   30.3063   43.5468 H   0  0  0  0  0  0  0  0  0  0  0  0
   55.5828   29.0931   45.6191 H   0  0  0  0  0  0  0  0  0  0  0  0
   55.7210   28.5918   43.8887 H   0  0  0  0  0  0  0  0  0  0  0  0
   57.0102   27.2214   46.9814 H   0  0  0  0  0  0  0  0  0  0  0  0
   55.8505   26.7679   45.6868 H   0  0  0  0  0  0  0  0  0  0  0  0
   57.5102   26.0809   45.6868 H   0  0  0  0  0  0  0  0  0  0  0  0
   58.8714   26.9480   44.1606 H   0  0  0  0  0  0  0  0  0  0  0  0
   57.3042   27.0250   43.2863 H   0  0  0  0  0  0  0  0  0  0  0  0
   58.4034   28.4457   43.2863 H   0  0  0  0  0  0  0  0  0  0  0  0
  1  2  1  0
  2  3  1  0
  3  4  1  0
  4  5  1  0
  3  6  1  0
  6  7  1  0
  7  8  1  0
  8  9  1  0
  9 10  2  0
 10 11  1  0
 11 12  2  0
 12 13  1  0
 13 14  2  0
 14 15  1  0
 15 16  2  0
 16 17  1  0
 16 18  1  0
 18 19  2  0
 19 20  1  0
 20 21  2  0
 21 22  1  0
 22 23  2  0
 23 24  1  0
 24 25  2  0
 25 26  1  0
 26 27  1  0
 27 28  1  0
 28 29  1  0
 29 30  1  0
 30 31  1  0
 30 32  1  0
 26 33  2  0
 19  9  1  0
 33 22  1  0
 15 10  1  0
 33 18  1  0
  1 34  1  0
  1 35  1  0
  1 36  1  0
  2 37  1  0
  2 38  1  0
  3 39  1  0
  4 40  1  0
  4 41  1  0
  5 42  1  0
  5 43  1  0
  5 44  1  0
  6 45  1  0
  6 46  1  0
  7 47  1  0
  7 48  1  0
  8 49  1  0
 11 50  1  0
 12 51  1  0
 13 52  1  0
 14 53  1  0
 17 54  1  0
 17 55  1  0
 17 56  1  0
 20 57  1  0
 21 58  1  0
 23 59  1  0
 24 60  1  0
 25 61  1  0
 28 62  1  0
 28 63  1  0
 29 64  1  0
 29 65  1  0
 31 66  1  0
 31 67  1  0
 31 68  1  0
 32 69  1  0
 32 70  1  0
 32 71  1  0
M  CHG  2   3   1  16   1
M  END
>  <UniqueID>  (2) 
2

>  <SMILES>  (2) 
CC[NH+](CC)CCNc1c2ccccc2[n+](C)c2c1ccc1cccc(OCCN(C)C)c12

>  <Energy>  (2) 
120.40720432914743

>  <Genealogy>  (2) 
CC[NH+](CC)CCNc1c2ccccc2[n+](C)c2c1ccc1cccc(OCCN(C)C)c12 (protonated)
CC[NH+](CC)CCNc1c2ccccc2[n+](C)c2c1ccc1cccc(OCCN(C)C)c12 (3D coordinates assigned)
CC[NH+](CC)CCNc1c2ccccc2[n+](C)c2c1ccc1cccc(OCCN(C)C)c12 (optimized conformer: 120.40720432914743 kcal/mol)

>  <smiles>  (2) 
CCN(CC)CCNc1c2ccccc2[n+](C)c2c1ccc1cccc(OCCN(C)C)c12

>  <score_type>  (2) 
oracle

>  <origin>  (2) 
adg

>  <m_score__min__energy>  (2) 
-6

>  <m_primary>  (2) 
energy

$$$$
2:0
     RDKit          3D

 92 96  0  0  0  0  0  0  0  0999 V2000
   58.1760   27.4760   43.8100 C   0  0  0  0  0  0  0  0  0  0  0  0
   57.7120   27.6060   45.2610 C   0  0  0  0  0  0  0  0  0  0  0  0
   58.8730   27.6030   46.1780 N   0  0  0  0  0  0  0  0  0  0  0  0
   59.5340   26.2720   46.2340 C   0  0  0  0  0  0  0  0  0  0  0  0
   61.0650   26.3380   46.3610 C   0  0  0  0  0  0  0  0  0  0  0  0
   58.5150   28.1560   47.5070 C   0  0  0  0  0  0  0  0  0  0  0  0
   59.6270   29.0630   48.0660 C   0  0  0  0  0  0  0  0  0  0  0  0
   60.5640   29.5050   47.0130 N   0  0  0  0  0  0  0  0  0  0  0  0
   60.4430   30.9370   46.7610 C   0  0  0  0  0  0  0  0  0  0  0  0
   59.3610   31.4730   46.0050 C   0  0  0  0  0  0  0  0  0  0  0  0
   58.5830   30.6790   45.1220 C   0  0  0  0  0  0  0  0  0  0  0  0
   57.5270   31.2280   44.4000 C   0  0  0  0  0  0  0  0  0  0  0  0
   57.2380   32.5790   44.5060 C   0  0  0  0  0  0  0  0  0  0  0  0
   57.9980   33.3920   45.3400 C   0  0  0  0  0  0  0  0  0  0  0  0
   59.0560   32.8600   46.1210 C   0  0  0  0  0  0  0  0  0  0  0  0
   59.7840   33.6640   46.9750 N   0  0  0  0  0  0  0  0  0  0  0  0
   59.2670   34.9970   47.3580 C   0  0  0  0  0  0  0  0  0  0  0  0
   60.9890   33.2200   47.4770 C   0  0  0  0  0  0  0  0  0  0  0  0
   61.9000   34.1080   48.1000 C   0  0  0  0  0  0  0  0  0  0  0  0
   63.0690   33.6410   48.6940 C   0  0  0  0  0  0  0  0  0  0  0  0
   63.3940   32.2900   48.6560 C   0  0  0  0  0  0  0  0  0  0  0  0
   64.5610   31.8690   49.3160 O   0  0  0  0  0  0  0  0  0  0  0  0
   65.5200   32.7160   49.9520 C   0  0  0  0  0  0  0  0  0  0  0  0
   66.2850   31.9530   51.0660 C   0  0  0  0  0  0  0  0  0  0  0  0
   65.4250   31.2370   52.0660 N   0  0  2  0  0  0  0  0  0  0  0  0
   66.2190   30.9860   53.3020 C   0  0  0  0  0  0  0  0  0  0  0  0
   64.9530   29.9350   51.4950 C   0  0  0  0  0  0  0  0  0  0  0  0
   63.7030   29.3940   52.2180 C   0  0  0  0  0  0  0  0  0  0  0  0
   62.5250   30.3240   52.1330 N   0  0  2  0  0  0  0  0  0  0  0  0
   61.8810   30.3750   53.4760 C   0  0  0  0  0  0  0  0  0  0  0  0
   61.4780   29.7970   51.1930 C   0  0  0  0  0  0  0  0  0  0  0  0
   60.1860   30.5960   51.1150 C   0  0  0  0  0  0  0  0  0  0  0  0
   58.9850   30.0210   51.5730 C   0  0  0  0  0  0  0  0  0  0  0  0
   57.7710   30.6990   51.4230 C   0  0  0  0  0  0  0  0  0  0  0  0
   57.7430   31.9590   50.8250 C   0  0  0  0  0  0  0  0  0  0  0  0
   58.9240   32.5360   50.3510 C   0  0  0  0  0  0  0  0  0  0  0  0
   60.1390   31.8490   50.4750 C   0  0  0  0  0  0  0  0  0  0  0  0
   62.9390   31.7130   51.7530 C   0  0  0  0  0  0  0  0  0  0  0  0
   64.2650   32.1330   52.4240 C   0  0  0  0  0  0  0  0  0  0  0  0
   62.5540   31.4100   47.9610 C   0  0  0  0  0  0  0  0  0  0  0  0
   61.3350   31.8480   47.3900 C   0  0  0  0  0  0  0  0  0  0  0  0
   59.2350   27.1793   43.7889 H   0  0  0  0  0  0  0  0  0  0  0  0
   57.5711   26.7127   43.2986 H   0  0  0  0  0  0  0  0  0  0  0  0
   58.0557   28.4424   43.2986 H   0  0  0  0  0  0  0  0  0  0  0  0
   57.1583   28.5489   45.3810 H   0  0  0  0  0  0  0  0  0  0  0  0
   57.0633   26.7518   45.5052 H   0  0  0  0  0  0  0  0  0  0  0  0
   59.1382   25.7257   47.1029 H   0  0  0  0  0  0  0  0  0  0  0  0
   59.3155   25.7682   45.2809 H   0  0  0  0  0  0  0  0  0  0  0  0
   61.3445   26.3500   47.4248 H   0  0  0  0  0  0  0  0  0  0  0  0
   61.5115   25.4583   45.8745 H   0  0  0  0  0  0  0  0  0  0  0  0
   61.4342   27.2529   45.8745 H   0  0  0  0  0  0  0  0  0  0  0  0
   57.5903   28.7440   47.4109 H   0  0  0  0  0  0  0  0  0  0  0  0
   58.3774   27.3147   48.2022 H   0  0  0  0  0  0  0  0  0  0  0  0
   59.1648   29.9495   48.5247 H   0  0  0  0  0  0  0  0  0  0  0  0
   60.1977   28.4830   48.8062 H   0  0  0  0  0  0  0  0  0  0  0  0
   60.3890   28.9100   46.1800 H   0  0  0  0  0  0  0  0  0  0  0  0
   61.5430   29.2680   47.2830 H   0  0  0  0  0  0  0  0  0  0  0  0
   58.8188   29.6108   45.0063 H   0  0  0  0  0  0  0  0  0  0  0  0
   56.9201   30.5873   43.7433 H   0  0  0  0  0  0  0  0  0  0  0  0
   56.4059   33.0093   43.9294 H   0  0  0  0  0  0  0  0  0  0  0  0
   57.7746   34.4677   45.3951 H   0  0  0  0  0  0  0  0  0  0  0  0
   59.2360   35.0770   48.4546 H   0  0  0  0  0  0  0  0  0  0  0  0
   59.9278   35.7771   46.9520 H   0  0  0  0  0  0  0  0  0  0  0  0
   58.2530   35.1275   46.9520 H   0  0  0  0  0  0  0  0  0  0  0  0
   61.6797   35.1856   48.1146 H   0  0  0  0  0  0  0  0  0  0  0  0
   63.7429   34.3487   49.1990 H   0  0  0  0  0  0  0  0  0  0  0  0
   66.2400   33.0718   49.2003 H   0  0  0  0  0  0  0  0  0  0  0  0
   64.9893   33.5639   50.4095 H   0  0  0  0  0  0  0  0  0  0  0  0
   66.9341   31.2082   50.5823 H   0  0  0  0  0  0  0  0  0  0  0  0
   66.8348   32.7183   51.6335 H   0  0  0  0  0  0  0  0  0  0  0  0
   65.5942   31.1835   54.1856 H   0  0  0  0  0  0  0  0  0  0  0  0
   66.5537   29.9382   53.3164 H   0  0  0  0  0  0  0  0  0  0  0  0
   67.0951   31.6510   53.3164 H   0  0  0  0  0  0  0  0  0  0  0  0
   65.7619   29.1952   51.5868 H   0  0  0  0  0  0  0  0  0  0  0  0
   64.6827   30.1088   50.4430 H   0  0  0  0  0  0  0  0  0  0  0  0
   63.9512   29.2392   53.2784 H   0  0  0  0  0  0  0  0  0  0  0  0
   63.4168   28.4552   51.7212 H   0  0  0  0  0  0  0  0  0  0  0  0
   62.6542   30.3138   54.2560 H   0  0  0  0  0  0  0  0  0  0  0  0
   61.3276   31.3198   53.5816 H   0  0  0  0  0  0  0  0  0  0  0  0
   61.1858   29.5291   53.5816 H   0  0  0  0  0  0  0  0  0  0  0  0
   61.9161   29.7671   50.1845 H   0  0  0  0  0  0  0  0  0  0  0  0
   61.1928   28.8118   51.5905 H   0  0  0  0  0  0  0  0  0  0  0  0
   59.0018   29.0311   52.0524 H   0  0  0  0  0  0  0  0  0  0  0  0
   56.8371   30.2381   51.7770 H   0  0  0  0  0  0  0  0  0  0  0  0
   56.7898   32.4991   50.7265 H   0  0  0  0  0  0  0  0  0  0  0  0
   58.9000   33.5299   49.8803 H   0  0  0  0  0  0  0  0  0  0  0  0
   61.0612   32.2912   50.0700 H   0  0  0  0  0  0  0  0  0  0  0  0
   62.1492   32.4142   52.0605 H   0  0  0  0  0  0  0  0  0  0  0  0
   63.0917   31.7328   50.6638 H   0  0  0  0  0  0  0  0  0  0  0  0
   64.1277   32.1072   53.5151 H   0  0  0  0  0  0  0  0  0  0  0  0
   64.5086   33.1423   52.0607 H   0  0  0  0  0  0  0  0  0  0  0  0
   62.8483   30.3552   47.8567 H   0  0  0  0  0  0  0  0  0  0  0  0
  1  2  1  0
  2  3  1  0
  3  4  1  0
  4  5  1  0
  3  6  1  0
  6  7  1  0
  7  8  1  0
  8  9  1  0
  9 10  2  0
 10 11  1  0
 11 12  2  0
 12 13  1  0
 13 14  2  0
 14 15  1  0
 15 16  2  0
 16 17  1  0
 16 18  1  0
 18 19  2  0
 19 20  1  0
 20 21  2  0
 21 22  1  0
 22 23  1  0
 23 24  1  0
 25 24  1  6
 25 26  1  0
 25 27  1  0
 27 28  1  0
 28 29  1  0
 29 30  1  1
 29 31  1  0
 31 32  1  0
 32 33  2  0
 33 34  1  0
 34 35  2  0
 35 36  1  0
 36 37  2  0
 29 38  1  0
 38 39  1  0
 21 40  1  0
 40 41  2  0
 41  9  1  0
 15 10  1  0
 41 18  1  0
 39 25  1  0
 37 32  1  0
  1 42  1  0
  1 43  1  0
  1 44  1  0
  2 45  1  0
  2 46  1  0
  4 47  1  0
  4 48  1  0
  5 49  1  0
  5 50  1  0
  5 51  1  0
  6 52  1  0
  6 53  1  0
  7 54  1  0
  7 55  1  0
  8 56  1  0
  8 57  1  0
 11 58  1  0
 12 59  1  0
 13 60  1  0
 14 61  1  0
 17 62  1  0
 17 63  1  0
 17 64  1  0
 19 65  1  0
 20 66  1  0
 23 67  1  0
 23 68  1  0
 24 69  1  0
 24 70  1  0
 26 71  1  0
 26 72  1  0
 26 73  1  0
 27 74  1  0
 27 75  1  0
 28 76  1  0
 28 77  1  0
 30 78  1  0
 30 79  1  0
 30 80  1  0
 31 81  1  0
 31 82  1  0
 33 83  1  0
 34 84  1  0
 35 85  1  0
 36 86  1  0
 37 87  1  0
 38 88  1  0
 38 89  1  0
 39 90  1  0
 39 91  1  0
 40 92  1  0
M  CHG  4   8   1  16   1  25   1  29   1
M  END
>  <UniqueID>  (3) 
3

>  <SMILES>  (3) 
CCN(CC)CC[NH2+]c1c2ccccc2[n+](C)c2ccc(OCC[N+]3(C)CC[N+](C)(Cc4ccccc4)CC3)cc12

>  <Energy>  (3) 
155.82502711400463

>  <Genealogy>  (3) 
CCN(CC)CC[NH2+]c1c2ccccc2[n+](C)c2ccc(OCC[N+]3(C)CC[N+](C)(Cc4ccccc4)CC3)cc12 (protonated)
CCN(CC)CC[NH2+]c1c2ccccc2[n+](C)c2ccc(OCC[N+]3(C)CC[N+](C)(Cc4ccccc4)CC3)cc12 (3D coordinates assigned)
CCN(CC)CC[NH2+]c1c2ccccc2[n+](C)c2ccc(OCC[N+]3(C)CC[N+](C)(Cc4ccccc4)CC3)cc12 (nonaromatic ring conformer: 155.82502711400463 kcal/mol)

>  <smiles>  (3) 
CCN(CC)CCNc1c2ccccc2[n+](C)c2ccc(OCC[N+]3(C)CC[N+](C)(Cc4ccccc4)CC3)cc12

>  <score_type>  (3) 
oracle

>  <origin>  (3) 
adg

>  <m_score__min__energy>  (3) 
-3

>  <m_primary>  (3) 
energy

$$$$
3:0
     RDKit          3D

 56 58  0  0  0  0  0  0  0  0999 V2000
   63.7610   33.5180   46.7810 C   0  0  0  0  0  0  0  0  0  0  0  0
   62.2640   33.2190   46.7760 C   0  0  0  0  0  0  0  0  0  0  0  0
   61.8610   32.5920   48.0560 N   0  0  0  0  0  0  0  0  0  0  0  0
   62.8780   31.6200   48.5200 C   0  0  0  0  0  0  0  0  0  0  0  0
   63.5480   32.1230   49.7960 C   0  0  0  0  0  0  0  0  0  0  0  0
   61.5850   33.6140   49.0910 C   0  0  0  0  0  0  0  0  0  0  0  0
   60.2510   33.3160   49.7840 C   0  0  0  0  0  0  0  0  0  0  0  0
   59.4400   32.5050   48.9530 O   0  0  0  0  0  0  0  0  0  0  0  0
   58.8910   31.4340   49.6940 C   0  0  0  0  0  0  0  0  0  0  0  0
   59.2460   30.1170   49.0110 C   0  0  0  0  0  0  0  0  0  0  0  0
   59.9430   30.3620   47.7480 N   0  0  0  0  0  0  0  0  0  0  0  0
   59.2490   30.3280   46.4900 C   0  0  0  0  0  0  0  0  0  0  0  0
   58.9220   29.1020   45.8880 C   0  0  0  0  0  0  0  0  0  0  0  0
   59.3760   27.8840   46.4380 C   0  0  0  0  0  0  0  0  0  0  0  0
   59.0860   26.6720   45.8160 C   0  0  0  0  0  0  0  0  0  0  0  0
   58.3620   26.6530   44.6310 C   0  0  0  0  0  0  0  0  0  0  0  0
   57.9050   27.8450   44.0670 C   0  0  0  0  0  0  0  0  0  0  0  0
   58.1500   29.0920   44.6950 C   0  0  0  0  0  0  0  0  0  0  0  0
   57.6780   30.2800   44.1670 N   0  0  0  0  0  0  0  0  0  0  0  0
   56.6510   30.2610   43.1020 C   0  0  0  0  0  0  0  0  0  0  0  0
   58.1540   31.4850   44.6480 C   0  0  0  0  0  0  0  0  0  0  0  0
   57.9090   32.7110   43.9850 C   0  0  0  0  0  0  0  0  0  0  0  0
   58.3560   33.9130   44.5240 C   0  0  0  0  0  0  0  0  0  0  0  0
   59.0680   33.9070   45.7170 C   0  0  0  0  0  0  0  0  0  0  0  0
   59.6320   35.4200   46.4040 Cl  0  0  0  0  0  0  0  0  0  0  0  0
   59.3450   32.7310   46.3400 N   0  0  0  0  0  0  0  0  0  0  0  0
   58.9270   31.5270   45.8370 C   0  0  0  0  0  0  0  0  0  0  0  0
   64.1172   33.5892   47.8193 H   0  0  0  0  0  0  0  0  0  0  0  0
   64.2981   32.7094   46.2637 H   0  0  0  0  0  0  0  0  0  0  0  0
   63.9463   34.4709   46.2637 H   0  0  0  0  0  0  0  0  0  0  0  0
   61.7069   34.1577   46.6405 H   0  0  0  0  0  0  0  0  0  0  0  0
   62.0402   32.5258   45.9518 H   0  0  0  0  0  0  0  0  0  0  0  0
   62.3915   30.6543   48.7220 H   0  0  0  0  0  0  0  0  0  0  0  0
   63.6421   31.5006   47.7377 H   0  0  0  0  0  0  0  0  0  0  0  0
   63.0156   31.7233   50.6717 H   0  0  0  0  0  0  0  0  0  0  0  0
   64.5948   31.7858   49.8179 H   0  0  0  0  0  0  0  0  0  0  0  0
   63.5164   33.2223   49.8179 H   0  0  0  0  0  0  0  0  0  0  0  0
   62.3930   33.6031   49.8374 H   0  0  0  0  0  0  0  0  0  0  0  0
   61.5292   34.6034   48.6136 H   0  0  0  0  0  0  0  0  0  0  0  0
   60.4427   32.7894   50.7306 H   0  0  0  0  0  0  0  0  0  0  0  0
   59.7288   34.2638   49.9814 H   0  0  0  0  0  0  0  0  0  0  0  0
   59.3037   31.4425   50.7136 H   0  0  0  0  0  0  0  0  0  0  0  0
   57.7974   31.5414   49.7435 H   0  0  0  0  0  0  0  0  0  0  0  0
   59.8973   29.5297   49.6750 H   0  0  0  0  0  0  0  0  0  0  0  0
   58.3177   29.5651   48.8019 H   0  0  0  0  0  0  0  0  0  0  0  0
   60.9590   30.6060   47.7600 H   0  0  0  0  0  0  0  0  0  0  0  0
   59.9647   27.8920   47.3672 H   0  0  0  0  0  0  0  0  0  0  0  0
   59.4309   25.7284   46.2640 H   0  0  0  0  0  0  0  0  0  0  0  0
   58.1479   25.6948   44.1350 H   0  0  0  0  0  0  0  0  0  0  0  0
   57.3458   27.8164   43.1202 H   0  0  0  0  0  0  0  0  0  0  0  0
   55.6502   30.2425   43.5580 H   0  0  0  0  0  0  0  0  0  0  0  0
   56.7531   31.1612   42.4781 H   0  0  0  0  0  0  0  0  0  0  0  0
   56.7863   29.3652   42.4781 H   0  0  0  0  0  0  0  0  0  0  0  0
   57.3588   32.7135   43.0325 H   0  0  0  0  0  0  0  0  0  0  0  0
   58.1471   34.8622   44.0089 H   0  0  0  0  0  0  0  0  0  0  0  0
   59.9060   32.7760   47.2190 H   0  0  0  0  0  0  0  0  0  0  0  0
  1  2  1  0
  2  3  1  0
  3  4  1  0
  4  5  1  0
  3  6  1  0
  6  7  1  0
  7  8  1  0
  8  9  1  0
  9 10  1  0
 10 11  1  0
 11 12  1  0
 12 13  2  0
 13 14  1  0
 14 15  2  0
 15 16  1  0
 16 17  2  0
 17 18  1  0
 18 19  2  0
 19 20  1  0
 19 21  1  0
 21 22  2  0
 22 23  1  0
 23 24  2  0
 24 25  1  0
 24 26  1  0
 26 27  2  0
 27 12  1  0
 18 13  1  0
 27 21  1  0
  1 28  1  0
  1 29  1  0
  1 30  1  0
  2 31  1  0
  2 32  1  0
  4 33  1  0
  4 34  1  0
  5 35  1  0
  5 36  1  0
  5 37  1  0
  6 38  1  0
  6 39  1  0
  7 40  1  0
  7 41  1  0
  9 42  1  0
  9 43  1  0
 10 44  1  0
 10 45  1  0
 11 46  1  0
 14 47  1  0
 15 48  1  0
 16 49  1  0
 17 50  1  0
 20 51  1  0
 20 52  1  0
 20 53  1  0
 22 54  1  0
 23 55  1  0
 26 56  1  0
M  CHG  2  19   1  26   1
M  END
>  <UniqueID>  (4) 
4

>  <SMILES>  (4) 
CCN(CC)CCOCCNc1c2ccccc2[n+](C)c2ccc(Cl)[nH+]c12

>  <Energy>  (4) 
79.22362669647607

>  <Genealogy>  (4) 
CCN(CC)CCOCCNc1c2ccccc2[n+](C)c2ccc(Cl)[nH+]c12 (protonated)
CCN(CC)CCOCCNc1c2ccccc2[n+](C)c2ccc(Cl)[nH+]c12 (3D coordinates assigned)
CCN(CC)CCOCCNc1c2ccccc2[n+](C)c2ccc(Cl)[nH+]c12 (optimized conformer: 79.22362669647607 kcal/mol)

>  <smiles>  (4) 
CCN(CC)CCOCCNc1c2ccccc2[n+](C)c2ccc(Cl)nc12

>  <score_type>  (4) 
oracle

>  <origin>  (4) 
adg

>  <m_score__min__energy>  (4) 
-3.73

>  <m_primary>  (4) 
energy

$$$$
4:0
     RDKit          3D

 80 82  0  0  0  0  0  0  0  0999 V2000
   63.2410   33.8290   46.3750 C   0  0  0  0  0  0  0  0  0  0  0  0
   62.2740   32.9390   47.1620 C   0  0  0  0  0  0  0  0  0  0  0  0
   62.5460   32.8740   48.6160 N   0  0  0  0  0  0  0  0  0  0  0  0
   63.7340   32.0940   49.0310 C   0  0  0  0  0  0  0  0  0  0  0  0
   64.9030   32.9460   49.5500 C   0  0  0  0  0  0  0  0  0  0  0  0
   62.2990   34.1180   49.3760 C   0  0  0  0  0  0  0  0  0  0  0  0
   61.8140   33.8230   50.8070 C   0  0  0  0  0  0  0  0  0  0  0  0
   61.3270   32.4420   50.9750 N   0  0  0  0  0  0  0  0  0  0  0  0
   60.1190   32.3640   51.8090 C   0  0  0  0  0  0  0  0  0  0  0  0
   58.9260   33.0350   51.1080 C   0  0  0  0  0  0  0  0  0  0  0  0
   58.4850   32.3370   49.8070 C   0  0  0  0  0  0  0  0  0  0  0  0
   59.6060   32.1260   48.8840 N   0  0  0  0  0  0  0  0  0  0  0  0
   59.4910   31.4550   47.6100 C   0  0  0  0  0  0  0  0  0  0  0  0
   58.9560   32.1290   46.4910 C   0  0  0  0  0  0  0  0  0  0  0  0
   58.7980   33.5320   46.4780 C   0  0  0  0  0  0  0  0  0  0  0  0
   58.3520   34.1930   45.3350 C   0  0  0  0  0  0  0  0  0  0  0  0
   58.0500   33.4720   44.1880 C   0  0  0  0  0  0  0  0  0  0  0  0
   58.1380   32.0800   44.1950 C   0  0  0  0  0  0  0  0  0  0  0  0
   58.5310   31.3780   45.3620 C   0  0  0  0  0  0  0  0  0  0  0  0
   58.4630   30.0010   45.4320 N   0  0  0  0  0  0  0  0  0  0  0  0
   57.6650   29.2510   44.4330 C   0  0  0  0  0  0  0  0  0  0  0  0
   59.1040   29.3300   46.4560 C   0  0  0  0  0  0  0  0  0  0  0  0
   59.2020   27.9140   46.4630 C   0  0  0  0  0  0  0  0  0  0  0  0
   59.7890   27.2390   47.5270 C   0  0  0  0  0  0  0  0  0  0  0  0
   60.3880   27.9460   48.5560 C   0  0  0  0  0  0  0  0  0  0  0  0
   60.4160   29.3420   48.5310 C   0  0  0  0  0  0  0  0  0  0  0  0
   61.3740   29.9960   49.3730 N   0  0  0  0  0  0  0  0  0  0  0  0
   61.6890   29.4250   50.6840 C   0  0  0  0  0  0  0  0  0  0  0  0
   63.1360   29.7800   51.1210 C   0  0  0  0  0  0  0  0  0  0  0  0
   63.3150   30.0630   52.5780 N   0  0  0  0  0  0  0  0  0  0  0  0
   64.2550   29.0980   53.1980 C   0  0  0  0  0  0  0  0  0  0  0  0
   61.9950   29.9110   53.2390 C   0  0  0  0  0  0  0  0  0  0  0  0
   63.7870   31.4500   52.8070 C   0  0  0  0  0  0  0  0  0  0  0  0
   59.6850   30.0530   47.5380 C   0  0  0  0  0  0  0  0  0  0  0  0
   63.8645   34.4029   47.0764 H   0  0  0  0  0  0  0  0  0  0  0  0
   63.8847   33.2008   45.7417 H   0  0  0  0  0  0  0  0  0  0  0  0
   62.6682   34.5225   45.7417 H   0  0  0  0  0  0  0  0  0  0  0  0
   61.2552   33.3287   47.0200 H   0  0  0  0  0  0  0  0  0  0  0  0
   62.4014   31.9178   46.7735 H   0  0  0  0  0  0  0  0  0  0  0  0
   63.4298   31.4033   49.8312 H   0  0  0  0  0  0  0  0  0  0  0  0
   64.0985   31.5749   48.1323 H   0  0  0  0  0  0  0  0  0  0  0  0
   64.8989   32.9430   50.6500 H   0  0  0  0  0  0  0  0  0  0  0  0
   65.8524   32.5266   49.1857 H   0  0  0  0  0  0  0  0  0  0  0  0
   64.7944   33.9782   49.1857 H   0  0  0  0  0  0  0  0  0  0  0  0
   63.2337   34.6956   49.4282 H   0  0  0  0  0  0  0  0  0  0  0  0
   61.5131   34.6868   48.8575 H   0  0  0  0  0  0  0  0  0  0  0  0
   62.6508   33.9869   51.5019 H   0  0  0  0  0  0  0  0  0  0  0  0
   60.9705   34.4978   51.0150 H   0  0  0  0  0  0  0  0  0  0  0  0
   61.1380   31.9980   50.0450 H   0  0  0  0  0  0  0  0  0  0  0  0
   59.8786   31.3072   51.9973 H   0  0  0  0  0  0  0  0  0  0  0  0
   60.3109   32.8883   52.7568 H   0  0  0  0  0  0  0  0  0  0  0  0
   58.0741   33.0383   51.8038 H   0  0  0  0  0  0  0  0  0  0  0  0
   59.2516   34.0480   50.8290 H   0  0  0  0  0  0  0  0  0  0  0  0
   58.0458   31.3607   50.0600 H   0  0  0  0  0  0  0  0  0  0  0  0
   57.7529   32.9875   49.3061 H   0  0  0  0  0  0  0  0  0  0  0  0
   60.4340   32.7530   48.9960 H   0  0  0  0  0  0  0  0  0  0  0  0
   59.0304   34.1119   47.3834 H   0  0  0  0  0  0  0  0  0  0  0  0
   58.2392   35.2872   45.3418 H   0  0  0  0  0  0  0  0  0  0  0  0
   57.7411   33.9987   43.2730 H   0  0  0  0  0  0  0  0  0  0  0  0
   57.8986   31.5180   43.2802 H   0  0  0  0  0  0  0  0  0  0  0  0
   56.9583   28.5868   44.9521 H   0  0  0  0  0  0  0  0  0  0  0  0
   57.1072   29.9593   43.8028 H   0  0  0  0  0  0  0  0  0  0  0  0
   58.3374   28.6504   43.8028 H   0  0  0  0  0  0  0  0  0  0  0  0
   58.8065   27.3407   45.6115 H   0  0  0  0  0  0  0  0  0  0  0  0
   59.7776   26.1393   47.5516 H   0  0  0  0  0  0  0  0  0  0  0  0
   60.8444   27.4049   49.3980 H   0  0  0  0  0  0  0  0  0  0  0  0
   61.5310   31.0180   49.2390 H   0  0  0  0  0  0  0  0  0  0  0  0
   60.9824   29.8229   51.4273 H   0  0  0  0  0  0  0  0  0  0  0  0
   61.6058   28.3303   50.6150 H   0  0  0  0  0  0  0  0  0  0  0  0
   63.7874   28.9337   50.8572 H   0  0  0  0  0  0  0  0  0  0  0  0
   63.3901   30.7136   50.5976 H   0  0  0  0  0  0  0  0  0  0  0  0
   64.1849   29.1700   54.2934 H   0  0  0  0  0  0  0  0  0  0  0  0
   63.9953   28.0774   52.8802 H   0  0  0  0  0  0  0  0  0  0  0  0
   65.2820   29.3308   52.8802 H   0  0  0  0  0  0  0  0  0  0  0  0
   62.1278   29.9263   54.3309 H   0  0  0  0  0  0  0  0  0  0  0  0
   61.3367   30.7393   52.9380 H   0  0  0  0  0  0  0  0  0  0  0  0
   61.5422   28.9548   52.9380 H   0  0  0  0  0  0  0  0  0  0  0  0
   63.8521   31.6413   53.8883 H   0  0  0  0  0  0  0  0  0  0  0  0
   64.7798   31.5794   52.3513 H   0  0  0  0  0  0  0  0  0  0  0  0
   63.0792   32.1581   52.3513 H   0  0  0  0  0  0  0  0  0  0  0  0
  1  2  1  0
  2  3  1  0
  3  4  1  0
  4  5  1  0
  3  6  1  0
  6  7  1  0
  7  8  1  0
  8  9  1  0
  9 10  1  0
 10 11  1  0
 11 12  1  0
 12 13  1  0
 13 14  2  0
 14 15  1  0
 15 16  2  0
 16 17  1  0
 17 18  2  0
 18 19  1  0
 19 20  2  0
 20 21  1  0
 20 22  1  0
 22 23  2  0
 23 24  1  0
 24 25  2  0
 25 26  1  0
 26 27  1  0
 27 28  1  0
 28 29  1  0
 29 30  1  0
 30 31  1  0
 30 32  1  0
 30 33  1  0
 26 34  2  0
 34 13  1  0
 19 14  1  0
 34 22  1  0
  1 35  1  0
  1 36  1  0
  1 37  1  0
  2 38  1  0
  2 39  1  0
  4 40  1  0
  4 41  1  0
  5 42  1  0
  5 43  1  0
  5 44  1  0
  6 45  1  0
  6 46  1  0
  7 47  1  0
  7 48  1  0
  8 49  1  0
  9 50  1  0
  9 51  1  0
 10 52  1  0
 10 53  1  0
 11 54  1  0
 11 55  1  0
 12 56  1  0
 15 57  1  0
 16 58  1  0
 17 59  1  0
 18 60  1  0
 21 61  1  0
 21 62  1  0
 21 63  1  0
 23 64  1  0
 24 65  1  0
 25 66  1  0
 27 67  1  0
 28 68  1  0
 28 69  1  0
 29 70  1  0
 29 71  1  0
 31 72  1  0
 31 73  1  0
 31 74  1  0
 32 75  1  0
 32 76  1  0
 32 77  1  0
 33 78  1  0
 33 79  1  0
 33 80  1  0
M  CHG  2  20   1  30   1
M  END
>  <UniqueID>  (5) 
5

>  <SMILES>  (5) 
CCN(CC)CCNCCCNc1c2ccccc2[n+](C)c2cccc(NCC[N+](C)(C)C)c12

>  <Energy>  (5) 
132.38480393163246

>  <Genealogy>  (5) 
CCN(CC)CCNCCCNc1c2ccccc2[n+](C)c2cccc(NCC[N+](C)(C)C)c12 (3D coordinates assigned)
CCN(CC)CCNCCCNc1c2ccccc2[n+](C)c2cccc(NCC[N+](C)(C)C)c12 (optimized conformer: 132.38480393163246 kcal/mol)

>  <smiles>  (5) 
CCN(CC)CCNCCCNc1c2ccccc2[n+](C)c2cccc(NCC[N+](C)(C)C)c12

>  <score_type>  (5) 
oracle

>  <origin>  (5) 
adg

>  <m_score__min__energy>  (5) 
-4.4699999999999998

>  <m_primary>  (5) 
energy

$$$$
5:0
     RDKit          3D

 69 71  0  0  0  0  0  0  0  0999 V2000
   65.1610   32.9110   49.8770 C   0  0  0  0  0  0  0  0  0  0  0  0
   63.7240   33.4060   49.6480 C   0  0  0  0  0  0  0  0  0  0  0  0
   63.0370   32.7740   48.4960 N   0  0  0  0  0  0  0  0  0  0  0  0
   63.7610   32.9790   47.2220 C   0  0  0  0  0  0  0  0  0  0  0  0
   63.0300   34.0030   46.3580 C   0  0  0  0  0  0  0  0  0  0  0  0
   62.6840   31.3520   48.7140 C   0  0  0  0  0  0  0  0  0  0  0  0
   61.7880   30.8230   47.5870 C   0  0  0  0  0  0  0  0  0  0  0  0
   60.3720   31.0290   47.9060 N   0  0  0  0  0  0  0  0  0  0  0  0
   59.4170   31.2150   46.8510 C   0  0  0  0  0  0  0  0  0  0  0  0
   58.6760   30.1060   46.4040 C   0  0  0  0  0  0  0  0  0  0  0  0
   58.6540   28.9020   47.1430 C   0  0  0  0  0  0  0  0  0  0  0  0
   57.8960   27.8150   46.7120 C   0  0  0  0  0  0  0  0  0  0  0  0
   57.1390   27.9120   45.5510 C   0  0  0  0  0  0  0  0  0  0  0  0
   57.1490   29.0890   44.8040 C   0  0  0  0  0  0  0  0  0  0  0  0
   57.9360   30.2000   45.2010 C   0  0  0  0  0  0  0  0  0  0  0  0
   57.9940   31.3540   44.4520 N   0  0  0  0  0  0  0  0  0  0  0  0
   57.5280   31.3420   43.0460 C   0  0  0  0  0  0  0  0  0  0  0  0
   58.4860   32.5180   45.0110 C   0  0  0  0  0  0  0  0  0  0  0  0
   58.2490   33.7710   44.3970 C   0  0  0  0  0  0  0  0  0  0  0  0
   58.7280   34.9450   44.9530 C   0  0  0  0  0  0  0  0  0  0  0  0
   59.4380   34.9190   46.1390 C   0  0  0  0  0  0  0  0  0  0  0  0
   59.7160   33.7070   46.7950 C   0  0  0  0  0  0  0  0  0  0  0  0
   60.3280   33.7620   48.0990 N   0  0  0  0  0  0  0  0  0  0  0  0
   59.6550   34.2290   49.3200 C   0  0  0  0  0  0  0  0  0  0  0  0
   60.2400   33.5630   50.5920 C   0  0  0  0  0  0  0  0  0  0  0  0
   59.3370   32.6090   51.3060 N   0  0  0  0  0  0  0  0  0  0  0  0
   60.1170   31.5540   52.0030 C   0  0  0  0  0  0  0  0  0  0  0  0
   58.3610   31.9840   50.3830 C   0  0  0  0  0  0  0  0  0  0  0  0
   58.5810   33.3710   52.3310 C   0  0  0  0  0  0  0  0  0  0  0  0
   59.2230   32.4800   46.2380 C   0  0  0  0  0  0  0  0  0  0  0  0
   65.3577   32.8432   50.9571 H   0  0  0  0  0  0  0  0  0  0  0  0
   65.2843   31.9186   49.4189 H   0  0  0  0  0  0  0  0  0  0  0  0
   65.8694   33.6169   49.4189 H   0  0  0  0  0  0  0  0  0  0  0  0
   63.1387   33.1963   50.5554 H   0  0  0  0  0  0  0  0  0  0  0  0
   63.7932   34.4804   49.4226 H   0  0  0  0  0  0  0  0  0  0  0  0
   64.7766   33.3433   47.4360 H   0  0  0  0  0  0  0  0  0  0  0  0
   63.8108   32.0230   46.6801 H   0  0  0  0  0  0  0  0  0  0  0  0
   62.5133   34.7268   47.0054 H   0  0  0  0  0  0  0  0  0  0  0  0
   63.7559   34.5319   45.7230 H   0  0  0  0  0  0  0  0  0  0  0  0
   62.2939   33.4883   45.7230 H   0  0  0  0  0  0  0  0  0  0  0  0
   63.6070   30.7546   48.7488 H   0  0  0  0  0  0  0  0  0  0  0  0
   62.1335   31.2716   49.6630 H   0  0  0  0  0  0  0  0  0  0  0  0
   62.0287   31.3556   46.6551 H   0  0  0  0  0  0  0  0  0  0  0  0
   61.9692   29.7444   47.4700 H   0  0  0  0  0  0  0  0  0  0  0  0
   60.0060   30.7210   48.8360 H   0  0  0  0  0  0  0  0  0  0  0  0
   59.2420   28.8217   48.0692 H   0  0  0  0  0  0  0  0  0  0  0  0
   57.8970   26.8798   47.2912 H   0  0  0  0  0  0  0  0  0  0  0  0
   56.5301   27.0577   45.2203 H   0  0  0  0  0  0  0  0  0  0  0  0
   56.5370   29.1571   43.8925 H   0  0  0  0  0  0  0  0  0  0  0  0
   56.4286   31.3137   43.0243 H   0  0  0  0  0  0  0  0  0  0  0  0
   57.8816   32.2495   42.5348 H   0  0  0  0  0  0  0  0  0  0  0  0
   57.9278   30.4539   42.5348 H   0  0  0  0  0  0  0  0  0  0  0  0
   57.6735   33.8129   43.4605 H   0  0  0  0  0  0  0  0  0  0  0  0
   58.5425   35.9044   44.4480 H   0  0  0  0  0  0  0  0  0  0  0  0
   59.7918   35.8638   46.5774 H   0  0  0  0  0  0  0  0  0  0  0  0
   61.2030   33.2070   48.2340 H   0  0  0  0  0  0  0  0  0  0  0  0
   59.7791   35.3191   49.4000 H   0  0  0  0  0  0  0  0  0  0  0  0
   58.5918   33.9556   49.2497 H   0  0  0  0  0  0  0  0  0  0  0  0
   61.1459   33.0128   50.2976 H   0  0  0  0  0  0  0  0  0  0  0  0
   60.4229   34.3848   51.2999 H   0  0  0  0  0  0  0  0  0  0  0  0
   60.0203   31.6849   53.0909 H   0  0  0  0  0  0  0  0  0  0  0  0
   59.7319   30.5641   51.7171 H   0  0  0  0  0  0  0  0  0  0  0  0
   61.1763   31.6320   51.7171 H   0  0  0  0  0  0  0  0  0  0  0  0
   57.5754   31.4809   50.9658 H   0  0  0  0  0  0  0  0  0  0  0  0
   57.9072   32.7599   49.7489 H   0  0  0  0  0  0  0  0  0  0  0  0
   58.8758   31.2472   49.7489 H   0  0  0  0  0  0  0  0  0  0  0  0
   58.8987   33.0508   53.3343 H   0  0  0  0  0  0  0  0  0  0  0  0
   58.7796   34.4460   52.2092 H   0  0  0  0  0  0  0  0  0  0  0  0
   57.5044   33.1809   52.2092 H   0  0  0  0  0  0  0  0  0  0  0  0
  1  2  1  0
  2  3  1  0
  3  4  1  0
  4  5  1  0
  3  6  1  0
  6  7  1  0
  7  8  1  0
  8  9  1  0
  9 10  2  0
 10 11  1  0
 11 12  2  0
 12 13  1  0
 13 14  2  0
 14 15  1  0
 15 16  2  0
 16 17  1  0
 16 18  1  0
 18 19  2  0
 19 20  1  0
 20 21  2  0
 21 22  1  0
 22 23  1  0
 23 24  1  0
 24 25  1  0
 25 26  1  0
 26 27  1  0
 26 28  1  0
 26 29  1  0
 22 30  2  0
 30  9  1  0
 15 10  1  0
 30 18  1  0
  1 31  1  0
  1 32  1  0
  1 33  1  0
  2 34  1  0
  2 35  1  0
  4 36  1  0
  4 37  1  0
  5 38  1  0
  5 39  1  0
  5 40  1  0
  6 41  1  0
  6 42  1  0
  7 43  1  0
  7 44  1  0
  8 45  1  0
 11 46  1  0
 12 47  1  0
 13 48  1  0
 14 49  1  0
 17 50  1  0
 17 51  1  0
 17 52  1  0
 19 53  1  0
 20 54  1  0
 21 55  1  0
 23 56  1  0
 24 57  1  0
 24 58  1  0
 25 59  1  0
 25 60  1  0
 27 61  1  0
 27 62  1  0
 27 63  1  0
 28 64  1  0
 28 65  1  0
 28 66  1  0
 29 67  1  0
 29 68  1  0
 29 69  1  0
M  CHG  2  16   1  26   1
M  END
>  <UniqueID>  (6) 
6

>  <SMILES>  (6) 
CCN(CC)CCNc1c2ccccc2[n+](C)c2cccc(NCC[N+](C)(C)C)c12

>  <Energy>  (6) 
112.72193972322837

>  <Genealogy>  (6) 
CCN(CC)CCNc1c2ccccc2[n+](C)c2cccc(NCC[N+](C)(C)C)c12 (3D coordinates assigned)
CCN(CC)CCNc1c2ccccc2[n+](C)c2cccc(NCC[N+](C)(C)C)c12 (optimized conformer: 112.72193972322837 kcal/mol)

>  <smiles>  (6) 
CCN(CC)CCNc1c2ccccc2[n+](C)c2cccc(NCC[N+](C)(C)C)c12

>  <score_type>  (6) 
oracle

>  <origin>  (6) 
adg

>  <m_score__min__energy>  (6) 
-4.2699999999999996

>  <m_primary>  (6) 
energy

$$$$
6:0
     RDKit          3D

 70 73  0  0  0  0  0  0  0  0999 V2000
   64.5240   33.0320   49.4050 C   0  0  0  0  0  0  0  0  0  0  0  0
   63.1330   33.5920   49.1030 C   0  0  0  0  0  0  0  0  0  0  0  0
   62.5650   33.0020   47.8700 N   0  0  0  0  0  0  0  0  0  0  0  0
   62.9620   33.7900   46.6850 C   0  0  0  0  0  0  0  0  0  0  0  0
   62.9940   31.5940   47.7160 C   0  0  0  0  0  0  0  0  0  0  0  0
   62.0160   30.8350   46.8110 C   0  0  0  0  0  0  0  0  0  0  0  0
   60.6650   30.8390   47.3730 N   0  0  0  0  0  0  0  0  0  0  0  0
   59.5120   30.8860   46.5180 C   0  0  0  0  0  0  0  0  0  0  0  0
   58.9800   29.6880   46.0160 C   0  0  0  0  0  0  0  0  0  0  0  0
   59.3640   28.4440   46.5620 C   0  0  0  0  0  0  0  0  0  0  0  0
   58.7950   27.2590   46.0990 C   0  0  0  0  0  0  0  0  0  0  0  0
   57.8320   27.2960   45.0970 C   0  0  0  0  0  0  0  0  0  0  0  0
   57.4530   28.5140   44.5320 C   0  0  0  0  0  0  0  0  0  0  0  0
   58.0450   29.7320   44.9530 C   0  0  0  0  0  0  0  0  0  0  0  0
   57.7430   30.9370   44.3520 N   0  0  0  0  0  0  0  0  0  0  0  0
   57.0590   30.9530   43.0390 C   0  0  0  0  0  0  0  0  0  0  0  0
   58.0920   32.1250   44.9700 C   0  0  0  0  0  0  0  0  0  0  0  0
   57.5920   33.3680   44.5100 C   0  0  0  0  0  0  0  0  0  0  0  0
   57.9730   34.5630   45.1050 C   0  0  0  0  0  0  0  0  0  0  0  0
   58.8050   34.5590   46.2140 C   0  0  0  0  0  0  0  0  0  0  0  0
   59.2780   33.3540   46.7490 C   0  0  0  0  0  0  0  0  0  0  0  0
   59.9280   33.3830   48.0330 N   0  0  0  0  0  0  0  0  0  0  0  0
   59.7410   34.4590   49.0080 C   0  0  0  0  0  0  0  0  0  0  0  0
   59.6460   33.8970   50.4340 C   0  0  0  0  0  0  0  0  0  0  0  0
   58.8930   32.5500   50.5080 C   0  0  0  0  0  0  0  0  0  0  0  0
   59.7530   31.4220   50.0880 N   0  0  0  0  0  0  0  0  0  0  0  0
   60.9400   31.3300   50.9580 C   0  0  0  0  0  0  0  0  0  0  0  0
   61.8640   30.1880   50.4800 C   0  0  0  0  0  0  0  0  0  0  0  0
   61.2360   29.3410   49.5310 O   0  0  0  0  0  0  0  0  0  0  0  0
   59.9720   28.9370   50.0150 C   0  0  0  0  0  0  0  0  0  0  0  0
   59.0120   30.1400   50.1010 C   0  0  0  0  0  0  0  0  0  0  0  0
   58.9640   32.1210   46.1000 C   0  0  0  0  0  0  0  0  0  0  0  0
   64.6675   32.9742   50.4941 H   0  0  0  0  0  0  0  0  0  0  0  0
   64.6170   32.0264   48.9691 H   0  0  0  0  0  0  0  0  0  0  0  0
   65.2878   33.6927   48.9691 H   0  0  0  0  0  0  0  0  0  0  0  0
   62.4657   33.3654   49.9476 H   0  0  0  0  0  0  0  0  0  0  0  0
   63.2236   34.6782   48.9550 H   0  0  0  0  0  0  0  0  0  0  0  0
   63.4348   34.7284   47.0103 H   0  0  0  0  0  0  0  0  0  0  0  0
   63.6755   33.2100   46.0812 H   0  0  0  0  0  0  0  0  0  0  0  0
   62.0713   34.0182   46.0812 H   0  0  0  0  0  0  0  0  0  0  0  0
   63.9981   31.5677   47.2676 H   0  0  0  0  0  0  0  0  0  0  0  0
   63.0104   31.1149   48.7060 H   0  0  0  0  0  0  0  0  0  0  0  0
   61.9949   31.3161   45.8220 H   0  0  0  0  0  0  0  0  0  0  0  0
   62.3559   29.7922   46.7272 H   0  0  0  0  0  0  0  0  0  0  0  0
   60.5410   30.5110   48.3570 H   0  0  0  0  0  0  0  0  0  0  0  0
   60.1196   28.4097   47.3606 H   0  0  0  0  0  0  0  0  0  0  0  0
   59.1077   26.2948   46.5262 H   0  0  0  0  0  0  0  0  0  0  0  0
   57.3673   26.3618   44.7485 H   0  0  0  0  0  0  0  0  0  0  0  0
   56.6824   28.5299   43.7472 H   0  0  0  0  0  0  0  0  0  0  0  0
   55.9701   30.9785   43.1931 H   0  0  0  0  0  0  0  0  0  0  0  0
   57.3703   31.8441   42.4742 H   0  0  0  0  0  0  0  0  0  0  0  0
   57.3283   30.0483   42.4742 H   0  0  0  0  0  0  0  0  0  0  0  0
   56.8881   33.3867   43.6649 H   0  0  0  0  0  0  0  0  0  0  0  0
   57.6129   35.5179   44.6945 H   0  0  0  0  0  0  0  0  0  0  0  0
   59.0968   35.5123   46.6787 H   0  0  0  0  0  0  0  0  0  0  0  0
   60.4820   32.5470   48.3250 H   0  0  0  0  0  0  0  0  0  0  0  0
   60.5948   35.1502   48.9496 H   0  0  0  0  0  0  0  0  0  0  0  0
   58.8036   34.9852   48.7748 H   0  0  0  0  0  0  0  0  0  0  0  0
   60.6653   33.7495   50.8203 H   0  0  0  0  0  0  0  0  0  0  0  0
   59.0778   34.6227   51.0344 H   0  0  0  0  0  0  0  0  0  0  0  0
   58.5637   32.3815   51.5439 H   0  0  0  0  0  0  0  0  0  0  0  0
   58.0319   32.5991   49.8253 H   0  0  0  0  0  0  0  0  0  0  0  0
   61.4906   32.2816   50.9234 H   0  0  0  0  0  0  0  0  0  0  0  0
   60.6150   31.1217   51.9880 H   0  0  0  0  0  0  0  0  0  0  0  0
   62.7606   30.6290   50.0201 H   0  0  0  0  0  0  0  0  0  0  0  0
   62.1186   29.5753   51.3573 H   0  0  0  0  0  0  0  0  0  0  0  0
   59.5480   28.1846   49.3337 H   0  0  0  0  0  0  0  0  0  0  0  0
   60.0979   28.5121   51.0218 H   0  0  0  0  0  0  0  0  0  0  0  0
   58.3266   30.1136   49.2410 H   0  0  0  0  0  0  0  0  0  0  0  0
   58.4535   30.0715   51.0462 H   0  0  0  0  0  0  0  0  0  0  0  0
  1  2  1  0
  2  3  1  0
  3  4  1  0
  3  5  1  0
  5  6  1  0
  6  7  1  0
  7  8  1  0
  8  9  2  0
  9 10  1  0
 10 11  2  0
 11 12  1  0
 12 13  2  0
 13 14  1  0
 14 15  2  0
 15 16  1  0
 15 17  1  0
 17 18  2  0
 18 19  1  0
 19 20  2  0
 20 21  1  0
 21 22  1  0
 22 23  1  0
 23 24  1  0
 24 25  1  0
 25 26  1  0
 26 27  1  0
 27 28  1  0
 28 29  1  0
 29 30  1  0
 30 31  1  0
 21 32  2  0
 32  8  1  0
 14  9  1  0
 32 17  1  0
 31 26  1  0
  1 33  1  0
  1 34  1  0
  1 35  1  0
  2 36  1  0
  2 37  1  0
  4 38  1  0
  4 39  1  0
  4 40  1  0
  5 41  1  0
  5 42  1  0
  6 43  1  0
  6 44  1  0
  7 45  1  0
 10 46  1  0
 11 47  1  0
 12 48  1  0
 13 49  1  0
 16 50  1  0
 16 51  1  0
 16 52  1  0
 18 53  1  0
 19 54  1  0
 20 55  1  0
 22 56  1  0
 23 57  1  0
 23 58  1  0
 24 59  1  0
 24 60  1  0
 25 61  1  0
 25 62  1  0
 27 63  1  0
 27 64  1  0
 28 65  1  0
 28 66  1  0
 30 67  1  0
 30 68  1  0
 31 69  1  0
 31 70  1  0
M  CHG  1  15   1
M  END
>  <UniqueID>  (7) 
7

>  <SMILES>  (7) 
CCN(C)CCNc1c2ccccc2[n+](C)c2cccc(NCCCN3CCOCC3)c12

>  <Energy>  (7) 
114.39734036106313

>  <Genealogy>  (7) 
CCN(C)CCNc1c2ccccc2[n+](C)c2cccc(NCCCN3CCOCC3)c12 (3D coordinates assigned)
CCN(C)CCNc1c2ccccc2[n+](C)c2cccc(NCCCN3CCOCC3)c12 (nonaromatic ring conformer: 114.39734036106313 kcal/mol)

>  <smiles>  (7) 
CCN(C)CCNc1c2ccccc2[n+](C)c2cccc(NCCCN3CCOCC3)c12

>  <score_type>  (7) 
oracle

>  <origin>  (7) 
adg

>  <m_score__min__energy>  (7) 
-5.9000000000000004

>  <m_primary>  (7) 
energy

$$$$
7:0
     RDKit          3D

 58 60  0  0  0  0  0  0  0  0999 V2000
   60.7350   29.6670   48.4340 C   0  0  0  0  0  0  0  0  0  0  0  0
   59.3570   29.2900   47.9030 C   0  0  0  0  0  0  0  0  0  0  0  0
   58.8820   30.3040   46.9490 N   0  0  0  0  0  0  0  0  0  0  0  0
   58.8180   29.7560   45.5850 C   0  0  0  0  0  0  0  0  0  0  0  0
   57.7990   30.5210   44.7440 C   0  0  0  0  0  0  0  0  0  0  0  0
   57.3720   31.6730   45.4510 O   0  0  0  0  0  0  0  0  0  0  0  0
   57.4960   32.8390   44.6660 C   0  0  0  0  0  0  0  0  0  0  0  0
   57.3940   34.1240   45.5010 C   0  0  0  0  0  0  0  0  0  0  0  0
   58.3880   34.1930   46.6760 C   0  0  0  0  0  0  0  0  0  0  0  0
   58.8970   32.8740   47.1140 N   0  0  0  0  0  0  0  0  0  0  0  0
   59.8580   32.9710   48.2080 C   0  0  0  0  0  0  0  0  0  0  0  0
   61.2300   33.2500   47.9540 C   0  0  0  0  0  0  0  0  0  0  0  0
   62.1320   33.3700   49.0460 C   0  0  0  0  0  0  0  0  0  0  0  0
   61.6590   33.3320   50.3420 N   0  0  0  0  0  0  0  0  0  0  0  0
   62.5310   33.7570   51.4640 C   0  0  0  0  0  0  0  0  0  0  0  0
   60.3830   32.8900   50.6040 C   0  0  0  0  0  0  0  0  0  0  0  0
   59.9710   32.5810   51.9280 C   0  0  0  0  0  0  0  0  0  0  0  0
   58.6750   32.1600   52.2010 C   0  0  0  0  0  0  0  0  0  0  0  0
   57.7620   32.0180   51.1680 C   0  0  0  0  0  0  0  0  0  0  0  0
   58.1420   32.2790   49.8550 C   0  0  0  0  0  0  0  0  0  0  0  0
   59.4540   32.7170   49.5450 C   0  0  0  0  0  0  0  0  0  0  0  0
   63.6190   33.5990   48.7870 C   0  0  0  0  0  0  0  0  0  0  0  0
   64.0630   33.1690   47.3950 C   0  0  0  0  0  0  0  0  0  0  0  0
   63.1720   33.8430   46.3710 C   0  0  0  0  0  0  0  0  0  0  0  0
   61.7370   33.3390   46.5160 C   0  0  0  0  0  0  0  0  0  0  0  0
   60.7180   29.6623   49.5339 H   0  0  0  0  0  0  0  0  0  0  0  0
   61.4778   28.9391   48.0757 H   0  0  0  0  0  0  0  0  0  0  0  0
   61.0038   30.6717   48.0757 H   0  0  0  0  0  0  0  0  0  0  0  0
   59.4176   28.3155   47.3964 H   0  0  0  0  0  0  0  0  0  0  0  0
   58.6521   29.2338   48.7456 H   0  0  0  0  0  0  0  0  0  0  0  0
   57.9070   30.5690   47.2270 H   0  0  0  0  0  0  0  0  0  0  0  0
   59.8092   29.8393   45.1154 H   0  0  0  0  0  0  0  0  0  0  0  0
   58.5101   28.7015   45.6413 H   0  0  0  0  0  0  0  0  0  0  0  0
   58.2622   30.8248   43.7936 H   0  0  0  0  0  0  0  0  0  0  0  0
   56.9329   29.8743   44.5397 H   0  0  0  0  0  0  0  0  0  0  0  0
   58.4736   32.8226   44.1619 H   0  0  0  0  0  0  0  0  0  0  0  0
   56.6677   32.8442   43.9422 H   0  0  0  0  0  0  0  0  0  0  0  0
   57.5824   34.9818   44.8387 H   0  0  0  0  0  0  0  0  0  0  0  0
   56.3850   34.1377   45.9388 H   0  0  0  0  0  0  0  0  0  0  0  0
   59.2454   34.8093   46.3677 H   0  0  0  0  0  0  0  0  0  0  0  0
   57.8420   34.6220   47.5291 H   0  0  0  0  0  0  0  0  0  0  0  0
   59.2540   32.3520   46.2880 H   0  0  0  0  0  0  0  0  0  0  0  0
   58.0950   32.2860   47.4250 H   0  0  0  0  0  0  0  0  0  0  0  0
   62.0413   33.5183   52.4197 H   0  0  0  0  0  0  0  0  0  0  0  0
   63.4927   33.2266   51.4022 H   0  0  0  0  0  0  0  0  0  0  0  0
   62.7057   34.8413   51.4022 H   0  0  0  0  0  0  0  0  0  0  0  0
   60.6919   32.6769   52.7533 H   0  0  0  0  0  0  0  0  0  0  0  0
   58.3741   31.9397   53.2359 H   0  0  0  0  0  0  0  0  0  0  0  0
   56.7327   31.6977   51.3869 H   0  0  0  0  0  0  0  0  0  0  0  0
   57.4117   32.1431   49.0437 H   0  0  0  0  0  0  0  0  0  0  0  0
   63.8326   34.6715   48.9055 H   0  0  0  0  0  0  0  0  0  0  0  0
   64.1736   32.9827   49.5099 H   0  0  0  0  0  0  0  0  0  0  0  0
   65.1084   33.4692   47.2307 H   0  0  0  0  0  0  0  0  0  0  0  0
   63.9855   32.0760   47.2978 H   0  0  0  0  0  0  0  0  0  0  0  0
   63.1937   34.9314   46.5291 H   0  0  0  0  0  0  0  0  0  0  0  0
   63.5382   33.6058   45.3612 H   0  0  0  0  0  0  0  0  0  0  0  0
   61.0768   34.0229   45.9624 H   0  0  0  0  0  0  0  0  0  0  0  0
   61.7288   32.3123   46.1214 H   0  0  0  0  0  0  0  0  0  0  0  0
  1  2  1  0
  2  3  1  0
  3  4  1  0
  4  5  1  0
  5  6  1  0
  6  7  1  0
  7  8  1  0
  8  9  1  0
  9 10  1  0
 10 11  1  0
 11 12  2  0
 12 13  1  0
 13 14  2  0
 14 15  1  0
 14 16  1  0
 16 17  2  0
 17 18  1  0
 18 19  2  0
 19 20  1  0
 20 21  2  0
 13 22  1  0
 22 23  1  0
 23 24  1  0
 24 25  1  0
 21 11  1  0
 25 12  1  0
 21 16  1  0
  1 26  1  0
  1 27  1  0
  1 28  1  0
  2 29  1  0
  2 30  1  0
  3 31  1  0
  4 32  1  0
  4 33  1  0
  5 34  1  0
  5 35  1  0
  7 36  1  0
  7 37  1  0
  8 38  1  0
  8 39  1  0
  9 40  1  0
  9 41  1  0
 10 42  1  0
 10 43  1  0
 15 44  1  0
 15 45  1  0
 15 46  1  0
 17 47  1  0
 18 48  1  0
 19 49  1  0
 20 50  1  0
 22 51  1  0
 22 52  1  0
 23 53  1  0
 23 54  1  0
 24 55  1  0
 24 56  1  0
 25 57  1  0
 25 58  1  0
M  CHG  2  10   1  14   1
M  END
>  <UniqueID>  (8) 
8

>  <SMILES>  (8) 
CCNCCOCCC[NH2+]c1c2c([n+](C)c3ccccc13)CCCC2

>  <Energy>  (8) 
77.3190189001527

>  <Genealogy>  (8) 
CCNCCOCCC[NH2+]c1c2c([n+](C)c3ccccc13)CCCC2 (protonated)
CCNCCOCCC[NH2+]c1c2c([n+](C)c3ccccc13)CCCC2 (3D coordinates assigned)
CCNCCOCCC[NH2+]c1c2c([n+](C)c3ccccc13)CCCC2 (nonaromatic ring conformer: 77.3190189001527 kcal/mol)

>  <smiles>  (8) 
CCNCCOCCCNc1c2c([n+](C)c3ccccc13)CCCC2

>  <score_type>  (8) 
oracle

>  <origin>  (8) 
adg

>  <m_score__min__energy>  (8) 
-3.5

>  <m_primary>  (8) 
energy

$$$$
8:0
     RDKit          3D

 62 64  0  0  0  0  0  0  0  0999 V2000
   58.0680   32.8990   44.0660 C   0  0  0  0  0  0  0  0  0  0  0  0
   58.9090   33.8670   44.9130 C   0  0  0  0  0  0  0  0  0  0  0  0
   58.7480   33.6860   46.3750 N   0  0  0  0  0  0  0  0  0  0  0  0
   57.3470   33.3970   46.7400 C   0  0  0  0  0  0  0  0  0  0  0  0
   59.3020   34.8240   47.1420 C   0  0  0  0  0  0  0  0  0  0  0  0
   60.6560   34.4710   47.7560 C   0  0  0  0  0  0  0  0  0  0  0  0
   61.5030   33.9910   46.7310 O   0  0  0  0  0  0  0  0  0  0  0  0
   62.8660   34.1570   47.0770 C   0  0  0  0  0  0  0  0  0  0  0  0
   63.7010   32.9150   46.7280 C   0  0  0  0  0  0  0  0  0  0  0  0
   63.5010   31.8240   47.6890 N   0  0  0  0  0  0  0  0  0  0  0  0
   62.2770   31.6530   48.4290 C   0  0  0  0  0  0  0  0  0  0  0  0
   62.1630   32.1950   49.7210 C   0  0  0  0  0  0  0  0  0  0  0  0
   63.2560   32.8530   50.3250 C   0  0  0  0  0  0  0  0  0  0  0  0
   63.1240   33.4610   51.5690 C   0  0  0  0  0  0  0  0  0  0  0  0
   61.9000   33.4390   52.2270 C   0  0  0  0  0  0  0  0  0  0  0  0
   60.8080   32.7860   51.6560 C   0  0  0  0  0  0  0  0  0  0  0  0
   60.9220   32.1180   50.4090 C   0  0  0  0  0  0  0  0  0  0  0  0
   59.8580   31.4350   49.8500 N   0  0  0  0  0  0  0  0  0  0  0  0
   58.6590   31.1390   50.6650 C   0  0  0  0  0  0  0  0  0  0  0  0
   59.9260   31.0020   48.5380 C   0  0  0  0  0  0  0  0  0  0  0  0
   58.7760   30.5430   47.8450 C   0  0  0  0  0  0  0  0  0  0  0  0
   58.8550   30.0520   46.5360 C   0  0  0  0  0  0  0  0  0  0  0  0
   57.6490   29.6300   45.8700 N   0  0  0  0  0  0  0  0  0  0  0  0
   57.4990   29.5140   44.4190 C   0  0  0  0  0  0  0  0  0  0  0  0
   56.0530   29.7830   44.0020 C   0  0  0  0  0  0  0  0  0  0  0  0
   55.1860   29.3020   44.9890 O   0  0  0  0  0  0  0  0  0  0  0  0
   60.1070   29.9760   45.9130 C   0  0  0  0  0  0  0  0  0  0  0  0
   61.2430   30.4600   46.5550 C   0  0  0  0  0  0  0  0  0  0  0  0
   61.1570   31.0410   47.8360 C   0  0  0  0  0  0  0  0  0  0  0  0
   57.4925   32.2366   44.7293 H   0  0  0  0  0  0  0  0  0  0  0  0
   57.3768   33.4728   43.4312 H   0  0  0  0  0  0  0  0  0  0  0  0
   58.7328   32.2947   43.4312 H   0  0  0  0  0  0  0  0  0  0  0  0
   59.9689   33.7159   44.6606 H   0  0  0  0  0  0  0  0  0  0  0  0
   58.5577   34.8825   44.6779 H   0  0  0  0  0  0  0  0  0  0  0  0
   57.2502   33.3770   47.8355 H   0  0  0  0  0  0  0  0  0  0  0  0
   56.6920   34.1789   46.3282 H   0  0  0  0  0  0  0  0  0  0  0  0
   57.0549   32.4197   46.3282 H   0  0  0  0  0  0  0  0  0  0  0  0
   59.4273   35.6839   46.4676 H   0  0  0  0  0  0  0  0  0  0  0  0
   58.6037   35.0676   47.9563 H   0  0  0  0  0  0  0  0  0  0  0  0
   61.1000   35.3667   48.2149 H   0  0  0  0  0  0  0  0  0  0  0  0
   60.5287   33.7006   48.5307 H   0  0  0  0  0  0  0  0  0  0  0  0
   63.2691   35.0219   46.5297 H   0  0  0  0  0  0  0  0  0  0  0  0
   62.9252   34.3132   48.1642 H   0  0  0  0  0  0  0  0  0  0  0  0
   63.4108   32.5629   45.7271 H   0  0  0  0  0  0  0  0  0  0  0  0
   64.7624   33.2022   46.7595 H   0  0  0  0  0  0  0  0  0  0  0  0
   64.3100   31.2060   47.9180 H   0  0  0  0  0  0  0  0  0  0  0  0
   64.2248   32.8854   49.8051 H   0  0  0  0  0  0  0  0  0  0  0  0
   63.9884   33.9593   52.0321 H   0  0  0  0  0  0  0  0  0  0  0  0
   61.7922   33.9382   53.2012 H   0  0  0  0  0  0  0  0  0  0  0  0
   59.8415   32.7887   52.1813 H   0  0  0  0  0  0  0  0  0  0  0  0
   58.9165   31.2026   51.7326 H   0  0  0  0  0  0  0  0  0  0  0  0
   57.8693   31.8692   50.4342 H   0  0  0  0  0  0  0  0  0  0  0  0
   58.2999   30.1252   50.4342 H   0  0  0  0  0  0  0  0  0  0  0  0
   57.7984   30.5736   48.3484 H   0  0  0  0  0  0  0  0  0  0  0  0
   56.8010   29.4350   46.4520 H   0  0  0  0  0  0  0  0  0  0  0  0
   58.1583   30.2451   43.9282 H   0  0  0  0  0  0  0  0  0  0  0  0
   57.7701   28.4919   44.1160 H   0  0  0  0  0  0  0  0  0  0  0  0
   55.9026   30.8655   43.8776 H   0  0  0  0  0  0  0  0  0  0  0  0
   55.8447   29.2722   43.0503 H   0  0  0  0  0  0  0  0  0  0  0  0
   54.3870   28.9580   44.5100 H   0  0  0  0  0  0  0  0  0  0  0  0
   60.1930   29.5313   44.9106 H   0  0  0  0  0  0  0  0  0  0  0  0
   62.2207   30.3881   46.0560 H   0  0  0  0  0  0  0  0  0  0  0  0
  1  2  1  0
  2  3  1  0
  3  4  1  0
  3  5  1  0
  5  6  1  0
  6  7  1  0
  7  8  1  0
  8  9  1  0
  9 10  1  0
 10 11  1  0
 11 12  2  0
 12 13  1  0
 13 14  2  0
 14 15  1  0
 15 16  2  0
 16 17  1  0
 17 18  2  0
 18 19  1  0
 18 20  1  0
 20 21  2  0
 21 22  1  0
 22 23  1  0
 23 24  1  0
 24 25  1  0
 25 26  1  0
 22 27  2  0
 27 28  1  0
 28 29  2  0
 29 11  1  0
 17 12  1  0
 29 20  1  0
  1 30  1  0
  1 31  1  0
  1 32  1  0
  2 33  1  0
  2 34  1  0
  4 35  1  0
  4 36  1  0
  4 37  1  0
  5 38  1  0
  5 39  1  0
  6 40  1  0
  6 41  1  0
  8 42  1  0
  8 43  1  0
  9 44  1  0
  9 45  1  0
 10 46  1  0
 13 47  1  0
 14 48  1  0
 15 49  1  0
 16 50  1  0
 19 51  1  0
 19 52  1  0
 19 53  1  0
 21 54  1  0
 23 55  1  0
 24 56  1  0
 24 57  1  0
 25 58  1  0
 25 59  1  0
 26 60  1  0
 27 61  1  0
 28 62  1  0
M  CHG  1  18   1
M  END
>  <UniqueID>  (9) 
9

>  <SMILES>  (9) 
CCN(C)CCOCCNc1c2ccccc2[n+](C)c2cc(NCCO)ccc12

>  <Energy>  (9) 
81.15473817545205

>  <Genealogy>  (9) 
CCN(C)CCOCCNc1c2ccccc2[n+](C)c2cc(NCCO)ccc12 (3D coordinates assigned)
CCN(C)CCOCCNc1c2ccccc2[n+](C)c2cc(NCCO)ccc12 (optimized conformer: 81.15473817545205 kcal/mol)

>  <smiles>  (9) 
CCN(C)CCOCCNc1c2ccccc2[n+](C)c2cc(NCCO)ccc12

>  <score_type>  (9) 
oracle

>  <origin>  (9) 
adg

>  <m_score__min__energy>  (9) 
-6.2699999999999996

>  <m_primary>  (9) 
energy

$$$$
9:0
     RDKit          3D

 75 77  0  0  0  0  0  0  0  0999 V2000
   63.2990   34.3420   50.5170 C   0  0  0  0  0  0  0  0  0  0  0  0
   62.6850   34.0910   49.1410 C   0  0  0  0  0  0  0  0  0  0  0  0
   62.6740   32.6560   48.7750 N   0  0  0  0  0  0  0  0  0  0  0  0
   62.9640   32.4980   47.3230 C   0  0  0  0  0  0  0  0  0  0  0  0
   63.2710   33.8160   46.5900 C   0  0  0  0  0  0  0  0  0  0  0  0
   63.5510   31.8560   49.6600 C   0  0  0  0  0  0  0  0  0  0  0  0
   62.7810   30.9220   50.6250 C   0  0  0  0  0  0  0  0  0  0  0  0
   61.6300   30.3440   50.0480 O   0  0  0  0  0  0  0  0  0  0  0  0
   61.4220   29.0390   50.5550 C   0  0  0  0  0  0  0  0  0  0  0  0
   60.6740   28.1980   49.5270 C   0  0  0  0  0  0  0  0  0  0  0  0
   59.5930   29.0170   48.7920 C   0  0  0  0  0  0  0  0  0  0  0  0
   60.1180   30.0220   47.8600 N   0  0  0  0  0  0  0  0  0  0  0  0
   59.3630   30.6990   46.8320 C   0  0  0  0  0  0  0  0  0  0  0  0
   58.8900   29.9490   45.7330 C   0  0  0  0  0  0  0  0  0  0  0  0
   59.0710   28.5480   45.6820 C   0  0  0  0  0  0  0  0  0  0  0  0
   58.4380   27.7860   44.7040 C   0  0  0  0  0  0  0  0  0  0  0  0
   57.6330   28.4020   43.7630 C   0  0  0  0  0  0  0  0  0  0  0  0
   57.5160   29.7870   43.7370 C   0  0  0  0  0  0  0  0  0  0  0  0
   58.1940   30.6020   44.6880 C   0  0  0  0  0  0  0  0  0  0  0  0
   58.2340   31.9800   44.5750 N   0  0  0  0  0  0  0  0  0  0  0  0
   57.7590   32.6540   43.3400 C   0  0  0  0  0  0  0  0  0  0  0  0
   58.7310   32.7470   45.6230 C   0  0  0  0  0  0  0  0  0  0  0  0
   58.7390   34.1680   45.5550 C   0  0  0  0  0  0  0  0  0  0  0  0
   59.3690   34.9310   46.5220 C   0  0  0  0  0  0  0  0  0  0  0  0
   59.8600   34.3290   47.6660 C   0  0  0  0  0  0  0  0  0  0  0  0
   59.7190   32.9570   47.8540 C   0  0  0  0  0  0  0  0  0  0  0  0
   59.7550   32.5060   49.2140 N   0  0  0  0  0  0  0  0  0  0  0  0
   58.4730   32.3770   49.9080 C   0  0  0  0  0  0  0  0  0  0  0  0
   58.6430   32.0500   51.3990 C   0  0  0  0  0  0  0  0  0  0  0  0
   60.0540   32.1260   51.8310 N   0  0  0  0  0  0  0  0  0  0  0  0
   60.4300   33.5070   52.1880 C   0  0  0  0  0  0  0  0  0  0  0  0
   60.2450   31.2540   53.0030 C   0  0  0  0  0  0  0  0  0  0  0  0
   59.2700   32.1200   46.7920 C   0  0  0  0  0  0  0  0  0  0  0  0
   62.5816   34.0487   51.2976 H   0  0  0  0  0  0  0  0  0  0  0  0
   64.2186   33.7476   50.6221 H   0  0  0  0  0  0  0  0  0  0  0  0
   63.5389   35.4104   50.6221 H   0  0  0  0  0  0  0  0  0  0  0  0
   61.6493   34.4615   49.1445 H   0  0  0  0  0  0  0  0  0  0  0  0
   63.3025   34.6190   48.3995 H   0  0  0  0  0  0  0  0  0  0  0  0
   63.8343   31.8338   47.2161 H   0  0  0  0  0  0  0  0  0  0  0  0
   62.0529   32.0874   46.8633 H   0  0  0  0  0  0  0  0  0  0  0  0
   63.4562   34.6111   47.3273 H   0  0  0  0  0  0  0  0  0  0  0  0
   64.1628   33.6857   45.9594 H   0  0  0  0  0  0  0  0  0  0  0  0
   62.4134   34.0932   45.9594 H   0  0  0  0  0  0  0  0  0  0  0  0
   64.2082   31.2383   49.0304 H   0  0  0  0  0  0  0  0  0  0  0  0
   64.1120   32.5679   50.2832 H   0  0  0  0  0  0  0  0  0  0  0  0
   63.4565   30.1131   50.9401 H   0  0  0  0  0  0  0  0  0  0  0  0
   62.4447   31.5374   51.4724 H   0  0  0  0  0  0  0  0  0  0  0  0
   62.3943   28.5720   50.7709 H   0  0  0  0  0  0  0  0  0  0  0  0
   60.8261   29.0989   51.4777 H   0  0  0  0  0  0  0  0  0  0  0  0
   61.3940   27.8154   48.7886 H   0  0  0  0  0  0  0  0  0  0  0  0
   60.1755   27.3737   50.0580 H   0  0  0  0  0  0  0  0  0  0  0  0
   58.9606   28.3190   48.2238 H   0  0  0  0  0  0  0  0  0  0  0  0
   59.0387   29.5681   49.5659 H   0  0  0  0  0  0  0  0  0  0  0  0
   61.1200   30.3040   47.9480 H   0  0  0  0  0  0  0  0  0  0  0  0
   59.7183   28.0551   46.4223 H   0  0  0  0  0  0  0  0  0  0  0  0
   58.5779   26.6952   44.6796 H   0  0  0  0  0  0  0  0  0  0  0  0
   57.0824   27.7927   43.0312 H   0  0  0  0  0  0  0  0  0  0  0  0
   56.8886   30.2618   42.9683 H   0  0  0  0  0  0  0  0  0  0  0  0
   57.1448   33.5254   43.6109 H   0  0  0  0  0  0  0  0  0  0  0  0
   58.6243   32.9853   42.7471 H   0  0  0  0  0  0  0  0  0  0  0  0
   57.1560   31.9505   42.7471 H   0  0  0  0  0  0  0  0  0  0  0  0
   58.2341   34.6702   44.7167 H   0  0  0  0  0  0  0  0  0  0  0  0
   59.4793   36.0163   46.3808 H   0  0  0  0  0  0  0  0  0  0  0  0
   60.3645   34.9373   48.4312 H   0  0  0  0  0  0  0  0  0  0  0  0
   60.6750   32.2970   49.6760 H   0  0  0  0  0  0  0  0  0  0  0  0
   57.9243   33.3258   49.8150 H   0  0  0  0  0  0  0  0  0  0  0  0
   57.9231   31.5453   49.4435 H   0  0  0  0  0  0  0  0  0  0  0  0
   58.0532   32.7676   51.9883 H   0  0  0  0  0  0  0  0  0  0  0  0
   58.2963   31.0185   51.5596 H   0  0  0  0  0  0  0  0  0  0  0  0
   60.4575   33.6081   53.2830 H   0  0  0  0  0  0  0  0  0  0  0  0
   61.4230   33.7354   51.7736 H   0  0  0  0  0  0  0  0  0  0  0  0
   59.6898   34.2073   51.7736 H   0  0  0  0  0  0  0  0  0  0  0  0
   60.1160   31.8429   53.9231 H   0  0  0  0  0  0  0  0  0  0  0  0
   59.5035   30.4418   52.9805 H   0  0  0  0  0  0  0  0  0  0  0  0
   61.2581   30.8262   52.9805 H   0  0  0  0  0  0  0  0  0  0  0  0
  1  2  1  0
  2  3  1  0
  3  4  1  0
  4  5  1  0
  3  6  1  0
  6  7  1  0
  7  8  1  0
  8  9  1  0
  9 10  1  0
 10 11  1  0
 11 12  1  0
 12 13  1  0
 13 14  2  0
 14 15  1  0
 15 16  2  0
 16 17  1  0
 17 18  2  0
 18 19  1  0
 19 20  2  0
 20 21  1  0
 20 22  1  0
 22 23  2  0
 23 24  1  0
 24 25  2  0
 25 26  1  0
 26 27  1  0
 27 28  1  0
 28 29  1  0
 29 30  1  0
 30 31  1  0
 30 32  1  0
 26 33  2  0
 33 13  1  0
 19 14  1  0
 33 22  1  0
  1 34  1  0
  1 35  1  0
  1 36  1  0
  2 37  1  0
  2 38  1  0
  4 39  1  0
  4 40  1  0
  5 41  1  0
  5 42  1  0
  5 43  1  0
  6 44  1  0
  6 45  1  0
  7 46  1  0
  7 47  1  0
  9 48  1  0
  9 49  1  0
 10 50  1  0
 10 51  1  0
 11 52  1  0
 11 53  1  0
 12 54  1  0
 15 55  1  0
 16 56  1  0
 17 57  1  0
 18 58  1  0
 21 59  1  0
 21 60  1  0
 21 61  1  0
 23 62  1  0
 24 63  1  0
 25 64  1  0
 27 65  1  0
 28 66  1  0
 28 67  1  0
 29 68  1  0
 29 69  1  0
 31 70  1  0
 31 71  1  0
 31 72  1  0
 32 73  1  0
 32 74  1  0
 32 75  1  0
M  CHG  1  20   1
M  END
>  <UniqueID>  (10) 
10

>  <SMILES>  (10) 
CCN(CC)CCOCCCNc1c2ccccc2[n+](C)c2cccc(NCCN(C)C)c12

>  <Energy>  (10) 
130.02324688288357

>  <Genealogy>  (10) 
CCN(CC)CCOCCCNc1c2ccccc2[n+](C)c2cccc(NCCN(C)C)c12 (3D coordinates assigned)
CCN(CC)CCOCCCNc1c2ccccc2[n+](C)c2cccc(NCCN(C)C)c12 (optimized conformer: 130.02324688288357 kcal/mol)

>  <smiles>  (10) 
CCN(CC)CCOCCCNc1c2ccccc2[n+](C)c2cccc(NCCN(C)C)c12

>  <score_type>  (10) 
oracle

>  <origin>  (10) 
adg

>  <m_score__min__energy>  (10) 
-5.7400000000000002

>  <m_primary>  (10) 
energy

$$$$
10:0
     RDKit          3D

 63 65  0  0  0  0  0  0  0  0999 V2000
   59.3270   27.0840   47.5660 C   0  0  0  0  0  0  0  0  0  0  0  0
   58.4940   28.3600   47.4560 C   0  0  0  0  0  0  0  0  0  0  0  0
   59.1650   29.4810   48.1560 N   0  0  0  0  0  0  0  0  0  0  0  0
   58.9800   29.3690   49.6150 C   0  0  0  0  0  0  0  0  0  0  0  0
   60.6090   29.5360   47.8330 C   0  0  0  0  0  0  0  0  0  0  0  0
   60.8250   29.7900   46.3400 C   0  0  0  0  0  0  0  0  0  0  0  0
   59.7540   30.5600   45.8320 O   0  0  0  0  0  0  0  0  0  0  0  0
   59.2010   29.9470   44.6810 C   0  0  0  0  0  0  0  0  0  0  0  0
   57.6850   30.1270   44.6800 C   0  0  0  0  0  0  0  0  0  0  0  0
   57.3360   31.1910   45.5500 O   0  0  0  0  0  0  0  0  0  0  0  0
   57.6030   32.3950   44.9440 N   0  0  0  0  0  0  0  0  0  0  0  0
   57.1300   33.4860   45.8010 C   0  0  0  0  0  0  0  0  0  0  0  0
   57.7440   33.3620   47.2010 C   0  0  0  0  0  0  0  0  0  0  0  0
   58.8310   32.3620   47.2580 N   0  0  0  0  0  0  0  0  0  0  0  0
   59.8040   32.6570   48.3040 C   0  0  0  0  0  0  0  0  0  0  0  0
   59.4220   32.5830   49.6740 C   0  0  0  0  0  0  0  0  0  0  0  0
   58.0840   32.3110   50.0620 C   0  0  0  0  0  0  0  0  0  0  0  0
   57.7130   32.2820   51.4030 C   0  0  0  0  0  0  0  0  0  0  0  0
   58.6520   32.5350   52.3910 C   0  0  0  0  0  0  0  0  0  0  0  0
   59.9750   32.7940   52.0450 C   0  0  0  0  0  0  0  0  0  0  0  0
   60.3970   32.7880   50.6890 C   0  0  0  0  0  0  0  0  0  0  0  0
   61.7200   32.9850   50.3530 N   0  0  0  0  0  0  0  0  0  0  0  0
   62.7700   32.8900   51.3960 C   0  0  0  0  0  0  0  0  0  0  0  0
   62.0700   33.2630   49.0480 C   0  0  0  0  0  0  0  0  0  0  0  0
   63.3560   33.7710   48.7280 C   0  0  0  0  0  0  0  0  0  0  0  0
   63.7410   33.9820   47.4090 C   0  0  0  0  0  0  0  0  0  0  0  0
   62.8600   33.7110   46.3770 C   0  0  0  0  0  0  0  0  0  0  0  0
   61.5750   33.2530   46.6560 C   0  0  0  0  0  0  0  0  0  0  0  0
   61.1380   33.0520   47.9920 C   0  0  0  0  0  0  0  0  0  0  0  0
   59.4861   26.8403   48.6268 H   0  0  0  0  0  0  0  0  0  0  0  0
   58.7953   26.2555   47.0752 H   0  0  0  0  0  0  0  0  0  0  0  0
   60.2994   27.2375   47.0752 H   0  0  0  0  0  0  0  0  0  0  0  0
   58.3683   28.6197   46.3945 H   0  0  0  0  0  0  0  0  0  0  0  0
   57.5134   28.1856   47.9229 H   0  0  0  0  0  0  0  0  0  0  0  0
   59.8116   29.8725   50.1298 H   0  0  0  0  0  0  0  0  0  0  0  0
   58.0301   29.8438   49.9017 H   0  0  0  0  0  0  0  0  0  0  0  0
   58.9604   28.3072   49.9017 H   0  0  0  0  0  0  0  0  0  0  0  0
   61.0760   30.3493   48.4080 H   0  0  0  0  0  0  0  0  0  0  0  0
   61.0648   28.5697   48.0947 H   0  0  0  0  0  0  0  0  0  0  0  0
   61.7695   30.3346   46.1938 H   0  0  0  0  0  0  0  0  0  0  0  0
   60.8693   28.8284   45.8077 H   0  0  0  0  0  0  0  0  0  0  0  0
   59.6251   30.4128   43.7792 H   0  0  0  0  0  0  0  0  0  0  0  0
   59.4403   28.8734   44.6897 H   0  0  0  0  0  0  0  0  0  0  0  0
   57.3438   30.3597   43.6605 H   0  0  0  0  0  0  0  0  0  0  0  0
   57.2048   29.1990   45.0238 H   0  0  0  0  0  0  0  0  0  0  0  0
   57.1940   32.4810   43.9800 H   0  0  0  0  0  0  0  0  0  0  0  0
   57.4242   34.4493   45.3589 H   0  0  0  0  0  0  0  0  0  0  0  0
   56.0345   33.4300   45.8826 H   0  0  0  0  0  0  0  0  0  0  0  0
   58.1500   34.3409   47.4957 H   0  0  0  0  0  0  0  0  0  0  0  0
   56.9493   33.0299   47.8853 H   0  0  0  0  0  0  0  0  0  0  0  0
   58.4170   31.4180   47.4290 H   0  0  0  0  0  0  0  0  0  0  0  0
   59.2690   32.2390   46.3210 H   0  0  0  0  0  0  0  0  0  0  0  0
   57.3261   32.1195   49.2881 H   0  0  0  0  0  0  0  0  0  0  0  0
   56.6722   32.0578   51.6797 H   0  0  0  0  0  0  0  0  0  0  0  0
   58.3513   32.5310   53.4491 H   0  0  0  0  0  0  0  0  0  0  0  0
   60.7078   33.0074   52.8371 H   0  0  0  0  0  0  0  0  0  0  0  0
   62.3032   32.9322   52.3911 H   0  0  0  0  0  0  0  0  0  0  0  0
   63.3119   31.9392   51.2852 H   0  0  0  0  0  0  0  0  0  0  0  0
   63.4737   33.7281   51.2852 H   0  0  0  0  0  0  0  0  0  0  0  0
   64.0618   34.0023   49.5394 H   0  0  0  0  0  0  0  0  0  0  0  0
   64.7476   34.3650   47.1853 H   0  0  0  0  0  0  0  0  0  0  0  0
   63.1756   33.8578   45.3335 H   0  0  0  0  0  0  0  0  0  0  0  0
   60.8851   33.0428   45.8254 H   0  0  0  0  0  0  0  0  0  0  0  0
  1  2  1  0
  2  3  1  0
  3  4  1  0
  3  5  1  0
  5  6  1  0
  6  7  1  0
  7  8  1  0
  8  9  1  0
  9 10  1  0
 10 11  1  0
 11 12  1  0
 12 13  1  0
 13 14  1  0
 14 15  1  0
 15 16  2  0
 16 17  1  0
 17 18  2  0
 18 19  1  0
 19 20  2  0
 20 21  1  0
 21 22  2  0
 22 23  1  0
 22 24  1  0
 24 25  2  0
 25 26  1  0
 26 27  2  0
 27 28  1  0
 28 29  2  0
 29 15  1  0
 21 16  1  0
 29 24  1  0
  1 30  1  0
  1 31  1  0
  1 32  1  0
  2 33  1  0
  2 34  1  0
  4 35  1  0
  4 36  1  0
  4 37  1  0
  5 38  1  0
  5 39  1  0
  6 40  1  0
  6 41  1  0
  8 42  1  0
  8 43  1  0
  9 44  1  0
  9 45  1  0
 11 46  1  0
 12 47  1  0
 12 48  1  0
 13 49  1  0
 13 50  1  0
 14 51  1  0
 14 52  1  0
 17 53  1  0
 18 54  1  0
 19 55  1  0
 20 56  1  0
 23 57  1  0
 23 58  1  0
 23 59  1  0
 25 60  1  0
 26 61  1  0
 27 62  1  0
 28 63  1  0
M  CHG  2  14   1  22   1
M  END
>  <UniqueID>  (11) 
11

>  <SMILES>  (11) 
CCN(C)CCOCCONCC[NH2+]c1c2ccccc2[n+](C)c2ccccc12

>  <Energy>  (11) 
94.9592935165698

>  <Genealogy>  (11) 
CCN(C)CCOCCONCC[NH2+]c1c2ccccc2[n+](C)c2ccccc12 (protonated)
CCN(C)CCOCCONCC[NH2+]c1c2ccccc2[n+](C)c2ccccc12 (3D coordinates assigned)
CCN(C)CCOCCONCC[NH2+]c1c2ccccc2[n+](C)c2ccccc12 (optimized conformer: 94.9592935165698 kcal/mol)

>  <smiles>  (11) 
CCN(C)CCOCCONCCNc1c2ccccc2[n+](C)c2ccccc12

>  <score_type>  (11) 
oracle

>  <origin>  (11) 
adg

>  <m_score__min__energy>  (11) 
-3.77

>  <m_primary>  (11) 
energy

$$$$
11:0
     RDKit          3D

 69 72  0  0  0  0  0  0  0  0999 V2000
   56.2860   29.7810   42.6380 C   0  0  0  0  0  0  0  0  0  0  0  0
   57.1440   29.3570   43.7880 C   0  0  0  0  0  0  0  0  0  0  0  0
   57.2690   28.0790   44.1980 N   0  0  0  0  0  0  0  0  0  0  0  0
   58.0580   28.0460   45.2610 N   0  0  0  0  0  0  0  0  0  0  0  0
   58.4370   26.8190   45.9550 C   0  0  0  0  0  0  0  0  0  0  0  0
   58.4320   29.3080   45.5630 C   0  0  0  0  0  0  0  0  0  0  0  0
   59.3000   29.6710   46.6530 N   0  0  0  0  0  0  0  0  0  0  0  0
   60.6800   30.0760   46.3930 C   0  0  0  0  0  0  0  0  0  0  0  0
   58.8830   29.4420   48.0350 C   0  0  0  0  0  0  0  0  0  0  0  0
   57.8670   30.1820   44.6430 C   0  0  0  0  0  0  0  0  0  0  0  0
   57.9480   31.6880   44.6180 C   0  0  0  0  0  0  0  0  0  0  0  0
   56.6390   32.3270   44.8430 N   0  0  0  0  0  0  0  0  0  0  0  0
   56.7060   33.4750   45.7600 C   0  0  0  0  0  0  0  0  0  0  0  0
   58.0190   33.5280   46.5030 C   0  0  0  0  0  0  0  0  0  0  0  0
   58.1600   32.8480   47.7230 C   0  0  0  0  0  0  0  0  0  0  0  0
   59.3800   32.8640   48.4050 C   0  0  0  0  0  0  0  0  0  0  0  0
   60.4750   33.5720   47.8840 C   0  0  0  0  0  0  0  0  0  0  0  0
   61.7890   33.5250   48.5610 C   0  0  0  0  0  0  0  0  0  0  0  0
   62.9420   33.2080   47.8250 C   0  0  0  0  0  0  0  0  0  0  0  0
   64.1880   33.1580   48.4530 C   0  0  0  0  0  0  0  0  0  0  0  0
   64.2960   33.4280   49.8170 C   0  0  0  0  0  0  0  0  0  0  0  0
   63.1600   33.7560   50.5590 C   0  0  0  0  0  0  0  0  0  0  0  0
   61.8970   33.8170   49.9370 C   0  0  0  0  0  0  0  0  0  0  0  0
   60.7320   34.1710   50.6390 O   0  0  0  0  0  0  0  0  0  0  0  0
   60.2450   33.5660   51.8380 C   0  0  0  0  0  0  0  0  0  0  0  0
   58.7340   33.8760   52.0080 C   0  0  0  0  0  0  0  0  0  0  0  0
   57.9650   32.7060   52.6340 C   0  0  0  0  0  0  0  0  0  0  0  0
   58.0690   31.4340   51.7700 C   0  0  0  0  0  0  0  0  0  0  0  0
   59.4210   31.2980   51.0400 C   0  0  0  0  0  0  0  0  0  0  0  0
   60.5380   32.0500   51.7700 C   0  0  0  0  0  0  0  0  0  0  0  0
   60.3140   34.3050   46.6970 C   0  0  0  0  0  0  0  0  0  0  0  0
   59.0930   34.2950   46.0200 C   0  0  0  0  0  0  0  0  0  0  0  0
   55.3611   30.2381   43.0196 H   0  0  0  0  0  0  0  0  0  0  0  0
   56.8310   30.5135   42.0245 H   0  0  0  0  0  0  0  0  0  0  0  0
   56.0351   28.9031   42.0245 H   0  0  0  0  0  0  0  0  0  0  0  0
   56.8240   27.2430   43.7550 H   0  0  0  0  0  0  0  0  0  0  0  0
   58.3867   26.9819   47.0417 H   0  0  0  0  0  0  0  0  0  0  0  0
   57.7468   26.0102   45.6731 H   0  0  0  0  0  0  0  0  0  0  0  0
   59.4631   26.5403   45.6731 H   0  0  0  0  0  0  0  0  0  0  0  0
   61.2032   30.2296   47.3483 H   0  0  0  0  0  0  0  0  0  0  0  0
   61.1906   29.2898   45.8175 H   0  0  0  0  0  0  0  0  0  0  0  0
   60.6848   31.0134   45.8175 H   0  0  0  0  0  0  0  0  0  0  0  0
   59.6379   29.8566   48.7193 H   0  0  0  0  0  0  0  0  0  0  0  0
   57.9163   29.9358   48.2129 H   0  0  0  0  0  0  0  0  0  0  0  0
   58.7809   28.3613   48.2129 H   0  0  0  0  0  0  0  0  0  0  0  0
   58.6414   32.0172   45.4059 H   0  0  0  0  0  0  0  0  0  0  0  0
   58.2992   31.9875   43.6195 H   0  0  0  0  0  0  0  0  0  0  0  0
   55.9710   31.6230   45.2360 H   0  0  0  0  0  0  0  0  0  0  0  0
   56.5890   34.4015   45.1786 H   0  0  0  0  0  0  0  0  0  0  0  0
   55.9001   33.3663   46.5007 H   0  0  0  0  0  0  0  0  0  0  0  0
   57.3051   32.2992   48.1449 H   0  0  0  0  0  0  0  0  0  0  0  0
   59.4829   32.3190   49.3550 H   0  0  0  0  0  0  0  0  0  0  0  0
   62.8632   32.9980   46.7481 H   0  0  0  0  0  0  0  0  0  0  0  0
   65.0863   32.9051   47.8707 H   0  0  0  0  0  0  0  0  0  0  0  0
   65.2786   33.3824   50.3093 H   0  0  0  0  0  0  0  0  0  0  0  0
   63.2512   33.9679   51.6345 H   0  0  0  0  0  0  0  0  0  0  0  0
   60.7525   33.9754   52.7239 H   0  0  0  0  0  0  0  0  0  0  0  0
   58.6249   34.7579   52.6563 H   0  0  0  0  0  0  0  0  0  0  0  0
   58.3137   34.0572   51.0077 H   0  0  0  0  0  0  0  0  0  0  0  0
   58.3821   32.4964   53.6301 H   0  0  0  0  0  0  0  0  0  0  0  0
   56.9044   32.9890   52.7048 H   0  0  0  0  0  0  0  0  0  0  0  0
   57.9349   30.5580   52.4216 H   0  0  0  0  0  0  0  0  0  0  0  0
   57.2884   31.5013   50.9979 H   0  0  0  0  0  0  0  0  0  0  0  0
   59.6884   30.2326   50.9807 H   0  0  0  0  0  0  0  0  0  0  0  0
   59.3136   31.7344   50.0360 H   0  0  0  0  0  0  0  0  0  0  0  0
   60.6255   31.6560   52.7933 H   0  0  0  0  0  0  0  0  0  0  0  0
   61.4757   31.9028   51.2140 H   0  0  0  0  0  0  0  0  0  0  0  0
   61.1553   34.8908   46.2981 H   0  0  0  0  0  0  0  0  0  0  0  0
   58.9710   34.8908   45.1034 H   0  0  0  0  0  0  0  0  0  0  0  0
  1  2  1  0
  2  3  2  0
  3  4  1  0
  4  5  1  0
  4  6  1  0
  6  7  1  0
  7  8  1  0
  7  9  1  0
  6 10  2  0
 10 11  1  0
 11 12  1  0
 12 13  1  0
 13 14  1  0
 14 15  2  0
 15 16  1  0
 16 17  2  0
 17 18  1  0
 18 19  2  0
 19 20  1  0
 20 21  2  0
 21 22  1  0
 22 23  2  0
 23 24  1  0
 24 25  1  0
 25 26  1  0
 26 27  1  0
 27 28  1  0
 28 29  1  0
 29 30  1  0
 17 31  1  0
 31 32  2  0
 10  2  1  0
 32 14  1  0
 23 18  1  0
 30 25  1  0
  1 33  1  0
  1 34  1  0
  1 35  1  0
  3 36  1  0
  5 37  1  0
  5 38  1  0
  5 39  1  0
  8 40  1  0
  8 41  1  0
  8 42  1  0
  9 43  1  0
  9 44  1  0
  9 45  1  0
 11 46  1  0
 11 47  1  0
 12 48  1  0
 13 49  1  0
 13 50  1  0
 15 51  1  0
 16 52  1  0
 19 53  1  0
 20 54  1  0
 21 55  1  0
 22 56  1  0
 25 57  1  0
 26 58  1  0
 26 59  1  0
 27 60  1  0
 27 61  1  0
 28 62  1  0
 28 63  1  0
 29 64  1  0
 29 65  1  0
 30 66  1  0
 30 67  1  0
 31 68  1  0
 32 69  1  0
M  CHG  1   3   1
M  END
>  <UniqueID>  (12) 
12

>  <SMILES>  (12) 
Cc1[nH+]n(C)c(N(C)C)c1CNCc1ccc(-c2ccccc2OC2CCCCC2)cc1

>  <Energy>  (12) 
108.9482675733188

>  <Genealogy>  (12) 
Cc1[nH+]n(C)c(N(C)C)c1CNCc1ccc(-c2ccccc2OC2CCCCC2)cc1 (protonated)
Cc1[nH+]n(C)c(N(C)C)c1CNCc1ccc(-c2ccccc2OC2CCCCC2)cc1 (3D coordinates assigned)
Cc1[nH+]n(C)c(N(C)C)c1CNCc1ccc(-c2ccccc2OC2CCCCC2)cc1 (nonaromatic ring conformer: 108.9482675733188 kcal/mol)

>  <smiles>  (12) 
Cc1nn(C)c(N(C)C)c1CNCc1ccc(-c2ccccc2OC2CCCCC2)cc1

>  <score_type>  (12) 
oracle

>  <origin>  (12) 
adg

>  <m_score__min__energy>  (12) 
-8.4900000000000002

>  <m_primary>  (12) 
energy

$$$$
12:0
     RDKit          3D

 44 46  0  0  0  0  0  0  0  0999 V2000
   57.6900   25.4280   44.4930 C   0  0  0  0  0  0  0  0  0  0  0  0
   58.0650   26.7880   44.9170 N   0  0  0  0  0  0  0  0  0  0  0  0
   59.3490   26.7510   45.6570 C   0  0  0  0  0  0  0  0  0  0  0  0
   59.2310   27.3460   47.0870 C   0  0  0  0  0  0  0  0  0  0  0  0
   59.2150   28.8250   47.1580 N   0  0  0  0  0  0  0  0  0  0  0  0
   58.9250   29.3930   48.4820 C   0  0  0  0  0  0  0  0  0  0  0  0
   59.7310   30.6720   48.5950 C   0  0  0  0  0  0  0  0  0  0  0  0
   60.9270   30.4360   47.7000 C   0  0  0  0  0  0  0  0  0  0  0  0
   60.4220   29.4800   46.6310 C   0  0  0  0  0  0  0  0  0  0  0  0
   58.0970   27.7100   43.7540 C   0  0  0  0  0  0  0  0  0  0  0  0
   57.6050   29.0640   44.1670 C   0  0  0  0  0  0  0  0  0  0  0  0
   56.2880   29.4350   44.3190 C   0  0  0  0  0  0  0  0  0  0  0  0
   56.2760   30.6880   44.7000 O   0  0  0  0  0  0  0  0  0  0  0  0
   57.5290   31.0780   44.7880 C   0  0  0  0  0  0  0  0  0  0  0  0
   57.9360   32.4350   45.1660 C   0  0  0  0  0  0  0  0  0  0  0  0
   57.6710   33.6080   44.4850 C   0  0  0  0  0  0  0  0  0  0  0  0
   58.2310   34.6380   45.1490 N   0  0  0  0  0  0  0  0  0  0  0  0
   58.8470   34.1400   46.2120 N   0  0  0  0  0  0  0  0  0  0  0  0
   59.5210   34.9550   47.2130 C   0  0  0  0  0  0  0  0  0  0  0  0
   58.6800   32.8070   46.2640 C   0  0  0  0  0  0  0  0  0  0  0  0
   58.4060   30.1010   44.4790 N   0  0  0  0  0  0  0  0  0  0  0  0
   57.5173   24.8017   45.3807 H   0  0  0  0  0  0  0  0  0  0  0  0
   56.7705   25.4721   43.8909 H   0  0  0  0  0  0  0  0  0  0  0  0
   58.5022   24.9946   43.8909 H   0  0  0  0  0  0  0  0  0  0  0  0
   59.6798   25.7049   45.7367 H   0  0  0  0  0  0  0  0  0  0  0  0
   60.0728   27.3637   45.0996 H   0  0  0  0  0  0  0  0  0  0  0  0
   58.2970   26.9743   47.5337 H   0  0  0  0  0  0  0  0  0  0  0  0
   60.1352   27.0255   47.6252 H   0  0  0  0  0  0  0  0  0  0  0  0
   57.8510   29.6127   48.5730 H   0  0  0  0  0  0  0  0  0  0  0  0
   59.1911   28.6864   49.2819 H   0  0  0  0  0  0  0  0  0  0  0  0
   59.1454   31.5346   48.2444 H   0  0  0  0  0  0  0  0  0  0  0  0
   60.0187   30.8989   49.6322 H   0  0  0  0  0  0  0  0  0  0  0  0
   61.2664   31.3798   47.2482 H   0  0  0  0  0  0  0  0  0  0  0  0
   61.7874   30.0290   48.2515 H   0  0  0  0  0  0  0  0  0  0  0  0
   60.1773   30.0368   45.7145 H   0  0  0  0  0  0  0  0  0  0  0  0
   61.1913   28.7336   46.3841 H   0  0  0  0  0  0  0  0  0  0  0  0
   59.1290   27.7939   43.3826 H   0  0  0  0  0  0  0  0  0  0  0  0
   57.4483   27.3145   42.9586 H   0  0  0  0  0  0  0  0  0  0  0  0
   55.4080   28.7967   44.1514 H   0  0  0  0  0  0  0  0  0  0  0  0
   57.0954   33.6879   43.5510 H   0  0  0  0  0  0  0  0  0  0  0  0
   59.2364   34.6108   48.2183 H   0  0  0  0  0  0  0  0  0  0  0  0
   60.6100   34.8625   47.0884 H   0  0  0  0  0  0  0  0  0  0  0  0
   59.2257   36.0073   47.0884 H   0  0  0  0  0  0  0  0  0  0  0  0
   59.0678   32.1344   47.0432 H   0  0  0  0  0  0  0  0  0  0  0  0
  1  2  1  0
  2  3  1  0
  3  4  1  0
  4  5  1  0
  5  6  1  0
  6  7  1  0
  7  8  1  0
  8  9  1  0
  2 10  1  0
 10 11  1  0
 11 12  2  0
 12 13  1  0
 13 14  1  0
 14 15  1  0
 15 16  1  0
 16 17  2  0
 17 18  1  0
 18 19  1  0
 18 20  1  0
 14 21  2  0
  9  5  1  0
 21 11  1  0
 20 15  2  0
  1 22  1  0
  1 23  1  0
  1 24  1  0
  3 25  1  0
  3 26  1  0
  4 27  1  0
  4 28  1  0
  6 29  1  0
  6 30  1  0
  7 31  1  0
  7 32  1  0
  8 33  1  0
  8 34  1  0
  9 35  1  0
  9 36  1  0
 10 37  1  0
 10 38  1  0
 12 39  1  0
 16 40  1  0
 19 41  1  0
 19 42  1  0
 19 43  1  0
 20 44  1  0
M  END
>  <UniqueID>  (13) 
13

>  <SMILES>  (13) 
CN(CCN1CCCC1)Cc1coc(-c2cnn(C)c2)n1

>  <Energy>  (13) 
110.27232025138476

>  <Genealogy>  (13) 
CN(CCN1CCCC1)Cc1coc(-c2cnn(C)c2)n1 (3D coordinates assigned)
CN(CCN1CCCC1)Cc1coc(-c2cnn(C)c2)n1 (nonaromatic ring conformer: 110.27232025138476 kcal/mol)

>  <smiles>  (13) 
CN(CCN1CCCC1)Cc1coc(-c2cnn(C)c2)n1

>  <score_type>  (13) 
oracle

>  <origin>  (13) 
adg

>  <m_score__min__energy>  (13) 
-6.3499999999999996

>  <m_primary>  (13) 
energy

$$$$
13:0
     RDKit          3D

 57 59  0  0  0  0  0  0  0  0999 V2000
   63.3430   33.8210   46.4010 C   0  0  0  0  0  0  0  0  0  0  0  0
   64.1290   33.4060   47.6430 C   0  0  0  0  0  0  0  0  0  0  0  0
   63.2310   33.0500   48.7650 N   0  0  0  0  0  0  0  0  0  0  0  0
   63.8830   32.1570   49.7490 C   0  0  0  0  0  0  0  0  0  0  0  0
   65.3350   32.5750   49.9340 C   0  0  0  0  0  0  0  0  0  0  0  0
   62.4710   34.1750   49.3720 C   0  0  0  0  0  0  0  0  0  0  0  0
   61.1130   33.8060   50.0100 C   0  0  0  0  0  0  0  0  0  0  0  0
   60.1850   33.0140   49.0750 C   0  0  0  0  0  0  0  0  0  0  0  0
   60.9310   32.3170   48.0100 N   0  0  0  0  0  0  0  0  0  0  0  0
   60.0380   31.6200   47.0940 C   0  0  0  0  0  0  0  0  0  0  0  0
   59.3770   32.3400   46.0630 C   0  0  0  0  0  0  0  0  0  0  0  0
   58.5020   31.6700   45.1870 C   0  0  0  0  0  0  0  0  0  0  0  0
   58.4040   30.3000   45.2060 N   0  0  0  0  0  0  0  0  0  0  0  0
   57.7500   29.5980   44.0800 C   0  0  0  0  0  0  0  0  0  0  0  0
   58.9290   29.5850   46.2610 C   0  0  0  0  0  0  0  0  0  0  0  0
   58.6220   28.2110   46.4380 C   0  0  0  0  0  0  0  0  0  0  0  0
   59.1950   27.4680   47.4650 C   0  0  0  0  0  0  0  0  0  0  0  0
   60.0800   28.0690   48.3450 C   0  0  0  0  0  0  0  0  0  0  0  0
   60.3740   29.4240   48.2280 C   0  0  0  0  0  0  0  0  0  0  0  0
   59.7870   30.2210   47.2090 C   0  0  0  0  0  0  0  0  0  0  0  0
   57.7070   32.5240   44.2070 C   0  0  0  0  0  0  0  0  0  0  0  0
   57.2030   33.8050   44.8880 C   0  0  0  0  0  0  0  0  0  0  0  0
   58.3090   34.5880   45.6250 C   0  0  0  0  0  0  0  0  0  0  0  0
   59.6260   33.8130   45.7700 C   0  0  0  0  0  0  0  0  0  0  0  0
   62.4085   34.3144   46.7064 H   0  0  0  0  0  0  0  0  0  0  0  0
   63.9465   34.5180   45.8010 H   0  0  0  0  0  0  0  0  0  0  0  0
   63.1078   32.9295   45.8010 H   0  0  0  0  0  0  0  0  0  0  0  0
   64.7530   32.5346   47.3954 H   0  0  0  0  0  0  0  0  0  0  0  0
   64.7494   34.2583   47.9571 H   0  0  0  0  0  0  0  0  0  0  0  0
   63.3563   32.2269   50.7122 H   0  0  0  0  0  0  0  0  0  0  0  0
   63.8450   31.1204   49.3831 H   0  0  0  0  0  0  0  0  0  0  0  0
   65.5636   32.6408   51.0080 H   0  0  0  0  0  0  0  0  0  0  0  0
   65.9938   31.8300   49.4639 H   0  0  0  0  0  0  0  0  0  0  0  0
   65.4968   33.5562   49.4639 H   0  0  0  0  0  0  0  0  0  0  0  0
   63.1004   34.6232   50.1549 H   0  0  0  0  0  0  0  0  0  0  0  0
   62.2342   34.8563   48.5415 H   0  0  0  0  0  0  0  0  0  0  0  0
   61.3044   33.1975   50.9061 H   0  0  0  0  0  0  0  0  0  0  0  0
   60.6014   34.7509   50.2452 H   0  0  0  0  0  0  0  0  0  0  0  0
   59.6357   32.2687   49.6689 H   0  0  0  0  0  0  0  0  0  0  0  0
   59.4990   33.7278   48.5956 H   0  0  0  0  0  0  0  0  0  0  0  0
   61.5870   32.9700   47.5380 H   0  0  0  0  0  0  0  0  0  0  0  0
   61.5900   31.6310   48.4420 H   0  0  0  0  0  0  0  0  0  0  0  0
   57.0498   28.8464   44.4735 H   0  0  0  0  0  0  0  0  0  0  0  0
   57.1998   30.3250   43.4646 H   0  0  0  0  0  0  0  0  0  0  0  0
   58.5141   29.1006   43.4646 H   0  0  0  0  0  0  0  0  0  0  0  0
   57.9165   27.7235   45.7491 H   0  0  0  0  0  0  0  0  0  0  0  0
   58.9452   26.4028   47.5783 H   0  0  0  0  0  0  0  0  0  0  0  0
   60.5523   27.4726   49.1395 H   0  0  0  0  0  0  0  0  0  0  0  0
   61.0746   29.8871   48.9384 H   0  0  0  0  0  0  0  0  0  0  0  0
   58.3526   32.7960   43.3589 H   0  0  0  0  0  0  0  0  0  0  0  0
   56.8398   31.9452   43.8564 H   0  0  0  0  0  0  0  0  0  0  0  0
   56.7670   34.4595   44.1188 H   0  0  0  0  0  0  0  0  0  0  0  0
   56.4649   33.4996   45.6443 H   0  0  0  0  0  0  0  0  0  0  0  0
   58.5109   35.5130   45.0649 H   0  0  0  0  0  0  0  0  0  0  0  0
   57.9391   34.7836   46.6423 H   0  0  0  0  0  0  0  0  0  0  0  0
   60.1967   33.8997   44.8337 H   0  0  0  0  0  0  0  0  0  0  0  0
   60.1882   34.2423   46.6124 H   0  0  0  0  0  0  0  0  0  0  0  0
  1  2  1  0
  2  3  1  0
  3  4  1  0
  4  5  1  0
  3  6  1  0
  6  7  1  0
  7  8  1  0
  8  9  1  0
  9 10  1  0
 10 11  2  0
 11 12  1  0
 12 13  2  0
 13 14  1  0
 13 15  1  0
 15 16  2  0
 16 17  1  0
 17 18  2  0
 18 19  1  0
 19 20  2  0
 12 21  1  0
 21 22  1  0
 22 23  1  0
 23 24  1  0
 20 10  1  0
 24 11  1  0
 20 15  1  0
  1 25  1  0
  1 26  1  0
  1 27  1  0
  2 28  1  0
  2 29  1  0
  4 30  1  0
  4 31  1  0
  5 32  1  0
  5 33  1  0
  5 34  1  0
  6 35  1  0
  6 36  1  0
  7 37  1  0
  7 38  1  0
  8 39  1  0
  8 40  1  0
  9 41  1  0
  9 42  1  0
 14 43  1  0
 14 44  1  0
 14 45  1  0
 16 46  1  0
 17 47  1  0
 18 48  1  0
 19 49  1  0
 21 50  1  0
 21 51  1  0
 22 52  1  0
 22 53  1  0
 23 54  1  0
 23 55  1  0
 24 56  1  0
 24 57  1  0
M  CHG  2   9   1  13   1
M  END
>  <UniqueID>  (14) 
14

>  <SMILES>  (14) 
CCN(CC)CCC[NH2+]c1c2c([n+](C)c3ccccc13)CCCC2

>  <Energy>  (14) 
86.78300419692243

>  <Genealogy>  (14) 
CCN(CC)CCC[NH2+]c1c2c([n+](C)c3ccccc13)CCCC2 (protonated)
CCN(CC)CCC[NH2+]c1c2c([n+](C)c3ccccc13)CCCC2 (3D coordinates assigned)
CCN(CC)CCC[NH2+]c1c2c([n+](C)c3ccccc13)CCCC2 (nonaromatic ring conformer: 86.78300419692243 kcal/mol)

>  <smiles>  (14) 
CCN(CC)CCCNc1c2c([n+](C)c3ccccc13)CCCC2

>  <score_type>  (14) 
oracle

>  <origin>  (14) 
adg

>  <m_score__min__energy>  (14) 
-4.2699999999999996

>  <m_primary>  (14) 
energy

$$$$
14:0
     RDKit          3D

 34 35  0  0  0  0  0  0  0  0999 V2000
   56.6190   29.7460   43.6140 C   0  0  0  0  0  0  0  0  0  0  0  0
   57.3420   30.6510   44.5660 C   0  0  0  0  0  0  0  0  0  0  0  0
   57.1700   32.0110   44.5030 C   0  0  0  0  0  0  0  0  0  0  0  0
   57.8650   32.7790   45.4070 C   0  0  0  0  0  0  0  0  0  0  0  0
   57.6930   34.2510   45.3560 C   0  0  0  0  0  0  0  0  0  0  0  0
   56.3550   34.5370   45.0450 O   0  0  0  0  0  0  0  0  0  0  0  0
   58.7030   32.2610   46.3460 C   0  0  0  0  0  0  0  0  0  0  0  0
   58.8600   30.8950   46.3910 C   0  0  0  0  0  0  0  0  0  0  0  0
   58.1880   30.0380   45.5050 C   0  0  0  0  0  0  0  0  0  0  0  0
   58.3280   28.7690   45.5410 O   0  0  0  0  0  0  0  0  0  0  0  0
   58.4700   27.4720   45.5790 C   0  0  0  0  0  0  0  0  0  0  0  0
   57.7470   26.8250   46.7430 C   0  0  0  0  0  0  0  0  0  0  0  0
   56.9560   25.7130   46.2910 N   0  0  0  0  0  0  0  0  0  0  0  0
   57.4800   24.4700   46.1230 C   0  0  0  0  0  0  0  0  0  0  0  0
   58.8210   24.1020   46.3500 O   0  0  0  0  0  0  0  0  0  0  0  0
   56.5030   23.5970   45.6920 C   0  0  0  0  0  0  0  0  0  0  0  0
   55.3420   24.3300   45.5900 C   0  0  0  0  0  0  0  0  0  0  0  0
   55.6540   25.6330   45.9670 C   0  0  0  0  0  0  0  0  0  0  0  0
   54.7720   26.7050   46.0100 O   0  0  0  0  0  0  0  0  0  0  0  0
   56.0312   29.0102   44.1824 H   0  0  0  0  0  0  0  0  0  0  0  0
   55.9460   30.3425   42.9806 H   0  0  0  0  0  0  0  0  0  0  0  0
   57.3494   29.2213   42.9806 H   0  0  0  0  0  0  0  0  0  0  0  0
   56.5022   32.4687   43.7583 H   0  0  0  0  0  0  0  0  0  0  0  0
   57.9474   34.6875   46.3331 H   0  0  0  0  0  0  0  0  0  0  0  0
   58.3558   34.6795   44.5897 H   0  0  0  0  0  0  0  0  0  0  0  0
   56.0410   35.3020   45.6110 H   0  0  0  0  0  0  0  0  0  0  0  0
   59.2393   32.9157   47.0487 H   0  0  0  0  0  0  0  0  0  0  0  0
   59.5332   30.4606   47.1448 H   0  0  0  0  0  0  0  0  0  0  0  0
   58.0742   27.0496   44.6436 H   0  0  0  0  0  0  0  0  0  0  0  0
   59.5429   27.2647   45.7053 H   0  0  0  0  0  0  0  0  0  0  0  0
   58.4866   26.4689   47.4753 H   0  0  0  0  0  0  0  0  0  0  0  0
   57.0819   27.5690   47.2057 H   0  0  0  0  0  0  0  0  0  0  0  0
   56.6270   22.5262   45.4729 H   0  0  0  0  0  0  0  0  0  0  0  0
   54.3572   23.9575   45.2717 H   0  0  0  0  0  0  0  0  0  0  0  0
  1  2  1  0
  2  3  2  0
  3  4  1  0
  4  5  1  0
  5  6  1  0
  4  7  2  0
  7  8  1  0
  8  9  2  0
  9 10  1  0
 10 11  1  0
 11 12  1  0
 12 13  1  0
 13 14  1  0
 14 15  1  0
 14 16  2  0
 16 17  1  0
 17 18  2  0
 18 19  1  0
  9  2  1  0
 18 13  1  0
  1 20  1  0
  1 21  1  0
  1 22  1  0
  3 23  1  0
  5 24  1  0
  5 25  1  0
  6 26  1  0
  7 27  1  0
  8 28  1  0
 11 29  1  0
 11 30  1  0
 12 31  1  0
 12 32  1  0
 16 33  1  0
 17 34  1  0
M  CHG  2  15  -1  19  -1
M  END
>  <UniqueID>  (15) 
15

>  <SMILES>  (15) 
Cc1cc(CO)ccc1OCCn1c([O-])ccc1[O-]

>  <Energy>  (15) 
144.6093349084758

>  <Genealogy>  (15) 
Cc1cc(CO)ccc1OCCn1c([O-])ccc1[O-] (protonated)
Cc1cc(CO)ccc1OCCn1c([O-])ccc1[O-] (3D coordinates assigned)
Cc1cc(CO)ccc1OCCn1c([O-])ccc1[O-] (optimized conformer: 144.6093349084758 kcal/mol)

>  <smiles>  (15) 
Cc1cc(CO)ccc1OCCn1c(O)ccc1O

>  <score_type>  (15) 
oracle

>  <origin>  (15) 
adg

>  <m_score__min__energy>  (15) 
-10.93

>  <m_primary>  (15) 
energy

$$$$
15:0
     RDKit          3D

 49 51  0  0  0  0  0  0  0  0999 V2000
   58.2830   33.7850   45.3850 C   0  0  0  0  0  0  0  0  0  0  0  0
   58.9320   32.4360   45.6200 C   0  0  0  0  0  0  0  0  0  0  0  0
   59.9200   32.3250   46.6380 C   0  0  0  0  0  0  0  0  0  0  0  0
   60.6270   33.4850   47.1480 N   0  0  0  0  0  0  0  0  0  0  0  0
   62.0280   33.4960   46.6860 C   0  0  0  0  0  0  0  0  0  0  0  0
   63.0090   33.7970   47.8460 C   0  0  0  0  0  0  0  0  0  0  0  0
   62.5190   33.3870   49.1790 N   0  0  0  0  0  0  0  0  0  0  0  0
   63.0080   34.2420   50.2710 C   0  0  0  0  0  0  0  0  0  0  0  0
   62.7520   31.9600   49.4620 C   0  0  0  0  0  0  0  0  0  0  0  0
   60.2390   31.0590   47.1430 C   0  0  0  0  0  0  0  0  0  0  0  0
   59.5830   29.9240   46.6870 C   0  0  0  0  0  0  0  0  0  0  0  0
   58.6880   29.9970   45.6040 C   0  0  0  0  0  0  0  0  0  0  0  0
   57.9990   28.8510   45.1370 C   0  0  0  0  0  0  0  0  0  0  0  0
   58.1710   27.5110   45.7400 C   0  0  0  0  0  0  0  0  0  0  0  0
   57.0580   26.7710   46.1640 C   0  0  0  0  0  0  0  0  0  0  0  0
   57.2670   25.5020   46.7000 C   0  0  0  0  0  0  0  0  0  0  0  0
   58.5270   25.0030   46.7890 N   0  0  0  0  0  0  0  0  0  0  0  0
   59.5930   25.7190   46.3550 C   0  0  0  0  0  0  0  0  0  0  0  0
   59.4110   26.9600   45.8320 N   0  0  0  0  0  0  0  0  0  0  0  0
   57.1080   28.9850   44.0710 C   0  0  0  0  0  0  0  0  0  0  0  0
   57.0220   30.1860   43.3810 C   0  0  0  0  0  0  0  0  0  0  0  0
   56.2810   30.2430   42.3650 O   0  0  0  0  0  0  0  0  0  0  0  0
   57.7630   31.2740   43.7700 N   0  0  0  0  0  0  0  0  0  0  0  0
   57.9390   32.3560   42.7800 C   0  0  0  0  0  0  0  0  0  0  0  0
   58.4530   31.2520   44.9720 C   0  0  0  0  0  0  0  0  0  0  0  0
   58.0562   34.2563   46.3527 H   0  0  0  0  0  0  0  0  0  0  0  0
   58.9702   34.4283   44.8159 H   0  0  0  0  0  0  0  0  0  0  0  0
   57.3515   33.6496   44.8159 H   0  0  0  0  0  0  0  0  0  0  0  0
   60.5960   33.5060   48.1940 H   0  0  0  0  0  0  0  0  0  0  0  0
   60.1550   34.3630   46.8510 H   0  0  0  0  0  0  0  0  0  0  0  0
   62.2709   32.5115   46.2595 H   0  0  0  0  0  0  0  0  0  0  0  0
   62.1348   34.2887   45.9309 H   0  0  0  0  0  0  0  0  0  0  0  0
   63.9513   33.2656   47.6469 H   0  0  0  0  0  0  0  0  0  0  0  0
   63.1329   34.8895   47.8783 H   0  0  0  0  0  0  0  0  0  0  0  0
   62.7476   33.7867   51.2379 H   0  0  0  0  0  0  0  0  0  0  0  0
   64.1007   34.3435   50.1960 H   0  0  0  0  0  0  0  0  0  0  0  0
   62.5414   35.2353   50.1960 H   0  0  0  0  0  0  0  0  0  0  0  0
   62.7779   31.8015   50.5502 H   0  0  0  0  0  0  0  0  0  0  0  0
   61.9396   31.3618   49.0235 H   0  0  0  0  0  0  0  0  0  0  0  0
   63.7124   31.6513   49.0235 H   0  0  0  0  0  0  0  0  0  0  0  0
   61.0200   30.9624   47.9115 H   0  0  0  0  0  0  0  0  0  0  0  0
   59.7649   28.9566   47.1779 H   0  0  0  0  0  0  0  0  0  0  0  0
   56.0421   27.1833   46.0754 H   0  0  0  0  0  0  0  0  0  0  0  0
   56.4123   24.9049   47.0507 H   0  0  0  0  0  0  0  0  0  0  0  0
   60.6057   25.2954   46.4262 H   0  0  0  0  0  0  0  0  0  0  0  0
   56.4725   28.1366   43.7771 H   0  0  0  0  0  0  0  0  0  0  0  0
   58.0943   33.3107   43.3039 H   0  0  0  0  0  0  0  0  0  0  0  0
   58.8134   32.1374   42.1494 H   0  0  0  0  0  0  0  0  0  0  0  0
   57.0404   32.4257   42.1494 H   0  0  0  0  0  0  0  0  0  0  0  0
  1  2  1  0
  2  3  2  0
  3  4  1  0
  4  5  1  0
  5  6  1  0
  6  7  1  0
  7  8  1  0
  7  9  1  0
  3 10  1  0
 10 11  2  0
 11 12  1  0
 12 13  1  0
 13 14  1  0
 14 15  2  0
 15 16  1  0
 16 17  2  0
 17 18  1  0
 18 19  2  0
 13 20  2  0
 20 21  1  0
 21 22  2  0
 21 23  1  0
 23 24  1  0
 23 25  1  0
 25  2  1  0
 25 12  2  0
 19 14  1  0
  1 26  1  0
  1 27  1  0
  1 28  1  0
  4 29  1  0
  4 30  1  0
  5 31  1  0
  5 32  1  0
  6 33  1  0
  6 34  1  0
  8 35  1  0
  8 36  1  0
  8 37  1  0
  9 38  1  0
  9 39  1  0
  9 40  1  0
 10 41  1  0
 11 42  1  0
 15 43  1  0
 16 44  1  0
 18 45  1  0
 20 46  1  0
 24 47  1  0
 24 48  1  0
 24 49  1  0
M  CHG  1   4   1
M  END
>  <UniqueID>  (16) 
16

>  <SMILES>  (16) 
Cc1c([NH2+]CCN(C)C)ccc2c(-c3ccncn3)cc(=O)n(C)c12

>  <Energy>  (16) 
91.91170711034884

>  <Genealogy>  (16) 
Cc1c([NH2+]CCN(C)C)ccc2c(-c3ccncn3)cc(=O)n(C)c12 (protonated)
Cc1c([NH2+]CCN(C)C)ccc2c(-c3ccncn3)cc(=O)n(C)c12 (3D coordinates assigned)
Cc1c([NH2+]CCN(C)C)ccc2c(-c3ccncn3)cc(=O)n(C)c12 (optimized conformer: 91.91170711034884 kcal/mol)

>  <smiles>  (16) 
Cc1c(NCCN(C)C)ccc2c(-c3ccncn3)cc(=O)n(C)c12

>  <score_type>  (16) 
oracle

>  <origin>  (16) 
adg

>  <m_score__min__energy>  (16) 
-5.6600000000000001

>  <m_primary>  (16) 
energy

$$$$
16:0
     RDKit          3D

 29 31  0  0  0  0  0  0  0  0999 V2000
   58.7690   29.0300   45.9460 C   0  0  0  0  0  0  0  0  0  0  0  0
   57.9110   30.1470   45.5730 N   0  0  0  0  0  0  0  0  0  0  0  0
   56.7990   30.0400   44.8590 N   0  0  0  0  0  0  0  0  0  0  0  0
   56.2810   31.2410   44.6160 N   0  0  0  0  0  0  0  0  0  0  0  0
   57.1010   32.1310   45.2080 C   0  0  0  0  0  0  0  0  0  0  0  0
   58.1330   31.4540   45.7840 C   0  0  0  0  0  0  0  0  0  0  0  0
   59.2820   32.1040   46.4900 C   0  0  0  0  0  0  0  0  0  0  0  0
   59.1910   33.5720   46.3600 N   0  0  0  0  0  0  0  0  0  0  0  0
   60.3970   34.3530   46.4450 C   0  0  0  0  0  0  0  0  0  0  0  0
   60.3880   35.5480   46.0410 O   0  0  0  0  0  0  0  0  0  0  0  0
   61.6510   33.7910   46.9800 C   0  0  0  0  0  0  0  0  0  0  0  0
   62.8900   33.8390   46.3730 C   0  0  0  0  0  0  0  0  0  0  0  0
   63.7440   33.1530   47.2120 C   0  0  0  0  0  0  0  0  0  0  0  0
   63.0780   32.7050   48.2530 O   0  0  0  0  0  0  0  0  0  0  0  0
   61.8190   33.0630   48.1430 C   0  0  0  0  0  0  0  0  0  0  0  0
   57.8710   34.2320   46.2650 C   0  0  0  0  0  0  0  0  0  0  0  0
   57.0210   33.6180   45.1370 C   0  0  0  0  0  0  0  0  0  0  0  0
   58.8232   28.9595   47.0424 H   0  0  0  0  0  0  0  0  0  0  0  0
   58.3535   28.0965   45.5386 H   0  0  0  0  0  0  0  0  0  0  0  0
   59.7781   29.1907   45.5386 H   0  0  0  0  0  0  0  0  0  0  0  0
   59.2565   31.8306   47.5552 H   0  0  0  0  0  0  0  0  0  0  0  0
   60.2240   31.7598   46.0383 H   0  0  0  0  0  0  0  0  0  0  0  0
   63.1437   34.3235   45.4186 H   0  0  0  0  0  0  0  0  0  0  0  0
   64.8195   33.0036   47.0363 H   0  0  0  0  0  0  0  0  0  0  0  0
   61.0234   32.8214   48.8632 H   0  0  0  0  0  0  0  0  0  0  0  0
   57.3399   34.1113   47.2207 H   0  0  0  0  0  0  0  0  0  0  0  0
   58.0296   35.2972   46.0411 H   0  0  0  0  0  0  0  0  0  0  0  0
   55.9740   33.9349   45.2528 H   0  0  0  0  0  0  0  0  0  0  0  0
   57.4018   33.9597   44.1632 H   0  0  0  0  0  0  0  0  0  0  0  0
  1  2  1  0
  2  3  1  0
  3  4  2  0
  4  5  1  0
  5  6  2  0
  6  7  1  0
  7  8  1  0
  8  9  1  0
  9 10  2  0
  9 11  1  0
 11 12  1  0
 12 13  2  0
 13 14  1  0
 14 15  1  0
  8 16  1  0
 16 17  1  0
  6  2  1  0
 15 11  2  0
 17  5  1  0
  1 18  1  0
  1 19  1  0
  1 20  1  0
  7 21  1  0
  7 22  1  0
 12 23  1  0
 13 24  1  0
 15 25  1  0
 16 26  1  0
 16 27  1  0
 17 28  1  0
 17 29  1  0
M  END
>  <UniqueID>  (17) 
17

>  <SMILES>  (17) 
Cn1nnc2c1CN(C(=O)c1ccoc1)CC2

>  <Energy>  (17) 
98.33720494267683

>  <Genealogy>  (17) 
Cn1nnc2c1CN(C(=O)c1ccoc1)CC2 (3D coordinates assigned)
Cn1nnc2c1CN(C(=O)c1ccoc1)CC2 (nonaromatic ring conformer: 98.33720494267683 kcal/mol)

>  <smiles>  (17) 
Cn1nnc2c1CN(C(=O)c1ccoc1)CC2

>  <score_type>  (17) 
oracle

>  <origin>  (17) 
adg

>  <m_score__min__energy>  (17) 
-6.3499999999999996

>  <m_primary>  (17) 
energy

$$$$
17:0
     RDKit          3D

 44 46  0  0  0  0  0  0  0  0999 V2000
   65.0950   32.5440   50.8100 C   0  0  0  0  0  0  0  0  0  0  0  0
   64.1500   32.9880   49.7450 C   0  0  0  0  0  0  0  0  0  0  0  0
   62.8380   33.3790   49.9430 C   0  0  0  0  0  0  0  0  0  0  0  0
   62.4070   33.7510   48.6850 C   0  0  0  0  0  0  0  0  0  0  0  0
   61.0210   34.2150   48.3340 C   0  0  0  0  0  0  0  0  0  0  0  0
   60.3790   33.2870   47.3790 N   0  0  0  0  0  0  0  0  0  0  0  0
   59.0510   32.8360   47.8710 C   0  0  0  0  0  0  0  0  0  0  0  0
   58.1460   32.3940   46.7160 C   0  0  0  0  0  0  0  0  0  0  0  0
   57.8490   33.5260   45.8080 N   0  0  0  0  0  0  0  0  0  0  0  0
   57.3940   33.0290   44.4940 C   0  0  0  0  0  0  0  0  0  0  0  0
   57.3910   31.5270   44.4710 C   0  0  0  0  0  0  0  0  0  0  0  0
   58.5600   30.8170   44.1560 C   0  0  0  0  0  0  0  0  0  0  0  0
   58.5320   29.4210   44.1530 C   0  0  0  0  0  0  0  0  0  0  0  0
   57.3470   28.7490   44.4640 C   0  0  0  0  0  0  0  0  0  0  0  0
   56.2040   29.4880   44.7730 C   0  0  0  0  0  0  0  0  0  0  0  0
   56.2500   30.8480   44.7720 N   0  0  0  0  0  0  0  0  0  0  0  0
   58.9710   34.4940   45.6870 C   0  0  0  0  0  0  0  0  0  0  0  0
   60.3340   33.8590   46.0100 C   0  0  0  0  0  0  0  0  0  0  0  0
   63.4230   33.5880   47.8120 N   0  0  0  0  0  0  0  0  0  0  0  0
   63.3850   33.8300   46.3730 C   0  0  0  0  0  0  0  0  0  0  0  0
   64.4880   33.1280   48.4480 N   0  0  0  0  0  0  0  0  0  0  0  0
   64.6571   32.7498   51.7979 H   0  0  0  0  0  0  0  0  0  0  0  0
   65.2805   31.4645   50.7088 H   0  0  0  0  0  0  0  0  0  0  0  0
   66.0444   33.0903   50.7088 H   0  0  0  0  0  0  0  0  0  0  0  0
   62.2696   33.3909   50.8847 H   0  0  0  0  0  0  0  0  0  0  0  0
   60.4150   34.2643   49.2507 H   0  0  0  0  0  0  0  0  0  0  0  0
   61.0913   35.2077   47.8654 H   0  0  0  0  0  0  0  0  0  0  0  0
   59.1930   31.9890   48.5584 H   0  0  0  0  0  0  0  0  0  0  0  0
   58.5680   33.6800   48.3851 H   0  0  0  0  0  0  0  0  0  0  0  0
   58.6518   31.6001   46.1469 H   0  0  0  0  0  0  0  0  0  0  0  0
   57.1986   32.0251   47.1359 H   0  0  0  0  0  0  0  0  0  0  0  0
   56.3750   33.3959   44.3014 H   0  0  0  0  0  0  0  0  0  0  0  0
   58.0822   33.3950   43.7179 H   0  0  0  0  0  0  0  0  0  0  0  0
   59.4886   31.3547   43.9140 H   0  0  0  0  0  0  0  0  0  0  0  0
   59.4404   28.8517   43.9065 H   0  0  0  0  0  0  0  0  0  0  0  0
   57.3153   27.6495   44.4653 H   0  0  0  0  0  0  0  0  0  0  0  0
   55.2647   28.9704   45.0177 H   0  0  0  0  0  0  0  0  0  0  0  0
   58.9960   34.8780   44.6565 H   0  0  0  0  0  0  0  0  0  0  0  0
   58.7969   35.3002   46.4149 H   0  0  0  0  0  0  0  0  0  0  0  0
   60.5309   33.0560   45.2845 H   0  0  0  0  0  0  0  0  0  0  0  0
   61.0962   34.6500   45.9507 H   0  0  0  0  0  0  0  0  0  0  0  0
   63.2168   34.9008   46.1856 H   0  0  0  0  0  0  0  0  0  0  0  0
   64.3420   33.5251   45.9245 H   0  0  0  0  0  0  0  0  0  0  0  0
   62.5675   33.2465   45.9245 H   0  0  0  0  0  0  0  0  0  0  0  0
  1  2  1  0
  2  3  1  0
  3  4  2  0
  4  5  1  0
  5  6  1  0
  6  7  1  0
  7  8  1  0
  8  9  1  0
  9 10  1  0
 10 11  1  0
 11 12  2  0
 12 13  1  0
 13 14  2  0
 14 15  1  0
 15 16  2  0
  9 17  1  0
 17 18  1  0
  4 19  1  0
 19 20  1  0
 19 21  1  0
 21  2  2  0
 18  6  1  0
 16 11  1  0
  1 22  1  0
  1 23  1  0
  1 24  1  0
  3 25  1  0
  5 26  1  0
  5 27  1  0
  7 28  1  0
  7 29  1  0
  8 30  1  0
  8 31  1  0
 10 32  1  0
 10 33  1  0
 12 34  1  0
 13 35  1  0
 14 36  1  0
 15 37  1  0
 17 38  1  0
 17 39  1  0
 18 40  1  0
 18 41  1  0
 20 42  1  0
 20 43  1  0
 20 44  1  0
M  END
>  <UniqueID>  (18) 
18

>  <SMILES>  (18) 
Cc1cc(CN2CCN(Cc3ccccn3)CC2)n(C)n1

>  <Energy>  (18) 
84.87141663691855

>  <Genealogy>  (18) 
Cc1cc(CN2CCN(Cc3ccccn3)CC2)n(C)n1 (3D coordinates assigned)
Cc1cc(CN2CCN(Cc3ccccn3)CC2)n(C)n1 (nonaromatic ring conformer: 84.87141663691855 kcal/mol)

>  <smiles>  (18) 
Cc1cc(CN2CCN(Cc3ccccn3)CC2)n(C)n1

>  <score_type>  (18) 
oracle

>  <origin>  (18) 
adg

>  <m_score__min__energy>  (18) 
-7.2300000000000004

>  <m_primary>  (18) 
energy

$$$$
18:0
     RDKit          3D

 47 51  0  0  0  0  0  0  0  0999 V2000
   56.5740   28.5840   53.3660 C   0  0  0  0  0  0  0  0  0  0  0  0
   56.0660   29.8850   53.8360 N   0  0  0  0  0  0  0  0  0  0  0  0
   57.1580   30.7460   54.3670 C   0  0  0  0  0  0  0  0  0  0  0  0
   57.4720   31.9740   53.4940 C   0  0  0  0  0  0  0  0  0  0  0  0
   57.3330   31.6420   52.0700 N   0  0  0  0  0  0  0  0  0  0  0  0
   58.3930   31.9310   51.1290 C   0  0  0  0  0  0  0  0  0  0  0  0
   58.0860   32.2440   49.8350 N   0  0  0  0  0  0  0  0  0  0  0  0
   59.0330   32.5440   48.9030 C   0  0  0  0  0  0  0  0  0  0  0  0
   58.5880   32.7390   47.5160 C   0  0  0  0  0  0  0  0  0  0  0  0
   58.5000   31.6420   46.6450 C   0  0  0  0  0  0  0  0  0  0  0  0
   58.1150   31.8320   45.3140 C   0  0  0  0  0  0  0  0  0  0  0  0
   57.8300   33.1180   44.8440 C   0  0  0  0  0  0  0  0  0  0  0  0
   57.9390   34.2170   45.7010 C   0  0  0  0  0  0  0  0  0  0  0  0
   58.3250   34.0310   47.0320 C   0  0  0  0  0  0  0  0  0  0  0  0
   60.3850   32.5580   49.3010 C   0  0  0  0  0  0  0  0  0  0  0  0
   60.6700   32.1950   50.6110 C   0  0  0  0  0  0  0  0  0  0  0  0
   59.7060   31.8890   51.5130 N   0  0  0  0  0  0  0  0  0  0  0  0
   62.3260   32.2130   50.9080 S   0  0  0  0  0  0  0  0  0  0  0  0
   62.7180   32.7250   49.3500 C   0  0  0  0  0  0  0  0  0  0  0  0
   63.9920   33.0000   48.8440 C   0  0  0  0  0  0  0  0  0  0  0  0
   65.5690   32.7550   49.8990 Br  0  0  0  0  0  0  0  0  0  0  0  0
   64.0970   33.4790   47.5330 C   0  0  0  0  0  0  0  0  0  0  0  0
   62.9440   33.6940   46.7600 C   0  0  0  0  0  0  0  0  0  0  0  0
   61.6720   33.4160   47.2820 C   0  0  0  0  0  0  0  0  0  0  0  0
   61.5590   32.8960   48.5830 C   0  0  0  0  0  0  0  0  0  0  0  0
   56.0730   31.0370   51.6200 C   0  0  0  0  0  0  0  0  0  0  0  0
   55.2330   30.5490   52.8120 C   0  0  0  0  0  0  0  0  0  0  0  0
   56.8207   27.9522   54.2320 H   0  0  0  0  0  0  0  0  0  0  0  0
   55.8036   28.0877   52.7576 H   0  0  0  0  0  0  0  0  0  0  0  0
   57.4769   28.7410   52.7576 H   0  0  0  0  0  0  0  0  0  0  0  0
   56.8643   31.0990   55.3666 H   0  0  0  0  0  0  0  0  0  0  0  0
   58.0682   30.1286   54.3844 H   0  0  0  0  0  0  0  0  0  0  0  0
   56.7737   32.7856   53.7463 H   0  0  0  0  0  0  0  0  0  0  0  0
   58.5076   32.2914   53.6858 H   0  0  0  0  0  0  0  0  0  0  0  0
   58.7342   30.6311   47.0099 H   0  0  0  0  0  0  0  0  0  0  0  0
   58.0363   30.9692   44.6362 H   0  0  0  0  0  0  0  0  0  0  0  0
   57.5198   33.2648   43.7989 H   0  0  0  0  0  0  0  0  0  0  0  0
   57.7210   35.2286   45.3281 H   0  0  0  0  0  0  0  0  0  0  0  0
   58.4229   34.8984   47.7014 H   0  0  0  0  0  0  0  0  0  0  0  0
   59.9870   31.6260   52.4820 H   0  0  0  0  0  0  0  0  0  0  0  0
   65.0886   33.6884   47.1054 H   0  0  0  0  0  0  0  0  0  0  0  0
   63.0394   34.0840   45.7359 H   0  0  0  0  0  0  0  0  0  0  0  0
   60.7714   33.6032   46.6788 H   0  0  0  0  0  0  0  0  0  0  0  0
   55.4963   31.7859   51.0574 H   0  0  0  0  0  0  0  0  0  0  0  0
   56.3101   30.1716   50.9837 H   0  0  0  0  0  0  0  0  0  0  0  0
   54.7283   31.4129   53.2692 H   0  0  0  0  0  0  0  0  0  0  0  0
   54.5027   29.8163   52.4381 H   0  0  0  0  0  0  0  0  0  0  0  0
  1  2  1  0
  2  3  1  0
  3  4  1  0
  4  5  1  0
  5  6  1  0
  6  7  2  0
  7  8  1  0
  8  9  1  0
  9 10  2  0
 10 11  1  0
 11 12  2  0
 12 13  1  0
 13 14  2  0
  8 15  2  0
 15 16  1  0
 16 17  2  0
 16 18  1  0
 18 19  1  0
 19 20  2  0
 20 21  1  0
 20 22  1  0
 22 23  2  0
 23 24  1  0
 24 25  2  0
  5 26  1  0
 26 27  1  0
 27  2  1  0
 17  6  1  0
 25 19  1  0
 14  9  1  0
 25 15  1  0
  1 28  1  0
  1 29  1  0
  1 30  1  0
  3 31  1  0
  3 32  1  0
  4 33  1  0
  4 34  1  0
 10 35  1  0
 11 36  1  0
 12 37  1  0
 13 38  1  0
 14 39  1  0
 17 40  1  0
 22 41  1  0
 23 42  1  0
 24 43  1  0
 26 44  1  0
 26 45  1  0
 27 46  1  0
 27 47  1  0
M  CHG  1  17   1
M  END
>  <UniqueID>  (19) 
19

>  <SMILES>  (19) 
CN1CCN(c2nc(-c3ccccc3)c3c([nH+]2)sc2c(Br)cccc23)CC1

>  <Energy>  (19) 
109.95387391012744

>  <Genealogy>  (19) 
CN1CCN(c2nc(-c3ccccc3)c3c([nH+]2)sc2c(Br)cccc23)CC1 (protonated)
CN1CCN(c2nc(-c3ccccc3)c3c([nH+]2)sc2c(Br)cccc23)CC1 (3D coordinates assigned)
CN1CCN(c2nc(-c3ccccc3)c3c([nH+]2)sc2c(Br)cccc23)CC1 (nonaromatic ring conformer: 109.95387391012744 kcal/mol)

>  <smiles>  (19) 
CN1CCN(c2nc(-c3ccccc3)c3c(n2)sc2c(Br)cccc23)CC1

>  <score_type>  (19) 
oracle

>  <origin>  (19) 
adg

>  <m_score__min__energy>  (19) 
-7.0300000000000002

>  <m_primary>  (19) 
energy

$$$$
19:0
     RDKit          3D

 69 71  0  0  0  0  0  0  0  0999 V2000
   65.7840   33.0420   50.1190 C   0  0  0  0  0  0  0  0  0  0  0  0
   64.4520   33.4710   49.4880 C   0  0  0  0  0  0  0  0  0  0  0  0
   63.4620   32.3660   49.3880 N   0  0  0  0  0  0  0  0  0  0  0  0
   63.2720   32.0120   47.9550 C   0  0  0  0  0  0  0  0  0  0  0  0
   63.0140   33.2260   47.0530 C   0  0  0  0  0  0  0  0  0  0  0  0
   63.7810   31.1960   50.2590 C   0  0  0  0  0  0  0  0  0  0  0  0
   62.6200   30.7060   51.1410 C   0  0  0  0  0  0  0  0  0  0  0  0
   61.4050   31.1870   50.6000 O   0  0  0  0  0  0  0  0  0  0  0  0
   60.5540   31.7070   51.6090 C   0  0  0  0  0  0  0  0  0  0  0  0
   60.3710   33.2280   51.4810 C   0  0  0  0  0  0  0  0  0  0  0  0
   60.7820   33.6980   50.1500 N   0  0  0  0  0  0  0  0  0  0  0  0
   59.6590   34.2450   49.3640 C   0  0  0  0  0  0  0  0  0  0  0  0
   58.9650   33.1760   48.5050 C   0  0  0  0  0  0  0  0  0  0  0  0
   59.8400   32.0210   48.2940 N   0  0  0  0  0  0  0  0  0  0  0  0
   59.5550   31.0140   47.3080 C   0  0  0  0  0  0  0  0  0  0  0  0
   59.0640   31.3870   46.0430 C   0  0  0  0  0  0  0  0  0  0  0  0
   58.7700   30.3930   45.0890 C   0  0  0  0  0  0  0  0  0  0  0  0
   59.0890   29.0720   45.3300 N   0  0  0  0  0  0  0  0  0  0  0  0
   59.0420   28.0950   44.2220 C   0  0  0  0  0  0  0  0  0  0  0  0
   59.4720   28.6740   46.5990 C   0  0  0  0  0  0  0  0  0  0  0  0
   59.6010   27.3050   46.9430 C   0  0  0  0  0  0  0  0  0  0  0  0
   60.0690   26.9190   48.1980 C   0  0  0  0  0  0  0  0  0  0  0  0
   60.4140   27.8790   49.1410 C   0  0  0  0  0  0  0  0  0  0  0  0
   60.2600   29.2320   48.8480 C   0  0  0  0  0  0  0  0  0  0  0  0
   59.7500   29.6470   47.5980 C   0  0  0  0  0  0  0  0  0  0  0  0
   58.0950   30.8430   43.8050 C   0  0  0  0  0  0  0  0  0  0  0  0
   57.0480   31.9200   44.1080 C   0  0  0  0  0  0  0  0  0  0  0  0
   57.6420   33.1390   44.8360 C   0  0  0  0  0  0  0  0  0  0  0  0
   58.9270   32.8450   45.6340 C   0  0  0  0  0  0  0  0  0  0  0  0
   65.6964   33.0702   51.2151 H   0  0  0  0  0  0  0  0  0  0  0  0
   66.0297   32.0193   49.7970 H   0  0  0  0  0  0  0  0  0  0  0  0
   66.5804   33.7291   49.7970 H   0  0  0  0  0  0  0  0  0  0  0  0
   64.0177   34.2735   50.1024 H   0  0  0  0  0  0  0  0  0  0  0  0
   64.6711   33.8040   48.4628 H   0  0  0  0  0  0  0  0  0  0  0  0
   62.5460   32.7500   49.7290 H   0  0  0  0  0  0  0  0  0  0  0  0
   64.1788   31.5008   47.5996 H   0  0  0  0  0  0  0  0  0  0  0  0
   62.3806   31.3702   47.8960 H   0  0  0  0  0  0  0  0  0  0  0  0
   62.8256   34.1125   47.6764 H   0  0  0  0  0  0  0  0  0  0  0  0
   63.8942   33.4046   46.4180 H   0  0  0  0  0  0  0  0  0  0  0  0
   62.1372   33.0312   46.4180 H   0  0  0  0  0  0  0  0  0  0  0  0
   64.0923   30.3633   49.6112 H   0  0  0  0  0  0  0  0  0  0  0  0
   64.5698   31.5320   50.9481 H   0  0  0  0  0  0  0  0  0  0  0  0
   62.6074   29.6062   51.1589 H   0  0  0  0  0  0  0  0  0  0  0  0
   62.7465   31.0789   52.1681 H   0  0  0  0  0  0  0  0  0  0  0  0
   59.5696   31.2228   51.5276 H   0  0  0  0  0  0  0  0  0  0  0  0
   61.0191   31.5018   52.5845 H   0  0  0  0  0  0  0  0  0  0  0  0
   59.3114   33.4774   51.6392 H   0  0  0  0  0  0  0  0  0  0  0  0
   61.0000   33.7214   52.2365 H   0  0  0  0  0  0  0  0  0  0  0  0
   61.5310   34.4180   50.2690 H   0  0  0  0  0  0  0  0  0  0  0  0
   58.9204   34.6750   50.0565 H   0  0  0  0  0  0  0  0  0  0  0  0
   60.0675   35.0067   48.6835 H   0  0  0  0  0  0  0  0  0  0  0  0
   58.0486   32.8443   49.0151 H   0  0  0  0  0  0  0  0  0  0  0  0
   58.7243   33.6160   47.5260 H   0  0  0  0  0  0  0  0  0  0  0  0
   60.7960   32.0500   48.7130 H   0  0  0  0  0  0  0  0  0  0  0  0
   58.9930   27.0760   44.6335 H   0  0  0  0  0  0  0  0  0  0  0  0
   58.1519   28.2841   43.6039 H   0  0  0  0  0  0  0  0  0  0  0  0
   59.9461   28.1978   43.6039 H   0  0  0  0  0  0  0  0  0  0  0  0
   59.3272   26.5344   46.2073 H   0  0  0  0  0  0  0  0  0  0  0  0
   60.1654   25.8509   48.4425 H   0  0  0  0  0  0  0  0  0  0  0  0
   60.8092   27.5704   50.1201 H   0  0  0  0  0  0  0  0  0  0  0  0
   60.5388   29.9860   49.5988 H   0  0  0  0  0  0  0  0  0  0  0  0
   58.8521   31.2542   43.1211 H   0  0  0  0  0  0  0  0  0  0  0  0
   57.5978   29.9796   43.3388 H   0  0  0  0  0  0  0  0  0  0  0  0
   56.6062   32.2579   43.1590 H   0  0  0  0  0  0  0  0  0  0  0  0
   56.2937   31.4722   44.7717 H   0  0  0  0  0  0  0  0  0  0  0  0
   57.8730   33.9085   44.0847 H   0  0  0  0  0  0  0  0  0  0  0  0
   56.8876   33.4638   45.5677 H   0  0  0  0  0  0  0  0  0  0  0  0
   59.7931   33.1155   45.0121 H   0  0  0  0  0  0  0  0  0  0  0  0
   58.8775   33.4383   46.5590 H   0  0  0  0  0  0  0  0  0  0  0  0
  1  2  1  0
  2  3  1  0
  3  4  1  0
  4  5  1  0
  3  6  1  0
  6  7  1  0
  7  8  1  0
  8  9  1  0
  9 10  1  0
 10 11  1  0
 11 12  1  0
 12 13  1  0
 13 14  1  0
 14 15  1  0
 15 16  2  0
 16 17  1  0
 17 18  2  0
 18 19  1  0
 18 20  1  0
 20 21  2  0
 21 22  1  0
 22 23  2  0
 23 24  1  0
 24 25  2  0
 17 26  1  0
 26 27  1  0
 27 28  1  0
 28 29  1  0
 25 15  1  0
 29 16  1  0
 25 20  1  0
  1 30  1  0
  1 31  1  0
  1 32  1  0
  2 33  1  0
  2 34  1  0
  3 35  1  0
  4 36  1  0
  4 37  1  0
  5 38  1  0
  5 39  1  0
  5 40  1  0
  6 41  1  0
  6 42  1  0
  7 43  1  0
  7 44  1  0
  9 45  1  0
  9 46  1  0
 10 47  1  0
 10 48  1  0
 11 49  1  0
 12 50  1  0
 12 51  1  0
 13 52  1  0
 13 53  1  0
 14 54  1  0
 19 55  1  0
 19 56  1  0
 19 57  1  0
 21 58  1  0
 22 59  1  0
 23 60  1  0
 24 61  1  0
 26 62  1  0
 26 63  1  0
 27 64  1  0
 27 65  1  0
 28 66  1  0
 28 67  1  0
 29 68  1  0
 29 69  1  0
M  CHG  2   3   1  18   1
M  END
>  <UniqueID>  (20) 
20

>  <SMILES>  (20) 
CC[NH+](CC)CCOCCNCCNc1c2c([n+](C)c3ccccc13)CCCC2

>  <Energy>  (20) 
96.30647233245477

>  <Genealogy>  (20) 
CC[NH+](CC)CCOCCNCCNc1c2c([n+](C)c3ccccc13)CCCC2 (protonated)
CC[NH+](CC)CCOCCNCCNc1c2c([n+](C)c3ccccc13)CCCC2 (3D coordinates assigned)
CC[NH+](CC)CCOCCNCCNc1c2c([n+](C)c3ccccc13)CCCC2 (nonaromatic ring conformer: 96.30647233245477 kcal/mol)

>  <smiles>  (20) 
CCN(CC)CCOCCNCCNc1c2c([n+](C)c3ccccc13)CCCC2

>  <score_type>  (20) 
oracle

>  <origin>  (20) 
adg

>  <m_score__min__energy>  (20) 
-3.3999999999999999

>  <m_primary>  (20) 
energy

$$$$
21:0
     RDKit          3D

 57 60  0  0  0  0  0  0  0  0999 V2000
   63.2900   33.8320   46.2530 C   0  0  0  0  0  0  0  0  0  0  0  0
   63.7490   33.6210   47.7000 C   0  0  0  0  0  0  0  0  0  0  0  0
   63.5930   32.2280   48.1480 N   0  0  0  0  0  0  0  0  0  0  0  0
   63.0870   32.1400   49.5230 C   0  0  0  0  0  0  0  0  0  0  0  0
   62.0660   33.2550   49.7730 C   0  0  0  0  0  0  0  0  0  0  0  0
   60.6180   32.7300   49.8910 C   0  0  0  0  0  0  0  0  0  0  0  0
   60.4300   31.3070   49.3420 C   0  0  0  0  0  0  0  0  0  0  0  0
   60.8400   31.2040   47.9410 N   0  0  0  0  0  0  0  0  0  0  0  0
   59.8840   31.1330   46.8670 C   0  0  0  0  0  0  0  0  0  0  0  0
   59.4140   29.8820   46.4320 C   0  0  0  0  0  0  0  0  0  0  0  0
   58.5240   29.8170   45.3380 C   0  0  0  0  0  0  0  0  0  0  0  0
   57.9210   30.9670   44.8730 N   0  0  0  0  0  0  0  0  0  0  0  0
   56.6630   30.8910   44.1020 C   0  0  0  0  0  0  0  0  0  0  0  0
   58.4420   32.2000   45.2100 C   0  0  0  0  0  0  0  0  0  0  0  0
   58.0050   33.3880   44.5720 C   0  0  0  0  0  0  0  0  0  0  0  0
   58.5610   34.6250   44.8990 C   0  0  0  0  0  0  0  0  0  0  0  0
   59.5680   34.7090   45.8530 C   0  0  0  0  0  0  0  0  0  0  0  0
   60.0200   33.5580   46.4950 C   0  0  0  0  0  0  0  0  0  0  0  0
   59.4560   32.2990   46.2020 C   0  0  0  0  0  0  0  0  0  0  0  0
   58.2520   28.4640   44.7520 C   0  0  0  0  0  0  0  0  0  0  0  0
   58.0130   28.2940   43.4160 N   0  0  0  0  0  0  0  0  0  0  0  0
   57.7730   27.0650   42.8830 C   0  0  0  0  0  0  0  0  0  0  0  0
   57.8090   25.9280   43.6910 C   0  0  0  0  0  0  0  0  0  0  0  0
   58.1290   26.0600   45.0410 C   0  0  0  0  0  0  0  0  0  0  0  0
   58.3870   27.3280   45.5730 C   0  0  0  0  0  0  0  0  0  0  0  0
   58.8190   27.4970   47.0020 C   0  0  0  0  0  0  0  0  0  0  0  0
   59.8790   28.6010   47.1000 C   0  0  0  0  0  0  0  0  0  0  0  0
   62.2906   34.2914   46.2487 H   0  0  0  0  0  0  0  0  0  0  0  0
   64.0001   34.4940   45.7359 H   0  0  0  0  0  0  0  0  0  0  0  0
   63.2499   32.8619   45.7359 H   0  0  0  0  0  0  0  0  0  0  0  0
   64.8107   33.8984   47.7764 H   0  0  0  0  0  0  0  0  0  0  0  0
   63.1168   34.2499   48.3441 H   0  0  0  0  0  0  0  0  0  0  0  0
   64.5200   31.7430   48.0930 H   0  0  0  0  0  0  0  0  0  0  0  0
   62.6045   31.1628   49.6727 H   0  0  0  0  0  0  0  0  0  0  0  0
   63.9255   32.2511   50.2263 H   0  0  0  0  0  0  0  0  0  0  0  0
   62.3301   33.7691   50.7089 H   0  0  0  0  0  0  0  0  0  0  0  0
   62.1011   33.9341   48.9084 H   0  0  0  0  0  0  0  0  0  0  0  0
   60.3331   32.7327   50.9535 H   0  0  0  0  0  0  0  0  0  0  0  0
   59.9848   33.3946   49.2849 H   0  0  0  0  0  0  0  0  0  0  0  0
   61.0355   30.6116   49.9418 H   0  0  0  0  0  0  0  0  0  0  0  0
   59.3607   31.0564   49.4036 H   0  0  0  0  0  0  0  0  0  0  0  0
   61.8550   31.1260   47.7110 H   0  0  0  0  0  0  0  0  0  0  0  0
   55.8106   30.8395   44.7953 H   0  0  0  0  0  0  0  0  0  0  0  0
   56.5667   31.7850   43.4683 H   0  0  0  0  0  0  0  0  0  0  0  0
   56.6751   29.9919   43.4683 H   0  0  0  0  0  0  0  0  0  0  0  0
   57.2158   33.3337   43.8077 H   0  0  0  0  0  0  0  0  0  0  0  0
   58.2011   35.5369   44.4000 H   0  0  0  0  0  0  0  0  0  0  0  0
   60.0089   35.6856   46.1016 H   0  0  0  0  0  0  0  0  0  0  0  0
   60.8265   33.6322   47.2394 H   0  0  0  0  0  0  0  0  0  0  0  0
   58.0450   29.1080   42.7640 H   0  0  0  0  0  0  0  0  0  0  0  0
   57.5496   26.9675   41.8103 H   0  0  0  0  0  0  0  0  0  0  0  0
   57.5871   24.9376   43.2668 H   0  0  0  0  0  0  0  0  0  0  0  0
   58.1786   25.1703   45.6860 H   0  0  0  0  0  0  0  0  0  0  0  0
   57.9486   27.7715   47.6161 H   0  0  0  0  0  0  0  0  0  0  0  0
   59.2469   26.5510   47.3652 H   0  0  0  0  0  0  0  0  0  0  0  0
   60.0843   28.8058   48.1611 H   0  0  0  0  0  0  0  0  0  0  0  0
   60.7866   28.2537   46.5845 H   0  0  0  0  0  0  0  0  0  0  0  0
  1  2  1  0
  2  3  1  0
  3  4  1  0
  4  5  1  0
  5  6  1  0
  6  7  1  0
  7  8  1  0
  8  9  1  0
  9 10  2  0
 10 11  1  0
 11 12  2  0
 12 13  1  0
 12 14  1  0
 14 15  2  0
 15 16  1  0
 16 17  2  0
 17 18  1  0
 18 19  2  0
 11 20  1  0
 20 21  2  0
 21 22  1  0
 22 23  2  0
 23 24  1  0
 24 25  2  0
 25 26  1  0
 26 27  1  0
 19  9  1  0
 25 20  1  0
 27 10  1  0
 19 14  1  0
  1 28  1  0
  1 29  1  0
  1 30  1  0
  2 31  1  0
  2 32  1  0
  3 33  1  0
  4 34  1  0
  4 35  1  0
  5 36  1  0
  5 37  1  0
  6 38  1  0
  6 39  1  0
  7 40  1  0
  7 41  1  0
  8 42  1  0
 13 43  1  0
 13 44  1  0
 13 45  1  0
 15 46  1  0
 16 47  1  0
 17 48  1  0
 18 49  1  0
 21 50  1  0
 22 51  1  0
 23 52  1  0
 24 53  1  0
 26 54  1  0
 26 55  1  0
 27 56  1  0
 27 57  1  0
M  CHG  2  12   1  21   1
M  END
>  <UniqueID>  (21) 
21

>  <SMILES>  (21) 
CCNCCCCNc1c2c([n+](C)c3ccccc13)-c1[nH+]cccc1CC2

>  <Energy>  (21) 
83.75590439278946

>  <Genealogy>  (21) 
CCNCCCCNc1c2c([n+](C)c3ccccc13)-c1[nH+]cccc1CC2 (protonated)
CCNCCCCNc1c2c([n+](C)c3ccccc13)-c1[nH+]cccc1CC2 (3D coordinates assigned)
CCNCCCCNc1c2c([n+](C)c3ccccc13)-c1[nH+]cccc1CC2 (nonaromatic ring conformer: 83.75590439278946 kcal/mol)

>  <smiles>  (21) 
CCNCCCCNc1c2c([n+](C)c3ccccc13)-c1ncccc1CC2

>  <score_type>  (21) 
oracle

>  <origin>  (21) 
adg

>  <m_score__min__energy>  (21) 
-5.54

>  <m_primary>  (21) 
energy

$$$$
22:0
     RDKit          3D

 83 86  0  0  0  0  0  0  0  0999 V2000
   56.4620   30.8270   52.0250 C   0  0  0  0  0  0  0  0  0  0  0  0
   57.8980   30.3090   52.0090 C   0  0  0  0  0  0  0  0  0  0  0  0
   58.8260   31.3460   51.5350 N   0  0  0  0  0  0  0  0  0  0  0  0
   58.6270   32.5980   52.2860 C   0  0  0  0  0  0  0  0  0  0  0  0
   59.2330   33.7840   51.5320 C   0  0  0  0  0  0  0  0  0  0  0  0
   59.8460   33.3170   50.3480 O   0  0  0  0  0  0  0  0  0  0  0  0
   59.7620   34.3130   49.3500 C   0  0  0  0  0  0  0  0  0  0  0  0
   59.4480   33.6690   47.9990 C   0  0  0  0  0  0  0  0  0  0  0  0
   58.8420   32.3360   48.1310 N   0  0  0  0  0  0  0  0  0  0  0  0
   59.0010   31.3350   47.1160 C   0  0  0  0  0  0  0  0  0  0  0  0
   58.5830   31.6160   45.8010 C   0  0  0  0  0  0  0  0  0  0  0  0
   58.2730   32.9360   45.4100 C   0  0  0  0  0  0  0  0  0  0  0  0
   57.7780   33.2070   44.1410 C   0  0  0  0  0  0  0  0  0  0  0  0
   57.5920   32.1740   43.2330 C   0  0  0  0  0  0  0  0  0  0  0  0
   57.9250   30.8670   43.5800 C   0  0  0  0  0  0  0  0  0  0  0  0
   58.4620   30.5640   44.8610 C   0  0  0  0  0  0  0  0  0  0  0  0
   58.8320   29.2810   45.2080 N   0  0  0  0  0  0  0  0  0  0  0  0
   58.9440   28.2390   44.1630 C   0  0  0  0  0  0  0  0  0  0  0  0
   59.1470   28.9780   46.5200 C   0  0  0  0  0  0  0  0  0  0  0  0
   59.2350   27.6360   46.9610 C   0  0  0  0  0  0  0  0  0  0  0  0
   59.6330   27.3300   48.2550 C   0  0  0  0  0  0  0  0  0  0  0  0
   60.0140   28.3400   49.1240 C   0  0  0  0  0  0  0  0  0  0  0  0
   59.9260   29.6940   48.7480 C   0  0  0  0  0  0  0  0  0  0  0  0
   60.4280   30.6990   49.6080 O   0  0  0  0  0  0  0  0  0  0  0  0
   61.8280   30.8680   49.8700 C   0  0  0  0  0  0  0  0  0  0  0  0
   62.6110   31.6180   48.7560 C   0  0  0  0  0  0  0  0  0  0  0  0
   63.3990   32.8430   49.1530 N   0  0  0  0  0  0  0  0  0  0  0  0
   63.3670   33.7990   48.0200 C   0  0  0  0  0  0  0  0  0  0  0  0
   64.8390   32.4550   49.3640 C   0  0  0  0  0  0  0  0  0  0  0  0
   65.1730   32.1980   50.8460 C   0  0  0  0  0  0  0  0  0  0  0  0
   64.9740   33.4210   51.6950 N   0  0  0  0  0  0  0  0  0  0  0  0
   64.6410   32.9900   53.0770 C   0  0  0  0  0  0  0  0  0  0  0  0
   66.2340   34.2040   51.7530 C   0  0  0  0  0  0  0  0  0  0  0  0
   63.8810   34.2970   51.1610 C   0  0  0  0  0  0  0  0  0  0  0  0
   62.8290   33.4960   50.3780 C   0  0  0  0  0  0  0  0  0  0  0  0
   59.3620   30.0170   47.4740 C   0  0  0  0  0  0  0  0  0  0  0  0
   56.1273   30.9477   53.0659 H   0  0  0  0  0  0  0  0  0  0  0  0
   56.4168   31.7981   51.5103 H   0  0  0  0  0  0  0  0  0  0  0  0
   55.8072   30.1084   51.5103 H   0  0  0  0  0  0  0  0  0  0  0  0
   58.1837   30.0089   53.0280 H   0  0  0  0  0  0  0  0  0  0  0  0
   57.9533   29.4494   51.3248 H   0  0  0  0  0  0  0  0  0  0  0  0
   58.6460   31.5380   50.5190 H   0  0  0  0  0  0  0  0  0  0  0  0
   59.8160   31.0100   51.6670 H   0  0  0  0  0  0  0  0  0  0  0  0
   57.5491   32.7697   52.4224 H   0  0  0  0  0  0  0  0  0  0  0  0
   59.1259   32.5076   53.2622 H   0  0  0  0  0  0  0  0  0  0  0  0
   58.4397   34.5021   51.2771 H   0  0  0  0  0  0  0  0  0  0  0  0
   59.9827   34.2807   52.1654 H   0  0  0  0  0  0  0  0  0  0  0  0
   58.9636   35.0237   49.6099 H   0  0  0  0  0  0  0  0  0  0  0  0
   60.7238   34.8428   49.2845 H   0  0  0  0  0  0  0  0  0  0  0  0
   58.7496   34.3202   47.4530 H   0  0  0  0  0  0  0  0  0  0  0  0
   60.3994   33.5487   47.4601 H   0  0  0  0  0  0  0  0  0  0  0  0
   58.6990   31.9820   49.1020 H   0  0  0  0  0  0  0  0  0  0  0  0
   58.4256   33.7619   46.1203 H   0  0  0  0  0  0  0  0  0  0  0  0
   57.5333   34.2407   43.8555 H   0  0  0  0  0  0  0  0  0  0  0  0
   57.1801   32.3883   42.2358 H   0  0  0  0  0  0  0  0  0  0  0  0
   57.7702   30.0570   42.8520 H   0  0  0  0  0  0  0  0  0  0  0  0
   59.0500   27.2528   44.6385 H   0  0  0  0  0  0  0  0  0  0  0  0
   58.0396   28.2489   43.5369 H   0  0  0  0  0  0  0  0  0  0  0  0
   59.8256   28.4409   43.5369 H   0  0  0  0  0  0  0  0  0  0  0  0
   58.9836   26.8212   46.2660 H   0  0  0  0  0  0  0  0  0  0  0  0
   59.6460   26.2829   48.5917 H   0  0  0  0  0  0  0  0  0  0  0  0
   60.3914   28.0796   50.1239 H   0  0  0  0  0  0  0  0  0  0  0  0
   61.9354   31.4358   50.8060 H   0  0  0  0  0  0  0  0  0  0  0  0
   62.2581   29.8571   49.9255 H   0  0  0  0  0  0  0  0  0  0  0  0
   63.3188   30.9017   48.3133 H   0  0  0  0  0  0  0  0  0  0  0  0
   61.8327   31.9969   48.0772 H   0  0  0  0  0  0  0  0  0  0  0  0
   63.3326   34.8274   48.4089 H   0  0  0  0  0  0  0  0  0  0  0  0
   64.2700   33.6694   47.4053 H   0  0  0  0  0  0  0  0  0  0  0  0
   62.4747   33.6094   47.4053 H   0  0  0  0  0  0  0  0  0  0  0  0
   65.0439   31.5377   48.7926 H   0  0  0  0  0  0  0  0  0  0  0  0
   65.4632   33.2939   49.0227 H   0  0  0  0  0  0  0  0  0  0  0  0
   64.5204   31.3963   51.2219 H   0  0  0  0  0  0  0  0  0  0  0  0
   66.2339   31.9141   50.9078 H   0  0  0  0  0  0  0  0  0  0  0  0
   65.1487   33.6471   53.7984 H   0  0  0  0  0  0  0  0  0  0  0  0
   63.5531   33.0510   53.2280 H   0  0  0  0  0  0  0  0  0  0  0  0
   64.9746   31.9527   53.2280 H   0  0  0  0  0  0  0  0  0  0  0  0
   66.5108   34.3760   52.8036 H   0  0  0  0  0  0  0  0  0  0  0  0
   67.0365   33.6452   51.2492 H   0  0  0  0  0  0  0  0  0  0  0  0
   66.0884   35.1709   51.2492 H   0  0  0  0  0  0  0  0  0  0  0  0
   63.3871   34.8018   52.0043 H   0  0  0  0  0  0  0  0  0  0  0  0
   64.3356   35.0238   50.4717 H   0  0  0  0  0  0  0  0  0  0  0  0
   62.4187   32.7153   51.0354 H   0  0  0  0  0  0  0  0  0  0  0  0
   62.0493   34.1992   50.0500 H   0  0  0  0  0  0  0  0  0  0  0  0
  1  2  1  0
  2  3  1  0
  3  4  1  0
  4  5  1  0
  5  6  1  0
  6  7  1  0
  7  8  1  0
  8  9  1  0
  9 10  1  0
 10 11  2  0
 11 12  1  0
 12 13  2  0
 13 14  1  0
 14 15  2  0
 15 16  1  0
 16 17  2  0
 17 18  1  0
 17 19  1  0
 19 20  2  0
 20 21  1  0
 21 22  2  0
 22 23  1  0
 23 24  1  0
 24 25  1  0
 25 26  1  0
 26 27  1  0
 27 28  1  0
 27 29  1  0
 29 30  1  0
 30 31  1  0
 31 32  1  0
 31 33  1  0
 31 34  1  0
 34 35  1  0
 23 36  2  0
 36 10  1  0
 16 11  1  0
 36 19  1  0
 35 27  1  0
  1 37  1  0
  1 38  1  0
  1 39  1  0
  2 40  1  0
  2 41  1  0
  3 42  1  0
  3 43  1  0
  4 44  1  0
  4 45  1  0
  5 46  1  0
  5 47  1  0
  7 48  1  0
  7 49  1  0
  8 50  1  0
  8 51  1  0
  9 52  1  0
 12 53  1  0
 13 54  1  0
 14 55  1  0
 15 56  1  0
 18 57  1  0
 18 58  1  0
 18 59  1  0
 20 60  1  0
 21 61  1  0
 22 62  1  0
 25 63  1  0
 25 64  1  0
 26 65  1  0
 26 66  1  0
 28 67  1  0
 28 68  1  0
 28 69  1  0
 29 70  1  0
 29 71  1  0
 30 72  1  0
 30 73  1  0
 32 74  1  0
 32 75  1  0
 32 76  1  0
 33 77  1  0
 33 78  1  0
 33 79  1  0
 34 80  1  0
 34 81  1  0
 35 82  1  0
 35 83  1  0
M  CHG  4   3   1  17   1  27   1  31   1
M  END
>  <UniqueID>  (22) 
22

>  <SMILES>  (22) 
CC[NH2+]CCOCCNc1c2ccccc2[n+](C)c2cccc(OCC[N+]3(C)CC[N+](C)(C)CC3)c12

>  <Energy>  (22) 
138.8221708477327

>  <Genealogy>  (22) 
CC[NH2+]CCOCCNc1c2ccccc2[n+](C)c2cccc(OCC[N+]3(C)CC[N+](C)(C)CC3)c12 (protonated)
CC[NH2+]CCOCCNc1c2ccccc2[n+](C)c2cccc(OCC[N+]3(C)CC[N+](C)(C)CC3)c12 (3D coordinates assigned)
CC[NH2+]CCOCCNc1c2ccccc2[n+](C)c2cccc(OCC[N+]3(C)CC[N+](C)(C)CC3)c12 (nonaromatic ring conformer: 138.8221708477327 kcal/mol)

>  <smiles>  (22) 
CCNCCOCCNc1c2ccccc2[n+](C)c2cccc(OCC[N+]3(C)CC[N+](C)(C)CC3)c12

>  <score_type>  (22) 
oracle

>  <origin>  (22) 
adg

>  <m_score__min__energy>  (22) 
-3.25

>  <m_primary>  (22) 
energy

$$$$
23:0
     RDKit          3D

 38 37  0  0  0  0  0  0  0  0999 V2000
   55.9190   24.3990   44.8690 C   0  0  0  0  0  0  0  0  0  0  0  0
   54.7740   25.0790   45.6120 C   0  0  0  0  0  0  0  0  0  0  0  0
   55.1590   26.4480   45.9810 N   0  0  0  0  0  0  0  0  0  0  0  0
   56.6210   26.6100   45.9880 C   0  0  0  0  0  0  0  0  0  0  0  0
   57.0030   28.0470   45.6390 C   0  0  0  0  0  0  0  0  0  0  0  0
   55.8490   28.7340   45.2010 O   0  0  0  0  0  0  0  0  0  0  0  0
   56.1690   29.6360   44.1570 C   0  0  0  0  0  0  0  0  0  0  0  0
   57.4450   30.4300   44.4910 C   0  0  0  0  0  0  0  0  0  0  0  0
   57.3590   31.9600   44.2440 C   0  0  0  0  0  0  0  0  0  0  0  0
   58.0570   32.8580   45.2220 N   0  0  0  0  0  0  0  0  0  0  0  0
   58.8690   33.8980   44.5450 C   0  0  0  0  0  0  0  0  0  0  0  0
   58.9140   32.0860   46.1540 C   0  0  0  0  0  0  0  0  0  0  0  0
   57.0160   33.5410   46.0320 C   0  0  0  0  0  0  0  0  0  0  0  0
   56.6288   23.9775   45.5960 H   0  0  0  0  0  0  0  0  0  0  0  0
   55.5185   23.5923   44.2375 H   0  0  0  0  0  0  0  0  0  0  0  0
   56.4357   25.1367   44.2375 H   0  0  0  0  0  0  0  0  0  0  0  0
   53.8869   25.1124   44.9625 H   0  0  0  0  0  0  0  0  0  0  0  0
   54.5461   24.5090   46.5247 H   0  0  0  0  0  0  0  0  0  0  0  0
   54.7730   27.0910   45.2490 H   0  0  0  0  0  0  0  0  0  0  0  0
   57.0072   26.3659   46.9886 H   0  0  0  0  0  0  0  0  0  0  0  0
   57.0568   25.9343   45.2373 H   0  0  0  0  0  0  0  0  0  0  0  0
   57.4144   28.5461   46.5287 H   0  0  0  0  0  0  0  0  0  0  0  0
   57.7618   28.0479   44.8427 H   0  0  0  0  0  0  0  0  0  0  0  0
   56.3298   29.0695   43.2279 H   0  0  0  0  0  0  0  0  0  0  0  0
   55.3357   30.3436   44.0353 H   0  0  0  0  0  0  0  0  0  0  0  0
   57.6759   30.2701   45.5545 H   0  0  0  0  0  0  0  0  0  0  0  0
   58.2229   30.0555   43.8094 H   0  0  0  0  0  0  0  0  0  0  0  0
   57.7873   32.1583   43.2504 H   0  0  0  0  0  0  0  0  0  0  0  0
   56.2915   32.2026   44.3521 H   0  0  0  0  0  0  0  0  0  0  0  0
   59.3611   34.5283   45.3003 H   0  0  0  0  0  0  0  0  0  0  0  0
   59.6320   33.4158   43.9163 H   0  0  0  0  0  0  0  0  0  0  0  0
   58.2162   34.5213   43.9163 H   0  0  0  0  0  0  0  0  0  0  0  0
   58.6416   32.3314   47.1911 H   0  0  0  0  0  0  0  0  0  0  0  0
   58.7669   31.0097   45.9811 H   0  0  0  0  0  0  0  0  0  0  0  0
   59.9692   32.3443   45.9811 H   0  0  0  0  0  0  0  0  0  0  0  0
   57.2319   33.3994   47.1013 H   0  0  0  0  0  0  0  0  0  0  0  0
   57.0153   34.6157   45.7973 H   0  0  0  0  0  0  0  0  0  0  0  0
   56.0299   33.1138   45.7973 H   0  0  0  0  0  0  0  0  0  0  0  0
  1  2  1  0
  2  3  1  0
  3  4  1  0
  4  5  1  0
  5  6  1  0
  6  7  1  0
  7  8  1  0
  8  9  1  0
  9 10  1  0
 10 11  1  0
 10 12  1  0
 10 13  1  0
  1 14  1  0
  1 15  1  0
  1 16  1  0
  2 17  1  0
  2 18  1  0
  3 19  1  0
  4 20  1  0
  4 21  1  0
  5 22  1  0
  5 23  1  0
  7 24  1  0
  7 25  1  0
  8 26  1  0
  8 27  1  0
  9 28  1  0
  9 29  1  0
 11 30  1  0
 11 31  1  0
 11 32  1  0
 12 33  1  0
 12 34  1  0
 12 35  1  0
 13 36  1  0
 13 37  1  0
 13 38  1  0
M  CHG  1  10   1
M  END
>  <UniqueID>  (23) 
23

>  <SMILES>  (23) 
CCNCCOCCC[N+](C)(C)C

>  <Energy>  (23) 
39.270265532792095

>  <Genealogy>  (23) 
CCNCCOCCC[N+](C)(C)C (3D coordinates assigned)
CCNCCOCCC[N+](C)(C)C (optimized conformer: 39.270265532792095 kcal/mol)

>  <smiles>  (23) 
CCNCCOCCC[N+](C)(C)C

>  <score_type>  (23) 
oracle

>  <origin>  (23) 
adg

>  <m_score__min__energy>  (23) 
-3.2599999999999998

>  <m_primary>  (23) 
energy

$$$$
24:0
     RDKit          3D

 62 64  0  0  0  0  0  0  0  0999 V2000
   62.5890   31.3350   47.2930 C   0  0  0  0  0  0  0  0  0  0  0  0
   61.3440   30.7420   47.7730 N   0  0  0  0  0  0  0  0  0  0  0  0
   60.6050   29.7600   47.0170 C   0  0  0  0  0  0  0  0  0  0  0  0
   60.7460   29.7260   45.6210 C   0  0  0  0  0  0  0  0  0  0  0  0
   60.0310   28.8180   44.8510 C   0  0  0  0  0  0  0  0  0  0  0  0
   59.1340   27.9310   45.4520 C   0  0  0  0  0  0  0  0  0  0  0  0
   58.4060   27.0350   44.6530 C   0  0  0  0  0  0  0  0  0  0  0  0
   57.4930   26.1560   45.2320 C   0  0  0  0  0  0  0  0  0  0  0  0
   57.2960   26.1630   46.6110 C   0  0  0  0  0  0  0  0  0  0  0  0
   58.0170   27.0400   47.4230 C   0  0  0  0  0  0  0  0  0  0  0  0
   58.9580   27.9390   46.8620 C   0  0  0  0  0  0  0  0  0  0  0  0
   59.7270   28.8430   47.6600 C   0  0  0  0  0  0  0  0  0  0  0  0
   59.6560   28.7960   49.1800 C   0  0  0  0  0  0  0  0  0  0  0  0
   58.5420   29.7110   49.7320 C   0  0  0  0  0  0  0  0  0  0  0  0
   59.0940   30.9720   50.2900 N   0  0  0  0  0  0  0  0  0  0  0  0
   58.9770   31.0780   51.7590 C   0  0  0  0  0  0  0  0  0  0  0  0
   58.7350   32.5120   52.2710 C   0  0  0  0  0  0  0  0  0  0  0  0
   58.9820   33.5930   51.2080 C   0  0  0  0  0  0  0  0  0  0  0  0
   60.4290   33.5390   50.6940 C   0  0  0  0  0  0  0  0  0  0  0  0
   60.4650   33.0090   49.3220 N   0  0  0  0  0  0  0  0  0  0  0  0
   60.6470   34.0760   48.3190 C   0  0  0  0  0  0  0  0  0  0  0  0
   59.2790   34.5370   47.8120 C   0  0  0  0  0  0  0  0  0  0  0  0
   58.7790   33.6180   46.7270 C   0  0  0  0  0  0  0  0  0  0  0  0
   58.6740   34.0680   45.3980 C   0  0  0  0  0  0  0  0  0  0  0  0
   58.1560   33.2250   44.4090 C   0  0  0  0  0  0  0  0  0  0  0  0
   57.7260   31.9340   44.7420 C   0  0  0  0  0  0  0  0  0  0  0  0
   57.0090   30.7890   43.3920 Br  0  0  0  0  0  0  0  0  0  0  0  0
   57.8150   31.4860   46.0670 C   0  0  0  0  0  0  0  0  0  0  0  0
   58.3440   32.3230   47.0540 C   0  0  0  0  0  0  0  0  0  0  0  0
   63.2094   31.6305   48.1519 H   0  0  0  0  0  0  0  0  0  0  0  0
   63.1340   30.5997   46.6827 H   0  0  0  0  0  0  0  0  0  0  0  0
   62.3615   32.2215   46.6827 H   0  0  0  0  0  0  0  0  0  0  0  0
   61.0390   30.9940   48.7400 H   0  0  0  0  0  0  0  0  0  0  0  0
   61.4337   30.4296   45.1291 H   0  0  0  0  0  0  0  0  0  0  0  0
   60.1718   28.7969   43.7603 H   0  0  0  0  0  0  0  0  0  0  0  0
   58.5573   27.0269   43.5635 H   0  0  0  0  0  0  0  0  0  0  0  0
   56.9273   25.4559   44.5996 H   0  0  0  0  0  0  0  0  0  0  0  0
   56.5679   25.4732   47.0627 H   0  0  0  0  0  0  0  0  0  0  0  0
   57.8529   27.0333   48.5107 H   0  0  0  0  0  0  0  0  0  0  0  0
   59.4552   27.7614   49.4950 H   0  0  0  0  0  0  0  0  0  0  0  0
   60.6180   29.1516   49.5777 H   0  0  0  0  0  0  0  0  0  0  0  0
   57.8456   29.9566   48.9167 H   0  0  0  0  0  0  0  0  0  0  0  0
   58.0266   29.1740   50.5419 H   0  0  0  0  0  0  0  0  0  0  0  0
   60.1170   31.0040   50.0650 H   0  0  0  0  0  0  0  0  0  0  0  0
   58.6880   31.8200   49.8340 H   0  0  0  0  0  0  0  0  0  0  0  0
   58.1356   30.4487   52.0845 H   0  0  0  0  0  0  0  0  0  0  0  0
   59.9402   30.7508   52.1776 H   0  0  0  0  0  0  0  0  0  0  0  0
   57.6913   32.5891   52.6097 H   0  0  0  0  0  0  0  0  0  0  0  0
   59.4527   32.6897   53.0855 H   0  0  0  0  0  0  0  0  0  0  0  0
   58.2944   33.4320   50.3646 H   0  0  0  0  0  0  0  0  0  0  0  0
   58.8084   34.5790   51.6638 H   0  0  0  0  0  0  0  0  0  0  0  0
   60.8550   34.5531   50.7024 H   0  0  0  0  0  0  0  0  0  0  0  0
   61.0162   32.8777   51.3481 H   0  0  0  0  0  0  0  0  0  0  0  0
   61.2740   32.3490   49.2500 H   0  0  0  0  0  0  0  0  0  0  0  0
   61.1732   34.9256   48.7786 H   0  0  0  0  0  0  0  0  0  0  0  0
   61.2398   33.6904   47.4764 H   0  0  0  0  0  0  0  0  0  0  0  0
   58.5635   34.5330   48.6475 H   0  0  0  0  0  0  0  0  0  0  0  0
   59.3768   35.5523   47.4001 H   0  0  0  0  0  0  0  0  0  0  0  0
   59.0001   35.0854   45.1360 H   0  0  0  0  0  0  0  0  0  0  0  0
   58.0863   33.5762   43.3689 H   0  0  0  0  0  0  0  0  0  0  0  0
   57.4686   30.4757   46.3304 H   0  0  0  0  0  0  0  0  0  0  0  0
   58.4199   31.9658   48.0916 H   0  0  0  0  0  0  0  0  0  0  0  0
  1  2  1  0
  2  3  1  0
  3  4  2  0
  4  5  1  0
  5  6  2  0
  6  7  1  0
  7  8  2  0
  8  9  1  0
  9 10  2  0
 10 11  1  0
 11 12  2  0
 12 13  1  0
 13 14  1  0
 14 15  1  0
 15 16  1  0
 16 17  1  0
 17 18  1  0
 18 19  1  0
 19 20  1  0
 20 21  1  0
 21 22  1  0
 22 23  1  0
 23 24  2  0
 24 25  1  0
 25 26  2  0
 26 27  1  0
 26 28  1  0
 28 29  2  0
 12  3  1  0
 29 23  1  0
 11  6  1  0
  1 30  1  0
  1 31  1  0
  1 32  1  0
  2 33  1  0
  4 34  1  0
  5 35  1  0
  7 36  1  0
  8 37  1  0
  9 38  1  0
 10 39  1  0
 13 40  1  0
 13 41  1  0
 14 42  1  0
 14 43  1  0
 15 44  1  0
 15 45  1  0
 16 46  1  0
 16 47  1  0
 17 48  1  0
 17 49  1  0
 18 50  1  0
 18 51  1  0
 19 52  1  0
 19 53  1  0
 20 54  1  0
 21 55  1  0
 21 56  1  0
 22 57  1  0
 22 58  1  0
 24 59  1  0
 25 60  1  0
 28 61  1  0
 29 62  1  0
M  CHG  1  15   1
M  END
>  <UniqueID>  (24) 
24

>  <SMILES>  (24) 
CNc1ccc2ccccc2c1CC[NH2+]CCCCNCCc1ccc(Br)cc1

>  <Energy>  (24) 
64.0951791949534

>  <Genealogy>  (24) 
CNc1ccc2ccccc2c1CC[NH2+]CCCCNCCc1ccc(Br)cc1 (protonated)
CNc1ccc2ccccc2c1CC[NH2+]CCCCNCCc1ccc(Br)cc1 (3D coordinates assigned)
CNc1ccc2ccccc2c1CC[NH2+]CCCCNCCc1ccc(Br)cc1 (optimized conformer: 64.0951791949534 kcal/mol)

>  <smiles>  (24) 
CNc1ccc2ccccc2c1CCNCCCCNCCc1ccc(Br)cc1

>  <score_type>  (24) 
oracle

>  <origin>  (24) 
adg

>  <m_score__min__energy>  (24) 
-6.8700000000000001

>  <m_primary>  (24) 
energy

$$$$
25:0
     RDKit          3D

 77 81  0  0  0  0  0  0  0  0999 V2000
   58.9040   31.5310   50.2530 C   0  0  0  0  0  0  0  0  0  0  0  0
   60.1020   30.7600   50.7920 C   0  0  0  0  0  0  0  0  0  0  0  0
   60.7650   30.0430   49.6990 N   0  0  0  0  0  0  0  0  0  0  0  0
   60.0160   28.8390   49.3250 C   0  0  0  0  0  0  0  0  0  0  0  0
   59.8320   28.7650   47.7930 C   0  0  0  0  0  0  0  0  0  0  0  0
   60.5890   29.7570   46.9780 N   0  0  0  0  0  0  0  0  0  0  0  0
   59.8030   30.8120   46.3480 C   0  0  0  0  0  0  0  0  0  0  0  0
   58.8090   30.4610   45.3930 C   0  0  0  0  0  0  0  0  0  0  0  0
   58.6800   29.1330   44.9100 C   0  0  0  0  0  0  0  0  0  0  0  0
   57.6600   28.7800   44.0320 C   0  0  0  0  0  0  0  0  0  0  0  0
   56.7420   29.7310   43.6160 C   0  0  0  0  0  0  0  0  0  0  0  0
   56.8650   31.0490   44.0400 C   0  0  0  0  0  0  0  0  0  0  0  0
   57.9260   31.4540   44.8930 C   0  0  0  0  0  0  0  0  0  0  0  0
   58.0910   32.7730   45.2500 N   0  0  0  0  0  0  0  0  0  0  0  0
   57.3760   33.8330   44.4990 C   0  0  0  0  0  0  0  0  0  0  0  0
   58.9610   33.1190   46.2640 C   0  0  0  0  0  0  0  0  0  0  0  0
   58.9150   34.4120   46.8400 C   0  0  0  0  0  0  0  0  0  0  0  0
   59.8520   34.8190   47.7720 C   0  0  0  0  0  0  0  0  0  0  0  0
   60.8780   33.9700   48.1420 C   0  0  0  0  0  0  0  0  0  0  0  0
   60.9490   32.6600   47.6350 C   0  0  0  0  0  0  0  0  0  0  0  0
   62.0600   31.8590   47.9490 O   0  0  0  0  0  0  0  0  0  0  0  0
   63.3310   32.3400   48.3840 C   0  0  0  0  0  0  0  0  0  0  0  0
   63.7320   31.6010   49.6800 C   0  0  0  0  0  0  0  0  0  0  0  0
   64.5850   32.3670   50.6530 N   0  0  1  0  0  0  0  0  0  0  0  0
   64.1170   33.7800   50.6780 C   0  0  0  0  0  0  0  0  0  0  0  0
   64.4200   31.7820   52.0330 C   0  0  0  0  0  0  0  0  0  0  0  0
   65.6760   31.8930   52.9460 C   0  0  0  0  0  0  0  0  0  0  0  0
   66.9800   31.7760   52.2110 N   0  0  2  0  0  0  0  0  0  0  0  0
   67.9690   31.0150   53.0050 C   0  0  0  0  0  0  0  0  0  0  0  0
   67.4970   33.1240   51.8570 C   0  0  0  0  0  0  0  0  0  0  0  0
   66.9500   33.4400   50.4680 C   0  0  0  0  0  0  0  0  0  0  0  0
   66.0200   32.2510   50.1450 C   0  0  1  0  0  0  0  0  0  0  0  0
   66.7610   31.1510   50.8990 C   0  0  0  0  0  0  0  0  0  0  0  0
   59.9160   32.1800   46.7610 C   0  0  0  0  0  0  0  0  0  0  0  0
   58.3070   31.9152   51.0932 H   0  0  0  0  0  0  0  0  0  0  0  0
   59.2560   32.3725   49.6383 H   0  0  0  0  0  0  0  0  0  0  0  0
   58.2839   30.8620   49.6383 H   0  0  0  0  0  0  0  0  0  0  0  0
   60.8123   31.4635   51.2508 H   0  0  0  0  0  0  0  0  0  0  0  0
   59.7582   30.0356   51.5450 H   0  0  0  0  0  0  0  0  0  0  0  0
   60.7970   30.6760   48.8640 H   0  0  0  0  0  0  0  0  0  0  0  0
   60.5672   27.9502   49.6659 H   0  0  0  0  0  0  0  0  0  0  0  0
   59.0242   28.8777   49.7991 H   0  0  0  0  0  0  0  0  0  0  0  0
   60.1425   27.7609   47.4684 H   0  0  0  0  0  0  0  0  0  0  0  0
   58.7712   28.9975   47.6183 H   0  0  0  0  0  0  0  0  0  0  0  0
   61.3300   30.1890   47.5750 H   0  0  0  0  0  0  0  0  0  0  0  0
   61.1980   29.2740   46.2840 H   0  0  0  0  0  0  0  0  0  0  0  0
   59.4001   28.3680   45.2359 H   0  0  0  0  0  0  0  0  0  0  0  0
   57.5822   27.7450   43.6677 H   0  0  0  0  0  0  0  0  0  0  0  0
   55.9155   29.4427   42.9499 H   0  0  0  0  0  0  0  0  0  0  0  0
   56.1259   31.7932   43.7083 H   0  0  0  0  0  0  0  0  0  0  0  0
   56.9055   34.5305   45.2075 H   0  0  0  0  0  0  0  0  0  0  0  0
   58.0906   34.3796   43.8662 H   0  0  0  0  0  0  0  0  0  0  0  0
   56.6015   33.3751   43.8662 H   0  0  0  0  0  0  0  0  0  0  0  0
   58.1171   35.1071   46.5397 H   0  0  0  0  0  0  0  0  0  0  0  0
   59.7806   35.8211   48.2201 H   0  0  0  0  0  0  0  0  0  0  0  0
   61.6492   34.3235   48.8422 H   0  0  0  0  0  0  0  0  0  0  0  0
   64.0834   32.1513   47.6040 H   0  0  0  0  0  0  0  0  0  0  0  0
   63.2732   33.4216   48.5758 H   0  0  0  0  0  0  0  0  0  0  0  0
   62.8067   31.3139   50.2009 H   0  0  0  0  0  0  0  0  0  0  0  0
   64.3533   30.7546   49.3520 H   0  0  0  0  0  0  0  0  0  0  0  0
   64.0072   34.1115   51.7211 H   0  0  0  0  0  0  0  0  0  0  0  0
   64.8516   34.4187   50.1657 H   0  0  0  0  0  0  0  0  0  0  0  0
   63.1464   33.8539   50.1657 H   0  0  0  0  0  0  0  0  0  0  0  0
   63.5895   32.3056   52.5291 H   0  0  0  0  0  0  0  0  0  0  0  0
   64.2346   30.7069   51.8924 H   0  0  0  0  0  0  0  0  0  0  0  0
   65.6506   32.8698   53.4513 H   0  0  0  0  0  0  0  0  0  0  0  0
   65.6319   31.0492   53.6503 H   0  0  0  0  0  0  0  0  0  0  0  0
   67.7729   31.1659   54.0768 H   0  0  0  0  0  0  0  0  0  0  0  0
   67.8871   29.9448   52.7643 H   0  0  0  0  0  0  0  0  0  0  0  0
   68.9825   31.3684   52.7643 H   0  0  0  0  0  0  0  0  0  0  0  0
   67.1446   33.8703   52.5842 H   0  0  0  0  0  0  0  0  0  0  0  0
   68.5967   33.1468   51.8688 H   0  0  0  0  0  0  0  0  0  0  0  0
   66.3863   34.3845   50.4768 H   0  0  0  0  0  0  0  0  0  0  0  0
   67.7474   33.5651   49.7206 H   0  0  0  0  0  0  0  0  0  0  0  0
   65.8654   32.1203   49.0638 H   0  0  0  0  0  0  0  0  0  0  0  0
   66.1470   30.2425   50.9863 H   0  0  0  0  0  0  0  0  0  0  0  0
   67.6863   30.8197   50.4049 H   0  0  0  0  0  0  0  0  0  0  0  0
  1  2  1  0
  2  3  1  0
  3  4  1  0
  4  5  1  0
  5  6  1  0
  6  7  1  0
  7  8  2  0
  8  9  1  0
  9 10  2  0
 10 11  1  0
 11 12  2  0
 12 13  1  0
 13 14  2  0
 14 15  1  0
 14 16  1  0
 16 17  2  0
 17 18  1  0
 18 19  2  0
 19 20  1  0
 20 21  1  0
 21 22  1  0
 22 23  1  0
 24 23  1  6
 24 25  1  0
 24 26  1  0
 26 27  1  0
 27 28  1  0
 28 29  1  1
 28 30  1  0
 30 31  1  0
 31 32  1  0
 32 33  1  0
 20 34  2  0
 34  7  1  0
 13  8  1  0
 34 16  1  0
 32 24  1  0
 33 28  1  0
  1 35  1  0
  1 36  1  0
  1 37  1  0
  2 38  1  0
  2 39  1  0
  3 40  1  0
  4 41  1  0
  4 42  1  0
  5 43  1  0
  5 44  1  0
  6 45  1  0
  6 46  1  0
  9 47  1  0
 10 48  1  0
 11 49  1  0
 12 50  1  0
 15 51  1  0
 15 52  1  0
 15 53  1  0
 17 54  1  0
 18 55  1  0
 19 56  1  0
 22 57  1  0
 22 58  1  0
 23 59  1  0
 23 60  1  0
 25 61  1  0
 25 62  1  0
 25 63  1  0
 26 64  1  0
 26 65  1  0
 27 66  1  0
 27 67  1  0
 29 68  1  0
 29 69  1  0
 29 70  1  0
 30 71  1  0
 30 72  1  0
 31 73  1  0
 31 74  1  0
 32 75  1  6
 33 76  1  0
 33 77  1  0
M  CHG  4   6   1  14   1  24   1  28   1
M  END
>  <UniqueID>  (25) 
25

>  <SMILES>  (25) 
CCNCC[NH2+]c1c2ccccc2[n+](C)c2cccc(OCC[N@@+]3(C)CC[N@+]4(C)CCC3C4)c12

>  <Energy>  (25) 
160.50528791985388

>  <Genealogy>  (25) 
CCNCC[NH2+]c1c2ccccc2[n+](C)c2cccc(OCC[N+]3(C)CC[N+]4(C)CCC3C4)c12 (protonated)
CCNCC[NH2+]c1c2ccccc2[n+](C)c2cccc(OCC[N@@+]3(C)CC[N@+]4(C)CCC3C4)c12 (chirality)
CCNCC[NH2+]c1c2ccccc2[n+](C)c2cccc(OCC[N@@+]3(C)CC[N@+]4(C)CCC3C4)c12 (3D coordinates assigned)
CCNCC[NH2+]c1c2ccccc2[n+](C)c2cccc(OCC[N@@+]3(C)CC[N@+]4(C)CCC3C4)c12 (nonaromatic ring conformer: 160.50528791985388 kcal/mol)

>  <smiles>  (25) 
CCNCCNc1c2ccccc2[n+](C)c2cccc(OCC[N+]3(C)CC[N+]4(C)CCC3C4)c12

>  <score_type>  (25) 
oracle

>  <origin>  (25) 
adg

>  <m_score__min__energy>  (25) 
-2.4500000000000002

>  <m_primary>  (25) 
energy

$$$$
26:0
     RDKit          3D

 39 41  0  0  0  0  0  0  0  0999 V2000
   58.1360   30.3280   46.3570 C   0  0  0  0  0  0  0  0  0  0  0  0
   57.7510   30.7720   44.9690 C   0  0  0  0  0  0  0  0  0  0  0  0
   57.0170   29.8850   44.1610 C   0  0  0  0  0  0  0  0  0  0  0  0
   56.6770   30.2290   42.8530 C   0  0  0  0  0  0  0  0  0  0  0  0
   57.0610   31.4650   42.3330 C   0  0  0  0  0  0  0  0  0  0  0  0
   57.7730   32.3660   43.1250 C   0  0  0  0  0  0  0  0  0  0  0  0
   58.1060   32.0470   44.4540 C   0  0  0  0  0  0  0  0  0  0  0  0
   58.8360   33.0570   45.2490 C   0  0  0  0  0  0  0  0  0  0  0  0
   58.5270   34.4190   45.2460 C   0  0  0  0  0  0  0  0  0  0  0  0
   59.6450   35.2060   46.2270 S   0  0  0  0  0  0  0  0  0  0  0  0
   60.4760   33.7910   46.6060 C   0  0  0  0  0  0  0  0  0  0  0  0
   61.6390   33.7130   47.4530 N   0  0  0  0  0  0  0  0  0  0  0  0
   61.5080   33.9710   48.8950 C   0  0  0  0  0  0  0  0  0  0  0  0
   62.8780   34.0880   49.5730 C   0  0  0  0  0  0  0  0  0  0  0  0
   63.7620   32.8660   49.2560 C   0  0  0  0  0  0  0  0  0  0  0  0
   65.1920   33.1050   49.7580 C   0  0  0  0  0  0  0  0  0  0  0  0
   63.7520   32.4800   47.7490 C   0  0  0  0  0  0  0  0  0  0  0  0
   62.9670   33.4660   46.8720 C   0  0  0  0  0  0  0  0  0  0  0  0
   59.9250   32.7190   45.9940 N   0  0  0  0  0  0  0  0  0  0  0  0
   57.6040   30.9415   47.0990 H   0  0  0  0  0  0  0  0  0  0  0  0
   57.8639   29.2708   46.4925 H   0  0  0  0  0  0  0  0  0  0  0  0
   59.2211   30.4476   46.4925 H   0  0  0  0  0  0  0  0  0  0  0  0
   56.7079   28.9097   44.5651 H   0  0  0  0  0  0  0  0  0  0  0  0
   56.1053   29.5248   42.2307 H   0  0  0  0  0  0  0  0  0  0  0  0
   56.8021   31.7296   41.2972 H   0  0  0  0  0  0  0  0  0  0  0  0
   58.0773   33.3364   42.7058 H   0  0  0  0  0  0  0  0  0  0  0  0
   57.6990   34.8935   44.6990 H   0  0  0  0  0  0  0  0  0  0  0  0
   60.9558   34.9111   49.0409 H   0  0  0  0  0  0  0  0  0  0  0  0
   60.9701   33.1256   49.3488 H   0  0  0  0  0  0  0  0  0  0  0  0
   63.3804   34.9977   49.2124 H   0  0  0  0  0  0  0  0  0  0  0  0
   62.7255   34.1351   50.6614 H   0  0  0  0  0  0  0  0  0  0  0  0
   63.3303   32.0069   49.7905 H   0  0  0  0  0  0  0  0  0  0  0  0
   65.1991   33.1062   50.8580 H   0  0  0  0  0  0  0  0  0  0  0  0
   65.8491   32.3042   49.3880 H   0  0  0  0  0  0  0  0  0  0  0  0
   65.5530   34.0759   49.3880 H   0  0  0  0  0  0  0  0  0  0  0  0
   64.7915   32.4461   47.3909 H   0  0  0  0  0  0  0  0  0  0  0  0
   63.2520   31.5036   47.6673 H   0  0  0  0  0  0  0  0  0  0  0  0
   63.5187   34.4155   46.8089 H   0  0  0  0  0  0  0  0  0  0  0  0
   62.8457   33.0358   45.8669 H   0  0  0  0  0  0  0  0  0  0  0  0
  1  2  1  0
  2  3  2  0
  3  4  1  0
  4  5  2  0
  5  6  1  0
  6  7  2  0
  7  8  1  0
  8  9  2  0
  9 10  1  0
 10 11  1  0
 11 12  1  0
 12 13  1  0
 13 14  1  0
 14 15  1  0
 15 16  1  0
 15 17  1  0
 17 18  1  0
 11 19  2  0
  7  2  1  0
 19  8  1  0
 18 12  1  0
  1 20  1  0
  1 21  1  0
  1 22  1  0
  3 23  1  0
  4 24  1  0
  5 25  1  0
  6 26  1  0
  9 27  1  0
 13 28  1  0
 13 29  1  0
 14 30  1  0
 14 31  1  0
 15 32  1  0
 16 33  1  0
 16 34  1  0
 16 35  1  0
 17 36  1  0
 17 37  1  0
 18 38  1  0
 18 39  1  0
M  END
>  <UniqueID>  (26) 
26

>  <SMILES>  (26) 
Cc1ccccc1-c1csc(N2CCC(C)CC2)n1

>  <Energy>  (26) 
75.60854842538043

>  <Genealogy>  (26) 
Cc1ccccc1-c1csc(N2CCC(C)CC2)n1 (3D coordinates assigned)
Cc1ccccc1-c1csc(N2CCC(C)CC2)n1 (nonaromatic ring conformer: 75.60854842538043 kcal/mol)

>  <smiles>  (26) 
Cc1ccccc1-c1csc(N2CCC(C)CC2)n1

>  <score_type>  (26) 
oracle

>  <origin>  (26) 
adg

>  <m_score__min__energy>  (26) 
-7.71

>  <m_primary>  (26) 
energy

$$$$
27:0
     RDKit          3D

 80 84  0  0  0  0  0  0  0  0999 V2000
   61.1890   26.6780   51.0980 C   0  0  0  0  0  0  0  0  0  0  0  0
   60.7380   28.1120   51.3740 C   0  0  0  0  0  0  0  0  0  0  0  0
   60.1380   28.7430   50.1880 N   0  0  0  0  0  0  0  0  0  0  0  0
   61.0310   28.6730   49.0200 C   0  0  0  0  0  0  0  0  0  0  0  0
   60.3730   29.3330   47.7860 C   0  0  0  0  0  0  0  0  0  0  0  0
   58.9620   29.7740   47.9620 N   0  0  0  0  0  0  0  0  0  0  0  0
   58.5280   30.8860   47.1240 C   0  0  0  0  0  0  0  0  0  0  0  0
   57.8600   30.6190   45.8970 C   0  0  0  0  0  0  0  0  0  0  0  0
   57.4320   29.3100   45.5570 C   0  0  0  0  0  0  0  0  0  0  0  0
   56.8360   29.0420   44.3280 C   0  0  0  0  0  0  0  0  0  0  0  0
   56.6590   30.0610   43.4050 C   0  0  0  0  0  0  0  0  0  0  0  0
   57.0380   31.3620   43.7220 C   0  0  0  0  0  0  0  0  0  0  0  0
   57.6040   31.6790   44.9850 C   0  0  0  0  0  0  0  0  0  0  0  0
   57.9290   32.9750   45.3190 N   0  0  0  0  0  0  0  0  0  0  0  0
   57.4180   34.0980   44.4970 C   0  0  0  0  0  0  0  0  0  0  0  0
   58.6850   33.2380   46.4430 C   0  0  0  0  0  0  0  0  0  0  0  0
   59.2990   34.5010   46.6210 C   0  0  0  0  0  0  0  0  0  0  0  0
   59.9820   34.8100   47.7870 C   0  0  0  0  0  0  0  0  0  0  0  0
   60.0330   33.8970   48.8250 C   0  0  0  0  0  0  0  0  0  0  0  0
   59.4510   32.6230   48.6930 C   0  0  0  0  0  0  0  0  0  0  0  0
   59.3860   31.7640   49.8060 O   0  0  0  0  0  0  0  0  0  0  0  0
   59.3960   32.1630   51.1790 C   0  0  0  0  0  0  0  0  0  0  0  0
   60.3750   31.3110   52.0280 C   0  0  0  0  0  0  0  0  0  0  0  0
   61.8280   31.6710   51.9240 N   0  0  2  0  0  0  0  0  0  0  0  0
   62.4310   31.3440   53.2480 C   0  0  0  0  0  0  0  0  0  0  0  0
   62.0160   33.1410   51.6650 C   0  0  0  0  0  0  0  0  0  0  0  0
   62.6380   33.4560   50.2840 C   0  0  0  0  0  0  0  0  0  0  0  0
   63.9380   32.7520   50.0380 N   0  0  2  0  0  0  0  0  0  0  0  0
   65.0020   33.4920   50.7800 C   0  0  0  0  0  0  0  0  0  0  0  0
   64.1230   32.7370   48.5410 C   0  0  0  0  0  0  0  0  0  0  0  0
   63.3420   33.7710   47.7310 C   0  0  0  0  0  0  0  0  0  0  0  0
   62.9740   32.2980   47.6270 C   0  0  0  0  0  0  0  0  0  0  0  0
   63.9010   31.3310   50.5270 C   0  0  0  0  0  0  0  0  0  0  0  0
   62.4860   30.8300   50.8820 C   0  0  0  0  0  0  0  0  0  0  0  0
   58.8830   32.2340   47.4380 C   0  0  0  0  0  0  0  0  0  0  0  0
   61.3534   26.1553   52.0518 H   0  0  0  0  0  0  0  0  0  0  0  0
   60.4123   26.1538   50.5218 H   0  0  0  0  0  0  0  0  0  0  0  0
   62.1259   26.6928   50.5218 H   0  0  0  0  0  0  0  0  0  0  0  0
   59.9936   28.0998   52.1838 H   0  0  0  0  0  0  0  0  0  0  0  0
   61.6257   28.6973   51.6557 H   0  0  0  0  0  0  0  0  0  0  0  0
   59.9930   29.7510   50.4330 H   0  0  0  0  0  0  0  0  0  0  0  0
   61.9699   29.1972   49.2518 H   0  0  0  0  0  0  0  0  0  0  0  0
   61.2297   27.6157   48.7907 H   0  0  0  0  0  0  0  0  0  0  0  0
   60.9713   30.2158   47.5163 H   0  0  0  0  0  0  0  0  0  0  0  0
   60.3479   28.5548   47.0089 H   0  0  0  0  0  0  0  0  0  0  0  0
   58.3140   28.9620   47.8640 H   0  0  0  0  0  0  0  0  0  0  0  0
   58.8020   30.0120   48.9670 H   0  0  0  0  0  0  0  0  0  0  0  0
   57.5738   28.4915   46.2780 H   0  0  0  0  0  0  0  0  0  0  0  0
   56.5051   28.0206   44.0889 H   0  0  0  0  0  0  0  0  0  0  0  0
   56.2186   29.8411   42.4213 H   0  0  0  0  0  0  0  0  0  0  0  0
   56.8962   32.1608   42.9792 H   0  0  0  0  0  0  0  0  0  0  0  0
   57.0535   34.8991   45.1568 H   0  0  0  0  0  0  0  0  0  0  0  0
   58.2282   34.4860   43.8622 H   0  0  0  0  0  0  0  0  0  0  0  0
   56.5932   33.7421   43.8622 H   0  0  0  0  0  0  0  0  0  0  0  0
   59.2329   35.2511   45.8192 H   0  0  0  0  0  0  0  0  0  0  0  0
   60.4845   35.7834   47.8871 H   0  0  0  0  0  0  0  0  0  0  0  0
   60.5347   34.1704   49.7650 H   0  0  0  0  0  0  0  0  0  0  0  0
   59.7005   33.2183   51.2393 H   0  0  0  0  0  0  0  0  0  0  0  0
   58.3829   32.0158   51.5815 H   0  0  0  0  0  0  0  0  0  0  0  0
   60.0791   31.4111   53.0827 H   0  0  0  0  0  0  0  0  0  0  0  0
   60.2959   30.2883   51.6306 H   0  0  0  0  0  0  0  0  0  0  0  0
   61.7698   31.7026   54.0506 H   0  0  0  0  0  0  0  0  0  0  0  0
   62.5559   30.2546   53.3350 H   0  0  0  0  0  0  0  0  0  0  0  0
   63.4122   31.8336   53.3350 H   0  0  0  0  0  0  0  0  0  0  0  0
   62.6765   33.5490   52.4443 H   0  0  0  0  0  0  0  0  0  0  0  0
   61.0163   33.5997   51.6788 H   0  0  0  0  0  0  0  0  0  0  0  0
   62.8119   34.5403   50.2199 H   0  0  0  0  0  0  0  0  0  0  0  0
   61.9290   33.1008   49.5217 H   0  0  0  0  0  0  0  0  0  0  0  0
   64.8402   33.3795   51.8622 H   0  0  0  0  0  0  0  0  0  0  0  0
   65.9876   33.0834   50.5122 H   0  0  0  0  0  0  0  0  0  0  0  0
   64.9619   34.5581   50.5122 H   0  0  0  0  0  0  0  0  0  0  0  0
   65.1751   32.4327   48.6430 H   0  0  0  0  0  0  0  0  0  0  0  0
   62.6649   34.4714   48.2419 H   0  0  0  0  0  0  0  0  0  0  0  0
   63.6117   34.5562   47.0094 H   0  0  0  0  0  0  0  0  0  0  0  0
   62.0322   31.9344   48.0637 H   0  0  0  0  0  0  0  0  0  0  0  0
   62.8687   31.5793   46.8009 H   0  0  0  0  0  0  0  0  0  0  0  0
   64.5304   31.2574   51.4261 H   0  0  0  0  0  0  0  0  0  0  0  0
   64.2665   30.6998   49.7036 H   0  0  0  0  0  0  0  0  0  0  0  0
   62.5604   29.7983   51.2563 H   0  0  0  0  0  0  0  0  0  0  0  0
   61.8727   30.8857   49.9705 H   0  0  0  0  0  0  0  0  0  0  0  0
  1  2  1  0
  2  3  1  0
  3  4  1  0
  4  5  1  0
  5  6  1  0
  6  7  1  0
  7  8  2  0
  8  9  1  0
  9 10  2  0
 10 11  1  0
 11 12  2  0
 12 13  1  0
 13 14  2  0
 14 15  1  0
 14 16  1  0
 16 17  2  0
 17 18  1  0
 18 19  2  0
 19 20  1  0
 20 21  1  0
 21 22  1  0
 22 23  1  0
 24 23  1  1
 24 25  1  0
 24 26  1  0
 26 27  1  0
 27 28  1  0
 28 29  1  1
 28 30  1  0
 30 31  1  0
 31 32  1  0
 28 33  1  0
 33 34  1  0
 20 35  2  0
 35  7  1  0
 13  8  1  0
 35 16  1  0
 34 24  1  0
 32 30  1  0
  1 36  1  0
  1 37  1  0
  1 38  1  0
  2 39  1  0
  2 40  1  0
  3 41  1  0
  4 42  1  0
  4 43  1  0
  5 44  1  0
  5 45  1  0
  6 46  1  0
  6 47  1  0
  9 48  1  0
 10 49  1  0
 11 50  1  0
 12 51  1  0
 15 52  1  0
 15 53  1  0
 15 54  1  0
 17 55  1  0
 18 56  1  0
 19 57  1  0
 22 58  1  0
 22 59  1  0
 23 60  1  0
 23 61  1  0
 25 62  1  0
 25 63  1  0
 25 64  1  0
 26 65  1  0
 26 66  1  0
 27 67  1  0
 27 68  1  0
 29 69  1  0
 29 70  1  0
 29 71  1  0
 30 72  1  0
 31 73  1  0
 31 74  1  0
 32 75  1  0
 32 76  1  0
 33 77  1  0
 33 78  1  0
 34 79  1  0
 34 80  1  0
M  CHG  4   6   1  14   1  24   1  28   1
M  END
>  <UniqueID>  (27) 
27

>  <SMILES>  (27) 
CCNCC[NH2+]c1c2ccccc2[n+](C)c2cccc(OCC[N+]3(C)CC[N+](C)(C4CC4)CC3)c12

>  <Energy>  (27) 
422.85237427309823

>  <Genealogy>  (27) 
CCNCC[NH2+]c1c2ccccc2[n+](C)c2cccc(OCC[N+]3(C)CC[N+](C)(C4CC4)CC3)c12 (protonated)
CCNCC[NH2+]c1c2ccccc2[n+](C)c2cccc(OCC[N+]3(C)CC[N+](C)(C4CC4)CC3)c12 (3D coordinates assigned)
CCNCC[NH2+]c1c2ccccc2[n+](C)c2cccc(OCC[N+]3(C)CC[N+](C)(C4CC4)CC3)c12 (nonaromatic ring conformer: 422.85237427309823 kcal/mol)

>  <smiles>  (27) 
CCNCCNc1c2ccccc2[n+](C)c2cccc(OCC[N+]3(C)CC[N+](C)(C4CC4)CC3)c12

>  <score_type>  (27) 
oracle

>  <origin>  (27) 
adg

>  <m_score__min__energy>  (27) 
-2.6699999999999999

>  <m_primary>  (27) 
energy

$$$$
28:0
     RDKit          3D

 46 48  0  0  0  0  0  0  0  0999 V2000
   59.5410   35.4840   45.5980 C   0  0  0  0  0  0  0  0  0  0  0  0
   59.6580   34.1800   46.3780 C   0  0  0  0  0  0  0  0  0  0  0  0
   58.3230   33.6230   46.6390 N   0  0  0  0  0  0  0  0  0  0  0  0
   57.4910   33.5880   45.4210 C   0  0  0  0  0  0  0  0  0  0  0  0
   57.9500   32.5350   44.3940 C   0  0  0  0  0  0  0  0  0  0  0  0
   57.7780   31.1120   44.8760 C   0  0  0  0  0  0  0  0  0  0  0  0
   56.6380   30.3900   44.4840 C   0  0  0  0  0  0  0  0  0  0  0  0
   56.4520   29.0730   44.9020 C   0  0  0  0  0  0  0  0  0  0  0  0
   57.4200   28.4390   45.6790 C   0  0  0  0  0  0  0  0  0  0  0  0
   57.2540   27.1370   46.0320 N   0  0  0  0  0  0  0  0  0  0  0  0
   58.1870   26.4580   46.7510 C   0  0  0  0  0  0  0  0  0  0  0  0
   57.9620   25.0100   47.0710 C   0  0  0  0  0  0  0  0  0  0  0  0
   57.2780   24.3500   45.9550 N   0  0  0  0  0  0  0  0  0  0  0  0
   55.9650   24.5470   45.6350 C   0  0  0  0  0  0  0  0  0  0  0  0
   55.1570   25.4450   46.3280 O   0  0  0  0  0  0  0  0  0  0  0  0
   55.4960   23.7830   44.5690 C   0  0  0  0  0  0  0  0  0  0  0  0
   56.7650   22.8180   44.0210 S   0  0  0  0  0  0  0  0  0  0  0  0
   57.8480   23.4170   45.1560 C   0  0  0  0  0  0  0  0  0  0  0  0
   59.0450   23.0400   45.2600 O   0  0  0  0  0  0  0  0  0  0  0  0
   59.3820   27.0940   47.1100 C   0  0  0  0  0  0  0  0  0  0  0  0
   59.5820   28.4310   46.7640 C   0  0  0  0  0  0  0  0  0  0  0  0
   58.5860   29.1400   46.0710 C   0  0  0  0  0  0  0  0  0  0  0  0
   58.7350   30.5010   45.7160 C   0  0  0  0  0  0  0  0  0  0  0  0
   59.8220   31.2560   46.1760 O   0  0  0  0  0  0  0  0  0  0  0  0
   60.2250   31.2530   47.5450 C   0  0  0  0  0  0  0  0  0  0  0  0
   59.4654   36.3264   46.3013 H   0  0  0  0  0  0  0  0  0  0  0  0
   60.4311   35.6137   44.9649 H   0  0  0  0  0  0  0  0  0  0  0  0
   58.6420   35.4531   44.9649 H   0  0  0  0  0  0  0  0  0  0  0  0
   60.2449   33.4575   45.7919 H   0  0  0  0  0  0  0  0  0  0  0  0
   60.1576   34.3793   47.3375 H   0  0  0  0  0  0  0  0  0  0  0  0
   58.4130   32.6650   47.0510 H   0  0  0  0  0  0  0  0  0  0  0  0
   56.4551   33.3611   45.7132 H   0  0  0  0  0  0  0  0  0  0  0  0
   57.5819   34.5723   44.9383 H   0  0  0  0  0  0  0  0  0  0  0  0
   57.3612   32.6652   43.4740 H   0  0  0  0  0  0  0  0  0  0  0  0
   59.0254   32.6931   44.2249 H   0  0  0  0  0  0  0  0  0  0  0  0
   55.8848   30.8687   43.8409 H   0  0  0  0  0  0  0  0  0  0  0  0
   55.5375   28.5320   44.6174 H   0  0  0  0  0  0  0  0  0  0  0  0
   58.9316   24.5204   47.2446 H   0  0  0  0  0  0  0  0  0  0  0  0
   57.3379   24.9325   47.9735 H   0  0  0  0  0  0  0  0  0  0  0  0
   55.5130   25.9650   47.1220 H   0  0  0  0  0  0  0  0  0  0  0  0
   54.4763   23.8054   44.1569 H   0  0  0  0  0  0  0  0  0  0  0  0
   60.1582   26.5430   47.6613 H   0  0  0  0  0  0  0  0  0  0  0  0
   60.5231   28.9320   47.0348 H   0  0  0  0  0  0  0  0  0  0  0  0
   59.3337   31.2596   48.1896 H   0  0  0  0  0  0  0  0  0  0  0  0
   60.8193   30.3504   47.7503 H   0  0  0  0  0  0  0  0  0  0  0  0
   60.8327   32.1466   47.7503 H   0  0  0  0  0  0  0  0  0  0  0  0
  1  2  1  0
  2  3  1  0
  3  4  1  0
  4  5  1  0
  5  6  1  0
  6  7  2  0
  7  8  1  0
  8  9  2  0
  9 10  1  0
 10 11  2  0
 11 12  1  0
 12 13  1  0
 13 14  1  0
 14 15  1  0
 14 16  2  0
 16 17  1  0
 17 18  1  0
 18 19  2  0
 11 20  1  0
 20 21  2  0
 21 22  1  0
 22 23  2  0
 23 24  1  0
 24 25  1  0
 23  6  1  0
 22  9  1  0
 18 13  1  0
  1 26  1  0
  1 27  1  0
  1 28  1  0
  2 29  1  0
  2 30  1  0
  3 31  1  0
  4 32  1  0
  4 33  1  0
  5 34  1  0
  5 35  1  0
  7 36  1  0
  8 37  1  0
 12 38  1  0
 12 39  1  0
 15 40  1  0
 16 41  1  0
 20 42  1  0
 21 43  1  0
 25 44  1  0
 25 45  1  0
 25 46  1  0
M  END
>  <UniqueID>  (28) 
28

>  <SMILES>  (28) 
CCNCCc1ccc2nc(Cn3c(O)csc3=O)ccc2c1OC

>  <Energy>  (28) 
84.19037313895268

>  <Genealogy>  (28) 
CCNCCc1ccc2nc(Cn3c(O)csc3=O)ccc2c1OC (3D coordinates assigned)
CCNCCc1ccc2nc(Cn3c(O)csc3=O)ccc2c1OC (optimized conformer: 84.19037313895268 kcal/mol)

>  <smiles>  (28) 
CCNCCc1ccc2nc(Cn3c(O)csc3=O)ccc2c1OC

>  <score_type>  (28) 
oracle

>  <origin>  (28) 
adg

>  <m_score__min__energy>  (28) 
-7.9500000000000002

>  <m_primary>  (28) 
energy

$$$$
29:0
     RDKit          3D

 50 52  0  0  0  0  0  0  0  0999 V2000
   61.2880   34.1910   48.9730 C   0  0  0  0  0  0  0  0  0  0  0  0
   62.8130   34.2410   48.9880 C   0  0  0  0  0  0  0  0  0  0  0  0
   63.3950   33.8570   47.6220 C   0  0  0  0  0  0  0  0  0  0  0  0
   64.0190   32.5270   47.6780 N   0  0  0  0  0  0  0  0  0  0  0  0
   63.0850   31.5380   48.2410 C   0  0  0  0  0  0  0  0  0  0  0  0
   62.2510   30.8630   47.1410 C   0  0  0  0  0  0  0  0  0  0  0  0
   60.8320   30.8390   47.5010 N   0  0  0  0  0  0  0  0  0  0  0  0
   59.7960   30.7520   46.5040 C   0  0  0  0  0  0  0  0  0  0  0  0
   59.4200   29.5020   45.9790 C   0  0  0  0  0  0  0  0  0  0  0  0
   60.0800   28.3170   46.3750 C   0  0  0  0  0  0  0  0  0  0  0  0
   59.7260   27.0870   45.8260 C   0  0  0  0  0  0  0  0  0  0  0  0
   58.7230   27.0160   44.8670 C   0  0  0  0  0  0  0  0  0  0  0  0
   58.0420   28.1680   44.4770 C   0  0  0  0  0  0  0  0  0  0  0  0
   58.3470   29.4290   45.0500 C   0  0  0  0  0  0  0  0  0  0  0  0
   57.6350   30.5670   44.7220 N   0  0  0  0  0  0  0  0  0  0  0  0
   56.3430   30.4530   44.0090 C   0  0  0  0  0  0  0  0  0  0  0  0
   58.1200   31.8120   45.0800 C   0  0  0  0  0  0  0  0  0  0  0  0
   57.5850   33.0050   44.5310 C   0  0  0  0  0  0  0  0  0  0  0  0
   58.0670   34.2560   44.9130 C   0  0  0  0  0  0  0  0  0  0  0  0
   59.1100   34.3590   45.8340 C   0  0  0  0  0  0  0  0  0  0  0  0
   59.6460   35.7020   46.2410 C   0  0  0  0  0  0  0  0  0  0  0  0
   59.6790   33.1970   46.3630 C   0  0  0  0  0  0  0  0  0  0  0  0
   59.1970   31.9200   45.9990 C   0  0  0  0  0  0  0  0  0  0  0  0
   60.9114   34.1787   50.0064 H   0  0  0  0  0  0  0  0  0  0  0  0
   60.8972   35.0768   48.4509 H   0  0  0  0  0  0  0  0  0  0  0  0
   60.9561   33.2815   48.4509 H   0  0  0  0  0  0  0  0  0  0  0  0
   63.1359   35.2616   49.2413 H   0  0  0  0  0  0  0  0  0  0  0  0
   63.1773   33.5215   49.7361 H   0  0  0  0  0  0  0  0  0  0  0  0
   62.5871   33.8456   46.8756 H   0  0  0  0  0  0  0  0  0  0  0  0
   64.1613   34.5956   47.3439 H   0  0  0  0  0  0  0  0  0  0  0  0
   64.8740   32.5710   48.2820 H   0  0  0  0  0  0  0  0  0  0  0  0
   64.2980   32.2430   46.7110 H   0  0  0  0  0  0  0  0  0  0  0  0
   63.6595   30.7684   48.7773 H   0  0  0  0  0  0  0  0  0  0  0  0
   62.3987   32.0603   48.9238 H   0  0  0  0  0  0  0  0  0  0  0  0
   62.3747   31.4216   46.2015 H   0  0  0  0  0  0  0  0  0  0  0  0
   62.6005   29.8269   47.0212 H   0  0  0  0  0  0  0  0  0  0  0  0
   60.5720   31.0980   48.4780 H   0  0  0  0  0  0  0  0  0  0  0  0
   60.8826   28.3666   47.1255 H   0  0  0  0  0  0  0  0  0  0  0  0
   60.2408   26.1711   46.1518 H   0  0  0  0  0  0  0  0  0  0  0  0
   58.4655   26.0473   44.4140 H   0  0  0  0  0  0  0  0  0  0  0  0
   57.2548   28.0979   43.7119 H   0  0  0  0  0  0  0  0  0  0  0  0
   55.5253   30.3808   44.7412 H   0  0  0  0  0  0  0  0  0  0  0  0
   56.1928   31.3414   43.3780 H   0  0  0  0  0  0  0  0  0  0  0  0
   56.3507   29.5520   43.3780 H   0  0  0  0  0  0  0  0  0  0  0  0
   56.7746   32.9421   43.7899 H   0  0  0  0  0  0  0  0  0  0  0  0
   57.6226   35.1671   44.4859 H   0  0  0  0  0  0  0  0  0  0  0  0
   59.6727   35.7688   47.3386 H   0  0  0  0  0  0  0  0  0  0  0  0
   60.6631   35.8274   45.8412 H   0  0  0  0  0  0  0  0  0  0  0  0
   58.9947   36.4932   45.8412 H   0  0  0  0  0  0  0  0  0  0  0  0
   60.5148   33.2782   47.0735 H   0  0  0  0  0  0  0  0  0  0  0  0
  1  2  1  0
  2  3  1  0
  3  4  1  0
  4  5  1  0
  5  6  1  0
  6  7  1  0
  7  8  1  0
  8  9  2  0
  9 10  1  0
 10 11  2  0
 11 12  1  0
 12 13  2  0
 13 14  1  0
 14 15  2  0
 15 16  1  0
 15 17  1  0
 17 18  2  0
 18 19  1  0
 19 20  2  0
 20 21  1  0
 20 22  1  0
 22 23  2  0
 23  8  1  0
 14  9  1  0
 23 17  1  0
  1 24  1  0
  1 25  1  0
  1 26  1  0
  2 27  1  0
  2 28  1  0
  3 29  1  0
  3 30  1  0
  4 31  1  0
  4 32  1  0
  5 33  1  0
  5 34  1  0
  6 35  1  0
  6 36  1  0
  7 37  1  0
 10 38  1  0
 11 39  1  0
 12 40  1  0
 13 41  1  0
 16 42  1  0
 16 43  1  0
 16 44  1  0
 18 45  1  0
 19 46  1  0
 21 47  1  0
 21 48  1  0
 21 49  1  0
 22 50  1  0
M  CHG  2   4   1  15   1
M  END
>  <UniqueID>  (29) 
29

>  <SMILES>  (29) 
CCC[NH2+]CCNc1c2ccccc2[n+](C)c2ccc(C)cc12

>  <Energy>  (29) 
68.5859791268118

>  <Genealogy>  (29) 
CCC[NH2+]CCNc1c2ccccc2[n+](C)c2ccc(C)cc12 (protonated)
CCC[NH2+]CCNc1c2ccccc2[n+](C)c2ccc(C)cc12 (3D coordinates assigned)
CCC[NH2+]CCNc1c2ccccc2[n+](C)c2ccc(C)cc12 (optimized conformer: 68.5859791268118 kcal/mol)

>  <smiles>  (29) 
CCCNCCNc1c2ccccc2[n+](C)c2ccc(C)cc12

>  <score_type>  (29) 
oracle

>  <origin>  (29) 
adg

>  <m_score__min__energy>  (29) 
-4.5099999999999998

>  <m_primary>  (29) 
energy

$$$$
30:0
     RDKit          3D

 54 54  0  0  0  0  0  0  0  0999 V2000
   59.5120   28.5910   47.6240 C   0  0  0  0  0  0  0  0  0  0  0  0
   60.7540   29.4730   47.6910 C   0  0  0  0  0  0  0  0  0  0  0  0
   60.5060   30.6120   48.4980 O   0  0  0  0  0  0  0  0  0  0  0  0
   59.2770   30.4910   49.1930 C   0  0  0  0  0  0  0  0  0  0  0  0
   58.6820   31.8770   49.4650 C   0  0  0  0  0  0  0  0  0  0  0  0
   59.6400   32.8840   49.2020 O   0  0  0  0  0  0  0  0  0  0  0  0
   59.7200   33.8090   50.2720 C   0  0  0  0  0  0  0  0  0  0  0  0
   60.8550   33.4260   51.2150 C   0  0  0  0  0  0  0  0  0  0  0  0
   61.6580   32.3640   50.5930 N   0  0  0  0  0  0  0  0  0  0  0  0
   63.0590   32.7640   50.3960 C   0  0  0  0  0  0  0  0  0  0  0  0
   63.6960   31.9940   49.2270 C   0  0  0  0  0  0  0  0  0  0  0  0
   63.2500   32.5510   47.8580 C   0  0  0  0  0  0  0  0  0  0  0  0
   61.8420   32.9930   47.8680 N   0  0  0  0  0  0  0  0  0  0  0  0
   61.4860   33.8340   46.7020 C   0  0  0  0  0  0  0  0  0  0  0  0
   60.0270   34.3290   46.7410 C   0  0  0  0  0  0  0  0  0  0  0  0
   59.0770   33.3550   46.0940 C   0  0  0  0  0  0  0  0  0  0  0  0
   59.3780   31.9850   46.0520 C   0  0  0  0  0  0  0  0  0  0  0  0
   58.5050   31.0890   45.4250 C   0  0  0  0  0  0  0  0  0  0  0  0
   57.3130   31.5470   44.8360 C   0  0  0  0  0  0  0  0  0  0  0  0
   56.4130   30.6280   44.1900 N   0  0  0  0  0  0  0  0  0  0  0  0
   55.6010   29.9550   44.8570 O   0  0  0  0  0  0  0  0  0  0  0  0
   56.4240   30.4850   42.8210 O   0  0  0  0  0  0  0  0  0  0  0  0
   57.0130   32.9190   44.8840 C   0  0  0  0  0  0  0  0  0  0  0  0
   57.8920   33.8150   45.5010 C   0  0  0  0  0  0  0  0  0  0  0  0
   59.1762   28.3525   48.6440 H   0  0  0  0  0  0  0  0  0  0  0  0
   58.7119   29.1244   47.0898 H   0  0  0  0  0  0  0  0  0  0  0  0
   59.7519   27.6598   47.0898 H   0  0  0  0  0  0  0  0  0  0  0  0
   61.5855   28.8966   48.1227 H   0  0  0  0  0  0  0  0  0  0  0  0
   61.0127   29.8043   46.6745 H   0  0  0  0  0  0  0  0  0  0  0  0
   58.5717   29.9063   48.5842 H   0  0  0  0  0  0  0  0  0  0  0  0
   59.4565   29.9837   50.1524 H   0  0  0  0  0  0  0  0  0  0  0  0
   57.8074   32.0300   48.8156 H   0  0  0  0  0  0  0  0  0  0  0  0
   58.3824   31.9361   50.5218 H   0  0  0  0  0  0  0  0  0  0  0  0
   59.9063   34.8155   49.8691 H   0  0  0  0  0  0  0  0  0  0  0  0
   58.7713   33.7970   50.8286 H   0  0  0  0  0  0  0  0  0  0  0  0
   61.4892   34.3046   51.4043 H   0  0  0  0  0  0  0  0  0  0  0  0
   60.4401   33.0672   52.1685 H   0  0  0  0  0  0  0  0  0  0  0  0
   61.2430   32.1490   49.6550 H   0  0  0  0  0  0  0  0  0  0  0  0
   63.0978   33.8418   50.1797 H   0  0  0  0  0  0  0  0  0  0  0  0
   63.6204   32.5331   51.3134 H   0  0  0  0  0  0  0  0  0  0  0  0
   64.7905   32.0734   49.3035 H   0  0  0  0  0  0  0  0  0  0  0  0
   63.3684   30.9459   49.2911 H   0  0  0  0  0  0  0  0  0  0  0  0
   63.8886   33.4084   47.5993 H   0  0  0  0  0  0  0  0  0  0  0  0
   63.3451   31.7432   47.1175 H   0  0  0  0  0  0  0  0  0  0  0  0
   61.6560   33.5290   48.7480 H   0  0  0  0  0  0  0  0  0  0  0  0
   61.2280   32.1460   47.9090 H   0  0  0  0  0  0  0  0  0  0  0  0
   62.1528   34.7087   46.6838 H   0  0  0  0  0  0  0  0  0  0  0  0
   61.5994   33.2132   45.8010 H   0  0  0  0  0  0  0  0  0  0  0  0
   59.7290   34.4702   47.7904 H   0  0  0  0  0  0  0  0  0  0  0  0
   59.9762   35.2734   46.1792 H   0  0  0  0  0  0  0  0  0  0  0  0
   60.3046   31.6137   46.5141 H   0  0  0  0  0  0  0  0  0  0  0  0
   58.7531   30.0178   45.3926 H   0  0  0  0  0  0  0  0  0  0  0  0
   56.0809   33.2907   44.4334 H   0  0  0  0  0  0  0  0  0  0  0  0
   57.6522   34.8884   45.5214 H   0  0  0  0  0  0  0  0  0  0  0  0
  1  2  1  0
  2  3  1  0
  3  4  1  0
  4  5  1  0
  5  6  1  0
  6  7  1  0
  7  8  1  0
  8  9  1  0
  9 10  1  0
 10 11  1  0
 11 12  1  0
 12 13  1  0
 13 14  1  0
 14 15  1  0
 15 16  1  0
 16 17  2  0
 17 18  1  0
 18 19  2  0
 19 20  1  0
 20 21  2  0
 20 22  1  0
 19 23  1  0
 23 24  2  0
 24 16  1  0
  1 25  1  0
  1 26  1  0
  1 27  1  0
  2 28  1  0
  2 29  1  0
  4 30  1  0
  4 31  1  0
  5 32  1  0
  5 33  1  0
  7 34  1  0
  7 35  1  0
  8 36  1  0
  8 37  1  0
  9 38  1  0
 10 39  1  0
 10 40  1  0
 11 41  1  0
 11 42  1  0
 12 43  1  0
 12 44  1  0
 13 45  1  0
 13 46  1  0
 14 47  1  0
 14 48  1  0
 15 49  1  0
 15 50  1  0
 17 51  1  0
 18 52  1  0
 23 53  1  0
 24 54  1  0
M  CHG  3  13   1  20   1  22  -1
M  END
>  <UniqueID>  (30) 
30

>  <SMILES>  (30) 
CCOCCOCCNCCC[NH2+]CCc1ccc([N+](=O)[O-])cc1

>  <Energy>  (30) 
46.67577357574756

>  <Genealogy>  (30) 
CCOCCOCCNCCC[NH2+]CCc1ccc([N+](=O)[O-])cc1 (protonated)
CCOCCOCCNCCC[NH2+]CCc1ccc([N+](=O)[O-])cc1 (3D coordinates assigned)
CCOCCOCCNCCC[NH2+]CCc1ccc([N+](=O)[O-])cc1 (optimized conformer: 46.67577357574756 kcal/mol)

>  <smiles>  (30) 
CCOCCOCCNCCCNCCc1ccc([N+](=O)[O-])cc1

>  <score_type>  (30) 
oracle

>  <origin>  (30) 
adg

>  <m_score__min__energy>  (30) 
-4.2999999999999998

>  <m_primary>  (30) 
energy

$$$$
31:0
     RDKit          3D

 73 75  0  0  0  0  0  0  0  0999 V2000
   63.1130   33.5070   46.7510 C   0  0  0  0  0  0  0  0  0  0  0  0
   62.9010   32.1080   47.3250 C   0  0  0  0  0  0  0  0  0  0  0  0
   62.3230   32.1930   48.6850 N   0  0  0  0  0  0  0  0  0  0  0  0
   62.3340   33.5860   49.1880 C   0  0  0  0  0  0  0  0  0  0  0  0
   61.1230   33.8310   50.0840 C   0  0  0  0  0  0  0  0  0  0  0  0
   63.0200   31.2820   49.6230 C   0  0  0  0  0  0  0  0  0  0  0  0
   62.0070   30.4520   50.4090 C   0  0  0  0  0  0  0  0  0  0  0  0
   61.2640   29.6560   49.5090 O   0  0  0  0  0  0  0  0  0  0  0  0
   60.1090   29.1640   50.1560 C   0  0  0  0  0  0  0  0  0  0  0  0
   59.2880   30.3460   50.6830 C   0  0  0  0  0  0  0  0  0  0  0  0
   58.6350   31.1690   49.5590 C   0  0  0  0  0  0  0  0  0  0  0  0
   59.5290   31.3600   48.4090 N   0  0  0  0  0  0  0  0  0  0  0  0
   59.0560   31.5290   47.0610 C   0  0  0  0  0  0  0  0  0  0  0  0
   59.0810   32.8050   46.4690 C   0  0  0  0  0  0  0  0  0  0  0  0
   59.4770   33.9380   47.2110 C   0  0  0  0  0  0  0  0  0  0  0  0
   59.5850   35.1850   46.6040 C   0  0  0  0  0  0  0  0  0  0  0  0
   59.3170   35.3240   45.2480 C   0  0  0  0  0  0  0  0  0  0  0  0
   58.9080   34.2220   44.4970 C   0  0  0  0  0  0  0  0  0  0  0  0
   58.7460   32.9460   45.0950 C   0  0  0  0  0  0  0  0  0  0  0  0
   58.3080   31.8540   44.3700 N   0  0  0  0  0  0  0  0  0  0  0  0
   57.7170   32.0470   43.0260 C   0  0  0  0  0  0  0  0  0  0  0  0
   58.3900   30.5830   44.9110 C   0  0  0  0  0  0  0  0  0  0  0  0
   58.2000   29.4220   44.1220 C   0  0  0  0  0  0  0  0  0  0  0  0
   58.2170   28.1510   44.6940 C   0  0  0  0  0  0  0  0  0  0  0  0
   58.4040   27.9930   46.0690 C   0  0  0  0  0  0  0  0  0  0  0  0
   58.4140   26.6750   46.6620 N   0  0  0  0  0  0  0  0  0  0  0  0
   57.5740   25.6080   46.0930 C   0  0  0  0  0  0  0  0  0  0  0  0
   56.1020   26.0070   46.1220 C   0  0  0  0  0  0  0  0  0  0  0  0
   59.2600   26.4030   47.8370 C   0  0  0  0  0  0  0  0  0  0  0  0
   60.7220   26.7340   47.5460 C   0  0  0  0  0  0  0  0  0  0  0  0
   58.6220   29.1270   46.8590 C   0  0  0  0  0  0  0  0  0  0  0  0
   58.6910   30.4130   46.2870 C   0  0  0  0  0  0  0  0  0  0  0  0
   63.2223   34.2284   47.5742 H   0  0  0  0  0  0  0  0  0  0  0  0
   64.0227   33.5156   46.1327 H   0  0  0  0  0  0  0  0  0  0  0  0
   62.2467   33.7848   46.1327 H   0  0  0  0  0  0  0  0  0  0  0  0
   62.2140   31.5485   46.6730 H   0  0  0  0  0  0  0  0  0  0  0  0
   63.8714   31.5930   47.3801 H   0  0  0  0  0  0  0  0  0  0  0  0
   63.2543   33.7567   49.7659 H   0  0  0  0  0  0  0  0  0  0  0  0
   62.2944   34.2772   48.3332 H   0  0  0  0  0  0  0  0  0  0  0  0
   61.4288   33.7691   51.1388 H   0  0  0  0  0  0  0  0  0  0  0  0
   60.7118   34.8305   49.8795 H   0  0  0  0  0  0  0  0  0  0  0  0
   60.3556   33.0699   49.8795 H   0  0  0  0  0  0  0  0  0  0  0  0
   63.6769   30.6082   49.0533 H   0  0  0  0  0  0  0  0  0  0  0  0
   63.6144   31.8816   50.3280 H   0  0  0  0  0  0  0  0  0  0  0  0
   62.5365   29.8041   51.1231 H   0  0  0  0  0  0  0  0  0  0  0  0
   61.3286   31.1199   50.9601 H   0  0  0  0  0  0  0  0  0  0  0  0
   59.5050   28.5852   49.4418 H   0  0  0  0  0  0  0  0  0  0  0  0
   60.4018   28.5133   50.9932 H   0  0  0  0  0  0  0  0  0  0  0  0
   58.4956   29.9580   51.3399 H   0  0  0  0  0  0  0  0  0  0  0  0
   59.9770   31.0123   51.2228 H   0  0  0  0  0  0  0  0  0  0  0  0
   57.7296   30.6452   49.2187 H   0  0  0  0  0  0  0  0  0  0  0  0
   58.3983   32.1628   49.9669 H   0  0  0  0  0  0  0  0  0  0  0  0
   60.5600   31.2650   48.5620 H   0  0  0  0  0  0  0  0  0  0  0  0
   59.7031   33.8339   48.2825 H   0  0  0  0  0  0  0  0  0  0  0  0
   59.8828   36.0616   47.1981 H   0  0  0  0  0  0  0  0  0  0  0  0
   59.4277   36.3061   44.7651 H   0  0  0  0  0  0  0  0  0  0  0  0
   58.7076   34.3446   43.4224 H   0  0  0  0  0  0  0  0  0  0  0  0
   56.6759   32.3870   43.1286 H   0  0  0  0  0  0  0  0  0  0  0  0
   58.2969   32.8025   42.4755 H   0  0  0  0  0  0  0  0  0  0  0  0
   57.7392   31.0949   42.4755 H   0  0  0  0  0  0  0  0  0  0  0  0
   58.0362   29.5252   43.0392 H   0  0  0  0  0  0  0  0  0  0  0  0
   58.0819   27.2646   44.0568 H   0  0  0  0  0  0  0  0  0  0  0  0
   57.8782   25.4256   45.0517 H   0  0  0  0  0  0  0  0  0  0  0  0
   57.7051   24.6963   46.6943 H   0  0  0  0  0  0  0  0  0  0  0  0
   55.7672   26.0977   47.1659 H   0  0  0  0  0  0  0  0  0  0  0  0
   55.9736   26.9724   45.6105 H   0  0  0  0  0  0  0  0  0  0  0  0
   55.5037   25.2386   45.6105 H   0  0  0  0  0  0  0  0  0  0  0  0
   58.9128   27.0178   48.6805 H   0  0  0  0  0  0  0  0  0  0  0  0
   59.1848   25.3336   48.0835 H   0  0  0  0  0  0  0  0  0  0  0  0
   61.2658   26.8571   48.4942 H   0  0  0  0  0  0  0  0  0  0  0  0
   61.1750   25.9157   46.9671 H   0  0  0  0  0  0  0  0  0  0  0  0
   60.7784   27.6676   46.9671 H   0  0  0  0  0  0  0  0  0  0  0  0
   58.7417   29.0126   47.9465 H   0  0  0  0  0  0  0  0  0  0  0  0
  1  2  1  0
  2  3  1  0
  3  4  1  0
  4  5  1  0
  3  6  1  0
  6  7  1  0
  7  8  1  0
  8  9  1  0
  9 10  1  0
 10 11  1  0
 11 12  1  0
 12 13  1  0
 13 14  2  0
 14 15  1  0
 15 16  2  0
 16 17  1  0
 17 18  2  0
 18 19  1  0
 19 20  2  0
 20 21  1  0
 20 22  1  0
 22 23  2  0
 23 24  1  0
 24 25  2  0
 25 26  1  0
 26 27  1  0
 27 28  1  0
 26 29  1  0
 29 30  1  0
 25 31  1  0
 31 32  2  0
 32 13  1  0
 19 14  1  0
 32 22  1  0
  1 33  1  0
  1 34  1  0
  1 35  1  0
  2 36  1  0
  2 37  1  0
  4 38  1  0
  4 39  1  0
  5 40  1  0
  5 41  1  0
  5 42  1  0
  6 43  1  0
  6 44  1  0
  7 45  1  0
  7 46  1  0
  9 47  1  0
  9 48  1  0
 10 49  1  0
 10 50  1  0
 11 51  1  0
 11 52  1  0
 12 53  1  0
 15 54  1  0
 16 55  1  0
 17 56  1  0
 18 57  1  0
 21 58  1  0
 21 59  1  0
 21 60  1  0
 23 61  1  0
 24 62  1  0
 27 63  1  0
 27 64  1  0
 28 65  1  0
 28 66  1  0
 28 67  1  0
 29 68  1  0
 29 69  1  0
 30 70  1  0
 30 71  1  0
 30 72  1  0
 31 73  1  0
M  CHG  1  20   1
M  END
>  <UniqueID>  (31) 
31

>  <SMILES>  (31) 
CCN(CC)CCOCCCNc1c2ccccc2[n+](C)c2ccc(N(CC)CC)cc12

>  <Energy>  (31) 
91.03520461293309

>  <Genealogy>  (31) 
CCN(CC)CCOCCCNc1c2ccccc2[n+](C)c2ccc(N(CC)CC)cc12 (3D coordinates assigned)
CCN(CC)CCOCCCNc1c2ccccc2[n+](C)c2ccc(N(CC)CC)cc12 (optimized conformer: 91.03520461293309 kcal/mol)

>  <smiles>  (31) 
CCN(CC)CCOCCCNc1c2ccccc2[n+](C)c2ccc(N(CC)CC)cc12

>  <score_type>  (31) 
oracle

>  <origin>  (31) 
adg

>  <m_score__min__energy>  (31) 
-5.8799999999999999

>  <m_primary>  (31) 
energy

$$$$
32:0
     RDKit          3D

 44 46  0  0  0  0  0  0  0  0999 V2000
   55.9490   23.7610   43.7960 C   0  0  0  0  0  0  0  0  0  0  0  0
   57.2400   24.4750   43.3830 C   0  0  0  0  0  0  0  0  0  0  0  0
   57.4050   25.7760   44.0560 N   0  0  0  0  0  0  0  0  0  0  0  0
   57.2860   25.6620   45.5190 C   0  0  0  0  0  0  0  0  0  0  0  0
   56.9230   27.0020   46.1750 C   0  0  0  0  0  0  0  0  0  0  0  0
   56.1960   27.8420   45.2760 O   0  0  0  0  0  0  0  0  0  0  0  0
   56.6120   29.0860   44.7690 C   0  0  0  0  0  0  0  0  0  0  0  0
   56.2090   29.5810   43.5150 C   0  0  0  0  0  0  0  0  0  0  0  0
   56.6610   30.8260   43.0720 C   0  0  0  0  0  0  0  0  0  0  0  0
   57.5210   31.5860   43.8650 C   0  0  0  0  0  0  0  0  0  0  0  0
   57.9410   31.1090   45.1190 C   0  0  0  0  0  0  0  0  0  0  0  0
   58.8540   31.9150   45.9660 C   0  0  0  0  0  0  0  0  0  0  0  0
   58.4920   33.2140   46.3680 C   0  0  0  0  0  0  0  0  0  0  0  0
   59.3480   33.9790   47.1650 C   0  0  0  0  0  0  0  0  0  0  0  0
   60.5830   33.4590   47.5740 C   0  0  0  0  0  0  0  0  0  0  0  0
   61.4500   34.2200   48.3740 C   0  0  0  0  0  0  0  0  0  0  0  0
   62.6790   33.6900   48.7770 C   0  0  0  0  0  0  0  0  0  0  0  0
   63.0510   32.4010   48.3870 C   0  0  0  0  0  0  0  0  0  0  0  0
   62.1970   31.6340   47.5890 C   0  0  0  0  0  0  0  0  0  0  0  0
   60.9610   32.1550   47.1770 C   0  0  0  0  0  0  0  0  0  0  0  0
   60.0940   31.3930   46.3760 C   0  0  0  0  0  0  0  0  0  0  0  0
   57.4790   29.8540   45.5580 C   0  0  0  0  0  0  0  0  0  0  0  0
   55.8847   23.7254   44.8935 H   0  0  0  0  0  0  0  0  0  0  0  0
   55.0830   24.3084   43.3955 H   0  0  0  0  0  0  0  0  0  0  0  0
   55.9524   22.7365   43.3955 H   0  0  0  0  0  0  0  0  0  0  0  0
   58.0958   23.8336   43.6403 H   0  0  0  0  0  0  0  0  0  0  0  0
   57.1867   24.6628   42.3005 H   0  0  0  0  0  0  0  0  0  0  0  0
   56.6460   26.4060   43.7060 H   0  0  0  0  0  0  0  0  0  0  0  0
   58.3300   26.1950   43.8000 H   0  0  0  0  0  0  0  0  0  0  0  0
   56.5018   24.9276   45.7550 H   0  0  0  0  0  0  0  0  0  0  0  0
   58.2621   25.3445   45.9146 H   0  0  0  0  0  0  0  0  0  0  0  0
   56.3047   26.8094   47.0642 H   0  0  0  0  0  0  0  0  0  0  0  0
   57.8553   27.5159   46.4520 H   0  0  0  0  0  0  0  0  0  0  0  0
   55.5355   28.9853   42.8813 H   0  0  0  0  0  0  0  0  0  0  0  0
   56.3373   31.2092   42.0930 H   0  0  0  0  0  0  0  0  0  0  0  0
   57.8728   32.5648   43.5068 H   0  0  0  0  0  0  0  0  0  0  0  0
   57.5249   33.6318   46.0516 H   0  0  0  0  0  0  0  0  0  0  0  0
   59.0511   34.9927   47.4722 H   0  0  0  0  0  0  0  0  0  0  0  0
   61.1616   35.2352   48.6842 H   0  0  0  0  0  0  0  0  0  0  0  0
   63.3556   34.2898   49.4034 H   0  0  0  0  0  0  0  0  0  0  0  0
   64.0186   31.9885   48.7088 H   0  0  0  0  0  0  0  0  0  0  0  0
   62.4946   30.6200   47.2835 H   0  0  0  0  0  0  0  0  0  0  0  0
   60.3876   30.3790   46.0667 H   0  0  0  0  0  0  0  0  0  0  0  0
   57.8037   29.4698   46.5362 H   0  0  0  0  0  0  0  0  0  0  0  0
  1  2  1  0
  2  3  1  0
  3  4  1  0
  4  5  1  0
  5  6  1  0
  6  7  1  0
  7  8  2  0
  8  9  1  0
  9 10  2  0
 10 11  1  0
 11 12  1  0
 12 13  2  0
 13 14  1  0
 14 15  2  0
 15 16  1  0
 16 17  2  0
 17 18  1  0
 18 19  2  0
 19 20  1  0
 20 21  2  0
 11 22  2  0
 22  7  1  0
 21 12  1  0
 20 15  1  0
  1 23  1  0
  1 24  1  0
  1 25  1  0
  2 26  1  0
  2 27  1  0
  3 28  1  0
  3 29  1  0
  4 30  1  0
  4 31  1  0
  5 32  1  0
  5 33  1  0
  8 34  1  0
  9 35  1  0
 10 36  1  0
 13 37  1  0
 14 38  1  0
 16 39  1  0
 17 40  1  0
 18 41  1  0
 19 42  1  0
 21 43  1  0
 22 44  1  0
M  CHG  1   3   1
M  END
>  <UniqueID>  (32) 
32

>  <SMILES>  (32) 
CC[NH2+]CCOc1cccc(-c2ccc3ccccc3c2)c1

>  <Energy>  (32) 
52.934877963018806

>  <Genealogy>  (32) 
CC[NH2+]CCOc1cccc(-c2ccc3ccccc3c2)c1 (protonated)
CC[NH2+]CCOc1cccc(-c2ccc3ccccc3c2)c1 (3D coordinates assigned)
CC[NH2+]CCOc1cccc(-c2ccc3ccccc3c2)c1 (optimized conformer: 52.934877963018806 kcal/mol)

>  <smiles>  (32) 
CCNCCOc1cccc(-c2ccc3ccccc3c2)c1

>  <score_type>  (32) 
oracle

>  <origin>  (32) 
adg

>  <m_score__min__energy>  (32) 
-6.6299999999999999

>  <m_primary>  (32) 
energy

$$$$
