0:0
     RDKit          3D

 43 45  0  0  0  0  0  0  0  0999 V2000
   68.6250   32.7240   52.0620 C   0  0  0  0  0  0  0  0  0  0  0  0
   67.8250   33.3790   51.0160 N   0  0  0  0  0  0  0  0  0  0  0  0
   68.6680   34.1910   50.1260 C   0  0  0  0  0  0  0  0  0  0  0  0
   66.9350   32.4410   50.2900 C   0  0  0  0  0  0  0  0  0  0  0  0
   65.4290   32.6970   50.4800 C   0  0  0  0  0  0  0  0  0  0  0  0
   64.9490   33.5920   49.4800 O   0  0  0  0  0  0  0  0  0  0  0  0
   63.7060   33.4760   48.8390 C   0  0  0  0  0  0  0  0  0  0  0  0
   63.6630   33.6070   47.4470 C   0  0  0  0  0  0  0  0  0  0  0  0
   62.4510   33.4950   46.7610 C   0  0  0  0  0  0  0  0  0  0  0  0
   61.2590   33.2400   47.4590 C   0  0  0  0  0  0  0  0  0  0  0  0
   59.9700   33.1310   46.7420 C   0  0  0  0  0  0  0  0  0  0  0  0
   59.1760   34.2460   46.4630 C   0  0  0  0  0  0  0  0  0  0  0  0
   57.7990   33.7440   45.6300 S   0  0  0  0  0  0  0  0  0  0  0  0
   58.1940   32.1130   45.6250 C   0  0  0  0  0  0  0  0  0  0  0  0
   59.3980   31.9230   46.2860 C   0  0  0  0  0  0  0  0  0  0  0  0
   59.9800   30.5390   46.4480 C   0  0  0  0  0  0  0  0  0  0  0  0
   58.8730   29.4660   46.4230 C   0  0  0  0  0  0  0  0  0  0  0  0
   57.9520   29.6080   45.1950 C   0  0  0  0  0  0  0  0  0  0  0  0
   57.4030   31.0040   45.0860 C   0  0  0  0  0  0  0  0  0  0  0  0
   56.3080   31.2190   44.5010 O   0  0  0  0  0  0  0  0  0  0  0  0
   61.3000   33.1240   48.8580 C   0  0  0  0  0  0  0  0  0  0  0  0
   62.5120   33.2360   49.5450 C   0  0  0  0  0  0  0  0  0  0  0  0
   68.2537   33.0280   53.0518 H   0  0  0  0  0  0  0  0  0  0  0  0
   68.5408   31.6321   51.9582 H   0  0  0  0  0  0  0  0  0  0  0  0
   69.6788   33.0220   51.9582 H   0  0  0  0  0  0  0  0  0  0  0  0
   69.3303   34.8290   50.7296 H   0  0  0  0  0  0  0  0  0  0  0  0
   69.2752   33.5289   49.4913 H   0  0  0  0  0  0  0  0  0  0  0  0
   68.0291   34.8226   49.4913 H   0  0  0  0  0  0  0  0  0  0  0  0
   67.1616   32.5171   49.2163 H   0  0  0  0  0  0  0  0  0  0  0  0
   67.1330   31.4428   50.7076 H   0  0  0  0  0  0  0  0  0  0  0  0
   64.8864   31.7432   50.4039 H   0  0  0  0  0  0  0  0  0  0  0  0
   65.2647   33.1462   51.4706 H   0  0  0  0  0  0  0  0  0  0  0  0
   64.5906   33.7997   46.8881 H   0  0  0  0  0  0  0  0  0  0  0  0
   62.4301   33.6073   45.6669 H   0  0  0  0  0  0  0  0  0  0  0  0
   59.4112   35.2838   46.7418 H   0  0  0  0  0  0  0  0  0  0  0  0
   60.6852   30.3471   45.6259 H   0  0  0  0  0  0  0  0  0  0  0  0
   60.4952   30.4876   47.4185 H   0  0  0  0  0  0  0  0  0  0  0  0
   59.3436   28.4720   46.3998 H   0  0  0  0  0  0  0  0  0  0  0  0
   58.2563   29.5960   47.3245 H   0  0  0  0  0  0  0  0  0  0  0  0
   58.5271   29.3766   44.2863 H   0  0  0  0  0  0  0  0  0  0  0  0
   57.1094   28.9100   45.3087 H   0  0  0  0  0  0  0  0  0  0  0  0
   60.3704   32.9435   49.4178 H   0  0  0  0  0  0  0  0  0  0  0  0
   62.5329   33.1363   50.6403 H   0  0  0  0  0  0  0  0  0  0  0  0
  1  2  1  0
  2  3  1  0
  2  4  1  0
  4  5  1  0
  5  6  1  0
  6  7  1  0
  7  8  2  0
  8  9  1  0
  9 10  2  0
 10 11  1  0
 11 12  2  0
 12 13  1  0
 13 14  1  0
 14 15  2  0
 15 16  1  0
 16 17  1  0
 17 18  1  0
 18 19  1  0
 19 20  2  0
 10 21  1  0
 21 22  2  0
 22  7  1  0
 15 11  1  0
 19 14  1  0
  1 23  1  0
  1 24  1  0
  1 25  1  0
  3 26  1  0
  3 27  1  0
  3 28  1  0
  4 29  1  0
  4 30  1  0
  5 31  1  0
  5 32  1  0
  8 33  1  0
  9 34  1  0
 12 35  1  0
 16 36  1  0
 16 37  1  0
 17 38  1  0
 17 39  1  0
 18 40  1  0
 18 41  1  0
 21 42  1  0
 22 43  1  0
M  END
>  <UniqueID>  (1) 
1

>  <SMILES>  (1) 
CN(C)CCOc1ccc(-c2csc3c2CCCC3=O)cc1

>  <Energy>  (1) 
76.80942930636768

>  <Genealogy>  (1) 
CN(C)CCOc1ccc(-c2csc3c2CCCC3=O)cc1 (3D coordinates assigned)
CN(C)CCOc1ccc(-c2csc3c2CCCC3=O)cc1 (nonaromatic ring conformer: 76.80942930636768 kcal/mol)

>  <smiles>  (1) 
CN(C)CCOc1ccc(-c2csc3c2CCCC3=O)cc1

>  <score_type>  (1) 
oracle

>  <origin>  (1) 
adg

>  <m_score__min__energy>  (1) 
-7.1799999999999997

>  <m_primary>  (1) 
energy

$$$$
1:0
     RDKit          3D

 59 61  0  0  0  0  0  0  0  0999 V2000
   59.9720   35.0000   46.0930 C   0  0  0  0  0  0  0  0  0  0  0  0
   58.7090   34.5660   46.8510 C   0  0  0  0  0  0  0  0  0  0  0  0
   59.0190   33.8720   48.1120 N   0  0  0  0  0  0  0  0  0  0  0  0
   58.1380   32.7200   48.3390 C   0  0  0  0  0  0  0  0  0  0  0  0
   58.5160   32.0090   49.6440 C   0  0  0  0  0  0  0  0  0  0  0  0
   59.5200   32.8030   50.4830 C   0  0  0  0  0  0  0  0  0  0  0  0
   60.8100   32.7050   49.9100 O   0  0  0  0  0  0  0  0  0  0  0  0
   61.5160   33.9250   50.0520 C   0  0  0  0  0  0  0  0  0  0  0  0
   62.5140   34.1200   48.9030 C   0  0  0  0  0  0  0  0  0  0  0  0
   62.0800   33.4470   47.7340 O   0  0  0  0  0  0  0  0  0  0  0  0
   62.8930   32.3210   47.4490 C   0  0  0  0  0  0  0  0  0  0  0  0
   62.0340   31.0960   47.1270 C   0  0  0  0  0  0  0  0  0  0  0  0
   60.6110   31.4220   47.2030 N   0  0  0  0  0  0  0  0  0  0  0  0
   59.6530   30.4890   46.7680 N   0  0  0  0  0  0  0  0  0  0  0  0
   58.7450   30.6810   45.7810 C   0  0  0  0  0  0  0  0  0  0  0  0
   58.0670   29.4980   45.5110 C   0  0  0  0  0  0  0  0  0  0  0  0
   58.5820   28.5580   46.3840 C   0  0  0  0  0  0  0  0  0  0  0  0
   58.3010   27.2020   46.5360 C   0  0  0  0  0  0  0  0  0  0  0  0
   59.0620   26.4790   47.4760 C   0  0  0  0  0  0  0  0  0  0  0  0
   60.0810   27.1180   48.2210 C   0  0  0  0  0  0  0  0  0  0  0  0
   60.3410   28.4910   48.0510 C   0  0  0  0  0  0  0  0  0  0  0  0
   59.5580   29.1920   47.1310 C   0  0  0  0  0  0  0  0  0  0  0  0
   56.9230   29.3840   44.5530 C   0  0  0  0  0  0  0  0  0  0  0  0
   56.9270   30.5710   43.5660 C   0  0  0  0  0  0  0  0  0  0  0  0
   57.1780   31.9150   44.2820 C   0  0  0  0  0  0  0  0  0  0  0  0
   58.5460   31.9390   44.9870 C   0  0  0  0  0  0  0  0  0  0  0  0
   60.7577   35.2700   46.8139 H   0  0  0  0  0  0  0  0  0  0  0  0
   60.3234   34.1711   45.4610 H   0  0  0  0  0  0  0  0  0  0  0  0
   59.7396   35.8698   45.4610 H   0  0  0  0  0  0  0  0  0  0  0  0
   58.1094   35.4597   47.0784 H   0  0  0  0  0  0  0  0  0  0  0  0
   58.1588   33.8626   46.2088 H   0  0  0  0  0  0  0  0  0  0  0  0
   60.0140   33.5450   48.0980 H   0  0  0  0  0  0  0  0  0  0  0  0
   57.0962   33.0672   48.4037 H   0  0  0  0  0  0  0  0  0  0  0  0
   58.2492   32.0146   47.5024 H   0  0  0  0  0  0  0  0  0  0  0  0
   57.6031   31.8575   50.2388 H   0  0  0  0  0  0  0  0  0  0  0  0
   58.9912   31.0541   49.3751 H   0  0  0  0  0  0  0  0  0  0  0  0
   59.2142   33.8592   50.5148 H   0  0  0  0  0  0  0  0  0  0  0  0
   59.5446   32.3923   51.5032 H   0  0  0  0  0  0  0  0  0  0  0  0
   60.7980   34.7584   50.0501 H   0  0  0  0  0  0  0  0  0  0  0  0
   62.0737   33.8988   50.9998 H   0  0  0  0  0  0  0  0  0  0  0  0
   62.6073   35.1943   48.6859 H   0  0  0  0  0  0  0  0  0  0  0  0
   63.4851   33.7027   49.2076 H   0  0  0  0  0  0  0  0  0  0  0  0
   63.5340   32.5489   46.5846 H   0  0  0  0  0  0  0  0  0  0  0  0
   63.5072   32.0974   48.3338 H   0  0  0  0  0  0  0  0  0  0  0  0
   62.2699   30.7479   46.1106 H   0  0  0  0  0  0  0  0  0  0  0  0
   62.2540   30.3091   47.8635 H   0  0  0  0  0  0  0  0  0  0  0  0
   60.3010   32.1610   47.8880 H   0  0  0  0  0  0  0  0  0  0  0  0
   57.5134   26.7134   45.9436 H   0  0  0  0  0  0  0  0  0  0  0  0
   58.8621   25.4086   47.6319 H   0  0  0  0  0  0  0  0  0  0  0  0
   60.6760   26.5361   48.9403 H   0  0  0  0  0  0  0  0  0  0  0  0
   61.1339   28.9947   48.6233 H   0  0  0  0  0  0  0  0  0  0  0  0
   57.0145   28.4438   43.9895 H   0  0  0  0  0  0  0  0  0  0  0  0
   55.9805   29.3947   45.1200 H   0  0  0  0  0  0  0  0  0  0  0  0
   57.7206   30.4113   42.8212 H   0  0  0  0  0  0  0  0  0  0  0  0
   55.9376   30.6195   43.0877 H   0  0  0  0  0  0  0  0  0  0  0  0
   57.1457   32.7258   43.5393 H   0  0  0  0  0  0  0  0  0  0  0  0
   56.3971   32.0474   45.0453 H   0  0  0  0  0  0  0  0  0  0  0  0
   59.3418   32.0214   44.2321 H   0  0  0  0  0  0  0  0  0  0  0  0
   58.5822   32.8017   45.6685 H   0  0  0  0  0  0  0  0  0  0  0  0
  1  2  1  0
  2  3  1  0
  3  4  1  0
  4  5  1  0
  5  6  1  0
  6  7  1  0
  7  8  1  0
  8  9  1  0
  9 10  1  0
 10 11  1  0
 11 12  1  0
 12 13  1  0
 13 14  1  0
 14 15  1  0
 15 16  2  0
 16 17  1  0
 17 18  2  0
 18 19  1  0
 19 20  2  0
 20 21  1  0
 21 22  2  0
 16 23  1  0
 23 24  1  0
 24 25  1  0
 25 26  1  0
 22 14  1  0
 26 15  1  0
 22 17  1  0
  1 27  1  0
  1 28  1  0
  1 29  1  0
  2 30  1  0
  2 31  1  0
  3 32  1  0
  4 33  1  0
  4 34  1  0
  5 35  1  0
  5 36  1  0
  6 37  1  0
  6 38  1  0
  8 39  1  0
  8 40  1  0
  9 41  1  0
  9 42  1  0
 11 43  1  0
 11 44  1  0
 12 45  1  0
 12 46  1  0
 13 47  1  0
 18 48  1  0
 19 49  1  0
 20 50  1  0
 21 51  1  0
 23 52  1  0
 23 53  1  0
 24 54  1  0
 24 55  1  0
 25 56  1  0
 25 57  1  0
 26 58  1  0
 26 59  1  0
M  END
>  <UniqueID>  (2) 
2

>  <SMILES>  (2) 
CCNCCCOCCOCCNn1c2c(c3ccccc31)CCCC2

>  <Energy>  (2) 
93.50730519388088

>  <Genealogy>  (2) 
CCNCCCOCCOCCNn1c2c(c3ccccc31)CCCC2 (3D coordinates assigned)
CCNCCCOCCOCCNn1c2c(c3ccccc31)CCCC2 (nonaromatic ring conformer: 93.50730519388088 kcal/mol)

>  <smiles>  (2) 
CCNCCCOCCOCCNn1c2c(c3ccccc31)CCCC2

>  <score_type>  (2) 
oracle

>  <origin>  (2) 
adg

>  <m_score__min__energy>  (2) 
-8.5199999999999996

>  <m_primary>  (2) 
energy

$$$$
2:0
     RDKit          3D

 19 19  0  0  0  0  0  0  0  0999 V2000
   55.1020   23.9050   46.3630 C   0  0  0  0  0  0  0  0  0  0  0  0
   54.5050   25.0800   45.5950 C   0  0  0  0  0  0  0  0  0  0  0  0
   55.1190   26.3490   45.9930 N   0  0  0  0  0  0  0  0  0  0  0  0
   56.8590   26.2840   45.9310 S   0  0  0  0  0  0  0  0  0  0  0  0
   57.3130   25.1860   45.0100 O   0  0  0  0  0  0  0  0  0  0  0  0
   57.3880   26.0120   47.3090 O   0  0  0  0  0  0  0  0  0  0  0  0
   57.4980   27.8210   45.3780 C   0  0  0  0  0  0  0  0  0  0  0  0
   58.8430   28.1490   45.2980 C   0  0  0  0  0  0  0  0  0  0  0  0
   59.0580   29.4530   44.8360 C   0  0  0  0  0  0  0  0  0  0  0  0
   57.8820   30.1350   44.5550 C   0  0  0  0  0  0  0  0  0  0  0  0
   57.7580   31.9240   43.9090 Br  0  0  0  0  0  0  0  0  0  0  0  0
   56.5710   29.1320   44.8780 S   0  0  0  0  0  0  0  0  0  0  0  0
   55.0090   24.0881   47.4437 H   0  0  0  0  0  0  0  0  0  0  0  0
   54.5630   22.9830   46.0996 H   0  0  0  0  0  0  0  0  0  0  0  0
   56.1645   23.7966   46.0996 H   0  0  0  0  0  0  0  0  0  0  0  0
   54.6708   24.9248   44.5187 H   0  0  0  0  0  0  0  0  0  0  0  0
   53.4299   25.1305   45.8224 H   0  0  0  0  0  0  0  0  0  0  0  0
   59.6549   27.4579   45.5688 H   0  0  0  0  0  0  0  0  0  0  0  0
   60.0581   29.8929   44.7085 H   0  0  0  0  0  0  0  0  0  0  0  0
  1  2  1  0
  2  3  1  0
  3  4  1  0
  4  5  2  0
  4  6  2  0
  4  7  1  0
  7  8  2  0
  8  9  1  0
  9 10  2  0
 10 11  1  0
 10 12  1  0
 12  7  1  0
  1 13  1  0
  1 14  1  0
  1 15  1  0
  2 16  1  0
  2 17  1  0
  8 18  1  0
  9 19  1  0
M  CHG  1   3  -1
M  END
>  <UniqueID>  (3) 
3

>  <SMILES>  (3) 
CC[N-]S(=O)(=O)c1ccc(Br)s1

>  <Energy>  (3) 
40.687794615554076

>  <Genealogy>  (3) 
CC[N-]S(=O)(=O)c1ccc(Br)s1 (protonated)
CC[N-]S(=O)(=O)c1ccc(Br)s1 (3D coordinates assigned)
CC[N-]S(=O)(=O)c1ccc(Br)s1 (optimized conformer: 40.687794615554076 kcal/mol)

>  <smiles>  (3) 
CCNS(=O)(=O)c1ccc(Br)s1

>  <score_type>  (3) 
oracle

>  <origin>  (3) 
adg

>  <m_score__min__energy>  (3) 
-7.0899999999999999

>  <m_primary>  (3) 
energy

$$$$
3:0
     RDKit          3D

 71 73  0  0  0  0  0  0  0  0999 V2000
   60.4950   29.4260   48.8990 C   0  0  0  0  0  0  0  0  0  0  0  0
   59.4460   29.7490   47.8390 C   0  0  0  0  0  0  0  0  0  0  0  0
   60.1090   30.1470   46.5120 C   0  0  0  0  0  0  0  0  0  0  0  0
   60.2220   28.9700   45.5290 C   0  0  0  0  0  0  0  0  0  0  0  0
   59.0810   28.9520   44.4950 C   0  0  0  0  0  0  0  0  0  0  0  0
   57.6810   28.9850   45.1530 C   0  0  2  0  0  0  0  0  0  0  0  0
   57.2190   27.5880   45.6050 C   0  0  0  0  0  0  0  0  0  0  0  0
   56.6300   29.6580   44.2380 C   0  0  0  0  0  0  0  0  0  0  0  0
   57.0400   31.0490   43.7120 C   0  0  0  0  0  0  0  0  0  0  0  0
   57.1390   32.0780   44.8440 C   0  0  0  0  0  0  0  0  0  0  0  0
   58.4870   32.6560   44.8970 N   0  0  0  0  0  0  0  0  0  0  0  0
   58.4580   34.0690   44.4970 C   0  0  0  0  0  0  0  0  0  0  0  0
   59.2670   34.9180   45.4810 C   0  0  0  0  0  0  0  0  0  0  0  0
   58.9060   34.6090   46.9540 C   0  0  0  0  0  0  0  0  0  0  0  0
   59.0940   33.1870   47.3000 N   0  0  0  0  0  0  0  0  0  0  0  0
   60.0010   33.0200   48.4340 C   0  0  0  0  0  0  0  0  0  0  0  0
   61.4030   33.2000   48.2570 C   0  0  0  0  0  0  0  0  0  0  0  0
   61.9780   33.4070   46.9760 C   0  0  0  0  0  0  0  0  0  0  0  0
   63.3550   33.5330   46.8130 C   0  0  0  0  0  0  0  0  0  0  0  0
   64.1970   33.4350   47.9100 C   0  0  0  0  0  0  0  0  0  0  0  0
   63.6650   33.2520   49.1820 C   0  0  0  0  0  0  0  0  0  0  0  0
   62.2650   33.1750   49.3890 C   0  0  0  0  0  0  0  0  0  0  0  0
   61.7410   33.0710   50.6580 N   0  0  0  0  0  0  0  0  0  0  0  0
   62.5770   33.4190   51.8300 C   0  0  0  0  0  0  0  0  0  0  0  0
   60.4330   32.6770   50.8360 C   0  0  0  0  0  0  0  0  0  0  0  0
   59.9710   32.2500   52.1080 C   0  0  0  0  0  0  0  0  0  0  0  0
   58.6410   31.9070   52.3150 C   0  0  0  0  0  0  0  0  0  0  0  0
   57.7400   31.9650   51.2660 C   0  0  0  0  0  0  0  0  0  0  0  0
   58.1670   32.3320   49.9930 C   0  0  0  0  0  0  0  0  0  0  0  0
   59.5230   32.6780   49.7370 C   0  0  0  0  0  0  0  0  0  0  0  0
   60.0585   29.5604   49.8997 H   0  0  0  0  0  0  0  0  0  0  0  0
   60.8270   28.3840   48.7807 H   0  0  0  0  0  0  0  0  0  0  0  0
   61.3556   30.1008   48.7807 H   0  0  0  0  0  0  0  0  0  0  0  0
   58.8158   28.8625   47.6746 H   0  0  0  0  0  0  0  0  0  0  0  0
   58.8375   30.5938   48.1940 H   0  0  0  0  0  0  0  0  0  0  0  0
   59.5092   30.9409   46.0430 H   0  0  0  0  0  0  0  0  0  0  0  0
   61.1294   30.4890   46.7397 H   0  0  0  0  0  0  0  0  0  0  0  0
   61.1805   29.0475   44.9949 H   0  0  0  0  0  0  0  0  0  0  0  0
   60.1577   28.0401   46.1131 H   0  0  0  0  0  0  0  0  0  0  0  0
   59.1839   29.8308   43.8415 H   0  0  0  0  0  0  0  0  0  0  0  0
   59.1604   28.0129   43.9277 H   0  0  0  0  0  0  0  0  0  0  0  0
   57.7742   29.6034   46.0579 H   0  0  0  0  0  0  0  0  0  0  0  0
   57.2046   27.5444   46.7040 H   0  0  0  0  0  0  0  0  0  0  0  0
   56.2084   27.3927   45.2170 H   0  0  0  0  0  0  0  0  0  0  0  0
   57.9139   26.8287   45.2170 H   0  0  0  0  0  0  0  0  0  0  0  0
   56.4556   29.0009   43.3732 H   0  0  0  0  0  0  0  0  0  0  0  0
   55.7294   29.8075   44.8517 H   0  0  0  0  0  0  0  0  0  0  0  0
   58.0191   30.9684   43.2172 H   0  0  0  0  0  0  0  0  0  0  0  0
   56.2679   31.3895   43.0064 H   0  0  0  0  0  0  0  0  0  0  0  0
   56.4076   32.8807   44.6685 H   0  0  0  0  0  0  0  0  0  0  0  0
   56.9293   31.5762   45.8002 H   0  0  0  0  0  0  0  0  0  0  0  0
   59.0870   32.1320   44.2170 H   0  0  0  0  0  0  0  0  0  0  0  0
   58.8902   34.1699   43.4905 H   0  0  0  0  0  0  0  0  0  0  0  0
   57.4151   34.4188   44.4969 H   0  0  0  0  0  0  0  0  0  0  0  0
   60.3371   34.7141   45.3283 H   0  0  0  0  0  0  0  0  0  0  0  0
   59.0295   35.9749   45.2897 H   0  0  0  0  0  0  0  0  0  0  0  0
   59.5467   35.2182   47.6086 H   0  0  0  0  0  0  0  0  0  0  0  0
   57.8408   34.8465   47.0919 H   0  0  0  0  0  0  0  0  0  0  0  0
   59.4680   32.6720   46.4740 H   0  0  0  0  0  0  0  0  0  0  0  0
   58.1620   32.7480   47.4240 H   0  0  0  0  0  0  0  0  0  0  0  0
   61.3228   33.4691   46.0946 H   0  0  0  0  0  0  0  0  0  0  0  0
   63.7755   33.7106   45.8122 H   0  0  0  0  0  0  0  0  0  0  0  0
   65.2865   33.5020   47.7743 H   0  0  0  0  0  0  0  0  0  0  0  0
   64.3435   33.1654   50.0435 H   0  0  0  0  0  0  0  0  0  0  0  0
   62.0263   33.1898   52.7542 H   0  0  0  0  0  0  0  0  0  0  0  0
   63.5079   32.8337   51.8031 H   0  0  0  0  0  0  0  0  0  0  0  0
   62.8176   34.4920   51.8031 H   0  0  0  0  0  0  0  0  0  0  0  0
   60.6802   32.1894   52.9467 H   0  0  0  0  0  0  0  0  0  0  0  0
   58.3038   31.5893   53.3127 H   0  0  0  0  0  0  0  0  0  0  0  0
   56.6817   31.7200   51.4391 H   0  0  0  0  0  0  0  0  0  0  0  0
   57.4405   32.3550   49.1674 H   0  0  0  0  0  0  0  0  0  0  0  0
  1  2  1  0
  2  3  1  0
  3  4  1  0
  4  5  1  0
  5  6  1  0
  6  7  1  0
  6  8  1  0
  8  9  1  0
  9 10  1  0
 10 11  1  0
 11 12  1  0
 12 13  1  0
 13 14  1  0
 14 15  1  0
 15 16  1  0
 16 17  2  0
 17 18  1  0
 18 19  2  0
 19 20  1  0
 20 21  2  0
 21 22  1  0
 22 23  2  0
 23 24  1  0
 23 25  1  0
 25 26  2  0
 26 27  1  0
 27 28  2  0
 28 29  1  0
 29 30  2  0
 30 16  1  0
 22 17  1  0
 30 25  1  0
  1 31  1  0
  1 32  1  0
  1 33  1  0
  2 34  1  0
  2 35  1  0
  3 36  1  0
  3 37  1  0
  4 38  1  0
  4 39  1  0
  5 40  1  0
  5 41  1  0
  6 42  1  1
  7 43  1  0
  7 44  1  0
  7 45  1  0
  8 46  1  0
  8 47  1  0
  9 48  1  0
  9 49  1  0
 10 50  1  0
 10 51  1  0
 11 52  1  0
 12 53  1  0
 12 54  1  0
 13 55  1  0
 13 56  1  0
 14 57  1  0
 14 58  1  0
 15 59  1  0
 15 60  1  0
 18 61  1  0
 19 62  1  0
 20 63  1  0
 21 64  1  0
 24 65  1  0
 24 66  1  0
 24 67  1  0
 26 68  1  0
 27 69  1  0
 28 70  1  0
 29 71  1  0
M  CHG  2  15   1  23   1
M  END
>  <UniqueID>  (4) 
4

>  <SMILES>  (4) 
CCCCC[C@H](C)CCCNCCC[NH2+]c1c2ccccc2[n+](C)c2ccccc12

>  <Energy>  (4) 
80.20018152888758

>  <Genealogy>  (4) 
CCCCCC(C)CCCNCCC[NH2+]c1c2ccccc2[n+](C)c2ccccc12 (protonated)
CCCCC[C@H](C)CCCNCCC[NH2+]c1c2ccccc2[n+](C)c2ccccc12 (chirality)
CCCCC[C@H](C)CCCNCCC[NH2+]c1c2ccccc2[n+](C)c2ccccc12 (3D coordinates assigned)
CCCCC[C@H](C)CCCNCCC[NH2+]c1c2ccccc2[n+](C)c2ccccc12 (optimized conformer: 80.20018152888758 kcal/mol)

>  <smiles>  (4) 
CCCCCC(C)CCCNCCCNc1c2ccccc2[n+](C)c2ccccc12

>  <score_type>  (4) 
oracle

>  <origin>  (4) 
adg

>  <m_score__min__energy>  (4) 
-5.6399999999999997

>  <m_primary>  (4) 
energy

$$$$
4:0
     RDKit          3D

 42 43  0  0  0  0  0  0  0  0999 V2000
   60.1910   29.0040   45.8220 C   0  0  0  0  0  0  0  0  0  0  0  0
   59.4320   29.3190   44.5240 C   0  0  0  0  0  0  0  0  0  0  0  0
   57.9900   28.9780   44.5400 N   0  0  0  0  0  0  0  0  0  0  0  0
   57.5530   28.2260   45.7230 C   0  0  0  0  0  0  0  0  0  0  0  0
   56.9600   30.3580   44.2380 S   0  0  0  0  0  0  0  0  0  0  0  0
   56.8060   30.5430   42.7540 O   0  0  0  0  0  0  0  0  0  0  0  0
   55.5950   30.0970   44.8130 O   0  0  0  0  0  0  0  0  0  0  0  0
   57.5940   31.8440   44.9440 C   0  0  0  0  0  0  0  0  0  0  0  0
   57.4160   33.0710   44.2890 C   0  0  0  0  0  0  0  0  0  0  0  0
   57.9270   34.2460   44.8470 C   0  0  0  0  0  0  0  0  0  0  0  0
   58.6130   34.2030   46.0640 C   0  0  0  0  0  0  0  0  0  0  0  0
   58.7910   32.9830   46.7290 C   0  0  0  0  0  0  0  0  0  0  0  0
   59.6410   32.9490   48.2700 S   0  0  0  0  0  0  0  0  0  0  0  0
   59.3340   31.6400   48.9430 O   0  0  0  0  0  0  0  0  0  0  0  0
   59.1710   34.0620   49.1650 O   0  0  0  0  0  0  0  0  0  0  0  0
   61.3850   33.1170   48.0050 C   0  0  0  0  0  0  0  0  0  0  0  0
   61.8340   33.6410   46.7810 C   0  0  0  0  0  0  0  0  0  0  0  0
   63.1970   33.8070   46.5340 C   0  0  0  0  0  0  0  0  0  0  0  0
   64.1320   33.4560   47.5070 C   0  0  0  0  0  0  0  0  0  0  0  0
   63.7050   32.9330   48.7290 C   0  0  0  0  0  0  0  0  0  0  0  0
   62.3360   32.7450   48.9910 C   0  0  0  0  0  0  0  0  0  0  0  0
   61.9260   32.2060   50.3360 C   0  0  0  0  0  0  0  0  0  0  0  0
   58.2800   31.8040   46.1660 C   0  0  0  0  0  0  0  0  0  0  0  0
   59.5628   29.2647   46.6866 H   0  0  0  0  0  0  0  0  0  0  0  0
   60.4325   27.9313   45.8544 H   0  0  0  0  0  0  0  0  0  0  0  0
   61.1211   29.5904   45.8544 H   0  0  0  0  0  0  0  0  0  0  0  0
   59.5249   30.3974   44.3282 H   0  0  0  0  0  0  0  0  0  0  0  0
   59.8864   28.6910   43.7435 H   0  0  0  0  0  0  0  0  0  0  0  0
   57.8637   28.7607   46.6327 H   0  0  0  0  0  0  0  0  0  0  0  0
   56.4574   28.1283   45.7113 H   0  0  0  0  0  0  0  0  0  0  0  0
   58.0105   27.2257   45.7113 H   0  0  0  0  0  0  0  0  0  0  0  0
   56.8726   33.1088   43.3333 H   0  0  0  0  0  0  0  0  0  0  0  0
   57.7891   35.2059   44.3278 H   0  0  0  0  0  0  0  0  0  0  0  0
   59.0141   35.1295   46.5007 H   0  0  0  0  0  0  0  0  0  0  0  0
   61.1029   33.9234   46.0092 H   0  0  0  0  0  0  0  0  0  0  0  0
   63.5346   34.2155   45.5701 H   0  0  0  0  0  0  0  0  0  0  0  0
   65.2061   33.5912   47.3118 H   0  0  0  0  0  0  0  0  0  0  0  0
   64.4473   32.6650   49.4952 H   0  0  0  0  0  0  0  0  0  0  0  0
   62.3870   32.8120   51.1299 H   0  0  0  0  0  0  0  0  0  0  0  0
   60.8309   32.2499   50.4303 H   0  0  0  0  0  0  0  0  0  0  0  0
   62.2606   31.1624   50.4303 H   0  0  0  0  0  0  0  0  0  0  0  0
   58.4181   30.8443   46.6855 H   0  0  0  0  0  0  0  0  0  0  0  0
  1  2  1  0
  2  3  1  0
  3  4  1  0
  3  5  1  0
  5  6  2  0
  5  7  2  0
  5  8  1  0
  8  9  2  0
  9 10  1  0
 10 11  2  0
 11 12  1  0
 12 13  1  0
 13 14  2  0
 13 15  2  0
 13 16  1  0
 16 17  2  0
 17 18  1  0
 18 19  2  0
 19 20  1  0
 20 21  2  0
 21 22  1  0
 12 23  2  0
 23  8  1  0
 21 16  1  0
  1 24  1  0
  1 25  1  0
  1 26  1  0
  2 27  1  0
  2 28  1  0
  4 29  1  0
  4 30  1  0
  4 31  1  0
  9 32  1  0
 10 33  1  0
 11 34  1  0
 17 35  1  0
 18 36  1  0
 19 37  1  0
 20 38  1  0
 22 39  1  0
 22 40  1  0
 22 41  1  0
 23 42  1  0
M  END
>  <UniqueID>  (5) 
5

>  <SMILES>  (5) 
CCN(C)S(=O)(=O)c1cccc(S(=O)(=O)c2ccccc2C)c1

>  <Energy>  (5) 
46.351934146705496

>  <Genealogy>  (5) 
CCN(C)S(=O)(=O)c1cccc(S(=O)(=O)c2ccccc2C)c1 (3D coordinates assigned)
CCN(C)S(=O)(=O)c1cccc(S(=O)(=O)c2ccccc2C)c1 (optimized conformer: 46.351934146705496 kcal/mol)

>  <smiles>  (5) 
CCN(C)S(=O)(=O)c1cccc(S(=O)(=O)c2ccccc2C)c1

>  <score_type>  (5) 
oracle

>  <origin>  (5) 
adg

>  <m_score__min__energy>  (5) 
-9.1999999999999993

>  <m_primary>  (5) 
energy

$$$$
5:0
     RDKit          3D

 55 57  0  0  0  0  0  0  0  0999 V2000
   57.4620   34.2220   45.1090 C   0  0  0  0  0  0  0  0  0  0  0  0
   58.3880   33.5100   44.1300 C   0  0  0  0  0  0  0  0  0  0  0  0
   57.8610   32.1800   43.7990 N   0  0  0  0  0  0  0  0  0  0  0  0
   57.4550   31.7620   42.5780 C   0  0  0  0  0  0  0  0  0  0  0  0
   57.3940   32.6230   41.3520 C   0  0  0  0  0  0  0  0  0  0  0  0
   57.0430   30.4460   42.6310 C   0  0  0  0  0  0  0  0  0  0  0  0
   57.2250   30.0320   43.9380 C   0  0  0  0  0  0  0  0  0  0  0  0
   56.9120   28.6920   44.4780 C   0  0  0  0  0  0  0  0  0  0  0  0
   55.9250   28.5450   45.2490 O   0  0  0  0  0  0  0  0  0  0  0  0
   57.7760   27.4990   44.1690 C   0  0  0  0  0  0  0  0  0  0  0  0
   57.7320   26.4530   45.3030 C   0  0  0  0  0  0  0  0  0  0  0  0
   58.7190   26.7030   46.3880 N   0  0  0  0  0  0  0  0  0  0  0  0
   58.1760   27.6470   47.4050 C   0  0  0  0  0  0  0  0  0  0  0  0
   59.2780   28.3710   48.1880 C   0  0  0  0  0  0  0  0  0  0  0  0
   60.1510   29.1080   47.2650 N   0  0  0  0  0  0  0  0  0  0  0  0
   60.9040   30.2550   47.7210 C   0  0  0  0  0  0  0  0  0  0  0  0
   61.3450   31.2310   46.8070 C   0  0  0  0  0  0  0  0  0  0  0  0
   62.0670   32.3440   47.2500 C   0  0  0  0  0  0  0  0  0  0  0  0
   62.3570   32.4950   48.6090 C   0  0  0  0  0  0  0  0  0  0  0  0
   63.2650   33.8910   49.1620 Cl  0  0  0  0  0  0  0  0  0  0  0  0
   61.9270   31.5320   49.5250 C   0  0  0  0  0  0  0  0  0  0  0  0
   61.2060   30.4180   49.0860 C   0  0  0  0  0  0  0  0  0  0  0  0
   60.2500   28.6480   45.8740 C   0  0  0  0  0  0  0  0  0  0  0  0
   60.0270   27.1310   45.8110 C   0  0  0  0  0  0  0  0  0  0  0  0
   57.7470   31.1170   44.6320 C   0  0  0  0  0  0  0  0  0  0  0  0
   58.1020   31.1270   46.0930 C   0  0  0  0  0  0  0  0  0  0  0  0
   57.7673   33.9872   46.1394 H   0  0  0  0  0  0  0  0  0  0  0  0
   57.5226   35.3083   44.9471 H   0  0  0  0  0  0  0  0  0  0  0  0
   56.4277   33.8843   44.9471 H   0  0  0  0  0  0  0  0  0  0  0  0
   58.4694   34.1066   43.2094 H   0  0  0  0  0  0  0  0  0  0  0  0
   59.3778   33.3949   44.5958 H   0  0  0  0  0  0  0  0  0  0  0  0
   57.3192   33.6794   41.6492 H   0  0  0  0  0  0  0  0  0  0  0  0
   58.3049   32.4741   40.7537 H   0  0  0  0  0  0  0  0  0  0  0  0
   56.5131   32.3471   40.7537 H   0  0  0  0  0  0  0  0  0  0  0  0
   56.6480   29.8452   41.7985 H   0  0  0  0  0  0  0  0  0  0  0  0
   57.4194   27.0319   43.2392 H   0  0  0  0  0  0  0  0  0  0  0  0
   58.8144   27.8460   44.0628 H   0  0  0  0  0  0  0  0  0  0  0  0
   56.7237   26.4602   45.7427 H   0  0  0  0  0  0  0  0  0  0  0  0
   57.9880   25.4820   44.8539 H   0  0  0  0  0  0  0  0  0  0  0  0
   58.8970   25.7900   46.8720 H   0  0  0  0  0  0  0  0  0  0  0  0
   57.5567   28.3981   46.8928 H   0  0  0  0  0  0  0  0  0  0  0  0
   57.5887   27.0582   48.1250 H   0  0  0  0  0  0  0  0  0  0  0  0
   58.8181   29.0766   48.8956 H   0  0  0  0  0  0  0  0  0  0  0  0
   59.8774   27.6291   48.7360 H   0  0  0  0  0  0  0  0  0  0  0  0
   61.1200   31.1173   45.7363 H   0  0  0  0  0  0  0  0  0  0  0  0
   62.4069   33.1013   46.5282 H   0  0  0  0  0  0  0  0  0  0  0  0
   62.1563   31.6507   50.5943 H   0  0  0  0  0  0  0  0  0  0  0  0
   60.8720   29.6629   49.8128 H   0  0  0  0  0  0  0  0  0  0  0  0
   59.4859   29.1550   45.2665 H   0  0  0  0  0  0  0  0  0  0  0  0
   61.2508   28.8845   45.4836 H   0  0  0  0  0  0  0  0  0  0  0  0
   60.0640   26.8160   44.7577 H   0  0  0  0  0  0  0  0  0  0  0  0
   60.8185   26.6597   46.4122 H   0  0  0  0  0  0  0  0  0  0  0  0
   57.1812   31.1011   46.6942 H   0  0  0  0  0  0  0  0  0  0  0  0
   58.7175   30.2458   46.3268 H   0  0  0  0  0  0  0  0  0  0  0  0
   58.6670   32.0414   46.3268 H   0  0  0  0  0  0  0  0  0  0  0  0
  1  2  1  0
  2  3  1  0
  3  4  1  0
  4  5  1  0
  4  6  2  0
  6  7  1  0
  7  8  1  0
  8  9  2  0
  8 10  1  0
 10 11  1  0
 11 12  1  0
 12 13  1  0
 13 14  1  0
 14 15  1  0
 15 16  1  0
 16 17  2  0
 17 18  1  0
 18 19  2  0
 19 20  1  0
 19 21  1  0
 21 22  2  0
 15 23  1  0
 23 24  1  0
  7 25  2  0
 25 26  1  0
 25  3  1  0
 24 12  1  0
 22 16  1  0
  1 27  1  0
  1 28  1  0
  1 29  1  0
  2 30  1  0
  2 31  1  0
  5 32  1  0
  5 33  1  0
  5 34  1  0
  6 35  1  0
 10 36  1  0
 10 37  1  0
 11 38  1  0
 11 39  1  0
 12 40  1  0
 13 41  1  0
 13 42  1  0
 14 43  1  0
 14 44  1  0
 17 45  1  0
 18 46  1  0
 21 47  1  0
 22 48  1  0
 23 49  1  0
 23 50  1  0
 24 51  1  0
 24 52  1  0
 26 53  1  0
 26 54  1  0
 26 55  1  0
M  CHG  1  12   1
M  END
>  <UniqueID>  (6) 
6

>  <SMILES>  (6) 
CCn1c(C)cc(C(=O)CC[NH+]2CCN(c3ccc(Cl)cc3)CC2)c1C

>  <Energy>  (6) 
88.37975487133757

>  <Genealogy>  (6) 
CCn1c(C)cc(C(=O)CC[NH+]2CCN(c3ccc(Cl)cc3)CC2)c1C (protonated)
CCn1c(C)cc(C(=O)CC[NH+]2CCN(c3ccc(Cl)cc3)CC2)c1C (3D coordinates assigned)
CCn1c(C)cc(C(=O)CC[NH+]2CCN(c3ccc(Cl)cc3)CC2)c1C (nonaromatic ring conformer: 88.37975487133757 kcal/mol)

>  <smiles>  (6) 
CCn1c(C)cc(C(=O)CCN2CCN(c3ccc(Cl)cc3)CC2)c1C

>  <score_type>  (6) 
oracle

>  <origin>  (6) 
adg

>  <m_score__min__energy>  (6) 
-6.3200000000000003

>  <m_primary>  (6) 
energy

$$$$
6:0
     RDKit          3D

 34 36  0  0  0  0  0  0  0  0999 V2000
   56.3420   29.8170   42.6420 C   0  0  0  0  0  0  0  0  0  0  0  0
   55.2460   29.7100   43.6900 C   0  0  0  0  0  0  0  0  0  0  0  0
   55.7630   29.0670   44.8530 O   0  0  0  0  0  0  0  0  0  0  0  0
   57.0410   29.2970   45.3850 C   0  0  0  0  0  0  0  0  0  0  0  0
   57.8820   28.2500   45.7910 C   0  0  0  0  0  0  0  0  0  0  0  0
   59.1420   28.5270   46.3140 C   0  0  0  0  0  0  0  0  0  0  0  0
   59.5850   29.8530   46.4410 C   0  0  0  0  0  0  0  0  0  0  0  0
   60.8520   30.1060   46.9680 C   0  0  0  0  0  0  0  0  0  0  0  0
   61.3220   31.3790   47.1090 N   0  0  0  0  0  0  0  0  0  0  0  0
   62.6720   31.5510   47.6750 C   0  0  0  0  0  0  0  0  0  0  0  0
   60.5520   32.4600   46.7330 C   0  0  0  0  0  0  0  0  0  0  0  0
   61.0340   33.7840   46.8780 C   0  0  0  0  0  0  0  0  0  0  0  0
   60.2600   34.8770   46.4990 C   0  0  0  0  0  0  0  0  0  0  0  0
   58.9920   34.6820   45.9690 C   0  0  0  0  0  0  0  0  0  0  0  0
   58.4850   33.3940   45.8130 C   0  0  0  0  0  0  0  0  0  0  0  0
   59.2460   32.2570   46.1870 C   0  0  0  0  0  0  0  0  0  0  0  0
   58.7580   30.9280   46.0410 C   0  0  0  0  0  0  0  0  0  0  0  0
   57.4790   30.6200   45.5120 C   0  0  0  0  0  0  0  0  0  0  0  0
   57.3179   29.9123   43.1405 H   0  0  0  0  0  0  0  0  0  0  0  0
   56.3378   28.9142   42.0136 H   0  0  0  0  0  0  0  0  0  0  0  0
   56.1633   30.7020   42.0136 H   0  0  0  0  0  0  0  0  0  0  0  0
   54.8918   30.7172   43.9545 H   0  0  0  0  0  0  0  0  0  0  0  0
   54.4086   29.1216   43.2868 H   0  0  0  0  0  0  0  0  0  0  0  0
   57.5448   27.2073   45.6958 H   0  0  0  0  0  0  0  0  0  0  0  0
   59.7955   27.7006   46.6302 H   0  0  0  0  0  0  0  0  0  0  0  0
   61.4853   29.2611   47.2763 H   0  0  0  0  0  0  0  0  0  0  0  0
   62.6128   31.5435   48.7734 H   0  0  0  0  0  0  0  0  0  0  0  0
   63.3189   30.7280   47.3370 H   0  0  0  0  0  0  0  0  0  0  0  0
   63.0919   32.5099   47.3370 H   0  0  0  0  0  0  0  0  0  0  0  0
   62.0371   33.9513   47.2973 H   0  0  0  0  0  0  0  0  0  0  0  0
   60.6538   35.8970   46.6197 H   0  0  0  0  0  0  0  0  0  0  0  0
   58.3844   35.5491   45.6706 H   0  0  0  0  0  0  0  0  0  0  0  0
   57.4778   33.2564   45.3928 H   0  0  0  0  0  0  0  0  0  0  0  0
   56.8167   31.4388   45.1945 H   0  0  0  0  0  0  0  0  0  0  0  0
  1  2  1  0
  2  3  1  0
  3  4  1  0
  4  5  2  0
  5  6  1  0
  6  7  2  0
  7  8  1  0
  8  9  2  0
  9 10  1  0
  9 11  1  0
 11 12  2  0
 12 13  1  0
 13 14  2  0
 14 15  1  0
 15 16  2  0
 16 17  1  0
 17 18  2  0
 18  4  1  0
 17  7  1  0
 16 11  1  0
  1 19  1  0
  1 20  1  0
  1 21  1  0
  2 22  1  0
  2 23  1  0
  5 24  1  0
  6 25  1  0
  8 26  1  0
 10 27  1  0
 10 28  1  0
 10 29  1  0
 12 30  1  0
 13 31  1  0
 14 32  1  0
 15 33  1  0
 18 34  1  0
M  CHG  1   9   1
M  END
>  <UniqueID>  (7) 
7

>  <SMILES>  (7) 
CCOc1ccc2c[n+](C)c3ccccc3c2c1

>  <Energy>  (7) 
48.581765880437615

>  <Genealogy>  (7) 
CCOc1ccc2c[n+](C)c3ccccc3c2c1 (3D coordinates assigned)
CCOc1ccc2c[n+](C)c3ccccc3c2c1 (optimized conformer: 48.581765880437615 kcal/mol)

>  <smiles>  (7) 
CCOc1ccc2c[n+](C)c3ccccc3c2c1

>  <score_type>  (7) 
oracle

>  <origin>  (7) 
adg

>  <m_score__min__energy>  (7) 
-5.4400000000000004

>  <m_primary>  (7) 
energy

$$$$
7:0
     RDKit          3D

 63 66  0  0  0  0  0  0  0  0999 V2000
   57.5010   31.5910   42.8460 C   0  0  0  0  0  0  0  0  0  0  0  0
   56.6290   30.5270   43.4970 C   0  0  0  0  0  0  0  0  0  0  0  0
   56.7980   30.5850   44.8970 O   0  0  0  0  0  0  0  0  0  0  0  0
   58.1500   30.8440   45.2310 C   0  0  0  0  0  0  0  0  0  0  0  0
   58.4800   30.2250   46.5870 C   0  0  0  0  0  0  0  0  0  0  0  0
   59.4400   31.0240   47.2480 O   0  0  0  0  0  0  0  0  0  0  0  0
   60.6540   30.3170   47.4070 C   0  0  0  0  0  0  0  0  0  0  0  0
   60.7280   29.7170   48.8080 C   0  0  0  0  0  0  0  0  0  0  0  0
   60.8330   30.7600   49.7560 O   0  0  0  0  0  0  0  0  0  0  0  0
   59.8060   30.6570   50.7240 C   0  0  0  0  0  0  0  0  0  0  0  0
   58.7050   31.6850   50.4370 C   0  0  0  0  0  0  0  0  0  0  0  0
   58.8040   32.9090   51.3560 C   0  0  0  0  0  0  0  0  0  0  0  0
   59.2830   34.0820   50.6240 N   0  0  0  0  0  0  0  0  0  0  0  0
   60.3150   33.9370   49.6390 C   0  0  0  0  0  0  0  0  0  0  0  0
   61.6250   33.6930   50.0330 C   0  0  0  0  0  0  0  0  0  0  0  0
   62.6390   33.5190   49.1060 C   0  0  0  0  0  0  0  0  0  0  0  0
   62.4230   33.6950   47.7620 N   0  0  0  0  0  0  0  0  0  0  0  0
   63.5670   33.8110   46.8440 C   0  0  0  0  0  0  0  0  0  0  0  0
   61.1160   33.8330   47.3150 C   0  0  0  0  0  0  0  0  0  0  0  0
   60.7970   33.8110   45.9350 C   0  0  0  0  0  0  0  0  0  0  0  0
   59.4870   34.0060   45.4980 C   0  0  0  0  0  0  0  0  0  0  0  0
   58.4640   34.2220   46.4160 C   0  0  0  0  0  0  0  0  0  0  0  0
   58.7360   34.2140   47.7820 C   0  0  0  0  0  0  0  0  0  0  0  0
   60.0440   33.9920   48.2530 C   0  0  0  0  0  0  0  0  0  0  0  0
   63.8790   33.1710   49.8450 C   0  0  0  0  0  0  0  0  0  0  0  0
   65.1280   32.7040   49.4070 C   0  0  0  0  0  0  0  0  0  0  0  0
   66.0980   32.3710   50.3670 C   0  0  0  0  0  0  0  0  0  0  0  0
   65.8070   32.4600   51.7410 C   0  0  0  0  0  0  0  0  0  0  0  0
   64.5330   32.8620   52.1700 C   0  0  0  0  0  0  0  0  0  0  0  0
   63.5890   33.2040   51.2030 C   0  0  0  0  0  0  0  0  0  0  0  0
   62.1820   33.5250   51.3720 C   0  0  0  0  0  0  0  0  0  0  0  0
   61.5620   33.6040   52.4660 O   0  0  0  0  0  0  0  0  0  0  0  0
   57.9923   32.1904   43.6266 H   0  0  0  0  0  0  0  0  0  0  0  0
   58.2651   31.1065   42.2204 H   0  0  0  0  0  0  0  0  0  0  0  0
   56.8758   32.2451   42.2204 H   0  0  0  0  0  0  0  0  0  0  0  0
   55.5740   30.7106   43.2453 H   0  0  0  0  0  0  0  0  0  0  0  0
   56.9211   29.5323   43.1292 H   0  0  0  0  0  0  0  0  0  0  0  0
   58.8052   30.4082   44.4624 H   0  0  0  0  0  0  0  0  0  0  0  0
   58.3076   31.9314   45.2822 H   0  0  0  0  0  0  0  0  0  0  0  0
   57.5663   30.1696   47.1970 H   0  0  0  0  0  0  0  0  0  0  0  0
   58.8841   29.2126   46.4395 H   0  0  0  0  0  0  0  0  0  0  0  0
   60.7059   29.5097   46.6616 H   0  0  0  0  0  0  0  0  0  0  0  0
   61.4968   31.0096   47.2655 H   0  0  0  0  0  0  0  0  0  0  0  0
   59.8185   29.1307   49.0055 H   0  0  0  0  0  0  0  0  0  0  0  0
   61.6074   29.0604   48.8825 H   0  0  0  0  0  0  0  0  0  0  0  0
   59.3760   29.6450   50.6917 H   0  0  0  0  0  0  0  0  0  0  0  0
   60.2298   30.8525   51.7201 H   0  0  0  0  0  0  0  0  0  0  0  0
   58.7942   32.0178   49.3923 H   0  0  0  0  0  0  0  0  0  0  0  0
   57.7342   31.2015   50.6206 H   0  0  0  0  0  0  0  0  0  0  0  0
   57.8093   33.1270   51.7719 H   0  0  0  0  0  0  0  0  0  0  0  0
   59.5196   32.6839   52.1606 H   0  0  0  0  0  0  0  0  0  0  0  0
   59.2060   35.0110   51.0950 H   0  0  0  0  0  0  0  0  0  0  0  0
   64.4958   33.9052   47.4257 H   0  0  0  0  0  0  0  0  0  0  0  0
   63.6208   32.9137   46.2100 H   0  0  0  0  0  0  0  0  0  0  0  0
   63.4396   34.7008   46.2100 H   0  0  0  0  0  0  0  0  0  0  0  0
   61.5942   33.6376   45.1972 H   0  0  0  0  0  0  0  0  0  0  0  0
   59.2613   33.9889   44.4215 H   0  0  0  0  0  0  0  0  0  0  0  0
   57.4378   34.3995   46.0620 H   0  0  0  0  0  0  0  0  0  0  0  0
   57.9202   34.3829   48.5003 H   0  0  0  0  0  0  0  0  0  0  0  0
   65.3431   32.6008   48.3332 H   0  0  0  0  0  0  0  0  0  0  0  0
   67.0945   32.0375   50.0417 H   0  0  0  0  0  0  0  0  0  0  0  0
   66.5817   32.2133   52.4819 H   0  0  0  0  0  0  0  0  0  0  0  0
   64.2857   32.9061   53.2409 H   0  0  0  0  0  0  0  0  0  0  0  0
  1  2  1  0
  2  3  1  0
  3  4  1  0
  4  5  1  0
  5  6  1  0
  6  7  1  0
  7  8  1  0
  8  9  1  0
  9 10  1  0
 10 11  1  0
 11 12  1  0
 12 13  1  0
 13 14  1  0
 14 15  2  0
 15 16  1  0
 16 17  2  0
 17 18  1  0
 17 19  1  0
 19 20  2  0
 20 21  1  0
 21 22  2  0
 22 23  1  0
 23 24  2  0
 16 25  1  0
 25 26  2  0
 26 27  1  0
 27 28  2  0
 28 29  1  0
 29 30  2  0
 30 31  1  0
 31 32  2  0
 24 14  1  0
 30 25  1  0
 31 15  1  0
 24 19  1  0
  1 33  1  0
  1 34  1  0
  1 35  1  0
  2 36  1  0
  2 37  1  0
  4 38  1  0
  4 39  1  0
  5 40  1  0
  5 41  1  0
  7 42  1  0
  7 43  1  0
  8 44  1  0
  8 45  1  0
 10 46  1  0
 10 47  1  0
 11 48  1  0
 11 49  1  0
 12 50  1  0
 12 51  1  0
 13 52  1  0
 18 53  1  0
 18 54  1  0
 18 55  1  0
 20 56  1  0
 21 57  1  0
 22 58  1  0
 23 59  1  0
 26 60  1  0
 27 61  1  0
 28 62  1  0
 29 63  1  0
M  CHG  1  17   1
M  END
>  <UniqueID>  (8) 
8

>  <SMILES>  (8) 
CCOCCOCCOCCCNc1c2c([n+](C)c3ccccc13)-c1ccccc1C2=O

>  <Energy>  (8) 
115.72043796543008

>  <Genealogy>  (8) 
CCOCCOCCOCCCNc1c2c([n+](C)c3ccccc13)-c1ccccc1C2=O (3D coordinates assigned)
CCOCCOCCOCCCNc1c2c([n+](C)c3ccccc13)-c1ccccc1C2=O (nonaromatic ring conformer: 115.72043796543008 kcal/mol)

>  <smiles>  (8) 
CCOCCOCCOCCCNc1c2c([n+](C)c3ccccc13)-c1ccccc1C2=O

>  <score_type>  (8) 
oracle

>  <origin>  (8) 
adg

>  <m_score__min__energy>  (8) 
-7.1799999999999997

>  <m_primary>  (8) 
energy

$$$$
8:0
     RDKit          3D

 62 64  0  0  0  0  0  0  0  0999 V2000
   58.9590   29.9530   47.6370 C   0  0  0  0  0  0  0  0  0  0  0  0
   59.7890   29.5290   48.8450 C   0  0  0  0  0  0  0  0  0  0  0  0
   59.3730   30.2310   50.0020 O   0  0  0  0  0  0  0  0  0  0  0  0
   59.1300   29.3490   51.0850 C   0  0  0  0  0  0  0  0  0  0  0  0
   57.9120   29.7970   51.8910 C   0  0  0  0  0  0  0  0  0  0  0  0
   57.8670   31.2140   51.9340 O   0  0  0  0  0  0  0  0  0  0  0  0
   57.5820   31.6850   53.2380 C   0  0  0  0  0  0  0  0  0  0  0  0
   58.8630   31.9000   54.0440 C   0  0  0  0  0  0  0  0  0  0  0  0
   59.8350   32.4860   53.2030 O   0  0  0  0  0  0  0  0  0  0  0  0
   59.4710   33.7940   52.8110 C   0  0  0  0  0  0  0  0  0  0  0  0
   59.2630   33.9450   51.2910 C   0  0  0  0  0  0  0  0  0  0  0  0
   59.4340   32.6880   50.5270 N   0  0  0  0  0  0  0  0  0  0  0  0
   60.3470   32.8470   49.4040 C   0  0  0  0  0  0  0  0  0  0  0  0
   61.7400   32.6010   49.5560 C   0  0  0  0  0  0  0  0  0  0  0  0
   62.6140   32.9390   48.5530 C   0  0  0  0  0  0  0  0  0  0  0  0
   62.2160   33.5210   47.3820 N   0  0  0  0  0  0  0  0  0  0  0  0
   63.2320   33.9430   46.3950 C   0  0  0  0  0  0  0  0  0  0  0  0
   60.8670   33.6420   47.1180 C   0  0  0  0  0  0  0  0  0  0  0  0
   60.4090   34.0840   45.8510 C   0  0  0  0  0  0  0  0  0  0  0  0
   59.0490   34.1990   45.5780 C   0  0  0  0  0  0  0  0  0  0  0  0
   58.1140   33.8610   46.5440 C   0  0  0  0  0  0  0  0  0  0  0  0
   58.5260   33.4070   47.7930 C   0  0  0  0  0  0  0  0  0  0  0  0
   59.9010   33.3030   48.1220 C   0  0  0  0  0  0  0  0  0  0  0  0
   63.9930   32.5270   48.9030 C   0  0  0  0  0  0  0  0  0  0  0  0
   63.7810   31.6390   50.1300 C   0  0  0  0  0  0  0  0  0  0  0  0
   62.4010   31.8890   50.6390 N   0  0  1  0  0  0  0  0  0  0  0  0
   62.4550   32.6830   51.8830 C   0  0  0  0  0  0  0  0  0  0  0  0
   61.7870   30.6940   50.9060 O   0  0  0  0  0  0  0  0  0  0  0  0
   58.0283   30.4284   47.9802 H   0  0  0  0  0  0  0  0  0  0  0  0
   59.5337   30.6680   47.0299 H   0  0  0  0  0  0  0  0  0  0  0  0
   58.7166   29.0683   47.0299 H   0  0  0  0  0  0  0  0  0  0  0  0
   59.6615   28.4491   49.0111 H   0  0  0  0  0  0  0  0  0  0  0  0
   60.8466   29.7596   48.6493 H   0  0  0  0  0  0  0  0  0  0  0  0
   58.9495   28.3375   50.6921 H   0  0  0  0  0  0  0  0  0  0  0  0
   60.0094   29.3536   51.7458 H   0  0  0  0  0  0  0  0  0  0  0  0
   56.9968   29.4156   51.4145 H   0  0  0  0  0  0  0  0  0  0  0  0
   57.9851   29.4018   52.9150 H   0  0  0  0  0  0  0  0  0  0  0  0
   57.0411   32.6399   53.1637 H   0  0  0  0  0  0  0  0  0  0  0  0
   56.9704   30.9299   53.7536 H   0  0  0  0  0  0  0  0  0  0  0  0
   58.6579   32.5678   54.8937 H   0  0  0  0  0  0  0  0  0  0  0  0
   59.2308   30.9366   54.4268 H   0  0  0  0  0  0  0  0  0  0  0  0
   58.5327   34.0613   53.3191 H   0  0  0  0  0  0  0  0  0  0  0  0
   60.3014   34.4587   53.0915 H   0  0  0  0  0  0  0  0  0  0  0  0
   58.2427   34.3179   51.1178 H   0  0  0  0  0  0  0  0  0  0  0  0
   60.0372   34.6399   50.9336 H   0  0  0  0  0  0  0  0  0  0  0  0
   58.5130   32.2900   50.2530 H   0  0  0  0  0  0  0  0  0  0  0  0
   59.8080   31.9660   51.1760 H   0  0  0  0  0  0  0  0  0  0  0  0
   64.1236   34.3133   46.9221 H   0  0  0  0  0  0  0  0  0  0  0  0
   63.5088   33.0854   45.7642 H   0  0  0  0  0  0  0  0  0  0  0  0
   62.8197   34.7443   45.7642 H   0  0  0  0  0  0  0  0  0  0  0  0
   61.1408   34.3403   45.0707 H   0  0  0  0  0  0  0  0  0  0  0  0
   58.7154   34.5589   44.5935 H   0  0  0  0  0  0  0  0  0  0  0  0
   57.0405   33.9522   46.3219 H   0  0  0  0  0  0  0  0  0  0  0  0
   57.7699   33.1232   48.5399 H   0  0  0  0  0  0  0  0  0  0  0  0
   64.4584   31.9628   48.0814 H   0  0  0  0  0  0  0  0  0  0  0  0
   64.6663   33.3762   49.0914 H   0  0  0  0  0  0  0  0  0  0  0  0
   63.8909   30.5809   49.8500 H   0  0  0  0  0  0  0  0  0  0  0  0
   64.5253   31.8707   50.9061 H   0  0  0  0  0  0  0  0  0  0  0  0
   62.4091   32.0085   52.7508 H   0  0  0  0  0  0  0  0  0  0  0  0
   63.3941   33.2550   51.9124 H   0  0  0  0  0  0  0  0  0  0  0  0
   61.6020   33.3769   51.9124 H   0  0  0  0  0  0  0  0  0  0  0  0
   60.9320   30.8790   51.3810 H   0  0  0  0  0  0  0  0  0  0  0  0
  1  2  1  0
  2  3  1  0
  3  4  1  0
  4  5  1  0
  5  6  1  0
  6  7  1  0
  7  8  1  0
  8  9  1  0
  9 10  1  0
 10 11  1  0
 11 12  1  0
 12 13  1  0
 13 14  2  0
 14 15  1  0
 15 16  2  0
 16 17  1  0
 16 18  1  0
 18 19  2  0
 19 20  1  0
 20 21  2  0
 21 22  1  0
 22 23  2  0
 15 24  1  0
 24 25  1  0
 25 26  1  0
 26 27  1  0
 26 28  1  1
 23 13  1  0
 26 14  1  0
 23 18  1  0
  1 29  1  0
  1 30  1  0
  1 31  1  0
  2 32  1  0
  2 33  1  0
  4 34  1  0
  4 35  1  0
  5 36  1  0
  5 37  1  0
  7 38  1  0
  7 39  1  0
  8 40  1  0
  8 41  1  0
 10 42  1  0
 10 43  1  0
 11 44  1  0
 11 45  1  0
 12 46  1  0
 12 47  1  0
 17 48  1  0
 17 49  1  0
 17 50  1  0
 19 51  1  0
 20 52  1  0
 21 53  1  0
 22 54  1  0
 24 55  1  0
 24 56  1  0
 25 57  1  0
 25 58  1  0
 27 59  1  0
 27 60  1  0
 27 61  1  0
 28 62  1  0
M  CHG  3  12   1  16   1  26   1
M  END
>  <UniqueID>  (9) 
9

>  <SMILES>  (9) 
CCOCCOCCOCC[NH2+]c1c2c([n+](C)c3ccccc13)CC[N@+]2(C)O

>  <Energy>  (9) 
98.9231760175375

>  <Genealogy>  (9) 
CCOCCOCCOCC[NH2+]c1c2c([n+](C)c3ccccc13)CC[N+]2(C)O (protonated)
CCOCCOCCOCC[NH2+]c1c2c([n+](C)c3ccccc13)CC[N@+]2(C)O (chirality)
CCOCCOCCOCC[NH2+]c1c2c([n+](C)c3ccccc13)CC[N@+]2(C)O (3D coordinates assigned)
CCOCCOCCOCC[NH2+]c1c2c([n+](C)c3ccccc13)CC[N@+]2(C)O (nonaromatic ring conformer: 98.9231760175375 kcal/mol)

>  <smiles>  (9) 
CCOCCOCCOCCNc1c2c([n+](C)c3ccccc13)CC[N+]2(C)[O-]

>  <score_type>  (9) 
oracle

>  <origin>  (9) 
adg

>  <m_score__min__energy>  (9) 
-0.88

>  <m_primary>  (9) 
energy

$$$$
9:0
     RDKit          3D

 47 49  0  0  0  0  0  0  0  0999 V2000
   65.7680   33.0000   50.1180 C   0  0  0  0  0  0  0  0  0  0  0  0
   64.7840   32.0490   49.4160 C   0  0  0  0  0  0  0  0  0  0  0  0
   63.5060   32.6700   48.9480 N   0  0  2  0  0  0  0  0  0  0  0  0
   63.2610   33.8880   49.7750 C   0  0  0  0  0  0  0  0  0  0  0  0
   61.9360   34.5790   49.3670 C   0  0  0  0  0  0  0  0  0  0  0  0
   61.2980   33.8460   48.2420 N   0  0  2  0  0  0  0  0  0  0  0  0
   60.0540   34.5210   47.7440 C   0  0  0  0  0  0  0  0  0  0  0  0
   59.8260   34.5630   46.2090 C   0  0  0  0  0  0  0  0  0  0  0  0
   59.0480   33.3940   45.6610 C   0  0  0  0  0  0  0  0  0  0  0  0
   58.4920   33.4510   44.3720 C   0  0  0  0  0  0  0  0  0  0  0  0
   57.7780   32.3630   43.8620 C   0  0  0  0  0  0  0  0  0  0  0  0
   57.5970   31.2110   44.6390 C   0  0  0  0  0  0  0  0  0  0  0  0
   56.7130   29.8350   43.9890 S   0  0  0  0  0  0  0  0  0  0  0  0
   56.2670   30.1310   42.5850 O   0  0  0  0  0  0  0  0  0  0  0  0
   55.5000   29.5610   44.8330 O   0  0  0  0  0  0  0  0  0  0  0  0
   57.7060   28.4880   43.9860 F   0  0  0  0  0  0  0  0  0  0  0  0
   58.1390   31.1550   45.9300 C   0  0  0  0  0  0  0  0  0  0  0  0
   58.8530   32.2410   46.4410 C   0  0  0  0  0  0  0  0  0  0  0  0
   61.0330   32.4460   48.6770 C   0  0  0  0  0  0  0  0  0  0  0  0
   62.3500   31.7470   49.1090 C   0  0  0  0  0  0  0  0  0  0  0  0
   62.2730   33.8020   47.1100 C   0  0  0  0  0  0  0  0  0  0  0  0
   63.5820   33.0890   47.5250 C   0  0  0  0  0  0  0  0  0  0  0  0
   65.6622   32.8978   51.2081 H   0  0  0  0  0  0  0  0  0  0  0  0
   66.7969   32.7454   49.8240 H   0  0  0  0  0  0  0  0  0  0  0  0
   65.5486   34.0370   49.8240 H   0  0  0  0  0  0  0  0  0  0  0  0
   65.2934   31.6219   48.5396 H   0  0  0  0  0  0  0  0  0  0  0  0
   64.4965   31.3028   50.1714 H   0  0  0  0  0  0  0  0  0  0  0  0
   63.2039   33.5979   50.8345 H   0  0  0  0  0  0  0  0  0  0  0  0
   64.0888   34.5940   49.6127 H   0  0  0  0  0  0  0  0  0  0  0  0
   61.2517   34.5892   50.2282 H   0  0  0  0  0  0  0  0  0  0  0  0
   62.1529   35.6087   49.0464 H   0  0  0  0  0  0  0  0  0  0  0  0
   59.1948   33.9990   48.1904 H   0  0  0  0  0  0  0  0  0  0  0  0
   60.1700   35.5744   48.0387 H   0  0  0  0  0  0  0  0  0  0  0  0
   59.2763   35.4849   45.9683 H   0  0  0  0  0  0  0  0  0  0  0  0
   60.8217   34.5223   45.7433 H   0  0  0  0  0  0  0  0  0  0  0  0
   58.6193   34.3567   43.7609 H   0  0  0  0  0  0  0  0  0  0  0  0
   57.3567   32.4112   42.8470 H   0  0  0  0  0  0  0  0  0  0  0  0
   58.0016   30.2522   46.5433 H   0  0  0  0  0  0  0  0  0  0  0  0
   59.2652   32.1938   47.4598 H   0  0  0  0  0  0  0  0  0  0  0  0
   60.3349   32.4580   49.5270 H   0  0  0  0  0  0  0  0  0  0  0  0
   60.5978   31.8900   47.8335 H   0  0  0  0  0  0  0  0  0  0  0  0
   62.2710   31.4461   50.1641 H   0  0  0  0  0  0  0  0  0  0  0  0
   62.5089   30.8631   48.4739 H   0  0  0  0  0  0  0  0  0  0  0  0
   61.8202   33.2586   46.2676 H   0  0  0  0  0  0  0  0  0  0  0  0
   62.5163   34.8348   46.8201 H   0  0  0  0  0  0  0  0  0  0  0  0
   63.7295   32.2017   46.8918 H   0  0  0  0  0  0  0  0  0  0  0  0
   64.4258   33.7833   47.3987 H   0  0  0  0  0  0  0  0  0  0  0  0
  1  2  1  0
  3  2  1  1
  3  4  1  0
  4  5  1  0
  5  6  1  0
  6  7  1  6
  7  8  1  0
  8  9  1  0
  9 10  2  0
 10 11  1  0
 11 12  2  0
 12 13  1  0
 13 14  2  0
 13 15  2  0
 13 16  1  0
 12 17  1  0
 17 18  2  0
  6 19  1  0
 19 20  1  0
  6 21  1  0
 21 22  1  0
 20  3  1  0
 22  3  1  0
 18  9  1  0
  1 23  1  0
  1 24  1  0
  1 25  1  0
  2 26  1  0
  2 27  1  0
  4 28  1  0
  4 29  1  0
  5 30  1  0
  5 31  1  0
  7 32  1  0
  7 33  1  0
  8 34  1  0
  8 35  1  0
 10 36  1  0
 11 37  1  0
 17 38  1  0
 18 39  1  0
 19 40  1  0
 19 41  1  0
 20 42  1  0
 20 43  1  0
 21 44  1  0
 21 45  1  0
 22 46  1  0
 22 47  1  0
M  CHG  2   3   1   6   1
M  END
>  <UniqueID>  (10) 
10

>  <SMILES>  (10) 
CC[N+]12CC[N+](CCc3ccc(S(=O)(=O)F)cc3)(CC1)CC2

>  <Energy>  (10) 
77.76846664887992

>  <Genealogy>  (10) 
CC[N+]12CC[N+](CCc3ccc(S(=O)(=O)F)cc3)(CC1)CC2 (3D coordinates assigned)
CC[N+]12CC[N+](CCc3ccc(S(=O)(=O)F)cc3)(CC1)CC2 (nonaromatic ring conformer: 77.76846664887992 kcal/mol)

>  <smiles>  (10) 
CC[N+]12CC[N+](CCc3ccc(S(=O)(=O)F)cc3)(CC1)CC2

>  <score_type>  (10) 
oracle

>  <origin>  (10) 
adg

>  <m_score__min__energy>  (10) 
-5.2000000000000002

>  <m_primary>  (10) 
energy

$$$$
10:0
     RDKit          3D

 57 58  0  0  0  0  0  0  0  0999 V2000
   63.3010   31.5960   47.5150 C   0  0  0  0  0  0  0  0  0  0  0  0
   63.6010   33.0650   47.2130 C   0  0  0  0  0  0  0  0  0  0  0  0
   62.3590   33.8200   46.7070 C   0  0  0  0  0  0  0  0  0  0  0  0
   61.2730   33.8490   47.7190 N   0  0  0  0  0  0  0  0  0  0  0  0
   60.0640   34.5570   47.2150 C   0  0  0  0  0  0  0  0  0  0  0  0
   59.8820   34.2630   45.7210 C   0  0  0  0  0  0  0  0  0  0  0  0
   58.4630   34.5830   45.2580 C   0  0  0  0  0  0  0  0  0  0  0  0
   61.7650   34.4480   48.9810 C   0  0  0  0  0  0  0  0  0  0  0  0
   61.6070   33.4730   50.1580 C   0  0  0  0  0  0  0  0  0  0  0  0
   60.7420   32.3400   49.7950 N   0  0  0  0  0  0  0  0  0  0  0  0
   59.3060   32.6700   49.9070 C   0  0  0  0  0  0  0  0  0  0  0  0
   58.5250   31.9350   48.8120 C   0  0  0  0  0  0  0  0  0  0  0  0
   59.3860   31.5070   47.6990 N   0  0  0  0  0  0  0  0  0  0  0  0
   59.1920   30.2720   46.9810 C   0  0  0  0  0  0  0  0  0  0  0  0
   58.3820   30.2330   45.8190 C   0  0  0  0  0  0  0  0  0  0  0  0
   57.8400   31.3980   45.2400 C   0  0  0  0  0  0  0  0  0  0  0  0
   57.0410   31.3160   44.0960 C   0  0  0  0  0  0  0  0  0  0  0  0
   56.7810   30.0780   43.5080 C   0  0  0  0  0  0  0  0  0  0  0  0
   57.3300   28.9150   44.0520 C   0  0  0  0  0  0  0  0  0  0  0  0
   58.1420   28.9860   45.1940 C   0  0  0  0  0  0  0  0  0  0  0  0
   58.7380   27.8340   45.7050 C   0  0  0  0  0  0  0  0  0  0  0  0
   59.5750   27.9220   46.8130 C   0  0  0  0  0  0  0  0  0  0  0  0
   59.7940   29.1210   47.4360 N   0  0  0  0  0  0  0  0  0  0  0  0
   60.7120   29.1610   48.5840 C   0  0  0  0  0  0  0  0  0  0  0  0
   63.2701   31.4445   48.6041 H   0  0  0  0  0  0  0  0  0  0  0  0
   62.3286   31.3232   47.0791 H   0  0  0  0  0  0  0  0  0  0  0  0
   64.0886   30.9638   47.0791 H   0  0  0  0  0  0  0  0  0  0  0  0
   63.9598   33.5497   48.1330 H   0  0  0  0  0  0  0  0  0  0  0  0
   64.3625   33.0980   46.4199 H   0  0  0  0  0  0  0  0  0  0  0  0
   62.6464   34.8539   46.4652 H   0  0  0  0  0  0  0  0  0  0  0  0
   61.9806   33.2931   45.8186 H   0  0  0  0  0  0  0  0  0  0  0  0
   59.1788   34.2087   47.7673 H   0  0  0  0  0  0  0  0  0  0  0  0
   60.1867   35.6402   47.3622 H   0  0  0  0  0  0  0  0  0  0  0  0
   60.5924   34.8759   45.1467 H   0  0  0  0  0  0  0  0  0  0  0  0
   60.0666   33.1914   45.5546 H   0  0  0  0  0  0  0  0  0  0  0  0
   57.8153   34.7291   46.1350 H   0  0  0  0  0  0  0  0  0  0  0  0
   58.4732   35.5014   44.6527 H   0  0  0  0  0  0  0  0  0  0  0  0
   58.0780   33.7491   44.6527 H   0  0  0  0  0  0  0  0  0  0  0  0
   62.8290   34.7025   48.8664 H   0  0  0  0  0  0  0  0  0  0  0  0
   61.1711   35.3492   49.1933 H   0  0  0  0  0  0  0  0  0  0  0  0
   62.5982   33.0911   50.4436 H   0  0  0  0  0  0  0  0  0  0  0  0
   61.1433   34.0114   50.9977 H   0  0  0  0  0  0  0  0  0  0  0  0
   60.9440   32.0870   48.7980 H   0  0  0  0  0  0  0  0  0  0  0  0
   58.9343   32.3584   50.8943 H   0  0  0  0  0  0  0  0  0  0  0  0
   59.1692   33.7551   49.7889 H   0  0  0  0  0  0  0  0  0  0  0  0
   58.0502   31.0462   49.2531 H   0  0  0  0  0  0  0  0  0  0  0  0
   57.7773   32.6333   48.4077 H   0  0  0  0  0  0  0  0  0  0  0  0
   60.3190   31.9720   47.6130 H   0  0  0  0  0  0  0  0  0  0  0  0
   58.0473   32.3793   45.6918 H   0  0  0  0  0  0  0  0  0  0  0  0
   56.6157   32.2310   43.6578 H   0  0  0  0  0  0  0  0  0  0  0  0
   56.1425   30.0178   42.6143 H   0  0  0  0  0  0  0  0  0  0  0  0
   57.1254   27.9408   43.5840 H   0  0  0  0  0  0  0  0  0  0  0  0
   58.5472   26.8585   45.2338 H   0  0  0  0  0  0  0  0  0  0  0  0
   60.0677   27.0152   47.1937 H   0  0  0  0  0  0  0  0  0  0  0  0
   60.1320   29.1357   49.5183 H   0  0  0  0  0  0  0  0  0  0  0  0
   61.3845   28.2913   48.5462 H   0  0  0  0  0  0  0  0  0  0  0  0
   61.3063   30.0859   48.5462 H   0  0  0  0  0  0  0  0  0  0  0  0
  1  2  1  0
  2  3  1  0
  3  4  1  0
  4  5  1  0
  5  6  1  0
  6  7  1  0
  4  8  1  0
  8  9  1  0
  9 10  1  0
 10 11  1  0
 11 12  1  0
 12 13  1  0
 13 14  1  0
 14 15  2  0
 15 16  1  0
 16 17  2  0
 17 18  1  0
 18 19  2  0
 19 20  1  0
 20 21  2  0
 21 22  1  0
 22 23  2  0
 23 24  1  0
 23 14  1  0
 20 15  1  0
  1 25  1  0
  1 26  1  0
  1 27  1  0
  2 28  1  0
  2 29  1  0
  3 30  1  0
  3 31  1  0
  5 32  1  0
  5 33  1  0
  6 34  1  0
  6 35  1  0
  7 36  1  0
  7 37  1  0
  7 38  1  0
  8 39  1  0
  8 40  1  0
  9 41  1  0
  9 42  1  0
 10 43  1  0
 11 44  1  0
 11 45  1  0
 12 46  1  0
 12 47  1  0
 13 48  1  0
 16 49  1  0
 17 50  1  0
 18 51  1  0
 19 52  1  0
 21 53  1  0
 22 54  1  0
 24 55  1  0
 24 56  1  0
 24 57  1  0
M  CHG  1  23   1
M  END
>  <UniqueID>  (11) 
11

>  <SMILES>  (11) 
CCCN(CCC)CCNCCNc1c2ccccc2cc[n+]1C

>  <Energy>  (11) 
60.69352771841253

>  <Genealogy>  (11) 
CCCN(CCC)CCNCCNc1c2ccccc2cc[n+]1C (3D coordinates assigned)
CCCN(CCC)CCNCCNc1c2ccccc2cc[n+]1C (optimized conformer: 60.69352771841253 kcal/mol)

>  <smiles>  (11) 
CCCN(CCC)CCNCCNc1c2ccccc2cc[n+]1C

>  <score_type>  (11) 
oracle

>  <origin>  (11) 
adg

>  <m_score__min__energy>  (11) 
-4.4100000000000001

>  <m_primary>  (11) 
energy

$$$$
11:0
     RDKit          3D

 34 33  0  0  0  0  0  0  0  0999 V2000
   57.4040   31.4800   42.5810 C   0  0  0  0  0  0  0  0  0  0  0  0
   56.6130   30.2410   42.9970 C   0  0  0  0  0  0  0  0  0  0  0  0
   56.0580   30.3430   44.4230 C   0  0  0  0  0  0  0  0  0  0  0  0
   55.5220   29.0620   44.8740 N   0  0  0  0  0  0  0  0  0  0  0  0
   56.3260   27.9370   45.2440 C   0  0  0  0  0  0  0  0  0  0  0  0
   55.8500   27.0200   45.9680 O   0  0  0  0  0  0  0  0  0  0  0  0
   57.7500   27.8620   44.7880 C   0  0  0  0  0  0  0  0  0  0  0  0
   58.7410   28.0630   45.9470 C   0  0  0  0  0  0  0  0  0  0  0  0
   59.9800   28.9040   45.5860 C   0  0  0  0  0  0  0  0  0  0  0  0
   60.1290   30.1570   46.4650 C   0  0  0  0  0  0  0  0  0  0  0  0
   58.7970   30.8980   46.6620 C   0  0  0  0  0  0  0  0  0  0  0  0
   58.9410   32.1480   47.5450 C   0  0  0  0  0  0  0  0  0  0  0  0
   57.7970   33.0370   47.3770 N   0  0  0  0  0  0  0  0  0  0  0  0
   57.5160   33.5660   46.2540 C   0  0  0  0  0  0  0  0  0  0  0  0
   57.1600   34.2380   44.8340 S   0  0  0  0  0  0  0  0  0  0  0  0
   57.7458   32.0154   43.4791 H   0  0  0  0  0  0  0  0  0  0  0  0
   58.2749   31.1751   41.9822 H   0  0  0  0  0  0  0  0  0  0  0  0
   56.7608   32.1417   41.9822 H   0  0  0  0  0  0  0  0  0  0  0  0
   55.7716   30.1107   42.3006 H   0  0  0  0  0  0  0  0  0  0  0  0
   57.3012   29.3833   42.9694 H   0  0  0  0  0  0  0  0  0  0  0  0
   56.8667   30.6524   45.1015 H   0  0  0  0  0  0  0  0  0  0  0  0
   55.2435   31.0823   44.4277 H   0  0  0  0  0  0  0  0  0  0  0  0
   57.9266   26.8739   44.3379 H   0  0  0  0  0  0  0  0  0  0  0  0
   57.9146   28.6686   44.0584 H   0  0  0  0  0  0  0  0  0  0  0  0
   58.2113   28.5662   46.7693 H   0  0  0  0  0  0  0  0  0  0  0  0
   59.1092   27.0636   46.2222 H   0  0  0  0  0  0  0  0  0  0  0  0
   60.8768   28.2792   45.7104 H   0  0  0  0  0  0  0  0  0  0  0  0
   59.8581   29.2424   44.5465 H   0  0  0  0  0  0  0  0  0  0  0  0
   60.5132   29.8535   47.4501 H   0  0  0  0  0  0  0  0  0  0  0  0
   60.8215   30.8430   45.9554 H   0  0  0  0  0  0  0  0  0  0  0  0
   58.4153   31.2046   45.6769 H   0  0  0  0  0  0  0  0  0  0  0  0
   58.1047   30.2098   47.1691 H   0  0  0  0  0  0  0  0  0  0  0  0
   59.0058   31.8393   48.5988 H   0  0  0  0  0  0  0  0  0  0  0  0
   59.8523   32.6868   47.2464 H   0  0  0  0  0  0  0  0  0  0  0  0
  1  2  1  0
  2  3  1  0
  3  4  1  0
  4  5  1  0
  5  6  2  0
  5  7  1  0
  7  8  1  0
  8  9  1  0
  9 10  1  0
 10 11  1  0
 11 12  1  0
 12 13  1  0
 13 14  2  0
 14 15  2  0
  1 16  1  0
  1 17  1  0
  1 18  1  0
  2 19  1  0
  2 20  1  0
  3 21  1  0
  3 22  1  0
  7 23  1  0
  7 24  1  0
  8 25  1  0
  8 26  1  0
  9 27  1  0
  9 28  1  0
 10 29  1  0
 10 30  1  0
 11 31  1  0
 11 32  1  0
 12 33  1  0
 12 34  1  0
M  CHG  1   4  -1
M  END
>  <UniqueID>  (12) 
12

>  <SMILES>  (12) 
CCC[N-]C(=O)CCCCCCN=C=S

>  <Energy>  (12) 
11.39134234880241

>  <Genealogy>  (12) 
CCC[N-]C(=O)CCCCCCN=C=S (protonated)
CCC[N-]C(=O)CCCCCCN=C=S (3D coordinates assigned)
CCC[N-]C(=O)CCCCCCN=C=S (optimized conformer: 11.39134234880241 kcal/mol)

>  <smiles>  (12) 
CCCNC(=O)CCCCCCN=C=S

>  <score_type>  (12) 
oracle

>  <origin>  (12) 
adg

>  <m_score__min__energy>  (12) 
-7.2400000000000002

>  <m_primary>  (12) 
energy

$$$$
12:0
     RDKit          3D

 86 90  0  0  0  0  0  0  0  0999 V2000
   56.6290   25.2470   46.8660 C   0  0  0  0  0  0  0  0  0  0  0  0
   58.0990   25.5640   47.1420 C   0  0  0  0  0  0  0  0  0  0  0  0
   58.5810   26.7070   46.3280 N   0  0  0  0  0  0  0  0  0  0  0  0
   58.6150   26.3470   44.8960 C   0  0  0  0  0  0  0  0  0  0  0  0
   59.9250   27.1550   46.7700 C   0  0  0  0  0  0  0  0  0  0  0  0
   59.9040   28.5430   47.4500 C   0  0  0  0  0  0  0  0  0  0  0  0
   58.5750   29.1930   47.4880 N   0  0  0  0  0  0  0  0  0  0  0  0
   58.5110   30.4280   46.7290 C   0  0  0  0  0  0  0  0  0  0  0  0
   57.9970   30.4540   45.3900 C   0  0  0  0  0  0  0  0  0  0  0  0
   57.5160   29.2800   44.7560 C   0  0  0  0  0  0  0  0  0  0  0  0
   57.0210   29.3120   43.4540 C   0  0  0  0  0  0  0  0  0  0  0  0
   56.9710   30.5080   42.7530 C   0  0  0  0  0  0  0  0  0  0  0  0
   57.4140   31.6870   43.3470 C   0  0  0  0  0  0  0  0  0  0  0  0
   57.9390   31.6950   44.6670 C   0  0  0  0  0  0  0  0  0  0  0  0
   58.3560   32.8750   45.2600 N   0  0  0  0  0  0  0  0  0  0  0  0
   58.3930   34.1420   44.5000 C   0  0  0  0  0  0  0  0  0  0  0  0
   58.7390   32.8490   46.5730 C   0  0  0  0  0  0  0  0  0  0  0  0
   59.0120   33.9360   47.3350 N   0  0  0  0  0  0  0  0  0  0  0  0
   59.3660   33.4550   48.5340 C   0  0  0  0  0  0  0  0  0  0  0  0
   59.7140   34.2230   49.6400 C   0  0  0  0  0  0  0  0  0  0  0  0
   60.0980   33.5640   50.8110 C   0  0  0  0  0  0  0  0  0  0  0  0
   60.1910   32.1480   50.8490 C   0  0  0  0  0  0  0  0  0  0  0  0
   60.7370   31.4700   51.9570 O   0  0  0  0  0  0  0  0  0  0  0  0
   61.4780   30.2460   51.8850 C   0  0  0  0  0  0  0  0  0  0  0  0
   62.6550   30.2700   52.8970 C   0  0  0  0  0  0  0  0  0  0  0  0
   64.0230   30.6390   52.3790 N   0  0  2  0  0  0  0  0  0  0  0  0
   64.9560   29.6920   53.0610 C   0  0  0  0  0  0  0  0  0  0  0  0
   64.3440   32.0430   52.7860 C   0  0  0  0  0  0  0  0  0  0  0  0
   63.3250   33.1230   52.3390 C   0  0  0  0  0  0  0  0  0  0  0  0
   63.7060   33.7880   51.0020 C   0  0  0  0  0  0  0  0  0  0  0  0
   64.0210   32.8340   49.8920 N   0  0  0  0  0  0  0  0  0  0  0  0
   63.6400   33.4730   48.6030 C   0  0  0  0  0  0  0  0  0  0  0  0
   65.4900   32.5970   49.8440 C   0  0  0  0  0  0  0  0  0  0  0  0
   63.3320   31.5090   50.0250 C   0  0  0  0  0  0  0  0  0  0  0  0
   64.0730   30.4470   50.8890 C   0  0  0  0  0  0  0  0  0  0  0  0
   59.7760   31.3990   49.7260 C   0  0  0  0  0  0  0  0  0  0  0  0
   59.3360   32.0740   48.5690 C   0  0  0  0  0  0  0  0  0  0  0  0
   58.8760   31.6700   47.2980 C   0  0  0  0  0  0  0  0  0  0  0  0
   56.0935   25.1315   47.8199 H   0  0  0  0  0  0  0  0  0  0  0  0
   56.1786   26.0687   46.2898 H   0  0  0  0  0  0  0  0  0  0  0  0
   56.5573   24.3127   46.2898 H   0  0  0  0  0  0  0  0  0  0  0  0
   58.2153   25.8121   48.2073 H   0  0  0  0  0  0  0  0  0  0  0  0
   58.6947   24.6791   46.8734 H   0  0  0  0  0  0  0  0  0  0  0  0
   58.7180   25.2566   44.7944 H   0  0  0  0  0  0  0  0  0  0  0  0
   57.6820   26.6737   44.4135 H   0  0  0  0  0  0  0  0  0  0  0  0
   59.4703   26.8426   44.4135 H   0  0  0  0  0  0  0  0  0  0  0  0
   60.3221   26.4198   47.4854 H   0  0  0  0  0  0  0  0  0  0  0  0
   60.5567   27.2368   45.8732 H   0  0  0  0  0  0  0  0  0  0  0  0
   60.2563   28.4228   48.4851 H   0  0  0  0  0  0  0  0  0  0  0  0
   60.5515   29.1950   46.8454 H   0  0  0  0  0  0  0  0  0  0  0  0
   58.2680   29.3160   48.4690 H   0  0  0  0  0  0  0  0  0  0  0  0
   57.8640   28.5250   47.1090 H   0  0  0  0  0  0  0  0  0  0  0  0
   57.5341   28.3257   45.3028 H   0  0  0  0  0  0  0  0  0  0  0  0
   56.6681   28.3844   42.9796 H   0  0  0  0  0  0  0  0  0  0  0  0
   56.5803   30.5251   41.7249 H   0  0  0  0  0  0  0  0  0  0  0  0
   57.3563   32.6299   42.7835 H   0  0  0  0  0  0  0  0  0  0  0  0
   58.4178   34.9894   45.2009 H   0  0  0  0  0  0  0  0  0  0  0  0
   59.2922   34.1636   43.8667 H   0  0  0  0  0  0  0  0  0  0  0  0
   57.4966   34.2160   43.8667 H   0  0  0  0  0  0  0  0  0  0  0  0
   58.9400   34.9500   47.0930 H   0  0  0  0  0  0  0  0  0  0  0  0
   59.6877   35.3217   49.5942 H   0  0  0  0  0  0  0  0  0  0  0  0
   60.3307   34.1489   51.7131 H   0  0  0  0  0  0  0  0  0  0  0  0
   60.8117   29.4037   52.1228 H   0  0  0  0  0  0  0  0  0  0  0  0
   61.8818   30.1308   50.8683 H   0  0  0  0  0  0  0  0  0  0  0  0
   62.3961   30.9940   53.6836 H   0  0  0  0  0  0  0  0  0  0  0  0
   62.7570   29.2256   53.2267 H   0  0  0  0  0  0  0  0  0  0  0  0
   64.8527   29.7968   54.1511 H   0  0  0  0  0  0  0  0  0  0  0  0
   64.7113   28.6607   52.7670 H   0  0  0  0  0  0  0  0  0  0  0  0
   65.9909   29.9213   52.7670 H   0  0  0  0  0  0  0  0  0  0  0  0
   64.4059   32.0707   53.8839 H   0  0  0  0  0  0  0  0  0  0  0  0
   65.2876   32.2935   52.2792 H   0  0  0  0  0  0  0  0  0  0  0  0
   62.3381   32.6501   52.2274 H   0  0  0  0  0  0  0  0  0  0  0  0
   63.3168   33.9088   53.1087 H   0  0  0  0  0  0  0  0  0  0  0  0
   62.8639   34.4191   50.6818 H   0  0  0  0  0  0  0  0  0  0  0  0
   64.6282   34.3569   51.1916 H   0  0  0  0  0  0  0  0  0  0  0  0
   63.0861   34.4019   48.8039 H   0  0  0  0  0  0  0  0  0  0  0  0
   64.5476   33.7046   48.0262 H   0  0  0  0  0  0  0  0  0  0  0  0
   63.0047   32.7847   48.0262 H   0  0  0  0  0  0  0  0  0  0  0  0
   65.8848   32.5333   50.8687 H   0  0  0  0  0  0  0  0  0  0  0  0
   65.6922   31.6546   49.3139 H   0  0  0  0  0  0  0  0  0  0  0  0
   65.9783   33.4280   49.3139 H   0  0  0  0  0  0  0  0  0  0  0  0
   62.3454   31.6850   50.4785 H   0  0  0  0  0  0  0  0  0  0  0  0
   63.2873   31.0907   49.0086 H   0  0  0  0  0  0  0  0  0  0  0  0
   63.6304   29.4655   50.6638 H   0  0  0  0  0  0  0  0  0  0  0  0
   65.1351   30.5429   50.6193 H   0  0  0  0  0  0  0  0  0  0  0  0
   59.7958   30.2995   49.7537 H   0  0  0  0  0  0  0  0  0  0  0  0
  1  2  1  0
  2  3  1  0
  3  4  1  0
  3  5  1  0
  5  6  1  0
  6  7  1  0
  7  8  1  0
  8  9  2  0
  9 10  1  0
 10 11  2  0
 11 12  1  0
 12 13  2  0
 13 14  1  0
 14 15  2  0
 15 16  1  0
 15 17  1  0
 17 18  1  0
 18 19  1  0
 19 20  2  0
 20 21  1  0
 21 22  2  0
 22 23  1  0
 23 24  1  0
 24 25  1  0
 26 25  1  1
 26 27  1  0
 26 28  1  0
 28 29  1  0
 29 30  1  0
 30 31  1  0
 31 32  1  0
 31 33  1  0
 31 34  1  0
 34 35  1  0
 22 36  1  0
 36 37  2  0
 37 38  1  0
 38  8  1  0
 14  9  1  0
 38 17  2  0
 37 19  1  0
 35 26  1  0
  1 39  1  0
  1 40  1  0
  1 41  1  0
  2 42  1  0
  2 43  1  0
  4 44  1  0
  4 45  1  0
  4 46  1  0
  5 47  1  0
  5 48  1  0
  6 49  1  0
  6 50  1  0
  7 51  1  0
  7 52  1  0
 10 53  1  0
 11 54  1  0
 12 55  1  0
 13 56  1  0
 16 57  1  0
 16 58  1  0
 16 59  1  0
 18 60  1  0
 20 61  1  0
 21 62  1  0
 24 63  1  0
 24 64  1  0
 25 65  1  0
 25 66  1  0
 27 67  1  0
 27 68  1  0
 27 69  1  0
 28 70  1  0
 28 71  1  0
 29 72  1  0
 29 73  1  0
 30 74  1  0
 30 75  1  0
 32 76  1  0
 32 77  1  0
 32 78  1  0
 33 79  1  0
 33 80  1  0
 33 81  1  0
 34 82  1  0
 34 83  1  0
 35 84  1  0
 35 85  1  0
 36 86  1  0
M  CHG  4   7   1  15   1  26   1  31   1
M  END
>  <UniqueID>  (13) 
13

>  <SMILES>  (13) 
CCN(C)CC[NH2+]c1c2ccccc2[n+](C)c2[nH]c3ccc(OCC[N@+]4(C)CCC[N+](C)(C)CC4)cc3c12

>  <Energy>  (13) 
186.20040133607847

>  <Genealogy>  (13) 
CCN(C)CC[NH2+]c1c2ccccc2[n+](C)c2[nH]c3ccc(OCC[N+]4(C)CCC[N+](C)(C)CC4)cc3c12 (protonated)
CCN(C)CC[NH2+]c1c2ccccc2[n+](C)c2[nH]c3ccc(OCC[N@+]4(C)CCC[N+](C)(C)CC4)cc3c12 (chirality)
CCN(C)CC[NH2+]c1c2ccccc2[n+](C)c2[nH]c3ccc(OCC[N@+]4(C)CCC[N+](C)(C)CC4)cc3c12 (3D coordinates assigned)
CCN(C)CC[NH2+]c1c2ccccc2[n+](C)c2[nH]c3ccc(OCC[N@+]4(C)CCC[N+](C)(C)CC4)cc3c12 (nonaromatic ring conformer: 186.20040133607847 kcal/mol)

>  <smiles>  (13) 
CCN(C)CCNc1c2ccccc2[n+](C)c2[nH]c3ccc(OCC[N+]4(C)CCC[N+](C)(C)CC4)cc3c12

>  <score_type>  (13) 
oracle

>  <origin>  (13) 
adg

>  <m_score__min__energy>  (13) 
-0.91000000000000003

>  <m_primary>  (13) 
energy

$$$$
13:0
     RDKit          3D

 44 46  0  0  0  0  0  0  0  0999 V2000
   64.5740   32.5310   49.5020 C   0  0  0  0  0  0  0  0  0  0  0  0
   63.7880   33.0580   48.3920 N   0  0  0  0  0  0  0  0  0  0  0  0
   64.1630   33.0750   47.1270 N   0  0  0  0  0  0  0  0  0  0  0  0
   63.1720   33.5250   46.3750 N   0  0  0  0  0  0  0  0  0  0  0  0
   62.1220   33.7940   47.1420 N   0  0  0  0  0  0  0  0  0  0  0  0
   62.5170   33.4950   48.3970 C   0  0  0  0  0  0  0  0  0  0  0  0
   61.4600   33.6090   49.8440 S   0  0  0  0  0  0  0  0  0  0  0  0
   61.0590   31.8230   49.8870 C   0  0  0  0  0  0  0  0  0  0  0  0
   61.6820   31.0560   48.7000 C   0  0  0  0  0  0  0  0  0  0  0  0
   60.6830   30.4320   47.8040 N   0  0  0  0  0  0  0  0  0  0  0  0
   60.7290   30.9390   46.4040 C   0  0  0  0  0  0  0  0  0  0  0  0
   59.7400   32.0740   46.0640 C   0  0  0  0  0  0  0  0  0  0  0  0
   58.2860   31.7040   46.3900 C   0  0  0  0  0  0  0  0  0  0  0  0
   58.0830   30.2530   46.3490 N   0  0  0  0  0  0  0  0  0  0  0  0
   57.4270   29.6480   45.2140 C   0  0  0  0  0  0  0  0  0  0  0  0
   56.1710   29.7100   45.1070 O   0  0  0  0  0  0  0  0  0  0  0  0
   58.2070   28.9300   44.1480 C   0  0  0  0  0  0  0  0  0  0  0  0
   58.2060   27.4110   44.2690 C   0  0  0  0  0  0  0  0  0  0  0  0
   59.4430   28.2010   44.6570 C   0  0  0  0  0  0  0  0  0  0  0  0
   58.3990   29.4620   47.5460 C   0  0  0  0  0  0  0  0  0  0  0  0
   59.3650   30.2390   48.4460 C   0  0  0  0  0  0  0  0  0  0  0  0
   64.1161   32.8380   50.4539 H   0  0  0  0  0  0  0  0  0  0  0  0
   64.5992   31.4328   49.4446 H   0  0  0  0  0  0  0  0  0  0  0  0
   65.5995   32.9248   49.4446 H   0  0  0  0  0  0  0  0  0  0  0  0
   65.0900   32.7450   46.7680 H   0  0  0  0  0  0  0  0  0  0  0  0
   61.4432   31.3962   50.8252 H   0  0  0  0  0  0  0  0  0  0  0  0
   59.9659   31.7208   49.8185 H   0  0  0  0  0  0  0  0  0  0  0  0
   62.2855   31.7610   48.1095 H   0  0  0  0  0  0  0  0  0  0  0  0
   62.2853   30.2406   49.1256 H   0  0  0  0  0  0  0  0  0  0  0  0
   61.7466   31.3108   46.2137 H   0  0  0  0  0  0  0  0  0  0  0  0
   60.4352   30.0892   45.7704 H   0  0  0  0  0  0  0  0  0  0  0  0
   60.0152   32.9673   46.6439 H   0  0  0  0  0  0  0  0  0  0  0  0
   59.8031   32.2593   44.9816 H   0  0  0  0  0  0  0  0  0  0  0  0
   58.0400   32.0718   47.3971 H   0  0  0  0  0  0  0  0  0  0  0  0
   57.6328   32.1671   45.6358 H   0  0  0  0  0  0  0  0  0  0  0  0
   57.9969   29.6474   43.3410 H   0  0  0  0  0  0  0  0  0  0  0  0
   57.6000   26.9217   45.0458 H   0  0  0  0  0  0  0  0  0  0  0  0
   58.0001   26.5766   43.5825 H   0  0  0  0  0  0  0  0  0  0  0  0
   59.7330   28.2835   45.7149 H   0  0  0  0  0  0  0  0  0  0  0  0
   60.5039   28.1750   44.3676 H   0  0  0  0  0  0  0  0  0  0  0  0
   57.4720   29.2536   48.1004 H   0  0  0  0  0  0  0  0  0  0  0  0
   58.8708   28.5165   47.2404 H   0  0  0  0  0  0  0  0  0  0  0  0
   58.9297   31.2246   48.6675 H   0  0  0  0  0  0  0  0  0  0  0  0
   59.5165   29.6562   49.3665 H   0  0  0  0  0  0  0  0  0  0  0  0
  1  2  1  0
  2  3  1  0
  3  4  2  0
  4  5  1  0
  5  6  2  0
  6  7  1  0
  7  8  1  0
  8  9  1  0
  9 10  1  0
 10 11  1  0
 11 12  1  0
 12 13  1  0
 13 14  1  0
 14 15  1  0
 15 16  2  0
 15 17  1  0
 17 18  1  0
 18 19  1  0
 14 20  1  0
 20 21  1  0
  6  2  1  0
 21 10  1  0
 19 17  1  0
  1 22  1  0
  1 23  1  0
  1 24  1  0
  3 25  1  0
  8 26  1  0
  8 27  1  0
  9 28  1  0
  9 29  1  0
 11 30  1  0
 11 31  1  0
 12 32  1  0
 12 33  1  0
 13 34  1  0
 13 35  1  0
 17 36  1  0
 18 37  1  0
 18 38  1  0
 19 39  1  0
 19 40  1  0
 20 41  1  0
 20 42  1  0
 21 43  1  0
 21 44  1  0
M  CHG  1   3   1
M  END
>  <UniqueID>  (14) 
14

>  <SMILES>  (14) 
Cn1[nH+]nnc1SCCN1CCCN(C(=O)C2CC2)CC1

>  <Energy>  (14) 
357.7364174637153

>  <Genealogy>  (14) 
Cn1[nH+]nnc1SCCN1CCCN(C(=O)C2CC2)CC1 (protonated)
Cn1[nH+]nnc1SCCN1CCCN(C(=O)C2CC2)CC1 (3D coordinates assigned)
Cn1[nH+]nnc1SCCN1CCCN(C(=O)C2CC2)CC1 (nonaromatic ring conformer: 357.7364174637153 kcal/mol)

>  <smiles>  (14) 
Cn1nnnc1SCCN1CCCN(C(=O)C2CC2)CC1

>  <score_type>  (14) 
oracle

>  <origin>  (14) 
adg

>  <m_score__min__energy>  (14) 
-4.3399999999999999

>  <m_primary>  (14) 
energy

$$$$
14:0
     RDKit          3D

 73 77  0  0  0  0  0  0  0  0999 V2000
   57.6831   26.3297   43.3131 H   0  0  0  0  0  0  0  0  0  0  0  0
   58.1020   26.7980   44.2160 C   0  0  0  0  0  0  0  0  0  0  0  0
   58.1140   28.1590   44.3300 N   0  0  0  0  0  0  0  0  0  0  0  0
   58.6110   28.7360   45.4550 C   0  0  0  0  0  0  0  0  0  0  0  0
   59.1700   27.9800   46.4580 C   0  0  0  0  0  0  0  0  0  0  0  0
   59.1730   26.5890   46.3890 C   0  0  0  0  0  0  0  0  0  0  0  0
   59.5933   25.9807   47.2034 H   0  0  0  0  0  0  0  0  0  0  0  0
   58.6220   25.9890   45.2460 C   0  0  0  0  0  0  0  0  0  0  0  0
   58.5962   24.8931   45.1547 H   0  0  0  0  0  0  0  0  0  0  0  0
   59.7160   28.8690   47.4680 C   0  0  0  0  0  0  0  0  0  0  0  0
   59.8390   28.5100   48.7090 N   0  0  0  0  0  0  0  0  0  0  0  0
   60.9160   28.8480   49.4980 O   0  0  0  0  0  0  0  0  0  0  0  0
   60.7670   28.9860   50.9040 C   0  0  0  0  0  0  0  0  0  0  0  0
   59.7394   28.7188   51.1916 H   0  0  0  0  0  0  0  0  0  0  0  0
   61.4766   28.3185   51.4147 H   0  0  0  0  0  0  0  0  0  0  0  0
   61.0490   30.4340   51.3080 C   0  0  0  0  0  0  0  0  0  0  0  0
   60.8072   30.5631   52.3733 H   0  0  0  0  0  0  0  0  0  0  0  0
   62.1124   30.6468   51.1238 H   0  0  0  0  0  0  0  0  0  0  0  0
   60.2360   31.3790   50.5100 N   0  0  0  0  0  0  0  0  0  0  0  0
   58.8260   30.9140   50.3640 C   0  0  0  0  0  0  0  0  0  0  0  0
   58.6934   30.5274   49.3427 H   0  0  0  0  0  0  0  0  0  0  0  0
   58.6638   30.1444   51.1331 H   0  0  0  0  0  0  0  0  0  0  0  0
   57.7780   32.0100   50.6050 C   0  0  0  0  0  0  0  0  0  0  0  0
   57.8587   32.7675   49.8115 H   0  0  0  0  0  0  0  0  0  0  0  0
   56.7781   31.5517   50.5947 H   0  0  0  0  0  0  0  0  0  0  0  0
   57.9990   32.6810   51.9660 C   0  0  0  0  0  0  0  0  0  0  0  0
   57.4108   33.6099   51.9993 H   0  0  0  0  0  0  0  0  0  0  0  0
   57.6816   31.9684   52.7415 H   0  0  0  0  0  0  0  0  0  0  0  0
   59.4770   33.0250   52.2300 C   0  0  0  0  0  0  0  0  0  0  0  0
   59.5484   34.0885   52.5020 H   0  0  0  0  0  0  0  0  0  0  0  0
   59.8312   32.3746   53.0433 H   0  0  0  0  0  0  0  0  0  0  0  0
   60.3680   32.7690   51.0070 C   0  0  0  0  0  0  0  0  0  0  0  0
   60.0784   33.4630   50.2042 H   0  0  0  0  0  0  0  0  0  0  0  0
   61.4143   32.9262   51.3079 H   0  0  0  0  0  0  0  0  0  0  0  0
   59.5590   30.2440   46.9280 C   0  0  0  0  0  0  0  0  0  0  0  0
   60.1620   31.4620   47.2910 C   0  0  0  0  0  0  0  0  0  0  0  0
   61.3220   31.4910   48.1660 N   0  0  0  0  0  0  0  0  0  0  0  0
   61.2400   32.3040   48.8210 H   0  0  0  0  0  0  0  0  0  0  0  0
   61.3750   30.6370   48.7530 H   0  0  0  0  0  0  0  0  0  0  0  0
   62.6090   31.5640   47.4430 C   0  0  0  0  0  0  0  0  0  0  0  0
   62.3982   31.7445   46.3786 H   0  0  0  0  0  0  0  0  0  0  0  0
   63.1262   30.6087   47.6159 H   0  0  0  0  0  0  0  0  0  0  0  0
   63.5500   32.6800   47.9480 C   0  0  0  0  0  0  0  0  0  0  0  0
   63.5113   33.5143   47.2321 H   0  0  0  0  0  0  0  0  0  0  0  0
   64.5528   32.2355   48.0299 H   0  0  0  0  0  0  0  0  0  0  0  0
   63.2040   33.2040   49.2930 N   0  0  0  0  0  0  0  0  0  0  0  0
   62.6060   34.5520   49.1910 C   0  0  0  0  0  0  0  0  0  0  0  0
   62.4287   34.9518   50.2003 H   0  0  0  0  0  0  0  0  0  0  0  0
   63.2932   35.2179   48.6484 H   0  0  0  0  0  0  0  0  0  0  0  0
   61.6512   34.4895   48.6484 H   0  0  0  0  0  0  0  0  0  0  0  0
   64.4230   33.2900   50.1360 C   0  0  0  0  0  0  0  0  0  0  0  0
   64.1244   33.5253   51.1682 H   0  0  0  0  0  0  0  0  0  0  0  0
   65.0689   34.0762   49.7180 H   0  0  0  0  0  0  0  0  0  0  0  0
   65.2150   31.9820   50.1380 C   0  0  0  0  0  0  0  0  0  0  0  0
   65.4042   31.6695   51.1756 H   0  0  0  0  0  0  0  0  0  0  0  0
   64.6370   31.2026   49.6199 H   0  0  0  0  0  0  0  0  0  0  0  0
   66.1735   32.1330   49.6199 H   0  0  0  0  0  0  0  0  0  0  0  0
   59.6890   32.6320   46.6330 C   0  0  0  0  0  0  0  0  0  0  0  0
   60.0450   33.9190   47.0900 C   0  0  0  0  0  0  0  0  0  0  0  0
   60.6379   34.0223   48.0107 H   0  0  0  0  0  0  0  0  0  0  0  0
   59.6570   35.0590   46.3930 C   0  0  0  0  0  0  0  0  0  0  0  0
   59.9471   36.0534   46.7631 H   0  0  0  0  0  0  0  0  0  0  0  0
   58.9050   34.9450   45.2320 C   0  0  0  0  0  0  0  0  0  0  0  0
   58.6312   35.8479   44.6665 H   0  0  0  0  0  0  0  0  0  0  0  0
   58.4950   33.6920   44.7790 C   0  0  0  0  0  0  0  0  0  0  0  0
   57.8995   33.6183   43.8571 H   0  0  0  0  0  0  0  0  0  0  0  0
   58.8330   32.5110   45.4870 C   0  0  0  0  0  0  0  0  0  0  0  0
   58.3830   31.2670   45.0780 N   0  0  0  0  0  0  0  0  0  0  0  0
   57.4330   31.1190   43.9590 C   0  0  0  0  0  0  0  0  0  0  0  0
   56.4197   30.9611   44.3568 H   0  0  0  0  0  0  0  0  0  0  0  0
   57.4473   32.0302   43.3430 H   0  0  0  0  0  0  0  0  0  0  0  0
   57.7238   30.2553   43.3430 H   0  0  0  0  0  0  0  0  0  0  0  0
   58.8010   30.1600   45.7670 C   0  0  0  0  0  0  0  0  0  0  0  0
  1  2  1  0
  2  3  2  0
  3  4  1  0
  4  5  2  0
  5  6  1  0
  6  7  1  0
  6  8  2  0
  8  9  1  0
  5 10  1  0
 10 11  2  0
 11 12  1  0
 12 13  1  0
 13 14  1  0
 13 15  1  0
 13 16  1  0
 16 17  1  0
 16 18  1  0
 16 19  1  0
 19 20  1  0
 20 21  1  0
 20 22  1  0
 20 23  1  0
 23 24  1  0
 23 25  1  0
 23 26  1  0
 26 27  1  0
 26 28  1  0
 26 29  1  0
 29 30  1  0
 29 31  1  0
 29 32  1  0
 32 33  1  0
 32 34  1  0
 10 35  1  0
 35 36  2  0
 36 37  1  0
 37 38  1  0
 37 39  1  0
 37 40  1  0
 40 41  1  0
 40 42  1  0
 40 43  1  0
 43 44  1  0
 43 45  1  0
 43 46  1  0
 46 47  1  0
 47 48  1  0
 47 49  1  0
 47 50  1  0
 46 51  1  0
 51 52  1  0
 51 53  1  0
 51 54  1  0
 54 55  1  0
 54 56  1  0
 54 57  1  0
 36 58  1  0
 58 59  2  0
 59 60  1  0
 59 61  1  0
 61 62  1  0
 61 63  2  0
 63 64  1  0
 63 65  1  0
 65 66  1  0
 65 67  2  0
 67 68  1  0
 68 69  1  0
 69 70  1  0
 69 71  1  0
 69 72  1  0
 68 73  2  0
  8  2  1  0
 32 19  1  0
 73 35  1  0
 73  4  1  0
 67 58  1  0
M  CHG  2  37   1  68   1
M  END
>  <UniqueID>  (15) 
15

>  <SMILES>  (15) 
CCN(C)CC[NH2+]c1c2c([n+](C)c3ccccc13)-c1ncccc1/C2=N/OCCN1CCCCC1

>  <Energy>  (15) 
142.44098309282262

>  <Genealogy>  (15) 
CCN(C)CC[NH2+]c1c2c([n+](C)c3ccccc13)-c1ncccc1C2=NOCCN1CCCCC1 (protonated)
CCN(C)CC[NH2+]c1c2c([n+](C)c3ccccc13)-c1ncccc1/C2=N/OCCN1CCCCC1 (cis-trans isomerization)
CCN(C)CC[NH2+]c1c2c([n+](C)c3ccccc13)-c1ncccc1/C2=N/OCCN1CCCCC1 (3D coordinates assigned)
CCN(C)CC[NH2+]c1c2c([n+](C)c3ccccc13)-c1ncccc1/C2=N/OCCN1CCCCC1 (nonaromatic ring conformer: 142.44098309282262 kcal/mol)

>  <smiles>  (15) 
CCN(C)CCNc1c2c([n+](C)c3ccccc13)-c1ncccc1C2=NOCCN1CCCCC1

>  <score_type>  (15) 
oracle

>  <origin>  (15) 
adg

>  <m_score__min__energy>  (15) 
-5.21

>  <m_primary>  (15) 
energy

$$$$
15:0
     RDKit          3D

 56 60  0  0  0  0  0  0  0  0999 V2000
   60.6020   29.2970   50.0060 C   0  0  0  0  0  0  0  0  0  0  0  0
   61.0830   29.9360   48.7780 N   0  0  0  0  0  0  0  0  0  0  0  0
   62.0120   30.9120   48.6700 C   0  0  0  0  0  0  0  0  0  0  0  0
   62.8430   31.7040   50.0520 S   0  0  0  0  0  0  0  0  0  0  0  0
   61.3070   32.1560   50.9290 C   0  0  0  0  0  0  0  0  0  0  0  0
   60.5350   33.2410   50.1750 C   0  0  0  0  0  0  0  0  0  0  0  0
   61.4440   33.9260   49.1300 C   0  0  0  0  0  0  0  0  0  0  0  0
   60.7590   34.3840   47.9030 N   0  0  0  0  0  0  0  0  0  0  0  0
   59.4040   34.9290   48.0730 C   0  0  0  0  0  0  0  0  0  0  0  0
   58.6480   34.6880   46.7750 C   0  0  1  0  0  0  0  0  0  0  0  0
   59.3130   35.1710   45.4900 C   0  0  0  0  0  0  0  0  0  0  0  0
   59.5030   33.7340   45.9680 C   0  0  2  0  0  0  0  0  0  0  0  0
   58.7720   32.6420   45.2310 C   0  0  0  0  0  0  0  0  0  0  0  0
   58.4220   32.7980   43.8820 C   0  0  0  0  0  0  0  0  0  0  0  0
   57.7270   31.7860   43.2140 C   0  0  0  0  0  0  0  0  0  0  0  0
   57.3500   30.6120   43.8900 C   0  0  0  0  0  0  0  0  0  0  0  0
   56.5510   29.5530   43.1780 C   0  0  0  0  0  0  0  0  0  0  0  0
   57.2490   28.3560   43.1170 F   0  0  0  0  0  0  0  0  0  0  0  0
   55.3630   29.3430   43.8520 F   0  0  0  0  0  0  0  0  0  0  0  0
   56.2700   29.9550   41.8840 F   0  0  0  0  0  0  0  0  0  0  0  0
   57.6630   30.4830   45.2540 C   0  0  0  0  0  0  0  0  0  0  0  0
   58.3690   31.4910   45.9180 C   0  0  0  0  0  0  0  0  0  0  0  0
   60.7340   33.4140   46.8000 C   0  0  0  0  0  0  0  0  0  0  0  0
   62.2910   31.1980   47.3840 N   0  0  0  0  0  0  0  0  0  0  0  0
   61.5220   30.4040   46.6570 N   0  0  0  0  0  0  0  0  0  0  0  0
   60.7810   29.6490   47.4900 C   0  0  0  0  0  0  0  0  0  0  0  0
   59.8550   28.6000   47.0140 C   0  0  0  0  0  0  0  0  0  0  0  0
   59.9590   28.0390   45.7330 C   0  0  0  0  0  0  0  0  0  0  0  0
   59.0460   27.0550   45.3570 C   0  0  0  0  0  0  0  0  0  0  0  0
   58.0950   26.6420   46.2310 N   0  0  0  0  0  0  0  0  0  0  0  0
   58.0220   27.1710   47.4800 C   0  0  0  0  0  0  0  0  0  0  0  0
   58.8980   28.1360   47.8620 N   0  0  0  0  0  0  0  0  0  0  0  0
   61.0043   29.8314   50.8792 H   0  0  0  0  0  0  0  0  0  0  0  0
   59.5028   29.3301   50.0302 H   0  0  0  0  0  0  0  0  0  0  0  0
   60.9379   28.2498   50.0302 H   0  0  0  0  0  0  0  0  0  0  0  0
   60.6714   31.2630   51.0220 H   0  0  0  0  0  0  0  0  0  0  0  0
   61.5760   32.5472   51.9213 H   0  0  0  0  0  0  0  0  0  0  0  0
   59.6756   32.7839   49.6628 H   0  0  0  0  0  0  0  0  0  0  0  0
   60.1894   33.9970   50.8954 H   0  0  0  0  0  0  0  0  0  0  0  0
   61.9102   34.8012   49.6062 H   0  0  0  0  0  0  0  0  0  0  0  0
   62.1678   33.1627   48.8084 H   0  0  0  0  0  0  0  0  0  0  0  0
   58.8954   34.4186   48.9042 H   0  0  0  0  0  0  0  0  0  0  0  0
   59.4448   36.0037   48.3038 H   0  0  0  0  0  0  0  0  0  0  0  0
   57.6143   34.7950   47.1355 H   0  0  0  0  0  0  0  0  0  0  0  0
   58.7035   35.3795   44.5984 H   0  0  0  0  0  0  0  0  0  0  0  0
   59.9846   36.0001   45.2223 H   0  0  0  0  0  0  0  0  0  0  0  0
   58.6954   33.7199   43.3478 H   0  0  0  0  0  0  0  0  0  0  0  0
   57.4729   31.9089   42.1508 H   0  0  0  0  0  0  0  0  0  0  0  0
   57.3504   29.5827   45.8032 H   0  0  0  0  0  0  0  0  0  0  0  0
   58.6089   31.3788   46.9856 H   0  0  0  0  0  0  0  0  0  0  0  0
   60.6684   32.3900   47.1965 H   0  0  0  0  0  0  0  0  0  0  0  0
   61.6499   33.4785   46.1942 H   0  0  0  0  0  0  0  0  0  0  0  0
   61.5150   30.3840   45.6140 H   0  0  0  0  0  0  0  0  0  0  0  0
   60.7456   28.3690   45.0385 H   0  0  0  0  0  0  0  0  0  0  0  0
   59.0970   26.6133   44.3509 H   0  0  0  0  0  0  0  0  0  0  0  0
   57.2529   26.8176   48.1825 H   0  0  0  0  0  0  0  0  0  0  0  0
  1  2  1  0
  2  3  1  0
  3  4  1  0
  4  5  1  0
  5  6  1  0
  6  7  1  0
  7  8  1  0
  8  9  1  0
  9 10  1  0
 10 11  1  0
 11 12  1  0
 12 13  1  6
 13 14  2  0
 14 15  1  0
 15 16  2  0
 16 17  1  0
 17 18  1  0
 17 19  1  0
 17 20  1  0
 16 21  1  0
 21 22  2  0
 12 23  1  0
  3 24  2  0
 24 25  1  0
 25 26  2  0
 26 27  1  0
 27 28  2  0
 28 29  1  0
 29 30  2  0
 30 31  1  0
 31 32  2  0
 26  2  1  0
 32 27  1  0
 23  8  1  0
 12 10  1  0
 22 13  1  0
  1 33  1  0
  1 34  1  0
  1 35  1  0
  5 36  1  0
  5 37  1  0
  6 38  1  0
  6 39  1  0
  7 40  1  0
  7 41  1  0
  9 42  1  0
  9 43  1  0
 10 44  1  1
 11 45  1  0
 11 46  1  0
 14 47  1  0
 15 48  1  0
 21 49  1  0
 22 50  1  0
 23 51  1  0
 23 52  1  0
 25 53  1  0
 28 54  1  0
 29 55  1  0
 31 56  1  0
M  CHG  1  25   1
M  END
>  <UniqueID>  (16) 
16

>  <SMILES>  (16) 
Cn1c(SCCCN2C[C@H]3C[C@@]3(c3ccc(C(F)(F)F)cc3)C2)n[nH+]c1-c1ccncn1

>  <Energy>  (16) 
367.29500666208696

>  <Genealogy>  (16) 
Cn1c(SCCCN2CC3CC3(c3ccc(C(F)(F)F)cc3)C2)n[nH+]c1-c1ccncn1 (protonated)
Cn1c(SCCCN2C[C@H]3C[C@@]3(c3ccc(C(F)(F)F)cc3)C2)n[nH+]c1-c1ccncn1 (chirality)
Cn1c(SCCCN2C[C@H]3C[C@@]3(c3ccc(C(F)(F)F)cc3)C2)n[nH+]c1-c1ccncn1 (3D coordinates assigned)
Cn1c(SCCCN2C[C@H]3C[C@@]3(c3ccc(C(F)(F)F)cc3)C2)n[nH+]c1-c1ccncn1 (nonaromatic ring conformer: 367.29500666208696 kcal/mol)

>  <smiles>  (16) 
Cn1c(SCCCN2CC3CC3(c3ccc(C(F)(F)F)cc3)C2)nnc1-c1ccncn1

>  <score_type>  (16) 
oracle

>  <origin>  (16) 
adg

>  <m_score__min__energy>  (16) 
-7.5099999999999998

>  <m_primary>  (16) 
energy

$$$$
16:0
     RDKit          3D

 41 42  0  0  0  0  0  0  0  0999 V2000
   57.0670   30.7950   42.7770 C   0  0  0  0  0  0  0  0  0  0  0  0
   56.1220   29.9460   43.6120 C   0  0  0  0  0  0  0  0  0  0  0  0
   56.4620   30.0690   44.9890 O   0  0  0  0  0  0  0  0  0  0  0  0
   57.3240   29.1780   45.6380 C   0  0  0  0  0  0  0  0  0  0  0  0
   57.0960   27.9370   45.5990 O   0  0  0  0  0  0  0  0  0  0  0  0
   58.5010   29.6950   46.3700 C   0  0  0  0  0  0  0  0  0  0  0  0
   59.5570   30.3060   45.6750 C   0  0  0  0  0  0  0  0  0  0  0  0
   60.6700   30.7970   46.3640 C   0  0  0  0  0  0  0  0  0  0  0  0
   60.7510   30.6940   47.7590 C   0  0  0  0  0  0  0  0  0  0  0  0
   61.9140   31.2110   48.4350 N   0  0  0  0  0  0  0  0  0  0  0  0
   62.0130   32.5490   49.0210 C   0  0  0  0  0  0  0  0  0  0  0  0
   61.4280   33.6150   48.0840 C   0  0  0  0  0  0  0  0  0  0  0  0
   59.9570   33.9100   48.4020 C   0  0  0  0  0  0  0  0  0  0  0  0
   59.1170   33.7880   47.1650 C   0  0  0  0  0  0  0  0  0  0  0  0
   59.3570   34.5980   46.0500 C   0  0  0  0  0  0  0  0  0  0  0  0
   58.5770   34.4300   44.9080 C   0  0  0  0  0  0  0  0  0  0  0  0
   57.5830   33.4540   44.9020 C   0  0  0  0  0  0  0  0  0  0  0  0
   57.3930   32.6820   46.0050 N   0  0  0  0  0  0  0  0  0  0  0  0
   58.1410   32.8430   47.1000 N   0  0  0  0  0  0  0  0  0  0  0  0
   59.6980   30.0720   48.4560 C   0  0  0  0  0  0  0  0  0  0  0  0
   58.5840   29.5820   47.7690 C   0  0  0  0  0  0  0  0  0  0  0  0
   57.7187   31.3805   43.4422 H   0  0  0  0  0  0  0  0  0  0  0  0
   57.6833   30.1413   42.1423 H   0  0  0  0  0  0  0  0  0  0  0  0
   56.4828   31.4775   42.1423 H   0  0  0  0  0  0  0  0  0  0  0  0
   55.0883   30.2890   43.4578 H   0  0  0  0  0  0  0  0  0  0  0  0
   56.2093   28.8930   43.3062 H   0  0  0  0  0  0  0  0  0  0  0  0
   59.5082   30.3991   44.5800 H   0  0  0  0  0  0  0  0  0  0  0  0
   61.4911   31.2693   45.8048 H   0  0  0  0  0  0  0  0  0  0  0  0
   62.7630   30.6030   48.4960 H   0  0  0  0  0  0  0  0  0  0  0  0
   61.4597   32.5653   49.9715 H   0  0  0  0  0  0  0  0  0  0  0  0
   63.0764   32.7777   49.1847 H   0  0  0  0  0  0  0  0  0  0  0  0
   62.0087   34.5427   48.1941 H   0  0  0  0  0  0  0  0  0  0  0  0
   61.4843   33.2321   47.0543 H   0  0  0  0  0  0  0  0  0  0  0  0
   59.5986   33.1927   49.1551 H   0  0  0  0  0  0  0  0  0  0  0  0
   59.8755   34.9371   48.7873 H   0  0  0  0  0  0  0  0  0  0  0  0
   60.1517   35.3581   46.0746 H   0  0  0  0  0  0  0  0  0  0  0  0
   58.7439   35.0602   44.0220 H   0  0  0  0  0  0  0  0  0  0  0  0
   56.9556   33.3088   44.0102 H   0  0  0  0  0  0  0  0  0  0  0  0
   56.6510   31.9480   45.9980 H   0  0  0  0  0  0  0  0  0  0  0  0
   59.7524   29.9708   49.5500 H   0  0  0  0  0  0  0  0  0  0  0  0
   57.7655   29.1041   48.3273 H   0  0  0  0  0  0  0  0  0  0  0  0
  1  2  1  0
  2  3  1  0
  3  4  1  0
  4  5  2  0
  4  6  1  0
  6  7  2  0
  7  8  1  0
  8  9  2  0
  9 10  1  0
 10 11  1  0
 11 12  1  0
 12 13  1  0
 13 14  1  0
 14 15  2  0
 15 16  1  0
 16 17  2  0
 17 18  1  0
 18 19  2  0
  9 20  1  0
 20 21  2  0
 21  6  1  0
 19 14  1  0
  1 22  1  0
  1 23  1  0
  1 24  1  0
  2 25  1  0
  2 26  1  0
  7 27  1  0
  8 28  1  0
 10 29  1  0
 11 30  1  0
 11 31  1  0
 12 32  1  0
 12 33  1  0
 13 34  1  0
 13 35  1  0
 15 36  1  0
 16 37  1  0
 17 38  1  0
 18 39  1  0
 20 40  1  0
 21 41  1  0
M  CHG  1  18   1
M  END
>  <UniqueID>  (17) 
17

>  <SMILES>  (17) 
CCOC(=O)c1ccc(NCCCc2ccc[nH+]n2)cc1

>  <Energy>  (17) 
31.422113688067004

>  <Genealogy>  (17) 
CCOC(=O)c1ccc(NCCCc2ccc[nH+]n2)cc1 (protonated)
CCOC(=O)c1ccc(NCCCc2ccc[nH+]n2)cc1 (3D coordinates assigned)
CCOC(=O)c1ccc(NCCCc2ccc[nH+]n2)cc1 (optimized conformer: 31.422113688067004 kcal/mol)

>  <smiles>  (17) 
CCOC(=O)c1ccc(NCCCc2cccnn2)cc1

>  <score_type>  (17) 
oracle

>  <origin>  (17) 
adg

>  <m_score__min__energy>  (17) 
-6.1399999999999997

>  <m_primary>  (17) 
energy

$$$$
17:0
     RDKit          3D

 38 38  0  0  0  0  0  0  0  0999 V2000
   57.0260   31.5680   46.3990 H   0  0  0  0  0  0  0  0  0  0  0  0
   57.8770   31.4340   46.8880 O   0  0  0  0  0  0  0  0  0  0  0  0
   58.1210   32.8630   47.7380 S   0  0  0  0  0  0  0  0  0  0  0  0
   59.2850   32.6200   49.0630 C   0  0  0  0  0  0  0  0  0  0  0  0
   58.7692   32.7277   50.0286 H   0  0  0  0  0  0  0  0  0  0  0  0
   59.7190   31.6119   48.9896 H   0  0  0  0  0  0  0  0  0  0  0  0
   60.0861   33.3703   48.9896 H   0  0  0  0  0  0  0  0  0  0  0  0
   58.6050   34.1930   46.6480 C   0  0  0  0  0  0  0  0  0  0  0  0
   59.6687   34.0785   46.3922 H   0  0  0  0  0  0  0  0  0  0  0  0
   58.4316   35.1483   47.1651 H   0  0  0  0  0  0  0  0  0  0  0  0
   57.7760   34.1810   45.3580 C   0  0  0  0  0  0  0  0  0  0  0  0
   57.5254   35.2186   45.0922 H   0  0  0  0  0  0  0  0  0  0  0  0
   56.8757   33.5787   45.5497 H   0  0  0  0  0  0  0  0  0  0  0  0
   58.5190   33.5370   44.1750 C   0  0  0  0  0  0  0  0  0  0  0  0
   59.5047   33.1974   44.5259 H   0  0  0  0  0  0  0  0  0  0  0  0
   58.5978   34.3007   43.3873 H   0  0  0  0  0  0  0  0  0  0  0  0
   57.7800   32.3390   43.5700 C   0  0  0  0  0  0  0  0  0  0  0  0
   58.4530   31.8075   42.8811 H   0  0  0  0  0  0  0  0  0  0  0  0
   56.8948   32.7014   43.0268 H   0  0  0  0  0  0  0  0  0  0  0  0
   57.3590   31.4450   44.6010 O   0  0  0  0  0  0  0  0  0  0  0  0
   56.1870   30.7090   44.5520 N   0  0  0  0  0  0  0  0  0  0  0  0
   55.9140   29.8110   43.6540 C   0  0  0  0  0  0  0  0  0  0  0  0
   54.8731   29.6388   43.3427 H   0  0  0  0  0  0  0  0  0  0  0  0
   57.0220   29.0130   43.0460 C   0  0  0  0  0  0  0  0  0  0  0  0
   57.6090   29.6587   42.3763 H   0  0  0  0  0  0  0  0  0  0  0  0
   56.5900   28.1753   42.4788 H   0  0  0  0  0  0  0  0  0  0  0  0
   57.8940   28.4810   44.0880 N   0  0  0  0  0  0  0  0  0  0  0  0
   58.2350   27.1870   44.2530 C   0  0  0  0  0  0  0  0  0  0  0  0
   57.9525   26.3538   43.5928 H   0  0  0  0  0  0  0  0  0  0  0  0
   59.0020   27.0930   45.3980 C   0  0  0  0  0  0  0  0  0  0  0  0
   59.5220   25.8440   46.0310 C   0  0  0  0  0  0  0  0  0  0  0  0
   59.4807   25.9431   47.1257 H   0  0  0  0  0  0  0  0  0  0  0  0
   58.9050   24.9893   45.7167 H   0  0  0  0  0  0  0  0  0  0  0  0
   60.5633   25.6797   45.7167 H   0  0  0  0  0  0  0  0  0  0  0  0
   59.0640   28.3750   45.9140 C   0  0  0  0  0  0  0  0  0  0  0  0
   59.5809   28.6737   46.8379 H   0  0  0  0  0  0  0  0  0  0  0  0
   58.3830   29.1940   45.0910 N   0  0  0  0  0  0  0  0  0  0  0  0
   58.2340   30.2190   45.2270 H   0  0  0  0  0  0  0  0  0  0  0  0
  1  2  1  0
  3  2  1  6
  3  4  1  0
  4  5  1  0
  4  6  1  0
  4  7  1  0
  3  8  1  0
  8  9  1  0
  8 10  1  0
  8 11  1  0
 11 12  1  0
 11 13  1  0
 11 14  1  0
 14 15  1  0
 14 16  1  0
 14 17  1  0
 17 18  1  0
 17 19  1  0
 17 20  1  0
 20 21  1  0
 21 22  2  0
 22 23  1  0
 22 24  1  0
 24 25  1  0
 24 26  1  0
 24 27  1  0
 27 28  1  0
 28 29  1  0
 28 30  2  0
 30 31  1  0
 31 32  1  0
 31 33  1  0
 31 34  1  0
 30 35  1  0
 35 36  1  0
 35 37  2  0
 37 38  1  0
 37 27  1  0
M  CHG  2   3   1  37   1
M  END
>  <UniqueID>  (18) 
18

>  <SMILES>  (18) 
Cc1c[nH+]n(C/C=N/OCCCC[S@+](C)O)c1

>  <Energy>  (18) 
50.68054179373406

>  <Genealogy>  (18) 
Cc1c[nH+]n(CC=NOCCCC[S+](C)O)c1 (protonated)
Cc1c[nH+]n(CC=NOCCCC[S@+](C)O)c1 (chirality)
Cc1c[nH+]n(C/C=N/OCCCC[S@+](C)O)c1 (cis-trans isomerization)
Cc1c[nH+]n(C/C=N/OCCCC[S@+](C)O)c1 (3D coordinates assigned)
Cc1c[nH+]n(C/C=N/OCCCC[S@+](C)O)c1 (optimized conformer: 50.68054179373406 kcal/mol)

>  <smiles>  (18) 
Cc1cnn(CC=NOCCCC[S+](C)[O-])c1

>  <score_type>  (18) 
oracle

>  <origin>  (18) 
adg

>  <m_score__min__energy>  (18) 
-2.2599999999999998

>  <m_primary>  (18) 
energy

$$$$
18:0
     RDKit          3D

 51 53  0  0  0  0  0  0  0  0999 V2000
   57.7520   30.6650   51.6150 C   0  0  0  0  0  0  0  0  0  0  0  0
   58.1670   31.1830   50.2480 C   0  0  0  0  0  0  0  0  0  0  0  0
   59.4640   30.6910   49.9270 O   0  0  0  0  0  0  0  0  0  0  0  0
   60.3480   31.4190   49.1260 C   0  0  0  0  0  0  0  0  0  0  0  0
   60.7370   32.7190   49.4990 C   0  0  0  0  0  0  0  0  0  0  0  0
   60.1560   33.4450   50.9890 Cl  0  0  0  0  0  0  0  0  0  0  0  0
   61.6310   33.4370   48.6990 C   0  0  0  0  0  0  0  0  0  0  0  0
   62.1530   32.8630   47.5370 C   0  0  0  0  0  0  0  0  0  0  0  0
   63.3860   33.8450   46.4590 Br  0  0  0  0  0  0  0  0  0  0  0  0
   61.7810   31.5670   47.1690 C   0  0  0  0  0  0  0  0  0  0  0  0
   60.8710   30.8400   47.9530 C   0  0  0  0  0  0  0  0  0  0  0  0
   60.5140   29.4250   47.5600 C   0  0  0  0  0  0  0  0  0  0  0  0
   59.0520   29.2520   47.5280 N   0  0  0  0  0  0  0  0  0  0  0  0
   58.6590   27.8620   47.2330 C   0  0  0  0  0  0  0  0  0  0  0  0
   58.7020   27.5510   45.7250 C   0  0  0  0  0  0  0  0  0  0  0  0
   57.2940   27.4130   45.1340 C   0  0  0  0  0  0  0  0  0  0  0  0
   56.5350   28.6530   45.3030 N   0  0  0  0  0  0  0  0  0  0  0  0
   57.0740   29.9500   44.9990 C   0  0  0  0  0  0  0  0  0  0  0  0
   57.1770   30.3690   43.6660 C   0  0  0  0  0  0  0  0  0  0  0  0
   57.7000   31.6320   43.3720 C   0  0  0  0  0  0  0  0  0  0  0  0
   57.7870   32.0010   42.1680 O   0  0  0  0  0  0  0  0  0  0  0  0
   58.1190   32.4740   44.4180 C   0  0  0  0  0  0  0  0  0  0  0  0
   58.6520   33.7550   44.1790 C   0  0  0  0  0  0  0  0  0  0  0  0
   59.0550   34.5590   45.2500 C   0  0  0  0  0  0  0  0  0  0  0  0
   58.9320   34.0960   46.5630 C   0  0  0  0  0  0  0  0  0  0  0  0
   58.4050   32.8250   46.8140 C   0  0  0  0  0  0  0  0  0  0  0  0
   57.9980   32.0120   45.7490 C   0  0  0  0  0  0  0  0  0  0  0  0
   57.4850   30.7780   45.9980 N   0  0  0  0  0  0  0  0  0  0  0  0
   58.2352   31.2681   52.3978 H   0  0  0  0  0  0  0  0  0  0  0  0
   56.6593   30.7375   51.7184 H   0  0  0  0  0  0  0  0  0  0  0  0
   58.0611   29.6144   51.7184 H   0  0  0  0  0  0  0  0  0  0  0  0
   57.4467   30.8386   49.4913 H   0  0  0  0  0  0  0  0  0  0  0  0
   58.1857   32.2827   50.2631 H   0  0  0  0  0  0  0  0  0  0  0  0
   61.9245   34.4577   48.9855 H   0  0  0  0  0  0  0  0  0  0  0  0
   62.2036   31.1140   46.2600 H   0  0  0  0  0  0  0  0  0  0  0  0
   60.9257   29.2115   46.5626 H   0  0  0  0  0  0  0  0  0  0  0  0
   60.9381   28.7320   48.3015 H   0  0  0  0  0  0  0  0  0  0  0  0
   58.6380   29.5580   48.4400 H   0  0  0  0  0  0  0  0  0  0  0  0
   58.6600   29.8630   46.7730 H   0  0  0  0  0  0  0  0  0  0  0  0
   59.3478   27.1812   47.7546 H   0  0  0  0  0  0  0  0  0  0  0  0
   57.6229   27.7247   47.5760 H   0  0  0  0  0  0  0  0  0  0  0  0
   59.2274   28.3672   45.2075 H   0  0  0  0  0  0  0  0  0  0  0  0
   59.2270   26.5943   45.5870 H   0  0  0  0  0  0  0  0  0  0  0  0
   57.3742   27.1827   44.0614 H   0  0  0  0  0  0  0  0  0  0  0  0
   56.7683   26.6034   45.6614 H   0  0  0  0  0  0  0  0  0  0  0  0
   55.5200   28.5770   45.5400 H   0  0  0  0  0  0  0  0  0  0  0  0
   56.8472   29.7059   42.8526 H   0  0  0  0  0  0  0  0  0  0  0  0
   58.7517   34.1243   43.1476 H   0  0  0  0  0  0  0  0  0  0  0  0
   59.4703   35.5594   45.0583 H   0  0  0  0  0  0  0  0  0  0  0  0
   59.2506   34.7330   47.4013 H   0  0  0  0  0  0  0  0  0  0  0  0
   58.3102   32.4638   47.8487 H   0  0  0  0  0  0  0  0  0  0  0  0
  1  2  1  0
  2  3  1  0
  3  4  1  0
  4  5  2  0
  5  6  1  0
  5  7  1  0
  7  8  2  0
  8  9  1  0
  8 10  1  0
 10 11  2  0
 11 12  1  0
 12 13  1  0
 13 14  1  0
 14 15  1  0
 15 16  1  0
 16 17  1  0
 17 18  1  0
 18 19  2  0
 19 20  1  0
 20 21  2  0
 20 22  1  0
 22 23  2  0
 23 24  1  0
 24 25  2  0
 25 26  1  0
 26 27  2  0
 27 28  1  0
 11  4  1  0
 28 18  1  0
 27 22  1  0
  1 29  1  0
  1 30  1  0
  1 31  1  0
  2 32  1  0
  2 33  1  0
  7 34  1  0
 10 35  1  0
 12 36  1  0
 12 37  1  0
 13 38  1  0
 13 39  1  0
 14 40  1  0
 14 41  1  0
 15 42  1  0
 15 43  1  0
 16 44  1  0
 16 45  1  0
 17 46  1  0
 19 47  1  0
 23 48  1  0
 24 49  1  0
 25 50  1  0
 26 51  1  0
M  CHG  2  13   1  28  -1
M  END
>  <UniqueID>  (19) 
19

>  <SMILES>  (19) 
CCOc1c(Cl)cc(Br)cc1C[NH2+]CCCNc1cc(=O)c2ccccc2[n-]1

>  <Energy>  (19) 
56.39552710685167

>  <Genealogy>  (19) 
CCOc1c(Cl)cc(Br)cc1C[NH2+]CCCNc1cc(=O)c2ccccc2[n-]1 (protonated)
CCOc1c(Cl)cc(Br)cc1C[NH2+]CCCNc1cc(=O)c2ccccc2[n-]1 (3D coordinates assigned)
CCOc1c(Cl)cc(Br)cc1C[NH2+]CCCNc1cc(=O)c2ccccc2[n-]1 (optimized conformer: 56.39552710685167 kcal/mol)

>  <smiles>  (19) 
CCOc1c(Cl)cc(Br)cc1CNCCCNc1cc(=O)c2ccccc2[nH]1

>  <score_type>  (19) 
oracle

>  <origin>  (19) 
adg

>  <m_score__min__energy>  (19) 
-8.25

>  <m_primary>  (19) 
energy

$$$$
19:0
     RDKit          3D

 57 60  0  0  0  0  0  0  0  0999 V2000
   59.9700   33.7910   52.7810 C   0  0  0  0  0  0  0  0  0  0  0  0
   58.5720   33.9050   52.1780 C   0  0  0  0  0  0  0  0  0  0  0  0
   58.1280   32.6500   51.7000 O   0  0  0  0  0  0  0  0  0  0  0  0
   58.0130   31.6980   52.7450 C   0  0  0  0  0  0  0  0  0  0  0  0
   57.4570   30.3910   52.1860 C   0  0  0  0  0  0  0  0  0  0  0  0
   57.7980   30.2690   50.8170 O   0  0  0  0  0  0  0  0  0  0  0  0
   58.9020   29.4040   50.6490 C   0  0  0  0  0  0  0  0  0  0  0  0
   60.0530   30.1630   49.9860 C   0  0  0  0  0  0  0  0  0  0  0  0
   59.8630   31.6190   50.0910 N   0  0  0  0  0  0  0  0  0  0  0  0
   60.6960   32.3120   49.1310 C   0  0  0  0  0  0  0  0  0  0  0  0
   60.1370   33.0390   48.0370 C   0  0  0  0  0  0  0  0  0  0  0  0
   58.7420   33.2430   47.9200 C   0  0  0  0  0  0  0  0  0  0  0  0
   58.2090   33.9800   46.8650 C   0  0  0  0  0  0  0  0  0  0  0  0
   59.0460   34.5400   45.9100 C   0  0  0  0  0  0  0  0  0  0  0  0
   60.4240   34.3630   45.9930 C   0  0  0  0  0  0  0  0  0  0  0  0
   61.0040   33.6010   47.0360 C   0  0  0  0  0  0  0  0  0  0  0  0
   62.3750   33.4120   47.1100 N   0  0  0  0  0  0  0  0  0  0  0  0
   63.2720   33.8470   46.0220 C   0  0  0  0  0  0  0  0  0  0  0  0
   62.8940   32.8360   48.2360 C   0  0  0  0  0  0  0  0  0  0  0  0
   64.2110   32.7300   48.5380 N   0  0  0  0  0  0  0  0  0  0  0  0
   64.2550   32.1240   49.7360 C   0  0  0  0  0  0  0  0  0  0  0  0
   65.4040   31.8200   50.4600 C   0  0  0  0  0  0  0  0  0  0  0  0
   65.2560   31.2190   51.7180 C   0  0  0  0  0  0  0  0  0  0  0  0
   63.9690   30.9600   52.2490 C   0  0  0  0  0  0  0  0  0  0  0  0
   63.8280   30.2890   53.5940 C   0  0  0  0  0  0  0  0  0  0  0  0
   63.7800   31.2280   54.6100 F   0  0  0  0  0  0  0  0  0  0  0  0
   62.6610   29.5480   53.6110 F   0  0  0  0  0  0  0  0  0  0  0  0
   64.9000   29.4480   53.8330 F   0  0  0  0  0  0  0  0  0  0  0  0
   62.8220   31.2640   51.4810 C   0  0  0  0  0  0  0  0  0  0  0  0
   62.9900   31.8420   50.2120 C   0  0  0  0  0  0  0  0  0  0  0  0
   62.1000   32.3000   49.2370 C   0  0  0  0  0  0  0  0  0  0  0  0
   59.8975   33.7969   53.8786 H   0  0  0  0  0  0  0  0  0  0  0  0
   60.4369   32.8518   52.4494 H   0  0  0  0  0  0  0  0  0  0  0  0
   60.5829   34.6422   52.4494 H   0  0  0  0  0  0  0  0  0  0  0  0
   57.8748   34.2646   52.9491 H   0  0  0  0  0  0  0  0  0  0  0  0
   58.6077   34.6111   51.3353 H   0  0  0  0  0  0  0  0  0  0  0  0
   59.0044   31.5158   53.1853 H   0  0  0  0  0  0  0  0  0  0  0  0
   57.3327   32.0840   53.5184 H   0  0  0  0  0  0  0  0  0  0  0  0
   57.8830   29.5447   52.7449 H   0  0  0  0  0  0  0  0  0  0  0  0
   56.3617   30.3902   52.2880 H   0  0  0  0  0  0  0  0  0  0  0  0
   59.2274   29.0309   51.6313 H   0  0  0  0  0  0  0  0  0  0  0  0
   58.6084   28.5568   50.0118 H   0  0  0  0  0  0  0  0  0  0  0  0
   60.9960   29.8879   50.4810 H   0  0  0  0  0  0  0  0  0  0  0  0
   60.0799   29.8919   48.9203 H   0  0  0  0  0  0  0  0  0  0  0  0
   58.8650   31.8860   49.9520 H   0  0  0  0  0  0  0  0  0  0  0  0
   60.0730   31.9440   51.0620 H   0  0  0  0  0  0  0  0  0  0  0  0
   58.0672   32.8126   48.6745 H   0  0  0  0  0  0  0  0  0  0  0  0
   57.1205   34.1187   46.7885 H   0  0  0  0  0  0  0  0  0  0  0  0
   58.6183   35.1265   45.0836 H   0  0  0  0  0  0  0  0  0  0  0  0
   61.0743   34.8234   45.2346 H   0  0  0  0  0  0  0  0  0  0  0  0
   64.1829   34.2887   46.4523 H   0  0  0  0  0  0  0  0  0  0  0  0
   63.5428   32.9801   45.4013 H   0  0  0  0  0  0  0  0  0  0  0  0
   62.7590   34.5964   45.4013 H   0  0  0  0  0  0  0  0  0  0  0  0
   65.0380   33.0800   48.0050 H   0  0  0  0  0  0  0  0  0  0  0  0
   66.4020   32.0453   50.0559 H   0  0  0  0  0  0  0  0  0  0  0  0
   66.1493   30.9457   52.2988 H   0  0  0  0  0  0  0  0  0  0  0  0
   61.8154   31.0516   51.8704 H   0  0  0  0  0  0  0  0  0  0  0  0
  1  2  1  0
  2  3  1  0
  3  4  1  0
  4  5  1  0
  5  6  1  0
  6  7  1  0
  7  8  1  0
  8  9  1  0
  9 10  1  0
 10 11  2  0
 11 12  1  0
 12 13  2  0
 13 14  1  0
 14 15  2  0
 15 16  1  0
 16 17  2  0
 17 18  1  0
 17 19  1  0
 19 20  1  0
 20 21  1  0
 21 22  2  0
 22 23  1  0
 23 24  2  0
 24 25  1  0
 25 26  1  0
 25 27  1  0
 25 28  1  0
 24 29  1  0
 29 30  2  0
 30 31  1  0
 31 10  1  0
 16 11  1  0
 31 19  2  0
 30 21  1  0
  1 32  1  0
  1 33  1  0
  1 34  1  0
  2 35  1  0
  2 36  1  0
  4 37  1  0
  4 38  1  0
  5 39  1  0
  5 40  1  0
  7 41  1  0
  7 42  1  0
  8 43  1  0
  8 44  1  0
  9 45  1  0
  9 46  1  0
 12 47  1  0
 13 48  1  0
 14 49  1  0
 15 50  1  0
 18 51  1  0
 18 52  1  0
 18 53  1  0
 20 54  1  0
 22 55  1  0
 23 56  1  0
 29 57  1  0
M  CHG  2   9   1  17   1
M  END
>  <UniqueID>  (20) 
20

>  <SMILES>  (20) 
CCOCCOCC[NH2+]c1c2ccccc2[n+](C)c2[nH]c3ccc(C(F)(F)F)cc3c12

>  <Energy>  (20) 
117.55832104319782

>  <Genealogy>  (20) 
CCOCCOCC[NH2+]c1c2ccccc2[n+](C)c2[nH]c3ccc(C(F)(F)F)cc3c12 (protonated)
CCOCCOCC[NH2+]c1c2ccccc2[n+](C)c2[nH]c3ccc(C(F)(F)F)cc3c12 (3D coordinates assigned)
CCOCCOCC[NH2+]c1c2ccccc2[n+](C)c2[nH]c3ccc(C(F)(F)F)cc3c12 (optimized conformer: 117.55832104319782 kcal/mol)

>  <smiles>  (20) 
CCOCCOCCNc1c2ccccc2[n+](C)c2[nH]c3ccc(C(F)(F)F)cc3c12

>  <score_type>  (20) 
oracle

>  <origin>  (20) 
adg

>  <m_score__min__energy>  (20) 
-3.79

>  <m_primary>  (20) 
energy

$$$$
20:0
     RDKit          3D

 89 93  0  0  0  0  0  0  0  0999 V2000
   55.2960   24.0200   44.8550 C   0  0  0  0  0  0  0  0  0  0  0  0
   54.2850   24.8750   45.6150 C   0  0  0  0  0  0  0  0  0  0  0  0
   54.8630   26.1130   45.9920 O   0  0  0  0  0  0  0  0  0  0  0  0
   56.2070   25.9460   46.4080 C   0  0  0  0  0  0  0  0  0  0  0  0
   57.1390   26.8540   45.5930 C   0  0  0  0  0  0  0  0  0  0  0  0
   58.0660   27.5200   46.4300 O   0  0  0  0  0  0  0  0  0  0  0  0
   59.0010   26.6060   46.9710 C   0  0  0  0  0  0  0  0  0  0  0  0
   60.4040   26.9320   46.4330 C   0  0  0  0  0  0  0  0  0  0  0  0
   60.6360   28.4460   46.2160 C   0  0  0  0  0  0  0  0  0  0  0  0
   59.7320   29.3320   46.9870 N   0  0  0  0  0  0  0  0  0  0  0  0
   59.5450   30.6520   46.4160 C   0  0  0  0  0  0  0  0  0  0  0  0
   58.6680   30.8630   45.3080 C   0  0  0  0  0  0  0  0  0  0  0  0
   57.9820   29.7860   44.6930 C   0  0  0  0  0  0  0  0  0  0  0  0
   57.1790   29.9870   43.5740 C   0  0  0  0  0  0  0  0  0  0  0  0
   57.0340   31.2570   43.0360 C   0  0  0  0  0  0  0  0  0  0  0  0
   57.6720   32.3440   43.6260 C   0  0  0  0  0  0  0  0  0  0  0  0
   58.4790   32.1870   44.7820 C   0  0  0  0  0  0  0  0  0  0  0  0
   59.0830   33.2750   45.3850 N   0  0  0  0  0  0  0  0  0  0  0  0
   58.7990   34.6530   44.9360 C   0  0  0  0  0  0  0  0  0  0  0  0
   59.9700   33.0510   46.4040 C   0  0  0  0  0  0  0  0  0  0  0  0
   60.7160   33.9980   47.0180 N   0  0  0  0  0  0  0  0  0  0  0  0
   61.4250   33.3480   47.9550 C   0  0  0  0  0  0  0  0  0  0  0  0
   62.3410   33.9260   48.8280 C   0  0  0  0  0  0  0  0  0  0  0  0
   63.0260   33.0950   49.7220 C   0  0  0  0  0  0  0  0  0  0  0  0
   62.7940   31.6970   49.7250 C   0  0  0  0  0  0  0  0  0  0  0  0
   63.4900   30.8160   50.5700 O   0  0  0  0  0  0  0  0  0  0  0  0
   63.5340   30.8910   51.9950 C   0  0  0  0  0  0  0  0  0  0  0  0
   64.8900   31.4790   52.4550 C   0  0  0  0  0  0  0  0  0  0  0  0
   66.1000   30.9100   51.7740 N   0  0  0  0  0  0  0  0  0  0  0  0
   66.3290   31.6300   50.4920 C   0  0  0  0  0  0  0  0  0  0  0  0
   65.9140   29.4460   51.5060 C   0  0  0  0  0  0  0  0  0  0  0  0
   67.2460   28.6710   51.5180 C   0  0  0  0  0  0  0  0  0  0  0  0
   67.9090   28.7140   52.8610 N   0  0  0  0  0  0  0  0  0  0  0  0
   69.3790   28.6230   52.6770 C   0  0  0  0  0  0  0  0  0  0  0  0
   67.4760   27.5450   53.6670 C   0  0  0  0  0  0  0  0  0  0  0  0
   67.5740   29.9700   53.6060 C   0  0  0  0  0  0  0  0  0  0  0  0
   67.2950   31.1510   52.6550 C   0  0  0  0  0  0  0  0  0  0  0  0
   61.8490   31.1460   48.8400 C   0  0  0  0  0  0  0  0  0  0  0  0
   61.1610   31.9940   47.9510 C   0  0  0  0  0  0  0  0  0  0  0  0
   60.2110   31.7890   46.9320 C   0  0  0  0  0  0  0  0  0  0  0  0
   55.9330   23.4813   45.5719 H   0  0  0  0  0  0  0  0  0  0  0  0
   54.7617   23.2956   44.2227 H   0  0  0  0  0  0  0  0  0  0  0  0
   55.9217   24.6671   44.2227 H   0  0  0  0  0  0  0  0  0  0  0  0
   53.4140   25.0640   44.9702 H   0  0  0  0  0  0  0  0  0  0  0  0
   53.9761   24.3364   46.5230 H   0  0  0  0  0  0  0  0  0  0  0  0
   56.2908   26.2046   47.4739 H   0  0  0  0  0  0  0  0  0  0  0  0
   56.5014   24.8983   46.2477 H   0  0  0  0  0  0  0  0  0  0  0  0
   57.6896   26.2412   44.8642 H   0  0  0  0  0  0  0  0  0  0  0  0
   56.5269   27.6106   45.0802 H   0  0  0  0  0  0  0  0  0  0  0  0
   59.0007   26.6869   48.0680 H   0  0  0  0  0  0  0  0  0  0  0  0
   58.7246   25.5820   46.6796 H   0  0  0  0  0  0  0  0  0  0  0  0
   61.1492   26.5637   47.1535 H   0  0  0  0  0  0  0  0  0  0  0  0
   60.5005   26.4424   45.4527 H   0  0  0  0  0  0  0  0  0  0  0  0
   61.6714   28.6782   46.5060 H   0  0  0  0  0  0  0  0  0  0  0  0
   60.4276   28.6412   45.1537 H   0  0  0  0  0  0  0  0  0  0  0  0
   60.0400   29.3950   47.9760 H   0  0  0  0  0  0  0  0  0  0  0  0
   58.8030   28.8610   47.0810 H   0  0  0  0  0  0  0  0  0  0  0  0
   58.0861   28.7725   45.1077 H   0  0  0  0  0  0  0  0  0  0  0  0
   56.6571   29.1348   43.1143 H   0  0  0  0  0  0  0  0  0  0  0  0
   56.4129   31.4056   42.1404 H   0  0  0  0  0  0  0  0  0  0  0  0
   57.5480   33.3450   43.1871 H   0  0  0  0  0  0  0  0  0  0  0  0
   58.6648   35.3039   45.8125 H   0  0  0  0  0  0  0  0  0  0  0  0
   59.6400   35.0220   44.3305 H   0  0  0  0  0  0  0  0  0  0  0  0
   57.8807   34.6594   44.3305 H   0  0  0  0  0  0  0  0  0  0  0  0
   60.7880   35.0170   46.8130 H   0  0  0  0  0  0  0  0  0  0  0  0
   62.5227   35.0108   48.8160 H   0  0  0  0  0  0  0  0  0  0  0  0
   63.7495   33.5301   50.4272 H   0  0  0  0  0  0  0  0  0  0  0  0
   62.7179   31.5370   52.3507 H   0  0  0  0  0  0  0  0  0  0  0  0
   63.4199   29.8797   52.4125 H   0  0  0  0  0  0  0  0  0  0  0  0
   64.8720   32.5626   52.2664 H   0  0  0  0  0  0  0  0  0  0  0  0
   64.9892   31.2183   53.5191 H   0  0  0  0  0  0  0  0  0  0  0  0
   66.6562   32.6588   50.7027 H   0  0  0  0  0  0  0  0  0  0  0  0
   67.1059   31.1095   49.9128 H   0  0  0  0  0  0  0  0  0  0  0  0
   65.3941   31.6539   49.9128 H   0  0  0  0  0  0  0  0  0  0  0  0
   65.2546   29.0265   52.2801 H   0  0  0  0  0  0  0  0  0  0  0  0
   65.4756   29.3425   50.5025 H   0  0  0  0  0  0  0  0  0  0  0  0
   67.0487   27.6218   51.2529 H   0  0  0  0  0  0  0  0  0  0  0  0
   67.9213   29.1453   50.7907 H   0  0  0  0  0  0  0  0  0  0  0  0
   69.8705   28.5926   53.6606 H   0  0  0  0  0  0  0  0  0  0  0  0
   69.6225   27.7081   52.1170 H   0  0  0  0  0  0  0  0  0  0  0  0
   69.7335   29.5009   52.1170 H   0  0  0  0  0  0  0  0  0  0  0  0
   67.5646   27.7843   54.7370 H   0  0  0  0  0  0  0  0  0  0  0  0
   66.4290   27.3042   53.4306 H   0  0  0  0  0  0  0  0  0  0  0  0
   68.1135   26.6803   53.4306 H   0  0  0  0  0  0  0  0  0  0  0  0
   66.6794   29.7902   54.2203 H   0  0  0  0  0  0  0  0  0  0  0  0
   68.4400   30.2349   54.2304 H   0  0  0  0  0  0  0  0  0  0  0  0
   67.1134   32.0536   53.2570 H   0  0  0  0  0  0  0  0  0  0  0  0
   68.1729   31.2702   52.0030 H   0  0  0  0  0  0  0  0  0  0  0  0
   61.6498   30.0642   48.8426 H   0  0  0  0  0  0  0  0  0  0  0  0
  1  2  1  0
  2  3  1  0
  3  4  1  0
  4  5  1  0
  5  6  1  0
  6  7  1  0
  7  8  1  0
  8  9  1  0
  9 10  1  0
 10 11  1  0
 11 12  2  0
 12 13  1  0
 13 14  2  0
 14 15  1  0
 15 16  2  0
 16 17  1  0
 17 18  2  0
 18 19  1  0
 18 20  1  0
 20 21  1  0
 21 22  1  0
 22 23  2  0
 23 24  1  0
 24 25  2  0
 25 26  1  0
 26 27  1  0
 27 28  1  0
 28 29  1  0
 29 30  1  0
 29 31  1  0
 31 32  1  0
 32 33  1  0
 33 34  1  0
 33 35  1  0
 33 36  1  0
 36 37  1  0
 25 38  1  0
 38 39  2  0
 39 40  1  0
 40 11  1  0
 17 12  1  0
 40 20  2  0
 39 22  1  0
 37 29  1  0
  1 41  1  0
  1 42  1  0
  1 43  1  0
  2 44  1  0
  2 45  1  0
  4 46  1  0
  4 47  1  0
  5 48  1  0
  5 49  1  0
  7 50  1  0
  7 51  1  0
  8 52  1  0
  8 53  1  0
  9 54  1  0
  9 55  1  0
 10 56  1  0
 10 57  1  0
 13 58  1  0
 14 59  1  0
 15 60  1  0
 16 61  1  0
 19 62  1  0
 19 63  1  0
 19 64  1  0
 21 65  1  0
 23 66  1  0
 24 67  1  0
 27 68  1  0
 27 69  1  0
 28 70  1  0
 28 71  1  0
 30 72  1  0
 30 73  1  0
 30 74  1  0
 31 75  1  0
 31 76  1  0
 32 77  1  0
 32 78  1  0
 34 79  1  0
 34 80  1  0
 34 81  1  0
 35 82  1  0
 35 83  1  0
 35 84  1  0
 36 85  1  0
 36 86  1  0
 37 87  1  0
 37 88  1  0
 38 89  1  0
M  CHG  4  10   1  18   1  29   1  33   1
M  END
>  <UniqueID>  (21) 
21

>  <SMILES>  (21) 
CCOCCOCCC[NH2+]c1c2ccccc2[n+](C)c2[nH]c3ccc(OCC[N+]4(C)CC[N+](C)(C)CC4)cc3c12

>  <Energy>  (21) 
178.0097316321292

>  <Genealogy>  (21) 
CCOCCOCCC[NH2+]c1c2ccccc2[n+](C)c2[nH]c3ccc(OCC[N+]4(C)CC[N+](C)(C)CC4)cc3c12 (protonated)
CCOCCOCCC[NH2+]c1c2ccccc2[n+](C)c2[nH]c3ccc(OCC[N+]4(C)CC[N+](C)(C)CC4)cc3c12 (3D coordinates assigned)
CCOCCOCCC[NH2+]c1c2ccccc2[n+](C)c2[nH]c3ccc(OCC[N+]4(C)CC[N+](C)(C)CC4)cc3c12 (nonaromatic ring conformer: 178.0097316321292 kcal/mol)

>  <smiles>  (21) 
CCOCCOCCCNc1c2ccccc2[n+](C)c2[nH]c3ccc(OCC[N+]4(C)CC[N+](C)(C)CC4)cc3c12

>  <score_type>  (21) 
oracle

>  <origin>  (21) 
adg

>  <m_score__min__energy>  (21) 
-3.2000000000000002

>  <m_primary>  (21) 
energy

$$$$
21:0
     RDKit          3D

 38 39  0  0  0  0  0  0  0  0999 V2000
   59.6340   34.0740   48.6650 C   0  0  0  0  0  0  0  0  0  0  0  0
   58.9130   34.4200   47.3630 C   0  0  0  0  0  0  0  0  0  0  0  0
   59.8550   35.0690   46.3410 C   0  0  0  0  0  0  0  0  0  0  0  0
   59.2730   35.0280   44.9900 N   0  0  0  0  0  0  0  0  0  0  0  0
   58.0860   34.1550   44.8990 C   0  0  0  0  0  0  0  0  0  0  0  0
   58.2840   32.9650   43.9400 C   0  0  0  0  0  0  0  0  0  0  0  0
   57.7940   31.6590   44.5280 C   0  0  0  0  0  0  0  0  0  0  0  0
   56.6290   31.0840   44.0000 C   0  0  0  0  0  0  0  0  0  0  0  0
   56.1740   29.8620   44.4980 C   0  0  0  0  0  0  0  0  0  0  0  0
   55.1290   29.3420   44.0270 O   0  0  0  0  0  0  0  0  0  0  0  0
   56.8360   29.2420   45.4650 O   0  0  0  0  0  0  0  0  0  0  0  0
   57.9470   29.7330   46.0030 C   0  0  0  0  0  0  0  0  0  0  0  0
   58.5900   29.0140   47.0140 C   0  0  0  0  0  0  0  0  0  0  0  0
   59.7620   29.5040   47.5910 C   0  0  0  0  0  0  0  0  0  0  0  0
   60.3090   30.7190   47.1700 C   0  0  0  0  0  0  0  0  0  0  0  0
   61.4920   31.1600   47.7840 O   0  0  0  0  0  0  0  0  0  0  0  0
   62.3040   32.2240   47.2980 C   0  0  0  0  0  0  0  0  0  0  0  0
   59.6650   31.4520   46.1540 C   0  0  0  0  0  0  0  0  0  0  0  0
   58.4800   30.9680   45.5590 C   0  0  0  0  0  0  0  0  0  0  0  0
   59.0103   34.3733   49.5202 H   0  0  0  0  0  0  0  0  0  0  0  0
   59.8168   32.9901   48.7060 H   0  0  0  0  0  0  0  0  0  0  0  0
   60.5940   34.6095   48.7060 H   0  0  0  0  0  0  0  0  0  0  0  0
   58.4998   33.4973   46.9296 H   0  0  0  0  0  0  0  0  0  0  0  0
   58.1157   35.1409   47.5967 H   0  0  0  0  0  0  0  0  0  0  0  0
   60.0291   36.1170   46.6264 H   0  0  0  0  0  0  0  0  0  0  0  0
   60.8026   34.5105   46.3324 H   0  0  0  0  0  0  0  0  0  0  0  0
   60.0070   34.7240   44.3080 H   0  0  0  0  0  0  0  0  0  0  0  0
   57.8618   33.7630   45.9020 H   0  0  0  0  0  0  0  0  0  0  0  0
   57.2605   34.7635   44.5012 H   0  0  0  0  0  0  0  0  0  0  0  0
   57.7289   33.1641   43.0114 H   0  0  0  0  0  0  0  0  0  0  0  0
   59.3630   32.8630   43.7522 H   0  0  0  0  0  0  0  0  0  0  0  0
   56.0763   31.5937   43.1970 H   0  0  0  0  0  0  0  0  0  0  0  0
   58.1700   28.0568   47.3567 H   0  0  0  0  0  0  0  0  0  0  0  0
   60.2602   28.9283   48.3850 H   0  0  0  0  0  0  0  0  0  0  0  0
   62.7278   32.7794   48.1477 H   0  0  0  0  0  0  0  0  0  0  0  0
   63.1197   31.8124   46.6854 H   0  0  0  0  0  0  0  0  0  0  0  0
   61.6917   32.9022   46.6854 H   0  0  0  0  0  0  0  0  0  0  0  0
   60.0896   32.4106   45.8211 H   0  0  0  0  0  0  0  0  0  0  0  0
  1  2  1  0
  2  3  1  0
  3  4  1  0
  4  5  1  0
  5  6  1  0
  6  7  1  0
  7  8  2  0
  8  9  1  0
  9 10  2  0
  9 11  1  0
 11 12  1  0
 12 13  2  0
 13 14  1  0
 14 15  2  0
 15 16  1  0
 16 17  1  0
 15 18  1  0
 18 19  2  0
 19  7  1  0
 19 12  1  0
  1 20  1  0
  1 21  1  0
  1 22  1  0
  2 23  1  0
  2 24  1  0
  3 25  1  0
  3 26  1  0
  4 27  1  0
  5 28  1  0
  5 29  1  0
  6 30  1  0
  6 31  1  0
  8 32  1  0
 13 33  1  0
 14 34  1  0
 17 35  1  0
 17 36  1  0
 17 37  1  0
 18 38  1  0
M  END
>  <UniqueID>  (22) 
22

>  <SMILES>  (22) 
CCCNCCc1cc(=O)oc2ccc(OC)cc12

>  <Energy>  (22) 
38.65324928907175

>  <Genealogy>  (22) 
CCCNCCc1cc(=O)oc2ccc(OC)cc12 (3D coordinates assigned)
CCCNCCc1cc(=O)oc2ccc(OC)cc12 (optimized conformer: 38.65324928907175 kcal/mol)

>  <smiles>  (22) 
CCCNCCc1cc(=O)oc2ccc(OC)cc12

>  <score_type>  (22) 
oracle

>  <origin>  (22) 
adg

>  <m_score__min__energy>  (22) 
-5.9500000000000002

>  <m_primary>  (22) 
energy

$$$$
22:0
     RDKit          3D

 48 50  0  0  0  0  0  0  0  0999 V2000
   57.8990   33.1420   44.0450 C   0  0  0  0  0  0  0  0  0  0  0  0
   57.0150   32.5840   45.1480 C   0  0  0  0  0  0  0  0  0  0  0  0
   56.7570   31.2220   44.8840 O   0  0  0  0  0  0  0  0  0  0  0  0
   56.9090   30.9370   43.5050 C   0  0  0  0  0  0  0  0  0  0  0  0
   56.6920   29.4460   43.2570 C   0  0  0  0  0  0  0  0  0  0  0  0
   57.2290   28.6580   44.3730 N   0  0  0  0  0  0  0  0  0  0  0  0
   58.5850   28.1580   44.0870 C   0  0  0  0  0  0  0  0  0  0  0  0
   59.6330   29.0550   44.7650 C   0  0  0  0  0  0  0  0  0  0  0  0
   59.0410   30.1220   45.5960 N   0  0  0  0  0  0  0  0  0  0  0  0
   59.7860   30.3530   46.8230 C   0  0  0  0  0  0  0  0  0  0  0  0
   60.2370   31.6390   47.2420 C   0  0  0  0  0  0  0  0  0  0  0  0
   59.9990   32.8040   46.4750 C   0  0  0  0  0  0  0  0  0  0  0  0
   60.4180   34.0550   46.9150 C   0  0  0  0  0  0  0  0  0  0  0  0
   61.0690   34.1870   48.1340 C   0  0  0  0  0  0  0  0  0  0  0  0
   61.3260   33.0640   48.9150 C   0  0  0  0  0  0  0  0  0  0  0  0
   60.9470   31.7670   48.4870 C   0  0  0  0  0  0  0  0  0  0  0  0
   61.2350   30.6470   49.2560 N   0  0  0  0  0  0  0  0  0  0  0  0
   62.0820   30.7600   50.4620 C   0  0  0  0  0  0  0  0  0  0  0  0
   60.7200   29.4310   48.8820 C   0  0  0  0  0  0  0  0  0  0  0  0
   60.7920   28.2260   49.6190 C   0  0  0  0  0  0  0  0  0  0  0  0
   60.1930   27.1490   48.9770 C   0  0  0  0  0  0  0  0  0  0  0  0
   59.5540   27.6790   47.5160 S   0  0  0  0  0  0  0  0  0  0  0  0
   60.0370   29.2830   47.6860 C   0  0  0  0  0  0  0  0  0  0  0  0
   58.7488   33.6784   44.4923 H   0  0  0  0  0  0  0  0  0  0  0  0
   58.2734   32.3162   43.4222 H   0  0  0  0  0  0  0  0  0  0  0  0
   57.3146   33.8352   43.4222 H   0  0  0  0  0  0  0  0  0  0  0  0
   57.5275   32.6815   46.1164 H   0  0  0  0  0  0  0  0  0  0  0  0
   56.0677   33.1420   45.1836 H   0  0  0  0  0  0  0  0  0  0  0  0
   56.1703   31.5141   42.9294 H   0  0  0  0  0  0  0  0  0  0  0  0
   57.9252   31.2135   43.1873 H   0  0  0  0  0  0  0  0  0  0  0  0
   55.6144   29.2480   43.1590 H   0  0  0  0  0  0  0  0  0  0  0  0
   57.2149   29.1582   42.3330 H   0  0  0  0  0  0  0  0  0  0  0  0
   56.5950   27.8370   44.5130 H   0  0  0  0  0  0  0  0  0  0  0  0
   58.6824   27.1314   44.4699 H   0  0  0  0  0  0  0  0  0  0  0  0
   58.7509   28.1694   42.9996 H   0  0  0  0  0  0  0  0  0  0  0  0
   60.2685   28.4260   45.4057 H   0  0  0  0  0  0  0  0  0  0  0  0
   60.2066   29.5463   43.9653 H   0  0  0  0  0  0  0  0  0  0  0  0
   58.0720   29.8220   45.8520 H   0  0  0  0  0  0  0  0  0  0  0  0
   58.8910   30.9840   45.0330 H   0  0  0  0  0  0  0  0  0  0  0  0
   59.4728   32.7186   45.5128 H   0  0  0  0  0  0  0  0  0  0  0  0
   60.2327   34.9440   46.2942 H   0  0  0  0  0  0  0  0  0  0  0  0
   61.3825   35.1817   48.4836 H   0  0  0  0  0  0  0  0  0  0  0  0
   61.8332   33.1854   49.8835 H   0  0  0  0  0  0  0  0  0  0  0  0
   61.4533   30.6761   51.3608 H   0  0  0  0  0  0  0  0  0  0  0  0
   62.8303   29.9537   50.4614 H   0  0  0  0  0  0  0  0  0  0  0  0
   62.5927   31.7342   50.4614 H   0  0  0  0  0  0  0  0  0  0  0  0
   61.2750   28.1489   50.6043 H   0  0  0  0  0  0  0  0  0  0  0  0
   60.1450   26.1196   49.3616 H   0  0  0  0  0  0  0  0  0  0  0  0
  1  2  1  0
  2  3  1  0
  3  4  1  0
  4  5  1  0
  5  6  1  0
  6  7  1  0
  7  8  1  0
  8  9  1  0
  9 10  1  0
 10 11  2  0
 11 12  1  0
 12 13  2  0
 13 14  1  0
 14 15  2  0
 15 16  1  0
 16 17  2  0
 17 18  1  0
 17 19  1  0
 19 20  1  0
 20 21  2  0
 21 22  1  0
 22 23  1  0
 23 10  1  0
 16 11  1  0
 23 19  2  0
  1 24  1  0
  1 25  1  0
  1 26  1  0
  2 27  1  0
  2 28  1  0
  4 29  1  0
  4 30  1  0
  5 31  1  0
  5 32  1  0
  6 33  1  0
  7 34  1  0
  7 35  1  0
  8 36  1  0
  8 37  1  0
  9 38  1  0
  9 39  1  0
 12 40  1  0
 13 41  1  0
 14 42  1  0
 15 43  1  0
 18 44  1  0
 18 45  1  0
 18 46  1  0
 20 47  1  0
 21 48  1  0
M  CHG  2   9   1  17   1
M  END
>  <UniqueID>  (23) 
23

>  <SMILES>  (23) 
CCOCCNCC[NH2+]c1c2ccccc2[n+](C)c2ccsc12

>  <Energy>  (23) 
91.14472216481114

>  <Genealogy>  (23) 
CCOCCNCC[NH2+]c1c2ccccc2[n+](C)c2ccsc12 (protonated)
CCOCCNCC[NH2+]c1c2ccccc2[n+](C)c2ccsc12 (3D coordinates assigned)
CCOCCNCC[NH2+]c1c2ccccc2[n+](C)c2ccsc12 (optimized conformer: 91.14472216481114 kcal/mol)

>  <smiles>  (23) 
CCOCCNCCNc1c2ccccc2[n+](C)c2ccsc12

>  <score_type>  (23) 
oracle

>  <origin>  (23) 
adg

>  <m_score__min__energy>  (23) 
-3.1099999999999999

>  <m_primary>  (23) 
energy

$$$$
23:0
     RDKit          3D

 47 50  0  0  0  0  0  0  0  0999 V2000
   65.9200   32.8760   50.1110 C   0  0  0  0  0  0  0  0  0  0  0  0
   64.7330   31.9560   49.7820 C   0  0  0  0  0  0  0  0  0  0  0  0
   63.5730   32.6110   49.1030 N   0  0  2  0  0  0  0  0  0  0  0  0
   63.9270   33.0940   47.7440 C   0  0  0  0  0  0  0  0  0  0  0  0
   62.7250   33.8400   47.1150 C   0  0  0  0  0  0  0  0  0  0  0  0
   61.5480   33.8420   48.0350 N   0  0  2  0  0  0  0  0  0  0  0  0
   60.4260   34.5520   47.3350 C   0  0  0  0  0  0  0  0  0  0  0  0
   59.0060   33.9450   47.4590 C   0  0  0  0  0  0  0  0  0  0  0  0
   58.5160   33.2690   46.2170 C   0  0  0  0  0  0  0  0  0  0  0  0
   57.8060   32.0680   46.1690 C   0  0  0  0  0  0  0  0  0  0  0  0
   57.4990   31.6860   44.8610 C   0  0  0  0  0  0  0  0  0  0  0  0
   56.7910   30.5430   44.4790 C   0  0  0  0  0  0  0  0  0  0  0  0
   56.5690   30.3090   43.1110 C   0  0  0  0  0  0  0  0  0  0  0  0
   57.0550   31.2120   42.1450 C   0  0  0  0  0  0  0  0  0  0  0  0
   57.7660   32.3570   42.5380 C   0  0  0  0  0  0  0  0  0  0  0  0
   57.9720   32.5680   43.8980 C   0  0  0  0  0  0  0  0  0  0  0  0
   58.7790   33.8370   44.6440 S   0  0  0  0  0  0  0  0  0  0  0  0
   61.9520   34.5140   49.2970 C   0  0  0  0  0  0  0  0  0  0  0  0
   63.1710   33.7920   49.9230 C   0  0  0  0  0  0  0  0  0  0  0  0
   61.2010   32.4260   48.3430 C   0  0  0  0  0  0  0  0  0  0  0  0
   62.4060   31.6930   48.9900 C   0  0  0  0  0  0  0  0  0  0  0  0
   66.0277   32.9595   51.2025 H   0  0  0  0  0  0  0  0  0  0  0  0
   66.8410   32.4535   49.6829 H   0  0  0  0  0  0  0  0  0  0  0  0
   65.7406   33.8733   49.6829 H   0  0  0  0  0  0  0  0  0  0  0  0
   65.0996   31.1533   49.1253 H   0  0  0  0  0  0  0  0  0  0  0  0
   64.3516   31.6010   50.7508 H   0  0  0  0  0  0  0  0  0  0  0  0
   64.7847   33.7792   47.8133 H   0  0  0  0  0  0  0  0  0  0  0  0
   64.1868   32.2321   47.1118 H   0  0  0  0  0  0  0  0  0  0  0  0
   63.0179   34.8793   46.9051 H   0  0  0  0  0  0  0  0  0  0  0  0
   62.4407   33.3218   46.1873 H   0  0  0  0  0  0  0  0  0  0  0  0
   60.3828   35.5753   47.7362 H   0  0  0  0  0  0  0  0  0  0  0  0
   60.6706   34.4751   46.2653 H   0  0  0  0  0  0  0  0  0  0  0  0
   59.0173   33.2049   48.2728 H   0  0  0  0  0  0  0  0  0  0  0  0
   58.3205   34.7830   47.6536 H   0  0  0  0  0  0  0  0  0  0  0  0
   57.5209   31.4887   47.0595 H   0  0  0  0  0  0  0  0  0  0  0  0
   56.4142   29.8391   45.2356 H   0  0  0  0  0  0  0  0  0  0  0  0
   56.0123   29.4153   42.7926 H   0  0  0  0  0  0  0  0  0  0  0  0
   56.8764   31.0189   41.0769 H   0  0  0  0  0  0  0  0  0  0  0  0
   58.1497   33.0678   41.7914 H   0  0  0  0  0  0  0  0  0  0  0  0
   62.2200   35.5590   49.0822 H   0  0  0  0  0  0  0  0  0  0  0  0
   61.1119   34.4790   50.0063 H   0  0  0  0  0  0  0  0  0  0  0  0
   64.0153   34.4948   49.9794 H   0  0  0  0  0  0  0  0  0  0  0  0
   62.8927   33.4422   50.9281 H   0  0  0  0  0  0  0  0  0  0  0  0
   60.3501   32.4063   49.0399 H   0  0  0  0  0  0  0  0  0  0  0  0
   60.9388   31.9146   47.4051 H   0  0  0  0  0  0  0  0  0  0  0  0
   62.1213   31.3437   49.9935 H   0  0  0  0  0  0  0  0  0  0  0  0
   62.6850   30.8379   48.3568 H   0  0  0  0  0  0  0  0  0  0  0  0
  1  2  1  0
  3  2  1  1
  3  4  1  0
  4  5  1  0
  5  6  1  0
  6  7  1  6
  7  8  1  0
  8  9  1  0
  9 10  2  0
 10 11  1  0
 11 12  2  0
 12 13  1  0
 13 14  2  0
 14 15  1  0
 15 16  2  0
 16 17  1  0
  6 18  1  0
 18 19  1  0
  6 20  1  0
 20 21  1  0
 19  3  1  0
 21  3  1  0
 17  9  1  0
 16 11  1  0
  1 22  1  0
  1 23  1  0
  1 24  1  0
  2 25  1  0
  2 26  1  0
  4 27  1  0
  4 28  1  0
  5 29  1  0
  5 30  1  0
  7 31  1  0
  7 32  1  0
  8 33  1  0
  8 34  1  0
 10 35  1  0
 12 36  1  0
 13 37  1  0
 14 38  1  0
 15 39  1  0
 18 40  1  0
 18 41  1  0
 19 42  1  0
 19 43  1  0
 20 44  1  0
 20 45  1  0
 21 46  1  0
 21 47  1  0
M  CHG  2   3   1   6   1
M  END
>  <UniqueID>  (24) 
24

>  <SMILES>  (24) 
CC[N+]12CC[N+](CCc3cc4ccccc4s3)(CC1)CC2

>  <Energy>  (24) 
108.49055266705763

>  <Genealogy>  (24) 
CC[N+]12CC[N+](CCc3cc4ccccc4s3)(CC1)CC2 (3D coordinates assigned)
CC[N+]12CC[N+](CCc3cc4ccccc4s3)(CC1)CC2 (nonaromatic ring conformer: 108.49055266705763 kcal/mol)

>  <smiles>  (24) 
CC[N+]12CC[N+](CCc3cc4ccccc4s3)(CC1)CC2

>  <score_type>  (24) 
oracle

>  <origin>  (24) 
adg

>  <m_score__min__energy>  (24) 
-4.9500000000000002

>  <m_primary>  (24) 
energy

$$$$
24:0
     RDKit          3D

 46 48  0  0  0  0  0  0  0  0999 V2000
   55.1290   23.5690   44.0210 C   0  0  0  0  0  0  0  0  0  0  0  0
   54.4090   24.3310   45.1230 C   0  0  0  0  0  0  0  0  0  0  0  0
   55.2290   24.3690   46.2760 O   0  0  0  0  0  0  0  0  0  0  0  0
   55.7980   25.6130   46.4060 N   0  0  0  0  0  0  0  0  0  0  0  0
   56.9820   25.5060   47.2700 C   0  0  0  0  0  0  0  0  0  0  0  0
   58.2850   25.3900   46.4600 C   0  0  0  0  0  0  0  0  0  0  0  0
   58.0600   25.0220   44.9790 C   0  0  0  0  0  0  0  0  0  0  0  0
   57.7190   26.2430   44.1090 C   0  0  0  0  0  0  0  0  0  0  0  0
   57.0070   27.2290   44.8580 O   0  0  0  0  0  0  0  0  0  0  0  0
   57.2080   28.6180   44.7820 C   0  0  0  0  0  0  0  0  0  0  0  0
   56.7510   29.3970   43.7020 C   0  0  0  0  0  0  0  0  0  0  0  0
   56.9790   30.7760   43.6770 C   0  0  0  0  0  0  0  0  0  0  0  0
   57.6720   31.3990   44.7310 C   0  0  0  0  0  0  0  0  0  0  0  0
   57.9220   32.7830   44.7450 C   0  0  0  0  0  0  0  0  0  0  0  0
   57.5240   33.5150   43.7970 O   0  0  0  0  0  0  0  0  0  0  0  0
   58.6210   33.3410   45.8300 C   0  0  0  0  0  0  0  0  0  0  0  0
   58.9050   34.7180   45.9080 C   0  0  0  0  0  0  0  0  0  0  0  0
   59.6030   35.2290   47.0070 C   0  0  0  0  0  0  0  0  0  0  0  0
   60.0230   34.3760   48.0320 C   0  0  0  0  0  0  0  0  0  0  0  0
   59.7460   33.0080   47.9650 C   0  0  0  0  0  0  0  0  0  0  0  0
   59.0480   32.4850   46.8710 C   0  0  0  0  0  0  0  0  0  0  0  0
   58.7920   31.1810   46.8200 O   0  0  0  0  0  0  0  0  0  0  0  0
   58.1350   30.6170   45.8120 C   0  0  0  0  0  0  0  0  0  0  0  0
   57.9010   29.2380   45.8280 C   0  0  0  0  0  0  0  0  0  0  0  0
   55.8186   22.8392   44.4702 H   0  0  0  0  0  0  0  0  0  0  0  0
   54.3917   23.0415   43.3979 H   0  0  0  0  0  0  0  0  0  0  0  0
   55.6974   24.2752   43.3979 H   0  0  0  0  0  0  0  0  0  0  0  0
   54.2014   25.3571   44.7854 H   0  0  0  0  0  0  0  0  0  0  0  0
   53.4605   23.8274   45.3610 H   0  0  0  0  0  0  0  0  0  0  0  0
   55.1350   26.3440   46.7650 H   0  0  0  0  0  0  0  0  0  0  0  0
   56.1020   25.9020   45.4480 H   0  0  0  0  0  0  0  0  0  0  0  0
   57.0387   26.4020   47.9055 H   0  0  0  0  0  0  0  0  0  0  0  0
   56.8776   24.5924   47.8737 H   0  0  0  0  0  0  0  0  0  0  0  0
   58.8083   26.3566   46.5026 H   0  0  0  0  0  0  0  0  0  0  0  0
   58.8730   24.5761   46.9092 H   0  0  0  0  0  0  0  0  0  0  0  0
   58.9773   24.5570   44.5887 H   0  0  0  0  0  0  0  0  0  0  0  0
   57.2037   24.3329   44.9344 H   0  0  0  0  0  0  0  0  0  0  0  0
   58.6522   26.6852   43.7299 H   0  0  0  0  0  0  0  0  0  0  0  0
   57.0811   25.9102   43.2769 H   0  0  0  0  0  0  0  0  0  0  0  0
   56.2110   28.9174   42.8724 H   0  0  0  0  0  0  0  0  0  0  0  0
   56.6152   31.3762   42.8300 H   0  0  0  0  0  0  0  0  0  0  0  0
   58.5774   35.3928   45.1034 H   0  0  0  0  0  0  0  0  0  0  0  0
   59.8222   36.3054   47.0651 H   0  0  0  0  0  0  0  0  0  0  0  0
   60.5729   34.7828   48.8934 H   0  0  0  0  0  0  0  0  0  0  0  0
   60.0775   32.3407   48.7743 H   0  0  0  0  0  0  0  0  0  0  0  0
   58.2657   28.6342   46.6720 H   0  0  0  0  0  0  0  0  0  0  0  0
  1  2  1  0
  2  3  1  0
  3  4  1  0
  4  5  1  0
  5  6  1  0
  6  7  1  0
  7  8  1  0
  8  9  1  0
  9 10  1  0
 10 11  2  0
 11 12  1  0
 12 13  2  0
 13 14  1  0
 14 15  2  0
 14 16  1  0
 16 17  2  0
 17 18  1  0
 18 19  2  0
 19 20  1  0
 20 21  2  0
 21 22  1  0
 22 23  1  0
 23 24  2  0
 24 10  1  0
 23 13  1  0
 21 16  1  0
  1 25  1  0
  1 26  1  0
  1 27  1  0
  2 28  1  0
  2 29  1  0
  4 30  1  0
  4 31  1  0
  5 32  1  0
  5 33  1  0
  6 34  1  0
  6 35  1  0
  7 36  1  0
  7 37  1  0
  8 38  1  0
  8 39  1  0
 11 40  1  0
 12 41  1  0
 17 42  1  0
 18 43  1  0
 19 44  1  0
 20 45  1  0
 24 46  1  0
M  CHG  1   4   1
M  END
>  <UniqueID>  (25) 
25

>  <SMILES>  (25) 
CCO[NH2+]CCCCOc1ccc2c(=O)c3ccccc3oc2c1

>  <Energy>  (25) 
55.97349755339882

>  <Genealogy>  (25) 
CCO[NH2+]CCCCOc1ccc2c(=O)c3ccccc3oc2c1 (protonated)
CCO[NH2+]CCCCOc1ccc2c(=O)c3ccccc3oc2c1 (3D coordinates assigned)
CCO[NH2+]CCCCOc1ccc2c(=O)c3ccccc3oc2c1 (optimized conformer: 55.97349755339882 kcal/mol)

>  <smiles>  (25) 
CCONCCCCOc1ccc2c(=O)c3ccccc3oc2c1

>  <score_type>  (25) 
oracle

>  <origin>  (25) 
adg

>  <m_score__min__energy>  (25) 
-6.4900000000000002

>  <m_primary>  (25) 
energy

$$$$
25:0
     RDKit          3D

 39 41  0  0  0  0  0  0  0  0999 V2000
   59.5760   34.1800   45.6120 C   0  0  0  0  0  0  0  0  0  0  0  0
   59.5890   32.7680   45.9880 N   0  0  0  0  0  0  0  0  0  0  0  0
   60.5390   32.0590   46.6500 C   0  0  0  0  0  0  0  0  0  0  0  0
   61.8410   32.5530   47.1490 C   0  0  0  0  0  0  0  0  0  0  0  0
   62.6300   32.0400   48.1670 C   0  0  0  0  0  0  0  0  0  0  0  0
   63.7370   32.8570   48.2320 C   0  0  0  0  0  0  0  0  0  0  0  0
   63.5640   33.8160   47.2580 C   0  0  0  0  0  0  0  0  0  0  0  0
   62.4310   33.6070   46.6310 O   0  0  0  0  0  0  0  0  0  0  0  0
   60.1700   30.7690   46.7990 N   0  0  0  0  0  0  0  0  0  0  0  0
   58.9780   30.6510   46.2410 N   0  0  0  0  0  0  0  0  0  0  0  0
   58.6290   31.8490   45.7500 C   0  0  0  0  0  0  0  0  0  0  0  0
   57.0880   32.1520   44.8730 S   0  0  0  0  0  0  0  0  0  0  0  0
   57.0630   30.5250   44.0440 C   0  0  0  0  0  0  0  0  0  0  0  0
   56.4030   29.4990   44.9060 C   0  0  0  0  0  0  0  0  0  0  0  0
   55.1520   29.3550   44.8550 O   0  0  0  0  0  0  0  0  0  0  0  0
   57.1900   28.7580   45.8450 N   0  0  0  0  0  0  0  0  0  0  0  0
   57.1920   27.3320   46.0300 C   0  0  0  0  0  0  0  0  0  0  0  0
   55.9960   26.5920   45.9740 C   0  0  0  0  0  0  0  0  0  0  0  0
   56.0100   25.2070   46.1520 C   0  0  0  0  0  0  0  0  0  0  0  0
   57.2150   24.5440   46.3760 C   0  0  0  0  0  0  0  0  0  0  0  0
   58.4150   25.2580   46.4030 C   0  0  0  0  0  0  0  0  0  0  0  0
   58.4220   26.6550   46.2140 C   0  0  0  0  0  0  0  0  0  0  0  0
   59.7230   27.4280   46.2500 C   0  0  0  0  0  0  0  0  0  0  0  0
   59.8170   28.2370   45.1330 F   0  0  0  0  0  0  0  0  0  0  0  0
   59.7590   28.2160   47.3850 F   0  0  0  0  0  0  0  0  0  0  0  0
   60.8210   26.5840   46.2680 F   0  0  0  0  0  0  0  0  0  0  0  0
   59.5703   34.8011   46.5198 H   0  0  0  0  0  0  0  0  0  0  0  0
   60.4721   34.4092   45.0166 H   0  0  0  0  0  0  0  0  0  0  0  0
   58.6759   34.3926   45.0166 H   0  0  0  0  0  0  0  0  0  0  0  0
   62.4161   31.1616   48.7936 H   0  0  0  0  0  0  0  0  0  0  0  0
   64.5880   32.7628   48.9226 H   0  0  0  0  0  0  0  0  0  0  0  0
   64.2684   34.6322   47.0396 H   0  0  0  0  0  0  0  0  0  0  0  0
   58.4290   29.7640   46.1890 H   0  0  0  0  0  0  0  0  0  0  0  0
   56.5088   30.6112   43.0977 H   0  0  0  0  0  0  0  0  0  0  0  0
   58.0999   30.2108   43.8540 H   0  0  0  0  0  0  0  0  0  0  0  0
   55.0428   27.1087   45.7886 H   0  0  0  0  0  0  0  0  0  0  0  0
   55.0688   24.6388   46.1154 H   0  0  0  0  0  0  0  0  0  0  0  0
   57.2211   23.4551   46.5320 H   0  0  0  0  0  0  0  0  0  0  0  0
   59.3626   24.7259   46.5732 H   0  0  0  0  0  0  0  0  0  0  0  0
  1  2  1  0
  2  3  1  0
  3  4  1  0
  4  5  2  0
  5  6  1  0
  6  7  2  0
  7  8  1  0
  3  9  2  0
  9 10  1  0
 10 11  2  0
 11 12  1  0
 12 13  1  0
 13 14  1  0
 14 15  2  0
 14 16  1  0
 16 17  1  0
 17 18  2  0
 18 19  1  0
 19 20  2  0
 20 21  1  0
 21 22  2  0
 22 23  1  0
 23 24  1  0
 23 25  1  0
 23 26  1  0
 11  2  1  0
 22 17  1  0
  8  4  1  0
  1 27  1  0
  1 28  1  0
  1 29  1  0
  5 30  1  0
  6 31  1  0
  7 32  1  0
 10 33  1  0
 13 34  1  0
 13 35  1  0
 18 36  1  0
 19 37  1  0
 20 38  1  0
 21 39  1  0
M  CHG  2  10   1  16  -1
M  END
>  <UniqueID>  (26) 
26

>  <SMILES>  (26) 
Cn1c(-c2ccco2)n[nH+]c1SCC(=O)[N-]c1ccccc1C(F)(F)F

>  <Energy>  (26) 
103.73881833669587

>  <Genealogy>  (26) 
Cn1c(-c2ccco2)n[nH+]c1SCC(=O)[N-]c1ccccc1C(F)(F)F (protonated)
Cn1c(-c2ccco2)n[nH+]c1SCC(=O)[N-]c1ccccc1C(F)(F)F (3D coordinates assigned)
Cn1c(-c2ccco2)n[nH+]c1SCC(=O)[N-]c1ccccc1C(F)(F)F (optimized conformer: 103.73881833669587 kcal/mol)

>  <smiles>  (26) 
Cn1c(SCC(=O)Nc2ccccc2C(F)(F)F)nnc1-c1ccco1

>  <score_type>  (26) 
oracle

>  <origin>  (26) 
adg

>  <m_score__min__energy>  (26) 
-8

>  <m_primary>  (26) 
energy

$$$$
