0:0
     RDKit          3D

 46 48  0  0  0  0  0  0  0  0999 V2000
   59.5710   29.5720   50.7490 C   0  0  0  0  0  0  0  0  0  0  0  0
   60.3420   28.9970   49.5650 C   0  0  0  0  0  0  0  0  0  0  0  0
   60.0180   29.7550   48.3330 N   0  0  0  0  0  0  0  0  0  0  0  0
   59.3070   28.9060   47.3490 C   0  0  0  0  0  0  0  0  0  0  0  0
   60.2580   28.3640   46.2640 C   0  0  0  0  0  0  0  0  0  0  0  0
   60.0080   28.9690   44.8730 C   0  0  0  0  0  0  0  0  0  0  0  0
   58.6540   29.6280   44.7550 C   0  0  0  0  0  0  0  0  0  0  0  0
   58.5430   31.0270   44.7630 C   0  0  0  0  0  0  0  0  0  0  0  0
   57.2850   31.6200   44.6360 C   0  0  0  0  0  0  0  0  0  0  0  0
   56.1760   30.8470   44.5010 N   0  0  0  0  0  0  0  0  0  0  0  0
   56.2530   29.4900   44.4770 C   0  0  0  0  0  0  0  0  0  0  0  0
   57.4930   28.8560   44.5940 C   0  0  0  0  0  0  0  0  0  0  0  0
   59.2160   30.9580   48.6650 C   0  0  0  0  0  0  0  0  0  0  0  0
   59.7070   32.1610   47.8860 C   0  0  0  0  0  0  0  0  0  0  0  0
   58.7260   33.0470   47.4060 C   0  0  0  0  0  0  0  0  0  0  0  0
   59.0710   34.1570   46.6380 C   0  0  0  0  0  0  0  0  0  0  0  0
   60.4060   34.4140   46.3390 C   0  0  0  0  0  0  0  0  0  0  0  0
   61.4130   33.5660   46.8150 C   0  0  0  0  0  0  0  0  0  0  0  0
   62.7540   33.8460   46.5240 C   0  0  0  0  0  0  0  0  0  0  0  0
   63.7530   33.0100   47.0130 C   0  0  0  0  0  0  0  0  0  0  0  0
   63.4280   31.9300   47.7660 N   0  0  0  0  0  0  0  0  0  0  0  0
   62.1390   31.6200   48.0660 C   0  0  0  0  0  0  0  0  0  0  0  0
   61.0780   32.4280   47.6010 C   0  0  0  0  0  0  0  0  0  0  0  0
   60.0310   29.2290   51.6875 H   0  0  0  0  0  0  0  0  0  0  0  0
   59.6000   30.6708   50.7066 H   0  0  0  0  0  0  0  0  0  0  0  0
   58.5261   29.2309   50.7066 H   0  0  0  0  0  0  0  0  0  0  0  0
   61.4215   29.0689   49.7637 H   0  0  0  0  0  0  0  0  0  0  0  0
   60.0577   27.9435   49.4262 H   0  0  0  0  0  0  0  0  0  0  0  0
   58.8493   28.0566   47.8772 H   0  0  0  0  0  0  0  0  0  0  0  0
   58.5429   29.5240   46.8547 H   0  0  0  0  0  0  0  0  0  0  0  0
   61.2922   28.5913   46.5620 H   0  0  0  0  0  0  0  0  0  0  0  0
   60.0756   27.2822   46.1843 H   0  0  0  0  0  0  0  0  0  0  0  0
   60.7840   29.7225   44.6730 H   0  0  0  0  0  0  0  0  0  0  0  0
   60.0400   28.1461   44.1438 H   0  0  0  0  0  0  0  0  0  0  0  0
   59.4415   31.6527   44.8687 H   0  0  0  0  0  0  0  0  0  0  0  0
   57.1918   32.7160   44.6453 H   0  0  0  0  0  0  0  0  0  0  0  0
   55.3379   28.8900   44.3653 H   0  0  0  0  0  0  0  0  0  0  0  0
   57.5586   27.7585   44.5601 H   0  0  0  0  0  0  0  0  0  0  0  0
   58.1619   30.7701   48.4127 H   0  0  0  0  0  0  0  0  0  0  0  0
   59.3199   31.1665   49.7400 H   0  0  0  0  0  0  0  0  0  0  0  0
   57.6677   32.8603   47.6411 H   0  0  0  0  0  0  0  0  0  0  0  0
   58.2861   34.8324   46.2668 H   0  0  0  0  0  0  0  0  0  0  0  0
   60.6710   35.2878   45.7256 H   0  0  0  0  0  0  0  0  0  0  0  0
   63.0160   34.7219   45.9123 H   0  0  0  0  0  0  0  0  0  0  0  0
   64.8081   33.2255   46.7884 H   0  0  0  0  0  0  0  0  0  0  0  0
   61.9202   30.7316   48.6766 H   0  0  0  0  0  0  0  0  0  0  0  0
  1  2  1  0
  2  3  1  0
  3  4  1  0
  4  5  1  0
  5  6  1  0
  6  7  1  0
  7  8  2  0
  8  9  1  0
  9 10  2  0
 10 11  1  0
 11 12  2  0
  3 13  1  0
 13 14  1  0
 14 15  2  0
 15 16  1  0
 16 17  2  0
 17 18  1  0
 18 19  2  0
 19 20  1  0
 20 21  2  0
 21 22  1  0
 22 23  2  0
 12  7  1  0
 23 14  1  0
 23 18  1  0
  1 24  1  0
  1 25  1  0
  1 26  1  0
  2 27  1  0
  2 28  1  0
  4 29  1  0
  4 30  1  0
  5 31  1  0
  5 32  1  0
  6 33  1  0
  6 34  1  0
  8 35  1  0
  9 36  1  0
 11 37  1  0
 12 38  1  0
 13 39  1  0
 13 40  1  0
 15 41  1  0
 16 42  1  0
 17 43  1  0
 19 44  1  0
 20 45  1  0
 22 46  1  0
M  END
>  <UniqueID>  (1) 
1

>  <SMILES>  (1) 
CCN(CCCc1ccncc1)Cc1cccc2ccncc12

>  <Energy>  (1) 
50.45569344966348

>  <Genealogy>  (1) 
CCN(CCCc1ccncc1)Cc1cccc2ccncc12 (3D coordinates assigned)
CCN(CCCc1ccncc1)Cc1cccc2ccncc12 (optimized conformer: 50.45569344966348 kcal/mol)

>  <smiles>  (1) 
CCN(CCCc1ccncc1)Cc1cccc2ccncc12

>  <score_type>  (1) 
oracle

>  <origin>  (1) 
adg

>  <m_score__min__energy>  (1) 
-6.9400000000000004

>  <m_primary>  (1) 
energy

$$$$
1:0
     RDKit          3D

 45 47  0  0  0  0  0  0  0  0999 V2000
   58.0940   27.0490   43.2530 C   0  0  0  0  0  0  0  0  0  0  0  0
   57.9370   25.9650   44.3310 C   0  0  0  0  0  0  0  0  0  0  0  0
   56.9010   26.3120   45.3470 N   0  0  0  0  0  0  0  0  0  0  0  0
   56.1680   25.1150   45.8400 C   0  0  0  0  0  0  0  0  0  0  0  0
   54.6540   25.1990   45.6260 C   0  0  0  0  0  0  0  0  0  0  0  0
   57.4650   27.1230   46.4710 C   0  0  0  0  0  0  0  0  0  0  0  0
   57.5970   28.6290   46.1820 C   0  0  0  0  0  0  0  0  0  0  0  0
   56.6580   29.2160   45.2950 C   0  0  0  0  0  0  0  0  0  0  0  0
   55.5200   28.5280   44.8910 O   0  0  0  0  0  0  0  0  0  0  0  0
   56.8340   30.5130   44.8190 C   0  0  0  0  0  0  0  0  0  0  0  0
   57.9190   31.2710   45.2280 C   0  0  0  0  0  0  0  0  0  0  0  0
   58.8090   30.7740   46.1770 C   0  0  0  0  0  0  0  0  0  0  0  0
   59.8020   31.5630   46.5760 O   0  0  0  0  0  0  0  0  0  0  0  0
   60.6870   31.2140   47.4990 C   0  0  0  0  0  0  0  0  0  0  0  0
   61.7590   32.1740   47.8630 C   0  0  0  0  0  0  0  0  0  0  0  0
   61.5470   33.0850   48.9150 C   0  0  0  0  0  0  0  0  0  0  0  0
   62.5500   33.9870   49.2880 C   0  0  0  0  0  0  0  0  0  0  0  0
   63.7690   33.9990   48.6090 C   0  0  0  0  0  0  0  0  0  0  0  0
   63.9860   33.1140   47.5500 C   0  0  0  0  0  0  0  0  0  0  0  0
   62.9880   32.2090   47.1730 C   0  0  0  0  0  0  0  0  0  0  0  0
   60.5670   29.9710   48.1290 C   0  0  0  0  0  0  0  0  0  0  0  0
   59.5350   29.1080   47.7610 C   0  0  0  0  0  0  0  0  0  0  0  0
   59.4070   28.0430   48.4170 O   0  0  0  0  0  0  0  0  0  0  0  0
   58.6460   29.4650   46.7110 C   0  0  0  0  0  0  0  0  0  0  0  0
   58.2357   28.0276   43.7350 H   0  0  0  0  0  0  0  0  0  0  0  0
   58.9682   26.8189   42.6262 H   0  0  0  0  0  0  0  0  0  0  0  0
   57.1905   27.0764   42.6262 H   0  0  0  0  0  0  0  0  0  0  0  0
   57.6499   25.0219   43.8431 H   0  0  0  0  0  0  0  0  0  0  0  0
   58.9000   25.8741   44.8548 H   0  0  0  0  0  0  0  0  0  0  0  0
   56.1860   26.9350   44.8990 H   0  0  0  0  0  0  0  0  0  0  0  0
   56.5470   24.2302   45.3076 H   0  0  0  0  0  0  0  0  0  0  0  0
   56.3400   25.0525   46.9247 H   0  0  0  0  0  0  0  0  0  0  0  0
   54.1468   25.2271   46.6017 H   0  0  0  0  0  0  0  0  0  0  0  0
   54.4136   26.1119   45.0613 H   0  0  0  0  0  0  0  0  0  0  0  0
   54.3141   24.3183   45.0613 H   0  0  0  0  0  0  0  0  0  0  0  0
   56.8082   26.9992   47.3446 H   0  0  0  0  0  0  0  0  0  0  0  0
   58.4865   26.7505   46.6374 H   0  0  0  0  0  0  0  0  0  0  0  0
   56.1059   30.9387   44.1129 H   0  0  0  0  0  0  0  0  0  0  0  0
   58.0786   32.2719   44.8005 H   0  0  0  0  0  0  0  0  0  0  0  0
   60.5850   33.0880   49.4484 H   0  0  0  0  0  0  0  0  0  0  0  0
   62.3770   34.6878   50.1180 H   0  0  0  0  0  0  0  0  0  0  0  0
   64.5584   34.7046   48.9073 H   0  0  0  0  0  0  0  0  0  0  0  0
   64.9447   33.1288   47.0109 H   0  0  0  0  0  0  0  0  0  0  0  0
   63.1632   31.5206   46.3332 H   0  0  0  0  0  0  0  0  0  0  0  0
   61.2827   29.6757   48.9104 H   0  0  0  0  0  0  0  0  0  0  0  0
  1  2  1  0
  2  3  1  0
  3  4  1  0
  4  5  1  0
  3  6  1  0
  6  7  1  0
  7  8  2  0
  8  9  1  0
  8 10  1  0
 10 11  2  0
 11 12  1  0
 12 13  1  0
 13 14  1  0
 14 15  1  0
 15 16  2  0
 16 17  1  0
 17 18  2  0
 18 19  1  0
 19 20  2  0
 14 21  2  0
 21 22  1  0
 22 23  2  0
 22 24  1  0
 24  7  1  0
 24 12  2  0
 20 15  1  0
  1 25  1  0
  1 26  1  0
  1 27  1  0
  2 28  1  0
  2 29  1  0
  3 30  1  0
  4 31  1  0
  4 32  1  0
  5 33  1  0
  5 34  1  0
  5 35  1  0
  6 36  1  0
  6 37  1  0
 10 38  1  0
 11 39  1  0
 16 40  1  0
 17 41  1  0
 18 42  1  0
 19 43  1  0
 20 44  1  0
 21 45  1  0
M  CHG  2   3   1   9  -1
M  END
>  <UniqueID>  (2) 
2

>  <SMILES>  (2) 
CC[NH+](CC)Cc1c([O-])ccc2oc(-c3ccccc3)cc(=O)c12

>  <Energy>  (2) 
73.82209736008377

>  <Genealogy>  (2) 
CC[NH+](CC)Cc1c([O-])ccc2oc(-c3ccccc3)cc(=O)c12 (protonated)
CC[NH+](CC)Cc1c([O-])ccc2oc(-c3ccccc3)cc(=O)c12 (3D coordinates assigned)
CC[NH+](CC)Cc1c([O-])ccc2oc(-c3ccccc3)cc(=O)c12 (optimized conformer: 73.82209736008377 kcal/mol)

>  <smiles>  (2) 
CCN(CC)Cc1c(O)ccc2oc(-c3ccccc3)cc(=O)c12

>  <score_type>  (2) 
oracle

>  <origin>  (2) 
adg

>  <m_score__min__energy>  (2) 
-8.8200000000000003

>  <m_primary>  (2) 
energy

$$$$
2:0
     RDKit          3D

 55 57  0  0  0  0  0  0  0  0999 V2000
   57.9300   26.7220   45.2200 C   0  0  0  0  0  0  0  0  0  0  0  0
   57.8220   27.4450   46.4420 O   0  0  0  0  0  0  0  0  0  0  0  0
   58.4240   28.6890   46.6880 C   0  0  0  0  0  0  0  0  0  0  0  0
   59.5750   28.8160   47.4870 C   0  0  0  0  0  0  0  0  0  0  0  0
   60.1530   30.0720   47.7150 C   0  0  0  0  0  0  0  0  0  0  0  0
   61.3190   30.1770   48.4840 C   0  0  0  0  0  0  0  0  0  0  0  0
   61.9250   31.4240   48.7020 C   0  0  0  0  0  0  0  0  0  0  0  0
   63.1740   31.5270   49.4960 C   0  0  0  0  0  0  0  0  0  0  0  0
   63.3530   30.7580   50.6560 C   0  0  0  0  0  0  0  0  0  0  0  0
   64.5370   30.8700   51.3880 C   0  0  0  0  0  0  0  0  0  0  0  0
   65.5200   31.7310   50.9930 N   0  0  0  0  0  0  0  0  0  0  0  0
   66.7710   31.8040   51.7530 C   0  0  0  0  0  0  0  0  0  0  0  0
   65.3760   32.4730   49.8550 C   0  0  0  0  0  0  0  0  0  0  0  0
   64.2060   32.3900   49.0970 C   0  0  0  0  0  0  0  0  0  0  0  0
   61.3380   32.5730   48.1520 C   0  0  0  0  0  0  0  0  0  0  0  0
   60.1680   32.4930   47.3820 C   0  0  0  0  0  0  0  0  0  0  0  0
   59.6030   33.6930   46.8280 N   0  0  0  0  0  0  0  0  0  0  0  0
   60.0240   34.2410   45.5360 C   0  0  0  0  0  0  0  0  0  0  0  0
   58.9000   35.0640   44.8950 C   0  0  0  0  0  0  0  0  0  0  0  0
   57.7670   34.2000   44.4960 N   0  0  0  0  0  0  0  0  0  0  0  0
   58.2520   32.9990   43.7950 C   0  0  0  0  0  0  0  0  0  0  0  0
   56.9620   33.8020   45.6630 C   0  0  0  0  0  0  0  0  0  0  0  0
   59.5690   31.2310   47.1500 C   0  0  0  0  0  0  0  0  0  0  0  0
   58.4270   31.0930   46.3380 C   0  0  0  0  0  0  0  0  0  0  0  0
   57.8530   29.8290   46.1080 C   0  0  0  0  0  0  0  0  0  0  0  0
   56.7150   29.6630   45.3020 O   0  0  0  0  0  0  0  0  0  0  0  0
   56.6910   29.8400   43.8890 C   0  0  0  0  0  0  0  0  0  0  0  0
   58.0893   25.6556   45.4378 H   0  0  0  0  0  0  0  0  0  0  0  0
   57.0038   26.8433   44.6391 H   0  0  0  0  0  0  0  0  0  0  0  0
   58.7804   27.1086   44.6391 H   0  0  0  0  0  0  0  0  0  0  0  0
   60.0261   27.9196   47.9376 H   0  0  0  0  0  0  0  0  0  0  0  0
   61.7648   29.2718   48.9220 H   0  0  0  0  0  0  0  0  0  0  0  0
   62.5627   30.0687   50.9879 H   0  0  0  0  0  0  0  0  0  0  0  0
   64.6789   30.2587   52.2914 H   0  0  0  0  0  0  0  0  0  0  0  0
   66.5471   31.7909   52.8299 H   0  0  0  0  0  0  0  0  0  0  0  0
   67.4047   30.9413   51.4998 H   0  0  0  0  0  0  0  0  0  0  0  0
   67.3001   32.7345   51.4998 H   0  0  0  0  0  0  0  0  0  0  0  0
   66.1883   33.1413   49.5331 H   0  0  0  0  0  0  0  0  0  0  0  0
   64.0936   33.0001   48.1887 H   0  0  0  0  0  0  0  0  0  0  0  0
   61.8032   33.5542   48.3275 H   0  0  0  0  0  0  0  0  0  0  0  0
   58.8270   34.1710   47.3370 H   0  0  0  0  0  0  0  0  0  0  0  0
   60.9011   34.8872   45.6881 H   0  0  0  0  0  0  0  0  0  0  0  0
   60.2724   33.4053   44.8653 H   0  0  0  0  0  0  0  0  0  0  0  0
   58.5440   35.8112   45.6195 H   0  0  0  0  0  0  0  0  0  0  0  0
   59.2974   35.5561   43.9951 H   0  0  0  0  0  0  0  0  0  0  0  0
   58.5576   32.2423   44.5326 H   0  0  0  0  0  0  0  0  0  0  0  0
   57.4475   32.5925   43.1644 H   0  0  0  0  0  0  0  0  0  0  0  0
   59.1131   33.2652   43.1644 H   0  0  0  0  0  0  0  0  0  0  0  0
   57.4983   34.0672   46.5861 H   0  0  0  0  0  0  0  0  0  0  0  0
   55.9951   34.3259   45.6374 H   0  0  0  0  0  0  0  0  0  0  0  0
   56.7912   32.7156   45.6374 H   0  0  0  0  0  0  0  0  0  0  0  0
   57.9776   31.9851   45.8773 H   0  0  0  0  0  0  0  0  0  0  0  0
   56.5466   30.9051   43.6553 H   0  0  0  0  0  0  0  0  0  0  0  0
   57.6439   29.4965   43.4602 H   0  0  0  0  0  0  0  0  0  0  0  0
   55.8639   29.2551   43.4602 H   0  0  0  0  0  0  0  0  0  0  0  0
  1  2  1  0
  2  3  1  0
  3  4  2  0
  4  5  1  0
  5  6  2  0
  6  7  1  0
  7  8  1  0
  8  9  2  0
  9 10  1  0
 10 11  2  0
 11 12  1  0
 11 13  1  0
 13 14  2  0
  7 15  2  0
 15 16  1  0
 16 17  1  0
 17 18  1  0
 18 19  1  0
 19 20  1  0
 20 21  1  0
 20 22  1  0
 16 23  2  0
 23 24  1  0
 24 25  2  0
 25 26  1  0
 26 27  1  0
 25  3  1  0
 23  5  1  0
 14  8  1  0
  1 28  1  0
  1 29  1  0
  1 30  1  0
  4 31  1  0
  6 32  1  0
  9 33  1  0
 10 34  1  0
 12 35  1  0
 12 36  1  0
 12 37  1  0
 13 38  1  0
 14 39  1  0
 15 40  1  0
 17 41  1  0
 18 42  1  0
 18 43  1  0
 19 44  1  0
 19 45  1  0
 21 46  1  0
 21 47  1  0
 21 48  1  0
 22 49  1  0
 22 50  1  0
 22 51  1  0
 24 52  1  0
 27 53  1  0
 27 54  1  0
 27 55  1  0
M  CHG  1  11   1
M  END
>  <UniqueID>  (3) 
3

>  <SMILES>  (3) 
COc1cc2cc(-c3cc[n+](C)cc3)cc(NCCN(C)C)c2cc1OC

>  <Energy>  (3) 
64.78035726889014

>  <Genealogy>  (3) 
COc1cc2cc(-c3cc[n+](C)cc3)cc(NCCN(C)C)c2cc1OC (3D coordinates assigned)
COc1cc2cc(-c3cc[n+](C)cc3)cc(NCCN(C)C)c2cc1OC (optimized conformer: 64.78035726889014 kcal/mol)

>  <smiles>  (3) 
COc1cc2cc(-c3cc[n+](C)cc3)cc(NCCN(C)C)c2cc1OC

>  <score_type>  (3) 
oracle

>  <origin>  (3) 
adg

>  <m_score__min__energy>  (3) 
-5.6500000000000004

>  <m_primary>  (3) 
energy

$$$$
3:0
     RDKit          3D

 45 46  0  0  0  0  0  0  0  0999 V2000
   59.5600   30.2000   48.2130 C   0  0  0  0  0  0  0  0  0  0  0  0
   58.9100   31.5030   48.3050 N   0  0  0  0  0  0  0  0  0  0  0  0
   58.6460   32.3200   47.1500 C   0  0  0  0  0  0  0  0  0  0  0  0
   58.1600   31.6950   45.9910 C   0  0  0  0  0  0  0  0  0  0  0  0
   57.8450   32.4430   44.8560 C   0  0  0  0  0  0  0  0  0  0  0  0
   58.0130   33.8260   44.8640 C   0  0  0  0  0  0  0  0  0  0  0  0
   58.5200   34.4620   45.9980 C   0  0  0  0  0  0  0  0  0  0  0  0
   58.8660   33.7210   47.1380 C   0  0  0  0  0  0  0  0  0  0  0  0
   59.6200   34.5890   48.5250 S   0  0  0  0  0  0  0  0  0  0  0  0
   61.2450   33.8500   48.2740 C   0  0  0  0  0  0  0  0  0  0  0  0
   61.7850   33.8490   46.9790 C   0  0  0  0  0  0  0  0  0  0  0  0
   63.0520   33.3160   46.7380 C   0  0  0  0  0  0  0  0  0  0  0  0
   63.7880   32.7650   47.7850 C   0  0  0  0  0  0  0  0  0  0  0  0
   63.2530   32.7300   49.0730 C   0  0  0  0  0  0  0  0  0  0  0  0
   61.9740   33.2580   49.3370 C   0  0  0  0  0  0  0  0  0  0  0  0
   61.4090   33.1230   50.6620 N   0  0  0  0  0  0  0  0  0  0  0  0
   61.1680   31.7100   51.0110 C   0  0  0  0  0  0  0  0  0  0  0  0
   59.8440   31.5110   51.7730 C   0  0  0  0  0  0  0  0  0  0  0  0
   58.8310   32.4930   51.3280 N   0  0  0  0  0  0  0  0  0  0  0  0
   58.7600   33.6140   52.2790 C   0  0  0  0  0  0  0  0  0  0  0  0
   57.5010   31.8670   51.2140 C   0  0  0  0  0  0  0  0  0  0  0  0
   59.7525   29.8140   49.2249 H   0  0  0  0  0  0  0  0  0  0  0  0
   58.9051   29.5009   47.6724 H   0  0  0  0  0  0  0  0  0  0  0  0
   60.5125   30.3027   47.6724 H   0  0  0  0  0  0  0  0  0  0  0  0
   58.9430   31.9770   49.2360 H   0  0  0  0  0  0  0  0  0  0  0  0
   58.0259   30.6033   45.9773 H   0  0  0  0  0  0  0  0  0  0  0  0
   57.4639   31.9406   43.9547 H   0  0  0  0  0  0  0  0  0  0  0  0
   57.7458   34.4172   43.9757 H   0  0  0  0  0  0  0  0  0  0  0  0
   58.6495   35.5543   45.9981 H   0  0  0  0  0  0  0  0  0  0  0  0
   61.2044   34.2722   46.1461 H   0  0  0  0  0  0  0  0  0  0  0  0
   63.4700   33.3309   45.7206 H   0  0  0  0  0  0  0  0  0  0  0  0
   64.7919   32.3572   47.5958 H   0  0  0  0  0  0  0  0  0  0  0  0
   63.8369   32.2848   49.8921 H   0  0  0  0  0  0  0  0  0  0  0  0
   60.5040   33.6370   50.7160 H   0  0  0  0  0  0  0  0  0  0  0  0
   62.0360   33.5630   51.3770 H   0  0  0  0  0  0  0  0  0  0  0  0
   61.1348   31.1180   50.0845 H   0  0  0  0  0  0  0  0  0  0  0  0
   61.9863   31.3828   51.6693 H   0  0  0  0  0  0  0  0  0  0  0  0
   59.4684   30.4944   51.5846 H   0  0  0  0  0  0  0  0  0  0  0  0
   60.0293   31.6568   52.8474 H   0  0  0  0  0  0  0  0  0  0  0  0
   58.7847   33.2245   53.3074 H   0  0  0  0  0  0  0  0  0  0  0  0
   59.6175   34.2844   52.1202 H   0  0  0  0  0  0  0  0  0  0  0  0
   57.8248   34.1709   52.1202 H   0  0  0  0  0  0  0  0  0  0  0  0
   57.0977   31.6772   52.2196 H   0  0  0  0  0  0  0  0  0  0  0  0
   56.8240   32.5410   50.6687 H   0  0  0  0  0  0  0  0  0  0  0  0
   57.5890   30.9158   50.6687 H   0  0  0  0  0  0  0  0  0  0  0  0
  1  2  1  0
  2  3  1  0
  3  4  2  0
  4  5  1  0
  5  6  2  0
  6  7  1  0
  7  8  2  0
  8  9  1  0
  9 10  1  0
 10 11  2  0
 11 12  1  0
 12 13  2  0
 13 14  1  0
 14 15  2  0
 15 16  1  0
 16 17  1  0
 17 18  1  0
 18 19  1  0
 19 20  1  0
 19 21  1  0
  8  3  1  0
 15 10  1  0
  1 22  1  0
  1 23  1  0
  1 24  1  0
  2 25  1  0
  4 26  1  0
  5 27  1  0
  6 28  1  0
  7 29  1  0
 11 30  1  0
 12 31  1  0
 13 32  1  0
 14 33  1  0
 16 34  1  0
 16 35  1  0
 17 36  1  0
 17 37  1  0
 18 38  1  0
 18 39  1  0
 20 40  1  0
 20 41  1  0
 20 42  1  0
 21 43  1  0
 21 44  1  0
 21 45  1  0
M  CHG  1  16   1
M  END
>  <UniqueID>  (4) 
4

>  <SMILES>  (4) 
CNc1ccccc1Sc1ccccc1[NH2+]CCN(C)C

>  <Energy>  (4) 
46.50960919714465

>  <Genealogy>  (4) 
CNc1ccccc1Sc1ccccc1[NH2+]CCN(C)C (protonated)
CNc1ccccc1Sc1ccccc1[NH2+]CCN(C)C (3D coordinates assigned)
CNc1ccccc1Sc1ccccc1[NH2+]CCN(C)C (optimized conformer: 46.50960919714465 kcal/mol)

>  <smiles>  (4) 
CNc1ccccc1Sc1ccccc1NCCN(C)C

>  <score_type>  (4) 
oracle

>  <origin>  (4) 
adg

>  <m_score__min__energy>  (4) 
-4.0300000000000002

>  <m_primary>  (4) 
energy

$$$$
4:0
     RDKit          3D

 44 45  0  0  0  0  0  0  0  0999 V2000
   57.4080   31.9790   41.5750 C   0  0  0  0  0  0  0  0  0  0  0  0
   56.7040   30.8500   42.3190 C   0  0  0  0  0  0  0  0  0  0  0  0
   57.5600   30.3010   43.3700 N   0  0  0  0  0  0  0  0  0  0  0  0
   57.0260   29.8950   44.6360 C   0  0  0  0  0  0  0  0  0  0  0  0
   55.7900   29.9960   44.8690 O   0  0  0  0  0  0  0  0  0  0  0  0
   57.9320   29.3250   45.6880 C   0  0  0  0  0  0  0  0  0  0  0  0
   59.2180   30.1540   45.8520 C   0  0  0  0  0  0  0  0  0  0  0  0
   58.9730   31.6160   46.2070 C   0  0  0  0  0  0  0  0  0  0  0  0
   58.8470   32.5500   45.1580 C   0  0  0  0  0  0  0  0  0  0  0  0
   58.6260   33.9010   45.4210 C   0  0  0  0  0  0  0  0  0  0  0  0
   58.5540   34.3550   46.7330 C   0  0  0  0  0  0  0  0  0  0  0  0
   58.7260   33.4630   47.7900 C   0  0  0  0  0  0  0  0  0  0  0  0
   58.9570   32.0950   47.5510 C   0  0  0  0  0  0  0  0  0  0  0  0
   59.1650   31.1970   48.7540 C   0  0  0  0  0  0  0  0  0  0  0  0
   60.6070   30.6750   48.8410 C   0  0  0  0  0  0  0  0  0  0  0  0
   61.6120   31.7630   48.5520 C   0  0  0  0  0  0  0  0  0  0  0  0
   62.4500   31.6570   47.4290 C   0  0  0  0  0  0  0  0  0  0  0  0
   63.3630   32.6710   47.1310 C   0  0  0  0  0  0  0  0  0  0  0  0
   63.4440   33.8030   47.9460 C   0  0  0  0  0  0  0  0  0  0  0  0
   62.6080   33.9240   49.0590 C   0  0  0  0  0  0  0  0  0  0  0  0
   62.6810   35.0310   49.8390 F   0  0  0  0  0  0  0  0  0  0  0  0
   61.6910   32.9120   49.3630 C   0  0  0  0  0  0  0  0  0  0  0  0
   60.8710   33.0620   50.4320 F   0  0  0  0  0  0  0  0  0  0  0  0
   57.8452   32.6801   42.3012 H   0  0  0  0  0  0  0  0  0  0  0  0
   58.2055   31.5606   40.9435 H   0  0  0  0  0  0  0  0  0  0  0  0
   56.6813   32.5110   40.9435 H   0  0  0  0  0  0  0  0  0  0  0  0
   55.7811   31.2394   42.7736 H   0  0  0  0  0  0  0  0  0  0  0  0
   56.4721   30.0488   41.6018 H   0  0  0  0  0  0  0  0  0  0  0  0
   58.5840   30.1780   43.1960 H   0  0  0  0  0  0  0  0  0  0  0  0
   57.3952   29.3085   46.6480 H   0  0  0  0  0  0  0  0  0  0  0  0
   58.2194   28.3103   45.3754 H   0  0  0  0  0  0  0  0  0  0  0  0
   59.8220   29.7006   46.6517 H   0  0  0  0  0  0  0  0  0  0  0  0
   59.7287   30.1447   44.8778 H   0  0  0  0  0  0  0  0  0  0  0  0
   58.9243   32.2070   44.1157 H   0  0  0  0  0  0  0  0  0  0  0  0
   58.5083   34.6098   44.5881 H   0  0  0  0  0  0  0  0  0  0  0  0
   58.3612   35.4186   46.9370 H   0  0  0  0  0  0  0  0  0  0  0  0
   58.6806   33.8329   48.8250 H   0  0  0  0  0  0  0  0  0  0  0  0
   58.9385   31.7679   49.6665 H   0  0  0  0  0  0  0  0  0  0  0  0
   58.4959   30.3301   48.6501 H   0  0  0  0  0  0  0  0  0  0  0  0
   60.7847   30.2853   49.8542 H   0  0  0  0  0  0  0  0  0  0  0  0
   60.7316   29.8836   48.0873 H   0  0  0  0  0  0  0  0  0  0  0  0
   62.3865   30.7704   46.7810 H   0  0  0  0  0  0  0  0  0  0  0  0
   64.0194   32.5783   46.2532 H   0  0  0  0  0  0  0  0  0  0  0  0
   64.1660   34.5990   47.7114 H   0  0  0  0  0  0  0  0  0  0  0  0
  1  2  1  0
  2  3  1  0
  3  4  1  0
  4  5  2  0
  4  6  1  0
  6  7  1  0
  7  8  1  0
  8  9  2  0
  9 10  1  0
 10 11  2  0
 11 12  1  0
 12 13  2  0
 13 14  1  0
 14 15  1  0
 15 16  1  0
 16 17  2  0
 17 18  1  0
 18 19  2  0
 19 20  1  0
 20 21  1  0
 20 22  2  0
 22 23  1  0
 13  8  1  0
 22 16  1  0
  1 24  1  0
  1 25  1  0
  1 26  1  0
  2 27  1  0
  2 28  1  0
  3 29  1  0
  6 30  1  0
  6 31  1  0
  7 32  1  0
  7 33  1  0
  9 34  1  0
 10 35  1  0
 11 36  1  0
 12 37  1  0
 14 38  1  0
 14 39  1  0
 15 40  1  0
 15 41  1  0
 17 42  1  0
 18 43  1  0
 19 44  1  0
M  END
>  <UniqueID>  (5) 
5

>  <SMILES>  (5) 
CCNC(=O)CCc1ccccc1CCc1cccc(F)c1F

>  <Energy>  (5) 
34.71157253112273

>  <Genealogy>  (5) 
CCNC(=O)CCc1ccccc1CCc1cccc(F)c1F (3D coordinates assigned)
CCNC(=O)CCc1ccccc1CCc1cccc(F)c1F (optimized conformer: 34.71157253112273 kcal/mol)

>  <smiles>  (5) 
CCNC(=O)CCc1ccccc1CCc1cccc(F)c1F

>  <score_type>  (5) 
oracle

>  <origin>  (5) 
adg

>  <m_score__min__energy>  (5) 
-7.3700000000000001

>  <m_primary>  (5) 
energy

$$$$
5:0
     RDKit          3D

 47 50  0  0  0  0  0  0  0  0999 V2000
   57.3780   32.2810   41.2030 C   0  0  0  0  0  0  0  0  0  0  0  0
   57.0720   31.6870   42.4600 O   0  0  0  0  0  0  0  0  0  0  0  0
   57.6960   32.0250   43.6720 C   0  0  0  0  0  0  0  0  0  0  0  0
   58.5110   33.1650   43.8000 C   0  0  0  0  0  0  0  0  0  0  0  0
   59.1150   33.4690   45.0210 C   0  0  0  0  0  0  0  0  0  0  0  0
   58.9110   32.6460   46.1370 C   0  0  0  0  0  0  0  0  0  0  0  0
   59.5410   32.9530   47.3920 N   0  0  0  0  0  0  0  0  0  0  0  0
   58.9640   32.9710   48.6210 C   0  0  0  0  0  0  0  0  0  0  0  0
   57.7480   32.7060   48.8220 O   0  0  0  0  0  0  0  0  0  0  0  0
   59.8360   33.2800   49.6150 N   0  0  0  0  0  0  0  0  0  0  0  0
   59.5700   33.3130   51.0550 C   0  0  0  0  0  0  0  0  0  0  0  0
   58.8410   32.0680   51.4770 C   0  0  0  0  0  0  0  0  0  0  0  0
   59.5410   31.0220   52.0990 C   0  0  0  0  0  0  0  0  0  0  0  0
   58.8500   29.8840   52.5140 C   0  0  0  0  0  0  0  0  0  0  0  0
   57.4730   29.7950   52.3090 C   0  0  0  0  0  0  0  0  0  0  0  0
   56.8050   30.8520   51.6890 C   0  0  0  0  0  0  0  0  0  0  0  0
   57.4920   31.9580   51.2900 N   0  0  0  0  0  0  0  0  0  0  0  0
   61.0130   33.4530   48.9790 C   0  0  0  0  0  0  0  0  0  0  0  0
   62.2570   33.7910   49.5160 C   0  0  0  0  0  0  0  0  0  0  0  0
   63.3350   33.9400   48.6250 C   0  0  0  0  0  0  0  0  0  0  0  0
   63.1500   33.7570   47.2380 C   0  0  0  0  0  0  0  0  0  0  0  0
   61.8860   33.4180   46.7240 C   0  0  0  0  0  0  0  0  0  0  0  0
   60.8350   33.2590   47.6320 C   0  0  0  0  0  0  0  0  0  0  0  0
   58.1060   31.5050   46.0110 C   0  0  0  0  0  0  0  0  0  0  0  0
   57.4940   31.1900   44.7820 C   0  0  0  0  0  0  0  0  0  0  0  0
   56.6780   30.0580   44.6250 O   0  0  0  0  0  0  0  0  0  0  0  0
   57.0230   28.9150   43.8490 C   0  0  0  0  0  0  0  0  0  0  0  0
   57.8762   33.2481   41.3660 H   0  0  0  0  0  0  0  0  0  0  0  0
   58.0456   31.6156   40.6358 H   0  0  0  0  0  0  0  0  0  0  0  0
   56.4487   32.4383   40.6358 H   0  0  0  0  0  0  0  0  0  0  0  0
   58.6731   33.8209   42.9320 H   0  0  0  0  0  0  0  0  0  0  0  0
   59.7548   34.3596   45.1079 H   0  0  0  0  0  0  0  0  0  0  0  0
   60.5237   33.3777   51.5993 H   0  0  0  0  0  0  0  0  0  0  0  0
   58.9462   34.1894   51.2847 H   0  0  0  0  0  0  0  0  0  0  0  0
   60.6267   31.0995   52.2579 H   0  0  0  0  0  0  0  0  0  0  0  0
   59.3894   29.0587   53.0017 H   0  0  0  0  0  0  0  0  0  0  0  0
   56.9195   28.9012   52.6326 H   0  0  0  0  0  0  0  0  0  0  0  0
   55.7194   30.7915   51.5220 H   0  0  0  0  0  0  0  0  0  0  0  0
   56.9630   32.7300   50.8270 H   0  0  0  0  0  0  0  0  0  0  0  0
   62.3892   33.9357   50.5984 H   0  0  0  0  0  0  0  0  0  0  0  0
   64.3307   34.2014   49.0126 H   0  0  0  0  0  0  0  0  0  0  0  0
   64.0019   33.8806   46.5532 H   0  0  0  0  0  0  0  0  0  0  0  0
   61.7293   33.2824   45.6437 H   0  0  0  0  0  0  0  0  0  0  0  0
   57.9508   30.8493   46.8805 H   0  0  0  0  0  0  0  0  0  0  0  0
   57.2751   28.0796   44.5187 H   0  0  0  0  0  0  0  0  0  0  0  0
   56.1703   28.6317   43.2144 H   0  0  0  0  0  0  0  0  0  0  0  0
   57.8900   29.1507   43.2144 H   0  0  0  0  0  0  0  0  0  0  0  0
  1  2  1  0
  2  3  1  0
  3  4  2  0
  4  5  1  0
  5  6  2  0
  6  7  1  0
  7  8  1  0
  8  9  2  0
  8 10  1  0
 10 11  1  0
 11 12  1  0
 12 13  2  0
 13 14  1  0
 14 15  2  0
 15 16  1  0
 16 17  2  0
 10 18  1  0
 18 19  2  0
 19 20  1  0
 20 21  2  0
 21 22  1  0
 22 23  2  0
  6 24  1  0
 24 25  2  0
 25 26  1  0
 26 27  1  0
 25  3  1  0
 23  7  1  0
 17 12  1  0
 23 18  1  0
  1 28  1  0
  1 29  1  0
  1 30  1  0
  4 31  1  0
  5 32  1  0
 11 33  1  0
 11 34  1  0
 13 35  1  0
 14 36  1  0
 15 37  1  0
 16 38  1  0
 17 39  1  0
 19 40  1  0
 20 41  1  0
 21 42  1  0
 22 43  1  0
 24 44  1  0
 27 45  1  0
 27 46  1  0
 27 47  1  0
M  CHG  1  17   1
M  END
>  <UniqueID>  (6) 
6

>  <SMILES>  (6) 
COc1ccc(-n2c(=O)n(Cc3cccc[nH+]3)c3ccccc32)cc1OC

>  <Energy>  (6) 
96.12082976690145

>  <Genealogy>  (6) 
COc1ccc(-n2c(=O)n(Cc3cccc[nH+]3)c3ccccc32)cc1OC (protonated)
COc1ccc(-n2c(=O)n(Cc3cccc[nH+]3)c3ccccc32)cc1OC (3D coordinates assigned)
COc1ccc(-n2c(=O)n(Cc3cccc[nH+]3)c3ccccc32)cc1OC (optimized conformer: 96.12082976690145 kcal/mol)

>  <smiles>  (6) 
COc1ccc(-n2c(=O)n(Cc3ccccn3)c3ccccc32)cc1OC

>  <score_type>  (6) 
oracle

>  <origin>  (6) 
adg

>  <m_score__min__energy>  (6) 
-6.3799999999999999

>  <m_primary>  (6) 
energy

$$$$
6:0
     RDKit          3D

 52 55  0  0  0  0  0  0  0  0999 V2000
   57.9572   23.5014   45.2898 H   0  0  0  0  0  0  0  0  0  0  0  0
   58.1070   24.5110   45.7000 C   0  0  0  0  0  0  0  0  0  0  0  0
   57.0130   25.3540   45.8940 C   0  0  0  0  0  0  0  0  0  0  0  0
   55.9997   25.0072   45.6430 H   0  0  0  0  0  0  0  0  0  0  0  0
   57.2050   26.6410   46.4080 C   0  0  0  0  0  0  0  0  0  0  0  0
   56.3406   27.3066   46.5488 H   0  0  0  0  0  0  0  0  0  0  0  0
   58.4970   27.0920   46.7470 C   0  0  0  0  0  0  0  0  0  0  0  0
   58.6970   28.4630   47.2680 C   0  0  0  0  0  0  0  0  0  0  0  0
   59.2430   28.8490   48.8050 S   0  0  0  0  0  0  0  0  0  0  0  0
   59.1420   30.5160   48.6300 C   0  0  0  0  0  0  0  0  0  0  0  0
   59.2390   31.3360   49.6940 N   0  0  0  0  0  0  0  0  0  0  0  0
   59.1640   32.6840   49.7610 C   0  0  0  0  0  0  0  0  0  0  0  0
   59.2950   33.3180   51.1060 C   0  0  0  0  0  0  0  0  0  0  0  0
   59.1381   32.5586   51.8862 H   0  0  0  0  0  0  0  0  0  0  0  0
   60.3013   33.7496   51.2115 H   0  0  0  0  0  0  0  0  0  0  0  0
   58.5422   34.1130   51.2115 H   0  0  0  0  0  0  0  0  0  0  0  0
   59.2590   33.4890   48.6780 N   0  0  0  0  0  0  0  0  0  0  0  0
   59.0760   33.2680   47.3530 C   0  0  0  0  0  0  0  0  0  0  0  0
   59.6540   34.2890   46.4600 C   0  0  0  0  0  0  0  0  0  0  0  0
   58.8890   35.0770   45.8320 O   0  0  0  0  0  0  0  0  0  0  0  0
   61.0520   34.4210   46.3720 O   0  0  0  0  0  0  0  0  0  0  0  0
   61.9710   33.5050   46.9610 C   0  0  0  0  0  0  0  0  0  0  0  0
   61.7104   32.4817   46.6528 H   0  0  0  0  0  0  0  0  0  0  0  0
   61.9135   33.5966   48.0557 H   0  0  0  0  0  0  0  0  0  0  0  0
   63.3980   33.8180   46.5120 C   0  0  0  0  0  0  0  0  0  0  0  0
   64.0379   33.9584   47.3956 H   0  0  0  0  0  0  0  0  0  0  0  0
   63.7840   32.9832   45.9086 H   0  0  0  0  0  0  0  0  0  0  0  0
   63.3991   34.7377   45.9086 H   0  0  0  0  0  0  0  0  0  0  0  0
   58.4700   32.1070   46.8100 C   0  0  0  0  0  0  0  0  0  0  0  0
   57.7040   32.1670   45.7450 N   0  0  0  0  0  0  0  0  0  0  0  0
   57.8580   31.5850   44.4050 C   0  0  0  0  0  0  0  0  0  0  0  0
   58.7633   30.9610   44.3726 H   0  0  0  0  0  0  0  0  0  0  0  0
   57.9970   32.7030   43.3520 C   0  0  0  0  0  0  0  0  0  0  0  0
   57.1884   33.4360   43.4896 H   0  0  0  0  0  0  0  0  0  0  0  0
   58.9721   33.1970   43.4752 H   0  0  0  0  0  0  0  0  0  0  0  0
   57.9080   32.1060   41.9400 C   0  0  0  0  0  0  0  0  0  0  0  0
   57.9600   32.9196   41.2015 H   0  0  0  0  0  0  0  0  0  0  0  0
   58.7454   31.4061   41.8020 H   0  0  0  0  0  0  0  0  0  0  0  0
   56.6880   31.3940   41.7630 O   0  0  0  0  0  0  0  0  0  0  0  0
   56.6430   30.2770   42.6350 C   0  0  0  0  0  0  0  0  0  0  0  0
   55.7371   29.6899   42.4237 H   0  0  0  0  0  0  0  0  0  0  0  0
   57.5413   29.6636   42.4715 H   0  0  0  0  0  0  0  0  0  0  0  0
   56.6170   30.7340   44.0980 C   0  0  0  0  0  0  0  0  0  0  0  0
   55.7116   31.3327   44.2765 H   0  0  0  0  0  0  0  0  0  0  0  0
   56.6148   29.8498   44.7523 H   0  0  0  0  0  0  0  0  0  0  0  0
   58.6840   30.8260   47.3470 C   0  0  0  0  0  0  0  0  0  0  0  0
   58.4210   29.6510   46.5990 C   0  0  0  0  0  0  0  0  0  0  0  0
   58.0298   29.6766   45.5712 H   0  0  0  0  0  0  0  0  0  0  0  0
   59.5920   26.2310   46.5540 C   0  0  0  0  0  0  0  0  0  0  0  0
   60.6061   26.5657   46.8178 H   0  0  0  0  0  0  0  0  0  0  0  0
   59.3950   24.9490   46.0270 C   0  0  0  0  0  0  0  0  0  0  0  0
   60.2564   24.2833   45.8694 H   0  0  0  0  0  0  0  0  0  0  0  0
  1  2  1  0
  2  3  2  0
  3  4  1  0
  3  5  1  0
  5  6  1  0
  5  7  2  0
  7  8  1  0
  8  9  1  0
  9 10  1  0
 10 11  1  0
 11 12  2  0
 12 13  1  0
 13 14  1  0
 13 15  1  0
 13 16  1  0
 12 17  1  0
 17 18  2  0
 18 19  1  0
 19 20  2  0
 19 21  1  0
 21 22  1  0
 22 23  1  0
 22 24  1  0
 22 25  1  0
 25 26  1  0
 25 27  1  0
 25 28  1  0
 18 29  1  0
 29 30  2  0
 30 31  1  0
 31 32  1  0
 31 33  1  0
 33 34  1  0
 33 35  1  0
 33 36  1  0
 36 37  1  0
 36 38  1  0
 36 39  1  0
 39 40  1  0
 40 41  1  0
 40 42  1  0
 40 43  1  0
 43 44  1  0
 43 45  1  0
 29 46  1  0
 46 47  1  0
 47 48  1  0
  7 49  1  0
 49 50  1  0
 49 51  2  0
 51 52  1  0
 51  2  1  0
 47  8  2  0
 46 10  2  0
 43 31  1  0
M  END
>  <UniqueID>  (7) 
7

>  <SMILES>  (7) 
CCOC(=O)c1nc(C)nc2sc(-c3ccccc3)cc2/c1=N/C1CCOCC1

>  <Energy>  (7) 
119.31184382764366

>  <Genealogy>  (7) 
CCOC(=O)c1nc(C)nc2sc(-c3ccccc3)cc2/c1=N/C1CCOCC1 (cis-trans isomerization)
CCOC(=O)c1nc(C)nc2sc(-c3ccccc3)cc2/c1=N/C1CCOCC1 (3D coordinates assigned)
CCOC(=O)c1nc(C)nc2sc(-c3ccccc3)cc2/c1=N/C1CCOCC1 (nonaromatic ring conformer: 119.31184382764366 kcal/mol)

>  <smiles>  (7) 
CCOC(=O)c1nc(C)nc2sc(-c3ccccc3)cc2c1=NC1CCOCC1

>  <score_type>  (7) 
oracle

>  <origin>  (7) 
adg

>  <m_score__min__energy>  (7) 
-8.0999999999999996

>  <m_primary>  (7) 
energy

$$$$
7:0
     RDKit          3D

 42 44  0  0  0  0  0  0  0  0999 V2000
   55.7520   30.9700   44.4810 O   0  0  0  0  0  0  0  0  0  0  0  0
   57.4310   30.9730   44.4010 S   0  0  0  0  0  0  0  0  0  0  0  0
   58.1070   32.3930   45.1790 C   0  0  0  0  0  0  0  0  0  0  0  0
   58.2170   32.4350   46.5750 C   0  0  0  0  0  0  0  0  0  0  0  0
   58.7480   33.5670   47.2020 C   0  0  0  0  0  0  0  0  0  0  0  0
   59.1740   34.6570   46.4360 C   0  0  0  0  0  0  0  0  0  0  0  0
   59.6890   35.7530   47.0450 F   0  0  0  0  0  0  0  0  0  0  0  0
   59.0680   34.6160   45.0410 C   0  0  0  0  0  0  0  0  0  0  0  0
   58.5360   33.4850   44.4140 C   0  0  0  0  0  0  0  0  0  0  0  0
   58.1470   29.4480   45.0010 C   0  0  0  0  0  0  0  0  0  0  0  0
   57.6110   28.2310   44.2180 C   0  0  0  0  0  0  0  0  0  0  0  0
   58.6520   27.1030   44.0810 C   0  0  0  0  0  0  0  0  0  0  0  0
   59.5440   26.9980   45.2580 N   0  0  0  0  0  0  0  0  0  0  0  0
   58.8580   26.4820   46.4640 C   0  0  0  0  0  0  0  0  0  0  0  0
   57.5950   25.7490   46.0960 C   0  0  0  0  0  0  0  0  0  0  0  0
   57.6460   24.4900   45.4800 C   0  0  0  0  0  0  0  0  0  0  0  0
   56.4630   23.8190   45.1650 C   0  0  0  0  0  0  0  0  0  0  0  0
   55.2380   24.4140   45.4690 C   0  0  0  0  0  0  0  0  0  0  0  0
   55.2030   25.6330   46.0710 N   0  0  0  0  0  0  0  0  0  0  0  0
   56.3410   26.3060   46.3890 C   0  0  0  0  0  0  0  0  0  0  0  0
   60.3120   28.2460   45.5180 C   0  0  0  0  0  0  0  0  0  0  0  0
   59.6730   29.5200   44.9260 C   0  0  0  0  0  0  0  0  0  0  0  0
   55.5400   31.5680   45.2400 H   0  0  0  0  0  0  0  0  0  0  0  0
   57.8855   31.5771   47.1785 H   0  0  0  0  0  0  0  0  0  0  0  0
   58.8306   33.6000   48.2984 H   0  0  0  0  0  0  0  0  0  0  0  0
   59.4030   35.4730   44.4382 H   0  0  0  0  0  0  0  0  0  0  0  0
   58.4542   33.4528   43.3175 H   0  0  0  0  0  0  0  0  0  0  0  0
   57.8522   29.3169   46.0526 H   0  0  0  0  0  0  0  0  0  0  0  0
   56.7304   27.8344   44.7446 H   0  0  0  0  0  0  0  0  0  0  0  0
   57.3597   28.5745   43.2037 H   0  0  0  0  0  0  0  0  0  0  0  0
   58.1207   26.1479   43.9566 H   0  0  0  0  0  0  0  0  0  0  0  0
   59.2808   27.3373   43.2094 H   0  0  0  0  0  0  0  0  0  0  0  0
   59.5321   25.7930   46.9939 H   0  0  0  0  0  0  0  0  0  0  0  0
   58.5932   27.3340   47.1074 H   0  0  0  0  0  0  0  0  0  0  0  0
   58.6179   24.0314   45.2451 H   0  0  0  0  0  0  0  0  0  0  0  0
   56.4962   22.8313   44.6820 H   0  0  0  0  0  0  0  0  0  0  0  0
   54.2995   23.8965   45.2214 H   0  0  0  0  0  0  0  0  0  0  0  0
   56.2783   27.2897   46.8772 H   0  0  0  0  0  0  0  0  0  0  0  0
   60.3974   28.3774   46.6068 H   0  0  0  0  0  0  0  0  0  0  0  0
   61.2874   28.1242   45.0243 H   0  0  0  0  0  0  0  0  0  0  0  0
   60.0210   30.3953   45.4941 H   0  0  0  0  0  0  0  0  0  0  0  0
   59.9703   29.6055   43.8704 H   0  0  0  0  0  0  0  0  0  0  0  0
  2  1  1  1
  2  3  1  0
  3  4  2  0
  4  5  1  0
  5  6  2  0
  6  7  1  0
  6  8  1  0
  8  9  2  0
  2 10  1  0
 10 11  1  0
 11 12  1  0
 12 13  1  0
 13 14  1  0
 14 15  1  0
 15 16  2  0
 16 17  1  0
 17 18  2  0
 18 19  1  0
 19 20  2  0
 13 21  1  0
 21 22  1  0
  9  3  1  0
 22 10  1  0
 20 15  1  0
  1 23  1  0
  4 24  1  0
  5 25  1  0
  8 26  1  0
  9 27  1  0
 10 28  1  0
 11 29  1  0
 11 30  1  0
 12 31  1  0
 12 32  1  0
 14 33  1  0
 14 34  1  0
 16 35  1  0
 17 36  1  0
 18 37  1  0
 20 38  1  0
 21 39  1  0
 21 40  1  0
 22 41  1  0
 22 42  1  0
M  CHG  1   2   1
M  END
>  <UniqueID>  (8) 
8

>  <SMILES>  (8) 
O[S@@+](c1ccc(F)cc1)C1CCN(Cc2cccnc2)CC1

>  <Energy>  (8) 
48.583678220999055

>  <Genealogy>  (8) 
O[S+](c1ccc(F)cc1)C1CCN(Cc2cccnc2)CC1 (protonated)
O[S@@+](c1ccc(F)cc1)C1CCN(Cc2cccnc2)CC1 (chirality)
O[S@@+](c1ccc(F)cc1)C1CCN(Cc2cccnc2)CC1 (3D coordinates assigned)
O[S@@+](c1ccc(F)cc1)C1CCN(Cc2cccnc2)CC1 (nonaromatic ring conformer: 48.583678220999055 kcal/mol)

>  <smiles>  (8) 
[O-][S+](c1ccc(F)cc1)C1CCN(Cc2cccnc2)CC1

>  <score_type>  (8) 
oracle

>  <origin>  (8) 
adg

>  <m_score__min__energy>  (8) 
-6.6399999999999997

>  <m_primary>  (8) 
energy

$$$$
8:0
     RDKit          3D

 45 47  0  0  0  0  0  0  0  0999 V2000
   54.5220   24.9790   45.6190 C   0  0  0  0  0  0  0  0  0  0  0  0
   54.9190   26.3080   45.9430 O   0  0  0  0  0  0  0  0  0  0  0  0
   56.2510   26.7200   46.0990 C   0  0  0  0  0  0  0  0  0  0  0  0
   56.7400   27.9220   45.5530 C   0  0  0  0  0  0  0  0  0  0  0  0
   58.0770   28.2870   45.7370 C   0  0  0  0  0  0  0  0  0  0  0  0
   58.9410   27.4660   46.4770 C   0  0  0  0  0  0  0  0  0  0  0  0
   60.3910   27.8420   46.6370 C   0  0  0  0  0  0  0  0  0  0  0  0
   60.5100   29.1700   47.2590 N   0  0  0  0  0  0  0  0  0  0  0  0
   59.8990   29.2240   48.6010 C   0  0  0  0  0  0  0  0  0  0  0  0
   58.9090   30.3920   48.7760 C   0  0  0  0  0  0  0  0  0  0  0  0
   58.5300   30.9590   47.5210 O   0  0  0  0  0  0  0  0  0  0  0  0
   58.9330   32.2130   47.0360 C   0  0  0  0  0  0  0  0  0  0  0  0
   58.0190   33.1760   46.5640 C   0  0  0  0  0  0  0  0  0  0  0  0
   58.4760   34.4090   46.0850 C   0  0  0  0  0  0  0  0  0  0  0  0
   59.8440   34.7000   46.0820 C   0  0  0  0  0  0  0  0  0  0  0  0
   60.7540   33.7560   46.5610 C   0  0  0  0  0  0  0  0  0  0  0  0
   60.3030   32.5080   47.0130 C   0  0  0  0  0  0  0  0  0  0  0  0
   61.2420   31.5660   47.4490 O   0  0  0  0  0  0  0  0  0  0  0  0
   62.6380   31.7370   47.1900 C   0  0  0  0  0  0  0  0  0  0  0  0
   63.0270   33.2130   47.3370 C   0  0  0  0  0  0  0  0  0  0  0  0
   62.1240   34.0400   46.5990 O   0  0  0  0  0  0  0  0  0  0  0  0
   58.4580   26.2600   47.0070 C   0  0  0  0  0  0  0  0  0  0  0  0
   57.1210   25.8960   46.8240 C   0  0  0  0  0  0  0  0  0  0  0  0
   54.3523   24.4108   46.5455 H   0  0  0  0  0  0  0  0  0  0  0  0
   53.5930   25.0070   45.0306 H   0  0  0  0  0  0  0  0  0  0  0  0
   55.3141   24.4928   45.0306 H   0  0  0  0  0  0  0  0  0  0  0  0
   56.0674   28.5766   44.9793 H   0  0  0  0  0  0  0  0  0  0  0  0
   58.4536   29.2232   45.2991 H   0  0  0  0  0  0  0  0  0  0  0  0
   60.8906   27.0972   47.2739 H   0  0  0  0  0  0  0  0  0  0  0  0
   60.8647   27.8687   45.6446 H   0  0  0  0  0  0  0  0  0  0  0  0
   61.5260   29.4000   47.3660 H   0  0  0  0  0  0  0  0  0  0  0  0
   60.0810   29.8960   46.6400 H   0  0  0  0  0  0  0  0  0  0  0  0
   59.3606   28.2811   48.7772 H   0  0  0  0  0  0  0  0  0  0  0  0
   60.7143   29.3783   49.3231 H   0  0  0  0  0  0  0  0  0  0  0  0
   58.0076   30.0213   49.2859 H   0  0  0  0  0  0  0  0  0  0  0  0
   59.4051   31.1746   49.3688 H   0  0  0  0  0  0  0  0  0  0  0  0
   56.9409   32.9575   46.5721 H   0  0  0  0  0  0  0  0  0  0  0  0
   57.7568   35.1518   45.7096 H   0  0  0  0  0  0  0  0  0  0  0  0
   60.2015   35.6690   45.7036 H   0  0  0  0  0  0  0  0  0  0  0  0
   63.2168   31.1356   47.9065 H   0  0  0  0  0  0  0  0  0  0  0  0
   62.8552   31.4092   46.1627 H   0  0  0  0  0  0  0  0  0  0  0  0
   62.9901   33.4939   48.3999 H   0  0  0  0  0  0  0  0  0  0  0  0
   64.0447   33.3556   46.9447 H   0  0  0  0  0  0  0  0  0  0  0  0
   59.1341   25.5985   47.5686 H   0  0  0  0  0  0  0  0  0  0  0  0
   56.7488   24.9541   47.2532 H   0  0  0  0  0  0  0  0  0  0  0  0
  1  2  1  0
  2  3  1  0
  3  4  2  0
  4  5  1  0
  5  6  2  0
  6  7  1  0
  7  8  1  0
  8  9  1  0
  9 10  1  0
 10 11  1  0
 11 12  1  0
 12 13  2  0
 13 14  1  0
 14 15  2  0
 15 16  1  0
 16 17  2  0
 17 18  1  0
 18 19  1  0
 19 20  1  0
 20 21  1  0
  6 22  1  0
 22 23  2  0
 23  3  1  0
 17 12  1  0
 21 16  1  0
  1 24  1  0
  1 25  1  0
  1 26  1  0
  4 27  1  0
  5 28  1  0
  7 29  1  0
  7 30  1  0
  8 31  1  0
  8 32  1  0
  9 33  1  0
  9 34  1  0
 10 35  1  0
 10 36  1  0
 13 37  1  0
 14 38  1  0
 15 39  1  0
 19 40  1  0
 19 41  1  0
 20 42  1  0
 20 43  1  0
 22 44  1  0
 23 45  1  0
M  CHG  1   8   1
M  END
>  <UniqueID>  (9) 
9

>  <SMILES>  (9) 
COc1ccc(C[NH2+]CCOc2cccc3c2OCCO3)cc1

>  <Energy>  (9) 
45.45113153305385

>  <Genealogy>  (9) 
COc1ccc(C[NH2+]CCOc2cccc3c2OCCO3)cc1 (protonated)
COc1ccc(C[NH2+]CCOc2cccc3c2OCCO3)cc1 (3D coordinates assigned)
COc1ccc(C[NH2+]CCOc2cccc3c2OCCO3)cc1 (nonaromatic ring conformer: 45.45113153305385 kcal/mol)

>  <smiles>  (9) 
COc1ccc(CNCCOc2cccc3c2OCCO3)cc1

>  <score_type>  (9) 
oracle

>  <origin>  (9) 
adg

>  <m_score__min__energy>  (9) 
-4.8700000000000001

>  <m_primary>  (9) 
energy

$$$$
9:0
     RDKit          3D

 35 37  0  0  0  0  0  0  0  0999 V2000
   59.0870   26.0200   46.8680 C   0  0  0  0  0  0  0  0  0  0  0  0
   58.1250   26.7400   46.0230 N   0  0  0  0  0  0  0  0  0  0  0  0
   57.0710   25.9600   45.3530 C   0  0  0  0  0  0  0  0  0  0  0  0
   55.9110   25.6400   46.3040 C   0  0  0  0  0  0  0  0  0  0  0  0
   54.7450   26.3270   45.9370 O   0  0  0  0  0  0  0  0  0  0  0  0
   58.2390   28.1780   45.8520 C   0  0  0  0  0  0  0  0  0  0  0  0
   57.8250   28.8080   44.6460 C   0  0  0  0  0  0  0  0  0  0  0  0
   57.9280   30.1980   44.4810 C   0  0  0  0  0  0  0  0  0  0  0  0
   58.4440   30.9510   45.5290 C   0  0  0  0  0  0  0  0  0  0  0  0
   58.8500   30.3660   46.7110 C   0  0  0  0  0  0  0  0  0  0  0  0
   58.7560   28.9870   46.8960 C   0  0  0  0  0  0  0  0  0  0  0  0
   59.3680   31.3870   47.6830 C   0  0  0  0  0  0  0  0  0  0  0  0
   59.1960   32.6430   46.8790 C   0  0  0  0  0  0  0  0  0  0  0  0
   59.5080   33.9500   47.2590 C   0  0  0  0  0  0  0  0  0  0  0  0
   59.2660   34.9900   46.3460 C   0  0  0  0  0  0  0  0  0  0  0  0
   58.7190   34.7140   45.0770 C   0  0  0  0  0  0  0  0  0  0  0  0
   58.4100   33.3940   44.7090 C   0  0  0  0  0  0  0  0  0  0  0  0
   58.6590   32.3780   45.6330 C   0  0  0  0  0  0  0  0  0  0  0  0
   58.8495   26.1977   47.9272 H   0  0  0  0  0  0  0  0  0  0  0  0
   59.0278   24.9425   46.6548 H   0  0  0  0  0  0  0  0  0  0  0  0
   60.1041   26.3806   46.6548 H   0  0  0  0  0  0  0  0  0  0  0  0
   56.6847   26.5401   44.5020 H   0  0  0  0  0  0  0  0  0  0  0  0
   57.5099   25.0095   45.0154 H   0  0  0  0  0  0  0  0  0  0  0  0
   55.7131   24.5583   46.2760 H   0  0  0  0  0  0  0  0  0  0  0  0
   56.1961   25.9582   47.3176 H   0  0  0  0  0  0  0  0  0  0  0  0
   54.3570   26.6950   46.7720 H   0  0  0  0  0  0  0  0  0  0  0  0
   57.4171   28.1954   43.8285 H   0  0  0  0  0  0  0  0  0  0  0  0
   57.6082   30.6796   43.5452 H   0  0  0  0  0  0  0  0  0  0  0  0
   59.0799   28.5308   47.8431 H   0  0  0  0  0  0  0  0  0  0  0  0
   58.7690   31.4101   48.6053 H   0  0  0  0  0  0  0  0  0  0  0  0
   60.3942   31.2052   48.0349 H   0  0  0  0  0  0  0  0  0  0  0  0
   59.9338   34.1606   48.2511 H   0  0  0  0  0  0  0  0  0  0  0  0
   59.5052   36.0271   46.6237 H   0  0  0  0  0  0  0  0  0  0  0  0
   58.5330   35.5366   44.3708 H   0  0  0  0  0  0  0  0  0  0  0  0
   57.9838   33.1675   43.7205 H   0  0  0  0  0  0  0  0  0  0  0  0
  1  2  1  0
  2  3  1  0
  3  4  1  0
  4  5  1  0
  2  6  1  0
  6  7  2  0
  7  8  1  0
  8  9  2  0
  9 10  1  0
 10 11  2  0
 10 12  1  0
 12 13  1  0
 13 14  2  0
 14 15  1  0
 15 16  2  0
 16 17  1  0
 17 18  2  0
 11  6  1  0
 18 13  1  0
 18  9  1  0
  1 19  1  0
  1 20  1  0
  1 21  1  0
  3 22  1  0
  3 23  1  0
  4 24  1  0
  4 25  1  0
  5 26  1  0
  7 27  1  0
  8 28  1  0
 11 29  1  0
 12 30  1  0
 12 31  1  0
 14 32  1  0
 15 33  1  0
 16 34  1  0
 17 35  1  0
M  END
>  <UniqueID>  (10) 
10

>  <SMILES>  (10) 
CN(CCO)c1ccc2c(c1)Cc1ccccc1-2

>  <Energy>  (10) 
59.99319094004287

>  <Genealogy>  (10) 
CN(CCO)c1ccc2c(c1)Cc1ccccc1-2 (3D coordinates assigned)
CN(CCO)c1ccc2c(c1)Cc1ccccc1-2 (nonaromatic ring conformer: 59.99319094004287 kcal/mol)

>  <smiles>  (10) 
CN(CCO)c1ccc2c(c1)Cc1ccccc1-2

>  <score_type>  (10) 
oracle

>  <origin>  (10) 
adg

>  <m_score__min__energy>  (10) 
-7.6500000000000004

>  <m_primary>  (10) 
energy

$$$$
10:0
     RDKit          3D

 56 59  0  0  0  0  0  0  0  0999 V2000
   63.7720   33.8400   47.3330 C   0  0  0  0  0  0  0  0  0  0  0  0
   64.1210   33.0810   48.6210 C   0  0  0  0  0  0  0  0  0  0  0  0
   62.9190   32.7840   49.4460 N   0  0  0  0  0  0  0  0  0  0  0  0
   63.1870   33.0950   50.8770 C   0  0  0  0  0  0  0  0  0  0  0  0
   63.4460   34.5890   51.1100 C   0  0  0  0  0  0  0  0  0  0  0  0
   62.5220   31.3570   49.2930 C   0  0  0  0  0  0  0  0  0  0  0  0
   61.4340   31.1690   48.2280 C   0  0  0  0  0  0  0  0  0  0  0  0
   61.4710   32.2630   47.3340 O   0  0  0  0  0  0  0  0  0  0  0  0
   60.2490   32.9820   47.3670 C   0  0  1  0  0  0  0  0  0  0  0  0
   59.2630   32.4220   46.3560 C   0  0  0  0  0  0  0  0  0  0  0  0
   58.2550   33.2220   45.7800 C   0  0  0  0  0  0  0  0  0  0  0  0
   57.3400   32.6760   44.8770 C   0  0  0  0  0  0  0  0  0  0  0  0
   57.4140   31.3210   44.5270 C   0  0  0  0  0  0  0  0  0  0  0  0
   56.5020   30.7640   43.6180 C   0  0  0  0  0  0  0  0  0  0  0  0
   56.5860   29.4090   43.2790 C   0  0  0  0  0  0  0  0  0  0  0  0
   57.5810   28.6050   43.8400 C   0  0  0  0  0  0  0  0  0  0  0  0
   58.4960   29.1470   44.7460 C   0  0  0  0  0  0  0  0  0  0  0  0
   58.4190   30.5050   45.0990 C   0  0  0  0  0  0  0  0  0  0  0  0
   59.3230   31.0570   46.0170 C   0  0  0  0  0  0  0  0  0  0  0  0
   59.6670   32.9000   48.7510 C   0  0  0  0  0  0  0  0  0  0  0  0
   58.5880   32.1050   49.1330 C   0  0  0  0  0  0  0  0  0  0  0  0
   58.4180   32.3860   50.4680 C   0  0  0  0  0  0  0  0  0  0  0  0
   57.4890   31.9100   51.3910 C   0  0  0  0  0  0  0  0  0  0  0  0
   57.5680   32.3990   52.7080 C   0  0  0  0  0  0  0  0  0  0  0  0
   58.5620   33.3380   53.0660 C   0  0  0  0  0  0  0  0  0  0  0  0
   59.4830   33.8000   52.1080 C   0  0  0  0  0  0  0  0  0  0  0  0
   59.3780   33.3010   50.8130 C   0  0  0  0  0  0  0  0  0  0  0  0
   60.1200   33.6000   49.7760 O   0  0  0  0  0  0  0  0  0  0  0  0
   63.3251   34.8118   47.5897 H   0  0  0  0  0  0  0  0  0  0  0  0
   64.6864   34.0012   46.7432 H   0  0  0  0  0  0  0  0  0  0  0  0
   63.0544   33.2508   46.7432 H   0  0  0  0  0  0  0  0  0  0  0  0
   64.6079   32.1322   48.3513 H   0  0  0  0  0  0  0  0  0  0  0  0
   64.7883   33.7204   49.2175 H   0  0  0  0  0  0  0  0  0  0  0  0
   62.1300   33.3900   49.1120 H   0  0  0  0  0  0  0  0  0  0  0  0
   62.3153   32.7898   51.4745 H   0  0  0  0  0  0  0  0  0  0  0  0
   64.0919   32.5461   51.1767 H   0  0  0  0  0  0  0  0  0  0  0  0
   63.4810   34.7909   52.1908 H   0  0  0  0  0  0  0  0  0  0  0  0
   64.4063   34.8703   50.6532 H   0  0  0  0  0  0  0  0  0  0  0  0
   62.6364   35.1771   50.6532 H   0  0  0  0  0  0  0  0  0  0  0  0
   63.4072   30.7723   49.0021 H   0  0  0  0  0  0  0  0  0  0  0  0
   62.1147   31.0148   50.2558 H   0  0  0  0  0  0  0  0  0  0  0  0
   61.6159   30.2352   47.6758 H   0  0  0  0  0  0  0  0  0  0  0  0
   60.4469   31.1167   48.7105 H   0  0  0  0  0  0  0  0  0  0  0  0
   60.4460   34.0321   47.1054 H   0  0  0  0  0  0  0  0  0  0  0  0
   58.1885   34.2876   46.0446 H   0  0  0  0  0  0  0  0  0  0  0  0
   56.5575   33.3126   44.4384 H   0  0  0  0  0  0  0  0  0  0  0  0
   55.7190   31.3940   43.1707 H   0  0  0  0  0  0  0  0  0  0  0  0
   55.8664   28.9757   42.5687 H   0  0  0  0  0  0  0  0  0  0  0  0
   57.6444   27.5412   43.5674 H   0  0  0  0  0  0  0  0  0  0  0  0
   59.2782   28.5095   45.1839 H   0  0  0  0  0  0  0  0  0  0  0  0
   60.0886   30.4158   46.4781 H   0  0  0  0  0  0  0  0  0  0  0  0
   58.0055   31.4112   48.5090 H   0  0  0  0  0  0  0  0  0  0  0  0
   56.7211   31.1779   51.1004 H   0  0  0  0  0  0  0  0  0  0  0  0
   56.8509   32.0479   53.4646 H   0  0  0  0  0  0  0  0  0  0  0  0
   58.6158   33.7098   54.0999 H   0  0  0  0  0  0  0  0  0  0  0  0
   60.2604   34.5315   52.3737 H   0  0  0  0  0  0  0  0  0  0  0  0
  1  2  1  0
  2  3  1  0
  3  4  1  0
  4  5  1  0
  3  6  1  0
  6  7  1  0
  7  8  1  0
  8  9  1  0
  9 10  1  0
 10 11  2  0
 11 12  1  0
 12 13  2  0
 13 14  1  0
 14 15  2  0
 15 16  1  0
 16 17  2  0
 17 18  1  0
 18 19  2  0
  9 20  1  0
 20 21  2  0
 21 22  1  0
 22 23  2  0
 23 24  1  0
 24 25  2  0
 25 26  1  0
 26 27  2  0
 27 28  1  0
 19 10  1  0
 28 20  1  0
 18 13  1  0
 27 22  1  0
  1 29  1  0
  1 30  1  0
  1 31  1  0
  2 32  1  0
  2 33  1  0
  3 34  1  0
  4 35  1  0
  4 36  1  0
  5 37  1  0
  5 38  1  0
  5 39  1  0
  6 40  1  0
  6 41  1  0
  7 42  1  0
  7 43  1  0
  9 44  1  6
 11 45  1  0
 12 46  1  0
 14 47  1  0
 15 48  1  0
 16 49  1  0
 17 50  1  0
 19 51  1  0
 21 52  1  0
 23 53  1  0
 24 54  1  0
 25 55  1  0
 26 56  1  0
M  CHG  1   3   1
M  END
>  <UniqueID>  (11) 
11

>  <SMILES>  (11) 
CC[NH+](CC)CCO[C@@H](c1ccc2ccccc2c1)c1cc2ccccc2o1

>  <Energy>  (11) 
100.0419394548557

>  <Genealogy>  (11) 
CC[NH+](CC)CCOC(c1ccc2ccccc2c1)c1cc2ccccc2o1 (protonated)
CC[NH+](CC)CCO[C@@H](c1ccc2ccccc2c1)c1cc2ccccc2o1 (chirality)
CC[NH+](CC)CCO[C@@H](c1ccc2ccccc2c1)c1cc2ccccc2o1 (3D coordinates assigned)
CC[NH+](CC)CCO[C@@H](c1ccc2ccccc2c1)c1cc2ccccc2o1 (optimized conformer: 100.0419394548557 kcal/mol)

>  <smiles>  (11) 
CCN(CC)CCOC(c1ccc2ccccc2c1)c1cc2ccccc2o1

>  <score_type>  (11) 
oracle

>  <origin>  (11) 
adg

>  <m_score__min__energy>  (11) 
-7.0099999999999998

>  <m_primary>  (11) 
energy

$$$$
11:0
     RDKit          3D

 44 47  0  0  0  0  0  0  0  0999 V2000
   57.4400   27.7260   46.1190 C   0  0  0  0  0  0  0  0  0  0  0  0
   58.2080   28.9820   46.1080 N   0  0  0  0  0  0  0  0  0  0  0  0
   57.7030   30.0880   45.4620 C   0  0  0  0  0  0  0  0  0  0  0  0
   56.5970   30.0290   44.8600 O   0  0  0  0  0  0  0  0  0  0  0  0
   58.3800   31.2650   45.4610 N   0  0  0  0  0  0  0  0  0  0  0  0
   59.5650   31.4160   46.1030 C   0  0  0  0  0  0  0  0  0  0  0  0
   60.2450   32.6120   46.1070 N   0  0  0  0  0  0  0  0  0  0  0  0
   59.6050   33.7720   45.4330 C   0  0  0  0  0  0  0  0  0  0  0  0
   58.6320   34.5210   46.3650 C   0  0  0  0  0  0  0  0  0  0  0  0
   59.2370   34.9630   47.7100 C   0  0  0  0  0  0  0  0  0  0  0  0
   59.3410   33.8650   48.7470 C   0  0  0  0  0  0  0  0  0  0  0  0
   60.3720   33.9080   49.7020 C   0  0  0  0  0  0  0  0  0  0  0  0
   60.5070   32.8870   50.6470 C   0  0  0  0  0  0  0  0  0  0  0  0
   59.6370   31.7960   50.6280 C   0  0  0  0  0  0  0  0  0  0  0  0
   58.6380   31.7180   49.6550 C   0  0  0  0  0  0  0  0  0  0  0  0
   58.4960   32.7380   48.7090 C   0  0  0  0  0  0  0  0  0  0  0  0
   61.4740   32.6850   46.7550 C   0  0  0  0  0  0  0  0  0  0  0  0
   62.2800   33.8520   46.7570 C   0  0  0  0  0  0  0  0  0  0  0  0
   63.5000   33.8870   47.4390 C   0  0  0  0  0  0  0  0  0  0  0  0
   63.9560   32.7670   48.1250 C   0  0  0  0  0  0  0  0  0  0  0  0
   63.2020   31.5990   48.1280 C   0  0  0  0  0  0  0  0  0  0  0  0
   61.9780   31.5420   47.4500 C   0  0  0  0  0  0  0  0  0  0  0  0
   61.2870   30.3770   47.4620 N   0  0  0  0  0  0  0  0  0  0  0  0
   60.1110   30.2590   46.8150 C   0  0  0  0  0  0  0  0  0  0  0  0
   59.3910   29.0660   46.8020 C   0  0  0  0  0  0  0  0  0  0  0  0
   59.8380   28.0680   47.4340 O   0  0  0  0  0  0  0  0  0  0  0  0
   57.2528   27.4198   47.1588 H   0  0  0  0  0  0  0  0  0  0  0  0
   56.4805   27.8784   45.6032 H   0  0  0  0  0  0  0  0  0  0  0  0
   58.0130   26.9413   45.6032 H   0  0  0  0  0  0  0  0  0  0  0  0
   60.3902   34.4694   45.1059 H   0  0  0  0  0  0  0  0  0  0  0  0
   59.0280   33.3903   44.5778 H   0  0  0  0  0  0  0  0  0  0  0  0
   58.2765   35.4189   45.8382 H   0  0  0  0  0  0  0  0  0  0  0  0
   57.8266   33.8116   46.6061 H   0  0  0  0  0  0  0  0  0  0  0  0
   60.2483   35.3518   47.5198 H   0  0  0  0  0  0  0  0  0  0  0  0
   58.5542   35.7191   48.1248 H   0  0  0  0  0  0  0  0  0  0  0  0
   61.0778   34.7517   49.7055 H   0  0  0  0  0  0  0  0  0  0  0  0
   61.3003   32.9435   51.4069 H   0  0  0  0  0  0  0  0  0  0  0  0
   59.7379   30.9982   51.3786 H   0  0  0  0  0  0  0  0  0  0  0  0
   57.9608   30.8515   49.6328 H   0  0  0  0  0  0  0  0  0  0  0  0
   57.7214   32.6602   47.9319 H   0  0  0  0  0  0  0  0  0  0  0  0
   61.9394   34.7450   46.2125 H   0  0  0  0  0  0  0  0  0  0  0  0
   64.1031   34.8069   47.4328 H   0  0  0  0  0  0  0  0  0  0  0  0
   64.9134   32.8050   48.6654 H   0  0  0  0  0  0  0  0  0  0  0  0
   63.5695   30.7132   48.6668 H   0  0  0  0  0  0  0  0  0  0  0  0
  1  2  1  0
  2  3  1  0
  3  4  2  0
  3  5  1  0
  5  6  2  0
  6  7  1  0
  7  8  1  0
  8  9  1  0
  9 10  1  0
 10 11  1  0
 11 12  2  0
 12 13  1  0
 13 14  2  0
 14 15  1  0
 15 16  2  0
  7 17  1  0
 17 18  2  0
 18 19  1  0
 19 20  2  0
 20 21  1  0
 21 22  2  0
 22 23  1  0
 23 24  2  0
 24 25  1  0
 25 26  2  0
 25  2  1  0
 24  6  1  0
 16 11  1  0
 22 17  1  0
  1 27  1  0
  1 28  1  0
  1 29  1  0
  8 30  1  0
  8 31  1  0
  9 32  1  0
  9 33  1  0
 10 34  1  0
 10 35  1  0
 12 36  1  0
 13 37  1  0
 14 38  1  0
 15 39  1  0
 16 40  1  0
 18 41  1  0
 19 42  1  0
 20 43  1  0
 21 44  1  0
M  END
>  <UniqueID>  (12) 
12

>  <SMILES>  (12) 
Cn1c(=O)nc2n(CCCc3ccccc3)c3ccccc3nc-2c1=O

>  <Energy>  (12) 
63.77057611750842

>  <Genealogy>  (12) 
Cn1c(=O)nc2n(CCCc3ccccc3)c3ccccc3nc-2c1=O (3D coordinates assigned)
Cn1c(=O)nc2n(CCCc3ccccc3)c3ccccc3nc-2c1=O (optimized conformer: 63.77057611750842 kcal/mol)

>  <smiles>  (12) 
Cn1c(=O)nc2n(CCCc3ccccc3)c3ccccc3nc-2c1=O

>  <score_type>  (12) 
oracle

>  <origin>  (12) 
adg

>  <m_score__min__energy>  (12) 
-7.4900000000000002

>  <m_primary>  (12) 
energy

$$$$
12:0
     RDKit          3D

 41 44  0  0  0  0  0  0  0  0999 V2000
   59.6430   35.3210   47.0380 C   0  0  0  0  0  0  0  0  0  0  0  0
   59.0890   34.1680   46.3120 N   0  0  0  0  0  0  0  0  0  0  0  0
   57.7700   33.8010   46.8660 C   0  0  0  0  0  0  0  0  0  0  0  0
   57.0220   32.7710   45.9880 C   0  0  0  0  0  0  0  0  0  0  0  0
   57.8700   32.2600   44.9060 N   0  0  0  0  0  0  0  0  0  0  0  0
   57.5630   30.9800   44.3450 C   0  0  0  0  0  0  0  0  0  0  0  0
   56.8300   30.9150   43.1960 N   0  0  0  0  0  0  0  0  0  0  0  0
   56.5460   29.7260   42.5900 C   0  0  0  0  0  0  0  0  0  0  0  0
   57.0040   28.5580   43.1190 N   0  0  0  0  0  0  0  0  0  0  0  0
   57.7330   28.5970   44.2610 C   0  0  0  0  0  0  0  0  0  0  0  0
   58.3990   27.2820   45.0650 S   0  0  0  0  0  0  0  0  0  0  0  0
   59.0950   28.2230   46.2820 C   0  0  0  0  0  0  0  0  0  0  0  0
   58.7780   29.5730   46.0950 C   0  0  0  0  0  0  0  0  0  0  0  0
   58.0280   29.7820   44.9160 C   0  0  0  0  0  0  0  0  0  0  0  0
   59.2710   30.6360   47.0460 C   0  0  0  0  0  0  0  0  0  0  0  0
   59.7490   30.0420   48.3820 C   0  0  0  0  0  0  0  0  0  0  0  0
   60.6290   28.8020   48.1640 C   0  0  0  0  0  0  0  0  0  0  0  0
   59.8390   27.6860   47.4660 C   0  0  0  0  0  0  0  0  0  0  0  0
   58.6870   33.1800   44.1080 C   0  0  0  0  0  0  0  0  0  0  0  0
   58.9750   34.4730   44.8760 C   0  0  0  0  0  0  0  0  0  0  0  0
   59.5594   35.1470   48.1209 H   0  0  0  0  0  0  0  0  0  0  0  0
   60.7015   35.4502   46.7680 H   0  0  0  0  0  0  0  0  0  0  0  0
   59.0824   36.2281   46.7680 H   0  0  0  0  0  0  0  0  0  0  0  0
   57.9160   33.3702   47.8675 H   0  0  0  0  0  0  0  0  0  0  0  0
   57.1581   34.7144   46.9026 H   0  0  0  0  0  0  0  0  0  0  0  0
   56.7045   31.9284   46.6198 H   0  0  0  0  0  0  0  0  0  0  0  0
   56.1550   33.2737   45.5346 H   0  0  0  0  0  0  0  0  0  0  0  0
   55.9440   29.7110   41.6695 H   0  0  0  0  0  0  0  0  0  0  0  0
   56.7950   27.6490   42.6520 H   0  0  0  0  0  0  0  0  0  0  0  0
   60.1092   31.1711   46.5759 H   0  0  0  0  0  0  0  0  0  0  0  0
   58.4322   31.3151   47.2586 H   0  0  0  0  0  0  0  0  0  0  0  0
   60.3308   30.8025   48.9235 H   0  0  0  0  0  0  0  0  0  0  0  0
   58.8643   29.7398   48.9615 H   0  0  0  0  0  0  0  0  0  0  0  0
   61.4915   29.0777   47.5394 H   0  0  0  0  0  0  0  0  0  0  0  0
   60.9667   28.4338   49.1440 H   0  0  0  0  0  0  0  0  0  0  0  0
   60.5374   26.9056   47.1297 H   0  0  0  0  0  0  0  0  0  0  0  0
   59.1132   27.2680   48.1792 H   0  0  0  0  0  0  0  0  0  0  0  0
   59.6402   32.6902   43.8598 H   0  0  0  0  0  0  0  0  0  0  0  0
   58.1319   33.4346   43.1931 H   0  0  0  0  0  0  0  0  0  0  0  0
   59.9176   34.9119   44.5171 H   0  0  0  0  0  0  0  0  0  0  0  0
   58.1559   35.1892   44.7142 H   0  0  0  0  0  0  0  0  0  0  0  0
  1  2  1  0
  2  3  1  0
  3  4  1  0
  4  5  1  0
  5  6  1  0
  6  7  2  0
  7  8  1  0
  8  9  2  0
  9 10  1  0
 10 11  1  0
 11 12  1  0
 12 13  2  0
 13 14  1  0
 13 15  1  0
 15 16  1  0
 16 17  1  0
 17 18  1  0
  5 19  1  0
 19 20  1  0
 20  2  1  0
 14  6  1  0
 14 10  2  0
 18 12  1  0
  1 21  1  0
  1 22  1  0
  1 23  1  0
  3 24  1  0
  3 25  1  0
  4 26  1  0
  4 27  1  0
  8 28  1  0
  9 29  1  0
 15 30  1  0
 15 31  1  0
 16 32  1  0
 16 33  1  0
 17 34  1  0
 17 35  1  0
 18 36  1  0
 18 37  1  0
 19 38  1  0
 19 39  1  0
 20 40  1  0
 20 41  1  0
M  CHG  1   9   1
M  END
>  <UniqueID>  (13) 
13

>  <SMILES>  (13) 
CN1CCN(c2nc[nH+]c3sc4c(c23)CCCC4)CC1

>  <Energy>  (13) 
84.80843462031729

>  <Genealogy>  (13) 
CN1CCN(c2nc[nH+]c3sc4c(c23)CCCC4)CC1 (protonated)
CN1CCN(c2nc[nH+]c3sc4c(c23)CCCC4)CC1 (3D coordinates assigned)
CN1CCN(c2nc[nH+]c3sc4c(c23)CCCC4)CC1 (nonaromatic ring conformer: 84.80843462031729 kcal/mol)

>  <smiles>  (13) 
CN1CCN(c2ncnc3sc4c(c23)CCCC4)CC1

>  <score_type>  (13) 
oracle

>  <origin>  (13) 
adg

>  <m_score__min__energy>  (13) 
-5.96

>  <m_primary>  (13) 
energy

$$$$
13:0
     RDKit          3D

 51 55  0  0  0  0  0  0  0  0999 V2000
   55.2435   23.8136   43.4163 H   0  0  0  0  0  0  0  0  0  0  0  0
   56.1810   23.4840   43.8880 C   0  0  0  0  0  0  0  0  0  0  0  0
   56.7110   24.2010   44.9640 C   0  0  0  0  0  0  0  0  0  0  0  0
   56.1817   25.0865   45.3457 H   0  0  0  0  0  0  0  0  0  0  0  0
   57.9200   23.7950   45.5620 C   0  0  0  0  0  0  0  0  0  0  0  0
   58.4840   24.4950   46.6830 N   0  0  0  0  0  0  0  0  0  0  0  0
   58.5310   25.7870   46.8240 C   0  0  0  0  0  0  0  0  0  0  0  0
   59.3490   26.3910   47.7230 N   0  0  0  0  0  0  0  0  0  0  0  0
   59.0800   27.6880   47.4790 C   0  0  0  0  0  0  0  0  0  0  0  0
   59.6380   28.7860   48.1190 C   0  0  0  0  0  0  0  0  0  0  0  0
   60.3849   28.6671   48.9177 H   0  0  0  0  0  0  0  0  0  0  0  0
   59.2050   30.0600   47.7000 C   0  0  0  0  0  0  0  0  0  0  0  0
   59.7630   31.2800   48.3230 C   0  0  0  0  0  0  0  0  0  0  0  0
   59.2020   31.7450   49.3510 O   0  0  0  0  0  0  0  0  0  0  0  0
   60.9300   31.9410   47.7930 N   0  0  0  0  0  0  0  0  0  0  0  0
   61.9910   31.1920   47.1110 C   0  0  0  0  0  0  0  0  0  0  0  0
   61.9639   30.1411   47.4348 H   0  0  0  0  0  0  0  0  0  0  0  0
   61.8358   31.2452   46.0233 H   0  0  0  0  0  0  0  0  0  0  0  0
   63.3520   31.7990   47.4620 C   0  0  0  0  0  0  0  0  0  0  0  0
   63.5579   31.6307   48.5294 H   0  0  0  0  0  0  0  0  0  0  0  0
   64.1239   31.3175   46.8437 H   0  0  0  0  0  0  0  0  0  0  0  0
   63.3620   33.1880   47.2010 O   0  0  0  0  0  0  0  0  0  0  0  0
   62.4510   33.8460   48.0650 C   0  0  0  0  0  0  0  0  0  0  0  0
   62.7031   33.6020   49.1076 H   0  0  0  0  0  0  0  0  0  0  0  0
   62.5262   34.9302   47.8953 H   0  0  0  0  0  0  0  0  0  0  0  0
   61.0100   33.4040   47.7800 C   0  0  0  0  0  0  0  0  0  0  0  0
   60.3425   33.8135   48.5525 H   0  0  0  0  0  0  0  0  0  0  0  0
   60.7036   33.7766   46.7914 H   0  0  0  0  0  0  0  0  0  0  0  0
   58.2960   30.1710   46.6750 N   0  0  0  0  0  0  0  0  0  0  0  0
   57.9850   31.1200   46.3650 H   0  0  0  0  0  0  0  0  0  0  0  0
   57.7780   29.0630   46.0620 C   0  0  0  0  0  0  0  0  0  0  0  0
   56.7580   29.1970   44.9560 C   0  0  1  0  0  0  0  0  0  0  0  0
   55.8870   28.5862   45.2356 H   0  0  0  0  0  0  0  0  0  0  0  0
   56.3700   30.5460   44.8100 O   0  0  0  0  0  0  0  0  0  0  0  0
   56.3870   30.8520   43.4330 C   0  0  0  0  0  0  0  0  0  0  0  0
   57.1865   31.5795   43.2292 H   0  0  0  0  0  0  0  0  0  0  0  0
   55.4169   31.2808   43.1413 H   0  0  0  0  0  0  0  0  0  0  0  0
   56.6400   29.5860   42.6350 C   0  0  0  0  0  0  0  0  0  0  0  0
   57.3035   29.7838   41.7802 H   0  0  0  0  0  0  0  0  0  0  0  0
   55.7241   29.1565   42.2031 H   0  0  0  0  0  0  0  0  0  0  0  0
   57.3000   28.6850   43.6300 C   0  0  0  0  0  0  0  0  0  0  0  0
   58.3950   28.7799   43.5859 H   0  0  0  0  0  0  0  0  0  0  0  0
   57.0941   27.6184   43.4569 H   0  0  0  0  0  0  0  0  0  0  0  0
   58.1850   27.8440   46.5040 N   0  0  0  0  0  0  0  0  0  0  0  0
   57.8210   26.6560   46.0650 N   0  0  0  0  0  0  0  0  0  0  0  0
   58.5560   22.6360   45.0990 C   0  0  0  0  0  0  0  0  0  0  0  0
   59.4780   22.2860   45.5862 H   0  0  0  0  0  0  0  0  0  0  0  0
   58.0250   21.9220   44.0210 C   0  0  0  0  0  0  0  0  0  0  0  0
   58.5393   21.0225   43.6517 H   0  0  0  0  0  0  0  0  0  0  0  0
   56.8410   22.3490   43.4110 C   0  0  0  0  0  0  0  0  0  0  0  0
   56.3260   21.6550   42.3680 F   0  0  0  0  0  0  0  0  0  0  0  0
  1  2  1  0
  2  3  2  0
  3  4  1  0
  3  5  1  0
  5  6  1  0
  6  7  2  0
  7  8  1  0
  8  9  2  0
  9 10  1  0
 10 11  1  0
 10 12  2  0
 12 13  1  0
 13 14  2  0
 13 15  1  0
 15 16  1  0
 16 17  1  0
 16 18  1  0
 16 19  1  0
 19 20  1  0
 19 21  1  0
 19 22  1  0
 22 23  1  0
 23 24  1  0
 23 25  1  0
 23 26  1  0
 26 27  1  0
 26 28  1  0
 12 29  1  0
 29 30  1  0
 29 31  2  0
 31 32  1  0
 32 33  1  1
 32 34  1  0
 34 35  1  0
 35 36  1  0
 35 37  1  0
 35 38  1  0
 38 39  1  0
 38 40  1  0
 38 41  1  0
 41 42  1  0
 41 43  1  0
 31 44  1  0
 44 45  1  0
  5 46  2  0
 46 47  1  0
 46 48  1  0
 48 49  1  0
 48 50  2  0
 50 51  1  0
 50  2  1  0
 45  7  1  0
 44  9  1  0
 26 15  1  0
 41 32  1  0
M  CHG  2  29   1  45  -1
M  END
>  <UniqueID>  (14) 
14

>  <SMILES>  (14) 
O=C(c1cc2n/c(=N/c3ccc(F)cc3)[n-]n2c([C@@H]2CCCO2)[nH+]1)N1CCOCC1

>  <Energy>  (14) 
105.00891755687721

>  <Genealogy>  (14) 
O=C(c1cc2nc(=Nc3ccc(F)cc3)[n-]n2c(C2CCCO2)[nH+]1)N1CCOCC1 (protonated)
O=C(c1cc2nc(=Nc3ccc(F)cc3)[n-]n2c([C@@H]2CCCO2)[nH+]1)N1CCOCC1 (chirality)
O=C(c1cc2n/c(=N/c3ccc(F)cc3)[n-]n2c([C@@H]2CCCO2)[nH+]1)N1CCOCC1 (cis-trans isomerization)
O=C(c1cc2n/c(=N/c3ccc(F)cc3)[n-]n2c([C@@H]2CCCO2)[nH+]1)N1CCOCC1 (3D coordinates assigned)
O=C(c1cc2n/c(=N/c3ccc(F)cc3)[n-]n2c([C@@H]2CCCO2)[nH+]1)N1CCOCC1 (nonaromatic ring conformer: 105.00891755687721 kcal/mol)

>  <smiles>  (14) 
O=C(c1cc2nc(=Nc3ccc(F)cc3)[nH]n2c(C2CCCO2)n1)N1CCOCC1

>  <score_type>  (14) 
oracle

>  <origin>  (14) 
adg

>  <m_score__min__energy>  (14) 
-8.7899999999999991

>  <m_primary>  (14) 
energy

$$$$
14:0
     RDKit          3D

 49 50  0  0  0  0  0  0  0  0999 V2000
   65.3360   32.6630   49.8730 C   0  0  0  0  0  0  0  0  0  0  0  0
   63.8030   32.7430   49.9660 C   0  0  0  0  0  0  0  0  0  0  0  0
   63.1190   32.9060   48.6580 N   0  0  0  0  0  0  0  0  0  0  0  0
   63.7090   33.9760   47.8270 C   0  0  0  0  0  0  0  0  0  0  0  0
   63.2560   33.8410   46.3760 C   0  0  0  0  0  0  0  0  0  0  0  0
   62.9550   31.6270   47.9260 C   0  0  0  0  0  0  0  0  0  0  0  0
   61.4790   31.3630   47.6200 C   0  0  0  0  0  0  0  0  0  0  0  0
   60.6180   32.0130   48.6050 N   0  0  0  0  0  0  0  0  0  0  0  0
   59.2510   32.3910   48.3920 C   0  0  0  0  0  0  0  0  0  0  0  0
   58.4500   32.3520   49.3620 O   0  0  0  0  0  0  0  0  0  0  0  0
   58.7580   32.8220   47.0690 C   0  0  0  0  0  0  0  0  0  0  0  0
   57.8100   32.0200   46.4160 C   0  0  0  0  0  0  0  0  0  0  0  0
   57.3500   32.3470   45.1370 C   0  0  0  0  0  0  0  0  0  0  0  0
   56.4040   31.4750   44.5040 N   0  0  0  0  0  0  0  0  0  0  0  0
   56.6200   29.7740   44.2570 S   0  0  0  0  0  0  0  0  0  0  0  0
   56.6690   29.4870   42.7840 O   0  0  0  0  0  0  0  0  0  0  0  0
   55.4610   29.0290   44.8580 O   0  0  0  0  0  0  0  0  0  0  0  0
   58.1280   29.2550   44.9880 C   0  0  0  0  0  0  0  0  0  0  0  0
   59.4000   29.5070   44.4990 C   0  0  0  0  0  0  0  0  0  0  0  0
   60.4080   28.9370   45.2860 C   0  0  0  0  0  0  0  0  0  0  0  0
   59.9290   28.2380   46.3870 C   0  0  0  0  0  0  0  0  0  0  0  0
   58.2470   28.3260   46.3820 S   0  0  0  0  0  0  0  0  0  0  0  0
   57.8360   33.5050   44.5080 C   0  0  0  0  0  0  0  0  0  0  0  0
   58.7450   34.3340   45.1660 C   0  0  0  0  0  0  0  0  0  0  0  0
   59.1960   34.0220   46.4580 C   0  0  0  0  0  0  0  0  0  0  0  0
   60.1460   34.9720   47.1400 C   0  0  0  0  0  0  0  0  0  0  0  0
   65.7641   32.6407   50.8860 H   0  0  0  0  0  0  0  0  0  0  0  0
   65.6234   31.7486   49.3332 H   0  0  0  0  0  0  0  0  0  0  0  0
   65.7170   33.5425   49.3332 H   0  0  0  0  0  0  0  0  0  0  0  0
   63.4374   31.8165   50.4328 H   0  0  0  0  0  0  0  0  0  0  0  0
   63.5698   33.6407   50.5574 H   0  0  0  0  0  0  0  0  0  0  0  0
   63.3890   34.9538   48.2161 H   0  0  0  0  0  0  0  0  0  0  0  0
   64.8050   33.8912   47.8656 H   0  0  0  0  0  0  0  0  0  0  0  0
   62.2021   33.5269   46.3486 H   0  0  0  0  0  0  0  0  0  0  0  0
   63.3631   34.8101   45.8667 H   0  0  0  0  0  0  0  0  0  0  0  0
   63.8762   33.0886   45.8667 H   0  0  0  0  0  0  0  0  0  0  0  0
   63.5160   31.6774   46.9812 H   0  0  0  0  0  0  0  0  0  0  0  0
   63.3372   30.8090   48.5543 H   0  0  0  0  0  0  0  0  0  0  0  0
   61.2427   31.7558   46.6201 H   0  0  0  0  0  0  0  0  0  0  0  0
   61.3006   30.2782   47.6587 H   0  0  0  0  0  0  0  0  0  0  0  0
   57.4230   31.1208   46.9177 H   0  0  0  0  0  0  0  0  0  0  0  0
   59.5968   30.0928   43.5890 H   0  0  0  0  0  0  0  0  0  0  0  0
   61.4790   29.0336   45.0543 H   0  0  0  0  0  0  0  0  0  0  0  0
   60.5438   27.7158   47.1349 H   0  0  0  0  0  0  0  0  0  0  0  0
   57.4985   33.7593   43.4924 H   0  0  0  0  0  0  0  0  0  0  0  0
   59.1124   35.2426   44.6665 H   0  0  0  0  0  0  0  0  0  0  0  0
   60.0452   34.8712   48.2307 H   0  0  0  0  0  0  0  0  0  0  0  0
   61.1782   34.7341   46.8436 H   0  0  0  0  0  0  0  0  0  0  0  0
   59.9081   36.0042   46.8436 H   0  0  0  0  0  0  0  0  0  0  0  0
  1  2  1  0
  2  3  1  0
  3  4  1  0
  4  5  1  0
  3  6  1  0
  6  7  1  0
  7  8  1  0
  8  9  1  0
  9 10  2  0
  9 11  1  0
 11 12  2  0
 12 13  1  0
 13 14  1  0
 14 15  1  0
 15 16  2  0
 15 17  2  0
 15 18  1  0
 18 19  2  0
 19 20  1  0
 20 21  2  0
 21 22  1  0
 13 23  2  0
 23 24  1  0
 24 25  2  0
 25 26  1  0
 25 11  1  0
 22 18  1  0
  1 27  1  0
  1 28  1  0
  1 29  1  0
  2 30  1  0
  2 31  1  0
  4 32  1  0
  4 33  1  0
  5 34  1  0
  5 35  1  0
  5 36  1  0
  6 37  1  0
  6 38  1  0
  7 39  1  0
  7 40  1  0
 12 41  1  0
 19 42  1  0
 20 43  1  0
 21 44  1  0
 23 45  1  0
 24 46  1  0
 26 47  1  0
 26 48  1  0
 26 49  1  0
M  CHG  2   8  -1  14  -1
M  END
>  <UniqueID>  (15) 
15

>  <SMILES>  (15) 
CCN(CC)CC[N-]C(=O)c1cc([N-]S(=O)(=O)c2cccs2)ccc1C

>  <Energy>  (15) 
81.03407722456053

>  <Genealogy>  (15) 
CCN(CC)CC[N-]C(=O)c1cc([N-]S(=O)(=O)c2cccs2)ccc1C (protonated)
CCN(CC)CC[N-]C(=O)c1cc([N-]S(=O)(=O)c2cccs2)ccc1C (3D coordinates assigned)
CCN(CC)CC[N-]C(=O)c1cc([N-]S(=O)(=O)c2cccs2)ccc1C (optimized conformer: 81.03407722456053 kcal/mol)

>  <smiles>  (15) 
CCN(CC)CCNC(=O)c1cc(NS(=O)(=O)c2cccs2)ccc1C

>  <score_type>  (15) 
oracle

>  <origin>  (15) 
adg

>  <m_score__min__energy>  (15) 
-11.19

>  <m_primary>  (15) 
energy

$$$$
15:0
     RDKit          3D

 41 44  0  0  0  0  0  0  0  0999 V2000
   56.2690   29.7150   42.6230 C   0  0  0  0  0  0  0  0  0  0  0  0
   55.8350   29.8460   44.0780 C   0  0  0  0  0  0  0  0  0  0  0  0
   56.9920   29.7390   44.9640 N   0  0  0  0  0  0  0  0  0  0  0  0
   57.4780   28.6420   45.6070 C   0  0  0  0  0  0  0  0  0  0  0  0
   57.0260   27.3240   45.5190 C   0  0  0  0  0  0  0  0  0  0  0  0
   57.6700   26.3490   46.3060 C   0  0  0  0  0  0  0  0  0  0  0  0
   58.7370   26.7030   47.1630 C   0  0  0  0  0  0  0  0  0  0  0  0
   59.1750   28.0360   47.2500 C   0  0  0  0  0  0  0  0  0  0  0  0
   58.5280   28.9780   46.4560 C   0  0  0  0  0  0  0  0  0  0  0  0
   58.6800   30.3380   46.3320 C   0  0  0  0  0  0  0  0  0  0  0  0
   59.4470   31.3470   46.8970 C   0  0  0  0  0  0  0  0  0  0  0  0
   59.0560   32.6050   46.3810 C   0  0  0  0  0  0  0  0  0  0  0  0
   59.6060   33.9440   46.7310 C   0  0  0  0  0  0  0  0  0  0  0  0
   58.9170   34.9550   46.4210 O   0  0  0  0  0  0  0  0  0  0  0  0
   60.8820   34.1490   47.3900 N   0  0  0  0  0  0  0  0  0  0  0  0
   60.8190   33.8270   48.8360 C   0  0  0  0  0  0  0  0  0  0  0  0
   62.2110   33.5030   49.4030 C   0  0  0  0  0  0  0  0  0  0  0  0
   63.1990   34.2330   48.7080 O   0  0  0  0  0  0  0  0  0  0  0  0
   63.3390   33.7320   47.3890 C   0  0  0  0  0  0  0  0  0  0  0  0
   61.9860   33.4630   46.6860 C   0  0  0  0  0  0  0  0  0  0  0  0
   57.7620   32.4030   45.2650 S   0  0  0  0  0  0  0  0  0  0  0  0
   57.7530   30.7420   45.4470 C   0  0  0  0  0  0  0  0  0  0  0  0
   57.3213   29.3974   42.5814 H   0  0  0  0  0  0  0  0  0  0  0  0
   55.6399   28.9667   42.1187 H   0  0  0  0  0  0  0  0  0  0  0  0
   56.1590   30.6864   42.1187 H   0  0  0  0  0  0  0  0  0  0  0  0
   55.3535   30.8238   44.2264 H   0  0  0  0  0  0  0  0  0  0  0  0
   55.1273   29.0377   44.3144 H   0  0  0  0  0  0  0  0  0  0  0  0
   56.1916   27.0548   44.8547 H   0  0  0  0  0  0  0  0  0  0  0  0
   57.3391   25.3013   46.2531 H   0  0  0  0  0  0  0  0  0  0  0  0
   59.2296   25.9275   47.7680 H   0  0  0  0  0  0  0  0  0  0  0  0
   59.9982   28.3236   47.9205 H   0  0  0  0  0  0  0  0  0  0  0  0
   60.2440   31.1912   47.6390 H   0  0  0  0  0  0  0  0  0  0  0  0
   61.0990   35.1750   47.3240 H   0  0  0  0  0  0  0  0  0  0  0  0
   60.4051   34.6909   49.3767 H   0  0  0  0  0  0  0  0  0  0  0  0
   60.1796   32.9412   48.9645 H   0  0  0  0  0  0  0  0  0  0  0  0
   62.2416   33.7728   50.4690 H   0  0  0  0  0  0  0  0  0  0  0  0
   62.4072   32.4272   49.2837 H   0  0  0  0  0  0  0  0  0  0  0  0
   63.9005   34.4677   46.7945 H   0  0  0  0  0  0  0  0  0  0  0  0
   63.8640   32.7681   47.4620 H   0  0  0  0  0  0  0  0  0  0  0  0
   62.0379   33.8320   45.6510 H   0  0  0  0  0  0  0  0  0  0  0  0
   61.7922   32.3803   46.6977 H   0  0  0  0  0  0  0  0  0  0  0  0
  1  2  1  0
  2  3  1  0
  3  4  1  0
  4  5  2  0
  5  6  1  0
  6  7  2  0
  7  8  1  0
  8  9  2  0
  9 10  1  0
 10 11  1  0
 11 12  2  0
 12 13  1  0
 13 14  2  0
 13 15  1  0
 15 16  1  0
 16 17  1  0
 17 18  1  0
 18 19  1  0
 19 20  1  0
 12 21  1  0
 21 22  1  0
 22  3  1  0
  9  4  1  0
 22 10  2  0
 20 15  1  0
  1 23  1  0
  1 24  1  0
  1 25  1  0
  2 26  1  0
  2 27  1  0
  5 28  1  0
  6 29  1  0
  7 30  1  0
  8 31  1  0
 11 32  1  0
 15 33  1  0
 16 34  1  0
 16 35  1  0
 17 36  1  0
 17 37  1  0
 19 38  1  0
 19 39  1  0
 20 40  1  0
 20 41  1  0
M  CHG  1  15   1
M  END
>  <UniqueID>  (16) 
16

>  <SMILES>  (16) 
CCn1c2ccccc2c2cc(C(=O)[NH+]3CCOCC3)sc21

>  <Energy>  (16) 
137.85661879621176

>  <Genealogy>  (16) 
CCn1c2ccccc2c2cc(C(=O)[NH+]3CCOCC3)sc21 (protonated)
CCn1c2ccccc2c2cc(C(=O)[NH+]3CCOCC3)sc21 (3D coordinates assigned)
CCn1c2ccccc2c2cc(C(=O)[NH+]3CCOCC3)sc21 (nonaromatic ring conformer: 137.85661879621176 kcal/mol)

>  <smiles>  (16) 
CCn1c2ccccc2c2cc(C(=O)N3CCOCC3)sc21

>  <score_type>  (16) 
oracle

>  <origin>  (16) 
adg

>  <m_score__min__energy>  (16) 
-5.7999999999999998

>  <m_primary>  (16) 
energy

$$$$
16:0
     RDKit          3D

 41 43  0  0  0  0  0  0  0  0999 V2000
   57.1780   30.0710   43.6660 C   0  0  0  0  0  0  0  0  0  0  0  0
   56.7120   31.1600   44.4560 O   0  0  0  0  0  0  0  0  0  0  0  0
   57.5080   31.8850   45.3560 C   0  0  0  0  0  0  0  0  0  0  0  0
   57.7260   33.2360   45.1030 C   0  0  0  0  0  0  0  0  0  0  0  0
   58.5230   33.9990   45.9530 C   0  0  0  0  0  0  0  0  0  0  0  0
   59.1660   33.4250   47.0750 C   0  0  0  0  0  0  0  0  0  0  0  0
   58.8720   32.0630   47.3810 C   0  0  0  0  0  0  0  0  0  0  0  0
   58.0760   31.3050   46.5000 C   0  0  0  0  0  0  0  0  0  0  0  0
   59.3300   31.4020   48.6580 C   0  0  0  0  0  0  0  0  0  0  0  0
   58.9600   32.2180   49.9030 C   0  0  0  0  0  0  0  0  0  0  0  0
   59.9350   33.2860   50.1990 N   0  0  0  0  0  0  0  0  0  0  0  0
   59.9650   33.5550   51.6440 C   0  0  0  0  0  0  0  0  0  0  0  0
   59.6480   34.5150   49.4290 C   0  0  0  0  0  0  0  0  0  0  0  0
   60.0630   34.3380   47.9430 C   0  0  1  0  0  0  0  0  0  0  0  0
   61.5140   33.8740   47.9150 C   0  0  0  0  0  0  0  0  0  0  0  0
   62.0290   33.2180   46.7830 C   0  0  0  0  0  0  0  0  0  0  0  0
   63.3660   32.8070   46.7510 C   0  0  0  0  0  0  0  0  0  0  0  0
   64.2000   33.0520   47.8430 C   0  0  0  0  0  0  0  0  0  0  0  0
   63.7020   33.7100   48.9700 C   0  0  0  0  0  0  0  0  0  0  0  0
   62.3680   34.1220   49.0070 C   0  0  0  0  0  0  0  0  0  0  0  0
   57.5244   29.2615   44.3254 H   0  0  0  0  0  0  0  0  0  0  0  0
   56.3591   29.7017   43.0311 H   0  0  0  0  0  0  0  0  0  0  0  0
   58.0105   30.4084   43.0311 H   0  0  0  0  0  0  0  0  0  0  0  0
   57.2640   33.7062   44.2224 H   0  0  0  0  0  0  0  0  0  0  0  0
   58.6555   35.0715   45.7475 H   0  0  0  0  0  0  0  0  0  0  0  0
   57.8969   30.2407   46.7126 H   0  0  0  0  0  0  0  0  0  0  0  0
   58.8583   30.4110   48.7319 H   0  0  0  0  0  0  0  0  0  0  0  0
   60.4266   31.3242   48.6212 H   0  0  0  0  0  0  0  0  0  0  0  0
   57.9738   32.6777   49.7413 H   0  0  0  0  0  0  0  0  0  0  0  0
   58.9541   31.5288   50.7603 H   0  0  0  0  0  0  0  0  0  0  0  0
   59.8595   32.6090   52.1953 H   0  0  0  0  0  0  0  0  0  0  0  0
   60.9216   34.0291   51.9089 H   0  0  0  0  0  0  0  0  0  0  0  0
   59.1364   34.2282   51.9089 H   0  0  0  0  0  0  0  0  0  0  0  0
   58.5705   34.7305   49.4803 H   0  0  0  0  0  0  0  0  0  0  0  0
   60.2233   35.3470   49.8613 H   0  0  0  0  0  0  0  0  0  0  0  0
   59.9307   35.3213   47.4680 H   0  0  0  0  0  0  0  0  0  0  0  0
   61.3771   33.0269   45.9178 H   0  0  0  0  0  0  0  0  0  0  0  0
   63.7605   32.2900   45.8638 H   0  0  0  0  0  0  0  0  0  0  0  0
   65.2504   32.7266   47.8161 H   0  0  0  0  0  0  0  0  0  0  0  0
   64.3610   33.9039   49.8291 H   0  0  0  0  0  0  0  0  0  0  0  0
   61.9818   34.6437   49.8951 H   0  0  0  0  0  0  0  0  0  0  0  0
  1  2  1  0
  2  3  1  0
  3  4  2  0
  4  5  1  0
  5  6  2  0
  6  7  1  0
  7  8  2  0
  7  9  1  0
  9 10  1  0
 10 11  1  0
 11 12  1  0
 11 13  1  0
 13 14  1  0
 14 15  1  0
 15 16  2  0
 16 17  1  0
 17 18  2  0
 18 19  1  0
 19 20  2  0
  8  3  1  0
 20 15  1  0
 14  6  1  0
  1 21  1  0
  1 22  1  0
  1 23  1  0
  4 24  1  0
  5 25  1  0
  8 26  1  0
  9 27  1  0
  9 28  1  0
 10 29  1  0
 10 30  1  0
 12 31  1  0
 12 32  1  0
 12 33  1  0
 13 34  1  0
 13 35  1  0
 14 36  1  6
 16 37  1  0
 17 38  1  0
 18 39  1  0
 19 40  1  0
 20 41  1  0
M  END
>  <UniqueID>  (17) 
17

>  <SMILES>  (17) 
COc1ccc2c(c1)CCN(C)C[C@H]2c1ccccc1

>  <Energy>  (17) 
57.72074958083648

>  <Genealogy>  (17) 
COc1ccc2c(c1)CCN(C)C[C@H]2c1ccccc1 (chirality)
COc1ccc2c(c1)CCN(C)C[C@H]2c1ccccc1 (3D coordinates assigned)
COc1ccc2c(c1)CCN(C)C[C@H]2c1ccccc1 (nonaromatic ring conformer: 57.72074958083648 kcal/mol)

>  <smiles>  (17) 
COc1ccc2c(c1)CCN(C)CC2c1ccccc1

>  <score_type>  (17) 
oracle

>  <origin>  (17) 
adg

>  <m_score__min__energy>  (17) 
-5.46

>  <m_primary>  (17) 
energy

$$$$
17:0
     RDKit          3D

 31 32  0  0  0  0  0  0  0  0999 V2000
   56.6420   30.8180   43.2220 C   0  0  0  0  0  0  0  0  0  0  0  0
   56.5690   31.2260   44.5840 O   0  0  0  0  0  0  0  0  0  0  0  0
   57.5300   32.0180   45.2350 C   0  0  0  0  0  0  0  0  0  0  0  0
   57.3510   33.4060   45.3950 C   0  0  0  0  0  0  0  0  0  0  0  0
   58.3210   34.1810   46.0320 C   0  0  0  0  0  0  0  0  0  0  0  0
   59.4860   33.5830   46.5190 C   0  0  0  0  0  0  0  0  0  0  0  0
   60.4770   34.3380   47.1560 C   0  0  0  0  0  0  0  0  0  0  0  0
   61.6260   33.7040   47.6250 C   0  0  0  0  0  0  0  0  0  0  0  0
   61.7560   32.3240   47.4460 C   0  0  0  0  0  0  0  0  0  0  0  0
   62.7860   31.7300   47.8620 O   0  0  0  0  0  0  0  0  0  0  0  0
   60.7990   31.6310   46.8360 O   0  0  0  0  0  0  0  0  0  0  0  0
   59.6830   32.1940   46.3700 C   0  0  0  0  0  0  0  0  0  0  0  0
   58.7030   31.4050   45.7320 C   0  0  0  0  0  0  0  0  0  0  0  0
   58.9290   29.9180   45.5540 C   0  0  0  0  0  0  0  0  0  0  0  0
   57.8270   29.0720   46.2140 C   0  0  0  0  0  0  0  0  0  0  0  0
   56.8890   28.4010   45.2020 C   0  0  0  0  0  0  0  0  0  0  0  0
   55.6090   28.9720   45.2410 O   0  0  0  0  0  0  0  0  0  0  0  0
   56.8355   29.7363   43.1732 H   0  0  0  0  0  0  0  0  0  0  0  0
   55.6893   31.0431   42.7202 H   0  0  0  0  0  0  0  0  0  0  0  0
   57.4575   31.3594   42.7202 H   0  0  0  0  0  0  0  0  0  0  0  0
   56.4367   33.8842   45.0137 H   0  0  0  0  0  0  0  0  0  0  0  0
   58.1682   35.2638   46.1508 H   0  0  0  0  0  0  0  0  0  0  0  0
   60.3502   35.4230   47.2855 H   0  0  0  0  0  0  0  0  0  0  0  0
   62.4171   34.2799   48.1275 H   0  0  0  0  0  0  0  0  0  0  0  0
   58.9514   29.6908   44.4779 H   0  0  0  0  0  0  0  0  0  0  0  0
   59.8822   29.6640   46.0407 H   0  0  0  0  0  0  0  0  0  0  0  0
   58.3045   28.2883   46.8204 H   0  0  0  0  0  0  0  0  0  0  0  0
   57.2150   29.7527   46.8239 H   0  0  0  0  0  0  0  0  0  0  0  0
   57.3055   28.5227   44.1912 H   0  0  0  0  0  0  0  0  0  0  0  0
   56.8030   27.3352   45.4603 H   0  0  0  0  0  0  0  0  0  0  0  0
   55.6520   29.7240   45.8880 H   0  0  0  0  0  0  0  0  0  0  0  0
  1  2  1  0
  2  3  1  0
  3  4  2  0
  4  5  1  0
  5  6  2  0
  6  7  1  0
  7  8  2  0
  8  9  1  0
  9 10  2  0
  9 11  1  0
 11 12  1  0
 12 13  2  0
 13 14  1  0
 14 15  1  0
 15 16  1  0
 16 17  1  0
 13  3  1  0
 12  6  1  0
  1 18  1  0
  1 19  1  0
  1 20  1  0
  4 21  1  0
  5 22  1  0
  7 23  1  0
  8 24  1  0
 14 25  1  0
 14 26  1  0
 15 27  1  0
 15 28  1  0
 16 29  1  0
 16 30  1  0
 17 31  1  0
M  END
>  <UniqueID>  (18) 
18

>  <SMILES>  (18) 
COc1ccc2ccc(=O)oc2c1CCCO

>  <Energy>  (18) 
31.782958685253156

>  <Genealogy>  (18) 
COc1ccc2ccc(=O)oc2c1CCCO (3D coordinates assigned)
COc1ccc2ccc(=O)oc2c1CCCO (optimized conformer: 31.782958685253156 kcal/mol)

>  <smiles>  (18) 
COc1ccc2ccc(=O)oc2c1CCCO

>  <score_type>  (18) 
oracle

>  <origin>  (18) 
adg

>  <m_score__min__energy>  (18) 
-6.3899999999999997

>  <m_primary>  (18) 
energy

$$$$
18:0
     RDKit          3D

 36 38  0  0  1  0  0  0  0  0999 V2000
   63.5410   33.4580   46.7480 C   0  0  0  0  0  0  0  0  0  0  0  0
   63.4000   33.0900   48.1790 C   0  0  0  0  0  0  0  0  0  0  0  0
   62.0750   33.2400   48.7120 N   0  0  0  0  0  0  0  0  0  0  0  0
   61.0200   33.3800   47.9710 C   0  0  0  0  0  0  0  0  0  0  0  0
   60.4950   32.2670   47.4340 N   0  0  0  0  0  0  0  0  0  0  0  0
   59.4010   32.4000   46.6630 C   0  0  0  0  0  0  0  0  0  0  0  0
   58.7930   33.6040   46.3980 C   0  0  0  0  0  0  0  0  0  0  0  0
   59.3720   34.7280   46.9760 C   0  0  0  0  0  0  0  0  0  0  0  0
   60.4690   34.5850   47.7470 N   0  0  0  0  0  0  0  0  0  0  0  0
   57.6040   33.8030   45.5710 C   0  0  0  0  0  0  0  0  0  0  0  0
   57.0160   32.5810   44.9600 C   0  0  0  0  0  0  0  0  0  0  0  0
   57.7060   31.3300   45.2820 C   0  0  0  0  0  0  0  0  0  0  0  0
   57.4070   30.0360   44.8810 C   0  0  0  0  0  0  0  0  0  0  0  0
   56.2960   29.6420   44.0210 C   0  0  0  0  0  0  0  0  0  0  0  0
   56.4810   29.5410   42.6190 N   0  0  0  0  0  0  0  0  0  0  0  0
   55.1720   29.3930   44.5300 O   0  0  0  0  0  0  0  0  0  0  0  0
   58.3170   29.2060   45.4210 N   0  0  0  0  0  0  0  0  0  0  0  0
   59.1570   29.9310   46.1310 N   0  0  0  0  0  0  0  0  0  0  0  0
   60.2960   29.4040   46.8800 C   0  0  0  0  0  0  0  0  0  0  0  0
   58.8230   31.2100   46.0720 C   0  0  0  0  0  0  0  0  0  0  0  0
   63.9336   34.4826   46.6699 H   0  0  0  0  0  0  0  0  0  0  0  0
   64.2357   32.7607   46.2568 H   0  0  0  0  0  0  0  0  0  0  0  0
   62.5583   33.4034   46.2568 H   0  0  0  0  0  0  0  0  0  0  0  0
   63.6972   32.0370   48.2923 H   0  0  0  0  0  0  0  0  0  0  0  0
   64.0405   33.7849   48.7418 H   0  0  0  0  0  0  0  0  0  0  0  0
   58.9392   35.7249   46.8060 H   0  0  0  0  0  0  0  0  0  0  0  0
   60.9290   35.4150   48.1980 H   0  0  0  0  0  0  0  0  0  0  0  0
   56.8314   34.2682   46.2008 H   0  0  0  0  0  0  0  0  0  0  0  0
   57.9345   34.4245   44.7257 H   0  0  0  0  0  0  0  0  0  0  0  0
   55.9753   32.4945   45.3056 H   0  0  0  0  0  0  0  0  0  0  0  0
   57.1077   32.7092   43.8714 H   0  0  0  0  0  0  0  0  0  0  0  0
   55.7090   29.7490   41.9320 H   0  0  0  0  0  0  0  0  0  0  0  0
   57.4280   29.2440   42.2470 H   0  0  0  0  0  0  0  0  0  0  0  0
   60.0994   29.4950   47.9585 H   0  0  0  0  0  0  0  0  0  0  0  0
   60.4458   28.3451   46.6226 H   0  0  0  0  0  0  0  0  0  0  0  0
   61.2001   29.9753   46.6226 H   0  0  0  0  0  0  0  0  0  0  0  0
  1  2  1  0
  2  3  1  0
  3  4  2  0
  4  5  1  0
  5  6  2  0
  6  7  1  0
  7  8  2  0
  8  9  1  0
  7 10  1  0
 10 11  1  0
 11 12  1  0
 12 13  1  0
 13 14  1  0
 14 15  1  0
 14 16  2  0
 13 17  2  0
 17 18  1  0
 18 19  1  0
 18 20  1  0
  9  4  1  0
 20 12  2  0
 20  6  1  0
  1 21  1  0
  1 22  1  0
  1 23  1  0
  2 24  1  0
  2 25  1  0
  8 26  1  0
  9 27  1  0
 10 28  1  0
 10 29  1  0
 11 30  1  0
 11 31  1  0
 15 32  1  0
 15 33  1  0
 19 34  1  0
 19 35  1  0
 19 36  1  0
M  END
>  <smiles>  (19) 
CCN=c1nc2c(c[nH]1)CCc1c(C(N)=O)nn(C)c1-2

>  <score_type>  (19) 
oracle

>  <origin>  (19) 
adg

>  <m_score__min__energy>  (19) 
-7.6100000000000003

>  <m_primary>  (19) 
energy

$$$$
19:0
     RDKit          3D

 49 51  0  0  0  0  0  0  0  0999 V2000
   60.4390   27.3590   49.1080 C   0  0  0  0  0  0  0  0  0  0  0  0
   59.9540   28.2310   47.9870 C   0  0  0  0  0  0  0  0  0  0  0  0
   58.6840   28.0250   47.4290 C   0  0  0  0  0  0  0  0  0  0  0  0
   58.2180   28.8600   46.4100 C   0  0  0  0  0  0  0  0  0  0  0  0
   59.0100   29.9230   45.9480 C   0  0  0  0  0  0  0  0  0  0  0  0
   58.5070   30.8060   44.8380 C   0  0  0  0  0  0  0  0  0  0  0  0
   57.1220   31.2440   45.1210 N   0  0  0  0  0  0  0  0  0  0  0  0
   56.2080   30.7680   44.0670 C   0  0  0  0  0  0  0  0  0  0  0  0
   57.0420   32.7150   45.2470 C   0  0  0  0  0  0  0  0  0  0  0  0
   58.4380   33.2970   45.5110 C   0  0  0  0  0  0  0  0  0  0  0  0
   58.5680   33.8910   46.9200 C   0  0  0  0  0  0  0  0  0  0  0  0
   59.6500   33.2500   47.6800 N   0  0  0  0  0  0  0  0  0  0  0  0
   59.5580   32.5350   48.8370 C   0  0  0  0  0  0  0  0  0  0  0  0
   58.2890   32.2810   49.5950 C   0  0  0  0  0  0  0  0  0  0  0  0
   58.2410   30.9550   49.9830 F   0  0  0  0  0  0  0  0  0  0  0  0
   60.7690   32.1430   49.3040 N   0  0  0  0  0  0  0  0  0  0  0  0
   61.6450   32.6210   48.4050 C   0  0  0  0  0  0  0  0  0  0  0  0
   63.0340   32.5170   48.4220 C   0  0  0  0  0  0  0  0  0  0  0  0
   63.7460   33.1320   47.3760 C   0  0  0  0  0  0  0  0  0  0  0  0
   63.0600   33.8310   46.3570 C   0  0  0  0  0  0  0  0  0  0  0  0
   61.6550   33.9200   46.3740 C   0  0  0  0  0  0  0  0  0  0  0  0
   60.9750   33.2920   47.4220 C   0  0  0  0  0  0  0  0  0  0  0  0
   60.2770   30.1360   46.5150 C   0  0  0  0  0  0  0  0  0  0  0  0
   60.7420   29.3000   47.5330 C   0  0  0  0  0  0  0  0  0  0  0  0
   60.1810   27.8229   50.0714 H   0  0  0  0  0  0  0  0  0  0  0  0
   59.9609   26.3709   49.0371 H   0  0  0  0  0  0  0  0  0  0  0  0
   61.5307   27.2440   49.0371 H   0  0  0  0  0  0  0  0  0  0  0  0
   58.0519   27.2025   47.7951 H   0  0  0  0  0  0  0  0  0  0  0  0
   57.2263   28.6836   45.9680 H   0  0  0  0  0  0  0  0  0  0  0  0
   59.1572   31.6892   44.7533 H   0  0  0  0  0  0  0  0  0  0  0  0
   58.5186   30.2392   43.8953 H   0  0  0  0  0  0  0  0  0  0  0  0
   55.3229   30.3071   44.5299 H   0  0  0  0  0  0  0  0  0  0  0  0
   55.8946   31.6175   43.4423 H   0  0  0  0  0  0  0  0  0  0  0  0
   56.7244   30.0243   43.4423 H   0  0  0  0  0  0  0  0  0  0  0  0
   56.6411   33.1391   44.3146 H   0  0  0  0  0  0  0  0  0  0  0  0
   56.3801   32.9695   46.0879 H   0  0  0  0  0  0  0  0  0  0  0  0
   59.1824   32.4954   45.3956 H   0  0  0  0  0  0  0  0  0  0  0  0
   58.6046   34.1093   44.7882 H   0  0  0  0  0  0  0  0  0  0  0  0
   58.7801   34.9670   46.8355 H   0  0  0  0  0  0  0  0  0  0  0  0
   57.6226   33.7176   47.4549 H   0  0  0  0  0  0  0  0  0  0  0  0
   58.2592   32.9250   50.4862 H   0  0  0  0  0  0  0  0  0  0  0  0
   57.4261   32.5058   48.9509 H   0  0  0  0  0  0  0  0  0  0  0  0
   60.9770   31.6120   50.1780 H   0  0  0  0  0  0  0  0  0  0  0  0
   63.5552   31.9738   49.2241 H   0  0  0  0  0  0  0  0  0  0  0  0
   64.8439   33.0684   47.3511 H   0  0  0  0  0  0  0  0  0  0  0  0
   63.6278   34.3088   45.5450 H   0  0  0  0  0  0  0  0  0  0  0  0
   61.1105   34.4653   45.5891 H   0  0  0  0  0  0  0  0  0  0  0  0
   60.9057   30.9643   46.1562 H   0  0  0  0  0  0  0  0  0  0  0  0
   61.7304   29.4804   47.9809 H   0  0  0  0  0  0  0  0  0  0  0  0
  1  2  1  0
  2  3  2  0
  3  4  1  0
  4  5  2  0
  5  6  1  0
  6  7  1  0
  7  8  1  0
  7  9  1  0
  9 10  1  0
 10 11  1  0
 11 12  1  0
 12 13  1  0
 13 14  1  0
 14 15  1  0
 13 16  2  0
 16 17  1  0
 17 18  2  0
 18 19  1  0
 19 20  2  0
 20 21  1  0
 21 22  2  0
  5 23  1  0
 23 24  2  0
 24  2  1  0
 22 12  1  0
 22 17  1  0
  1 25  1  0
  1 26  1  0
  1 27  1  0
  3 28  1  0
  4 29  1  0
  6 30  1  0
  6 31  1  0
  8 32  1  0
  8 33  1  0
  8 34  1  0
  9 35  1  0
  9 36  1  0
 10 37  1  0
 10 38  1  0
 11 39  1  0
 11 40  1  0
 14 41  1  0
 14 42  1  0
 16 43  1  0
 18 44  1  0
 19 45  1  0
 20 46  1  0
 21 47  1  0
 23 48  1  0
 24 49  1  0
M  CHG  1  16   1
M  END
>  <UniqueID>  (20) 
19

>  <SMILES>  (20) 
Cc1ccc(CN(C)CCCn2c(CF)[nH+]c3ccccc32)cc1

>  <Energy>  (20) 
84.78486073570387

>  <Genealogy>  (20) 
Cc1ccc(CN(C)CCCn2c(CF)[nH+]c3ccccc32)cc1 (protonated)
Cc1ccc(CN(C)CCCn2c(CF)[nH+]c3ccccc32)cc1 (3D coordinates assigned)
Cc1ccc(CN(C)CCCn2c(CF)[nH+]c3ccccc32)cc1 (optimized conformer: 84.78486073570387 kcal/mol)

>  <smiles>  (20) 
Cc1ccc(CN(C)CCCn2c(CF)nc3ccccc32)cc1

>  <score_type>  (20) 
oracle

>  <origin>  (20) 
adg

>  <m_score__min__energy>  (20) 
-6.2300000000000004

>  <m_primary>  (20) 
energy

$$$$
20:0
     RDKit          3D

 42 44  0  0  0  0  0  0  0  0999 V2000
   60.2699   25.9279   48.0906 H   0  0  0  0  0  0  0  0  0  0  0  0
   60.2620   27.0030   47.8580 C   0  0  0  0  0  0  0  0  0  0  0  0
   60.1310   27.9390   48.8870 C   0  0  0  0  0  0  0  0  0  0  0  0
   60.0404   27.6006   49.9297 H   0  0  0  0  0  0  0  0  0  0  0  0
   60.1150   29.3060   48.5920 C   0  0  0  0  0  0  0  0  0  0  0  0
   60.0247   30.0414   49.4051 H   0  0  0  0  0  0  0  0  0  0  0  0
   60.2140   29.7430   47.2600 C   0  0  0  0  0  0  0  0  0  0  0  0
   60.2360   31.1870   46.9440 C   0  0  0  0  0  0  0  0  0  0  0  0
   61.2030   31.9130   47.5850 N   0  0  0  0  0  0  0  0  0  0  0  0
   61.4060   33.2510   47.4970 C   0  0  0  0  0  0  0  0  0  0  0  0
   62.3590   33.8380   48.1550 N   0  0  0  0  0  0  0  0  0  0  0  0
   63.7750   33.5160   48.0030 C   0  0  0  0  0  0  0  0  0  0  0  0
   64.3750   34.4122   48.2194 H   0  0  0  0  0  0  0  0  0  0  0  0
   63.9536   33.1790   46.9712 H   0  0  0  0  0  0  0  0  0  0  0  0
   64.1790   32.3940   48.9670 C   0  0  0  0  0  0  0  0  0  0  0  0
   64.6550   32.8431   49.8512 H   0  0  0  0  0  0  0  0  0  0  0  0
   64.8693   31.7258   48.4313 H   0  0  0  0  0  0  0  0  0  0  0  0
   63.0220   31.5830   49.4110 N   0  0  0  0  0  0  0  0  0  0  0  0
   62.1750   32.1880   49.5260 H   0  0  0  0  0  0  0  0  0  0  0  0
   62.7860   30.8860   48.6660 H   0  0  0  0  0  0  0  0  0  0  0  0
   63.2690   30.8730   50.6820 C   0  0  0  0  0  0  0  0  0  0  0  0
   63.6695   31.5881   51.4156 H   0  0  0  0  0  0  0  0  0  0  0  0
   63.9848   30.0618   50.4830 H   0  0  0  0  0  0  0  0  0  0  0  0
   61.9920   30.2460   51.2500 C   0  0  0  0  0  0  0  0  0  0  0  0
   62.0315   30.2654   52.3491 H   0  0  0  0  0  0  0  0  0  0  0  0
   61.1179   30.8174   50.9044 H   0  0  0  0  0  0  0  0  0  0  0  0
   61.9096   29.2050   50.9044 H   0  0  0  0  0  0  0  0  0  0  0  0
   60.3820   34.1490   46.5190 S   0  0  0  0  0  0  0  0  0  0  0  0
   59.2490   33.1550   45.7660 C   0  0  0  0  0  0  0  0  0  0  0  0
   58.3100   33.7050   44.8880 C   0  0  0  0  0  0  0  0  0  0  0  0
   58.2931   34.7905   44.7105 H   0  0  0  0  0  0  0  0  0  0  0  0
   57.3960   32.8790   44.2380 C   0  0  0  0  0  0  0  0  0  0  0  0
   56.6515   33.3131   43.5544 H   0  0  0  0  0  0  0  0  0  0  0  0
   57.4250   31.5020   44.4540 C   0  0  0  0  0  0  0  0  0  0  0  0
   56.2890   30.4630   43.6130 Cl  0  0  0  0  0  0  0  0  0  0  0  0
   58.3620   30.9470   45.3330 C   0  0  0  0  0  0  0  0  0  0  0  0
   58.3805   29.8578   45.4856 H   0  0  0  0  0  0  0  0  0  0  0  0
   59.2860   31.7620   46.0290 C   0  0  0  0  0  0  0  0  0  0  0  0
   60.3660   28.7980   46.2340 C   0  0  0  0  0  0  0  0  0  0  0  0
   60.4721   29.1326   45.1915 H   0  0  0  0  0  0  0  0  0  0  0  0
   60.3830   27.4320   46.5330 C   0  0  0  0  0  0  0  0  0  0  0  0
   60.4917   26.6941   45.7245 H   0  0  0  0  0  0  0  0  0  0  0  0
  1  2  1  0
  2  3  2  0
  3  4  1  0
  3  5  1  0
  5  6  1  0
  5  7  2  0
  7  8  1  0
  8  9  2  0
  9 10  1  0
 10 11  2  0
 11 12  1  0
 12 13  1  0
 12 14  1  0
 12 15  1  0
 15 16  1  0
 15 17  1  0
 15 18  1  0
 18 19  1  0
 18 20  1  0
 18 21  1  0
 21 22  1  0
 21 23  1  0
 21 24  1  0
 24 25  1  0
 24 26  1  0
 24 27  1  0
 10 28  1  0
 28 29  1  0
 29 30  2  0
 30 31  1  0
 30 32  1  0
 32 33  1  0
 32 34  2  0
 34 35  1  0
 34 36  1  0
 36 37  1  0
 36 38  2  0
  7 39  1  0
 39 40  1  0
 39 41  2  0
 41 42  1  0
 41  2  1  0
 38  8  1  0
 38 29  1  0
M  CHG  1  18   1
M  END
>  <UniqueID>  (21) 
20

>  <SMILES>  (21) 
CC[NH2+]CC/N=c1\nc(-c2ccccc2)c2cc(Cl)ccc2s1

>  <Energy>  (21) 
57.67987392316373

>  <Genealogy>  (21) 
CC[NH2+]CCN=c1nc(-c2ccccc2)c2cc(Cl)ccc2s1 (protonated)
CC[NH2+]CC/N=c1\nc(-c2ccccc2)c2cc(Cl)ccc2s1 (cis-trans isomerization)
CC[NH2+]CC/N=c1\nc(-c2ccccc2)c2cc(Cl)ccc2s1 (3D coordinates assigned)
CC[NH2+]CC/N=c1\nc(-c2ccccc2)c2cc(Cl)ccc2s1 (optimized conformer: 57.67987392316373 kcal/mol)

>  <smiles>  (21) 
CCNCCN=c1nc(-c2ccccc2)c2cc(Cl)ccc2s1

>  <score_type>  (21) 
oracle

>  <origin>  (21) 
adg

>  <m_score__min__energy>  (21) 
-5.4900000000000002

>  <m_primary>  (21) 
energy

$$$$
21:0
     RDKit          3D

 54 57  0  0  0  0  0  0  0  0999 V2000
   56.9910   31.0020   42.2490 C   0  0  0  0  0  0  0  0  0  0  0  0
   56.2900   29.9700   43.1260 C   0  0  0  0  0  0  0  0  0  0  0  0
   56.2850   30.3890   44.4910 O   0  0  0  0  0  0  0  0  0  0  0  0
   57.3090   31.1050   45.1360 C   0  0  0  0  0  0  0  0  0  0  0  0
   57.3900   32.5070   45.0780 C   0  0  0  0  0  0  0  0  0  0  0  0
   58.4470   33.1860   45.6980 C   0  0  0  0  0  0  0  0  0  0  0  0
   58.5660   34.5780   45.5520 C   0  0  0  0  0  0  0  0  0  0  0  0
   59.6600   35.2510   46.0970 C   0  0  0  0  0  0  0  0  0  0  0  0
   60.6560   34.5390   46.7630 C   0  0  0  0  0  0  0  0  0  0  0  0
   60.5440   33.1560   46.9260 C   0  0  0  0  0  0  0  0  0  0  0  0
   59.4100   32.4660   46.4510 C   0  0  0  0  0  0  0  0  0  0  0  0
   59.2350   31.0740   46.6420 C   0  0  0  0  0  0  0  0  0  0  0  0
   58.2720   30.3930   45.8710 C   0  0  0  0  0  0  0  0  0  0  0  0
   58.2390   28.8880   45.9500 C   0  0  0  0  0  0  0  0  0  0  0  0
   59.6700   28.3540   46.0560 C   0  0  0  0  0  0  0  0  0  0  0  0
   60.4040   28.9310   47.2820 C   0  0  0  0  0  0  0  0  0  0  0  0
   59.9620   30.2980   47.6290 N   0  0  0  0  0  0  0  0  0  0  0  0
   60.1680   30.7490   49.0260 C   0  0  0  0  0  0  0  0  0  0  0  0
   61.6190   30.6040   49.5680 C   0  0  0  0  0  0  0  0  0  0  0  0
   62.5660   31.7440   49.3600 N   0  0  0  0  0  0  0  0  0  0  0  0
   62.0440   33.0770   49.7250 C   0  0  0  0  0  0  0  0  0  0  0  0
   63.1450   34.1570   49.5900 C   0  0  0  0  0  0  0  0  0  0  0  0
   64.2700   33.7120   48.8500 O   0  0  0  0  0  0  0  0  0  0  0  0
   63.8440   33.0760   47.6640 C   0  0  0  0  0  0  0  0  0  0  0  0
   63.1320   31.7490   47.9900 C   0  0  0  0  0  0  0  0  0  0  0  0
   57.4947   31.7435   42.8866 H   0  0  0  0  0  0  0  0  0  0  0  0
   57.7349   30.4988   41.6139 H   0  0  0  0  0  0  0  0  0  0  0  0
   56.2490   31.5081   41.6139 H   0  0  0  0  0  0  0  0  0  0  0  0
   55.2524   29.8483   42.7816 H   0  0  0  0  0  0  0  0  0  0  0  0
   56.8311   29.0152   43.0507 H   0  0  0  0  0  0  0  0  0  0  0  0
   56.6167   33.0761   44.5411 H   0  0  0  0  0  0  0  0  0  0  0  0
   57.7938   35.1396   45.0059 H   0  0  0  0  0  0  0  0  0  0  0  0
   59.7364   36.3441   46.0010 H   0  0  0  0  0  0  0  0  0  0  0  0
   61.5339   35.0682   47.1620 H   0  0  0  0  0  0  0  0  0  0  0  0
   61.3484   32.6000   47.4298 H   0  0  0  0  0  0  0  0  0  0  0  0
   57.6653   28.5793   46.8363 H   0  0  0  0  0  0  0  0  0  0  0  0
   57.7610   28.4825   45.0461 H   0  0  0  0  0  0  0  0  0  0  0  0
   59.6360   27.2581   46.1440 H   0  0  0  0  0  0  0  0  0  0  0  0
   60.2181   28.6600   45.1527 H   0  0  0  0  0  0  0  0  0  0  0  0
   60.2179   28.2731   48.1437 H   0  0  0  0  0  0  0  0  0  0  0  0
   61.4734   28.9849   47.0300 H   0  0  0  0  0  0  0  0  0  0  0  0
   59.8888   31.8114   49.0841 H   0  0  0  0  0  0  0  0  0  0  0  0
   59.5445   30.0927   49.6509 H   0  0  0  0  0  0  0  0  0  0  0  0
   61.5472   30.4326   50.6522 H   0  0  0  0  0  0  0  0  0  0  0  0
   62.0496   29.7797   48.9806 H   0  0  0  0  0  0  0  0  0  0  0  0
   63.3760   31.5650   50.0030 H   0  0  0  0  0  0  0  0  0  0  0  0
   61.2067   33.3309   49.0583 H   0  0  0  0  0  0  0  0  0  0  0  0
   61.7064   33.0479   50.7715 H   0  0  0  0  0  0  0  0  0  0  0  0
   62.7159   35.0335   49.0824 H   0  0  0  0  0  0  0  0  0  0  0  0
   63.4937   34.4000   50.6046 H   0  0  0  0  0  0  0  0  0  0  0  0
   63.1482   33.7381   47.1279 H   0  0  0  0  0  0  0  0  0  0  0  0
   64.7233   32.8639   47.0381 H   0  0  0  0  0  0  0  0  0  0  0  0
   62.3160   31.5972   47.2682 H   0  0  0  0  0  0  0  0  0  0  0  0
   63.8751   30.9404   47.9266 H   0  0  0  0  0  0  0  0  0  0  0  0
  1  2  1  0
  2  3  1  0
  3  4  1  0
  4  5  2  0
  5  6  1  0
  6  7  2  0
  7  8  1  0
  8  9  2  0
  9 10  1  0
 10 11  2  0
 11 12  1  0
 12 13  2  0
 13 14  1  0
 14 15  1  0
 15 16  1  0
 16 17  1  0
 17 18  1  0
 18 19  1  0
 19 20  1  0
 20 21  1  0
 21 22  1  0
 22 23  1  0
 23 24  1  0
 24 25  1  0
 13  4  1  0
 25 20  1  0
 11  6  1  0
 17 12  1  0
  1 26  1  0
  1 27  1  0
  1 28  1  0
  2 29  1  0
  2 30  1  0
  5 31  1  0
  7 32  1  0
  8 33  1  0
  9 34  1  0
 10 35  1  0
 14 36  1  0
 14 37  1  0
 15 38  1  0
 15 39  1  0
 16 40  1  0
 16 41  1  0
 18 42  1  0
 18 43  1  0
 19 44  1  0
 19 45  1  0
 20 46  1  0
 21 47  1  0
 21 48  1  0
 22 49  1  0
 22 50  1  0
 24 51  1  0
 24 52  1  0
 25 53  1  0
 25 54  1  0
M  CHG  1  20   1
M  END
>  <UniqueID>  (22) 
21

>  <SMILES>  (22) 
CCOc1cc2ccccc2c2c1CCCN2CC[NH+]1CCOCC1

>  <Energy>  (22) 
87.60951844537571

>  <Genealogy>  (22) 
CCOc1cc2ccccc2c2c1CCCN2CC[NH+]1CCOCC1 (protonated)
CCOc1cc2ccccc2c2c1CCCN2CC[NH+]1CCOCC1 (3D coordinates assigned)
CCOc1cc2ccccc2c2c1CCCN2CC[NH+]1CCOCC1 (nonaromatic ring conformer: 87.60951844537571 kcal/mol)

>  <smiles>  (22) 
CCOc1cc2ccccc2c2c1CCCN2CCN1CCOCC1

>  <score_type>  (22) 
oracle

>  <origin>  (22) 
adg

>  <m_score__min__energy>  (22) 
-6.6699999999999999

>  <m_primary>  (22) 
energy

$$$$
22:0
     RDKit          3D

 51 54  0  0  0  0  0  0  0  0999 V2000
   55.1110   25.3360   45.6450 C   0  0  0  0  0  0  0  0  0  0  0  0
   55.4030   26.7140   45.8530 O   0  0  0  0  0  0  0  0  0  0  0  0
   56.6690   27.2950   45.6770 C   0  0  0  0  0  0  0  0  0  0  0  0
   57.8580   26.5770   45.9040 C   0  0  0  0  0  0  0  0  0  0  0  0
   59.0970   27.1880   45.7100 C   0  0  0  0  0  0  0  0  0  0  0  0
   60.2370   26.4880   45.9280 F   0  0  0  0  0  0  0  0  0  0  0  0
   59.1660   28.5230   45.3090 C   0  0  0  0  0  0  0  0  0  0  0  0
   57.9930   29.2620   45.0920 C   0  0  0  0  0  0  0  0  0  0  0  0
   58.1070   30.6980   44.7520 C   0  0  0  0  0  0  0  0  0  0  0  0
   57.6590   31.1860   43.5070 C   0  0  0  0  0  0  0  0  0  0  0  0
   57.7670   32.5620   43.2040 C   0  0  0  0  0  0  0  0  0  0  0  0
   58.3140   33.4310   44.1060 N   0  0  0  0  0  0  0  0  0  0  0  0
   58.7530   32.9550   45.2970 C   0  0  0  0  0  0  0  0  0  0  0  0
   59.3270   33.6770   46.2710 N   0  0  0  0  0  0  0  0  0  0  0  0
   59.6210   32.7880   47.2500 C   0  0  0  0  0  0  0  0  0  0  0  0
   60.2820   33.1720   48.5500 C   0  0  0  0  0  0  0  0  0  0  0  0
   61.3970   34.2120   48.3060 C   0  0  0  0  0  0  0  0  0  0  0  0
   62.3570   34.2590   49.5020 C   0  0  0  0  0  0  0  0  0  0  0  0
   63.0280   32.9570   49.7570 N   0  0  0  0  0  0  0  0  0  0  0  0
   64.4230   32.9730   49.2910 C   0  0  0  0  0  0  0  0  0  0  0  0
   62.3180   31.7780   49.2050 C   0  0  0  0  0  0  0  0  0  0  0  0
   60.7960   31.9280   49.3180 C   0  0  0  0  0  0  0  0  0  0  0  0
   59.2320   31.4980   46.8840 C   0  0  0  0  0  0  0  0  0  0  0  0
   58.6680   31.6310   45.6320 C   0  0  0  0  0  0  0  0  0  0  0  0
   56.7360   28.6300   45.2480 C   0  0  0  0  0  0  0  0  0  0  0  0
   55.5370   29.3050   44.9900 O   0  0  0  0  0  0  0  0  0  0  0  0
   55.1510   29.7090   43.6810 C   0  0  0  0  0  0  0  0  0  0  0  0
   55.0044   24.8329   46.6174 H   0  0  0  0  0  0  0  0  0  0  0  0
   54.1729   25.2414   45.0785 H   0  0  0  0  0  0  0  0  0  0  0  0
   55.9301   24.8691   45.0785 H   0  0  0  0  0  0  0  0  0  0  0  0
   57.8101   25.5294   46.2359 H   0  0  0  0  0  0  0  0  0  0  0  0
   60.1466   28.9992   45.1620 H   0  0  0  0  0  0  0  0  0  0  0  0
   57.2246   30.4942   42.7703 H   0  0  0  0  0  0  0  0  0  0  0  0
   57.4079   32.9368   42.2342 H   0  0  0  0  0  0  0  0  0  0  0  0
   59.5110   34.7050   46.2680 H   0  0  0  0  0  0  0  0  0  0  0  0
   59.5256   33.6437   49.1945 H   0  0  0  0  0  0  0  0  0  0  0  0
   61.9585   33.9356   47.4014 H   0  0  0  0  0  0  0  0  0  0  0  0
   60.9379   35.2034   48.1783 H   0  0  0  0  0  0  0  0  0  0  0  0
   63.1279   35.0182   49.3036 H   0  0  0  0  0  0  0  0  0  0  0  0
   61.7614   34.5036   50.3939 H   0  0  0  0  0  0  0  0  0  0  0  0
   65.0993   32.9808   50.1585 H   0  0  0  0  0  0  0  0  0  0  0  0
   64.6168   32.0770   48.6830 H   0  0  0  0  0  0  0  0  0  0  0  0
   64.5962   33.8732   48.6830 H   0  0  0  0  0  0  0  0  0  0  0  0
   62.5872   31.6641   48.1445 H   0  0  0  0  0  0  0  0  0  0  0  0
   62.6193   30.8936   49.7855 H   0  0  0  0  0  0  0  0  0  0  0  0
   60.3177   31.0294   48.9012 H   0  0  0  0  0  0  0  0  0  0  0  0
   60.5427   32.0535   50.3810 H   0  0  0  0  0  0  0  0  0  0  0  0
   59.3499   30.5737   47.4686 H   0  0  0  0  0  0  0  0  0  0  0  0
   54.3926   30.5027   43.7509 H   0  0  0  0  0  0  0  0  0  0  0  0
   56.0304   30.0887   43.1402 H   0  0  0  0  0  0  0  0  0  0  0  0
   54.7316   28.8478   43.1402 H   0  0  0  0  0  0  0  0  0  0  0  0
  1  2  1  0
  2  3  1  0
  3  4  2  0
  4  5  1  0
  5  6  1  0
  5  7  2  0
  7  8  1  0
  8  9  1  0
  9 10  2  0
 10 11  1  0
 11 12  2  0
 12 13  1  0
 13 14  1  0
 14 15  1  0
 15 16  1  0
 16 17  1  0
 17 18  1  0
 18 19  1  0
 19 20  1  0
 19 21  1  0
 21 22  1  0
 15 23  2  0
 23 24  1  0
  8 25  2  0
 25 26  1  0
 26 27  1  0
 25  3  1  0
 24  9  1  0
 24 13  2  0
 22 16  1  0
  1 28  1  0
  1 29  1  0
  1 30  1  0
  4 31  1  0
  7 32  1  0
 10 33  1  0
 11 34  1  0
 14 35  1  0
 16 36  1  0
 17 37  1  0
 17 38  1  0
 18 39  1  0
 18 40  1  0
 20 41  1  0
 20 42  1  0
 20 43  1  0
 21 44  1  0
 21 45  1  0
 22 46  1  0
 22 47  1  0
 23 48  1  0
 27 49  1  0
 27 50  1  0
 27 51  1  0
M  END
>  <UniqueID>  (23) 
22

>  <SMILES>  (23) 
COc1cc(F)cc(-c2ccnc3[nH]c(C4CCN(C)CC4)cc23)c1OC

>  <Energy>  (23) 
106.0227618202993

>  <Genealogy>  (23) 
COc1cc(F)cc(-c2ccnc3[nH]c(C4CCN(C)CC4)cc23)c1OC (3D coordinates assigned)
COc1cc(F)cc(-c2ccnc3[nH]c(C4CCN(C)CC4)cc23)c1OC (nonaromatic ring conformer: 106.0227618202993 kcal/mol)

>  <smiles>  (23) 
COc1cc(F)cc(-c2ccnc3[nH]c(C4CCN(C)CC4)cc23)c1OC

>  <score_type>  (23) 
oracle

>  <origin>  (23) 
adg

>  <m_score__min__energy>  (23) 
-8.8000000000000007

>  <m_primary>  (23) 
energy

$$$$
23:0
     RDKit          3D

 56 58  0  0  0  0  0  0  0  0999 V2000
   57.3070   31.1930   51.6010 C   0  0  0  0  0  0  0  0  0  0  0  0
   58.8150   31.3990   51.5090 C   0  0  0  0  0  0  0  0  0  0  0  0
   59.1230   32.8400   51.3690 N   0  0  0  0  0  0  0  0  0  0  0  0
   58.1650   33.6710   52.1330 C   0  0  0  0  0  0  0  0  0  0  0  0
   58.9060   34.5390   53.1460 C   0  0  0  0  0  0  0  0  0  0  0  0
   60.5220   33.1340   51.7570 C   0  0  0  0  0  0  0  0  0  0  0  0
   61.3570   33.4280   50.5070 C   0  0  0  0  0  0  0  0  0  0  0  0
   60.5430   34.1920   49.4500 C   0  0  0  0  0  0  0  0  0  0  0  0
   59.4170   33.3930   48.9340 N   0  0  0  0  0  0  0  0  0  0  0  0
   59.3630   33.4230   47.4810 C   0  0  0  0  0  0  0  0  0  0  0  0
   59.5470   34.6790   46.8700 C   0  0  0  0  0  0  0  0  0  0  0  0
   59.2250   34.8920   45.5380 C   0  0  0  0  0  0  0  0  0  0  0  0
   58.6660   33.8710   44.7850 C   0  0  0  0  0  0  0  0  0  0  0  0
   58.4950   32.5870   45.3340 C   0  0  0  0  0  0  0  0  0  0  0  0
   58.9340   32.3140   46.6680 C   0  0  0  0  0  0  0  0  0  0  0  0
   58.8930   30.9510   47.1020 C   0  0  0  0  0  0  0  0  0  0  0  0
   59.6250   30.4760   48.2410 N   0  0  0  0  0  0  0  0  0  0  0  0
   61.0750   30.6790   48.2760 C   0  0  0  0  0  0  0  0  0  0  0  0
   59.0740   29.3690   49.0250 C   0  0  0  0  0  0  0  0  0  0  0  0
   58.2830   30.0130   46.3290 N   0  0  0  0  0  0  0  0  0  0  0  0
   57.7560   30.2880   45.1150 C   0  0  0  0  0  0  0  0  0  0  0  0
   57.1320   29.2800   44.3730 C   0  0  0  0  0  0  0  0  0  0  0  0
   56.6400   29.5640   43.0990 C   0  0  0  0  0  0  0  0  0  0  0  0
   56.7820   30.8540   42.5820 C   0  0  0  0  0  0  0  0  0  0  0  0
   57.3920   31.8200   43.3210 N   0  0  0  0  0  0  0  0  0  0  0  0
   57.8810   31.5740   44.5710 C   0  0  0  0  0  0  0  0  0  0  0  0
   57.0064   31.1519   52.6583 H   0  0  0  0  0  0  0  0  0  0  0  0
   56.7918   32.0291   51.1055 H   0  0  0  0  0  0  0  0  0  0  0  0
   57.0349   30.2493   51.1055 H   0  0  0  0  0  0  0  0  0  0  0  0
   59.2916   31.0119   52.4217 H   0  0  0  0  0  0  0  0  0  0  0  0
   59.1993   30.8612   50.6297 H   0  0  0  0  0  0  0  0  0  0  0  0
   57.6110   34.3183   51.4372 H   0  0  0  0  0  0  0  0  0  0  0  0
   57.4681   33.0107   52.6700 H   0  0  0  0  0  0  0  0  0  0  0  0
   58.6371   34.2240   54.1650 H   0  0  0  0  0  0  0  0  0  0  0  0
   59.9906   34.4262   53.0016 H   0  0  0  0  0  0  0  0  0  0  0  0
   58.6245   35.5925   53.0016 H   0  0  0  0  0  0  0  0  0  0  0  0
   60.5400   34.0098   52.4223 H   0  0  0  0  0  0  0  0  0  0  0  0
   60.9445   32.2628   52.2790 H   0  0  0  0  0  0  0  0  0  0  0  0
   62.2282   34.0351   50.7942 H   0  0  0  0  0  0  0  0  0  0  0  0
   61.6733   32.4690   50.0709 H   0  0  0  0  0  0  0  0  0  0  0  0
   60.1464   35.1120   49.9043 H   0  0  0  0  0  0  0  0  0  0  0  0
   61.2116   34.4198   48.6067 H   0  0  0  0  0  0  0  0  0  0  0  0
   59.5630   32.4030   49.2400 H   0  0  0  0  0  0  0  0  0  0  0  0
   58.5480   33.6880   49.4100 H   0  0  0  0  0  0  0  0  0  0  0  0
   59.9557   35.5102   47.4633 H   0  0  0  0  0  0  0  0  0  0  0  0
   59.4135   35.8732   45.0779 H   0  0  0  0  0  0  0  0  0  0  0  0
   58.3533   34.0666   43.7487 H   0  0  0  0  0  0  0  0  0  0  0  0
   61.4135   30.7264   49.3216 H   0  0  0  0  0  0  0  0  0  0  0  0
   61.5748   29.8421   47.7664 H   0  0  0  0  0  0  0  0  0  0  0  0
   61.3258   31.6210   47.7664 H   0  0  0  0  0  0  0  0  0  0  0  0
   59.1835   29.5889   50.0972 H   0  0  0  0  0  0  0  0  0  0  0  0
   58.0082   29.2434   48.7834 H   0  0  0  0  0  0  0  0  0  0  0  0
   59.6163   28.4430   48.7834 H   0  0  0  0  0  0  0  0  0  0  0  0
   57.0297   28.2681   44.7920 H   0  0  0  0  0  0  0  0  0  0  0  0
   56.1451   28.7799   42.5072 H   0  0  0  0  0  0  0  0  0  0  0  0
   56.4006   31.0889   41.5773 H   0  0  0  0  0  0  0  0  0  0  0  0
  1  2  1  0
  2  3  1  0
  3  4  1  0
  4  5  1  0
  3  6  1  0
  6  7  1  0
  7  8  1  0
  8  9  1  0
  9 10  1  0
 10 11  2  0
 11 12  1  0
 12 13  2  0
 13 14  1  0
 14 15  2  0
 15 16  1  0
 16 17  1  0
 17 18  1  0
 17 19  1  0
 16 20  2  0
 20 21  1  0
 21 22  2  0
 22 23  1  0
 23 24  2  0
 24 25  1  0
 25 26  2  0
 15 10  1  0
 26 21  1  0
 26 14  1  0
  1 27  1  0
  1 28  1  0
  1 29  1  0
  2 30  1  0
  2 31  1  0
  4 32  1  0
  4 33  1  0
  5 34  1  0
  5 35  1  0
  5 36  1  0
  6 37  1  0
  6 38  1  0
  7 39  1  0
  7 40  1  0
  8 41  1  0
  8 42  1  0
  9 43  1  0
  9 44  1  0
 11 45  1  0
 12 46  1  0
 13 47  1  0
 18 48  1  0
 18 49  1  0
 18 50  1  0
 19 51  1  0
 19 52  1  0
 19 53  1  0
 22 54  1  0
 23 55  1  0
 24 56  1  0
M  CHG  1   9   1
M  END
>  <UniqueID>  (24) 
23

>  <SMILES>  (24) 
CCN(CC)CCC[NH2+]c1cccc2c1c(N(C)C)nc1cccnc12

>  <Energy>  (24) 
77.31322275533581

>  <Genealogy>  (24) 
CCN(CC)CCC[NH2+]c1cccc2c1c(N(C)C)nc1cccnc12 (protonated)
CCN(CC)CCC[NH2+]c1cccc2c1c(N(C)C)nc1cccnc12 (3D coordinates assigned)
CCN(CC)CCC[NH2+]c1cccc2c1c(N(C)C)nc1cccnc12 (optimized conformer: 77.31322275533581 kcal/mol)

>  <smiles>  (24) 
CCN(CC)CCCNc1cccc2c1c(N(C)C)nc1cccnc12

>  <score_type>  (24) 
oracle

>  <origin>  (24) 
adg

>  <m_score__min__energy>  (24) 
-5.8499999999999996

>  <m_primary>  (24) 
energy

$$$$
24:0
     RDKit          3D

 50 51  0  0  0  0  0  0  0  0999 V2000
   65.0935   32.5851   49.0854 H   0  0  0  0  0  0  0  0  0  0  0  0
   64.0950   32.7980   48.6760 C   0  0  0  0  0  0  0  0  0  0  0  0
   63.3430   33.8620   49.1840 C   0  0  0  0  0  0  0  0  0  0  0  0
   63.7514   34.4856   49.9929 H   0  0  0  0  0  0  0  0  0  0  0  0
   62.0730   34.1350   48.6660 C   0  0  0  0  0  0  0  0  0  0  0  0
   61.4884   34.9780   49.0630 H   0  0  0  0  0  0  0  0  0  0  0  0
   61.5410   33.3350   47.6390 C   0  0  0  0  0  0  0  0  0  0  0  0
   60.1930   33.6220   47.0900 C   0  0  0  0  0  0  0  0  0  0  0  0
   60.0940   34.2890   45.8560 C   0  0  0  0  0  0  0  0  0  0  0  0
   61.0061   34.6397   45.3510 H   0  0  0  0  0  0  0  0  0  0  0  0
   58.8470   34.5100   45.2660 C   0  0  0  0  0  0  0  0  0  0  0  0
   58.7812   35.0353   44.3018 H   0  0  0  0  0  0  0  0  0  0  0  0
   57.6860   34.0660   45.8970 C   0  0  0  0  0  0  0  0  0  0  0  0
   56.7068   34.2313   45.4238 H   0  0  0  0  0  0  0  0  0  0  0  0
   57.7630   33.4120   47.1280 C   0  0  0  0  0  0  0  0  0  0  0  0
   56.8431   33.0601   47.6177 H   0  0  0  0  0  0  0  0  0  0  0  0
   59.0070   33.2000   47.7460 C   0  0  0  0  0  0  0  0  0  0  0  0
   59.0340   32.5660   49.0820 C   0  0  0  0  0  0  0  0  0  0  0  0
   58.8890   31.2800   49.1700 N   0  0  0  0  0  0  0  0  0  0  0  0
   59.9540   30.4230   49.0180 O   0  0  0  0  0  0  0  0  0  0  0  0
   59.7520   29.0200   48.9740 C   0  0  0  0  0  0  0  0  0  0  0  0
   59.0446   28.7303   49.7650 H   0  0  0  0  0  0  0  0  0  0  0  0
   60.7170   28.5148   49.1276 H   0  0  0  0  0  0  0  0  0  0  0  0
   59.1810   28.6040   47.6040 C   0  0  0  0  0  0  0  0  0  0  0  0
   58.1535   28.2427   47.7583 H   0  0  0  0  0  0  0  0  0  0  0  0
   59.8607   27.8345   47.2092 H   0  0  0  0  0  0  0  0  0  0  0  0
   59.1410   29.6880   46.5810 N   0  0  0  0  0  0  0  0  0  0  0  0
   59.0370   30.5810   47.1200 H   0  0  0  0  0  0  0  0  0  0  0  0
   60.4210   29.7600   45.8250 C   0  0  0  0  0  0  0  0  0  0  0  0
   61.2550   29.7517   46.5422 H   0  0  0  0  0  0  0  0  0  0  0  0
   60.4064   30.6860   45.2314 H   0  0  0  0  0  0  0  0  0  0  0  0
   60.5970   28.5870   44.8530 C   0  0  0  0  0  0  0  0  0  0  0  0
   60.7366   27.6565   45.4228 H   0  0  0  0  0  0  0  0  0  0  0  0
   59.7021   28.4983   44.2195 H   0  0  0  0  0  0  0  0  0  0  0  0
   61.4785   28.7648   44.2195 H   0  0  0  0  0  0  0  0  0  0  0  0
   57.9810   29.5920   45.6520 C   0  0  0  0  0  0  0  0  0  0  0  0
   58.0956   28.6844   45.0412 H   0  0  0  0  0  0  0  0  0  0  0  0
   57.0694   29.5616   46.2669 H   0  0  0  0  0  0  0  0  0  0  0  0
   57.8610   30.7990   44.7150 C   0  0  0  0  0  0  0  0  0  0  0  0
   57.7696   31.7186   45.3116 H   0  0  0  0  0  0  0  0  0  0  0  0
   58.7574   30.8612   44.0805 H   0  0  0  0  0  0  0  0  0  0  0  0
   56.9699   30.6834   44.0805 H   0  0  0  0  0  0  0  0  0  0  0  0
   59.2700   33.3980   50.3150 C   0  0  0  0  0  0  0  0  0  0  0  0
   59.0958   32.7837   51.2107 H   0  0  0  0  0  0  0  0  0  0  0  0
   60.3074   33.7639   50.3174 H   0  0  0  0  0  0  0  0  0  0  0  0
   58.5793   34.2541   50.3174 H   0  0  0  0  0  0  0  0  0  0  0  0
   62.3100   32.2740   47.1270 C   0  0  0  0  0  0  0  0  0  0  0  0
   61.9111   31.6524   46.3118 H   0  0  0  0  0  0  0  0  0  0  0  0
   63.5780   32.0060   47.6490 C   0  0  0  0  0  0  0  0  0  0  0  0
   64.1702   31.1693   47.2500 H   0  0  0  0  0  0  0  0  0  0  0  0
  1  2  1  0
  2  3  2  0
  3  4  1  0
  3  5  1  0
  5  6  1  0
  5  7  2  0
  7  8  1  0
  8  9  2  0
  9 10  1  0
  9 11  1  0
 11 12  1  0
 11 13  2  0
 13 14  1  0
 13 15  1  0
 15 16  1  0
 15 17  2  0
 17 18  1  0
 18 19  2  0
 19 20  1  0
 20 21  1  0
 21 22  1  0
 21 23  1  0
 21 24  1  0
 24 25  1  0
 24 26  1  0
 24 27  1  0
 27 28  1  0
 27 29  1  0
 29 30  1  0
 29 31  1  0
 29 32  1  0
 32 33  1  0
 32 34  1  0
 32 35  1  0
 27 36  1  0
 36 37  1  0
 36 38  1  0
 36 39  1  0
 39 40  1  0
 39 41  1  0
 39 42  1  0
 18 43  1  0
 43 44  1  0
 43 45  1  0
 43 46  1  0
  7 47  1  0
 47 48  1  0
 47 49  2  0
 49 50  1  0
 49  2  1  0
 17  8  1  0
M  CHG  1  27   1
M  END
>  <UniqueID>  (25) 
24

>  <SMILES>  (25) 
CC[NH+](CC)CCO/N=C(\C)c1ccccc1-c1ccccc1

>  <Energy>  (25) 
58.432149311215184

>  <Genealogy>  (25) 
CC[NH+](CC)CCON=C(C)c1ccccc1-c1ccccc1 (protonated)
CC[NH+](CC)CCO/N=C(\C)c1ccccc1-c1ccccc1 (cis-trans isomerization)
CC[NH+](CC)CCO/N=C(\C)c1ccccc1-c1ccccc1 (3D coordinates assigned)
CC[NH+](CC)CCO/N=C(\C)c1ccccc1-c1ccccc1 (optimized conformer: 58.432149311215184 kcal/mol)

>  <smiles>  (25) 
CCN(CC)CCON=C(C)c1ccccc1-c1ccccc1

>  <score_type>  (25) 
oracle

>  <origin>  (25) 
adg

>  <m_score__min__energy>  (25) 
-5.0300000000000002

>  <m_primary>  (25) 
energy

$$$$
25:0
     RDKit          3D

 42 44  0  0  0  0  0  0  0  0999 V2000
   56.7890   34.2160   45.3200 C   0  0  0  0  0  0  0  0  0  0  0  0
   58.2180   34.3160   44.9820 N   0  0  0  0  0  0  0  0  0  0  0  0
   59.0900   34.7280   46.1030 C   0  0  0  0  0  0  0  0  0  0  0  0
   60.0340   33.6540   46.5670 C   0  0  0  0  0  0  0  0  0  0  0  0
   59.6750   32.3950   46.8690 N   0  0  0  0  0  0  0  0  0  0  0  0
   60.8490   31.8250   47.1940 C   0  0  0  0  0  0  0  0  0  0  0  0
   61.0220   30.3770   47.5280 C   0  0  0  0  0  0  0  0  0  0  0  0
   59.7550   29.7190   47.5350 O   0  0  0  0  0  0  0  0  0  0  0  0
   59.2370   28.9450   46.4820 C   0  0  0  0  0  0  0  0  0  0  0  0
   58.1460   28.1080   46.7490 C   0  0  0  0  0  0  0  0  0  0  0  0
   57.6030   27.3060   45.7410 C   0  0  0  0  0  0  0  0  0  0  0  0
   58.1450   27.3390   44.4530 C   0  0  0  0  0  0  0  0  0  0  0  0
   59.2260   28.1780   44.1720 C   0  0  0  0  0  0  0  0  0  0  0  0
   59.7700   28.9820   45.1780 C   0  0  0  0  0  0  0  0  0  0  0  0
   61.8710   32.7010   47.1100 N   0  0  0  0  0  0  0  0  0  0  0  0
   61.3250   33.8180   46.7270 O   0  0  0  0  0  0  0  0  0  0  0  0
   58.7280   33.2040   44.1500 C   0  0  0  0  0  0  0  0  0  0  0  0
   57.8290   31.9920   44.1310 C   0  0  0  0  0  0  0  0  0  0  0  0
   57.4070   31.3570   45.2410 N   0  0  0  0  0  0  0  0  0  0  0  0
   56.5860   30.3930   44.8500 N   0  0  0  0  0  0  0  0  0  0  0  0
   56.5080   30.4570   43.5080 C   0  0  0  0  0  0  0  0  0  0  0  0
   57.2770   31.4490   43.0270 N   0  0  0  0  0  0  0  0  0  0  0  0
   57.3750   31.8920   41.6390 C   0  0  0  0  0  0  0  0  0  0  0  0
   56.6706   34.2077   46.4136 H   0  0  0  0  0  0  0  0  0  0  0  0
   56.2515   35.0787   44.8995 H   0  0  0  0  0  0  0  0  0  0  0  0
   56.3769   33.2868   44.8995 H   0  0  0  0  0  0  0  0  0  0  0  0
   59.6843   35.5951   45.7789 H   0  0  0  0  0  0  0  0  0  0  0  0
   58.4302   34.9616   46.9516 H   0  0  0  0  0  0  0  0  0  0  0  0
   58.7250   31.9610   46.8440 H   0  0  0  0  0  0  0  0  0  0  0  0
   61.6723   29.9057   46.7764 H   0  0  0  0  0  0  0  0  0  0  0  0
   61.4776   30.2901   48.5254 H   0  0  0  0  0  0  0  0  0  0  0  0
   57.7131   28.0816   47.7599 H   0  0  0  0  0  0  0  0  0  0  0  0
   56.7489   26.6488   45.9615 H   0  0  0  0  0  0  0  0  0  0  0  0
   57.7205   26.7046   43.6610 H   0  0  0  0  0  0  0  0  0  0  0  0
   59.6499   28.2061   43.1574 H   0  0  0  0  0  0  0  0  0  0  0  0
   60.6171   29.6459   44.9509 H   0  0  0  0  0  0  0  0  0  0  0  0
   58.8412   33.5674   43.1179 H   0  0  0  0  0  0  0  0  0  0  0  0
   59.6832   32.8859   44.5931 H   0  0  0  0  0  0  0  0  0  0  0  0
   55.8960   29.7863   42.8870 H   0  0  0  0  0  0  0  0  0  0  0  0
   57.6125   32.9657   41.6127 H   0  0  0  0  0  0  0  0  0  0  0  0
   58.1701   31.3280   41.1294 H   0  0  0  0  0  0  0  0  0  0  0  0
   56.4162   31.7160   41.1294 H   0  0  0  0  0  0  0  0  0  0  0  0
  1  2  1  0
  2  3  1  0
  3  4  1  0
  4  5  2  0
  5  6  1  0
  6  7  1  0
  7  8  1  0
  8  9  1  0
  9 10  2  0
 10 11  1  0
 11 12  2  0
 12 13  1  0
 13 14  2  0
  6 15  2  0
 15 16  1  0
  2 17  1  0
 17 18  1  0
 18 19  2  0
 19 20  1  0
 20 21  2  0
 21 22  1  0
 22 23  1  0
 16  4  1  0
 22 18  1  0
 14  9  1  0
  1 24  1  0
  1 25  1  0
  1 26  1  0
  3 27  1  0
  3 28  1  0
  5 29  1  0
  7 30  1  0
  7 31  1  0
 10 32  1  0
 11 33  1  0
 12 34  1  0
 13 35  1  0
 14 36  1  0
 17 37  1  0
 17 38  1  0
 21 39  1  0
 23 40  1  0
 23 41  1  0
 23 42  1  0
M  CHG  1   5   1
M  END
>  <UniqueID>  (26) 
25

>  <SMILES>  (26) 
CN(Cc1[nH+]c(COc2ccccc2)no1)Cc1nncn1C

>  <Energy>  (26) 
113.2604391915351

>  <Genealogy>  (26) 
CN(Cc1[nH+]c(COc2ccccc2)no1)Cc1nncn1C (protonated)
CN(Cc1[nH+]c(COc2ccccc2)no1)Cc1nncn1C (3D coordinates assigned)
CN(Cc1[nH+]c(COc2ccccc2)no1)Cc1nncn1C (optimized conformer: 113.2604391915351 kcal/mol)

>  <smiles>  (26) 
CN(Cc1nc(COc2ccccc2)no1)Cc1nncn1C

>  <score_type>  (26) 
oracle

>  <origin>  (26) 
adg

>  <m_score__min__energy>  (26) 
-7.1100000000000003

>  <m_primary>  (26) 
energy

$$$$
26:0
     RDKit          3D

 42 44  0  0  0  0  0  0  0  0999 V2000
   59.1970   34.5940   45.9270 C   0  0  0  0  0  0  0  0  0  0  0  0
   58.2590   33.8870   45.6520 C   0  0  0  0  0  0  0  0  0  0  0  0
   57.1200   33.0280   45.3130 C   0  0  0  0  0  0  0  0  0  0  0  0
   57.3870   31.6770   45.6870 O   0  0  0  0  0  0  0  0  0  0  0  0
   57.3590   30.5680   44.8210 C   0  0  0  0  0  0  0  0  0  0  0  0
   56.4980   30.5100   43.7060 C   0  0  0  0  0  0  0  0  0  0  0  0
   56.5170   29.4030   42.8540 C   0  0  0  0  0  0  0  0  0  0  0  0
   57.3920   28.3440   43.1000 C   0  0  0  0  0  0  0  0  0  0  0  0
   58.2470   28.3860   44.2030 C   0  0  0  0  0  0  0  0  0  0  0  0
   58.2280   29.4870   45.0740 C   0  0  0  0  0  0  0  0  0  0  0  0
   59.1460   29.5060   46.2380 C   0  0  0  0  0  0  0  0  0  0  0  0
   60.0610   30.5610   46.3640 C   0  0  0  0  0  0  0  0  0  0  0  0
   60.9340   30.6060   47.4620 C   0  0  0  0  0  0  0  0  0  0  0  0
   61.9150   31.7090   47.6370 C   0  0  0  0  0  0  0  0  0  0  0  0
   61.8830   32.8170   46.7690 C   0  0  0  0  0  0  0  0  0  0  0  0
   62.8030   33.8600   46.9150 C   0  0  0  0  0  0  0  0  0  0  0  0
   63.7690   33.8070   47.9230 C   0  0  0  0  0  0  0  0  0  0  0  0
   63.8190   32.7070   48.7830 C   0  0  0  0  0  0  0  0  0  0  0  0
   62.9010   31.6620   48.6420 C   0  0  0  0  0  0  0  0  0  0  0  0
   60.8930   29.6040   48.3810 N   0  0  0  0  0  0  0  0  0  0  0  0
   60.0280   28.5560   48.2880 C   0  0  0  0  0  0  0  0  0  0  0  0
   60.0340   27.5490   49.2610 O   0  0  0  0  0  0  0  0  0  0  0  0
   60.7920   27.6420   50.4620 C   0  0  0  0  0  0  0  0  0  0  0  0
   59.1320   28.4850   47.2120 C   0  0  0  0  0  0  0  0  0  0  0  0
   58.2440   27.3500   47.0970 C   0  0  0  0  0  0  0  0  0  0  0  0
   57.5330   26.4420   47.0040 N   0  0  0  0  0  0  0  0  0  0  0  0
   60.0523   35.2387   46.1777 H   0  0  0  0  0  0  0  0  0  0  0  0
   56.2268   33.3825   45.8483 H   0  0  0  0  0  0  0  0  0  0  0  0
   56.9517   33.0709   44.2268 H   0  0  0  0  0  0  0  0  0  0  0  0
   55.8067   31.3419   43.5056 H   0  0  0  0  0  0  0  0  0  0  0  0
   55.8407   29.3660   41.9872 H   0  0  0  0  0  0  0  0  0  0  0  0
   57.4081   27.4759   42.4246 H   0  0  0  0  0  0  0  0  0  0  0  0
   58.9392   27.5520   44.3906 H   0  0  0  0  0  0  0  0  0  0  0  0
   60.0946   31.3536   45.6020 H   0  0  0  0  0  0  0  0  0  0  0  0
   61.1285   32.8626   45.9698 H   0  0  0  0  0  0  0  0  0  0  0  0
   62.7661   34.7238   46.2349 H   0  0  0  0  0  0  0  0  0  0  0  0
   64.4892   34.6302   48.0394 H   0  0  0  0  0  0  0  0  0  0  0  0
   64.5829   32.6630   49.5733 H   0  0  0  0  0  0  0  0  0  0  0  0
   62.9490   30.7974   49.3203 H   0  0  0  0  0  0  0  0  0  0  0  0
   60.1186   27.5594   51.3279 H   0  0  0  0  0  0  0  0  0  0  0  0
   61.5310   26.8278   50.4932 H   0  0  0  0  0  0  0  0  0  0  0  0
   61.3122   28.6107   50.4932 H   0  0  0  0  0  0  0  0  0  0  0  0
  1  2  3  0
  2  3  1  0
  3  4  1  0
  4  5  1  0
  5  6  2  0
  6  7  1  0
  7  8  2  0
  8  9  1  0
  9 10  2  0
 10 11  1  0
 11 12  2  0
 12 13  1  0
 13 14  1  0
 14 15  2  0
 15 16  1  0
 16 17  2  0
 17 18  1  0
 18 19  2  0
 13 20  2  0
 20 21  1  0
 21 22  1  0
 22 23  1  0
 21 24  2  0
 24 25  1  0
 25 26  3  0
 10  5  1  0
 24 11  1  0
 19 14  1  0
  1 27  1  0
  3 28  1  0
  3 29  1  0
  6 30  1  0
  7 31  1  0
  8 32  1  0
  9 33  1  0
 12 34  1  0
 15 35  1  0
 16 36  1  0
 17 37  1  0
 18 38  1  0
 19 39  1  0
 23 40  1  0
 23 41  1  0
 23 42  1  0
M  END
>  <UniqueID>  (27) 
26

>  <SMILES>  (27) 
C#CCOc1ccccc1-c1cc(-c2ccccc2)nc(OC)c1C#N

>  <Energy>  (27) 
52.54058339620967

>  <Genealogy>  (27) 
C#CCOc1ccccc1-c1cc(-c2ccccc2)nc(OC)c1C#N (3D coordinates assigned)
C#CCOc1ccccc1-c1cc(-c2ccccc2)nc(OC)c1C#N (optimized conformer: 52.54058339620967 kcal/mol)

>  <smiles>  (27) 
C#CCOc1ccccc1-c1cc(-c2ccccc2)nc(OC)c1C#N

>  <score_type>  (27) 
oracle

>  <origin>  (27) 
adg

>  <m_score__min__energy>  (27) 
-7.3300000000000001

>  <m_primary>  (27) 
energy

$$$$
27:0
     RDKit          3D

 43 43  0  0  0  0  0  0  0  0999 V2000
   56.2160   29.7190   43.0190 C   0  0  0  0  0  0  0  0  0  0  0  0
   56.1920   30.1010   44.4990 C   0  0  0  0  0  0  0  0  0  0  0  0
   57.4600   30.7370   44.9280 N   0  0  0  0  0  0  0  0  0  0  0  0
   57.5810   32.1180   44.4060 C   0  0  0  0  0  0  0  0  0  0  0  0
   56.9170   33.1040   45.3630 C   0  0  0  0  0  0  0  0  0  0  0  0
   58.6750   29.9280   44.6560 C   0  0  0  0  0  0  0  0  0  0  0  0
   59.7140   29.9420   45.8020 C   0  0  0  0  0  0  0  0  0  0  0  0
   59.5390   31.1010   46.6950 N   0  0  0  0  0  0  0  0  0  0  0  0
   60.7870   31.7930   46.9400 C   0  0  0  0  0  0  0  0  0  0  0  0
   61.9240   31.0530   47.3180 C   0  0  0  0  0  0  0  0  0  0  0  0
   63.1540   31.6850   47.5160 C   0  0  0  0  0  0  0  0  0  0  0  0
   63.2670   33.0650   47.3430 C   0  0  0  0  0  0  0  0  0  0  0  0
   62.1490   33.8180   46.9820 C   0  0  0  0  0  0  0  0  0  0  0  0
   60.9040   33.1990   46.7840 C   0  0  0  0  0  0  0  0  0  0  0  0
   59.7640   34.0070   46.4480 N   0  0  0  0  0  0  0  0  0  0  0  0
   58.9890   34.6120   47.5300 C   0  0  0  0  0  0  0  0  0  0  0  0
   59.6750   34.6040   45.1170 C   0  0  0  0  0  0  0  0  0  0  0  0
   56.2847   28.6253   42.9237 H   0  0  0  0  0  0  0  0  0  0  0  0
   55.2939   30.0721   42.5342 H   0  0  0  0  0  0  0  0  0  0  0  0
   57.0867   30.1847   42.5342 H   0  0  0  0  0  0  0  0  0  0  0  0
   55.3651   30.8059   44.6706 H   0  0  0  0  0  0  0  0  0  0  0  0
   56.0577   29.1803   45.0858 H   0  0  0  0  0  0  0  0  0  0  0  0
   58.6455   32.3746   44.3010 H   0  0  0  0  0  0  0  0  0  0  0  0
   57.0819   32.1765   43.4275 H   0  0  0  0  0  0  0  0  0  0  0  0
   57.1207   32.8015   46.4008 H   0  0  0  0  0  0  0  0  0  0  0  0
   57.3208   34.1123   45.1890 H   0  0  0  0  0  0  0  0  0  0  0  0
   55.8309   33.1089   45.1890 H   0  0  0  0  0  0  0  0  0  0  0  0
   58.3650   28.8867   44.4837 H   0  0  0  0  0  0  0  0  0  0  0  0
   59.1646   30.3768   43.7791 H   0  0  0  0  0  0  0  0  0  0  0  0
   59.6039   29.0200   46.3918 H   0  0  0  0  0  0  0  0  0  0  0  0
   60.7149   30.0102   45.3508 H   0  0  0  0  0  0  0  0  0  0  0  0
   59.1670   30.7590   47.6110 H   0  0  0  0  0  0  0  0  0  0  0  0
   58.8100   31.7330   46.2940 H   0  0  0  0  0  0  0  0  0  0  0  0
   61.8427   29.9651   47.4589 H   0  0  0  0  0  0  0  0  0  0  0  0
   64.0345   31.0941   47.8086 H   0  0  0  0  0  0  0  0  0  0  0  0
   64.2382   33.5597   47.4913 H   0  0  0  0  0  0  0  0  0  0  0  0
   62.2437   34.9061   46.8513 H   0  0  0  0  0  0  0  0  0  0  0  0
   59.3996   34.2914   48.4988 H   0  0  0  0  0  0  0  0  0  0  0  0
   59.0448   35.7079   47.4526 H   0  0  0  0  0  0  0  0  0  0  0  0
   57.9394   34.2919   47.4526 H   0  0  0  0  0  0  0  0  0  0  0  0
   59.5134   35.6880   45.2114 H   0  0  0  0  0  0  0  0  0  0  0  0
   60.6106   34.4191   44.5689 H   0  0  0  0  0  0  0  0  0  0  0  0
   58.8340   34.1543   44.5689 H   0  0  0  0  0  0  0  0  0  0  0  0
  1  2  1  0
  2  3  1  0
  3  4  1  0
  4  5  1  0
  3  6  1  0
  6  7  1  0
  7  8  1  0
  8  9  1  0
  9 10  2  0
 10 11  1  0
 11 12  2  0
 12 13  1  0
 13 14  2  0
 14 15  1  0
 15 16  1  0
 15 17  1  0
 14  9  1  0
  1 18  1  0
  1 19  1  0
  1 20  1  0
  2 21  1  0
  2 22  1  0
  4 23  1  0
  4 24  1  0
  5 25  1  0
  5 26  1  0
  5 27  1  0
  6 28  1  0
  6 29  1  0
  7 30  1  0
  7 31  1  0
  8 32  1  0
  8 33  1  0
 10 34  1  0
 11 35  1  0
 12 36  1  0
 13 37  1  0
 16 38  1  0
 16 39  1  0
 16 40  1  0
 17 41  1  0
 17 42  1  0
 17 43  1  0
M  CHG  1   8   1
M  END
>  <UniqueID>  (28) 
27

>  <SMILES>  (28) 
CCN(CC)CC[NH2+]c1ccccc1N(C)C

>  <Energy>  (28) 
46.20413617890848

>  <Genealogy>  (28) 
CCN(CC)CC[NH2+]c1ccccc1N(C)C (protonated)
CCN(CC)CC[NH2+]c1ccccc1N(C)C (3D coordinates assigned)
CCN(CC)CC[NH2+]c1ccccc1N(C)C (optimized conformer: 46.20413617890848 kcal/mol)

>  <smiles>  (28) 
CCN(CC)CCNc1ccccc1N(C)C

>  <score_type>  (28) 
oracle

>  <origin>  (28) 
adg

>  <m_score__min__energy>  (28) 
-3.5800000000000001

>  <m_primary>  (28) 
energy

$$$$
28:0
     RDKit          3D

 47 49  0  0  0  0  0  0  0  0999 V2000
   56.2010   24.4080   44.5820 C   0  0  0  0  0  0  0  0  0  0  0  0
   55.1370   24.8770   45.5600 C   0  0  0  0  0  0  0  0  0  0  0  0
   55.5240   26.1270   46.1210 O   0  0  0  0  0  0  0  0  0  0  0  0
   56.7920   26.3550   46.6610 C   0  0  0  0  0  0  0  0  0  0  0  0
   57.3590   25.4610   47.3470 O   0  0  0  0  0  0  0  0  0  0  0  0
   57.4780   27.6360   46.4300 C   0  0  0  0  0  0  0  0  0  0  0  0
   58.6980   28.0290   46.9620 C   0  0  0  0  0  0  0  0  0  0  0  0
   59.0280   29.2520   46.4930 N   0  0  0  0  0  0  0  0  0  0  0  0
   58.0460   29.6550   45.7000 N   0  0  0  0  0  0  0  0  0  0  0  0
   57.1130   28.6960   45.6230 C   0  0  0  0  0  0  0  0  0  0  0  0
   55.9550   28.8360   44.7990 N   0  0  0  0  0  0  0  0  0  0  0  0
   55.9180   29.9400   43.8420 C   0  0  0  0  0  0  0  0  0  0  0  0
   56.5840   31.1950   44.4320 C   0  0  0  0  0  0  0  0  0  0  0  0
   58.0300   30.8980   44.9160 C   0  0  1  0  0  0  0  0  0  0  0  0
   58.6050   32.0620   45.7660 C   0  0  0  0  0  0  0  0  0  0  0  0
   60.0280   31.9170   46.1330 N   0  0  0  0  0  0  0  0  0  0  0  0
   60.6740   33.1630   46.5750 C   0  0  0  0  0  0  0  0  0  0  0  0
   61.8520   32.8860   47.4640 C   0  0  0  0  0  0  0  0  0  0  0  0
   62.9650   33.7380   47.4610 C   0  0  0  0  0  0  0  0  0  0  0  0
   64.0320   33.4740   48.3200 C   0  0  0  0  0  0  0  0  0  0  0  0
   63.9780   32.3760   49.1900 C   0  0  0  0  0  0  0  0  0  0  0  0
   65.1340   32.0580   50.0910 C   0  0  0  0  0  0  0  0  0  0  0  0
   62.8530   31.5410   49.1530 C   0  0  0  0  0  0  0  0  0  0  0  0
   61.8250   31.8170   48.3060 N   0  0  0  0  0  0  0  0  0  0  0  0
   57.0686   24.0256   45.1397 H   0  0  0  0  0  0  0  0  0  0  0  0
   55.7901   23.6076   43.9491 H   0  0  0  0  0  0  0  0  0  0  0  0
   56.5146   25.2513   43.9491 H   0  0  0  0  0  0  0  0  0  0  0  0
   54.1793   24.9934   45.0315 H   0  0  0  0  0  0  0  0  0  0  0  0
   55.0253   24.1341   46.3635 H   0  0  0  0  0  0  0  0  0  0  0  0
   59.3049   27.4341   47.6604 H   0  0  0  0  0  0  0  0  0  0  0  0
   55.1410   28.1900   44.8800 H   0  0  0  0  0  0  0  0  0  0  0  0
   56.4532   29.6433   42.9279 H   0  0  0  0  0  0  0  0  0  0  0  0
   54.8679   30.1726   43.6116 H   0  0  0  0  0  0  0  0  0  0  0  0
   56.6192   31.9775   43.6597 H   0  0  0  0  0  0  0  0  0  0  0  0
   55.9913   31.5256   45.2977 H   0  0  0  0  0  0  0  0  0  0  0  0
   58.6658   30.7874   44.0252 H   0  0  0  0  0  0  0  0  0  0  0  0
   58.4931   32.9932   45.1912 H   0  0  0  0  0  0  0  0  0  0  0  0
   58.0405   32.0641   46.7101 H   0  0  0  0  0  0  0  0  0  0  0  0
   60.1300   31.1940   46.8810 H   0  0  0  0  0  0  0  0  0  0  0  0
   61.0165   33.7212   45.6912 H   0  0  0  0  0  0  0  0  0  0  0  0
   59.9395   33.7487   47.1473 H   0  0  0  0  0  0  0  0  0  0  0  0
   62.9968   34.6070   46.7873 H   0  0  0  0  0  0  0  0  0  0  0  0
   64.9165   34.1279   48.3147 H   0  0  0  0  0  0  0  0  0  0  0  0
   64.8159   32.1455   51.1404 H   0  0  0  0  0  0  0  0  0  0  0  0
   65.4788   31.0316   49.8967 H   0  0  0  0  0  0  0  0  0  0  0  0
   65.9552   32.7636   49.8967 H   0  0  0  0  0  0  0  0  0  0  0  0
   62.8012   30.6605   49.8103 H   0  0  0  0  0  0  0  0  0  0  0  0
  1  2  1  0
  2  3  1  0
  3  4  1  0
  4  5  2  0
  4  6  1  0
  6  7  1  0
  7  8  2  0
  8  9  1  0
  9 10  1  0
 10 11  1  0
 11 12  1  0
 12 13  1  0
 13 14  1  0
 14 15  1  0
 15 16  1  0
 16 17  1  0
 17 18  1  0
 18 19  2  0
 19 20  1  0
 20 21  2  0
 21 22  1  0
 21 23  1  0
 23 24  2  0
 10  6  2  0
 24 18  1  0
 14  9  1  0
  1 25  1  0
  1 26  1  0
  1 27  1  0
  2 28  1  0
  2 29  1  0
  7 30  1  0
 11 31  1  0
 12 32  1  0
 12 33  1  0
 13 34  1  0
 13 35  1  0
 14 36  1  6
 15 37  1  0
 15 38  1  0
 16 39  1  0
 17 40  1  0
 17 41  1  0
 19 42  1  0
 20 43  1  0
 22 44  1  0
 22 45  1  0
 22 46  1  0
 23 47  1  0
M  END
>  <UniqueID>  (29) 
28

>  <SMILES>  (29) 
CCOC(=O)c1cnn2c1NCC[C@H]2CNCc1ccc(C)cn1

>  <Energy>  (29) 
75.29552200614859

>  <Genealogy>  (29) 
CCOC(=O)c1cnn2c1NCC[C@H]2CNCc1ccc(C)cn1 (chirality)
CCOC(=O)c1cnn2c1NCC[C@H]2CNCc1ccc(C)cn1 (3D coordinates assigned)
CCOC(=O)c1cnn2c1NCC[C@H]2CNCc1ccc(C)cn1 (nonaromatic ring conformer: 75.29552200614859 kcal/mol)

>  <smiles>  (29) 
CCOC(=O)c1cnn2c1NCCC2CNCc1ccc(C)cn1

>  <score_type>  (29) 
oracle

>  <origin>  (29) 
adg

>  <m_score__min__energy>  (29) 
-7.9400000000000004

>  <m_primary>  (29) 
energy

$$$$
29:0
     RDKit          3D

 68 71  0  0  0  0  0  0  0  0999 V2000
   63.3110   33.8660   46.5220 C   0  0  0  0  0  0  0  0  0  0  0  0
   61.8900   33.3050   46.4750 C   0  0  0  0  0  0  0  0  0  0  0  0
   61.4370   32.9010   47.8260 N   0  0  0  0  0  0  0  0  0  0  0  0
   62.5170   32.2740   48.6260 C   0  0  0  0  0  0  0  0  0  0  0  0
   63.0120   33.1490   49.8190 C   0  0  0  0  0  0  0  0  0  0  0  0
   62.3950   32.7440   51.1140 N   0  0  1  0  0  0  0  0  0  0  0  0
   61.2140   33.5800   51.4810 C   0  0  0  0  0  0  0  0  0  0  0  0
   59.9690   33.3990   50.5930 C   0  0  0  0  0  0  0  0  0  0  0  0
   59.1320   32.2350   51.0430 C   0  0  0  0  0  0  0  0  0  0  0  0
   57.8420   32.4610   51.5460 C   0  0  0  0  0  0  0  0  0  0  0  0
   57.0440   31.3880   51.9830 C   0  0  0  0  0  0  0  0  0  0  0  0
   55.7550   31.5830   52.5060 O   0  0  0  0  0  0  0  0  0  0  0  0
   54.5830   30.9380   52.0270 C   0  0  0  0  0  0  0  0  0  0  0  0
   57.5400   30.0790   51.9090 C   0  0  0  0  0  0  0  0  0  0  0  0
   56.7350   29.0360   52.3930 O   0  0  0  0  0  0  0  0  0  0  0  0
   56.6380   28.6560   53.7620 C   0  0  0  0  0  0  0  0  0  0  0  0
   58.8190   29.8490   51.3700 C   0  0  0  0  0  0  0  0  0  0  0  0
   59.6160   30.9150   50.9210 C   0  0  0  0  0  0  0  0  0  0  0  0
   61.0140   30.6260   50.4180 C   0  0  0  0  0  0  0  0  0  0  0  0
   62.1400   31.3080   51.1730 C   0  0  0  0  0  0  0  0  0  0  0  0
   62.8680   30.5990   51.8560 O   0  0  0  0  0  0  0  0  0  0  0  0
   60.2000   32.0830   47.8240 C   0  0  0  0  0  0  0  0  0  0  0  0
   59.2380   32.5380   46.7320 C   0  0  0  0  0  0  0  0  0  0  0  0
   58.8560   33.9100   46.6780 C   0  0  0  0  0  0  0  0  0  0  0  0
   59.4300   34.9420   47.6200 C   0  0  0  0  0  0  0  0  0  0  0  0
   57.9310   34.3450   45.7200 C   0  0  0  0  0  0  0  0  0  0  0  0
   57.3620   33.4530   44.8210 C   0  0  0  0  0  0  0  0  0  0  0  0
   57.7240   32.1030   44.8370 C   0  0  0  0  0  0  0  0  0  0  0  0
   57.1420   31.2250   43.9070 C   0  0  0  0  0  0  0  0  0  0  0  0
   57.5100   29.8820   43.8810 C   0  0  0  0  0  0  0  0  0  0  0  0
   58.4720   29.4080   44.7650 C   0  0  0  0  0  0  0  0  0  0  0  0
   59.0610   30.2660   45.6970 C   0  0  0  0  0  0  0  0  0  0  0  0
   58.6810   31.6280   45.7770 C   0  0  0  0  0  0  0  0  0  0  0  0
   63.6222   33.9889   47.5699 H   0  0  0  0  0  0  0  0  0  0  0  0
   63.9965   33.1710   46.0150 H   0  0  0  0  0  0  0  0  0  0  0  0
   63.3369   34.8418   46.0150 H   0  0  0  0  0  0  0  0  0  0  0  0
   61.2109   34.0765   46.0830 H   0  0  0  0  0  0  0  0  0  0  0  0
   61.8828   32.4196   45.8222 H   0  0  0  0  0  0  0  0  0  0  0  0
   62.1413   31.3215   49.0280 H   0  0  0  0  0  0  0  0  0  0  0  0
   63.3757   32.1396   47.9518 H   0  0  0  0  0  0  0  0  0  0  0  0
   64.1043   33.0489   49.9014 H   0  0  0  0  0  0  0  0  0  0  0  0
   62.7171   34.1894   49.6174 H   0  0  0  0  0  0  0  0  0  0  0  0
   63.1070   32.9240   51.8600 H   0  0  0  0  0  0  0  0  0  0  0  0
   60.9315   33.3315   52.5146 H   0  0  0  0  0  0  0  0  0  0  0  0
   61.5310   34.6246   51.3455 H   0  0  0  0  0  0  0  0  0  0  0  0
   59.3613   34.3147   50.6397 H   0  0  0  0  0  0  0  0  0  0  0  0
   60.3061   33.2027   49.5645 H   0  0  0  0  0  0  0  0  0  0  0  0
   57.4505   33.4876   51.5992 H   0  0  0  0  0  0  0  0  0  0  0  0
   53.9743   30.6030   52.8798 H   0  0  0  0  0  0  0  0  0  0  0  0
   54.0007   31.6427   51.4152 H   0  0  0  0  0  0  0  0  0  0  0  0
   54.8668   30.0690   51.4152 H   0  0  0  0  0  0  0  0  0  0  0  0
   56.8596   29.5242   54.4001 H   0  0  0  0  0  0  0  0  0  0  0  0
   55.6195   28.2973   53.9717 H   0  0  0  0  0  0  0  0  0  0  0  0
   57.3600   27.8530   53.9717 H   0  0  0  0  0  0  0  0  0  0  0  0
   59.2004   28.8197   51.2992 H   0  0  0  0  0  0  0  0  0  0  0  0
   61.1766   29.5397   50.4777 H   0  0  0  0  0  0  0  0  0  0  0  0
   61.0531   31.0278   49.3948 H   0  0  0  0  0  0  0  0  0  0  0  0
   60.4668   31.0300   47.6508 H   0  0  0  0  0  0  0  0  0  0  0  0
   59.7024   32.2028   48.7977 H   0  0  0  0  0  0  0  0  0  0  0  0
   59.2550   34.6273   48.6594 H   0  0  0  0  0  0  0  0  0  0  0  0
   60.5114   35.0385   47.4433 H   0  0  0  0  0  0  0  0  0  0  0  0
   58.9416   35.9117   47.4433 H   0  0  0  0  0  0  0  0  0  0  0  0
   57.6516   35.4082   45.6795 H   0  0  0  0  0  0  0  0  0  0  0  0
   56.6211   33.8112   44.0910 H   0  0  0  0  0  0  0  0  0  0  0  0
   56.3917   31.6004   43.1956 H   0  0  0  0  0  0  0  0  0  0  0  0
   57.0393   29.1965   43.1609 H   0  0  0  0  0  0  0  0  0  0  0  0
   58.7716   28.3502   44.7306 H   0  0  0  0  0  0  0  0  0  0  0  0
   59.8317   29.8778   46.3791 H   0  0  0  0  0  0  0  0  0  0  0  0
  1  2  1  0
  2  3  1  0
  3  4  1  0
  4  5  1  0
  5  6  1  0
  6  7  1  0
  7  8  1  0
  8  9  1  0
  9 10  2  0
 10 11  1  0
 11 12  1  0
 12 13  1  0
 11 14  2  0
 14 15  1  0
 15 16  1  0
 14 17  1  0
 17 18  2  0
 18 19  1  0
 19 20  1  0
 20 21  2  0
  3 22  1  0
 22 23  1  0
 23 24  2  0
 24 25  1  0
 24 26  1  0
 26 27  2  0
 27 28  1  0
 28 29  2  0
 29 30  1  0
 30 31  2  0
 31 32  1  0
 32 33  2  0
 20  6  1  0
 33 23  1  0
 18  9  1  0
 33 28  1  0
  1 34  1  0
  1 35  1  0
  1 36  1  0
  2 37  1  0
  2 38  1  0
  4 39  1  0
  4 40  1  0
  5 41  1  0
  5 42  1  0
  6 43  1  1
  7 44  1  0
  7 45  1  0
  8 46  1  0
  8 47  1  0
 10 48  1  0
 13 49  1  0
 13 50  1  0
 13 51  1  0
 16 52  1  0
 16 53  1  0
 16 54  1  0
 17 55  1  0
 19 56  1  0
 19 57  1  0
 22 58  1  0
 22 59  1  0
 25 60  1  0
 25 61  1  0
 25 62  1  0
 26 63  1  0
 27 64  1  0
 29 65  1  0
 30 66  1  0
 31 67  1  0
 32 68  1  0
M  CHG  1   6   1
M  END
>  <UniqueID>  (30) 
29

>  <SMILES>  (30) 
CCN(CC[N@H+]1CCc2cc(OC)c(OC)cc2CC1=O)Cc1c(C)ccc2ccccc12

>  <Energy>  (30) 
100.24378486328841

>  <Genealogy>  (30) 
CCN(CC[NH+]1CCc2cc(OC)c(OC)cc2CC1=O)Cc1c(C)ccc2ccccc12 (protonated)
CCN(CC[N@H+]1CCc2cc(OC)c(OC)cc2CC1=O)Cc1c(C)ccc2ccccc12 (chirality)
CCN(CC[N@H+]1CCc2cc(OC)c(OC)cc2CC1=O)Cc1c(C)ccc2ccccc12 (3D coordinates assigned)
CCN(CC[N@H+]1CCc2cc(OC)c(OC)cc2CC1=O)Cc1c(C)ccc2ccccc12 (nonaromatic ring conformer: 100.24378486328841 kcal/mol)

>  <smiles>  (30) 
CCN(CCN1CCc2cc(OC)c(OC)cc2CC1=O)Cc1c(C)ccc2ccccc12

>  <score_type>  (30) 
oracle

>  <origin>  (30) 
adg

>  <m_score__min__energy>  (30) 
-6.2400000000000002

>  <m_primary>  (30) 
energy

$$$$
30:0
     RDKit          3D

 58 60  0  0  0  0  0  0  0  0999 V2000
   55.9460   24.1170   47.2230 C   0  0  0  0  0  0  0  0  0  0  0  0
   55.4270   25.1300   46.2870 N   0  0  0  0  0  0  0  0  0  0  0  0
   54.4610   24.4990   45.3730 C   0  0  0  0  0  0  0  0  0  0  0  0
   56.5240   25.7550   45.5160 C   0  0  0  0  0  0  0  0  0  0  0  0
   56.7830   27.1870   45.9870 C   0  0  0  0  0  0  0  0  0  0  0  0
   55.9450   28.0910   45.2670 O   0  0  0  0  0  0  0  0  0  0  0  0
   56.4080   29.2100   44.5600 C   0  0  0  0  0  0  0  0  0  0  0  0
   55.9560   29.5250   43.2650 C   0  0  0  0  0  0  0  0  0  0  0  0
   56.4500   30.6540   42.6050 C   0  0  0  0  0  0  0  0  0  0  0  0
   57.3930   31.4750   43.2240 C   0  0  0  0  0  0  0  0  0  0  0  0
   57.8540   31.1710   44.5150 C   0  0  0  0  0  0  0  0  0  0  0  0
   58.8610   32.0570   45.1990 C   0  0  0  0  0  0  0  0  0  0  0  0
   58.2150   33.3080   45.6530 N   0  0  0  0  0  0  0  0  0  0  0  0
   57.6930   33.1990   47.0300 C   0  0  0  0  0  0  0  0  0  0  0  0
   58.8170   33.1230   48.0820 C   0  0  0  0  0  0  0  0  0  0  0  0
   60.0400   34.0070   47.7310 C   0  0  0  0  0  0  0  0  0  0  0  0
   60.6720   34.5880   49.0160 C   0  0  0  0  0  0  0  0  0  0  0  0
   62.0890   34.1100   49.2190 C   0  0  0  0  0  0  0  0  0  0  0  0
   62.6830   34.1840   50.4900 C   0  0  0  0  0  0  0  0  0  0  0  0
   63.9880   33.7210   50.6860 C   0  0  0  0  0  0  0  0  0  0  0  0
   64.7070   33.1790   49.6170 C   0  0  0  0  0  0  0  0  0  0  0  0
   65.9720   32.7300   49.8100 F   0  0  0  0  0  0  0  0  0  0  0  0
   64.1220   33.0980   48.3510 C   0  0  0  0  0  0  0  0  0  0  0  0
   62.8170   33.5600   48.1500 C   0  0  0  0  0  0  0  0  0  0  0  0
   59.6460   35.1130   46.7370 C   0  0  0  0  0  0  0  0  0  0  0  0
   59.0620   34.5120   45.4420 C   0  0  0  0  0  0  0  0  0  0  0  0
   57.3560   30.0380   45.1750 C   0  0  0  0  0  0  0  0  0  0  0  0
   55.7748   24.4512   48.2569 H   0  0  0  0  0  0  0  0  0  0  0  0
   55.4260   23.1623   47.0554 H   0  0  0  0  0  0  0  0  0  0  0  0
   57.0247   23.9814   47.0554 H   0  0  0  0  0  0  0  0  0  0  0  0
   53.6812   23.9897   45.9583 H   0  0  0  0  0  0  0  0  0  0  0  0
   53.9988   25.2698   44.7389 H   0  0  0  0  0  0  0  0  0  0  0  0
   54.9811   23.7660   44.7389 H   0  0  0  0  0  0  0  0  0  0  0  0
   57.4405   25.1616   45.6500 H   0  0  0  0  0  0  0  0  0  0  0  0
   56.2330   25.7837   44.4556 H   0  0  0  0  0  0  0  0  0  0  0  0
   56.5638   27.2632   47.0622 H   0  0  0  0  0  0  0  0  0  0  0  0
   57.8368   27.4447   45.8049 H   0  0  0  0  0  0  0  0  0  0  0  0
   55.2127   28.8817   42.7713 H   0  0  0  0  0  0  0  0  0  0  0  0
   56.0936   30.8962   41.5929 H   0  0  0  0  0  0  0  0  0  0  0  0
   57.7763   32.3626   42.6994 H   0  0  0  0  0  0  0  0  0  0  0  0
   59.2796   31.5280   46.0679 H   0  0  0  0  0  0  0  0  0  0  0  0
   59.6631   32.3045   44.4881 H   0  0  0  0  0  0  0  0  0  0  0  0
   57.0701   34.0805   47.2421 H   0  0  0  0  0  0  0  0  0  0  0  0
   57.1108   32.2679   47.0945 H   0  0  0  0  0  0  0  0  0  0  0  0
   58.4129   33.4533   49.0503 H   0  0  0  0  0  0  0  0  0  0  0  0
   59.1652   32.0801   48.1146 H   0  0  0  0  0  0  0  0  0  0  0  0
   60.7996   33.3813   47.2395 H   0  0  0  0  0  0  0  0  0  0  0  0
   60.6749   35.6857   48.9446 H   0  0  0  0  0  0  0  0  0  0  0  0
   60.0732   34.2449   49.8726 H   0  0  0  0  0  0  0  0  0  0  0  0
   62.1194   34.6078   51.3343 H   0  0  0  0  0  0  0  0  0  0  0  0
   64.4491   33.7835   51.6827 H   0  0  0  0  0  0  0  0  0  0  0  0
   64.6885   32.6702   47.5107 H   0  0  0  0  0  0  0  0  0  0  0  0
   62.3592   33.4926   47.1521 H   0  0  0  0  0  0  0  0  0  0  0  0
   58.8915   35.7635   47.2035 H   0  0  0  0  0  0  0  0  0  0  0  0
   60.5469   35.6894   46.4799 H   0  0  0  0  0  0  0  0  0  0  0  0
   58.4494   35.2822   44.9507 H   0  0  0  0  0  0  0  0  0  0  0  0
   59.9179   34.1913   44.8300 H   0  0  0  0  0  0  0  0  0  0  0  0
   57.7138   29.7969   46.1868 H   0  0  0  0  0  0  0  0  0  0  0  0
  1  2  1  0
  2  3  1  0
  2  4  1  0
  4  5  1  0
  5  6  1  0
  6  7  1  0
  7  8  2  0
  8  9  1  0
  9 10  2  0
 10 11  1  0
 11 12  1  0
 12 13  1  0
 13 14  1  0
 14 15  1  0
 15 16  1  0
 16 17  1  0
 17 18  1  0
 18 19  2  0
 19 20  1  0
 20 21  2  0
 21 22  1  0
 21 23  1  0
 23 24  2  0
 16 25  1  0
 25 26  1  0
 11 27  2  0
 27  7  1  0
 26 13  1  0
 24 18  1  0
  1 28  1  0
  1 29  1  0
  1 30  1  0
  3 31  1  0
  3 32  1  0
  3 33  1  0
  4 34  1  0
  4 35  1  0
  5 36  1  0
  5 37  1  0
  8 38  1  0
  9 39  1  0
 10 40  1  0
 12 41  1  0
 12 42  1  0
 14 43  1  0
 14 44  1  0
 15 45  1  0
 15 46  1  0
 16 47  1  0
 17 48  1  0
 17 49  1  0
 19 50  1  0
 20 51  1  0
 23 52  1  0
 24 53  1  0
 25 54  1  0
 25 55  1  0
 26 56  1  0
 26 57  1  0
 27 58  1  0
M  END
>  <UniqueID>  (31) 
30

>  <SMILES>  (31) 
CN(C)CCOc1cccc(CN2CCC(Cc3ccc(F)cc3)CC2)c1

>  <Energy>  (31) 
63.73728963555304

>  <Genealogy>  (31) 
CN(C)CCOc1cccc(CN2CCC(Cc3ccc(F)cc3)CC2)c1 (3D coordinates assigned)
CN(C)CCOc1cccc(CN2CCC(Cc3ccc(F)cc3)CC2)c1 (nonaromatic ring conformer: 63.73728963555304 kcal/mol)

>  <smiles>  (31) 
CN(C)CCOc1cccc(CN2CCC(Cc3ccc(F)cc3)CC2)c1

>  <score_type>  (31) 
oracle

>  <origin>  (31) 
adg

>  <m_score__min__energy>  (31) 
-8.8699999999999992

>  <m_primary>  (31) 
energy

$$$$
31:0
     RDKit          3D

 48 49  0  0  0  0  0  0  0  0999 V2000
   66.1120   33.0480   50.1010 C   0  0  0  0  0  0  0  0  0  0  0  0
   65.0340   32.5100   50.0700 C   0  0  0  0  0  0  0  0  0  0  0  0
   63.7240   31.8520   50.0220 C   0  0  0  0  0  0  0  0  0  0  0  0
   62.9180   32.4130   48.9230 N   0  0  0  0  0  0  0  0  0  0  0  0
   61.8580   31.4650   48.5130 C   0  0  0  0  0  0  0  0  0  0  0  0
   61.2780   31.8010   47.1200 C   0  0  0  0  0  0  0  0  0  0  0  0
   61.4740   33.2230   46.7560 N   0  0  0  0  0  0  0  0  0  0  0  0
   60.6800   34.1260   47.6340 C   0  0  0  0  0  0  0  0  0  0  0  0
   59.7630   35.0670   46.8110 C   0  0  0  0  0  0  0  0  0  0  0  0
   58.5820   34.3950   46.2280 N   0  0  0  0  0  0  0  0  0  0  0  0
   58.7930   33.9010   44.8530 C   0  0  0  0  0  0  0  0  0  0  0  0
   57.5970   33.0540   44.4090 C   0  0  0  0  0  0  0  0  0  0  0  0
   57.4190   31.8420   45.2530 N   0  0  0  0  0  0  0  0  0  0  0  0
   57.9460   30.6370   44.5710 C   0  0  0  0  0  0  0  0  0  0  0  0
   56.8800   29.9610   43.7070 C   0  0  0  0  0  0  0  0  0  0  0  0
   57.9880   31.9870   46.6190 C   0  0  0  0  0  0  0  0  0  0  0  0
   57.9070   33.4340   47.1350 C   0  0  0  0  0  0  0  0  0  0  0  0
   62.9220   33.5770   46.7430 C   0  0  0  0  0  0  0  0  0  0  0  0
   63.7560   32.7800   47.7680 C   0  0  0  0  0  0  0  0  0  0  0  0
   67.0959   33.5390   50.1293 H   0  0  0  0  0  0  0  0  0  0  0  0
   63.8639   30.7734   49.8573 H   0  0  0  0  0  0  0  0  0  0  0  0
   63.2009   32.0191   50.9751 H   0  0  0  0  0  0  0  0  0  0  0  0
   62.2823   30.4505   48.4843 H   0  0  0  0  0  0  0  0  0  0  0  0
   61.0400   31.5374   49.2448 H   0  0  0  0  0  0  0  0  0  0  0  0
   61.7769   31.1717   46.3683 H   0  0  0  0  0  0  0  0  0  0  0  0
   60.1954   31.6086   47.1517 H   0  0  0  0  0  0  0  0  0  0  0  0
   61.1130   33.3260   45.7770 H   0  0  0  0  0  0  0  0  0  0  0  0
   60.0555   33.5147   48.3021 H   0  0  0  0  0  0  0  0  0  0  0  0
   61.3814   34.7483   48.2091 H   0  0  0  0  0  0  0  0  0  0  0  0
   59.4115   35.8729   47.4720 H   0  0  0  0  0  0  0  0  0  0  0  0
   60.3641   35.4421   45.9696 H   0  0  0  0  0  0  0  0  0  0  0  0
   58.9052   34.7574   44.1719 H   0  0  0  0  0  0  0  0  0  0  0  0
   59.7018   33.2817   44.8283 H   0  0  0  0  0  0  0  0  0  0  0  0
   56.6859   33.6670   44.4737 H   0  0  0  0  0  0  0  0  0  0  0  0
   57.7849   32.7211   43.3775 H   0  0  0  0  0  0  0  0  0  0  0  0
   58.7899   30.9313   43.9298 H   0  0  0  0  0  0  0  0  0  0  0  0
   58.2660   29.9205   45.3418 H   0  0  0  0  0  0  0  0  0  0  0  0
   56.1298   29.4852   44.3557 H   0  0  0  0  0  0  0  0  0  0  0  0
   56.3908   30.7143   43.0720 H   0  0  0  0  0  0  0  0  0  0  0  0
   57.3528   29.1973   43.0720 H   0  0  0  0  0  0  0  0  0  0  0  0
   57.4290   31.3347   47.3061 H   0  0  0  0  0  0  0  0  0  0  0  0
   59.0503   31.7054   46.5725 H   0  0  0  0  0  0  0  0  0  0  0  0
   56.8482   33.7180   47.2264 H   0  0  0  0  0  0  0  0  0  0  0  0
   58.4194   33.4731   48.1076 H   0  0  0  0  0  0  0  0  0  0  0  0
   63.3210   33.3770   45.7376 H   0  0  0  0  0  0  0  0  0  0  0  0
   62.9994   34.6396   47.0167 H   0  0  0  0  0  0  0  0  0  0  0  0
   64.1412   31.8660   47.2923 H   0  0  0  0  0  0  0  0  0  0  0  0
   64.5945   33.4025   48.1135 H   0  0  0  0  0  0  0  0  0  0  0  0
  1  2  3  0
  2  3  1  0
  3  4  1  0
  4  5  1  0
  5  6  1  0
  6  7  1  0
  7  8  1  0
  8  9  1  0
  9 10  1  0
 10 11  1  0
 11 12  1  0
 12 13  1  0
 13 14  1  0
 14 15  1  0
 13 16  1  0
 16 17  1  0
  7 18  1  0
 18 19  1  0
 19  4  1  0
 17 10  1  0
  1 20  1  0
  3 21  1  0
  3 22  1  0
  5 23  1  0
  5 24  1  0
  6 25  1  0
  6 26  1  0
  7 27  1  0
  8 28  1  0
  8 29  1  0
  9 30  1  0
  9 31  1  0
 11 32  1  0
 11 33  1  0
 12 34  1  0
 12 35  1  0
 14 36  1  0
 14 37  1  0
 15 38  1  0
 15 39  1  0
 15 40  1  0
 16 41  1  0
 16 42  1  0
 17 43  1  0
 17 44  1  0
 18 45  1  0
 18 46  1  0
 19 47  1  0
 19 48  1  0
M  CHG  1   7   1
M  END
>  <UniqueID>  (32) 
31

>  <SMILES>  (32) 
C#CCN1CC[NH+](CCN2CCN(CC)CC2)CC1

>  <Energy>  (32) 
68.9042158808286

>  <Genealogy>  (32) 
C#CCN1CC[NH+](CCN2CCN(CC)CC2)CC1 (protonated)
C#CCN1CC[NH+](CCN2CCN(CC)CC2)CC1 (3D coordinates assigned)
C#CCN1CC[NH+](CCN2CCN(CC)CC2)CC1 (nonaromatic ring conformer: 68.9042158808286 kcal/mol)

>  <smiles>  (32) 
C#CCN1CCN(CCN2CCN(CC)CC2)CC1

>  <score_type>  (32) 
oracle

>  <origin>  (32) 
adg

>  <m_score__min__energy>  (32) 
-4.7000000000000002

>  <m_primary>  (32) 
energy

$$$$
32:0
     RDKit          3D

 57 59  0  0  0  0  0  0  0  0999 V2000
   63.8320   33.1430   47.0530 C   0  0  0  0  0  0  0  0  0  0  0  0
   63.1720   32.3140   48.1570 C   0  0  0  0  0  0  0  0  0  0  0  0
   61.7040   32.5050   48.1930 N   0  0  0  0  0  0  0  0  0  0  0  0
   61.2890   33.7340   48.8970 C   0  0  0  0  0  0  0  0  0  0  0  0
   60.2700   34.5740   48.0990 C   0  0  0  0  0  0  0  0  0  0  0  0
   59.1650   33.7450   47.5580 N   0  0  0  0  0  0  0  0  0  0  0  0
   58.6660   32.7580   48.5520 C   0  0  0  0  0  0  0  0  0  0  0  0
   58.5050   31.3540   47.9990 C   0  0  0  0  0  0  0  0  0  0  0  0
   59.7410   31.0000   47.2800 N   0  0  0  0  0  0  0  0  0  0  0  0
   59.9860   29.5280   47.0880 C   0  0  0  0  0  0  0  0  0  0  0  0
   60.6440   28.8490   48.3140 C   0  0  0  0  0  0  0  0  0  0  0  0
   58.7240   28.7520   46.6620 C   0  0  0  0  0  0  0  0  0  0  0  0
   59.3890   28.4080   45.3330 C   0  0  0  0  0  0  0  0  0  0  0  0
   60.6630   29.1310   45.7630 C   0  0  0  0  0  0  0  0  0  0  0  0
   59.7640   31.7510   46.0100 C   0  0  0  0  0  0  0  0  0  0  0  0
   59.4160   33.2670   46.1630 C   0  0  1  0  0  0  0  0  0  0  0  0
   58.2760   33.7270   45.2220 C   0  0  0  0  0  0  0  0  0  0  0  0
   57.7330   32.6440   44.3220 C   0  0  0  0  0  0  0  0  0  0  0  0
   56.9790   31.5840   44.8560 C   0  0  0  0  0  0  0  0  0  0  0  0
   56.4500   30.5990   44.0150 C   0  0  0  0  0  0  0  0  0  0  0  0
   56.6790   30.6580   42.6380 C   0  0  0  0  0  0  0  0  0  0  0  0
   57.4420   31.6970   42.1000 C   0  0  0  0  0  0  0  0  0  0  0  0
   57.9710   32.6840   42.9370 C   0  0  0  0  0  0  0  0  0  0  0  0
   64.4562   33.9270   47.5066 H   0  0  0  0  0  0  0  0  0  0  0  0
   64.4598   32.4896   46.4294 H   0  0  0  0  0  0  0  0  0  0  0  0
   63.0545   33.6084   46.4294 H   0  0  0  0  0  0  0  0  0  0  0  0
   63.3873   31.2501   47.9788 H   0  0  0  0  0  0  0  0  0  0  0  0
   63.5813   32.6470   49.1222 H   0  0  0  0  0  0  0  0  0  0  0  0
   61.2850   32.4840   47.2360 H   0  0  0  0  0  0  0  0  0  0  0  0
   61.2850   31.6980   48.7130 H   0  0  0  0  0  0  0  0  0  0  0  0
   60.8334   33.4505   49.8572 H   0  0  0  0  0  0  0  0  0  0  0  0
   62.1881   34.3527   49.0344 H   0  0  0  0  0  0  0  0  0  0  0  0
   59.8454   35.3413   48.7631 H   0  0  0  0  0  0  0  0  0  0  0  0
   60.7987   35.0300   47.2490 H   0  0  0  0  0  0  0  0  0  0  0  0
   59.3778   32.7205   49.3898 H   0  0  0  0  0  0  0  0  0  0  0  0
   57.6658   33.0953   48.8615 H   0  0  0  0  0  0  0  0  0  0  0  0
   58.3376   30.6455   48.8237 H   0  0  0  0  0  0  0  0  0  0  0  0
   57.6423   31.3096   47.3180 H   0  0  0  0  0  0  0  0  0  0  0  0
   60.2283   29.2779   49.2377 H   0  0  0  0  0  0  0  0  0  0  0  0
   60.4406   27.7683   48.2877 H   0  0  0  0  0  0  0  0  0  0  0  0
   61.7306   29.0184   48.2877 H   0  0  0  0  0  0  0  0  0  0  0  0
   58.4993   27.8785   47.2917 H   0  0  0  0  0  0  0  0  0  0  0  0
   57.7370   29.2371   46.6831 H   0  0  0  0  0  0  0  0  0  0  0  0
   59.5225   27.3289   45.1667 H   0  0  0  0  0  0  0  0  0  0  0  0
   58.8974   28.6746   44.3858 H   0  0  0  0  0  0  0  0  0  0  0  0
   61.5352   28.4717   45.8836 H   0  0  0  0  0  0  0  0  0  0  0  0
   61.1152   29.8971   45.1160 H   0  0  0  0  0  0  0  0  0  0  0  0
   60.7722   31.6692   45.5777 H   0  0  0  0  0  0  0  0  0  0  0  0
   58.9901   31.3098   45.3647 H   0  0  0  0  0  0  0  0  0  0  0  0
   60.3525   33.7525   45.8512 H   0  0  0  0  0  0  0  0  0  0  0  0
   57.4498   34.1049   45.8422 H   0  0  0  0  0  0  0  0  0  0  0  0
   58.7051   34.4960   44.5629 H   0  0  0  0  0  0  0  0  0  0  0  0
   56.8042   31.5290   45.9406 H   0  0  0  0  0  0  0  0  0  0  0  0
   55.8533   29.7775   44.4382 H   0  0  0  0  0  0  0  0  0  0  0  0
   56.2582   29.8858   41.9772 H   0  0  0  0  0  0  0  0  0  0  0  0
   57.6269   31.7387   41.0164 H   0  0  0  0  0  0  0  0  0  0  0  0
   58.5769   33.4965   42.5095 H   0  0  0  0  0  0  0  0  0  0  0  0
  1  2  1  0
  2  3  1  0
  3  4  1  0
  4  5  1  0
  5  6  1  0
  6  7  1  0
  7  8  1  0
  8  9  1  0
  9 10  1  0
 10 11  1  0
 10 12  1  0
 12 13  1  0
 13 14  1  0
  9 15  1  0
 15 16  1  0
 16 17  1  0
 17 18  1  0
 18 19  2  0
 19 20  1  0
 20 21  2  0
 21 22  1  0
 22 23  2  0
 16  6  1  0
 23 18  1  0
 14 10  1  0
  1 24  1  0
  1 25  1  0
  1 26  1  0
  2 27  1  0
  2 28  1  0
  3 29  1  0
  3 30  1  0
  4 31  1  0
  4 32  1  0
  5 33  1  0
  5 34  1  0
  7 35  1  0
  7 36  1  0
  8 37  1  0
  8 38  1  0
 11 39  1  0
 11 40  1  0
 11 41  1  0
 12 42  1  0
 12 43  1  0
 13 44  1  0
 13 45  1  0
 14 46  1  0
 14 47  1  0
 15 48  1  0
 15 49  1  0
 16 50  1  6
 17 51  1  0
 17 52  1  0
 19 53  1  0
 20 54  1  0
 21 55  1  0
 22 56  1  0
 23 57  1  0
M  CHG  1   3   1
M  END
>  <UniqueID>  (33) 
32

>  <SMILES>  (33) 
CC[NH2+]CCN1CCN(C2(C)CCC2)C[C@H]1Cc1ccccc1

>  <Energy>  (33) 
141.93947612335802

>  <Genealogy>  (33) 
CC[NH2+]CCN1CCN(C2(C)CCC2)CC1Cc1ccccc1 (protonated)
CC[NH2+]CCN1CCN(C2(C)CCC2)C[C@H]1Cc1ccccc1 (chirality)
CC[NH2+]CCN1CCN(C2(C)CCC2)C[C@H]1Cc1ccccc1 (3D coordinates assigned)
CC[NH2+]CCN1CCN(C2(C)CCC2)C[C@H]1Cc1ccccc1 (nonaromatic ring conformer: 141.93947612335802 kcal/mol)

>  <smiles>  (33) 
CCNCCN1CCN(C2(C)CCC2)CC1Cc1ccccc1

>  <score_type>  (33) 
oracle

>  <origin>  (33) 
adg

>  <m_score__min__energy>  (33) 
-5.0800000000000001

>  <m_primary>  (33) 
energy

$$$$
33:0
     RDKit          3D

 37 38  0  0  0  0  0  0  0  0999 V2000
   56.0780   30.0990   43.6630 C   0  0  0  0  0  0  0  0  0  0  0  0
   56.6350   30.6080   44.8710 O   0  0  0  0  0  0  0  0  0  0  0  0
   57.9270   30.3140   45.3390 C   0  0  0  0  0  0  0  0  0  0  0  0
   58.6370   29.1800   44.8940 C   0  0  0  0  0  0  0  0  0  0  0  0
   59.9160   28.9070   45.3870 C   0  0  0  0  0  0  0  0  0  0  0  0
   60.5000   29.7570   46.3260 C   0  0  0  0  0  0  0  0  0  0  0  0
   59.8100   30.8840   46.7740 C   0  0  0  0  0  0  0  0  0  0  0  0
   58.5270   31.1780   46.2800 C   0  0  0  0  0  0  0  0  0  0  0  0
   57.7870   32.3800   46.8060 C   0  0  0  0  0  0  0  0  0  0  0  0
   57.4780   33.2960   45.6990 N   0  0  0  0  0  0  0  0  0  0  0  0
   58.6920   33.9530   45.1830 C   0  0  0  0  0  0  0  0  0  0  0  0
   59.2580   34.9180   46.2280 C   0  0  0  0  0  0  0  0  0  0  0  0
   60.4040   34.3050   46.9890 C   0  0  0  0  0  0  0  0  0  0  0  0
   61.5420   33.8430   46.3090 C   0  0  0  0  0  0  0  0  0  0  0  0
   62.6220   33.3120   47.0210 C   0  0  0  0  0  0  0  0  0  0  0  0
   62.5780   33.2480   48.4170 C   0  0  0  0  0  0  0  0  0  0  0  0
   64.0590   32.5350   49.3890 Br  0  0  0  0  0  0  0  0  0  0  0  0
   61.4500   33.7120   49.1010 C   0  0  0  0  0  0  0  0  0  0  0  0
   60.3670   34.2410   48.3920 C   0  0  0  0  0  0  0  0  0  0  0  0
   55.2853   29.3746   43.9014 H   0  0  0  0  0  0  0  0  0  0  0  0
   55.6534   30.9277   43.0773 H   0  0  0  0  0  0  0  0  0  0  0  0
   56.8651   29.6016   43.0773 H   0  0  0  0  0  0  0  0  0  0  0  0
   58.1813   28.5057   44.1539 H   0  0  0  0  0  0  0  0  0  0  0  0
   60.4629   28.0203   45.0339 H   0  0  0  0  0  0  0  0  0  0  0  0
   61.5059   29.5386   46.7139 H   0  0  0  0  0  0  0  0  0  0  0  0
   60.2733   31.5473   47.5192 H   0  0  0  0  0  0  0  0  0  0  0  0
   56.8508   32.0533   47.2822 H   0  0  0  0  0  0  0  0  0  0  0  0
   58.4154   32.9000   47.5440 H   0  0  0  0  0  0  0  0  0  0  0  0
   57.0500   32.7350   44.9250 H   0  0  0  0  0  0  0  0  0  0  0  0
   59.4470   33.1881   44.9486 H   0  0  0  0  0  0  0  0  0  0  0  0
   58.4348   34.5187   44.2753 H   0  0  0  0  0  0  0  0  0  0  0  0
   59.6132   35.8263   45.7192 H   0  0  0  0  0  0  0  0  0  0  0  0
   58.4580   35.1551   46.9448 H   0  0  0  0  0  0  0  0  0  0  0  0
   61.5843   33.8990   45.2112 H   0  0  0  0  0  0  0  0  0  0  0  0
   63.5075   32.9441   46.4820 H   0  0  0  0  0  0  0  0  0  0  0  0
   61.4146   33.6607   50.1992 H   0  0  0  0  0  0  0  0  0  0  0  0
   59.4833   34.6082   48.9345 H   0  0  0  0  0  0  0  0  0  0  0  0
  1  2  1  0
  2  3  1  0
  3  4  2  0
  4  5  1  0
  5  6  2  0
  6  7  1  0
  7  8  2  0
  8  9  1  0
  9 10  1  0
 10 11  1  0
 11 12  1  0
 12 13  1  0
 13 14  2  0
 14 15  1  0
 15 16  2  0
 16 17  1  0
 16 18  1  0
 18 19  2  0
  8  3  1  0
 19 13  1  0
  1 20  1  0
  1 21  1  0
  1 22  1  0
  4 23  1  0
  5 24  1  0
  6 25  1  0
  7 26  1  0
  9 27  1  0
  9 28  1  0
 10 29  1  0
 11 30  1  0
 11 31  1  0
 12 32  1  0
 12 33  1  0
 14 34  1  0
 15 35  1  0
 18 36  1  0
 19 37  1  0
M  END
>  <UniqueID>  (34) 
33

>  <SMILES>  (34) 
COc1ccccc1CNCCc1ccc(Br)cc1

>  <Energy>  (34) 
32.802406345853484

>  <Genealogy>  (34) 
COc1ccccc1CNCCc1ccc(Br)cc1 (3D coordinates assigned)
COc1ccccc1CNCCc1ccc(Br)cc1 (optimized conformer: 32.802406345853484 kcal/mol)

>  <smiles>  (34) 
COc1ccccc1CNCCc1ccc(Br)cc1

>  <score_type>  (34) 
oracle

>  <origin>  (34) 
adg

>  <m_score__min__energy>  (34) 
-7.9100000000000001

>  <m_primary>  (34) 
energy

$$$$
34:0
     RDKit          3D

 54 55  0  0  0  0  0  0  0  0999 V2000
   55.9490   33.0318   44.8674 H   0  0  0  0  0  0  0  0  0  0  0  0
   57.0340   33.0390   45.0480 C   0  0  0  0  0  0  0  0  0  0  0  0
   57.8510   31.9420   44.4850 C   0  0  0  0  0  0  0  0  0  0  0  0
   58.2870   32.0750   43.3090 O   0  0  0  0  0  0  0  0  0  0  0  0
   58.1870   30.7060   45.2350 C   0  0  0  0  0  0  0  0  0  0  0  0
   59.4940   30.5430   45.7200 C   0  0  0  0  0  0  0  0  0  0  0  0
   60.2355   31.3403   45.5634 H   0  0  0  0  0  0  0  0  0  0  0  0
   59.8630   29.3820   46.3980 C   0  0  0  0  0  0  0  0  0  0  0  0
   60.8917   29.2718   46.7718 H   0  0  0  0  0  0  0  0  0  0  0  0
   58.9330   28.3540   46.6070 C   0  0  0  0  0  0  0  0  0  0  0  0
   59.3320   27.1440   47.2820 N   0  0  0  0  0  0  0  0  0  0  0  0
   60.6020   27.0870   48.0230 C   0  0  0  0  0  0  0  0  0  0  0  0
   61.3998   27.5272   47.4068 H   0  0  0  0  0  0  0  0  0  0  0  0
   60.8323   26.0357   48.2506 H   0  0  0  0  0  0  0  0  0  0  0  0
   60.4960   27.8610   49.3330 C   0  0  0  0  0  0  0  0  0  0  0  0
   60.5914   27.1646   50.1791 H   0  0  0  0  0  0  0  0  0  0  0  0
   61.2999   28.6102   49.3823 H   0  0  0  0  0  0  0  0  0  0  0  0
   59.5202   28.3664   49.3823 H   0  0  0  0  0  0  0  0  0  0  0  0
   58.5010   25.9360   47.1740 C   0  0  0  0  0  0  0  0  0  0  0  0
   58.7487   25.2503   47.9977 H   0  0  0  0  0  0  0  0  0  0  0  0
   57.4410   26.2247   47.2299 H   0  0  0  0  0  0  0  0  0  0  0  0
   58.7550   25.2360   45.8430 C   0  0  0  0  0  0  0  0  0  0  0  0
   59.1248   24.2169   46.0294 H   0  0  0  0  0  0  0  0  0  0  0  0
   57.8174   25.1868   45.2698 H   0  0  0  0  0  0  0  0  0  0  0  0
   59.5060   25.7995   45.2698 H   0  0  0  0  0  0  0  0  0  0  0  0
   57.6260   28.5040   46.1150 C   0  0  0  0  0  0  0  0  0  0  0  0
   56.8891   27.7040   46.2793 H   0  0  0  0  0  0  0  0  0  0  0  0
   57.2460   29.6670   45.4130 C   0  0  0  0  0  0  0  0  0  0  0  0
   55.9600   29.8060   44.8620 O   0  0  0  0  0  0  0  0  0  0  0  0
   55.6580   29.7260   43.4720 C   0  0  0  0  0  0  0  0  0  0  0  0
   54.6022   29.4463   43.3417 H   0  0  0  0  0  0  0  0  0  0  0  0
   55.8393   30.7032   43.0005 H   0  0  0  0  0  0  0  0  0  0  0  0
   56.2993   28.9668   43.0005 H   0  0  0  0  0  0  0  0  0  0  0  0
   57.5560   34.0410   45.7680 C   0  0  0  0  0  0  0  0  0  0  0  0
   56.9989   34.9876   45.8283 H   0  0  0  0  0  0  0  0  0  0  0  0
   58.8490   33.9360   46.4880 C   0  0  0  0  0  0  0  0  0  0  0  0
   58.9250   33.5890   47.8480 C   0  0  0  0  0  0  0  0  0  0  0  0
   58.0020   33.4027   48.4166 H   0  0  0  0  0  0  0  0  0  0  0  0
   60.1660   33.4790   48.4830 C   0  0  0  0  0  0  0  0  0  0  0  0
   60.2085   33.1999   49.5462 H   0  0  0  0  0  0  0  0  0  0  0  0
   61.3640   33.7210   47.7790 C   0  0  0  0  0  0  0  0  0  0  0  0
   62.6510   33.5960   48.4380 N   0  0  0  0  0  0  0  0  0  0  0  0
   63.7610   32.8960   47.7800 C   0  0  0  0  0  0  0  0  0  0  0  0
   64.4314   32.4732   48.5427 H   0  0  0  0  0  0  0  0  0  0  0  0
   63.3626   32.0854   47.1521 H   0  0  0  0  0  0  0  0  0  0  0  0
   64.3207   33.6048   47.1521 H   0  0  0  0  0  0  0  0  0  0  0  0
   62.8660   34.1740   49.7700 C   0  0  0  0  0  0  0  0  0  0  0  0
   62.5916   33.4363   50.5385 H   0  0  0  0  0  0  0  0  0  0  0  0
   63.9256   34.4463   49.8849 H   0  0  0  0  0  0  0  0  0  0  0  0
   62.2420   35.0725   49.8849 H   0  0  0  0  0  0  0  0  0  0  0  0
   61.2770   34.0840   46.4210 C   0  0  0  0  0  0  0  0  0  0  0  0
   62.1973   34.2803   45.8513 H   0  0  0  0  0  0  0  0  0  0  0  0
   60.0360   34.1980   45.7880 C   0  0  0  0  0  0  0  0  0  0  0  0
   59.9897   34.4962   44.7302 H   0  0  0  0  0  0  0  0  0  0  0  0
  1  2  1  0
  2  3  1  0
  3  4  2  0
  3  5  1  0
  5  6  2  0
  6  7  1  0
  6  8  1  0
  8  9  1  0
  8 10  2  0
 10 11  1  0
 11 12  1  0
 12 13  1  0
 12 14  1  0
 12 15  1  0
 15 16  1  0
 15 17  1  0
 15 18  1  0
 11 19  1  0
 19 20  1  0
 19 21  1  0
 19 22  1  0
 22 23  1  0
 22 24  1  0
 22 25  1  0
 10 26  1  0
 26 27  1  0
 26 28  2  0
 28 29  1  0
 29 30  1  0
 30 31  1  0
 30 32  1  0
 30 33  1  0
  2 34  2  0
 34 35  1  0
 34 36  1  0
 36 37  2  0
 37 38  1  0
 37 39  1  0
 39 40  1  0
 39 41  2  0
 41 42  1  0
 42 43  1  0
 43 44  1  0
 43 45  1  0
 43 46  1  0
 42 47  1  0
 47 48  1  0
 47 49  1  0
 47 50  1  0
 41 51  1  0
 51 52  1  0
 51 53  2  0
 53 54  1  0
 28  5  1  0
 53 36  1  0
M  END
>  <UniqueID>  (35) 
34

>  <SMILES>  (35) 
CCN(CC)c1ccc(C(=O)/C=C/c2ccc(N(C)C)cc2)c(OC)c1

>  <Energy>  (35) 
60.08055524637304

>  <Genealogy>  (35) 
CCN(CC)c1ccc(C(=O)/C=C/c2ccc(N(C)C)cc2)c(OC)c1 (cis-trans isomerization)
CCN(CC)c1ccc(C(=O)/C=C/c2ccc(N(C)C)cc2)c(OC)c1 (3D coordinates assigned)
CCN(CC)c1ccc(C(=O)/C=C/c2ccc(N(C)C)cc2)c(OC)c1 (optimized conformer: 60.08055524637304 kcal/mol)

>  <smiles>  (35) 
CCN(CC)c1ccc(C(=O)C=Cc2ccc(N(C)C)cc2)c(OC)c1

>  <score_type>  (35) 
oracle

>  <origin>  (35) 
adg

>  <m_score__min__energy>  (35) 
-7.3600000000000003

>  <m_primary>  (35) 
energy

$$$$
35:0
     RDKit          3D

 40 42  0  0  0  0  0  0  0  0999 V2000
   61.6590   30.6820   46.7710 O   0  0  0  0  0  0  0  0  0  0  0  0
   60.1770   30.7280   47.0240 S   0  0  0  0  0  0  0  0  0  0  0  0
   59.9500   30.6570   48.5080 O   0  0  0  0  0  0  0  0  0  0  0  0
   59.4240   29.3510   46.2260 C   0  0  0  0  0  0  0  0  0  0  0  0
   59.7420   29.0460   44.8940 C   0  0  0  0  0  0  0  0  0  0  0  0
   59.1350   27.9590   44.2570 C   0  0  0  0  0  0  0  0  0  0  0  0
   58.2120   27.1690   44.9490 C   0  0  0  0  0  0  0  0  0  0  0  0
   57.9000   27.4610   46.2790 C   0  0  0  0  0  0  0  0  0  0  0  0
   58.5060   28.5480   46.9190 C   0  0  0  0  0  0  0  0  0  0  0  0
   59.5060   32.2440   46.4040 C   0  0  0  0  0  0  0  0  0  0  0  0
   58.2530   32.2190   45.7690 C   0  0  0  0  0  0  0  0  0  0  0  0
   57.6910   33.3900   45.2590 C   0  0  0  0  0  0  0  0  0  0  0  0
   58.3700   34.6020   45.3800 C   0  0  0  0  0  0  0  0  0  0  0  0
   59.6140   34.6450   46.0140 C   0  0  0  0  0  0  0  0  0  0  0  0
   60.1890   33.4760   46.5330 C   0  0  0  0  0  0  0  0  0  0  0  0
   61.4600   33.5660   47.1950 N   0  0  0  0  0  0  0  0  0  0  0  0
   62.6770   33.8400   46.4260 C   0  0  0  0  0  0  0  0  0  0  0  0
   63.7710   32.7990   46.7380 C   0  0  0  0  0  0  0  0  0  0  0  0
   63.7100   32.2520   48.1130 N   0  0  0  0  0  0  0  0  0  0  0  0
   63.0070   33.1290   49.0610 C   0  0  0  0  0  0  0  0  0  0  0  0
   61.5460   33.2970   48.6330 C   0  0  0  0  0  0  0  0  0  0  0  0
   60.4710   29.6637   44.3490 H   0  0  0  0  0  0  0  0  0  0  0  0
   59.3838   27.7255   43.2113 H   0  0  0  0  0  0  0  0  0  0  0  0
   57.7313   26.3171   44.4459 H   0  0  0  0  0  0  0  0  0  0  0  0
   57.1772   26.8359   46.8238 H   0  0  0  0  0  0  0  0  0  0  0  0
   58.2620   28.7732   47.9677 H   0  0  0  0  0  0  0  0  0  0  0  0
   57.7098   31.2673   45.6730 H   0  0  0  0  0  0  0  0  0  0  0  0
   56.7109   33.3570   44.7608 H   0  0  0  0  0  0  0  0  0  0  0  0
   57.9261   35.5240   44.9763 H   0  0  0  0  0  0  0  0  0  0  0  0
   60.1465   35.6030   46.1068 H   0  0  0  0  0  0  0  0  0  0  0  0
   62.4405   33.8032   45.3523 H   0  0  0  0  0  0  0  0  0  0  0  0
   63.0509   34.8367   46.7031 H   0  0  0  0  0  0  0  0  0  0  0  0
   63.6661   31.9644   46.0291 H   0  0  0  0  0  0  0  0  0  0  0  0
   64.7373   33.3163   46.6448 H   0  0  0  0  0  0  0  0  0  0  0  0
   64.6840   32.0950   48.4620 H   0  0  0  0  0  0  0  0  0  0  0  0
   63.2300   31.3200   48.0950 H   0  0  0  0  0  0  0  0  0  0  0  0
   63.0434   32.6830   50.0659 H   0  0  0  0  0  0  0  0  0  0  0  0
   63.4959   34.1143   49.0727 H   0  0  0  0  0  0  0  0  0  0  0  0
   60.9932   32.3740   48.8623 H   0  0  0  0  0  0  0  0  0  0  0  0
   61.1104   34.1459   49.1803 H   0  0  0  0  0  0  0  0  0  0  0  0
  1  2  2  0
  2  3  2  0
  2  4  1  0
  4  5  2  0
  5  6  1  0
  6  7  2  0
  7  8  1  0
  8  9  2  0
  2 10  1  0
 10 11  2  0
 11 12  1  0
 12 13  2  0
 13 14  1  0
 14 15  2  0
 15 16  1  0
 16 17  1  0
 17 18  1  0
 18 19  1  0
 19 20  1  0
 20 21  1  0
  9  4  1  0
 15 10  1  0
 21 16  1  0
  5 22  1  0
  6 23  1  0
  7 24  1  0
  8 25  1  0
  9 26  1  0
 11 27  1  0
 12 28  1  0
 13 29  1  0
 14 30  1  0
 17 31  1  0
 17 32  1  0
 18 33  1  0
 18 34  1  0
 19 35  1  0
 19 36  1  0
 20 37  1  0
 20 38  1  0
 21 39  1  0
 21 40  1  0
M  CHG  1  19   1
M  END
>  <UniqueID>  (36) 
35

>  <SMILES>  (36) 
O=S(=O)(c1ccccc1)c1ccccc1N1CC[NH2+]CC1

>  <Energy>  (36) 
52.5354367110193

>  <Genealogy>  (36) 
O=S(=O)(c1ccccc1)c1ccccc1N1CC[NH2+]CC1 (protonated)
O=S(=O)(c1ccccc1)c1ccccc1N1CC[NH2+]CC1 (3D coordinates assigned)
O=S(=O)(c1ccccc1)c1ccccc1N1CC[NH2+]CC1 (nonaromatic ring conformer: 52.5354367110193 kcal/mol)

>  <smiles>  (36) 
O=S(=O)(c1ccccc1)c1ccccc1N1CCNCC1

>  <score_type>  (36) 
oracle

>  <origin>  (36) 
adg

>  <m_score__min__energy>  (36) 
-5.6299999999999999

>  <m_primary>  (36) 
energy

$$$$
36:0
     RDKit          3D

 63 66  0  0  0  0  0  0  0  0999 V2000
   61.0730   29.8890   47.7650 H   0  0  0  0  0  0  0  0  0  0  0  0
   60.7230   29.7580   46.8280 O   0  0  0  0  0  0  0  0  0  0  0  0
   59.3870   29.4980   46.4970 C   0  0  0  0  0  0  0  0  0  0  0  0
   58.6380   30.4250   45.7310 C   0  0  0  0  0  0  0  0  0  0  0  0
   59.1290   31.7170   45.4310 C   0  0  0  0  0  0  0  0  0  0  0  0
   60.1156   32.0238   45.8085 H   0  0  0  0  0  0  0  0  0  0  0  0
   58.3790   32.6070   44.6630 C   0  0  0  0  0  0  0  0  0  0  0  0
   58.7836   33.6023   44.4271 H   0  0  0  0  0  0  0  0  0  0  0  0
   57.1220   32.2420   44.1940 C   0  0  0  0  0  0  0  0  0  0  0  0
   56.5358   32.9465   43.5857 H   0  0  0  0  0  0  0  0  0  0  0  0
   56.6050   30.9830   44.4950 C   0  0  0  0  0  0  0  0  0  0  0  0
   55.6078   30.7012   44.1260 H   0  0  0  0  0  0  0  0  0  0  0  0
   57.3480   30.0670   45.2680 C   0  0  0  0  0  0  0  0  0  0  0  0
   56.8090   28.8090   45.5790 C   0  0  0  0  0  0  0  0  0  0  0  0
   55.5320   28.4970   45.1130 O   0  0  0  0  0  0  0  0  0  0  0  0
   57.5320   27.8890   46.3720 C   0  0  0  0  0  0  0  0  0  0  0  0
   57.0200   26.5910   46.6510 C   0  0  0  0  0  0  0  0  0  0  0  0
   55.8310   26.0860   46.0280 N   0  0  0  0  0  0  0  0  0  0  0  0
   55.8140   25.0900   45.1890 C   0  0  0  0  0  0  0  0  0  0  0  0
   55.3666   25.2466   44.1964 H   0  0  0  0  0  0  0  0  0  0  0  0
   56.3790   23.7350   45.5170 C   0  0  0  0  0  0  0  0  0  0  0  0
   56.6709   23.2283   44.5853 H   0  0  0  0  0  0  0  0  0  0  0  0
   57.2566   23.8611   46.1681 H   0  0  0  0  0  0  0  0  0  0  0  0
   55.3680   22.9140   46.2240 N   0  0  0  0  0  0  0  0  0  0  0  0
   55.1950   23.2970   47.6420 C   0  0  0  0  0  0  0  0  0  0  0  0
   55.3692   24.3788   47.7387 H   0  0  0  0  0  0  0  0  0  0  0  0
   54.1719   23.0232   47.9391 H   0  0  0  0  0  0  0  0  0  0  0  0
   56.1700   22.5530   48.5800 C   0  0  0  0  0  0  0  0  0  0  0  0
   56.5623   23.2615   49.3244 H   0  0  0  0  0  0  0  0  0  0  0  0
   55.6232   21.7353   49.0723 H   0  0  0  0  0  0  0  0  0  0  0  0
   57.2490   21.9980   47.8600 O   0  0  0  0  0  0  0  0  0  0  0  0
   56.7750   20.9840   46.9950 C   0  0  0  0  0  0  0  0  0  0  0  0
   57.6066   20.6474   46.3585 H   0  0  0  0  0  0  0  0  0  0  0  0
   56.3860   20.1680   47.6217 H   0  0  0  0  0  0  0  0  0  0  0  0
   55.6200   21.4660   46.0860 C   0  0  0  0  0  0  0  0  0  0  0  0
   55.8795   21.2499   45.0391 H   0  0  0  0  0  0  0  0  0  0  0  0
   54.7066   20.9340   46.3904 H   0  0  0  0  0  0  0  0  0  0  0  0
   57.7080   25.7370   47.5090 C   0  0  0  0  0  0  0  0  0  0  0  0
   57.2871   24.7486   47.7453 H   0  0  0  0  0  0  0  0  0  0  0  0
   58.9160   26.1180   48.0680 C   0  0  0  0  0  0  0  0  0  0  0  0
   59.4379   25.4314   48.7508 H   0  0  0  0  0  0  0  0  0  0  0  0
   59.4820   27.3630   47.7770 C   0  0  0  0  0  0  0  0  0  0  0  0
   60.6970   27.7290   48.4540 N   0  0  0  0  0  0  0  0  0  0  0  0
   61.4370   28.2260   47.9070 H   0  0  0  0  0  0  0  0  0  0  0  0
   60.8220   27.6800   49.9110 C   0  0  0  0  0  0  0  0  0  0  0  0
   61.5708   26.9218   50.1838 H   0  0  0  0  0  0  0  0  0  0  0  0
   59.8431   27.4220   50.3412 H   0  0  0  0  0  0  0  0  0  0  0  0
   61.2590   29.0390   50.4630 C   0  0  0  0  0  0  0  0  0  0  0  0
   62.3381   29.0116   50.6749 H   0  0  0  0  0  0  0  0  0  0  0  0
   60.6920   29.2435   51.3832 H   0  0  0  0  0  0  0  0  0  0  0  0
   60.9840   30.1170   49.4890 N   0  0  0  0  0  0  0  0  0  0  0  0
   62.0190   31.1660   49.5060 C   0  0  0  0  0  0  0  0  0  0  0  0
   62.2681   31.4185   50.5473 H   0  0  0  0  0  0  0  0  0  0  0  0
   62.9200   30.8004   48.9917 H   0  0  0  0  0  0  0  0  0  0  0  0
   61.6414   32.0621   48.9917 H   0  0  0  0  0  0  0  0  0  0  0  0
   59.6170   30.6730   49.6220 C   0  0  0  0  0  0  0  0  0  0  0  0
   59.4050   30.8173   50.6917 H   0  0  0  0  0  0  0  0  0  0  0  0
   58.9335   29.9534   49.1477 H   0  0  0  0  0  0  0  0  0  0  0  0
   59.4160   32.0130   48.9060 C   0  0  0  0  0  0  0  0  0  0  0  0
   59.2960   32.8128   49.6516 H   0  0  0  0  0  0  0  0  0  0  0  0
   60.2921   32.2273   48.2762 H   0  0  0  0  0  0  0  0  0  0  0  0
   58.5156   31.9608   48.2762 H   0  0  0  0  0  0  0  0  0  0  0  0
   58.8050   28.2640   46.8990 C   0  0  0  0  0  0  0  0  0  0  0  0
  1  2  1  0
  2  3  1  0
  3  4  2  0
  4  5  1  0
  5  6  1  0
  5  7  2  0
  7  8  1  0
  7  9  1  0
  9 10  1  0
  9 11  2  0
 11 12  1  0
 11 13  1  0
 13 14  2  0
 14 15  1  0
 14 16  1  0
 16 17  2  0
 17 18  1  0
 18 19  2  0
 19 20  1  0
 19 21  1  0
 21 22  1  0
 21 23  1  0
 21 24  1  0
 24 25  1  0
 25 26  1  0
 25 27  1  0
 25 28  1  0
 28 29  1  0
 28 30  1  0
 28 31  1  0
 31 32  1  0
 32 33  1  0
 32 34  1  0
 32 35  1  0
 35 36  1  0
 35 37  1  0
 17 38  1  0
 38 39  1  0
 38 40  2  0
 40 41  1  0
 40 42  1  0
 42 43  1  0
 43 44  1  0
 43 45  1  0
 45 46  1  0
 45 47  1  0
 45 48  1  0
 48 49  1  0
 48 50  1  0
 48 51  1  0
 51 52  1  0
 52 53  1  0
 52 54  1  0
 52 55  1  0
 51 56  1  0
 56 57  1  0
 56 58  1  0
 56 59  1  0
 59 60  1  0
 59 61  1  0
 59 62  1  0
 42 63  2  0
 63  3  1  0
 13  4  1  0
 63 16  1  0
 35 24  1  0
M  CHG  1  15  -1
M  END
>  <UniqueID>  (37) 
36

>  <SMILES>  (37) 
CCN(C)CCNc1ccc(/N=C\CN2CCOCC2)c2c([O-])c3ccccc3c(O)c12

>  <Energy>  (37) 
107.20804767547648

>  <Genealogy>  (37) 
CCN(C)CCNc1ccc(N=CCN2CCOCC2)c2c([O-])c3ccccc3c(O)c12 (protonated)
CCN(C)CCNc1ccc(/N=C\CN2CCOCC2)c2c([O-])c3ccccc3c(O)c12 (cis-trans isomerization)
CCN(C)CCNc1ccc(/N=C\CN2CCOCC2)c2c([O-])c3ccccc3c(O)c12 (3D coordinates assigned)
CCN(C)CCNc1ccc(/N=C\CN2CCOCC2)c2c([O-])c3ccccc3c(O)c12 (nonaromatic ring conformer: 107.20804767547648 kcal/mol)

>  <smiles>  (37) 
CCN(C)CCNc1ccc(N=CCN2CCOCC2)c2c(O)c3ccccc3c(O)c12

>  <score_type>  (37) 
oracle

>  <origin>  (37) 
adg

>  <m_score__min__energy>  (37) 
-10.09

>  <m_primary>  (37) 
energy

$$$$
37:0
     RDKit          3D

 49 51  0  0  0  0  0  0  0  0999 V2000
   55.1290   24.0820   44.8670 C   0  0  0  0  0  0  0  0  0  0  0  0
   54.2160   25.0450   45.6190 C   0  0  0  0  0  0  0  0  0  0  0  0
   54.9270   26.2730   45.9690 N   0  0  0  0  0  0  0  0  0  0  0  0
   56.3310   26.4130   46.2400 C   0  0  0  0  0  0  0  0  0  0  0  0
   56.9510   25.4180   46.7010 O   0  0  0  0  0  0  0  0  0  0  0  0
   57.0880   27.7000   45.9940 C   0  0  2  0  0  0  0  0  0  0  0  0
   56.2580   28.6810   45.1320 C   0  0  0  0  0  0  0  0  0  0  0  0
   57.0880   29.4120   44.0580 C   0  0  0  0  0  0  0  0  0  0  0  0
   58.4450   29.8070   44.5070 N   0  0  1  0  0  0  0  0  0  0  0  0
   58.4330   31.0410   45.2790 C   0  0  0  0  0  0  0  0  0  0  0  0
   57.3810   31.7370   45.3130 O   0  0  0  0  0  0  0  0  0  0  0  0
   59.6020   31.5240   46.0480 C   0  0  0  0  0  0  0  0  0  0  0  0
   60.4330   30.7160   46.8210 C   0  0  0  0  0  0  0  0  0  0  0  0
   61.4360   31.5430   47.2640 C   0  0  0  0  0  0  0  0  0  0  0  0
   62.5370   31.2640   48.0720 C   0  0  0  0  0  0  0  0  0  0  0  0
   63.4320   32.3130   48.3470 C   0  0  0  0  0  0  0  0  0  0  0  0
   63.2150   33.5980   47.8030 C   0  0  0  0  0  0  0  0  0  0  0  0
   62.0980   33.8460   46.9850 C   0  0  0  0  0  0  0  0  0  0  0  0
   61.2130   32.7900   46.7400 C   0  0  0  0  0  0  0  0  0  0  0  0
   60.0940   32.7930   45.9840 N   0  0  0  0  0  0  0  0  0  0  0  0
   59.5370   33.9360   45.2470 C   0  0  0  0  0  0  0  0  0  0  0  0
   58.3660   34.5570   46.0040 C   0  0  0  0  0  0  0  0  0  0  0  0
   59.2370   28.7230   45.1550 C   0  0  0  0  0  0  0  0  0  0  0  0
   58.4540   27.4140   45.3610 C   0  0  0  0  0  0  0  0  0  0  0  0
   55.7003   23.4794   45.5885 H   0  0  0  0  0  0  0  0  0  0  0  0
   54.5208   23.4181   44.2351 H   0  0  0  0  0  0  0  0  0  0  0  0
   55.8244   24.6540   44.2351 H   0  0  0  0  0  0  0  0  0  0  0  0
   53.3552   25.2965   44.9820 H   0  0  0  0  0  0  0  0  0  0  0  0
   53.8792   24.5579   46.5460 H   0  0  0  0  0  0  0  0  0  0  0  0
   57.2628   28.1851   46.9657 H   0  0  0  0  0  0  0  0  0  0  0  0
   55.4610   28.1136   44.6292 H   0  0  0  0  0  0  0  0  0  0  0  0
   55.8596   29.4496   45.8107 H   0  0  0  0  0  0  0  0  0  0  0  0
   57.1919   28.7458   43.1889 H   0  0  0  0  0  0  0  0  0  0  0  0
   56.5498   30.3411   43.8189 H   0  0  0  0  0  0  0  0  0  0  0  0
   58.9540   30.0370   43.6180 H   0  0  0  0  0  0  0  0  0  0  0  0
   60.3115   29.6432   47.0318 H   0  0  0  0  0  0  0  0  0  0  0  0
   62.7004   30.2561   48.4811 H   0  0  0  0  0  0  0  0  0  0  0  0
   64.3062   32.1317   48.9896 H   0  0  0  0  0  0  0  0  0  0  0  0
   63.9242   34.4103   48.0204 H   0  0  0  0  0  0  0  0  0  0  0  0
   61.9250   34.8415   46.5503 H   0  0  0  0  0  0  0  0  0  0  0  0
   60.3220   34.6949   45.1135 H   0  0  0  0  0  0  0  0  0  0  0  0
   59.1744   33.5806   44.2712 H   0  0  0  0  0  0  0  0  0  0  0  0
   58.5391   34.4652   47.0864 H   0  0  0  0  0  0  0  0  0  0  0  0
   58.2783   35.6201   45.7356 H   0  0  0  0  0  0  0  0  0  0  0  0
   57.4367   34.0332   45.7356 H   0  0  0  0  0  0  0  0  0  0  0  0
   60.1109   28.5076   44.5226 H   0  0  0  0  0  0  0  0  0  0  0  0
   59.5172   29.0872   46.1544 H   0  0  0  0  0  0  0  0  0  0  0  0
   58.3064   26.9234   44.3876 H   0  0  0  0  0  0  0  0  0  0  0  0
   59.0273   26.7583   46.0329 H   0  0  0  0  0  0  0  0  0  0  0  0
  1  2  1  0
  2  3  1  0
  3  4  1  0
  4  5  2  0
  4  6  1  0
  6  7  1  0
  7  8  1  0
  8  9  1  0
  9 10  1  0
 10 11  2  0
 10 12  1  0
 12 13  2  0
 13 14  1  0
 14 15  2  0
 15 16  1  0
 16 17  2  0
 17 18  1  0
 18 19  2  0
 19 20  1  0
 20 21  1  0
 21 22  1  0
  9 23  1  0
 23 24  1  0
 24  6  1  0
 20 12  1  0
 19 14  1  0
  1 25  1  0
  1 26  1  0
  1 27  1  0
  2 28  1  0
  2 29  1  0
  6 30  1  1
  7 31  1  0
  7 32  1  0
  8 33  1  0
  8 34  1  0
  9 35  1  6
 13 36  1  0
 15 37  1  0
 16 38  1  0
 17 39  1  0
 18 40  1  0
 21 41  1  0
 21 42  1  0
 22 43  1  0
 22 44  1  0
 22 45  1  0
 23 46  1  0
 23 47  1  0
 24 48  1  0
 24 49  1  0
M  CHG  2   3  -1   9   1
M  END
>  <UniqueID>  (38) 
37

>  <SMILES>  (38) 
CC[N-]C(=O)C1CC[NH+](C(=O)c2cc3ccccc3n2CC)CC1

>  <Energy>  (38) 
94.10709839552217

>  <Genealogy>  (38) 
CC[N-]C(=O)C1CC[NH+](C(=O)c2cc3ccccc3n2CC)CC1 (protonated)
CC[N-]C(=O)C1CC[NH+](C(=O)c2cc3ccccc3n2CC)CC1 (3D coordinates assigned)
CC[N-]C(=O)C1CC[NH+](C(=O)c2cc3ccccc3n2CC)CC1 (nonaromatic ring conformer: 94.10709839552217 kcal/mol)

>  <smiles>  (38) 
CCNC(=O)C1CCN(C(=O)c2cc3ccccc3n2CC)CC1

>  <score_type>  (38) 
oracle

>  <origin>  (38) 
adg

>  <m_score__min__energy>  (38) 
-8.7799999999999994

>  <m_primary>  (38) 
energy

$$$$
38:0
     RDKit          3D

 38 39  0  0  0  0  0  0  0  0999 V2000
   58.8860   34.2450   44.9210 C   0  0  0  0  0  0  0  0  0  0  0  0
   59.6060   34.9120   46.1040 C   0  0  0  0  0  0  0  0  0  0  0  0
   60.1490   33.9610   47.1070 N   0  0  0  0  0  0  0  0  0  0  0  0
   59.2710   33.8300   48.2940 C   0  0  0  0  0  0  0  0  0  0  0  0
   58.1630   32.8250   48.0050 C   0  0  0  0  0  0  0  0  0  0  0  0
   61.5650   34.1880   47.4780 C   0  0  0  0  0  0  0  0  0  0  0  0
   62.5050   33.2200   46.7550 C   0  0  0  0  0  0  0  0  0  0  0  0
   62.9500   31.8410   47.8620 S   0  0  0  0  0  0  0  0  0  0  0  0
   61.4630   30.9190   47.4900 C   0  0  0  0  0  0  0  0  0  0  0  0
   60.9440   29.9610   48.2750 N   0  0  0  0  0  0  0  0  0  0  0  0
   59.8510   29.5130   47.6820 N   0  0  0  0  0  0  0  0  0  0  0  0
   59.7430   30.2260   46.5400 C   0  0  0  0  0  0  0  0  0  0  0  0
   58.6570   30.0610   45.5550 C   0  0  0  0  0  0  0  0  0  0  0  0
   58.6030   28.9200   44.7410 C   0  0  0  0  0  0  0  0  0  0  0  0
   57.5720   28.7720   43.8100 C   0  0  0  0  0  0  0  0  0  0  0  0
   56.6020   29.7680   43.7020 C   0  0  0  0  0  0  0  0  0  0  0  0
   56.6650   30.8700   44.4960 N   0  0  0  0  0  0  0  0  0  0  0  0
   57.6590   31.0380   45.4090 C   0  0  0  0  0  0  0  0  0  0  0  0
   60.7290   31.0880   46.4180 O   0  0  0  0  0  0  0  0  0  0  0  0
   58.1287   33.5435   45.3010 H   0  0  0  0  0  0  0  0  0  0  0  0
   58.3966   35.0160   44.3077 H   0  0  0  0  0  0  0  0  0  0  0  0
   59.6174   33.6982   44.3077 H   0  0  0  0  0  0  0  0  0  0  0  0
   60.4414   35.5073   45.7069 H   0  0  0  0  0  0  0  0  0  0  0  0
   58.8540   35.5225   46.6253 H   0  0  0  0  0  0  0  0  0  0  0  0
   59.8654   33.4823   49.1518 H   0  0  0  0  0  0  0  0  0  0  0  0
   58.8242   34.8080   48.5262 H   0  0  0  0  0  0  0  0  0  0  0  0
   57.7506   32.4510   48.9537 H   0  0  0  0  0  0  0  0  0  0  0  0
   57.3658   33.3145   47.4263 H   0  0  0  0  0  0  0  0  0  0  0  0
   58.5726   31.9840   47.4263 H   0  0  0  0  0  0  0  0  0  0  0  0
   61.8419   35.2187   47.2116 H   0  0  0  0  0  0  0  0  0  0  0  0
   61.6661   34.0182   48.5601 H   0  0  0  0  0  0  0  0  0  0  0  0
   62.0016   32.8222   45.8615 H   0  0  0  0  0  0  0  0  0  0  0  0
   63.4190   33.7562   46.4600 H   0  0  0  0  0  0  0  0  0  0  0  0
   61.3160   29.6190   49.1880 H   0  0  0  0  0  0  0  0  0  0  0  0
   59.3735   28.1407   44.8358 H   0  0  0  0  0  0  0  0  0  0  0  0
   57.5258   27.8793   43.1690 H   0  0  0  0  0  0  0  0  0  0  0  0
   55.7847   29.6620   42.9734 H   0  0  0  0  0  0  0  0  0  0  0  0
   57.6812   31.9422   46.0351 H   0  0  0  0  0  0  0  0  0  0  0  0
  1  2  1  0
  2  3  1  0
  3  4  1  0
  4  5  1  0
  3  6  1  0
  6  7  1  0
  7  8  1  0
  8  9  1  0
  9 10  2  0
 10 11  1  0
 11 12  2  0
 12 13  1  0
 13 14  2  0
 14 15  1  0
 15 16  2  0
 16 17  1  0
 17 18  2  0
 12 19  1  0
 19  9  1  0
 18 13  1  0
  1 20  1  0
  1 21  1  0
  1 22  1  0
  2 23  1  0
  2 24  1  0
  4 25  1  0
  4 26  1  0
  5 27  1  0
  5 28  1  0
  5 29  1  0
  6 30  1  0
  6 31  1  0
  7 32  1  0
  7 33  1  0
 10 34  1  0
 14 35  1  0
 15 36  1  0
 16 37  1  0
 18 38  1  0
M  CHG  1  10   1
M  END
>  <UniqueID>  (39) 
38

>  <SMILES>  (39) 
CCN(CC)CCSc1[nH+]nc(-c2cccnc2)o1

>  <Energy>  (39) 
71.27706856648983

>  <Genealogy>  (39) 
CCN(CC)CCSc1[nH+]nc(-c2cccnc2)o1 (protonated)
CCN(CC)CCSc1[nH+]nc(-c2cccnc2)o1 (3D coordinates assigned)
CCN(CC)CCSc1[nH+]nc(-c2cccnc2)o1 (optimized conformer: 71.27706856648983 kcal/mol)

>  <smiles>  (39) 
CCN(CC)CCSc1nnc(-c2cccnc2)o1

>  <score_type>  (39) 
oracle

>  <origin>  (39) 
adg

>  <m_score__min__energy>  (39) 
-5.0199999999999996

>  <m_primary>  (39) 
energy

$$$$
39:0
     RDKit          3D

 47 50  0  0  0  0  0  0  0  0999 V2000
   63.7500   33.2980   47.1870 C   0  0  0  0  0  0  0  0  0  0  0  0
   63.5750   32.3940   48.4100 C   0  0  0  0  0  0  0  0  0  0  0  0
   62.2560   31.7370   48.4420 N   0  0  0  0  0  0  0  0  0  0  0  0
   62.1000   30.8590   49.6140 C   0  0  0  0  0  0  0  0  0  0  0  0
   60.7740   30.0900   49.5450 C   0  0  0  0  0  0  0  0  0  0  0  0
   60.7590   29.1810   48.3970 N   0  0  0  0  0  0  0  0  0  0  0  0
   59.8430   29.3480   47.2990 C   0  0  0  0  0  0  0  0  0  0  0  0
   59.1080   28.2620   46.7580 C   0  0  0  0  0  0  0  0  0  0  0  0
   59.2960   26.9470   47.2310 C   0  0  0  0  0  0  0  0  0  0  0  0
   58.5320   25.8940   46.7350 C   0  0  0  0  0  0  0  0  0  0  0  0
   57.5660   26.1270   45.7630 C   0  0  0  0  0  0  0  0  0  0  0  0
   57.3800   27.4080   45.2470 C   0  0  0  0  0  0  0  0  0  0  0  0
   58.1680   28.4970   45.6930 C   0  0  0  0  0  0  0  0  0  0  0  0
   58.0370   29.7630   45.1390 N   0  0  0  0  0  0  0  0  0  0  0  0
   57.3010   29.9900   43.8840 C   0  0  0  0  0  0  0  0  0  0  0  0
   58.6800   30.8020   45.7570 C   0  0  0  0  0  0  0  0  0  0  0  0
   59.5790   30.6130   46.7830 C   0  0  0  0  0  0  0  0  0  0  0  0
   60.0820   31.7590   47.1910 O   0  0  0  0  0  0  0  0  0  0  0  0
   59.5220   32.7050   46.4700 C   0  0  0  0  0  0  0  0  0  0  0  0
   59.7420   34.0750   46.5810 C   0  0  0  0  0  0  0  0  0  0  0  0
   58.9940   34.9320   45.7570 C   0  0  0  0  0  0  0  0  0  0  0  0
   58.0390   34.4080   44.8610 C   0  0  0  0  0  0  0  0  0  0  0  0
   57.8350   33.0200   44.7630 C   0  0  0  0  0  0  0  0  0  0  0  0
   58.6230   32.1800   45.5610 C   0  0  0  0  0  0  0  0  0  0  0  0
   63.9494   34.3279   47.5179 H   0  0  0  0  0  0  0  0  0  0  0  0
   64.5950   32.9371   46.5822 H   0  0  0  0  0  0  0  0  0  0  0  0
   62.8314   33.2785   46.5822 H   0  0  0  0  0  0  0  0  0  0  0  0
   64.3550   31.6186   48.3900 H   0  0  0  0  0  0  0  0  0  0  0  0
   63.6557   33.0257   49.3069 H   0  0  0  0  0  0  0  0  0  0  0  0
   61.5270   32.4870   48.4840 H   0  0  0  0  0  0  0  0  0  0  0  0
   62.1090   31.1880   47.5620 H   0  0  0  0  0  0  0  0  0  0  0  0
   62.9327   30.1407   49.6401 H   0  0  0  0  0  0  0  0  0  0  0  0
   62.1014   31.4793   50.5224 H   0  0  0  0  0  0  0  0  0  0  0  0
   60.6471   29.5064   50.4687 H   0  0  0  0  0  0  0  0  0  0  0  0
   59.9526   30.8130   49.4329 H   0  0  0  0  0  0  0  0  0  0  0  0
   61.4670   28.4140   48.3540 H   0  0  0  0  0  0  0  0  0  0  0  0
   60.0559   26.7506   48.0017 H   0  0  0  0  0  0  0  0  0  0  0  0
   58.6934   24.8739   47.1137 H   0  0  0  0  0  0  0  0  0  0  0  0
   56.9448   25.2954   45.3990 H   0  0  0  0  0  0  0  0  0  0  0  0
   56.6087   27.5761   44.4809 H   0  0  0  0  0  0  0  0  0  0  0  0
   56.2731   30.3070   44.1140 H   0  0  0  0  0  0  0  0  0  0  0  0
   57.8048   30.7745   43.3003 H   0  0  0  0  0  0  0  0  0  0  0  0
   57.2753   29.0580   43.3003 H   0  0  0  0  0  0  0  0  0  0  0  0
   60.4795   34.4745   47.2927 H   0  0  0  0  0  0  0  0  0  0  0  0
   59.1541   36.0190   45.8108 H   0  0  0  0  0  0  0  0  0  0  0  0
   57.4483   35.0913   44.2331 H   0  0  0  0  0  0  0  0  0  0  0  0
   57.0789   32.6059   44.0798 H   0  0  0  0  0  0  0  0  0  0  0  0
  1  2  1  0
  2  3  1  0
  3  4  1  0
  4  5  1  0
  5  6  1  0
  6  7  1  0
  7  8  2  0
  8  9  1  0
  9 10  2  0
 10 11  1  0
 11 12  2  0
 12 13  1  0
 13 14  2  0
 14 15  1  0
 14 16  1  0
 16 17  2  0
 17 18  1  0
 18 19  1  0
 19 20  2  0
 20 21  1  0
 21 22  2  0
 22 23  1  0
 23 24  2  0
 17  7  1  0
 24 19  1  0
 13  8  1  0
 24 16  1  0
  1 25  1  0
  1 26  1  0
  1 27  1  0
  2 28  1  0
  2 29  1  0
  3 30  1  0
  3 31  1  0
  4 32  1  0
  4 33  1  0
  5 34  1  0
  5 35  1  0
  6 36  1  0
  9 37  1  0
 10 38  1  0
 11 39  1  0
 12 40  1  0
 15 41  1  0
 15 42  1  0
 15 43  1  0
 20 44  1  0
 21 45  1  0
 22 46  1  0
 23 47  1  0
M  CHG  2   3   1  14   1
M  END
>  <UniqueID>  (40) 
39

>  <SMILES>  (40) 
CC[NH2+]CCNc1c2ccccc2[n+](C)c2c1oc1ccccc12

>  <Energy>  (40) 
107.34661302335894

>  <Genealogy>  (40) 
CC[NH2+]CCNc1c2ccccc2[n+](C)c2c1oc1ccccc12 (protonated)
CC[NH2+]CCNc1c2ccccc2[n+](C)c2c1oc1ccccc12 (3D coordinates assigned)
CC[NH2+]CCNc1c2ccccc2[n+](C)c2c1oc1ccccc12 (optimized conformer: 107.34661302335894 kcal/mol)

>  <smiles>  (40) 
CCNCCNc1c2ccccc2[n+](C)c2c1oc1ccccc12

>  <score_type>  (40) 
oracle

>  <origin>  (40) 
adg

>  <m_score__min__energy>  (40) 
-4.6100000000000003

>  <m_primary>  (40) 
energy

$$$$
40:0
     RDKit          3D

 41 42  0  0  0  0  0  0  0  0999 V2000
   61.7450   32.5840   50.8230 C   0  0  0  0  0  0  0  0  0  0  0  0
   61.6940   33.1600   49.4620 N   0  0  2  0  0  0  0  0  0  0  0  0
   63.0030   33.7480   49.0860 C   0  0  0  0  0  0  0  0  0  0  0  0
   63.6830   32.9990   47.9290 C   0  0  0  0  0  0  0  0  0  0  0  0
   63.3640   33.8350   46.3890 Cl  0  0  0  0  0  0  0  0  0  0  0  0
   60.6420   34.2050   49.3810 C   0  0  0  0  0  0  0  0  0  0  0  0
   59.7800   34.0570   48.1470 C   0  0  0  0  0  0  0  0  0  0  0  0
   60.0030   34.8660   47.0220 C   0  0  0  0  0  0  0  0  0  0  0  0
   59.1980   34.7340   45.8870 C   0  0  0  0  0  0  0  0  0  0  0  0
   58.1670   33.7830   45.8570 C   0  0  0  0  0  0  0  0  0  0  0  0
   57.2830   33.6620   44.6490 C   0  0  0  0  0  0  0  0  0  0  0  0
   58.1430   32.7010   43.3610 S   0  0  0  0  0  0  0  0  0  0  0  0
   57.7070   31.1190   44.0820 C   0  0  0  0  0  0  0  0  0  0  0  0
   56.4140   30.6050   43.9140 C   0  0  0  0  0  0  0  0  0  0  0  0
   56.0720   29.3710   44.4770 C   0  0  0  0  0  0  0  0  0  0  0  0
   57.0200   28.6500   45.2110 C   0  0  0  0  0  0  0  0  0  0  0  0
   58.3090   29.1640   45.3840 C   0  0  0  0  0  0  0  0  0  0  0  0
   58.6530   30.3980   44.8210 C   0  0  0  0  0  0  0  0  0  0  0  0
   57.9340   32.9850   46.9870 C   0  0  0  0  0  0  0  0  0  0  0  0
   58.7380   33.1180   48.1230 C   0  0  0  0  0  0  0  0  0  0  0  0
   61.6735   33.3920   51.5660 H   0  0  0  0  0  0  0  0  0  0  0  0
   60.9051   31.8866   50.9577 H   0  0  0  0  0  0  0  0  0  0  0  0
   62.6944   32.0450   50.9577 H   0  0  0  0  0  0  0  0  0  0  0  0
   61.4620   32.3960   48.7820 H   0  0  0  0  0  0  0  0  0  0  0  0
   62.8444   34.7934   48.7827 H   0  0  0  0  0  0  0  0  0  0  0  0
   63.6635   33.6727   49.9624 H   0  0  0  0  0  0  0  0  0  0  0  0
   64.7681   32.9637   48.1061 H   0  0  0  0  0  0  0  0  0  0  0  0
   63.2797   31.9770   47.8747 H   0  0  0  0  0  0  0  0  0  0  0  0
   60.0006   34.1311   50.2716 H   0  0  0  0  0  0  0  0  0  0  0  0
   61.1425   35.1830   49.3266 H   0  0  0  0  0  0  0  0  0  0  0  0
   60.8153   35.6076   47.0336 H   0  0  0  0  0  0  0  0  0  0  0  0
   59.3737   35.3787   45.0132 H   0  0  0  0  0  0  0  0  0  0  0  0
   56.3501   33.1499   44.9271 H   0  0  0  0  0  0  0  0  0  0  0  0
   57.0494   34.6654   44.2634 H   0  0  0  0  0  0  0  0  0  0  0  0
   55.6675   31.1725   43.3389 H   0  0  0  0  0  0  0  0  0  0  0  0
   55.0576   28.9675   44.3426 H   0  0  0  0  0  0  0  0  0  0  0  0
   56.7514   27.6787   45.6521 H   0  0  0  0  0  0  0  0  0  0  0  0
   59.0532   28.5977   45.9632 H   0  0  0  0  0  0  0  0  0  0  0  0
   59.6669   30.8018   44.9590 H   0  0  0  0  0  0  0  0  0  0  0  0
   57.1147   32.2510   46.9792 H   0  0  0  0  0  0  0  0  0  0  0  0
   58.5527   32.4834   49.0021 H   0  0  0  0  0  0  0  0  0  0  0  0
  1  2  1  0
  2  3  1  0
  3  4  1  0
  4  5  1  0
  2  6  1  0
  6  7  1  0
  7  8  2  0
  8  9  1  0
  9 10  2  0
 10 11  1  0
 11 12  1  0
 12 13  1  0
 13 14  2  0
 14 15  1  0
 15 16  2  0
 16 17  1  0
 17 18  2  0
 10 19  1  0
 19 20  2  0
 20  7  1  0
 18 13  1  0
  1 21  1  0
  1 22  1  0
  1 23  1  0
  2 24  1  6
  3 25  1  0
  3 26  1  0
  4 27  1  0
  4 28  1  0
  6 29  1  0
  6 30  1  0
  8 31  1  0
  9 32  1  0
 11 33  1  0
 11 34  1  0
 14 35  1  0
 15 36  1  0
 16 37  1  0
 17 38  1  0
 18 39  1  0
 19 40  1  0
 20 41  1  0
M  CHG  1   2   1
M  END
>  <UniqueID>  (41) 
40

>  <SMILES>  (41) 
C[N@H+](CCCl)Cc1ccc(CSc2ccccc2)cc1

>  <Energy>  (41) 
36.97802729219993

>  <Genealogy>  (41) 
C[NH+](CCCl)Cc1ccc(CSc2ccccc2)cc1 (protonated)
C[N@H+](CCCl)Cc1ccc(CSc2ccccc2)cc1 (chirality)
C[N@H+](CCCl)Cc1ccc(CSc2ccccc2)cc1 (3D coordinates assigned)
C[N@H+](CCCl)Cc1ccc(CSc2ccccc2)cc1 (optimized conformer: 36.97802729219993 kcal/mol)

>  <smiles>  (41) 
CN(CCCl)Cc1ccc(CSc2ccccc2)cc1

>  <score_type>  (41) 
oracle

>  <origin>  (41) 
adg

>  <m_score__min__energy>  (41) 
-5.71

>  <m_primary>  (41) 
energy

$$$$
