0:0
     RDKit          3D

 55 57  0  0  0  0  0  0  0  0999 V2000
   64.4480   32.3230   49.7850 C   0  0  0  0  0  0  0  0  0  0  0  0
   62.9270   32.2070   49.7110 C   0  0  0  0  0  0  0  0  0  0  0  0
   62.4200   32.6330   48.3880 N   0  0  0  0  0  0  0  0  0  0  0  0
   63.1970   33.7610   47.8220 C   0  0  0  0  0  0  0  0  0  0  0  0
   63.1290   33.8470   46.2910 C   0  0  0  0  0  0  0  0  0  0  0  0
   62.2550   31.5110   47.4320 C   0  0  0  0  0  0  0  0  0  0  0  0
   61.5240   30.3560   48.1200 C   0  0  0  0  0  0  0  0  0  0  0  0
   60.0820   30.6050   48.1650 N   0  0  0  0  0  0  0  0  0  0  0  0
   59.3250   30.8600   46.9690 C   0  0  0  0  0  0  0  0  0  0  0  0
   59.1400   32.1810   46.5480 C   0  0  0  0  0  0  0  0  0  0  0  0
   58.4990   32.4530   45.3120 C   0  0  0  0  0  0  0  0  0  0  0  0
   58.0940   31.3900   44.5170 N   0  0  0  0  0  0  0  0  0  0  0  0
   57.6300   31.6290   43.1300 C   0  0  0  0  0  0  0  0  0  0  0  0
   58.0910   30.1000   45.0160 C   0  0  0  0  0  0  0  0  0  0  0  0
   57.4490   29.0330   44.3340 C   0  0  0  0  0  0  0  0  0  0  0  0
   57.4630   27.7370   44.8480 C   0  0  0  0  0  0  0  0  0  0  0  0
   58.0900   27.4720   46.0590 C   0  0  0  0  0  0  0  0  0  0  0  0
   58.7040   28.5010   46.7660 C   0  0  0  0  0  0  0  0  0  0  0  0
   58.7260   29.8140   46.2520 C   0  0  0  0  0  0  0  0  0  0  0  0
   58.3190   33.8950   44.7990 C   0  0  0  0  0  0  0  0  0  0  0  0
   59.4790   34.9010   44.9220 C   0  0  0  0  0  0  0  0  0  0  0  0
   59.6430   35.4640   46.3370 C   0  0  0  0  0  0  0  0  0  0  0  0
   58.9870   34.5490   47.3750 C   0  0  0  0  0  0  0  0  0  0  0  0
   59.6170   33.2330   47.3900 N   0  0  0  0  0  0  0  0  0  0  0  0
   64.7631   32.3470   50.8386 H   0  0  0  0  0  0  0  0  0  0  0  0
   64.9065   31.4572   49.2848 H   0  0  0  0  0  0  0  0  0  0  0  0
   64.7699   33.2483   49.2848 H   0  0  0  0  0  0  0  0  0  0  0  0
   62.6384   31.1599   49.8853 H   0  0  0  0  0  0  0  0  0  0  0  0
   62.4906   32.8634   50.4783 H   0  0  0  0  0  0  0  0  0  0  0  0
   62.8036   34.6990   48.2408 H   0  0  0  0  0  0  0  0  0  0  0  0
   64.2508   33.5930   48.0892 H   0  0  0  0  0  0  0  0  0  0  0  0
   62.4712   34.6790   45.9993 H   0  0  0  0  0  0  0  0  0  0  0  0
   64.1381   34.0189   45.8882 H   0  0  0  0  0  0  0  0  0  0  0  0
   62.7290   32.9048   45.8882 H   0  0  0  0  0  0  0  0  0  0  0  0
   61.6690   31.8511   46.5654 H   0  0  0  0  0  0  0  0  0  0  0  0
   63.2446   31.1688   47.0949 H   0  0  0  0  0  0  0  0  0  0  0  0
   61.7121   29.4270   47.5618 H   0  0  0  0  0  0  0  0  0  0  0  0
   61.8981   30.2667   49.1506 H   0  0  0  0  0  0  0  0  0  0  0  0
   59.6530   30.8340   49.0890 H   0  0  0  0  0  0  0  0  0  0  0  0
   56.6523   32.1326   43.1521 H   0  0  0  0  0  0  0  0  0  0  0  0
   58.3579   32.2643   42.6042 H   0  0  0  0  0  0  0  0  0  0  0  0
   57.5354   30.6675   42.6042 H   0  0  0  0  0  0  0  0  0  0  0  0
   56.9317   29.2322   43.3839 H   0  0  0  0  0  0  0  0  0  0  0  0
   56.9760   26.9218   44.2928 H   0  0  0  0  0  0  0  0  0  0  0  0
   58.1010   26.4475   46.4593 H   0  0  0  0  0  0  0  0  0  0  0  0
   59.1772   28.2882   47.7360 H   0  0  0  0  0  0  0  0  0  0  0  0
   58.0707   33.8241   43.7297 H   0  0  0  0  0  0  0  0  0  0  0  0
   57.5496   34.3095   45.4670 H   0  0  0  0  0  0  0  0  0  0  0  0
   60.4128   34.3942   44.6372 H   0  0  0  0  0  0  0  0  0  0  0  0
   59.2488   35.7475   44.2584 H   0  0  0  0  0  0  0  0  0  0  0  0
   60.7152   35.5551   46.5652 H   0  0  0  0  0  0  0  0  0  0  0  0
   59.1531   36.4480   46.3800 H   0  0  0  0  0  0  0  0  0  0  0  0
   59.0867   35.0061   48.3706 H   0  0  0  0  0  0  0  0  0  0  0  0
   57.9266   34.4250   47.1101 H   0  0  0  0  0  0  0  0  0  0  0  0
   60.3150   33.0170   48.1360 H   0  0  0  0  0  0  0  0  0  0  0  0
  1  2  1  0
  2  3  1  0
  3  4  1  0
  4  5  1  0
  3  6  1  0
  6  7  1  0
  7  8  1  0
  8  9  1  0
  9 10  2  0
 10 11  1  0
 11 12  2  0
 12 13  1  0
 12 14  1  0
 14 15  2  0
 15 16  1  0
 16 17  2  0
 17 18  1  0
 18 19  2  0
 11 20  1  0
 20 21  1  0
 21 22  1  0
 22 23  1  0
 23 24  1  0
 19  9  1  0
 24 10  1  0
 19 14  1  0
  1 25  1  0
  1 26  1  0
  1 27  1  0
  2 28  1  0
  2 29  1  0
  4 30  1  0
  4 31  1  0
  5 32  1  0
  5 33  1  0
  5 34  1  0
  6 35  1  0
  6 36  1  0
  7 37  1  0
  7 38  1  0
  8 39  1  0
 13 40  1  0
 13 41  1  0
 13 42  1  0
 15 43  1  0
 16 44  1  0
 17 45  1  0
 18 46  1  0
 20 47  1  0
 20 48  1  0
 21 49  1  0
 21 50  1  0
 22 51  1  0
 22 52  1  0
 23 53  1  0
 23 54  1  0
 24 55  1  0
M  CHG  1  12   1
M  END
>  <UniqueID>  (1) 
1

>  <SMILES>  (1) 
CCN(CC)CCNc1c2c([n+](C)c3ccccc13)CCCCN2

>  <Energy>  (1) 
87.22408513785993

>  <Genealogy>  (1) 
CCN(CC)CCNc1c2c([n+](C)c3ccccc13)CCCCN2 (3D coordinates assigned)
CCN(CC)CCNc1c2c([n+](C)c3ccccc13)CCCCN2 (nonaromatic ring conformer: 87.22408513785993 kcal/mol)

>  <smiles>  (1) 
CCN(CC)CCNc1c2c([n+](C)c3ccccc13)CCCCN2

>  <score_type>  (1) 
oracle

>  <origin>  (1) 
adg

>  <m_score__min__energy>  (1) 
-3.7400000000000002

>  <m_primary>  (1) 
energy

$$$$
1:0
     RDKit          3D

 43 45  0  0  0  0  0  0  0  0999 V2000
   58.5200   27.7680   47.7430 C   0  0  0  0  0  0  0  0  0  0  0  0
   59.1560   29.0280   47.2260 C   0  0  0  0  0  0  0  0  0  0  0  0
   58.9150   29.6390   46.0070 C   0  0  0  0  0  0  0  0  0  0  0  0
   57.9610   29.1950   44.9290 C   0  0  0  0  0  0  0  0  0  0  0  0
   56.6730   29.9020   45.0070 N   0  0  0  0  0  0  0  0  0  0  0  0
   56.4350   30.7930   43.8580 C   0  0  0  0  0  0  0  0  0  0  0  0
   57.6980   31.5900   43.5230 C   0  0  0  0  0  0  0  0  0  0  0  0
   57.9060   32.6750   44.4800 N   0  0  0  0  0  0  0  0  0  0  0  0
   57.2120   32.8740   45.6170 C   0  0  0  0  0  0  0  0  0  0  0  0
   57.7270   33.9630   46.2890 C   0  0  0  0  0  0  0  0  0  0  0  0
   58.7770   34.4390   45.5270 C   0  0  0  0  0  0  0  0  0  0  0  0
   58.8630   33.6200   44.4180 C   0  0  0  0  0  0  0  0  0  0  0  0
   59.7150   30.7170   45.8780 N   0  0  0  0  0  0  0  0  0  0  0  0
   60.4380   30.7430   47.0180 C   0  0  0  0  0  0  0  0  0  0  0  0
   61.4390   31.7970   47.2860 C   0  0  0  0  0  0  0  0  0  0  0  0
   61.0360   33.0490   47.7650 C   0  0  0  0  0  0  0  0  0  0  0  0
   61.9620   34.0050   48.0370 N   0  0  0  0  0  0  0  0  0  0  0  0
   63.2860   33.7640   47.8630 C   0  0  0  0  0  0  0  0  0  0  0  0
   63.7070   32.5490   47.4210 N   0  0  0  0  0  0  0  0  0  0  0  0
   62.8130   31.5650   47.1370 C   0  0  0  0  0  0  0  0  0  0  0  0
   60.1440   29.7090   47.8460 N   0  0  0  0  0  0  0  0  0  0  0  0
   60.7880   29.3560   49.1130 C   0  0  0  0  0  0  0  0  0  0  0  0
   58.5256   27.7791   48.8429 H   0  0  0  0  0  0  0  0  0  0  0  0
   57.4827   27.7061   47.3822 H   0  0  0  0  0  0  0  0  0  0  0  0
   59.0863   26.8967   47.3822 H   0  0  0  0  0  0  0  0  0  0  0  0
   58.4165   29.3941   43.9477 H   0  0  0  0  0  0  0  0  0  0  0  0
   57.7678   28.1210   45.0677 H   0  0  0  0  0  0  0  0  0  0  0  0
   56.6450   30.4620   45.8920 H   0  0  0  0  0  0  0  0  0  0  0  0
   56.1471   30.1884   42.9853 H   0  0  0  0  0  0  0  0  0  0  0  0
   55.6299   31.4967   44.1160 H   0  0  0  0  0  0  0  0  0  0  0  0
   58.5663   30.9153   43.5508 H   0  0  0  0  0  0  0  0  0  0  0  0
   57.5792   32.0269   42.5205 H   0  0  0  0  0  0  0  0  0  0  0  0
   56.3641   32.2617   45.9577 H   0  0  0  0  0  0  0  0  0  0  0  0
   57.3710   34.3729   47.2457 H   0  0  0  0  0  0  0  0  0  0  0  0
   59.4190   35.3017   45.7584 H   0  0  0  0  0  0  0  0  0  0  0  0
   59.6003   33.7239   43.6083 H   0  0  0  0  0  0  0  0  0  0  0  0
   59.9676   33.2591   47.9214 H   0  0  0  0  0  0  0  0  0  0  0  0
   64.0205   34.5535   48.0801 H   0  0  0  0  0  0  0  0  0  0  0  0
   64.7280   32.3680   47.3040 H   0  0  0  0  0  0  0  0  0  0  0  0
   63.1691   30.5840   46.7893 H   0  0  0  0  0  0  0  0  0  0  0  0
   60.1624   29.6989   49.9503 H   0  0  0  0  0  0  0  0  0  0  0  0
   60.9109   28.2644   49.1702 H   0  0  0  0  0  0  0  0  0  0  0  0
   61.7744   29.8396   49.1702 H   0  0  0  0  0  0  0  0  0  0  0  0
  1  2  1  0
  2  3  2  0
  3  4  1  0
  4  5  1  0
  5  6  1  0
  6  7  1  0
  7  8  1  0
  8  9  1  0
  9 10  2  0
 10 11  1  0
 11 12  2  0
  3 13  1  0
 13 14  2  0
 14 15  1  0
 15 16  2  0
 16 17  1  0
 17 18  2  0
 18 19  1  0
 19 20  2  0
 14 21  1  0
 21 22  1  0
 21  2  1  0
 12  8  1  0
 20 15  1  0
  1 23  1  0
  1 24  1  0
  1 25  1  0
  4 26  1  0
  4 27  1  0
  5 28  1  0
  6 29  1  0
  6 30  1  0
  7 31  1  0
  7 32  1  0
  9 33  1  0
 10 34  1  0
 11 35  1  0
 12 36  1  0
 16 37  1  0
 18 38  1  0
 19 39  1  0
 20 40  1  0
 22 41  1  0
 22 42  1  0
 22 43  1  0
M  CHG  1  19   1
M  END
>  <UniqueID>  (2) 
2

>  <SMILES>  (2) 
Cc1c(CNCCn2cccc2)nc(-c2cnc[nH+]c2)n1C

>  <Energy>  (2) 
101.26517787373666

>  <Genealogy>  (2) 
Cc1c(CNCCn2cccc2)nc(-c2cnc[nH+]c2)n1C (protonated)
Cc1c(CNCCn2cccc2)nc(-c2cnc[nH+]c2)n1C (3D coordinates assigned)
Cc1c(CNCCn2cccc2)nc(-c2cnc[nH+]c2)n1C (optimized conformer: 101.26517787373666 kcal/mol)

>  <smiles>  (2) 
Cc1c(CNCCn2cccc2)nc(-c2cncnc2)n1C

>  <score_type>  (2) 
oracle

>  <origin>  (2) 
adg

>  <m_score__min__energy>  (2) 
-5.9500000000000002

>  <m_primary>  (2) 
energy

$$$$
2:0
     RDKit          3D

 57 59  0  0  0  0  0  0  0  0999 V2000
   65.4630   31.9670   50.3240 C   0  0  0  0  0  0  0  0  0  0  0  0
   64.8920   33.0960   49.4590 C   0  0  0  0  0  0  0  0  0  0  0  0
   64.1030   32.5850   48.3210 N   0  0  0  0  0  0  0  0  0  0  0  0
   63.1560   33.5790   47.7810 C   0  0  0  0  0  0  0  0  0  0  0  0
   61.9050   33.7260   48.6590 C   0  0  0  0  0  0  0  0  0  0  0  0
   61.7990   32.5960   49.4970 O   0  0  0  0  0  0  0  0  0  0  0  0
   60.5430   32.5590   50.1480 C   0  0  0  0  0  0  0  0  0  0  0  0
   59.5540   31.7280   49.3260 C   0  0  0  0  0  0  0  0  0  0  0  0
   60.1750   31.1990   48.1100 N   0  0  0  0  0  0  0  0  0  0  0  0
   59.4020   31.0620   46.9100 C   0  0  0  0  0  0  0  0  0  0  0  0
   59.0490   32.2270   46.2010 C   0  0  0  0  0  0  0  0  0  0  0  0
   59.5700   33.4850   46.5770 C   0  0  0  0  0  0  0  0  0  0  0  0
   59.1810   34.6460   45.9140 C   0  0  0  0  0  0  0  0  0  0  0  0
   58.2600   34.5770   44.8760 C   0  0  0  0  0  0  0  0  0  0  0  0
   57.7450   33.3450   44.4780 C   0  0  0  0  0  0  0  0  0  0  0  0
   58.1540   32.1400   45.1060 C   0  0  0  0  0  0  0  0  0  0  0  0
   57.6780   30.9120   44.6990 N   0  0  0  0  0  0  0  0  0  0  0  0
   56.9630   30.7930   43.4060 C   0  0  0  0  0  0  0  0  0  0  0  0
   57.9060   29.7840   45.4660 C   0  0  0  0  0  0  0  0  0  0  0  0
   57.1770   28.5920   45.2410 C   0  0  0  0  0  0  0  0  0  0  0  0
   57.4700   27.4170   45.9290 C   0  0  0  0  0  0  0  0  0  0  0  0
   56.6520   26.1790   45.6960 C   0  0  0  0  0  0  0  0  0  0  0  0
   58.5040   27.4070   46.8600 C   0  0  0  0  0  0  0  0  0  0  0  0
   59.2370   28.5690   47.1400 C   0  0  0  0  0  0  0  0  0  0  0  0
   60.4190   28.4090   48.0650 C   0  0  0  0  0  0  0  0  0  0  0  0
   58.8670   29.8070   46.5210 C   0  0  0  0  0  0  0  0  0  0  0  0
   65.3354   32.2192   51.3871 H   0  0  0  0  0  0  0  0  0  0  0  0
   64.9302   31.0304   50.1029 H   0  0  0  0  0  0  0  0  0  0  0  0
   66.5332   31.8411   50.1029 H   0  0  0  0  0  0  0  0  0  0  0  0
   64.2434   33.7272   50.0842 H   0  0  0  0  0  0  0  0  0  0  0  0
   65.7381   33.6690   49.0518 H   0  0  0  0  0  0  0  0  0  0  0  0
   64.7490   32.2810   47.5540 H   0  0  0  0  0  0  0  0  0  0  0  0
   63.5790   31.7310   48.6280 H   0  0  0  0  0  0  0  0  0  0  0  0
   63.6622   34.5537   47.7199 H   0  0  0  0  0  0  0  0  0  0  0  0
   62.8327   33.2324   46.7883 H   0  0  0  0  0  0  0  0  0  0  0  0
   61.9898   34.6345   49.2733 H   0  0  0  0  0  0  0  0  0  0  0  0
   61.0107   33.8035   48.0232 H   0  0  0  0  0  0  0  0  0  0  0  0
   60.6613   32.1057   51.1432 H   0  0  0  0  0  0  0  0  0  0  0  0
   60.1576   33.5842   50.2497 H   0  0  0  0  0  0  0  0  0  0  0  0
   59.1976   30.8875   49.9396 H   0  0  0  0  0  0  0  0  0  0  0  0
   58.7190   32.3802   49.0303 H   0  0  0  0  0  0  0  0  0  0  0  0
   61.2160   31.1870   48.0170 H   0  0  0  0  0  0  0  0  0  0  0  0
   60.2923   33.5483   47.4042 H   0  0  0  0  0  0  0  0  0  0  0  0
   59.6026   35.6173   46.2119 H   0  0  0  0  0  0  0  0  0  0  0  0
   57.9367   35.4971   44.3672 H   0  0  0  0  0  0  0  0  0  0  0  0
   57.0081   33.3058   43.6623 H   0  0  0  0  0  0  0  0  0  0  0  0
   55.8938   30.6150   43.5933 H   0  0  0  0  0  0  0  0  0  0  0  0
   57.0849   31.7238   42.8326 H   0  0  0  0  0  0  0  0  0  0  0  0
   57.3798   29.9519   42.8326 H   0  0  0  0  0  0  0  0  0  0  0  0
   56.3594   28.5936   44.5051 H   0  0  0  0  0  0  0  0  0  0  0  0
   56.3636   25.7426   46.6637 H   0  0  0  0  0  0  0  0  0  0  0  0
   55.7473   26.4390   45.1269 H   0  0  0  0  0  0  0  0  0  0  0  0
   57.2460   25.4488   45.1269 H   0  0  0  0  0  0  0  0  0  0  0  0
   58.7504   26.4722   47.3849 H   0  0  0  0  0  0  0  0  0  0  0  0
   60.0763   28.4554   49.1092 H   0  0  0  0  0  0  0  0  0  0  0  0
   60.9006   27.4375   47.8799 H   0  0  0  0  0  0  0  0  0  0  0  0
   61.1415   29.2175   47.8799 H   0  0  0  0  0  0  0  0  0  0  0  0
  1  2  1  0
  2  3  1  0
  3  4  1  0
  4  5  1  0
  5  6  1  0
  6  7  1  0
  7  8  1  0
  8  9  1  0
  9 10  1  0
 10 11  2  0
 11 12  1  0
 12 13  2  0
 13 14  1  0
 14 15  2  0
 15 16  1  0
 16 17  2  0
 17 18  1  0
 17 19  1  0
 19 20  2  0
 20 21  1  0
 21 22  1  0
 21 23  2  0
 23 24  1  0
 24 25  1  0
 24 26  2  0
 26 10  1  0
 16 11  1  0
 26 19  1  0
  1 27  1  0
  1 28  1  0
  1 29  1  0
  2 30  1  0
  2 31  1  0
  3 32  1  0
  3 33  1  0
  4 34  1  0
  4 35  1  0
  5 36  1  0
  5 37  1  0
  7 38  1  0
  7 39  1  0
  8 40  1  0
  8 41  1  0
  9 42  1  0
 12 43  1  0
 13 44  1  0
 14 45  1  0
 15 46  1  0
 18 47  1  0
 18 48  1  0
 18 49  1  0
 20 50  1  0
 22 51  1  0
 22 52  1  0
 22 53  1  0
 23 54  1  0
 25 55  1  0
 25 56  1  0
 25 57  1  0
M  CHG  2   3   1  17   1
M  END
>  <UniqueID>  (3) 
3

>  <SMILES>  (3) 
CC[NH2+]CCOCCNc1c2ccccc2[n+](C)c2cc(C)cc(C)c12

>  <Energy>  (3) 
88.7212806985995

>  <Genealogy>  (3) 
CC[NH2+]CCOCCNc1c2ccccc2[n+](C)c2cc(C)cc(C)c12 (protonated)
CC[NH2+]CCOCCNc1c2ccccc2[n+](C)c2cc(C)cc(C)c12 (3D coordinates assigned)
CC[NH2+]CCOCCNc1c2ccccc2[n+](C)c2cc(C)cc(C)c12 (optimized conformer: 88.7212806985995 kcal/mol)

>  <smiles>  (3) 
CCNCCOCCNc1c2ccccc2[n+](C)c2cc(C)cc(C)c12

>  <score_type>  (3) 
oracle

>  <origin>  (3) 
adg

>  <m_score__min__energy>  (3) 
-4.2800000000000002

>  <m_primary>  (3) 
energy

$$$$
3:0
     RDKit          3D

 78 80  0  0  0  0  0  0  0  0999 V2000
   57.4100   32.4790   40.7560 C   0  0  0  0  0  0  0  0  0  0  0  0
   57.9880   32.5700   42.1730 C   0  0  0  0  0  0  0  0  0  0  0  0
   57.4910   31.4830   43.1200 C   0  0  0  0  0  0  0  0  0  0  0  0
   56.6030   30.5090   42.6220 C   0  0  0  0  0  0  0  0  0  0  0  0
   56.3520   29.3420   43.3320 C   0  0  0  0  0  0  0  0  0  0  0  0
   56.9910   29.1120   44.5420 C   0  0  0  0  0  0  0  0  0  0  0  0
   57.8050   30.1040   45.1220 C   0  0  0  0  0  0  0  0  0  0  0  0
   58.4530   29.8690   46.3490 C   0  0  0  0  0  0  0  0  0  0  0  0
   58.2870   28.6070   47.0160 N   0  0  0  0  0  0  0  0  0  0  0  0
   59.2760   27.5290   46.9310 C   0  0  0  0  0  0  0  0  0  0  0  0
   58.6770   26.2030   46.4050 C   0  0  0  0  0  0  0  0  0  0  0  0
   58.2570   26.2850   44.9220 C   0  0  0  0  0  0  0  0  0  0  0  0
   57.0750   25.4290   44.6120 N   0  0  0  0  0  0  0  0  0  0  0  0
   57.5090   24.1210   44.0540 C   0  0  0  0  0  0  0  0  0  0  0  0
   58.1360   23.1990   45.1080 C   0  0  0  0  0  0  0  0  0  0  0  0
   56.1510   25.3070   45.7770 C   0  0  0  0  0  0  0  0  0  0  0  0
   54.8860   24.4670   45.5260 C   0  0  0  0  0  0  0  0  0  0  0  0
   59.3250   30.8450   46.8640 C   0  0  0  0  0  0  0  0  0  0  0  0
   60.1320   30.5810   47.9870 C   0  0  0  0  0  0  0  0  0  0  0  0
   60.9860   31.5580   48.4940 C   0  0  0  0  0  0  0  0  0  0  0  0
   61.0640   32.8140   47.8950 C   0  0  0  0  0  0  0  0  0  0  0  0
   61.9710   33.7440   48.4310 O   0  0  0  0  0  0  0  0  0  0  0  0
   63.3580   33.8380   48.1090 C   0  0  0  0  0  0  0  0  0  0  0  0
   64.1150   32.5960   48.6330 C   0  0  0  0  0  0  0  0  0  0  0  0
   64.4630   32.6230   50.0860 N   0  0  0  0  0  0  0  0  0  0  0  0
   64.0220   31.3820   50.7680 C   0  0  0  0  0  0  0  0  0  0  0  0
   63.8710   33.8030   50.7620 C   0  0  0  0  0  0  0  0  0  0  0  0
   65.9400   32.7150   50.2010 C   0  0  0  0  0  0  0  0  0  0  0  0
   60.2460   33.0980   46.7850 C   0  0  0  0  0  0  0  0  0  0  0  0
   59.3700   32.1210   46.2520 C   0  0  0  0  0  0  0  0  0  0  0  0
   58.5690   32.3940   45.1600 N   0  0  0  0  0  0  0  0  0  0  0  0
   58.1810   33.7960   44.9000 C   0  0  0  0  0  0  0  0  0  0  0  0
   57.9680   31.3560   44.4690 C   0  0  0  0  0  0  0  0  0  0  0  0
   56.3248   32.3082   40.8129 H   0  0  0  0  0  0  0  0  0  0  0  0
   57.6055   33.4190   40.2192 H   0  0  0  0  0  0  0  0  0  0  0  0
   57.8849   31.6446   40.2192 H   0  0  0  0  0  0  0  0  0  0  0  0
   59.0832   32.4941   42.1047 H   0  0  0  0  0  0  0  0  0  0  0  0
   57.6535   33.5311   42.5905 H   0  0  0  0  0  0  0  0  0  0  0  0
   56.1014   30.6752   41.6572 H   0  0  0  0  0  0  0  0  0  0  0  0
   55.6453   28.5987   42.9344 H   0  0  0  0  0  0  0  0  0  0  0  0
   56.8606   28.1464   45.0526 H   0  0  0  0  0  0  0  0  0  0  0  0
   57.3050   28.3240   47.2420 H   0  0  0  0  0  0  0  0  0  0  0  0
   60.0815   27.8443   46.2514 H   0  0  0  0  0  0  0  0  0  0  0  0
   59.6491   27.3421   47.9488 H   0  0  0  0  0  0  0  0  0  0  0  0
   59.4305   25.4090   46.5138 H   0  0  0  0  0  0  0  0  0  0  0  0
   57.7731   25.9902   46.9946 H   0  0  0  0  0  0  0  0  0  0  0  0
   58.0077   27.3295   44.6838 H   0  0  0  0  0  0  0  0  0  0  0  0
   59.1000   25.9207   44.3165 H   0  0  0  0  0  0  0  0  0  0  0  0
   56.5280   25.9000   43.8530 H   0  0  0  0  0  0  0  0  0  0  0  0
   56.6324   23.6155   43.6227 H   0  0  0  0  0  0  0  0  0  0  0  0
   58.2789   24.3256   43.2954 H   0  0  0  0  0  0  0  0  0  0  0  0
   57.8852   23.5678   46.1135 H   0  0  0  0  0  0  0  0  0  0  0  0
   57.7435   22.1790   44.9831 H   0  0  0  0  0  0  0  0  0  0  0  0
   59.2288   23.1892   44.9831 H   0  0  0  0  0  0  0  0  0  0  0  0
   56.7075   24.8446   46.6055 H   0  0  0  0  0  0  0  0  0  0  0  0
   55.8013   26.3265   45.9969 H   0  0  0  0  0  0  0  0  0  0  0  0
   54.4437   24.1733   46.4894 H   0  0  0  0  0  0  0  0  0  0  0  0
   54.1582   25.0619   44.9546 H   0  0  0  0  0  0  0  0  0  0  0  0
   55.1519   23.5655   44.9546 H   0  0  0  0  0  0  0  0  0  0  0  0
   60.0878   29.5932   48.4690 H   0  0  0  0  0  0  0  0  0  0  0  0
   61.6049   31.3359   49.3758 H   0  0  0  0  0  0  0  0  0  0  0  0
   63.4738   33.8997   47.0168 H   0  0  0  0  0  0  0  0  0  0  0  0
   63.7756   34.7384   48.5832 H   0  0  0  0  0  0  0  0  0  0  0  0
   63.4848   31.7129   48.4514 H   0  0  0  0  0  0  0  0  0  0  0  0
   65.0728   32.5745   48.0924 H   0  0  0  0  0  0  0  0  0  0  0  0
   64.0727   31.5246   51.8575 H   0  0  0  0  0  0  0  0  0  0  0  0
   62.9868   31.1512   50.4761 H   0  0  0  0  0  0  0  0  0  0  0  0
   64.6794   30.5498   50.4761 H   0  0  0  0  0  0  0  0  0  0  0  0
   63.9366   33.6722   51.8522 H   0  0  0  0  0  0  0  0  0  0  0  0
   64.4214   34.7087   50.4676 H   0  0  0  0  0  0  0  0  0  0  0  0
   62.8159   33.9032   50.4676 H   0  0  0  0  0  0  0  0  0  0  0  0
   66.2247   32.7327   51.2634 H   0  0  0  0  0  0  0  0  0  0  0  0
   66.4008   31.8438   49.7124 H   0  0  0  0  0  0  0  0  0  0  0  0
   66.2891   33.6366   49.7124 H   0  0  0  0  0  0  0  0  0  0  0  0
   60.2879   34.0957   46.3238 H   0  0  0  0  0  0  0  0  0  0  0  0
   58.0361   34.3197   45.8564 H   0  0  0  0  0  0  0  0  0  0  0  0
   58.9747   34.2955   44.3250 H   0  0  0  0  0  0  0  0  0  0  0  0
   57.2435   33.8164   44.3250 H   0  0  0  0  0  0  0  0  0  0  0  0
  1  2  1  0
  2  3  1  0
  3  4  2  0
  4  5  1  0
  5  6  2  0
  6  7  1  0
  7  8  2  0
  8  9  1  0
  9 10  1  0
 10 11  1  0
 11 12  1  0
 12 13  1  0
 13 14  1  0
 14 15  1  0
 13 16  1  0
 16 17  1  0
  8 18  1  0
 18 19  2  0
 19 20  1  0
 20 21  2  0
 21 22  1  0
 22 23  1  0
 23 24  1  0
 24 25  1  0
 25 26  1  0
 25 27  1  0
 25 28  1  0
 21 29  1  0
 29 30  2  0
 30 31  1  0
 31 32  1  0
 31 33  2  0
 33  3  1  0
 33  7  1  0
 30 18  1  0
  1 34  1  0
  1 35  1  0
  1 36  1  0
  2 37  1  0
  2 38  1  0
  4 39  1  0
  5 40  1  0
  6 41  1  0
  9 42  1  0
 10 43  1  0
 10 44  1  0
 11 45  1  0
 11 46  1  0
 12 47  1  0
 12 48  1  0
 13 49  1  0
 14 50  1  0
 14 51  1  0
 15 52  1  0
 15 53  1  0
 15 54  1  0
 16 55  1  0
 16 56  1  0
 17 57  1  0
 17 58  1  0
 17 59  1  0
 19 60  1  0
 20 61  1  0
 23 62  1  0
 23 63  1  0
 24 64  1  0
 24 65  1  0
 26 66  1  0
 26 67  1  0
 26 68  1  0
 27 69  1  0
 27 70  1  0
 27 71  1  0
 28 72  1  0
 28 73  1  0
 28 74  1  0
 29 75  1  0
 32 76  1  0
 32 77  1  0
 32 78  1  0
M  CHG  3  13   1  25   1  31   1
M  END
>  <UniqueID>  (4) 
4

>  <SMILES>  (4) 
CCc1cccc2c(NCCC[NH+](CC)CC)c3ccc(OCC[N+](C)(C)C)cc3[n+](C)c12

>  <Energy>  (4) 
126.60128029402058

>  <Genealogy>  (4) 
CCc1cccc2c(NCCC[NH+](CC)CC)c3ccc(OCC[N+](C)(C)C)cc3[n+](C)c12 (protonated)
CCc1cccc2c(NCCC[NH+](CC)CC)c3ccc(OCC[N+](C)(C)C)cc3[n+](C)c12 (3D coordinates assigned)
CCc1cccc2c(NCCC[NH+](CC)CC)c3ccc(OCC[N+](C)(C)C)cc3[n+](C)c12 (optimized conformer: 126.60128029402058 kcal/mol)

>  <smiles>  (4) 
CCc1cccc2c(NCCCN(CC)CC)c3ccc(OCC[N+](C)(C)C)cc3[n+](C)c12

>  <score_type>  (4) 
oracle

>  <origin>  (4) 
adg

>  <m_score__min__energy>  (4) 
-3.71

>  <m_primary>  (4) 
energy

$$$$
4:0
     RDKit          3D

 63 65  0  0  0  0  0  0  0  0999 V2000
   63.3970   34.1350   46.2130 C   0  0  0  0  0  0  0  0  0  0  0  0
   63.1630   33.5920   47.6320 C   0  0  0  0  0  0  0  0  0  0  0  0
   63.2930   32.1130   47.7520 N   0  0  0  0  0  0  0  0  0  0  0  0
   63.4940   31.6490   49.1510 C   0  0  0  0  0  0  0  0  0  0  0  0
   64.6560   32.3550   49.8570 C   0  0  0  0  0  0  0  0  0  0  0  0
   62.1280   31.4220   47.1380 C   0  0  0  0  0  0  0  0  0  0  0  0
   61.4820   30.3980   48.0950 C   0  0  0  0  0  0  0  0  0  0  0  0
   60.0290   30.5670   48.1960 N   0  0  0  0  0  0  0  0  0  0  0  0
   59.2570   31.1760   47.1480 C   0  0  0  0  0  0  0  0  0  0  0  0
   58.5820   30.3520   46.2350 C   0  0  0  0  0  0  0  0  0  0  0  0
   58.4120   28.9740   46.4900 C   0  0  0  0  0  0  0  0  0  0  0  0
   57.6950   28.1700   45.6060 C   0  0  0  0  0  0  0  0  0  0  0  0
   57.1320   28.7230   44.4630 C   0  0  0  0  0  0  0  0  0  0  0  0
   57.3080   30.0770   44.1800 C   0  0  0  0  0  0  0  0  0  0  0  0
   58.0730   30.9100   45.0380 C   0  0  0  0  0  0  0  0  0  0  0  0
   58.3460   32.2240   44.7250 N   0  0  0  0  0  0  0  0  0  0  0  0
   58.1520   32.7040   43.3360 C   0  0  0  0  0  0  0  0  0  0  0  0
   58.8220   33.0860   45.6980 C   0  0  0  0  0  0  0  0  0  0  0  0
   58.8890   34.4800   45.4630 C   0  0  0  0  0  0  0  0  0  0  0  0
   59.4280   35.3420   46.4040 C   0  0  0  0  0  0  0  0  0  0  0  0
   59.8290   34.8680   47.6400 C   0  0  0  0  0  0  0  0  0  0  0  0
   59.6800   33.5090   47.9810 C   0  0  0  0  0  0  0  0  0  0  0  0
   59.9400   33.0750   49.4220 C   0  0  0  0  0  0  0  0  0  0  0  0
   58.6990   32.7240   50.2150 C   0  0  0  0  0  0  0  0  0  0  0  0
   58.5790   31.6300   51.0020 C   0  0  0  0  0  0  0  0  0  0  0  0
   59.7540   30.7350   51.3100 C   0  0  0  0  0  0  0  0  0  0  0  0
   57.2320   31.3200   51.6000 C   0  0  0  0  0  0  0  0  0  0  0  0
   59.2540   32.5840   46.9640 C   0  0  0  0  0  0  0  0  0  0  0  0
   63.8317   35.1437   46.2734 H   0  0  0  0  0  0  0  0  0  0  0  0
   64.0882   33.4695   45.6751 H   0  0  0  0  0  0  0  0  0  0  0  0
   62.4386   34.1804   45.6751 H   0  0  0  0  0  0  0  0  0  0  0  0
   63.8981   34.0581   48.3047 H   0  0  0  0  0  0  0  0  0  0  0  0
   62.1242   33.8392   47.8963 H   0  0  0  0  0  0  0  0  0  0  0  0
   64.1520   31.8540   47.2070 H   0  0  0  0  0  0  0  0  0  0  0  0
   62.5715   31.8395   49.7190 H   0  0  0  0  0  0  0  0  0  0  0  0
   63.7379   30.5772   49.1093 H   0  0  0  0  0  0  0  0  0  0  0  0
   64.5257   32.2758   50.9464 H   0  0  0  0  0  0  0  0  0  0  0  0
   65.6047   31.8805   49.5658 H   0  0  0  0  0  0  0  0  0  0  0  0
   64.6720   33.4156   49.5658 H   0  0  0  0  0  0  0  0  0  0  0  0
   61.3741   32.1750   46.8647 H   0  0  0  0  0  0  0  0  0  0  0  0
   62.4890   30.8751   46.2545 H   0  0  0  0  0  0  0  0  0  0  0  0
   61.6949   29.3846   47.7241 H   0  0  0  0  0  0  0  0  0  0  0  0
   61.9088   30.5586   49.0960 H   0  0  0  0  0  0  0  0  0  0  0  0
   59.5260   29.9260   48.8510 H   0  0  0  0  0  0  0  0  0  0  0  0
   58.8501   28.5302   47.3961 H   0  0  0  0  0  0  0  0  0  0  0  0
   57.5748   27.0965   45.8136 H   0  0  0  0  0  0  0  0  0  0  0  0
   56.5458   28.0913   43.7794 H   0  0  0  0  0  0  0  0  0  0  0  0
   56.8470   30.5062   43.2782 H   0  0  0  0  0  0  0  0  0  0  0  0
   57.7399   33.7237   43.3546 H   0  0  0  0  0  0  0  0  0  0  0  0
   59.1188   32.7088   42.8113 H   0  0  0  0  0  0  0  0  0  0  0  0
   57.4534   32.0357   42.8113 H   0  0  0  0  0  0  0  0  0  0  0  0
   58.5059   34.8866   44.5154 H   0  0  0  0  0  0  0  0  0  0  0  0
   59.5378   36.4105   46.1667 H   0  0  0  0  0  0  0  0  0  0  0  0
   60.2714   35.5633   48.3686 H   0  0  0  0  0  0  0  0  0  0  0  0
   60.5932   32.1902   49.4000 H   0  0  0  0  0  0  0  0  0  0  0  0
   60.3953   33.9394   49.9275 H   0  0  0  0  0  0  0  0  0  0  0  0
   57.8371   33.4040   50.1467 H   0  0  0  0  0  0  0  0  0  0  0  0
   59.8711   30.6458   52.4001 H   0  0  0  0  0  0  0  0  0  0  0  0
   59.5795   29.7389   50.8772 H   0  0  0  0  0  0  0  0  0  0  0  0
   60.6680   31.1678   50.8772 H   0  0  0  0  0  0  0  0  0  0  0  0
   57.3054   31.3369   52.6974 H   0  0  0  0  0  0  0  0  0  0  0  0
   56.5020   32.0736   51.2697 H   0  0  0  0  0  0  0  0  0  0  0  0
   56.9048   30.3231   51.2697 H   0  0  0  0  0  0  0  0  0  0  0  0
  1  2  1  0
  2  3  1  0
  3  4  1  0
  4  5  1  0
  3  6  1  0
  6  7  1  0
  7  8  1  0
  8  9  1  0
  9 10  2  0
 10 11  1  0
 11 12  2  0
 12 13  1  0
 13 14  2  0
 14 15  1  0
 15 16  2  0
 16 17  1  0
 16 18  1  0
 18 19  2  0
 19 20  1  0
 20 21  2  0
 21 22  1  0
 22 23  1  0
 23 24  1  0
 24 25  2  3
 25 26  1  0
 25 27  1  0
 22 28  2  0
 28  9  1  0
 15 10  1  0
 28 18  1  0
  1 29  1  0
  1 30  1  0
  1 31  1  0
  2 32  1  0
  2 33  1  0
  3 34  1  0
  4 35  1  0
  4 36  1  0
  5 37  1  0
  5 38  1  0
  5 39  1  0
  6 40  1  0
  6 41  1  0
  7 42  1  0
  7 43  1  0
  8 44  1  0
 11 45  1  0
 12 46  1  0
 13 47  1  0
 14 48  1  0
 17 49  1  0
 17 50  1  0
 17 51  1  0
 19 52  1  0
 20 53  1  0
 21 54  1  0
 23 55  1  0
 23 56  1  0
 24 57  1  0
 26 58  1  0
 26 59  1  0
 26 60  1  0
 27 61  1  0
 27 62  1  0
 27 63  1  0
M  CHG  2   3   1  16   1
M  END
>  <UniqueID>  (5) 
5

>  <SMILES>  (5) 
CC[NH+](CC)CCNc1c2ccccc2[n+](C)c2cccc(CC=C(C)C)c12

>  <Energy>  (5) 
100.02885133374919

>  <Genealogy>  (5) 
CC[NH+](CC)CCNc1c2ccccc2[n+](C)c2cccc(CC=C(C)C)c12 (protonated)
CC[NH+](CC)CCNc1c2ccccc2[n+](C)c2cccc(CC=C(C)C)c12 (3D coordinates assigned)
CC[NH+](CC)CCNc1c2ccccc2[n+](C)c2cccc(CC=C(C)C)c12 (optimized conformer: 100.02885133374919 kcal/mol)

>  <smiles>  (5) 
CCN(CC)CCNc1c2ccccc2[n+](C)c2cccc(CC=C(C)C)c12

>  <score_type>  (5) 
oracle

>  <origin>  (5) 
adg

>  <m_score__min__energy>  (5) 
-5.2800000000000002

>  <m_primary>  (5) 
energy

$$$$
5:0
     RDKit          3D

 31 32  0  0  0  0  0  0  0  0999 V2000
   58.1030   34.1270   45.3060 C   0  0  0  0  0  0  0  0  0  0  0  0
   58.8070   32.8990   44.7320 C   0  0  0  0  0  0  0  0  0  0  0  0
   58.5720   31.7030   45.5810 N   0  0  0  0  0  0  0  0  0  0  0  0
   59.1570   31.7810   46.9420 C   0  0  0  0  0  0  0  0  0  0  0  0
   60.6910   31.8390   46.9120 C   0  0  0  0  0  0  0  0  0  0  0  0
   57.6890   30.7630   45.2470 C   0  0  0  0  0  0  0  0  0  0  0  0
   56.5330   31.1030   44.4940 C   0  0  0  0  0  0  0  0  0  0  0  0
   55.4850   30.2010   44.3400 C   0  0  0  0  0  0  0  0  0  0  0  0
   55.5680   28.9590   44.8650 N   0  0  0  0  0  0  0  0  0  0  0  0
   56.6820   28.5260   45.5020 C   0  0  0  0  0  0  0  0  0  0  0  0
   56.7360   27.1990   45.9430 C   0  0  0  0  0  0  0  0  0  0  0  0
   57.9170   26.6790   46.4670 C   0  0  0  0  0  0  0  0  0  0  0  0
   59.0630   27.4720   46.5160 C   0  0  0  0  0  0  0  0  0  0  0  0
   60.5750   26.7890   47.0850 Cl  0  0  0  0  0  0  0  0  0  0  0  0
   59.0150   28.8040   46.0910 C   0  0  0  0  0  0  0  0  0  0  0  0
   57.8020   29.3900   45.6590 C   0  0  0  0  0  0  0  0  0  0  0  0
   58.1278   34.0837   46.4049 H   0  0  0  0  0  0  0  0  0  0  0  0
   58.6163   35.0375   44.9633 H   0  0  0  0  0  0  0  0  0  0  0  0
   57.0579   34.1441   44.9633 H   0  0  0  0  0  0  0  0  0  0  0  0
   58.4209   32.7033   43.7207 H   0  0  0  0  0  0  0  0  0  0  0  0
   59.8883   33.0986   44.7008 H   0  0  0  0  0  0  0  0  0  0  0  0
   58.7780   32.6862   47.4390 H   0  0  0  0  0  0  0  0  0  0  0  0
   58.8643   30.8719   47.4878 H   0  0  0  0  0  0  0  0  0  0  0  0
   61.0776   31.8536   47.9417 H   0  0  0  0  0  0  0  0  0  0  0  0
   61.0811   30.9550   46.3864 H   0  0  0  0  0  0  0  0  0  0  0  0
   61.0133   32.7500   46.3864 H   0  0  0  0  0  0  0  0  0  0  0  0
   56.4656   32.0958   44.0251 H   0  0  0  0  0  0  0  0  0  0  0  0
   54.5827   30.5012   43.7870 H   0  0  0  0  0  0  0  0  0  0  0  0
   55.8409   26.5632   45.8754 H   0  0  0  0  0  0  0  0  0  0  0  0
   57.9457   25.6451   46.8414 H   0  0  0  0  0  0  0  0  0  0  0  0
   59.9358   29.4057   46.0928 H   0  0  0  0  0  0  0  0  0  0  0  0
  1  2  1  0
  2  3  1  0
  3  4  1  0
  4  5  1  0
  3  6  2  3
  6  7  1  0
  7  8  2  0
  8  9  1  0
  9 10  1  0
 10 11  2  0
 11 12  1  0
 12 13  2  0
 13 14  1  0
 13 15  1  0
 15 16  2  0
 16  6  1  0
 16 10  1  0
  1 17  1  0
  1 18  1  0
  1 19  1  0
  2 20  1  0
  2 21  1  0
  4 22  1  0
  4 23  1  0
  5 24  1  0
  5 25  1  0
  5 26  1  0
  7 27  1  0
  8 28  1  0
 11 29  1  0
 12 30  1  0
 15 31  1  0
M  CHG  2   3   1   9  -1
M  END
>  <UniqueID>  (6) 
6

>  <SMILES>  (6) 
CC[N+](CC)=c1cc[n-]c2ccc(Cl)cc12

>  <Energy>  (6) 
58.979130081086105

>  <Genealogy>  (6) 
CC[N+](CC)=c1cc[n-]c2ccc(Cl)cc12 (protonated)
CC[N+](CC)=c1cc[n-]c2ccc(Cl)cc12 (3D coordinates assigned)
CC[N+](CC)=c1cc[n-]c2ccc(Cl)cc12 (optimized conformer: 58.979130081086105 kcal/mol)

>  <smiles>  (6) 
CC[N+](CC)=c1cc[nH]c2ccc(Cl)cc12

>  <score_type>  (6) 
oracle

>  <origin>  (6) 
adg

>  <m_score__min__energy>  (6) 
-6.1600000000000001

>  <m_primary>  (6) 
energy

$$$$
6:0
     RDKit          3D

 48 50  0  0  0  0  0  0  0  0999 V2000
   63.3790   34.1420   46.3080 C   0  0  0  0  0  0  0  0  0  0  0  0
   63.7750   33.8130   47.7490 C   0  0  0  0  0  0  0  0  0  0  0  0
   64.1180   32.3910   47.9290 N   0  0  0  0  0  0  0  0  0  0  0  0
   62.9560   31.5830   48.3400 C   0  0  0  0  0  0  0  0  0  0  0  0
   62.1190   31.1410   47.1300 C   0  0  0  0  0  0  0  0  0  0  0  0
   60.7240   30.9040   47.5090 N   0  0  0  0  0  0  0  0  0  0  0  0
   59.6510   31.0850   46.5710 C   0  0  0  0  0  0  0  0  0  0  0  0
   59.3680   32.3790   46.0930 C   0  0  0  0  0  0  0  0  0  0  0  0
   59.9530   33.5210   46.6860 C   0  0  0  0  0  0  0  0  0  0  0  0
   59.6460   34.7990   46.2250 C   0  0  0  0  0  0  0  0  0  0  0  0
   58.7510   34.9640   45.1760 C   0  0  0  0  0  0  0  0  0  0  0  0
   58.1820   33.8510   44.5590 C   0  0  0  0  0  0  0  0  0  0  0  0
   58.5100   32.5350   44.9770 C   0  0  0  0  0  0  0  0  0  0  0  0
   58.0290   31.4230   44.3170 N   0  0  0  0  0  0  0  0  0  0  0  0
   57.4450   31.5650   42.9650 C   0  0  0  0  0  0  0  0  0  0  0  0
   58.1060   30.1780   44.9140 C   0  0  0  0  0  0  0  0  0  0  0  0
   57.3710   29.0790   44.4050 C   0  0  0  0  0  0  0  0  0  0  0  0
   57.4500   27.8240   44.9930 C   0  0  0  0  0  0  0  0  0  0  0  0
   58.2150   27.6360   46.1330 C   0  0  0  0  0  0  0  0  0  0  0  0
   58.9170   28.6970   46.7060 C   0  0  0  0  0  0  0  0  0  0  0  0
   59.6640   28.3510   48.3130 S   0  0  0  0  0  0  0  0  0  0  0  0
   60.4470   26.8070   47.7540 C   0  0  0  0  0  0  0  0  0  0  0  0
   58.9150   29.9820   46.0760 C   0  0  0  0  0  0  0  0  0  0  0  0
   62.5329   34.8449   46.3116 H   0  0  0  0  0  0  0  0  0  0  0  0
   64.2337   34.5996   45.7882 H   0  0  0  0  0  0  0  0  0  0  0  0
   63.0858   33.2179   45.7882 H   0  0  0  0  0  0  0  0  0  0  0  0
   64.6477   34.4239   48.0233 H   0  0  0  0  0  0  0  0  0  0  0  0
   62.9098   34.0323   48.3919 H   0  0  0  0  0  0  0  0  0  0  0  0
   64.4880   32.0400   47.0180 H   0  0  0  0  0  0  0  0  0  0  0  0
   64.8810   32.2980   48.6400 H   0  0  0  0  0  0  0  0  0  0  0  0
   63.3130   30.6894   48.8729 H   0  0  0  0  0  0  0  0  0  0  0  0
   62.3202   32.2006   48.9914 H   0  0  0  0  0  0  0  0  0  0  0  0
   62.1535   31.9286   46.3629 H   0  0  0  0  0  0  0  0  0  0  0  0
   62.5386   30.2017   46.7407 H   0  0  0  0  0  0  0  0  0  0  0  0
   60.4990   30.8030   48.5240 H   0  0  0  0  0  0  0  0  0  0  0  0
   60.6587   33.3990   47.5210 H   0  0  0  0  0  0  0  0  0  0  0  0
   60.1130   35.6785   46.6923 H   0  0  0  0  0  0  0  0  0  0  0  0
   58.4904   35.9755   44.8311 H   0  0  0  0  0  0  0  0  0  0  0  0
   57.4675   33.9950   43.7351 H   0  0  0  0  0  0  0  0  0  0  0  0
   56.3794   31.8241   43.0512 H   0  0  0  0  0  0  0  0  0  0  0  0
   57.9729   32.3610   42.4193 H   0  0  0  0  0  0  0  0  0  0  0  0
   57.5485   30.6155   42.4193 H   0  0  0  0  0  0  0  0  0  0  0  0
   56.7249   29.2230   43.5265 H   0  0  0  0  0  0  0  0  0  0  0  0
   56.9039   26.9766   44.5529 H   0  0  0  0  0  0  0  0  0  0  0  0
   58.2695   26.6378   46.5920 H   0  0  0  0  0  0  0  0  0  0  0  0
   60.7489   26.2116   48.6283 H   0  0  0  0  0  0  0  0  0  0  0  0
   59.7317   26.2317   47.1479 H   0  0  0  0  0  0  0  0  0  0  0  0
   61.3338   27.0441   47.1479 H   0  0  0  0  0  0  0  0  0  0  0  0
  1  2  1  0
  2  3  1  0
  3  4  1  0
  4  5  1  0
  5  6  1  0
  6  7  1  0
  7  8  2  0
  8  9  1  0
  9 10  2  0
 10 11  1  0
 11 12  2  0
 12 13  1  0
 13 14  2  0
 14 15  1  0
 14 16  1  0
 16 17  2  0
 17 18  1  0
 18 19  2  0
 19 20  1  0
 20 21  1  0
 21 22  1  0
 20 23  2  0
 23  7  1  0
 13  8  1  0
 23 16  1  0
  1 24  1  0
  1 25  1  0
  1 26  1  0
  2 27  1  0
  2 28  1  0
  3 29  1  0
  3 30  1  0
  4 31  1  0
  4 32  1  0
  5 33  1  0
  5 34  1  0
  6 35  1  0
  9 36  1  0
 10 37  1  0
 11 38  1  0
 12 39  1  0
 15 40  1  0
 15 41  1  0
 15 42  1  0
 17 43  1  0
 18 44  1  0
 19 45  1  0
 22 46  1  0
 22 47  1  0
 22 48  1  0
M  CHG  2   3   1  14   1
M  END
>  <UniqueID>  (7) 
7

>  <SMILES>  (7) 
CC[NH2+]CCNc1c2ccccc2[n+](C)c2cccc(SC)c12

>  <Energy>  (7) 
75.05200329051543

>  <Genealogy>  (7) 
CC[NH2+]CCNc1c2ccccc2[n+](C)c2cccc(SC)c12 (protonated)
CC[NH2+]CCNc1c2ccccc2[n+](C)c2cccc(SC)c12 (3D coordinates assigned)
CC[NH2+]CCNc1c2ccccc2[n+](C)c2cccc(SC)c12 (optimized conformer: 75.05200329051543 kcal/mol)

>  <smiles>  (7) 
CCNCCNc1c2ccccc2[n+](C)c2cccc(SC)c12

>  <score_type>  (7) 
oracle

>  <origin>  (7) 
adg

>  <m_score__min__energy>  (7) 
-4.6799999999999997

>  <m_primary>  (7) 
energy

$$$$
7:0
     RDKit          3D

 36 38  0  0  0  0  0  0  0  0999 V2000
   59.2010   34.3860   44.8610 C   0  0  0  0  0  0  0  0  0  0  0  0
   59.2980   33.2300   45.7780 N   0  0  0  0  0  0  0  0  0  0  0  0
   58.2650   32.3140   45.8670 C   0  0  0  0  0  0  0  0  0  0  0  0
   57.1000   32.2960   44.8920 C   0  0  0  0  0  0  0  0  0  0  0  0
   56.5460   30.9390   44.7490 N   0  0  0  0  0  0  0  0  0  0  0  0
   57.2950   30.1190   43.7820 C   0  0  0  0  0  0  0  0  0  0  0  0
   58.2110   29.1690   44.4930 C   0  0  0  0  0  0  0  0  0  0  0  0
   59.5960   29.2650   44.5580 C   0  0  0  0  0  0  0  0  0  0  0  0
   60.1890   28.2010   45.2480 C   0  0  0  0  0  0  0  0  0  0  0  0
   59.2780   27.2750   45.7360 C   0  0  0  0  0  0  0  0  0  0  0  0
   57.7320   27.7780   45.3060 S   0  0  0  0  0  0  0  0  0  0  0  0
   58.2990   31.3080   46.8410 C   0  0  0  0  0  0  0  0  0  0  0  0
   59.4020   31.1660   47.6690 C   0  0  0  0  0  0  0  0  0  0  0  0
   59.4080   30.2490   48.5350 O   0  0  0  0  0  0  0  0  0  0  0  0
   60.5000   32.0210   47.5150 C   0  0  0  0  0  0  0  0  0  0  0  0
   61.6570   31.8520   48.2990 C   0  0  0  0  0  0  0  0  0  0  0  0
   62.7640   32.6820   48.1170 C   0  0  0  0  0  0  0  0  0  0  0  0
   64.2030   32.4520   49.0920 Cl  0  0  0  0  0  0  0  0  0  0  0  0
   62.7290   33.6850   47.1520 C   0  0  0  0  0  0  0  0  0  0  0  0
   61.5880   33.8740   46.3710 C   0  0  0  0  0  0  0  0  0  0  0  0
   60.4410   33.0570   46.5420 C   0  0  0  0  0  0  0  0  0  0  0  0
   59.1232   35.3135   45.4472 H   0  0  0  0  0  0  0  0  0  0  0  0
   60.0988   34.4273   44.2268 H   0  0  0  0  0  0  0  0  0  0  0  0
   58.3088   34.2771   44.2268 H   0  0  0  0  0  0  0  0  0  0  0  0
   56.3119   32.9681   45.2623 H   0  0  0  0  0  0  0  0  0  0  0  0
   57.4636   32.6292   43.9087 H   0  0  0  0  0  0  0  0  0  0  0  0
   56.6300   30.4740   45.6840 H   0  0  0  0  0  0  0  0  0  0  0  0
   56.5850   29.5453   43.1682 H   0  0  0  0  0  0  0  0  0  0  0  0
   57.8980   30.7835   43.1458 H   0  0  0  0  0  0  0  0  0  0  0  0
   60.1678   30.0925   44.1127 H   0  0  0  0  0  0  0  0  0  0  0  0
   61.2758   28.1077   45.3901 H   0  0  0  0  0  0  0  0  0  0  0  0
   59.5248   26.3674   46.3064 H   0  0  0  0  0  0  0  0  0  0  0  0
   57.4436   30.6250   46.9499 H   0  0  0  0  0  0  0  0  0  0  0  0
   61.6887   31.0594   49.0611 H   0  0  0  0  0  0  0  0  0  0  0  0
   63.6060   34.3324   47.0043 H   0  0  0  0  0  0  0  0  0  0  0  0
   61.5779   34.6690   45.6108 H   0  0  0  0  0  0  0  0  0  0  0  0
  1  2  1  0
  2  3  1  0
  3  4  1  0
  4  5  1  0
  5  6  1  0
  6  7  1  0
  7  8  2  0
  8  9  1  0
  9 10  2  0
 10 11  1  0
  3 12  2  0
 12 13  1  0
 13 14  2  0
 13 15  1  0
 15 16  2  0
 16 17  1  0
 17 18  1  0
 17 19  2  0
 19 20  1  0
 20 21  2  0
 21  2  1  0
 11  7  1  0
 21 15  1  0
  1 22  1  0
  1 23  1  0
  1 24  1  0
  4 25  1  0
  4 26  1  0
  5 27  1  0
  6 28  1  0
  6 29  1  0
  8 30  1  0
  9 31  1  0
 10 32  1  0
 12 33  1  0
 16 34  1  0
 19 35  1  0
 20 36  1  0
M  END
>  <UniqueID>  (8) 
8

>  <SMILES>  (8) 
Cn1c(CNCc2cccs2)cc(=O)c2cc(Cl)ccc21

>  <Energy>  (8) 
73.42346101601323

>  <Genealogy>  (8) 
Cn1c(CNCc2cccs2)cc(=O)c2cc(Cl)ccc21 (3D coordinates assigned)
Cn1c(CNCc2cccs2)cc(=O)c2cc(Cl)ccc21 (optimized conformer: 73.42346101601323 kcal/mol)

>  <smiles>  (8) 
Cn1c(CNCc2cccs2)cc(=O)c2cc(Cl)ccc21

>  <score_type>  (8) 
oracle

>  <origin>  (8) 
adg

>  <m_score__min__energy>  (8) 
-7.1399999999999997

>  <m_primary>  (8) 
energy

$$$$
8:0
     RDKit          3D

 62 65  0  0  0  0  0  0  0  0999 V2000
   64.1320   33.0680   48.4860 C   0  0  0  0  0  0  0  0  0  0  0  0
   63.4010   32.7530   47.1780 C   0  0  0  0  0  0  0  0  0  0  0  0
   61.9510   32.5750   47.3770 N   0  0  0  0  0  0  0  0  0  0  0  0
   61.1990   33.8310   47.2330 C   0  0  0  0  0  0  0  0  0  0  0  0
   60.6800   34.2930   48.6050 C   0  0  0  0  0  0  0  0  0  0  0  0
   60.3540   33.1660   49.4920 N   0  0  0  0  0  0  0  0  0  0  0  0
   58.9880   32.6670   49.2860 C   0  0  0  0  0  0  0  0  0  0  0  0
   58.9550   31.7200   48.0930 C   0  0  0  0  0  0  0  0  0  0  0  0
   59.3920   30.3730   48.2210 C   0  0  0  0  0  0  0  0  0  0  0  0
   59.6560   29.7970   49.4900 C   0  0  0  0  0  0  0  0  0  0  0  0
   60.0790   28.4750   49.6070 C   0  0  0  0  0  0  0  0  0  0  0  0
   60.2330   27.6900   48.4750 C   0  0  0  0  0  0  0  0  0  0  0  0
   59.9640   28.2180   47.2160 C   0  0  0  0  0  0  0  0  0  0  0  0
   59.5530   29.5650   47.0590 C   0  0  0  0  0  0  0  0  0  0  0  0
   59.2840   30.1080   45.7750 C   0  0  0  0  0  0  0  0  0  0  0  0
   59.6790   29.3450   44.5150 C   0  0  0  0  0  0  0  0  0  0  0  0
   58.5110   28.7100   43.9030 N   0  0  0  0  0  0  0  0  0  0  0  0
   57.8380   27.5710   44.4720 C   0  0  0  0  0  0  0  0  0  0  0  0
   57.9780   26.2770   43.9310 C   0  0  0  0  0  0  0  0  0  0  0  0
   57.3120   25.1920   44.5090 C   0  0  0  0  0  0  0  0  0  0  0  0
   56.4970   25.3840   45.6300 C   0  0  0  0  0  0  0  0  0  0  0  0
   55.6480   23.9900   46.3730 S   0  0  0  0  0  0  0  0  0  0  0  0
   56.7690   23.9150   47.8050 C   0  0  0  0  0  0  0  0  0  0  0  0
   56.3550   26.6640   46.1760 C   0  0  0  0  0  0  0  0  0  0  0  0
   57.0200   27.7510   45.6000 C   0  0  0  0  0  0  0  0  0  0  0  0
   58.6160   31.3570   45.6800 C   0  0  0  0  0  0  0  0  0  0  0  0
   58.0810   31.8140   44.4510 C   0  0  0  0  0  0  0  0  0  0  0  0
   57.4330   33.0430   44.3600 C   0  0  0  0  0  0  0  0  0  0  0  0
   57.2850   33.8380   45.4880 C   0  0  0  0  0  0  0  0  0  0  0  0
   57.7790   33.4060   46.7170 C   0  0  0  0  0  0  0  0  0  0  0  0
   58.4550   32.1670   46.8410 C   0  0  0  0  0  0  0  0  0  0  0  0
   63.4934   32.7928   49.3384 H   0  0  0  0  0  0  0  0  0  0  0  0
   65.0693   32.4939   48.5297 H   0  0  0  0  0  0  0  0  0  0  0  0
   64.3584   34.1436   48.5297 H   0  0  0  0  0  0  0  0  0  0  0  0
   63.5623   33.5825   46.4738 H   0  0  0  0  0  0  0  0  0  0  0  0
   63.8055   31.8085   46.7851 H   0  0  0  0  0  0  0  0  0  0  0  0
   61.7740   32.1710   48.3270 H   0  0  0  0  0  0  0  0  0  0  0  0
   61.8589   34.6047   46.8137 H   0  0  0  0  0  0  0  0  0  0  0  0
   60.3444   33.6654   46.5605 H   0  0  0  0  0  0  0  0  0  0  0  0
   61.4545   34.9083   49.0863 H   0  0  0  0  0  0  0  0  0  0  0  0
   59.7555   34.8651   48.4375 H   0  0  0  0  0  0  0  0  0  0  0  0
   61.0390   32.3900   49.3400 H   0  0  0  0  0  0  0  0  0  0  0  0
   58.6563   32.1300   50.1869 H   0  0  0  0  0  0  0  0  0  0  0  0
   58.3179   33.5173   49.0914 H   0  0  0  0  0  0  0  0  0  0  0  0
   59.5244   30.4047   50.3974 H   0  0  0  0  0  0  0  0  0  0  0  0
   60.2914   28.0529   50.6003 H   0  0  0  0  0  0  0  0  0  0  0  0
   60.5687   26.6470   48.5722 H   0  0  0  0  0  0  0  0  0  0  0  0
   60.0723   27.5788   46.3274 H   0  0  0  0  0  0  0  0  0  0  0  0
   60.1270   30.0456   43.7950 H   0  0  0  0  0  0  0  0  0  0  0  0
   60.4019   28.5625   44.7893 H   0  0  0  0  0  0  0  0  0  0  0  0
   58.1390   29.1040   43.0090 H   0  0  0  0  0  0  0  0  0  0  0  0
   58.6153   26.1197   43.0484 H   0  0  0  0  0  0  0  0  0  0  0  0
   57.4290   24.1852   44.0815 H   0  0  0  0  0  0  0  0  0  0  0  0
   56.1807   23.9544   48.7336 H   0  0  0  0  0  0  0  0  0  0  0  0
   57.3419   22.9765   47.7734 H   0  0  0  0  0  0  0  0  0  0  0  0
   57.4618   24.7688   47.7734 H   0  0  0  0  0  0  0  0  0  0  0  0
   55.7188   26.8159   47.0604 H   0  0  0  0  0  0  0  0  0  0  0  0
   56.9017   28.7550   46.0335 H   0  0  0  0  0  0  0  0  0  0  0  0
   58.1791   31.1870   43.5525 H   0  0  0  0  0  0  0  0  0  0  0  0
   57.0375   33.3846   43.3921 H   0  0  0  0  0  0  0  0  0  0  0  0
   56.7769   34.8106   45.4116 H   0  0  0  0  0  0  0  0  0  0  0  0
   57.6418   34.0380   47.6068 H   0  0  0  0  0  0  0  0  0  0  0  0
  1  2  1  0
  2  3  1  0
  3  4  1  0
  4  5  1  0
  5  6  1  0
  6  7  1  0
  7  8  1  0
  8  9  2  0
  9 10  1  0
 10 11  2  0
 11 12  1  0
 12 13  2  0
 13 14  1  0
 14 15  2  0
 15 16  1  0
 16 17  1  0
 17 18  1  0
 18 19  2  0
 19 20  1  0
 20 21  2  0
 21 22  1  0
 22 23  1  0
 21 24  1  0
 24 25  2  0
 15 26  1  0
 26 27  2  0
 27 28  1  0
 28 29  2  0
 29 30  1  0
 30 31  2  0
 31  8  1  0
 14  9  1  0
 25 18  1  0
 31 26  1  0
  1 32  1  0
  1 33  1  0
  1 34  1  0
  2 35  1  0
  2 36  1  0
  3 37  1  0
  4 38  1  0
  4 39  1  0
  5 40  1  0
  5 41  1  0
  6 42  1  0
  7 43  1  0
  7 44  1  0
 10 45  1  0
 11 46  1  0
 12 47  1  0
 13 48  1  0
 16 49  1  0
 16 50  1  0
 17 51  1  0
 19 52  1  0
 20 53  1  0
 23 54  1  0
 23 55  1  0
 23 56  1  0
 24 57  1  0
 25 58  1  0
 27 59  1  0
 28 60  1  0
 29 61  1  0
 30 62  1  0
M  END
>  <UniqueID>  (9) 
9

>  <SMILES>  (9) 
CCNCCNCc1c2ccccc2c(CNc2ccc(SC)cc2)c2ccccc12

>  <Energy>  (9) 
81.78142555936421

>  <Genealogy>  (9) 
CCNCCNCc1c2ccccc2c(CNc2ccc(SC)cc2)c2ccccc12 (3D coordinates assigned)
CCNCCNCc1c2ccccc2c(CNc2ccc(SC)cc2)c2ccccc12 (optimized conformer: 81.78142555936421 kcal/mol)

>  <smiles>  (9) 
CCNCCNCc1c2ccccc2c(CNc2ccc(SC)cc2)c2ccccc12

>  <score_type>  (9) 
oracle

>  <origin>  (9) 
adg

>  <m_score__min__energy>  (9) 
-8.6999999999999993

>  <m_primary>  (9) 
energy

$$$$
9:0
     RDKit          3D

 38 40  0  0  0  0  0  0  0  0999 V2000
   57.6420   24.4240   47.2190 C   0  0  0  0  0  0  0  0  0  0  0  0
   57.9910   25.7960   46.7030 C   0  0  0  0  0  0  0  0  0  0  0  0
   59.3290   26.2180   46.7610 C   0  0  0  0  0  0  0  0  0  0  0  0
   59.6990   27.4730   46.2810 C   0  0  0  0  0  0  0  0  0  0  0  0
   58.7360   28.3320   45.7570 C   0  0  0  0  0  0  0  0  0  0  0  0
   57.3930   27.9480   45.7040 C   0  0  0  0  0  0  0  0  0  0  0  0
   56.4430   28.8890   45.1870 N   0  0  0  0  0  0  0  0  0  0  0  0
   56.7750   29.9490   44.2850 C   0  0  0  0  0  0  0  0  0  0  0  0
   56.4400   29.8650   43.0730 O   0  0  0  0  0  0  0  0  0  0  0  0
   57.4610   31.1680   44.7660 C   0  0  0  0  0  0  0  0  0  0  0  0
   57.7700   31.3950   46.1060 C   0  0  0  0  0  0  0  0  0  0  0  0
   58.4220   32.6060   46.1290 C   0  0  0  0  0  0  0  0  0  0  0  0
   58.9670   33.3080   47.2030 C   0  0  0  0  0  0  0  0  0  0  0  0
   59.5980   34.5340   46.9330 C   0  0  0  0  0  0  0  0  0  0  0  0
   59.6730   35.0230   45.6120 C   0  0  0  0  0  0  0  0  0  0  0  0
   59.1150   34.2920   44.5470 C   0  0  0  0  0  0  0  0  0  0  0  0
   58.4860   33.0740   44.8400 C   0  0  0  0  0  0  0  0  0  0  0  0
   57.8870   32.2070   43.9920 N   0  0  0  0  0  0  0  0  0  0  0  0
   57.7330   32.3510   42.5420 C   0  0  0  0  0  0  0  0  0  0  0  0
   57.0120   26.6460   46.1220 C   0  0  0  0  0  0  0  0  0  0  0  0
   55.5880   26.1690   45.9500 C   0  0  0  0  0  0  0  0  0  0  0  0
   57.6446   24.4343   48.3190 H   0  0  0  0  0  0  0  0  0  0  0  0
   56.6429   24.1395   46.8574 H   0  0  0  0  0  0  0  0  0  0  0  0
   58.3837   23.6966   46.8574 H   0  0  0  0  0  0  0  0  0  0  0  0
   60.0923   25.5518   47.1893 H   0  0  0  0  0  0  0  0  0  0  0  0
   60.7531   27.7856   46.3160 H   0  0  0  0  0  0  0  0  0  0  0  0
   59.0350   29.3217   45.3814 H   0  0  0  0  0  0  0  0  0  0  0  0
   57.5412   30.7442   46.9628 H   0  0  0  0  0  0  0  0  0  0  0  0
   58.9051   32.9149   48.2285 H   0  0  0  0  0  0  0  0  0  0  0  0
   60.0363   35.1162   47.7570 H   0  0  0  0  0  0  0  0  0  0  0  0
   60.1715   35.9831   45.4129 H   0  0  0  0  0  0  0  0  0  0  0  0
   59.1708   34.6657   43.5139 H   0  0  0  0  0  0  0  0  0  0  0  0
   56.9448   33.0880   42.3284 H   0  0  0  0  0  0  0  0  0  0  0  0
   58.6827   32.6926   42.1045 H   0  0  0  0  0  0  0  0  0  0  0  0
   57.4558   31.3805   42.1045 H   0  0  0  0  0  0  0  0  0  0  0  0
   55.1307   26.0158   46.9386 H   0  0  0  0  0  0  0  0  0  0  0  0
   55.0133   26.9237   45.3931 H   0  0  0  0  0  0  0  0  0  0  0  0
   55.5838   25.2204   45.3931 H   0  0  0  0  0  0  0  0  0  0  0  0
  1  2  1  0
  2  3  2  0
  3  4  1  0
  4  5  2  0
  5  6  1  0
  6  7  1  0
  7  8  1  0
  8  9  2  0
  8 10  1  0
 10 11  2  0
 11 12  1  0
 12 13  2  0
 13 14  1  0
 14 15  2  0
 15 16  1  0
 16 17  2  0
 17 18  1  0
 18 19  1  0
  6 20  2  0
 20 21  1  0
 20  2  1  0
 18 10  1  0
 17 12  1  0
  1 22  1  0
  1 23  1  0
  1 24  1  0
  3 25  1  0
  4 26  1  0
  5 27  1  0
 11 28  1  0
 13 29  1  0
 14 30  1  0
 15 31  1  0
 16 32  1  0
 19 33  1  0
 19 34  1  0
 19 35  1  0
 21 36  1  0
 21 37  1  0
 21 38  1  0
M  CHG  1   7  -1
M  END
>  <UniqueID>  (10) 
10

>  <SMILES>  (10) 
Cc1cccc([N-]C(=O)c2cc3ccccc3n2C)c1C

>  <Energy>  (10) 
83.73087782305595

>  <Genealogy>  (10) 
Cc1cccc([N-]C(=O)c2cc3ccccc3n2C)c1C (protonated)
Cc1cccc([N-]C(=O)c2cc3ccccc3n2C)c1C (3D coordinates assigned)
Cc1cccc([N-]C(=O)c2cc3ccccc3n2C)c1C (optimized conformer: 83.73087782305595 kcal/mol)

>  <smiles>  (10) 
Cc1cccc(NC(=O)c2cc3ccccc3n2C)c1C

>  <score_type>  (10) 
oracle

>  <origin>  (10) 
adg

>  <m_score__min__energy>  (10) 
-8.7400000000000002

>  <m_primary>  (10) 
energy

$$$$
10:0
     RDKit          3D

 44 46  0  0  0  0  0  0  0  0999 V2000
   59.2340   35.1530   44.8680 C   0  0  0  0  0  0  0  0  0  0  0  0
   58.5000   33.9300   45.3660 C   0  0  0  0  0  0  0  0  0  0  0  0
   57.0240   34.2010   45.2150 C   0  0  0  0  0  0  0  0  0  0  0  0
   58.8040   33.4920   46.6520 N   0  0  0  0  0  0  0  0  0  0  0  0
   59.6480   34.1930   47.5020 C   0  0  0  0  0  0  0  0  0  0  0  0
   61.0630   33.8680   47.5760 C   0  0  0  0  0  0  0  0  0  0  0  0
   61.9390   33.8000   46.5150 C   0  0  0  0  0  0  0  0  0  0  0  0
   63.2850   33.4790   46.6810 C   0  0  0  0  0  0  0  0  0  0  0  0
   63.8060   33.2120   47.9310 C   0  0  0  0  0  0  0  0  0  0  0  0
   62.9400   33.2770   49.0000 C   0  0  0  0  0  0  0  0  0  0  0  0
   61.6080   33.5950   48.8340 C   0  0  0  0  0  0  0  0  0  0  0  0
   58.2320   32.2830   47.1140 C   0  0  0  0  0  0  0  0  0  0  0  0
   58.0420   31.2110   46.1150 C   0  0  0  0  0  0  0  0  0  0  0  0
   57.0110   31.2420   45.2350 N   0  0  0  0  0  0  0  0  0  0  0  0
   56.7900   30.3040   44.3130 C   0  0  0  0  0  0  0  0  0  0  0  0
   55.8360   30.3290   43.4960 O   0  0  0  0  0  0  0  0  0  0  0  0
   57.6710   29.2420   44.2610 C   0  0  0  0  0  0  0  0  0  0  0  0
   57.7850   28.1090   43.4810 C   0  0  0  0  0  0  0  0  0  0  0  0
   58.8800   27.4340   43.9170 N   0  0  0  0  0  0  0  0  0  0  0  0
   59.4490   28.0800   44.9190 N   0  0  0  0  0  0  0  0  0  0  0  0
   60.6360   27.6850   45.6520 C   0  0  0  0  0  0  0  0  0  0  0  0
   58.7230   29.1910   45.1440 C   0  0  0  0  0  0  0  0  0  0  0  0
   58.8970   30.1560   46.0460 N   0  0  0  0  0  0  0  0  0  0  0  0
   59.5881   35.7429   45.7263 H   0  0  0  0  0  0  0  0  0  0  0  0
   60.0943   34.8411   44.2576 H   0  0  0  0  0  0  0  0  0  0  0  0
   58.5541   35.7654   44.2576 H   0  0  0  0  0  0  0  0  0  0  0  0
   58.8430   33.0868   44.7485 H   0  0  0  0  0  0  0  0  0  0  0  0
   56.5631   34.2856   46.2102 H   0  0  0  0  0  0  0  0  0  0  0  0
   56.8784   35.1409   44.6624 H   0  0  0  0  0  0  0  0  0  0  0  0
   56.5540   33.3741   44.6624 H   0  0  0  0  0  0  0  0  0  0  0  0
   59.5835   35.2507   47.2069 H   0  0  0  0  0  0  0  0  0  0  0  0
   59.2793   33.9129   48.4998 H   0  0  0  0  0  0  0  0  0  0  0  0
   61.5632   34.0061   45.5019 H   0  0  0  0  0  0  0  0  0  0  0  0
   63.9434   33.4377   45.8008 H   0  0  0  0  0  0  0  0  0  0  0  0
   64.8676   32.9581   48.0676 H   0  0  0  0  0  0  0  0  0  0  0  0
   63.3200   33.0702   50.0114 H   0  0  0  0  0  0  0  0  0  0  0  0
   60.9550   33.6350   49.7183 H   0  0  0  0  0  0  0  0  0  0  0  0
   58.8846   31.8876   47.9063 H   0  0  0  0  0  0  0  0  0  0  0  0
   57.2176   32.5522   47.4436 H   0  0  0  0  0  0  0  0  0  0  0  0
   57.1156   27.8094   42.6612 H   0  0  0  0  0  0  0  0  0  0  0  0
   60.4387   27.7507   46.7322 H   0  0  0  0  0  0  0  0  0  0  0  0
   60.9013   26.6501   45.3900 H   0  0  0  0  0  0  0  0  0  0  0  0
   61.4685   28.3545   45.3900 H   0  0  0  0  0  0  0  0  0  0  0  0
   59.6970   30.1490   46.7410 H   0  0  0  0  0  0  0  0  0  0  0  0
  1  2  1  0
  2  3  1  0
  2  4  1  0
  4  5  1  0
  5  6  1  0
  6  7  2  0
  7  8  1  0
  8  9  2  0
  9 10  1  0
 10 11  2  0
  4 12  1  0
 12 13  1  0
 13 14  2  0
 14 15  1  0
 15 16  2  0
 15 17  1  0
 17 18  1  0
 18 19  2  0
 19 20  1  0
 20 21  1  0
 20 22  1  0
 22 23  1  0
 11  6  1  0
 23 13  1  0
 22 17  2  0
  1 24  1  0
  1 25  1  0
  1 26  1  0
  2 27  1  0
  3 28  1  0
  3 29  1  0
  3 30  1  0
  5 31  1  0
  5 32  1  0
  7 33  1  0
  8 34  1  0
  9 35  1  0
 10 36  1  0
 11 37  1  0
 12 38  1  0
 12 39  1  0
 18 40  1  0
 21 41  1  0
 21 42  1  0
 21 43  1  0
 23 44  1  0
M  END
>  <smiles>  (11) 
CC(C)N(Cc1ccccc1)Cc1nc(=O)c2cnn(C)c2[nH]1

>  <score_type>  (11) 
oracle

>  <origin>  (11) 
adg

>  <m_score__min__energy>  (11) 
-7.7999999999999998

>  <m_primary>  (11) 
energy

$$$$
11:0
     RDKit          3D

 78 80  0  0  0  0  0  0  0  0999 V2000
   62.4580   33.4650   52.8460 C   0  0  0  0  0  0  0  0  0  0  0  0
   63.5430   33.2800   51.7750 C   0  0  0  0  0  0  0  0  0  0  0  0
   63.6800   31.8870   51.2670 N   0  0  0  0  0  0  0  0  0  0  0  0
   64.9110   31.7430   50.4430 C   0  0  0  0  0  0  0  0  0  0  0  0
   65.5690   33.0900   50.1170 C   0  0  0  0  0  0  0  0  0  0  0  0
   63.6310   30.8580   52.3400 C   0  0  0  0  0  0  0  0  0  0  0  0
   63.0790   29.4970   51.8630 C   0  0  0  0  0  0  0  0  0  0  0  0
   62.5480   29.5890   50.5530 O   0  0  0  0  0  0  0  0  0  0  0  0
   61.2880   28.9570   50.4810 C   0  0  0  0  0  0  0  0  0  0  0  0
   60.1910   30.0200   50.4830 C   0  0  0  0  0  0  0  0  0  0  0  0
   60.7480   31.2900   50.7650 O   0  0  0  0  0  0  0  0  0  0  0  0
   59.7550   32.1760   51.2410 C   0  0  0  0  0  0  0  0  0  0  0  0
   58.7760   32.4790   50.1070 C   0  0  0  0  0  0  0  0  0  0  0  0
   59.3650   33.3290   49.1410 O   0  0  0  0  0  0  0  0  0  0  0  0
   60.3280   34.1750   49.7380 C   0  0  0  0  0  0  0  0  0  0  0  0
   61.5850   34.1980   48.8650 C   0  0  0  0  0  0  0  0  0  0  0  0
   62.3560   33.0240   49.0440 O   0  0  0  0  0  0  0  0  0  0  0  0
   63.0250   32.6780   47.8490 C   0  0  0  0  0  0  0  0  0  0  0  0
   62.2950   31.5080   47.1930 C   0  0  0  0  0  0  0  0  0  0  0  0
   60.9110   31.4410   47.6590 N   0  0  0  0  0  0  0  0  0  0  0  0
   59.8310   31.1450   46.7580 C   0  0  0  0  0  0  0  0  0  0  0  0
   59.4160   29.8160   46.5580 C   0  0  0  0  0  0  0  0  0  0  0  0
   59.9660   28.7650   47.3230 C   0  0  0  0  0  0  0  0  0  0  0  0
   59.5250   27.4560   47.1510 C   0  0  0  0  0  0  0  0  0  0  0  0
   58.5180   27.1740   46.2360 C   0  0  0  0  0  0  0  0  0  0  0  0
   57.9560   28.1980   45.4730 C   0  0  0  0  0  0  0  0  0  0  0  0
   58.4080   29.5370   45.5960 C   0  0  0  0  0  0  0  0  0  0  0  0
   57.8810   30.5580   44.8270 N   0  0  0  0  0  0  0  0  0  0  0  0
   57.0570   30.2390   43.6400 C   0  0  0  0  0  0  0  0  0  0  0  0
   58.1410   31.8750   45.1560 C   0  0  0  0  0  0  0  0  0  0  0  0
   57.4160   32.9480   44.5760 C   0  0  0  0  0  0  0  0  0  0  0  0
   57.7260   34.2740   44.8790 C   0  0  0  0  0  0  0  0  0  0  0  0
   58.7500   34.5660   45.7710 C   0  0  0  0  0  0  0  0  0  0  0  0
   59.4540   33.5340   46.3880 C   0  0  0  0  0  0  0  0  0  0  0  0
   59.1480   32.1860   46.1080 C   0  0  0  0  0  0  0  0  0  0  0  0
   62.9119   33.3876   53.8450 H   0  0  0  0  0  0  0  0  0  0  0  0
   61.9934   34.4553   52.7301 H   0  0  0  0  0  0  0  0  0  0  0  0
   61.6915   32.6846   52.7301 H   0  0  0  0  0  0  0  0  0  0  0  0
   63.3003   33.9334   50.9240 H   0  0  0  0  0  0  0  0  0  0  0  0
   64.5005   33.5334   52.2536 H   0  0  0  0  0  0  0  0  0  0  0  0
   62.8570   31.7290   50.6380 H   0  0  0  0  0  0  0  0  0  0  0  0
   65.6331   31.1236   50.9952 H   0  0  0  0  0  0  0  0  0  0  0  0
   64.6191   31.2777   49.4900 H   0  0  0  0  0  0  0  0  0  0  0  0
   65.8230   33.6099   51.0525 H   0  0  0  0  0  0  0  0  0  0  0  0
   66.4849   32.9187   49.5324 H   0  0  0  0  0  0  0  0  0  0  0  0
   64.8709   33.7071   49.5324 H   0  0  0  0  0  0  0  0  0  0  0  0
   64.6508   30.7053   52.7229 H   0  0  0  0  0  0  0  0  0  0  0  0
   62.9460   31.2313   53.1155 H   0  0  0  0  0  0  0  0  0  0  0  0
   63.8936   28.7578   51.8686 H   0  0  0  0  0  0  0  0  0  0  0  0
   62.2719   29.1908   52.5447 H   0  0  0  0  0  0  0  0  0  0  0  0
   61.2255   28.3658   49.5555 H   0  0  0  0  0  0  0  0  0  0  0  0
   61.1588   28.2915   51.3473 H   0  0  0  0  0  0  0  0  0  0  0  0
   59.7069   30.0457   49.4956 H   0  0  0  0  0  0  0  0  0  0  0  0
   59.4489   29.7715   51.2560 H   0  0  0  0  0  0  0  0  0  0  0  0
   59.2161   31.7104   52.0794 H   0  0  0  0  0  0  0  0  0  0  0  0
   60.2235   33.1089   51.5877 H   0  0  0  0  0  0  0  0  0  0  0  0
   58.4819   31.5354   49.6241 H   0  0  0  0  0  0  0  0  0  0  0  0
   57.8965   32.9864   50.5300 H   0  0  0  0  0  0  0  0  0  0  0  0
   59.9208   35.1932   49.8242 H   0  0  0  0  0  0  0  0  0  0  0  0
   60.5802   33.7995   50.7407 H   0  0  0  0  0  0  0  0  0  0  0  0
   61.2867   34.2735   47.8089 H   0  0  0  0  0  0  0  0  0  0  0  0
   62.1966   35.0638   49.1589 H   0  0  0  0  0  0  0  0  0  0  0  0
   63.0295   33.5400   47.1657 H   0  0  0  0  0  0  0  0  0  0  0  0
   64.0628   32.3905   48.0733 H   0  0  0  0  0  0  0  0  0  0  0  0
   62.3031   31.6427   46.1013 H   0  0  0  0  0  0  0  0  0  0  0  0
   62.8069   30.5728   47.4639 H   0  0  0  0  0  0  0  0  0  0  0  0
   60.6940   31.6860   48.6510 H   0  0  0  0  0  0  0  0  0  0  0  0
   60.7509   28.9825   48.0624 H   0  0  0  0  0  0  0  0  0  0  0  0
   59.9745   26.6433   47.7405 H   0  0  0  0  0  0  0  0  0  0  0  0
   58.1628   26.1402   46.1128 H   0  0  0  0  0  0  0  0  0  0  0  0
   57.1486   27.9630   44.7639 H   0  0  0  0  0  0  0  0  0  0  0  0
   56.0770   29.8596   43.9651 H   0  0  0  0  0  0  0  0  0  0  0  0
   56.9165   31.1477   43.0362 H   0  0  0  0  0  0  0  0  0  0  0  0
   57.5650   29.4726   43.0362 H   0  0  0  0  0  0  0  0  0  0  0  0
   56.5959   32.7307   43.8758 H   0  0  0  0  0  0  0  0  0  0  0  0
   57.1578   35.0908   44.4101 H   0  0  0  0  0  0  0  0  0  0  0  0
   59.0054   35.6132   45.9905 H   0  0  0  0  0  0  0  0  0  0  0  0
   60.2568   33.7731   47.1009 H   0  0  0  0  0  0  0  0  0  0  0  0
  1  2  1  0
  2  3  1  0
  3  4  1  0
  4  5  1  0
  3  6  1  0
  6  7  1  0
  7  8  1  0
  8  9  1  0
  9 10  1  0
 10 11  1  0
 11 12  1  0
 12 13  1  0
 13 14  1  0
 14 15  1  0
 15 16  1  0
 16 17  1  0
 17 18  1  0
 18 19  1  0
 19 20  1  0
 20 21  1  0
 21 22  2  0
 22 23  1  0
 23 24  2  0
 24 25  1  0
 25 26  2  0
 26 27  1  0
 27 28  2  0
 28 29  1  0
 28 30  1  0
 30 31  2  0
 31 32  1  0
 32 33  2  0
 33 34  1  0
 34 35  2  0
 35 21  1  0
 27 22  1  0
 35 30  1  0
  1 36  1  0
  1 37  1  0
  1 38  1  0
  2 39  1  0
  2 40  1  0
  3 41  1  0
  4 42  1  0
  4 43  1  0
  5 44  1  0
  5 45  1  0
  5 46  1  0
  6 47  1  0
  6 48  1  0
  7 49  1  0
  7 50  1  0
  9 51  1  0
  9 52  1  0
 10 53  1  0
 10 54  1  0
 12 55  1  0
 12 56  1  0
 13 57  1  0
 13 58  1  0
 15 59  1  0
 15 60  1  0
 16 61  1  0
 16 62  1  0
 18 63  1  0
 18 64  1  0
 19 65  1  0
 19 66  1  0
 20 67  1  0
 23 68  1  0
 24 69  1  0
 25 70  1  0
 26 71  1  0
 29 72  1  0
 29 73  1  0
 29 74  1  0
 31 75  1  0
 32 76  1  0
 33 77  1  0
 34 78  1  0
M  CHG  2   3   1  28   1
M  END
>  <UniqueID>  (12) 
11

>  <SMILES>  (12) 
CC[NH+](CC)CCOCCOCCOCCOCCNc1c2ccccc2[n+](C)c2ccccc12

>  <Energy>  (12) 
107.44181852120462

>  <Genealogy>  (12) 
CC[NH+](CC)CCOCCOCCOCCOCCNc1c2ccccc2[n+](C)c2ccccc12 (protonated)
CC[NH+](CC)CCOCCOCCOCCOCCNc1c2ccccc2[n+](C)c2ccccc12 (3D coordinates assigned)
CC[NH+](CC)CCOCCOCCOCCOCCNc1c2ccccc2[n+](C)c2ccccc12 (optimized conformer: 107.44181852120462 kcal/mol)

>  <smiles>  (12) 
CCN(CC)CCOCCOCCOCCOCCNc1c2ccccc2[n+](C)c2ccccc12

>  <score_type>  (12) 
oracle

>  <origin>  (12) 
adg

>  <m_score__min__energy>  (12) 
-3.6699999999999999

>  <m_primary>  (12) 
energy

$$$$
12:0
     RDKit          3D

 90 92  0  0  0  0  0  0  0  0999 V2000
   60.9680   30.7860   46.7660 C   0  0  0  0  0  0  0  0  0  0  0  0
   60.0080   30.0750   45.8020 C   0  0  0  0  0  0  0  0  0  0  0  0
   58.7520   29.6250   46.4770 N   0  0  0  0  0  0  0  0  0  0  0  0
   58.8620   29.6510   47.9610 C   0  0  0  0  0  0  0  0  0  0  0  0
   59.5020   28.3820   48.5300 C   0  0  0  0  0  0  0  0  0  0  0  0
   58.3190   28.2840   45.9990 C   0  0  0  0  0  0  0  0  0  0  0  0
   57.2410   28.3250   44.9020 C   0  0  0  0  0  0  0  0  0  0  0  0
   56.2790   29.3050   45.2340 O   0  0  0  0  0  0  0  0  0  0  0  0
   55.9930   30.0890   44.0940 C   0  0  0  0  0  0  0  0  0  0  0  0
   57.0190   31.2080   43.9740 C   0  0  0  0  0  0  0  0  0  0  0  0
   57.3650   31.6750   45.2610 O   0  0  0  0  0  0  0  0  0  0  0  0
   57.1020   33.0620   45.3760 C   0  0  0  0  0  0  0  0  0  0  0  0
   58.3180   33.8790   44.9410 C   0  0  0  0  0  0  0  0  0  0  0  0
   59.4890   33.3450   45.5330 O   0  0  0  0  0  0  0  0  0  0  0  0
   59.9900   34.2200   46.5230 C   0  0  0  0  0  0  0  0  0  0  0  0
   59.0070   34.2980   47.6860 C   0  0  0  0  0  0  0  0  0  0  0  0
   59.7230   34.3710   48.9610 N   0  0  0  0  0  0  0  0  0  0  0  0
   60.3410   33.2100   49.5480 C   0  0  0  0  0  0  0  0  0  0  0  0
   61.7220   32.9820   49.3890 C   0  0  0  0  0  0  0  0  0  0  0  0
   62.5080   33.8330   48.5790 C   0  0  0  0  0  0  0  0  0  0  0  0
   63.8700   33.6020   48.4140 C   0  0  0  0  0  0  0  0  0  0  0  0
   64.4680   32.5050   49.0190 C   0  0  0  0  0  0  0  0  0  0  0  0
   63.7110   31.6350   49.8020 C   0  0  0  0  0  0  0  0  0  0  0  0
   62.3270   31.8630   50.0220 C   0  0  0  0  0  0  0  0  0  0  0  0
   61.5680   31.0210   50.8150 N   0  0  0  0  0  0  0  0  0  0  0  0
   62.2400   30.0200   51.6710 C   0  0  0  0  0  0  0  0  0  0  0  0
   60.1870   31.1250   50.8140 C   0  0  0  0  0  0  0  0  0  0  0  0
   59.3620   30.1210   51.3850 C   0  0  0  0  0  0  0  0  0  0  0  0
   57.9680   30.2810   51.4700 C   0  0  0  0  0  0  0  0  0  0  0  0
   57.1340   29.3340   52.0870 O   0  0  0  0  0  0  0  0  0  0  0  0
   55.8630   29.6100   52.6840 C   0  0  0  0  0  0  0  0  0  0  0  0
   55.8810   29.2400   54.1830 C   0  0  0  0  0  0  0  0  0  0  0  0
   55.4900   27.8300   54.5020 N   0  0  0  0  0  0  0  0  0  0  0  0
   54.3700   27.3760   53.6470 C   0  0  0  0  0  0  0  0  0  0  0  0
   56.6620   26.9590   54.2380 C   0  0  0  0  0  0  0  0  0  0  0  0
   55.1130   27.6790   55.9300 C   0  0  0  0  0  0  0  0  0  0  0  0
   57.3860   31.4420   50.9700 C   0  0  0  0  0  0  0  0  0  0  0  0
   58.1610   32.4080   50.3350 C   0  0  0  0  0  0  0  0  0  0  0  0
   59.5590   32.2530   50.2230 C   0  0  0  0  0  0  0  0  0  0  0  0
   60.6739   30.5682   47.8033 H   0  0  0  0  0  0  0  0  0  0  0  0
   61.9935   30.4279   46.5927 H   0  0  0  0  0  0  0  0  0  0  0  0
   60.9244   31.8714   46.5927 H   0  0  0  0  0  0  0  0  0  0  0  0
   59.7438   30.7692   44.9906 H   0  0  0  0  0  0  0  0  0  0  0  0
   60.5205   29.1811   45.4168 H   0  0  0  0  0  0  0  0  0  0  0  0
   57.9670   30.2700   46.2140 H   0  0  0  0  0  0  0  0  0  0  0  0
   59.4760   30.5157   48.2529 H   0  0  0  0  0  0  0  0  0  0  0  0
   57.8423   29.7191   48.3679 H   0  0  0  0  0  0  0  0  0  0  0  0
   59.4817   28.4222   49.6291 H   0  0  0  0  0  0  0  0  0  0  0  0
   58.9401   27.5015   48.1849 H   0  0  0  0  0  0  0  0  0  0  0  0
   60.5440   28.3104   48.1849 H   0  0  0  0  0  0  0  0  0  0  0  0
   59.1991   27.7594   45.5988 H   0  0  0  0  0  0  0  0  0  0  0  0
   57.8729   27.7688   46.8624 H   0  0  0  0  0  0  0  0  0  0  0  0
   57.7064   28.5777   43.9379 H   0  0  0  0  0  0  0  0  0  0  0  0
   56.7552   27.3412   44.8236 H   0  0  0  0  0  0  0  0  0  0  0  0
   56.0340   29.4566   43.1949 H   0  0  0  0  0  0  0  0  0  0  0  0
   54.9874   30.5239   44.1923 H   0  0  0  0  0  0  0  0  0  0  0  0
   57.9188   30.8268   43.4690 H   0  0  0  0  0  0  0  0  0  0  0  0
   56.5902   32.0349   43.3890 H   0  0  0  0  0  0  0  0  0  0  0  0
   56.2450   33.3214   44.7370 H   0  0  0  0  0  0  0  0  0  0  0  0
   56.8773   33.2939   46.4275 H   0  0  0  0  0  0  0  0  0  0  0  0
   58.4117   33.8401   43.8457 H   0  0  0  0  0  0  0  0  0  0  0  0
   58.1900   34.9226   45.2642 H   0  0  0  0  0  0  0  0  0  0  0  0
   60.9577   33.8444   46.8869 H   0  0  0  0  0  0  0  0  0  0  0  0
   60.1217   35.2225   46.0898 H   0  0  0  0  0  0  0  0  0  0  0  0
   58.3810   35.1952   47.5709 H   0  0  0  0  0  0  0  0  0  0  0  0
   58.3802   33.3941   47.6822 H   0  0  0  0  0  0  0  0  0  0  0  0
   59.9460   35.3150   49.3480 H   0  0  0  0  0  0  0  0  0  0  0  0
   62.0369   34.6885   48.0728 H   0  0  0  0  0  0  0  0  0  0  0  0
   64.4737   34.2895   47.8034 H   0  0  0  0  0  0  0  0  0  0  0  0
   65.5436   32.3215   48.8799 H   0  0  0  0  0  0  0  0  0  0  0  0
   64.1938   30.7575   50.2569 H   0  0  0  0  0  0  0  0  0  0  0  0
   62.0720   30.2703   52.7289 H   0  0  0  0  0  0  0  0  0  0  0  0
   61.8283   29.0219   51.4605 H   0  0  0  0  0  0  0  0  0  0  0  0
   63.3197   30.0231   51.4605 H   0  0  0  0  0  0  0  0  0  0  0  0
   59.8229   29.1989   51.7688 H   0  0  0  0  0  0  0  0  0  0  0  0
   55.6376   30.6814   52.5778 H   0  0  0  0  0  0  0  0  0  0  0  0
   55.0928   29.0098   52.1774 H   0  0  0  0  0  0  0  0  0  0  0  0
   56.9014   29.4027   54.5604 H   0  0  0  0  0  0  0  0  0  0  0  0
   55.1249   29.8796   54.6618 H   0  0  0  0  0  0  0  0  0  0  0  0
   53.5375   27.0385   54.2819 H   0  0  0  0  0  0  0  0  0  0  0  0
   54.0327   28.2084   53.0119 H   0  0  0  0  0  0  0  0  0  0  0  0
   54.7075   26.5437   53.0119 H   0  0  0  0  0  0  0  0  0  0  0  0
   57.0997   26.6337   55.1933 H   0  0  0  0  0  0  0  0  0  0  0  0
   56.3418   26.0779   53.6625 H   0  0  0  0  0  0  0  0  0  0  0  0
   57.4133   27.5197   53.6625 H   0  0  0  0  0  0  0  0  0  0  0  0
   55.9459   28.0126   56.5664 H   0  0  0  0  0  0  0  0  0  0  0  0
   54.2229   28.2900   56.1408 H   0  0  0  0  0  0  0  0  0  0  0  0
   54.8908   26.6225   56.1408 H   0  0  0  0  0  0  0  0  0  0  0  0
   56.3024   31.5978   51.0778 H   0  0  0  0  0  0  0  0  0  0  0  0
   57.6780   33.3028   49.9155 H   0  0  0  0  0  0  0  0  0  0  0  0
  1  2  1  0
  2  3  1  0
  3  4  1  0
  4  5  1  0
  3  6  1  0
  6  7  1  0
  7  8  1  0
  8  9  1  0
  9 10  1  0
 10 11  1  0
 11 12  1  0
 12 13  1  0
 13 14  1  0
 14 15  1  0
 15 16  1  0
 16 17  1  0
 17 18  1  0
 18 19  2  0
 19 20  1  0
 20 21  2  0
 21 22  1  0
 22 23  2  0
 23 24  1  0
 24 25  2  0
 25 26  1  0
 25 27  1  0
 27 28  2  0
 28 29  1  0
 29 30  1  0
 30 31  1  0
 31 32  1  0
 32 33  1  0
 33 34  1  0
 33 35  1  0
 33 36  1  0
 29 37  2  0
 37 38  1  0
 38 39  2  0
 39 18  1  0
 24 19  1  0
 39 27  1  0
  1 40  1  0
  1 41  1  0
  1 42  1  0
  2 43  1  0
  2 44  1  0
  3 45  1  0
  4 46  1  0
  4 47  1  0
  5 48  1  0
  5 49  1  0
  5 50  1  0
  6 51  1  0
  6 52  1  0
  7 53  1  0
  7 54  1  0
  9 55  1  0
  9 56  1  0
 10 57  1  0
 10 58  1  0
 12 59  1  0
 12 60  1  0
 13 61  1  0
 13 62  1  0
 15 63  1  0
 15 64  1  0
 16 65  1  0
 16 66  1  0
 17 67  1  0
 20 68  1  0
 21 69  1  0
 22 70  1  0
 23 71  1  0
 26 72  1  0
 26 73  1  0
 26 74  1  0
 28 75  1  0
 31 76  1  0
 31 77  1  0
 32 78  1  0
 32 79  1  0
 34 80  1  0
 34 81  1  0
 34 82  1  0
 35 83  1  0
 35 84  1  0
 35 85  1  0
 36 86  1  0
 36 87  1  0
 36 88  1  0
 37 89  1  0
 38 90  1  0
M  CHG  3   3   1  25   1  33   1
M  END
>  <UniqueID>  (13) 
12

>  <SMILES>  (13) 
CC[NH+](CC)CCOCCOCCOCCNc1c2ccccc2[n+](C)c2cc(OCC[N+](C)(C)C)ccc12

>  <Energy>  (13) 
117.81843437831397

>  <Genealogy>  (13) 
CC[NH+](CC)CCOCCOCCOCCNc1c2ccccc2[n+](C)c2cc(OCC[N+](C)(C)C)ccc12 (protonated)
CC[NH+](CC)CCOCCOCCOCCNc1c2ccccc2[n+](C)c2cc(OCC[N+](C)(C)C)ccc12 (3D coordinates assigned)
CC[NH+](CC)CCOCCOCCOCCNc1c2ccccc2[n+](C)c2cc(OCC[N+](C)(C)C)ccc12 (optimized conformer: 117.81843437831397 kcal/mol)

>  <smiles>  (13) 
CCN(CC)CCOCCOCCOCCNc1c2ccccc2[n+](C)c2cc(OCC[N+](C)(C)C)ccc12

>  <score_type>  (13) 
oracle

>  <origin>  (13) 
adg

>  <m_score__min__energy>  (13) 
-3.2599999999999998

>  <m_primary>  (13) 
energy

$$$$
13:0
     RDKit          3D

 41 42  0  0  0  0  0  0  0  0999 V2000
   54.9280   24.5140   45.6250 C   0  0  0  0  0  0  0  0  0  0  0  0
   56.1480   25.2510   46.1840 C   0  0  0  0  0  0  0  0  0  0  0  0
   56.9940   25.8270   45.1280 N   0  0  0  0  0  0  0  0  0  0  0  0
   58.3530   26.1220   45.6020 C   0  0  0  0  0  0  0  0  0  0  0  0
   58.5530   27.6110   45.6520 C   0  0  0  0  0  0  0  0  0  0  0  0
   59.1080   28.2870   44.5550 C   0  0  0  0  0  0  0  0  0  0  0  0
   59.2640   29.6760   44.5870 C   0  0  0  0  0  0  0  0  0  0  0  0
   58.8630   30.4080   45.7150 C   0  0  0  0  0  0  0  0  0  0  0  0
   59.0200   31.8780   45.7510 C   0  0  0  0  0  0  0  0  0  0  0  0
   59.8010   32.4550   46.7670 C   0  0  0  0  0  0  0  0  0  0  0  0
   59.9630   33.8410   46.8370 C   0  0  0  0  0  0  0  0  0  0  0  0
   59.3490   34.6650   45.8940 C   0  0  0  0  0  0  0  0  0  0  0  0
   58.5810   34.1060   44.8710 C   0  0  0  0  0  0  0  0  0  0  0  0
   58.4200   32.7170   44.7820 C   0  0  0  0  0  0  0  0  0  0  0  0
   57.4600   32.0490   43.4090 S   0  0  0  0  0  0  0  0  0  0  0  0
   56.2970   31.1020   44.4550 C   0  0  0  0  0  0  0  0  0  0  0  0
   55.9860   29.7280   43.8580 C   0  0  0  0  0  0  0  0  0  0  0  0
   55.7480   28.7870   44.8710 O   0  0  0  0  0  0  0  0  0  0  0  0
   58.2820   29.7350   46.8010 C   0  0  0  0  0  0  0  0  0  0  0  0
   58.1270   28.3460   46.7700 C   0  0  0  0  0  0  0  0  0  0  0  0
   54.3117   24.1417   46.4566 H   0  0  0  0  0  0  0  0  0  0  0  0
   54.3335   25.2042   45.0084 H   0  0  0  0  0  0  0  0  0  0  0  0
   55.2623   23.6666   45.0084 H   0  0  0  0  0  0  0  0  0  0  0  0
   55.7993   26.0635   46.8384 H   0  0  0  0  0  0  0  0  0  0  0  0
   56.7559   24.5184   46.7352 H   0  0  0  0  0  0  0  0  0  0  0  0
   56.5560   26.7120   44.7750 H   0  0  0  0  0  0  0  0  0  0  0  0
   58.4904   25.6994   46.6083 H   0  0  0  0  0  0  0  0  0  0  0  0
   59.0865   25.6760   44.9143 H   0  0  0  0  0  0  0  0  0  0  0  0
   59.4220   27.7214   43.6653 H   0  0  0  0  0  0  0  0  0  0  0  0
   59.7032   30.1975   43.7238 H   0  0  0  0  0  0  0  0  0  0  0  0
   60.2886   31.8103   47.5130 H   0  0  0  0  0  0  0  0  0  0  0  0
   60.5755   34.2828   47.6368 H   0  0  0  0  0  0  0  0  0  0  0  0
   59.4700   35.7565   45.9564 H   0  0  0  0  0  0  0  0  0  0  0  0
   58.0990   34.7604   44.1298 H   0  0  0  0  0  0  0  0  0  0  0  0
   56.7443   30.9648   45.4506 H   0  0  0  0  0  0  0  0  0  0  0  0
   55.3560   31.6680   44.5191 H   0  0  0  0  0  0  0  0  0  0  0  0
   55.0928   29.8055   43.2207 H   0  0  0  0  0  0  0  0  0  0  0  0
   56.8516   29.3969   43.2655 H   0  0  0  0  0  0  0  0  0  0  0  0
   56.2080   27.9510   44.5950 H   0  0  0  0  0  0  0  0  0  0  0  0
   57.9469   30.3034   47.6811 H   0  0  0  0  0  0  0  0  0  0  0  0
   57.6694   27.8267   47.6250 H   0  0  0  0  0  0  0  0  0  0  0  0
  1  2  1  0
  2  3  1  0
  3  4  1  0
  4  5  1  0
  5  6  2  0
  6  7  1  0
  7  8  2  0
  8  9  1  0
  9 10  2  0
 10 11  1  0
 11 12  2  0
 12 13  1  0
 13 14  2  0
 14 15  1  0
 15 16  1  0
 16 17  1  0
 17 18  1  0
  8 19  1  0
 19 20  2  0
 20  5  1  0
 14  9  1  0
  1 21  1  0
  1 22  1  0
  1 23  1  0
  2 24  1  0
  2 25  1  0
  3 26  1  0
  4 27  1  0
  4 28  1  0
  6 29  1  0
  7 30  1  0
 10 31  1  0
 11 32  1  0
 12 33  1  0
 13 34  1  0
 16 35  1  0
 16 36  1  0
 17 37  1  0
 17 38  1  0
 18 39  1  0
 19 40  1  0
 20 41  1  0
M  END
>  <UniqueID>  (14) 
13

>  <SMILES>  (14) 
CCNCc1ccc(-c2ccccc2SCCO)cc1

>  <Energy>  (14) 
39.58346368589306

>  <Genealogy>  (14) 
CCNCc1ccc(-c2ccccc2SCCO)cc1 (3D coordinates assigned)
CCNCc1ccc(-c2ccccc2SCCO)cc1 (optimized conformer: 39.58346368589306 kcal/mol)

>  <smiles>  (14) 
CCNCc1ccc(-c2ccccc2SCCO)cc1

>  <score_type>  (14) 
oracle

>  <origin>  (14) 
adg

>  <m_score__min__energy>  (14) 
-7.71

>  <m_primary>  (14) 
energy

$$$$
14:0
     RDKit          3D

 74 77  0  0  0  0  0  0  0  0999 V2000
   65.2480   33.2550   50.4630 C   0  0  0  0  0  0  0  0  0  0  0  0
   64.4920   32.3400   49.4970 C   0  0  0  0  0  0  0  0  0  0  0  0
   63.4830   33.0840   48.7050 N   0  0  0  0  0  0  0  0  0  0  0  0
   63.7140   33.0290   47.2380 C   0  0  0  0  0  0  0  0  0  0  0  0
   62.7040   33.8420   46.4100 C   0  0  0  0  0  0  0  0  0  0  0  0
   62.1000   32.6790   49.0600 C   0  0  0  0  0  0  0  0  0  0  0  0
   61.5470   33.5410   50.2030 C   0  0  0  0  0  0  0  0  0  0  0  0
   61.2080   32.7500   51.3290 O   0  0  0  0  0  0  0  0  0  0  0  0
   59.8810   33.0080   51.7550 C   0  0  0  0  0  0  0  0  0  0  0  0
   58.9730   33.0760   50.5360 C   0  0  0  0  0  0  0  0  0  0  0  0
   57.8850   32.2020   50.7310 O   0  0  0  0  0  0  0  0  0  0  0  0
   57.9470   31.6340   52.0250 C   0  0  0  0  0  0  0  0  0  0  0  0
   57.9930   30.1150   51.8930 C   0  0  0  0  0  0  0  0  0  0  0  0
   58.1580   29.7820   50.5280 O   0  0  0  0  0  0  0  0  0  0  0  0
   59.5130   29.5210   50.2200 C   0  0  0  0  0  0  0  0  0  0  0  0
   59.8870   30.1340   48.8630 C   0  0  0  0  0  0  0  0  0  0  0  0
   58.7600   30.8750   48.2830 N   0  0  0  0  0  0  0  0  0  0  0  0
   58.7310   31.2520   46.8990 C   0  0  0  0  0  0  0  0  0  0  0  0
   58.9070   32.5970   46.4890 C   0  0  0  0  0  0  0  0  0  0  0  0
   59.3040   33.5850   47.4140 C   0  0  0  0  0  0  0  0  0  0  0  0
   59.4850   34.9050   47.0120 C   0  0  0  0  0  0  0  0  0  0  0  0
   59.2940   35.2630   45.6810 C   0  0  0  0  0  0  0  0  0  0  0  0
   58.9260   34.3030   44.7380 C   0  0  0  0  0  0  0  0  0  0  0  0
   58.7210   32.9510   45.1110 C   0  0  0  0  0  0  0  0  0  0  0  0
   58.3730   31.9840   44.1770 N   0  0  0  0  0  0  0  0  0  0  0  0
   58.0850   32.3480   42.7760 C   0  0  0  0  0  0  0  0  0  0  0  0
   58.3270   30.6720   44.5820 C   0  0  0  0  0  0  0  0  0  0  0  0
   58.1160   29.5850   43.7930 N   0  0  0  0  0  0  0  0  0  0  0  0
   58.1480   28.5300   44.6320 C   0  0  0  0  0  0  0  0  0  0  0  0
   58.0020   27.1880   44.2840 C   0  0  0  0  0  0  0  0  0  0  0  0
   58.1000   26.2280   45.3040 C   0  0  0  0  0  0  0  0  0  0  0  0
   58.3580   26.6220   46.6350 C   0  0  0  0  0  0  0  0  0  0  0  0
   58.5150   27.9800   46.9590 C   0  0  0  0  0  0  0  0  0  0  0  0
   58.3860   28.9210   45.9320 C   0  0  0  0  0  0  0  0  0  0  0  0
   58.5020   30.3020   45.9020 C   0  0  0  0  0  0  0  0  0  0  0  0
   65.0122   32.9696   51.4988 H   0  0  0  0  0  0  0  0  0  0  0  0
   66.3300   33.1545   50.2923 H   0  0  0  0  0  0  0  0  0  0  0  0
   64.9452   34.2986   50.2923 H   0  0  0  0  0  0  0  0  0  0  0  0
   65.2135   31.8766   48.8081 H   0  0  0  0  0  0  0  0  0  0  0  0
   63.9651   31.5787   50.0909 H   0  0  0  0  0  0  0  0  0  0  0  0
   64.7218   33.4189   47.0326 H   0  0  0  0  0  0  0  0  0  0  0  0
   63.5948   31.9773   46.9383 H   0  0  0  0  0  0  0  0  0  0  0  0
   62.0285   34.3858   47.0867 H   0  0  0  0  0  0  0  0  0  0  0  0
   63.2439   34.5604   45.7756 H   0  0  0  0  0  0  0  0  0  0  0  0
   62.1175   33.1611   45.7756 H   0  0  0  0  0  0  0  0  0  0  0  0
   61.4540   32.7956   48.1774 H   0  0  0  0  0  0  0  0  0  0  0  0
   62.1176   31.6301   49.3910 H   0  0  0  0  0  0  0  0  0  0  0  0
   62.3101   34.2761   50.4985 H   0  0  0  0  0  0  0  0  0  0  0  0
   60.6366   34.0455   49.8472 H   0  0  0  0  0  0  0  0  0  0  0  0
   59.5440   32.2001   52.4211 H   0  0  0  0  0  0  0  0  0  0  0  0
   59.8447   33.9635   52.2988 H   0  0  0  0  0  0  0  0  0  0  0  0
   58.6031   34.1039   50.4074 H   0  0  0  0  0  0  0  0  0  0  0  0
   59.5327   32.7812   49.6361 H   0  0  0  0  0  0  0  0  0  0  0  0
   58.8516   31.9879   52.5412 H   0  0  0  0  0  0  0  0  0  0  0  0
   57.0624   31.9321   52.6070 H   0  0  0  0  0  0  0  0  0  0  0  0
   58.8378   29.7185   52.4753 H   0  0  0  0  0  0  0  0  0  0  0  0
   57.0586   29.6777   52.2746 H   0  0  0  0  0  0  0  0  0  0  0  0
   60.1519   29.9572   51.0020 H   0  0  0  0  0  0  0  0  0  0  0  0
   59.6618   28.4322   50.1701 H   0  0  0  0  0  0  0  0  0  0  0  0
   60.7343   30.8216   49.0018 H   0  0  0  0  0  0  0  0  0  0  0  0
   60.1561   29.3181   48.1760 H   0  0  0  0  0  0  0  0  0  0  0  0
   57.9580   31.1420   48.8980 H   0  0  0  0  0  0  0  0  0  0  0  0
   59.4725   33.3090   48.4654 H   0  0  0  0  0  0  0  0  0  0  0  0
   59.7798   35.6672   47.7483 H   0  0  0  0  0  0  0  0  0  0  0  0
   59.4340   36.3090   45.3706 H   0  0  0  0  0  0  0  0  0  0  0  0
   58.7927   34.6003   43.6874 H   0  0  0  0  0  0  0  0  0  0  0  0
   57.4026   33.2105   42.7541 H   0  0  0  0  0  0  0  0  0  0  0  0
   59.0232   32.6097   42.2649 H   0  0  0  0  0  0  0  0  0  0  0  0
   57.6145   31.4951   42.2649 H   0  0  0  0  0  0  0  0  0  0  0  0
   57.9950   29.5300   42.7600 H   0  0  0  0  0  0  0  0  0  0  0  0
   57.8156   26.8901   43.2416 H   0  0  0  0  0  0  0  0  0  0  0  0
   57.9749   25.1617   45.0644 H   0  0  0  0  0  0  0  0  0  0  0  0
   58.4367   25.8599   47.4243 H   0  0  0  0  0  0  0  0  0  0  0  0
   58.7330   28.2942   47.9904 H   0  0  0  0  0  0  0  0  0  0  0  0
  1  2  1  0
  2  3  1  0
  3  4  1  0
  4  5  1  0
  3  6  1  0
  6  7  1  0
  7  8  1  0
  8  9  1  0
  9 10  1  0
 10 11  1  0
 11 12  1  0
 12 13  1  0
 13 14  1  0
 14 15  1  0
 15 16  1  0
 16 17  1  0
 17 18  1  0
 18 19  2  0
 19 20  1  0
 20 21  2  0
 21 22  1  0
 22 23  2  0
 23 24  1  0
 24 25  2  0
 25 26  1  0
 25 27  1  0
 27 28  1  0
 28 29  1  0
 29 30  2  0
 30 31  1  0
 31 32  2  0
 32 33  1  0
 33 34  2  0
 34 35  1  0
 35 18  1  0
 24 19  1  0
 35 27  2  0
 34 29  1  0
  1 36  1  0
  1 37  1  0
  1 38  1  0
  2 39  1  0
  2 40  1  0
  4 41  1  0
  4 42  1  0
  5 43  1  0
  5 44  1  0
  5 45  1  0
  6 46  1  0
  6 47  1  0
  7 48  1  0
  7 49  1  0
  9 50  1  0
  9 51  1  0
 10 52  1  0
 10 53  1  0
 12 54  1  0
 12 55  1  0
 13 56  1  0
 13 57  1  0
 15 58  1  0
 15 59  1  0
 16 60  1  0
 16 61  1  0
 17 62  1  0
 20 63  1  0
 21 64  1  0
 22 65  1  0
 23 66  1  0
 26 67  1  0
 26 68  1  0
 26 69  1  0
 28 70  1  0
 30 71  1  0
 31 72  1  0
 32 73  1  0
 33 74  1  0
M  CHG  1  25   1
M  END
>  <UniqueID>  (15) 
14

>  <SMILES>  (15) 
CCN(CC)CCOCCOCCOCCNc1c2ccccc2[n+](C)c2[nH]c3ccccc3c12

>  <Energy>  (15) 
129.74700512090425

>  <Genealogy>  (15) 
CCN(CC)CCOCCOCCOCCNc1c2ccccc2[n+](C)c2[nH]c3ccccc3c12 (3D coordinates assigned)
CCN(CC)CCOCCOCCOCCNc1c2ccccc2[n+](C)c2[nH]c3ccccc3c12 (optimized conformer: 129.74700512090425 kcal/mol)

>  <smiles>  (15) 
CCN(CC)CCOCCOCCOCCNc1c2ccccc2[n+](C)c2[nH]c3ccccc3c12

>  <score_type>  (15) 
oracle

>  <origin>  (15) 
adg

>  <m_score__min__energy>  (15) 
-6.5300000000000002

>  <m_primary>  (15) 
energy

$$$$
15:0
     RDKit          3D

 43 44  0  0  0  0  0  0  0  0999 V2000
   59.4730   33.4460   49.0660 C   0  0  0  0  0  0  0  0  0  0  0  0
   60.6250   34.2000   48.4030 C   0  0  0  0  0  0  0  0  0  0  0  0
   60.6620   33.9580   46.9430 N   0  0  0  0  0  0  0  0  0  0  0  0
   62.0490   33.8590   46.4360 C   0  0  0  0  0  0  0  0  0  0  0  0
   62.9250   33.1190   47.4420 C   0  0  0  0  0  0  0  0  0  0  0  0
   59.8350   34.9030   46.1520 C   0  0  0  0  0  0  0  0  0  0  0  0
   59.2540   34.3100   44.8500 C   0  0  0  0  0  0  0  0  0  0  0  0
   57.5570   33.6840   45.1090 S   0  0  0  0  0  0  0  0  0  0  0  0
   58.1000   31.9970   45.3820 C   0  0  0  0  0  0  0  0  0  0  0  0
   59.1610   31.6670   46.1370 N   0  0  0  0  0  0  0  0  0  0  0  0
   59.2770   30.3500   46.1290 N   0  0  0  0  0  0  0  0  0  0  0  0
   58.2770   29.8830   45.3490 C   0  0  0  0  0  0  0  0  0  0  0  0
   58.0750   28.4430   45.0840 C   0  0  0  0  0  0  0  0  0  0  0  0
   58.3140   27.9360   43.7960 C   0  0  0  0  0  0  0  0  0  0  0  0
   58.1110   26.5790   43.5220 C   0  0  0  0  0  0  0  0  0  0  0  0
   57.6530   25.7220   44.5260 C   0  0  0  0  0  0  0  0  0  0  0  0
   57.3730   23.8700   44.1510 Br  0  0  0  0  0  0  0  0  0  0  0  0
   57.3910   26.2230   45.8050 C   0  0  0  0  0  0  0  0  0  0  0  0
   57.5950   27.5790   46.0820 C   0  0  0  0  0  0  0  0  0  0  0  0
   57.5070   30.8960   44.8790 N   0  0  0  0  0  0  0  0  0  0  0  0
   56.3140   30.8360   44.0350 C   0  0  0  0  0  0  0  0  0  0  0  0
   59.5731   33.5115   50.1595 H   0  0  0  0  0  0  0  0  0  0  0  0
   58.5165   33.8934   48.7579 H   0  0  0  0  0  0  0  0  0  0  0  0
   59.5002   32.3904   48.7579 H   0  0  0  0  0  0  0  0  0  0  0  0
   60.4980   35.2776   48.5837 H   0  0  0  0  0  0  0  0  0  0  0  0
   61.5691   33.8391   48.8370 H   0  0  0  0  0  0  0  0  0  0  0  0
   62.0491   33.3115   45.4819 H   0  0  0  0  0  0  0  0  0  0  0  0
   62.4503   34.8723   46.2870 H   0  0  0  0  0  0  0  0  0  0  0  0
   62.6131   33.3825   48.4634 H   0  0  0  0  0  0  0  0  0  0  0  0
   62.8172   32.0343   47.2940 H   0  0  0  0  0  0  0  0  0  0  0  0
   63.9764   33.4066   47.2940 H   0  0  0  0  0  0  0  0  0  0  0  0
   58.9969   35.2363   46.7817 H   0  0  0  0  0  0  0  0  0  0  0  0
   60.5007   35.7255   45.8515 H   0  0  0  0  0  0  0  0  0  0  0  0
   59.2338   35.0924   44.0771 H   0  0  0  0  0  0  0  0  0  0  0  0
   59.8909   33.4702   44.5351 H   0  0  0  0  0  0  0  0  0  0  0  0
   59.7920   32.3190   46.6530 H   0  0  0  0  0  0  0  0  0  0  0  0
   58.6625   28.6091   42.9988 H   0  0  0  0  0  0  0  0  0  0  0  0
   58.3123   26.1862   42.5144 H   0  0  0  0  0  0  0  0  0  0  0  0
   57.0241   25.5502   46.5941 H   0  0  0  0  0  0  0  0  0  0  0  0
   57.3783   27.9707   47.0868 H   0  0  0  0  0  0  0  0  0  0  0  0
   55.4172   30.7909   44.6704 H   0  0  0  0  0  0  0  0  0  0  0  0
   56.2687   31.7330   43.3999 H   0  0  0  0  0  0  0  0  0  0  0  0
   56.3589   29.9390   43.3999 H   0  0  0  0  0  0  0  0  0  0  0  0
  1  2  1  0
  2  3  1  0
  3  4  1  0
  4  5  1  0
  3  6  1  0
  6  7  1  0
  7  8  1  0
  8  9  1  0
  9 10  2  0
 10 11  1  0
 11 12  2  0
 12 13  1  0
 13 14  2  0
 14 15  1  0
 15 16  2  0
 16 17  1  0
 16 18  1  0
 18 19  2  0
 12 20  1  0
 20 21  1  0
 20  9  1  0
 19 13  1  0
  1 22  1  0
  1 23  1  0
  1 24  1  0
  2 25  1  0
  2 26  1  0
  4 27  1  0
  4 28  1  0
  5 29  1  0
  5 30  1  0
  5 31  1  0
  6 32  1  0
  6 33  1  0
  7 34  1  0
  7 35  1  0
 10 36  1  0
 14 37  1  0
 15 38  1  0
 18 39  1  0
 19 40  1  0
 21 41  1  0
 21 42  1  0
 21 43  1  0
M  CHG  1  10   1
M  END
>  <UniqueID>  (16) 
15

>  <SMILES>  (16) 
CCN(CC)CCSc1[nH+]nc(-c2ccc(Br)cc2)n1C

>  <Energy>  (16) 
79.64101408931458

>  <Genealogy>  (16) 
CCN(CC)CCSc1[nH+]nc(-c2ccc(Br)cc2)n1C (protonated)
CCN(CC)CCSc1[nH+]nc(-c2ccc(Br)cc2)n1C (3D coordinates assigned)
CCN(CC)CCSc1[nH+]nc(-c2ccc(Br)cc2)n1C (optimized conformer: 79.64101408931458 kcal/mol)

>  <smiles>  (16) 
CCN(CC)CCSc1nnc(-c2ccc(Br)cc2)n1C

>  <score_type>  (16) 
oracle

>  <origin>  (16) 
adg

>  <m_score__min__energy>  (16) 
-6.4299999999999997

>  <m_primary>  (16) 
energy

$$$$
16:0
     RDKit          3D

 75 78  0  0  0  0  0  0  0  0999 V2000
   57.6690   31.0780   51.3190 C   0  0  0  0  0  0  0  0  0  0  0  0
   58.5260   31.4680   50.1060 C   0  0  0  0  0  0  0  0  0  0  0  0
   59.1520   30.3270   49.4010 N   0  0  0  0  0  0  0  0  0  0  0  0
   59.7700   30.7080   48.1160 C   0  0  0  0  0  0  0  0  0  0  0  0
   60.5230   29.5200   47.4740 C   0  0  0  0  0  0  0  0  0  0  0  0
   60.1560   28.2210   48.0790 N   0  0  0  0  0  0  0  0  0  0  0  0
   58.7890   27.7800   47.7130 C   0  0  0  0  0  0  0  0  0  0  0  0
   58.8220   27.0620   46.3450 C   0  0  0  0  0  0  0  0  0  0  0  0
   58.2720   27.8550   45.2230 N   0  0  0  0  0  0  0  0  0  0  0  0
   59.2690   28.6730   44.4940 C   0  0  0  0  0  0  0  0  0  0  0  0
   59.0640   30.1740   44.7400 C   0  0  0  0  0  0  0  0  0  0  0  0
   57.7190   30.6230   44.2990 N   0  0  0  0  0  0  0  0  0  0  0  0
   57.3210   31.9000   44.9340 C   0  0  0  0  0  0  0  0  0  0  0  0
   57.7460   33.1250   44.1030 C   0  0  0  0  0  0  0  0  0  0  0  0
   58.1450   34.2310   44.9770 N   0  0  0  0  0  0  0  0  0  0  0  0
   59.0610   34.1100   46.0800 C   0  0  0  0  0  0  0  0  0  0  0  0
   58.6330   34.2040   47.4150 C   0  0  0  0  0  0  0  0  0  0  0  0
   59.5530   34.0900   48.4610 C   0  0  0  0  0  0  0  0  0  0  0  0
   60.9100   33.8580   48.1940 C   0  0  0  0  0  0  0  0  0  0  0  0
   61.3460   33.7620   46.8580 C   0  0  0  0  0  0  0  0  0  0  0  0
   60.4160   33.8690   45.8130 C   0  0  0  0  0  0  0  0  0  0  0  0
   62.7830   33.4540   46.5380 C   0  0  0  0  0  0  0  0  0  0  0  0
   63.7020   33.7770   47.7180 C   0  0  0  0  0  0  0  0  0  0  0  0
   63.1700   33.1600   48.9490 N   0  0  0  0  0  0  0  0  0  0  0  0
   64.1710   33.2600   50.0350 C   0  0  0  0  0  0  0  0  0  0  0  0
   63.6900   34.1850   51.1530 C   0  0  0  0  0  0  0  0  0  0  0  0
   61.9010   33.8190   49.3350 C   0  0  0  0  0  0  0  0  0  0  0  0
   56.6660   29.5880   44.4700 C   0  0  0  0  0  0  0  0  0  0  0  0
   57.0180   28.5620   45.5560 C   0  0  0  0  0  0  0  0  0  0  0  0
   60.4180   28.2080   49.5400 C   0  0  0  0  0  0  0  0  0  0  0  0
   60.0770   29.5440   50.2340 C   0  0  0  0  0  0  0  0  0  0  0  0
   58.2100   31.3242   52.2446 H   0  0  0  0  0  0  0  0  0  0  0  0
   56.7195   31.6327   51.2907 H   0  0  0  0  0  0  0  0  0  0  0  0
   57.4635   29.9977   51.2907 H   0  0  0  0  0  0  0  0  0  0  0  0
   57.8844   32.0031   49.3905 H   0  0  0  0  0  0  0  0  0  0  0  0
   59.3502   32.0856   50.4924 H   0  0  0  0  0  0  0  0  0  0  0  0
   58.9820   31.0459   47.4269 H   0  0  0  0  0  0  0  0  0  0  0  0
   60.4950   31.5128   48.3074 H   0  0  0  0  0  0  0  0  0  0  0  0
   60.2832   29.4893   46.4009 H   0  0  0  0  0  0  0  0  0  0  0  0
   61.5985   29.6754   47.6448 H   0  0  0  0  0  0  0  0  0  0  0  0
   58.4104   27.0883   48.4799 H   0  0  0  0  0  0  0  0  0  0  0  0
   58.1284   28.6572   47.6481 H   0  0  0  0  0  0  0  0  0  0  0  0
   59.8683   26.8156   46.1113 H   0  0  0  0  0  0  0  0  0  0  0  0
   58.1825   26.1724   46.4428 H   0  0  0  0  0  0  0  0  0  0  0  0
   60.2769   28.3911   44.8325 H   0  0  0  0  0  0  0  0  0  0  0  0
   59.1460   28.4829   43.4175 H   0  0  0  0  0  0  0  0  0  0  0  0
   59.1731   30.3773   45.8155 H   0  0  0  0  0  0  0  0  0  0  0  0
   59.8177   30.7236   44.1571 H   0  0  0  0  0  0  0  0  0  0  0  0
   56.2270   31.9123   45.0477 H   0  0  0  0  0  0  0  0  0  0  0  0
   57.8276   31.9629   45.9083 H   0  0  0  0  0  0  0  0  0  0  0  0
   58.5948   32.8484   43.4603 H   0  0  0  0  0  0  0  0  0  0  0  0
   56.8925   33.4494   43.4896 H   0  0  0  0  0  0  0  0  0  0  0  0
   57.7270   35.1720   44.7900 H   0  0  0  0  0  0  0  0  0  0  0  0
   57.5684   34.3681   47.6381 H   0  0  0  0  0  0  0  0  0  0  0  0
   59.2099   34.1830   49.5020 H   0  0  0  0  0  0  0  0  0  0  0  0
   60.7541   33.7625   44.7717 H   0  0  0  0  0  0  0  0  0  0  0  0
   62.8741   32.3848   46.2963 H   0  0  0  0  0  0  0  0  0  0  0  0
   63.0872   34.0760   45.6833 H   0  0  0  0  0  0  0  0  0  0  0  0
   64.7082   33.3810   47.5164 H   0  0  0  0  0  0  0  0  0  0  0  0
   63.7530   34.8677   47.8510 H   0  0  0  0  0  0  0  0  0  0  0  0
   64.3487   32.2575   50.4514 H   0  0  0  0  0  0  0  0  0  0  0  0
   65.0977   33.6777   49.6145 H   0  0  0  0  0  0  0  0  0  0  0  0
   63.9245   33.7339   52.1285 H   0  0  0  0  0  0  0  0  0  0  0  0
   64.1965   35.1577   51.0675 H   0  0  0  0  0  0  0  0  0  0  0  0
   62.6028   34.3290   51.0675 H   0  0  0  0  0  0  0  0  0  0  0  0
   61.4545   33.2648   50.1738 H   0  0  0  0  0  0  0  0  0  0  0  0
   62.1311   34.8564   49.6192 H   0  0  0  0  0  0  0  0  0  0  0  0
   55.7248   30.0854   44.7470 H   0  0  0  0  0  0  0  0  0  0  0  0
   56.5733   29.0462   43.5172 H   0  0  0  0  0  0  0  0  0  0  0  0
   57.1417   29.0823   46.5172 H   0  0  0  0  0  0  0  0  0  0  0  0
   56.2043   27.8248   45.6217 H   0  0  0  0  0  0  0  0  0  0  0  0
   59.8106   27.4126   49.9965 H   0  0  0  0  0  0  0  0  0  0  0  0
   61.4960   28.0364   49.6759 H   0  0  0  0  0  0  0  0  0  0  0  0
   59.6053   29.3385   51.2062 H   0  0  0  0  0  0  0  0  0  0  0  0
   61.0031   30.1193   50.3803 H   0  0  0  0  0  0  0  0  0  0  0  0
  1  2  1  0
  2  3  1  0
  3  4  1  0
  4  5  1  0
  5  6  1  0
  6  7  1  0
  7  8  1  0
  8  9  1  0
  9 10  1  0
 10 11  1  0
 11 12  1  0
 12 13  1  0
 13 14  1  0
 14 15  1  0
 15 16  1  0
 16 17  2  0
 17 18  1  0
 18 19  2  0
 19 20  1  0
 20 21  2  0
 20 22  1  0
 22 23  1  0
 23 24  1  0
 24 25  1  0
 25 26  1  0
 24 27  1  0
 12 28  1  0
 28 29  1  0
  6 30  1  0
 30 31  1  0
 31  3  1  0
 29  9  1  0
 21 16  1  0
 27 19  1  0
  1 32  1  0
  1 33  1  0
  1 34  1  0
  2 35  1  0
  2 36  1  0
  4 37  1  0
  4 38  1  0
  5 39  1  0
  5 40  1  0
  7 41  1  0
  7 42  1  0
  8 43  1  0
  8 44  1  0
 10 45  1  0
 10 46  1  0
 11 47  1  0
 11 48  1  0
 13 49  1  0
 13 50  1  0
 14 51  1  0
 14 52  1  0
 15 53  1  0
 17 54  1  0
 18 55  1  0
 21 56  1  0
 22 57  1  0
 22 58  1  0
 23 59  1  0
 23 60  1  0
 25 61  1  0
 25 62  1  0
 26 63  1  0
 26 64  1  0
 26 65  1  0
 27 66  1  0
 27 67  1  0
 28 68  1  0
 28 69  1  0
 29 70  1  0
 29 71  1  0
 30 72  1  0
 30 73  1  0
 31 74  1  0
 31 75  1  0
M  END
>  <UniqueID>  (17) 
16

>  <SMILES>  (17) 
CCN1CCN(CCN2CCN(CCNc3ccc4c(c3)CCN(CC)C4)CC2)CC1

>  <Energy>  (17) 
105.44187576278141

>  <Genealogy>  (17) 
CCN1CCN(CCN2CCN(CCNc3ccc4c(c3)CCN(CC)C4)CC2)CC1 (3D coordinates assigned)
CCN1CCN(CCN2CCN(CCNc3ccc4c(c3)CCN(CC)C4)CC2)CC1 (nonaromatic ring conformer: 105.44187576278141 kcal/mol)

>  <smiles>  (17) 
CCN1CCN(CCN2CCN(CCNc3ccc4c(c3)CCN(CC)C4)CC2)CC1

>  <score_type>  (17) 
oracle

>  <origin>  (17) 
adg

>  <m_score__min__energy>  (17) 
-8.2599999999999998

>  <m_primary>  (17) 
energy

$$$$
17:0
     RDKit          3D

 57 60  0  0  0  0  0  0  0  0999 V2000
   69.1240   34.6500   50.1210 C   0  0  0  0  0  0  0  0  0  0  0  0
   68.2430   34.1470   51.2580 C   0  0  0  0  0  0  0  0  0  0  0  0
   67.6410   32.9010   50.9150 O   0  0  0  0  0  0  0  0  0  0  0  0
   66.3730   32.5070   51.3560 C   0  0  0  0  0  0  0  0  0  0  0  0
   66.2480   31.8830   52.4470 O   0  0  0  0  0  0  0  0  0  0  0  0
   65.1790   32.8210   50.5420 C   0  0  0  0  0  0  0  0  0  0  0  0
   64.3610   33.9180   50.8600 C   0  0  0  0  0  0  0  0  0  0  0  0
   63.2450   34.2230   50.0760 C   0  0  0  0  0  0  0  0  0  0  0  0
   62.9190   33.4310   48.9610 C   0  0  0  0  0  0  0  0  0  0  0  0
   61.7710   33.7500   48.1480 N   0  0  0  0  0  0  0  0  0  0  0  0
   61.9090   33.8440   46.6890 C   0  0  0  0  0  0  0  0  0  0  0  0
   60.5430   33.7180   46.0080 C   0  0  0  0  0  0  0  0  0  0  0  0
   59.5960   34.7260   46.5300 N   0  0  0  0  0  0  0  0  0  0  0  0
   58.2380   34.5870   45.9600 C   0  0  0  0  0  0  0  0  0  0  0  0
   57.9560   33.2050   45.4050 C   0  0  0  0  0  0  0  0  0  0  0  0
   57.5630   33.0110   44.1190 N   0  0  0  0  0  0  0  0  0  0  0  0
   57.4200   31.6780   44.0350 C   0  0  0  0  0  0  0  0  0  0  0  0
   57.0080   30.9400   42.9300 C   0  0  0  0  0  0  0  0  0  0  0  0
   56.9090   29.5440   43.0750 C   0  0  0  0  0  0  0  0  0  0  0  0
   56.5130   28.7850   42.0270 F   0  0  0  0  0  0  0  0  0  0  0  0
   57.2180   28.9300   44.3080 C   0  0  0  0  0  0  0  0  0  0  0  0
   57.6320   29.7060   45.4050 C   0  0  0  0  0  0  0  0  0  0  0  0
   57.7270   31.0880   45.2250 C   0  0  0  0  0  0  0  0  0  0  0  0
   58.0900   32.0400   46.1040 N   0  0  0  0  0  0  0  0  0  0  0  0
   58.4700   31.8430   47.5070 C   0  0  0  0  0  0  0  0  0  0  0  0
   59.6380   30.8680   47.6090 C   0  0  0  0  0  0  0  0  0  0  0  0
   59.6250   34.9440   48.0000 C   0  0  0  0  0  0  0  0  0  0  0  0
   60.4420   33.8850   48.7560 C   0  0  0  0  0  0  0  0  0  0  0  0
   63.7290   32.3280   48.6500 C   0  0  0  0  0  0  0  0  0  0  0  0
   64.8510   32.0280   49.4290 C   0  0  0  0  0  0  0  0  0  0  0  0
   70.0080   35.1547   50.5379 H   0  0  0  0  0  0  0  0  0  0  0  0
   69.4453   33.7992   49.5022 H   0  0  0  0  0  0  0  0  0  0  0  0
   68.5547   35.3592   49.5022 H   0  0  0  0  0  0  0  0  0  0  0  0
   68.8582   34.0147   52.1602 H   0  0  0  0  0  0  0  0  0  0  0  0
   67.4484   34.8849   51.4430 H   0  0  0  0  0  0  0  0  0  0  0  0
   64.6009   34.5421   51.7334 H   0  0  0  0  0  0  0  0  0  0  0  0
   62.6172   35.0889   50.3331 H   0  0  0  0  0  0  0  0  0  0  0  0
   62.3535   34.8163   46.4300 H   0  0  0  0  0  0  0  0  0  0  0  0
   62.5552   33.0247   46.3409 H   0  0  0  0  0  0  0  0  0  0  0  0
   60.6658   33.8666   44.9250 H   0  0  0  0  0  0  0  0  0  0  0  0
   60.1387   32.7164   46.2160 H   0  0  0  0  0  0  0  0  0  0  0  0
   57.5043   34.8013   46.7511 H   0  0  0  0  0  0  0  0  0  0  0  0
   58.1642   35.2948   45.1212 H   0  0  0  0  0  0  0  0  0  0  0  0
   56.7678   31.4311   41.9755 H   0  0  0  0  0  0  0  0  0  0  0  0
   57.1344   27.8380   44.4112 H   0  0  0  0  0  0  0  0  0  0  0  0
   57.8729   29.2406   46.3722 H   0  0  0  0  0  0  0  0  0  0  0  0
   58.7654   32.8093   47.9417 H   0  0  0  0  0  0  0  0  0  0  0  0
   57.6106   31.4292   48.0549 H   0  0  0  0  0  0  0  0  0  0  0  0
   59.8656   30.6780   48.6683 H   0  0  0  0  0  0  0  0  0  0  0  0
   59.3699   29.9218   47.1161 H   0  0  0  0  0  0  0  0  0  0  0  0
   60.5210   31.3008   47.1161 H   0  0  0  0  0  0  0  0  0  0  0  0
   60.0663   35.9320   48.1977 H   0  0  0  0  0  0  0  0  0  0  0  0
   58.5880   34.8734   48.3601 H   0  0  0  0  0  0  0  0  0  0  0  0
   60.5513   34.1907   49.8070 H   0  0  0  0  0  0  0  0  0  0  0  0
   59.9196   32.9185   48.7018 H   0  0  0  0  0  0  0  0  0  0  0  0
   63.4793   31.6942   47.7863 H   0  0  0  0  0  0  0  0  0  0  0  0
   65.4815   31.1650   49.1687 H   0  0  0  0  0  0  0  0  0  0  0  0
  1  2  1  0
  2  3  1  0
  3  4  1  0
  4  5  2  0
  4  6  1  0
  6  7  2  0
  7  8  1  0
  8  9  2  0
  9 10  1  0
 10 11  1  0
 11 12  1  0
 12 13  1  0
 13 14  1  0
 14 15  1  0
 15 16  2  0
 16 17  1  0
 17 18  2  0
 18 19  1  0
 19 20  1  0
 19 21  2  0
 21 22  1  0
 22 23  2  0
 23 24  1  0
 24 25  1  0
 25 26  1  0
 13 27  1  0
 27 28  1  0
  9 29  1  0
 29 30  2  0
 30  6  1  0
 28 10  1  0
 24 15  1  0
 23 17  1  0
  1 31  1  0
  1 32  1  0
  1 33  1  0
  2 34  1  0
  2 35  1  0
  7 36  1  0
  8 37  1  0
 11 38  1  0
 11 39  1  0
 12 40  1  0
 12 41  1  0
 14 42  1  0
 14 43  1  0
 18 44  1  0
 21 45  1  0
 22 46  1  0
 25 47  1  0
 25 48  1  0
 26 49  1  0
 26 50  1  0
 26 51  1  0
 27 52  1  0
 27 53  1  0
 28 54  1  0
 28 55  1  0
 29 56  1  0
 30 57  1  0
M  END
>  <UniqueID>  (18) 
17

>  <SMILES>  (18) 
CCOC(=O)c1ccc(N2CCN(Cc3nc4cc(F)ccc4n3CC)CC2)cc1

>  <Energy>  (18) 
103.14185970164768

>  <Genealogy>  (18) 
CCOC(=O)c1ccc(N2CCN(Cc3nc4cc(F)ccc4n3CC)CC2)cc1 (3D coordinates assigned)
CCOC(=O)c1ccc(N2CCN(Cc3nc4cc(F)ccc4n3CC)CC2)cc1 (nonaromatic ring conformer: 103.14185970164768 kcal/mol)

>  <smiles>  (18) 
CCOC(=O)c1ccc(N2CCN(Cc3nc4cc(F)ccc4n3CC)CC2)cc1

>  <score_type>  (18) 
oracle

>  <origin>  (18) 
adg

>  <m_score__min__energy>  (18) 
-7.6500000000000004

>  <m_primary>  (18) 
energy

$$$$
18:0
     RDKit          3D

 63 66  0  0  0  0  0  0  0  0999 V2000
   57.0060   20.9600   42.9930 C   0  0  0  0  0  0  0  0  0  0  0  0
   55.9310   21.8280   43.3360 O   0  0  0  0  0  0  0  0  0  0  0  0
   56.0820   23.0440   44.0200 C   0  0  0  0  0  0  0  0  0  0  0  0
   55.1650   23.4850   44.9930 C   0  0  0  0  0  0  0  0  0  0  0  0
   55.3560   24.7090   45.6400 C   0  0  0  0  0  0  0  0  0  0  0  0
   56.4720   25.5070   45.3420 C   0  0  0  0  0  0  0  0  0  0  0  0
   56.6340   26.8270   45.9930 C   0  0  0  0  0  0  0  0  0  0  0  0
   55.9280   27.7950   45.6020 O   0  0  0  0  0  0  0  0  0  0  0  0
   57.6110   27.0610   47.0130 N   0  0  0  0  0  0  0  0  0  0  0  0
   58.9730   26.5270   47.0310 C   0  0  0  0  0  0  0  0  0  0  0  0
   60.0220   27.6270   46.7800 C   0  0  0  0  0  0  0  0  0  0  0  0
   59.4450   28.9730   46.8670 N   0  0  0  0  0  0  0  0  0  0  0  0
   59.4440   29.7570   47.9730 C   0  0  0  0  0  0  0  0  0  0  0  0
   58.7490   30.9330   47.7260 C   0  0  0  0  0  0  0  0  0  0  0  0
   58.5120   32.3070   48.8580 S   0  0  0  0  0  0  0  0  0  0  0  0
   59.2390   31.4730   50.3100 C   0  0  0  0  0  0  0  0  0  0  0  0
   58.1880   30.6240   50.9530 C   0  0  0  0  0  0  0  0  0  0  0  0
   58.1340   29.3930   50.6840 O   0  0  0  0  0  0  0  0  0  0  0  0
   57.2140   31.2140   51.8250 N   0  0  0  0  0  0  0  0  0  0  0  0
   55.9840   30.5630   52.1790 C   0  0  0  0  0  0  0  0  0  0  0  0
   54.7880   31.0300   51.6150 C   0  0  0  0  0  0  0  0  0  0  0  0
   53.5700   30.3930   51.8860 C   0  0  0  0  0  0  0  0  0  0  0  0
   52.3000   30.8970   51.2660 C   0  0  0  0  0  0  0  0  0  0  0  0
   53.5400   29.3130   52.7750 C   0  0  0  0  0  0  0  0  0  0  0  0
   54.7250   28.8320   53.3350 C   0  0  0  0  0  0  0  0  0  0  0  0
   55.9580   29.4210   53.0180 C   0  0  0  0  0  0  0  0  0  0  0  0
   57.2160   28.8270   53.5920 C   0  0  0  0  0  0  0  0  0  0  0  0
   58.3240   30.8580   46.4190 C   0  0  0  0  0  0  0  0  0  0  0  0
   57.6150   31.7690   45.6370 C   0  0  0  0  0  0  0  0  0  0  0  0
   57.3750   31.4330   44.2930 C   0  0  0  0  0  0  0  0  0  0  0  0
   57.8420   30.2090   43.7690 C   0  0  0  0  0  0  0  0  0  0  0  0
   58.5520   29.3070   44.5830 C   0  0  0  0  0  0  0  0  0  0  0  0
   58.7770   29.6620   45.9150 C   0  0  0  0  0  0  0  0  0  0  0  0
   57.3810   25.0710   44.3640 C   0  0  0  0  0  0  0  0  0  0  0  0
   57.1910   23.8440   43.7160 C   0  0  0  0  0  0  0  0  0  0  0  0
   57.4773   20.5795   43.9112 H   0  0  0  0  0  0  0  0  0  0  0  0
   56.6214   20.1161   42.4014 H   0  0  0  0  0  0  0  0  0  0  0  0
   57.7499   21.5137   42.4014 H   0  0  0  0  0  0  0  0  0  0  0  0
   54.2936   22.8629   45.2453 H   0  0  0  0  0  0  0  0  0  0  0  0
   54.6259   25.0499   46.3889 H   0  0  0  0  0  0  0  0  0  0  0  0
   59.1636   26.0707   48.0136 H   0  0  0  0  0  0  0  0  0  0  0  0
   59.0590   25.7823   46.2260 H   0  0  0  0  0  0  0  0  0  0  0  0
   60.8196   27.5342   47.5319 H   0  0  0  0  0  0  0  0  0  0  0  0
   60.4147   27.4931   45.7613 H   0  0  0  0  0  0  0  0  0  0  0  0
   59.9245   29.4986   48.9282 H   0  0  0  0  0  0  0  0  0  0  0  0
   60.0808   30.8410   49.9907 H   0  0  0  0  0  0  0  0  0  0  0  0
   59.6057   32.2220   51.0273 H   0  0  0  0  0  0  0  0  0  0  0  0
   57.4560   32.1100   52.3030 H   0  0  0  0  0  0  0  0  0  0  0  0
   54.8064   31.9073   50.9516 H   0  0  0  0  0  0  0  0  0  0  0  0
   51.5913   31.1782   52.0589 H   0  0  0  0  0  0  0  0  0  0  0  0
   52.5201   31.7759   50.6423 H   0  0  0  0  0  0  0  0  0  0  0  0
   51.8575   30.1063   50.6423 H   0  0  0  0  0  0  0  0  0  0  0  0
   52.5803   28.8417   53.0334 H   0  0  0  0  0  0  0  0  0  0  0  0
   54.6914   27.9820   54.0323 H   0  0  0  0  0  0  0  0  0  0  0  0
   57.1648   28.8512   54.6905 H   0  0  0  0  0  0  0  0  0  0  0  0
   57.3179   27.7857   53.2525 H   0  0  0  0  0  0  0  0  0  0  0  0
   58.0848   29.4100   53.2525 H   0  0  0  0  0  0  0  0  0  0  0  0
   57.2552   32.7195   46.0578 H   0  0  0  0  0  0  0  0  0  0  0  0
   56.8199   32.1284   43.6462 H   0  0  0  0  0  0  0  0  0  0  0  0
   57.6495   29.9578   42.7155 H   0  0  0  0  0  0  0  0  0  0  0  0
   58.9189   28.3506   44.1821 H   0  0  0  0  0  0  0  0  0  0  0  0
   58.2476   25.6972   44.1054 H   0  0  0  0  0  0  0  0  0  0  0  0
   57.9180   23.5060   42.9628 H   0  0  0  0  0  0  0  0  0  0  0  0
  1  2  1  0
  2  3  1  0
  3  4  2  0
  4  5  1  0
  5  6  2  0
  6  7  1  0
  7  8  2  0
  7  9  1  0
  9 10  1  0
 10 11  1  0
 11 12  1  0
 12 13  1  0
 13 14  2  0
 14 15  1  0
 15 16  1  0
 16 17  1  0
 17 18  2  0
 17 19  1  0
 19 20  1  0
 20 21  2  0
 21 22  1  0
 22 23  1  0
 22 24  2  0
 24 25  1  0
 25 26  2  0
 26 27  1  0
 14 28  1  0
 28 29  2  0
 29 30  1  0
 30 31  2  0
 31 32  1  0
 32 33  2  0
  6 34  1  0
 34 35  2  0
 35  3  1  0
 33 12  1  0
 26 20  1  0
 33 28  1  0
  1 36  1  0
  1 37  1  0
  1 38  1  0
  4 39  1  0
  5 40  1  0
 10 41  1  0
 10 42  1  0
 11 43  1  0
 11 44  1  0
 13 45  1  0
 16 46  1  0
 16 47  1  0
 19 48  1  0
 21 49  1  0
 23 50  1  0
 23 51  1  0
 23 52  1  0
 24 53  1  0
 25 54  1  0
 27 55  1  0
 27 56  1  0
 27 57  1  0
 29 58  1  0
 30 59  1  0
 31 60  1  0
 32 61  1  0
 34 62  1  0
 35 63  1  0
M  CHG  1   9  -1
M  END
>  <UniqueID>  (19) 
18

>  <SMILES>  (19) 
COc1ccc(C(=O)[N-]CCn2cc(SCC(=O)Nc3cc(C)ccc3C)c3ccccc32)cc1

>  <Energy>  (19) 
103.46400031311971

>  <Genealogy>  (19) 
COc1ccc(C(=O)[N-]CCn2cc(SCC(=O)Nc3cc(C)ccc3C)c3ccccc32)cc1 (protonated)
COc1ccc(C(=O)[N-]CCn2cc(SCC(=O)Nc3cc(C)ccc3C)c3ccccc32)cc1 (3D coordinates assigned)
COc1ccc(C(=O)[N-]CCn2cc(SCC(=O)Nc3cc(C)ccc3C)c3ccccc32)cc1 (optimized conformer: 103.46400031311971 kcal/mol)

>  <smiles>  (19) 
COc1ccc(C(=O)NCCn2cc(SCC(=O)Nc3cc(C)ccc3C)c3ccccc32)cc1

>  <score_type>  (19) 
oracle

>  <origin>  (19) 
adg

>  <m_score__min__energy>  (19) 
-10.75

>  <m_primary>  (19) 
energy

$$$$
19:0
     RDKit          3D

 40 41  0  0  0  0  0  0  0  0999 V2000
   58.7610   22.1330   44.4410 C   0  0  0  0  0  0  0  0  0  0  0  0
   58.7530   23.3740   45.3320 C   0  0  0  0  0  0  0  0  0  0  0  0
   57.4400   24.1830   45.2400 C   0  0  0  0  0  0  0  0  0  0  0  0
   57.0270   24.4720   43.7740 C   0  0  0  0  0  0  0  0  0  0  0  0
   55.9720   23.4930   43.2560 C   0  0  0  0  0  0  0  0  0  0  0  0
   57.6160   25.4600   45.9360 N   0  0  0  0  0  0  0  0  0  0  0  0
   56.6820   26.5480   45.9490 C   0  0  0  0  0  0  0  0  0  0  0  0
   55.4510   26.2890   46.0070 O   0  0  0  0  0  0  0  0  0  0  0  0
   57.1140   27.9580   45.8850 C   0  0  0  0  0  0  0  0  0  0  0  0
   58.0890   28.4300   46.7740 C   0  0  0  0  0  0  0  0  0  0  0  0
   58.5100   29.7620   46.7170 C   0  0  0  0  0  0  0  0  0  0  0  0
   57.9750   30.6400   45.7570 C   0  0  0  0  0  0  0  0  0  0  0  0
   58.4210   32.0560   45.6980 C   0  0  0  0  0  0  0  0  0  0  0  0
   59.5670   32.4750   46.3990 C   0  0  0  0  0  0  0  0  0  0  0  0
   59.9840   33.8080   46.3440 C   0  0  0  0  0  0  0  0  0  0  0  0
   59.2640   34.7370   45.5890 C   0  0  0  0  0  0  0  0  0  0  0  0
   59.6710   36.0300   45.5350 F   0  0  0  0  0  0  0  0  0  0  0  0
   58.1260   34.3330   44.8870 C   0  0  0  0  0  0  0  0  0  0  0  0
   57.7040   33.0020   44.9410 C   0  0  0  0  0  0  0  0  0  0  0  0
   57.0160   30.1540   44.8520 C   0  0  0  0  0  0  0  0  0  0  0  0
   56.5930   28.8220   44.9110 C   0  0  0  0  0  0  0  0  0  0  0  0
   58.7668   21.2303   45.0696 H   0  0  0  0  0  0  0  0  0  0  0  0
   57.8628   22.1318   43.8059 H   0  0  0  0  0  0  0  0  0  0  0  0
   59.6591   22.1434   43.8059 H   0  0  0  0  0  0  0  0  0  0  0  0
   58.8948   23.0558   46.3754 H   0  0  0  0  0  0  0  0  0  0  0  0
   59.5651   24.0298   44.9850 H   0  0  0  0  0  0  0  0  0  0  0  0
   56.6458   23.5797   45.7040 H   0  0  0  0  0  0  0  0  0  0  0  0
   56.6190   25.4920   43.7175 H   0  0  0  0  0  0  0  0  0  0  0  0
   57.9235   24.3582   43.1468 H   0  0  0  0  0  0  0  0  0  0  0  0
   55.4617   23.0194   44.1076 H   0  0  0  0  0  0  0  0  0  0  0  0
   55.2369   24.0361   42.6439 H   0  0  0  0  0  0  0  0  0  0  0  0
   56.4588   22.7194   42.6439 H   0  0  0  0  0  0  0  0  0  0  0  0
   58.5251   27.7494   47.5201 H   0  0  0  0  0  0  0  0  0  0  0  0
   59.2656   30.1263   47.4285 H   0  0  0  0  0  0  0  0  0  0  0  0
   60.1388   31.7482   46.9946 H   0  0  0  0  0  0  0  0  0  0  0  0
   60.8806   34.1260   46.8962 H   0  0  0  0  0  0  0  0  0  0  0  0
   57.5608   35.0642   44.2904 H   0  0  0  0  0  0  0  0  0  0  0  0
   56.8053   32.6912   44.3882 H   0  0  0  0  0  0  0  0  0  0  0  0
   56.5944   30.8268   44.0907 H   0  0  0  0  0  0  0  0  0  0  0  0
   55.8490   28.4509   44.1908 H   0  0  0  0  0  0  0  0  0  0  0  0
  1  2  1  0
  2  3  1  0
  3  4  1  0
  4  5  1  0
  3  6  1  0
  6  7  1  0
  7  8  2  0
  7  9  1  0
  9 10  2  0
 10 11  1  0
 11 12  2  0
 12 13  1  0
 13 14  2  0
 14 15  1  0
 15 16  2  0
 16 17  1  0
 16 18  1  0
 18 19  2  0
 12 20  1  0
 20 21  2  0
 21  9  1  0
 19 13  1  0
  1 22  1  0
  1 23  1  0
  1 24  1  0
  2 25  1  0
  2 26  1  0
  3 27  1  0
  4 28  1  0
  4 29  1  0
  5 30  1  0
  5 31  1  0
  5 32  1  0
 10 33  1  0
 11 34  1  0
 14 35  1  0
 15 36  1  0
 18 37  1  0
 19 38  1  0
 20 39  1  0
 21 40  1  0
M  CHG  1   6  -1
M  END
>  <UniqueID>  (20) 
19

>  <SMILES>  (20) 
CCC(CC)[N-]C(=O)c1ccc(-c2ccc(F)cc2)cc1

>  <Energy>  (20) 
45.22202643667551

>  <Genealogy>  (20) 
CCC(CC)[N-]C(=O)c1ccc(-c2ccc(F)cc2)cc1 (protonated)
CCC(CC)[N-]C(=O)c1ccc(-c2ccc(F)cc2)cc1 (3D coordinates assigned)
CCC(CC)[N-]C(=O)c1ccc(-c2ccc(F)cc2)cc1 (optimized conformer: 45.22202643667551 kcal/mol)

>  <smiles>  (20) 
CCC(CC)NC(=O)c1ccc(-c2ccc(F)cc2)cc1

>  <score_type>  (20) 
oracle

>  <origin>  (20) 
adg

>  <m_score__min__energy>  (20) 
-8.3599999999999994

>  <m_primary>  (20) 
energy

$$$$
20:0
     RDKit          3D

 77 80  0  0  0  0  0  0  0  0999 V2000
   63.7500   33.7910   50.3830 C   0  0  0  0  0  0  0  0  0  0  0  0
   63.8420   32.5650   49.4680 C   0  0  0  0  0  0  0  0  0  0  0  0
   62.5550   32.2730   48.7850 N   0  0  0  0  0  0  0  0  0  0  0  0
   62.6780   32.4390   47.3030 C   0  0  0  0  0  0  0  0  0  0  0  0
   63.2940   33.7890   46.9310 C   0  0  0  0  0  0  0  0  0  0  0  0
   62.1020   30.9020   49.1370 C   0  0  0  0  0  0  0  0  0  0  0  0
   61.3670   30.2190   47.9650 C   0  0  0  0  0  0  0  0  0  0  0  0
   60.2980   29.2310   48.4450 C   0  0  0  0  0  0  0  0  0  0  0  0
   58.9460   29.7270   48.1700 N   0  0  0  0  0  0  0  0  0  0  0  0
   58.6920   30.6800   47.1210 C   0  0  0  0  0  0  0  0  0  0  0  0
   58.1230   30.2610   45.9050 C   0  0  0  0  0  0  0  0  0  0  0  0
   57.8010   28.9040   45.6840 C   0  0  0  0  0  0  0  0  0  0  0  0
   57.1740   28.5010   44.5100 C   0  0  0  0  0  0  0  0  0  0  0  0
   56.8430   29.4380   43.5400 C   0  0  0  0  0  0  0  0  0  0  0  0
   57.1640   30.7820   43.7270 C   0  0  0  0  0  0  0  0  0  0  0  0
   57.8430   31.2190   44.8930 C   0  0  0  0  0  0  0  0  0  0  0  0
   58.2100   32.5400   45.0660 N   0  0  0  0  0  0  0  0  0  0  0  0
   58.1760   33.4740   43.9180 C   0  0  0  0  0  0  0  0  0  0  0  0
   58.6480   32.9820   46.3010 C   0  0  0  0  0  0  0  0  0  0  0  0
   58.7920   34.3610   46.5910 C   0  0  0  0  0  0  0  0  0  0  0  0
   59.3150   34.7930   47.8080 C   0  0  0  0  0  0  0  0  0  0  0  0
   59.7090   33.8660   48.7810 C   0  0  0  0  0  0  0  0  0  0  0  0
   60.2640   34.2460   50.0160 O   0  0  0  0  0  0  0  0  0  0  0  0
   60.4120   33.3980   51.1550 C   0  0  0  0  0  0  0  0  0  0  0  0
   59.1270   33.4450   52.0200 C   0  0  0  0  0  0  0  0  0  0  0  0
   58.4120   32.1410   52.2260 N   0  0  0  0  0  0  0  0  0  0  0  0
   58.2760   31.9680   53.7010 C   0  0  0  0  0  0  0  0  0  0  0  0
   57.0520   32.1730   51.6150 C   0  0  0  0  0  0  0  0  0  0  0  0
   56.3010   30.8300   51.7880 C   0  0  0  0  0  0  0  0  0  0  0  0
   57.1590   29.7180   51.9890 O   0  0  0  0  0  0  0  0  0  0  0  0
   58.3160   29.8310   51.1900 C   0  0  0  0  0  0  0  0  0  0  0  0
   59.2050   30.9970   51.6730 C   0  0  0  0  0  0  0  0  0  0  0  0
   59.5290   32.5050   48.5320 C   0  0  0  0  0  0  0  0  0  0  0  0
   58.9550   32.0490   47.3260 C   0  0  0  0  0  0  0  0  0  0  0  0
   63.7743   33.4669   51.4339 H   0  0  0  0  0  0  0  0  0  0  0  0
   64.6004   34.4603   50.1859 H   0  0  0  0  0  0  0  0  0  0  0  0
   62.8092   34.3258   50.1859 H   0  0  0  0  0  0  0  0  0  0  0  0
   64.6131   32.7497   48.7056 H   0  0  0  0  0  0  0  0  0  0  0  0
   64.0955   31.6965   50.0937 H   0  0  0  0  0  0  0  0  0  0  0  0
   61.8460   32.9400   49.1760 H   0  0  0  0  0  0  0  0  0  0  0  0
   63.3159   31.6353   46.9066 H   0  0  0  0  0  0  0  0  0  0  0  0
   61.6682   32.3931   46.8691 H   0  0  0  0  0  0  0  0  0  0  0  0
   63.5463   34.3420   47.8478 H   0  0  0  0  0  0  0  0  0  0  0  0
   64.2064   33.6250   46.3389 H   0  0  0  0  0  0  0  0  0  0  0  0
   62.5722   34.3707   46.3389 H   0  0  0  0  0  0  0  0  0  0  0  0
   62.9794   30.2963   49.4076 H   0  0  0  0  0  0  0  0  0  0  0  0
   61.3992   30.9815   49.9795 H   0  0  0  0  0  0  0  0  0  0  0  0
   60.8830   30.9933   47.3517 H   0  0  0  0  0  0  0  0  0  0  0  0
   62.1113   29.6537   47.3849 H   0  0  0  0  0  0  0  0  0  0  0  0
   60.4392   28.2715   47.9260 H   0  0  0  0  0  0  0  0  0  0  0  0
   60.4057   29.1073   49.5327 H   0  0  0  0  0  0  0  0  0  0  0  0
   58.2020   29.5610   48.8830 H   0  0  0  0  0  0  0  0  0  0  0  0
   58.0495   28.1556   46.4509 H   0  0  0  0  0  0  0  0  0  0  0  0
   56.9398   27.4383   44.3494 H   0  0  0  0  0  0  0  0  0  0  0  0
   56.3266   29.1194   42.6225 H   0  0  0  0  0  0  0  0  0  0  0  0
   56.8857   31.5162   42.9566 H   0  0  0  0  0  0  0  0  0  0  0  0
   58.1383   34.5091   44.2884 H   0  0  0  0  0  0  0  0  0  0  0  0
   59.0798   33.3362   43.3063 H   0  0  0  0  0  0  0  0  0  0  0  0
   57.2847   33.2708   43.3063 H   0  0  0  0  0  0  0  0  0  0  0  0
   58.4851   35.1050   45.8411 H   0  0  0  0  0  0  0  0  0  0  0  0
   59.4192   35.8700   48.0060 H   0  0  0  0  0  0  0  0  0  0  0  0
   60.5883   32.3652   50.8200 H   0  0  0  0  0  0  0  0  0  0  0  0
   61.2653   33.7455   51.7560 H   0  0  0  0  0  0  0  0  0  0  0  0
   59.4046   33.8344   53.0106 H   0  0  0  0  0  0  0  0  0  0  0  0
   58.4225   34.0791   51.4618 H   0  0  0  0  0  0  0  0  0  0  0  0
   58.8765   32.7319   54.2167 H   0  0  0  0  0  0  0  0  0  0  0  0
   57.2195   32.0773   53.9871 H   0  0  0  0  0  0  0  0  0  0  0  0
   58.6317   30.9672   53.9871 H   0  0  0  0  0  0  0  0  0  0  0  0
   56.4665   32.9707   52.0955 H   0  0  0  0  0  0  0  0  0  0  0  0
   57.1705   32.3571   50.5370 H   0  0  0  0  0  0  0  0  0  0  0  0
   55.6334   30.9151   52.6581 H   0  0  0  0  0  0  0  0  0  0  0  0
   55.7512   30.6467   50.8531 H   0  0  0  0  0  0  0  0  0  0  0  0
   58.8879   28.8932   51.2491 H   0  0  0  0  0  0  0  0  0  0  0  0
   58.0095   30.0283   50.1522 H   0  0  0  0  0  0  0  0  0  0  0  0
   59.8781   30.6236   52.4588 H   0  0  0  0  0  0  0  0  0  0  0  0
   59.7627   31.3711   50.8018 H   0  0  0  0  0  0  0  0  0  0  0  0
   59.8408   31.7725   49.2911 H   0  0  0  0  0  0  0  0  0  0  0  0
  1  2  1  0
  2  3  1  0
  3  4  1  0
  4  5  1  0
  3  6  1  0
  6  7  1  0
  7  8  1  0
  8  9  1  0
  9 10  1  0
 10 11  2  0
 11 12  1  0
 12 13  2  0
 13 14  1  0
 14 15  2  0
 15 16  1  0
 16 17  2  0
 17 18  1  0
 17 19  1  0
 19 20  2  0
 20 21  1  0
 21 22  2  0
 22 23  1  0
 23 24  1  0
 24 25  1  0
 25 26  1  0
 26 27  1  0
 26 28  1  0
 28 29  1  0
 29 30  1  0
 30 31  1  0
 31 32  1  0
 22 33  1  0
 33 34  2  0
 34 10  1  0
 16 11  1  0
 34 19  1  0
 32 26  1  0
  1 35  1  0
  1 36  1  0
  1 37  1  0
  2 38  1  0
  2 39  1  0
  3 40  1  0
  4 41  1  0
  4 42  1  0
  5 43  1  0
  5 44  1  0
  5 45  1  0
  6 46  1  0
  6 47  1  0
  7 48  1  0
  7 49  1  0
  8 50  1  0
  8 51  1  0
  9 52  1  0
 12 53  1  0
 13 54  1  0
 14 55  1  0
 15 56  1  0
 18 57  1  0
 18 58  1  0
 18 59  1  0
 20 60  1  0
 21 61  1  0
 24 62  1  0
 24 63  1  0
 25 64  1  0
 25 65  1  0
 27 66  1  0
 27 67  1  0
 27 68  1  0
 28 69  1  0
 28 70  1  0
 29 71  1  0
 29 72  1  0
 31 73  1  0
 31 74  1  0
 32 75  1  0
 32 76  1  0
 33 77  1  0
M  CHG  3   3   1  17   1  26   1
M  END
>  <UniqueID>  (21) 
20

>  <SMILES>  (21) 
CC[NH+](CC)CCCNc1c2ccccc2[n+](C)c2ccc(OCC[N+]3(C)CCOCC3)cc12

>  <Energy>  (21) 
126.7075498111773

>  <Genealogy>  (21) 
CC[NH+](CC)CCCNc1c2ccccc2[n+](C)c2ccc(OCC[N+]3(C)CCOCC3)cc12 (protonated)
CC[NH+](CC)CCCNc1c2ccccc2[n+](C)c2ccc(OCC[N+]3(C)CCOCC3)cc12 (3D coordinates assigned)
CC[NH+](CC)CCCNc1c2ccccc2[n+](C)c2ccc(OCC[N+]3(C)CCOCC3)cc12 (nonaromatic ring conformer: 126.7075498111773 kcal/mol)

>  <smiles>  (21) 
CCN(CC)CCCNc1c2ccccc2[n+](C)c2ccc(OCC[N+]3(C)CCOCC3)cc12

>  <score_type>  (21) 
oracle

>  <origin>  (21) 
adg

>  <m_score__min__energy>  (21) 
-5.1900000000000004

>  <m_primary>  (21) 
energy

$$$$
21:0
     RDKit          3D

 33 35  0  0  0  0  0  0  0  0999 V2000
   57.6490   32.0080   41.9100 C   0  0  0  0  0  0  0  0  0  0  0  0
   57.0150   31.1820   42.9330 N   0  0  0  0  0  0  0  0  0  0  0  0
   56.2620   30.0830   42.7270 C   0  0  0  0  0  0  0  0  0  0  0  0
   55.8900   29.5170   43.8940 N   0  0  0  0  0  0  0  0  0  0  0  0
   56.4080   30.2680   44.8530 N   0  0  0  0  0  0  0  0  0  0  0  0
   57.0750   31.2830   44.2770 C   0  0  0  0  0  0  0  0  0  0  0  0
   57.8140   32.3110   45.0350 C   0  0  0  0  0  0  0  0  0  0  0  0
   57.5590   33.6650   44.9450 C   0  0  0  0  0  0  0  0  0  0  0  0
   58.4750   34.2920   45.7620 C   0  0  0  0  0  0  0  0  0  0  0  0
   59.2620   33.2970   46.3150 C   0  0  0  0  0  0  0  0  0  0  0  0
   60.3900   33.5420   47.2400 C   0  0  0  0  0  0  0  0  0  0  0  0
   60.1600   33.9880   48.5530 C   0  0  0  0  0  0  0  0  0  0  0  0
   61.2340   34.2300   49.4150 C   0  0  0  0  0  0  0  0  0  0  0  0
   62.5450   34.0390   48.9730 C   0  0  0  0  0  0  0  0  0  0  0  0
   62.7860   33.6130   47.6640 C   0  0  0  0  0  0  0  0  0  0  0  0
   64.0580   33.4340   47.2330 F   0  0  0  0  0  0  0  0  0  0  0  0
   61.7140   33.3700   46.7990 C   0  0  0  0  0  0  0  0  0  0  0  0
   58.8700   32.0850   45.8520 N   0  0  0  0  0  0  0  0  0  0  0  0
   59.5530   30.8070   46.0650 C   0  0  0  0  0  0  0  0  0  0  0  0
   58.2508   32.7920   42.3928 H   0  0  0  0  0  0  0  0  0  0  0  0
   58.2995   31.3803   41.2831 H   0  0  0  0  0  0  0  0  0  0  0  0
   56.8745   32.4741   41.2831 H   0  0  0  0  0  0  0  0  0  0  0  0
   55.9861   29.6970   41.7346 H   0  0  0  0  0  0  0  0  0  0  0  0
   56.2980   30.0840   45.8750 H   0  0  0  0  0  0  0  0  0  0  0  0
   56.7779   34.1485   44.3399 H   0  0  0  0  0  0  0  0  0  0  0  0
   58.5634   35.3739   45.9400 H   0  0  0  0  0  0  0  0  0  0  0  0
   59.1298   34.1475   48.9042 H   0  0  0  0  0  0  0  0  0  0  0  0
   61.0459   34.5716   50.4436 H   0  0  0  0  0  0  0  0  0  0  0  0
   63.3879   34.2239   49.6552 H   0  0  0  0  0  0  0  0  0  0  0  0
   61.9080   33.0422   45.7671 H   0  0  0  0  0  0  0  0  0  0  0  0
   59.6529   30.6201   47.1444 H   0  0  0  0  0  0  0  0  0  0  0  0
   58.9674   29.9972   45.6053 H   0  0  0  0  0  0  0  0  0  0  0  0
   60.5517   30.8439   45.6053 H   0  0  0  0  0  0  0  0  0  0  0  0
  1  2  1  0
  2  3  1  0
  3  4  2  0
  4  5  1  0
  5  6  2  0
  6  7  1  0
  7  8  2  0
  8  9  1  0
  9 10  2  0
 10 11  1  0
 11 12  2  0
 12 13  1  0
 13 14  2  0
 14 15  1  0
 15 16  1  0
 15 17  2  0
 10 18  1  0
 18 19  1  0
  6  2  1  0
 18  7  1  0
 17 11  1  0
  1 20  1  0
  1 21  1  0
  1 22  1  0
  3 23  1  0
  5 24  1  0
  8 25  1  0
  9 26  1  0
 12 27  1  0
 13 28  1  0
 14 29  1  0
 17 30  1  0
 19 31  1  0
 19 32  1  0
 19 33  1  0
M  CHG  1   5   1
M  END
>  <UniqueID>  (22) 
21

>  <SMILES>  (22) 
Cn1cn[nH+]c1-c1ccc(-c2cccc(F)c2)n1C

>  <Energy>  (22) 
106.11029866803581

>  <Genealogy>  (22) 
Cn1cn[nH+]c1-c1ccc(-c2cccc(F)c2)n1C (protonated)
Cn1cn[nH+]c1-c1ccc(-c2cccc(F)c2)n1C (3D coordinates assigned)
Cn1cn[nH+]c1-c1ccc(-c2cccc(F)c2)n1C (optimized conformer: 106.11029866803581 kcal/mol)

>  <smiles>  (22) 
Cn1cnnc1-c1ccc(-c2cccc(F)c2)n1C

>  <score_type>  (22) 
oracle

>  <origin>  (22) 
adg

>  <m_score__min__energy>  (22) 
-5.8099999999999996

>  <m_primary>  (22) 
energy

$$$$
22:0
     RDKit          3D

 70 72  0  0  0  0  0  0  0  0999 V2000
   56.6790   30.7390   43.1470 C   0  0  0  0  0  0  0  0  0  0  0  0
   57.7360   31.0040   44.2140 C   0  0  0  0  0  0  0  0  0  0  0  0
   57.5080   30.1280   45.3850 N   0  0  0  0  0  0  0  0  0  0  0  0
   57.0460   28.7800   44.9790 C   0  0  0  0  0  0  0  0  0  0  0  0
   58.0600   28.0790   44.0770 C   0  0  0  0  0  0  0  0  0  0  0  0
   58.6460   30.1310   46.3420 C   0  0  0  0  0  0  0  0  0  0  0  0
   58.9620   28.7670   46.9830 C   0  0  0  0  0  0  0  0  0  0  0  0
   60.0100   28.8930   47.9210 O   0  0  0  0  0  0  0  0  0  0  0  0
   59.9740   30.1780   48.5030 C   0  0  0  0  0  0  0  0  0  0  0  0
   60.9900   30.2390   49.6340 C   0  0  0  0  0  0  0  0  0  0  0  0
   60.4960   29.5110   50.7400 O   0  0  0  0  0  0  0  0  0  0  0  0
   59.1040   29.3260   50.6010 C   0  0  0  0  0  0  0  0  0  0  0  0
   58.3870   30.0970   51.7070 C   0  0  0  0  0  0  0  0  0  0  0  0
   57.2870   30.8240   51.1910 O   0  0  0  0  0  0  0  0  0  0  0  0
   57.7150   32.0270   50.5840 C   0  0  0  0  0  0  0  0  0  0  0  0
   58.9280   32.5720   51.3330 C   0  0  0  0  0  0  0  0  0  0  0  0
   59.4810   33.7410   50.6470 N   0  0  0  0  0  0  0  0  0  0  0  0
   60.5520   33.6210   49.6930 C   0  0  0  0  0  0  0  0  0  0  0  0
   61.8870   33.5470   50.1330 C   0  0  0  0  0  0  0  0  0  0  0  0
   62.1980   33.5750   51.5100 C   0  0  0  0  0  0  0  0  0  0  0  0
   63.5220   33.5890   51.9410 C   0  0  0  0  0  0  0  0  0  0  0  0
   64.5570   33.5810   51.0130 C   0  0  0  0  0  0  0  0  0  0  0  0
   64.2750   33.5280   49.6490 C   0  0  0  0  0  0  0  0  0  0  0  0
   62.9370   33.4720   49.1780 C   0  0  0  0  0  0  0  0  0  0  0  0
   62.6460   33.3650   47.8310 N   0  0  0  0  0  0  0  0  0  0  0  0
   63.7120   32.9970   46.8720 C   0  0  0  0  0  0  0  0  0  0  0  0
   61.3510   33.5560   47.3850 C   0  0  0  0  0  0  0  0  0  0  0  0
   61.0490   33.6890   46.0050 C   0  0  0  0  0  0  0  0  0  0  0  0
   59.7320   33.7870   45.5610 C   0  0  0  0  0  0  0  0  0  0  0  0
   58.6830   33.7650   46.4730 C   0  0  0  0  0  0  0  0  0  0  0  0
   57.0260   33.8520   45.9050 Cl  0  0  0  0  0  0  0  0  0  0  0  0
   58.9510   33.6900   47.8380 C   0  0  0  0  0  0  0  0  0  0  0  0
   60.2790   33.6290   48.3130 C   0  0  0  0  0  0  0  0  0  0  0  0
   55.7211   30.4988   43.6315 H   0  0  0  0  0  0  0  0  0  0  0  0
   56.5584   31.6347   42.5200 H   0  0  0  0  0  0  0  0  0  0  0  0
   56.9952   29.8923   42.5200 H   0  0  0  0  0  0  0  0  0  0  0  0
   58.7332   30.8009   43.7965 H   0  0  0  0  0  0  0  0  0  0  0  0
   57.6703   32.0548   44.5325 H   0  0  0  0  0  0  0  0  0  0  0  0
   56.8912   28.1702   45.8813 H   0  0  0  0  0  0  0  0  0  0  0  0
   56.1094   28.8961   44.4139 H   0  0  0  0  0  0  0  0  0  0  0  0
   58.8072   27.5625   44.6974 H   0  0  0  0  0  0  0  0  0  0  0  0
   57.5408   27.3461   43.4420 H   0  0  0  0  0  0  0  0  0  0  0  0
   58.5623   28.8236   43.4420 H   0  0  0  0  0  0  0  0  0  0  0  0
   59.5432   30.4711   45.8040 H   0  0  0  0  0  0  0  0  0  0  0  0
   58.3520   30.7970   47.1666 H   0  0  0  0  0  0  0  0  0  0  0  0
   58.0633   28.3895   47.4927 H   0  0  0  0  0  0  0  0  0  0  0  0
   59.2726   28.0662   46.1941 H   0  0  0  0  0  0  0  0  0  0  0  0
   60.2222   30.9339   47.7433 H   0  0  0  0  0  0  0  0  0  0  0  0
   58.9669   30.3790   48.8973 H   0  0  0  0  0  0  0  0  0  0  0  0
   61.9410   29.7993   49.2988 H   0  0  0  0  0  0  0  0  0  0  0  0
   61.1576   31.2865   49.9251 H   0  0  0  0  0  0  0  0  0  0  0  0
   58.7784   29.7008   49.6194 H   0  0  0  0  0  0  0  0  0  0  0  0
   58.8620   28.2557   50.6772 H   0  0  0  0  0  0  0  0  0  0  0  0
   58.0244   29.3857   52.4637 H   0  0  0  0  0  0  0  0  0  0  0  0
   59.0972   30.8083   52.1538 H   0  0  0  0  0  0  0  0  0  0  0  0
   57.9882   31.8320   49.5365 H   0  0  0  0  0  0  0  0  0  0  0  0
   56.9004   32.7653   50.6194 H   0  0  0  0  0  0  0  0  0  0  0  0
   58.6239   32.8611   52.3498 H   0  0  0  0  0  0  0  0  0  0  0  0
   59.6993   31.7887   51.3719 H   0  0  0  0  0  0  0  0  0  0  0  0
   58.9420   34.6360   50.6820 H   0  0  0  0  0  0  0  0  0  0  0  0
   61.3850   33.5859   52.2508 H   0  0  0  0  0  0  0  0  0  0  0  0
   63.7492   33.6064   53.0171 H   0  0  0  0  0  0  0  0  0  0  0  0
   65.6015   33.6166   51.3561 H   0  0  0  0  0  0  0  0  0  0  0  0
   65.1033   33.5296   48.9252 H   0  0  0  0  0  0  0  0  0  0  0  0
   64.6111   32.6866   47.4245 H   0  0  0  0  0  0  0  0  0  0  0  0
   63.3654   32.1665   46.2394 H   0  0  0  0  0  0  0  0  0  0  0  0
   63.9516   33.8645   46.2394 H   0  0  0  0  0  0  0  0  0  0  0  0
   61.8693   33.7152   45.2726 H   0  0  0  0  0  0  0  0  0  0  0  0
   59.5216   33.8821   44.4855 H   0  0  0  0  0  0  0  0  0  0  0  0
   58.1169   33.6782   48.5551 H   0  0  0  0  0  0  0  0  0  0  0  0
  1  2  1  0
  2  3  1  0
  3  4  1  0
  4  5  1  0
  3  6  1  0
  6  7  1  0
  7  8  1  0
  8  9  1  0
  9 10  1  0
 10 11  1  0
 11 12  1  0
 12 13  1  0
 13 14  1  0
 14 15  1  0
 15 16  1  0
 16 17  1  0
 17 18  1  0
 18 19  2  0
 19 20  1  0
 20 21  2  0
 21 22  1  0
 22 23  2  0
 23 24  1  0
 24 25  2  0
 25 26  1  0
 25 27  1  0
 27 28  2  0
 28 29  1  0
 29 30  2  0
 30 31  1  0
 30 32  1  0
 32 33  2  0
 33 18  1  0
 24 19  1  0
 33 27  1  0
  1 34  1  0
  1 35  1  0
  1 36  1  0
  2 37  1  0
  2 38  1  0
  4 39  1  0
  4 40  1  0
  5 41  1  0
  5 42  1  0
  5 43  1  0
  6 44  1  0
  6 45  1  0
  7 46  1  0
  7 47  1  0
  9 48  1  0
  9 49  1  0
 10 50  1  0
 10 51  1  0
 12 52  1  0
 12 53  1  0
 13 54  1  0
 13 55  1  0
 15 56  1  0
 15 57  1  0
 16 58  1  0
 16 59  1  0
 17 60  1  0
 20 61  1  0
 21 62  1  0
 22 63  1  0
 23 64  1  0
 26 65  1  0
 26 66  1  0
 26 67  1  0
 28 68  1  0
 29 69  1  0
 32 70  1  0
M  CHG  1  25   1
M  END
>  <UniqueID>  (23) 
22

>  <SMILES>  (23) 
CCN(CC)CCOCCOCCOCCNc1c2ccccc2[n+](C)c2ccc(Cl)cc12

>  <Energy>  (23) 
94.88802276655107

>  <Genealogy>  (23) 
CCN(CC)CCOCCOCCOCCNc1c2ccccc2[n+](C)c2ccc(Cl)cc12 (3D coordinates assigned)
CCN(CC)CCOCCOCCOCCNc1c2ccccc2[n+](C)c2ccc(Cl)cc12 (optimized conformer: 94.88802276655107 kcal/mol)

>  <smiles>  (23) 
CCN(CC)CCOCCOCCOCCNc1c2ccccc2[n+](C)c2ccc(Cl)cc12

>  <score_type>  (23) 
oracle

>  <origin>  (23) 
adg

>  <m_score__min__energy>  (23) 
-5.6200000000000001

>  <m_primary>  (23) 
energy

$$$$
23:0
     RDKit          3D

 50 52  0  0  0  0  0  0  0  0999 V2000
   63.4090   33.7690   46.8420 C   0  0  0  0  0  0  0  0  0  0  0  0
   62.3400   32.7110   47.0930 C   0  0  0  0  0  0  0  0  0  0  0  0
   62.9010   31.5930   47.8650 N   0  0  0  0  0  0  0  0  0  0  0  0
   63.0590   31.9100   49.2950 C   0  0  0  0  0  0  0  0  0  0  0  0
   62.0840   31.1240   50.1900 C   0  0  0  0  0  0  0  0  0  0  0  0
   61.6060   29.9680   49.5230 O   0  0  0  0  0  0  0  0  0  0  0  0
   60.3050   29.6200   49.9590 C   0  0  0  0  0  0  0  0  0  0  0  0
   59.2630   30.0940   48.9460 C   0  0  0  0  0  0  0  0  0  0  0  0
   59.9030   30.4400   47.6770 N   0  0  0  0  0  0  0  0  0  0  0  0
   59.1460   30.5370   46.4580 C   0  0  0  0  0  0  0  0  0  0  0  0
   58.7820   31.7960   45.9460 C   0  0  0  0  0  0  0  0  0  0  0  0
   59.1070   32.9820   46.6400 C   0  0  0  0  0  0  0  0  0  0  0  0
   58.8080   34.2290   46.0990 C   0  0  0  0  0  0  0  0  0  0  0  0
   58.1860   34.3180   44.8610 C   0  0  0  0  0  0  0  0  0  0  0  0
   57.8200   33.1610   44.1740 C   0  0  0  0  0  0  0  0  0  0  0  0
   58.0650   31.8760   44.7220 C   0  0  0  0  0  0  0  0  0  0  0  0
   57.6350   30.7220   44.0920 N   0  0  0  0  0  0  0  0  0  0  0  0
   56.6540   30.8060   42.9870 C   0  0  0  0  0  0  0  0  0  0  0  0
   58.0900   29.4870   44.5190 C   0  0  0  0  0  0  0  0  0  0  0  0
   57.8750   28.3090   43.7580 C   0  0  0  0  0  0  0  0  0  0  0  0
   58.2910   27.0630   44.2250 C   0  0  0  0  0  0  0  0  0  0  0  0
   58.0670   25.9510   43.4800 F   0  0  0  0  0  0  0  0  0  0  0  0
   58.9430   26.9570   45.4470 C   0  0  0  0  0  0  0  0  0  0  0  0
   59.2100   28.1000   46.1970 C   0  0  0  0  0  0  0  0  0  0  0  0
   58.8130   29.3750   45.7380 C   0  0  0  0  0  0  0  0  0  0  0  0
   63.7874   34.1435   47.8046 H   0  0  0  0  0  0  0  0  0  0  0  0
   64.2372   33.3250   46.2702 H   0  0  0  0  0  0  0  0  0  0  0  0
   62.9736   34.6017   46.2702 H   0  0  0  0  0  0  0  0  0  0  0  0
   61.5094   33.1608   47.6568 H   0  0  0  0  0  0  0  0  0  0  0  0
   61.9772   32.3321   46.1261 H   0  0  0  0  0  0  0  0  0  0  0  0
   62.2870   30.7520   47.7500 H   0  0  0  0  0  0  0  0  0  0  0  0
   64.0882   31.6667   49.5976 H   0  0  0  0  0  0  0  0  0  0  0  0
   62.8387   32.9800   49.4240 H   0  0  0  0  0  0  0  0  0  0  0  0
   62.6049   30.8197   51.1098 H   0  0  0  0  0  0  0  0  0  0  0  0
   61.2274   31.7710   50.4301 H   0  0  0  0  0  0  0  0  0  0  0  0
   60.2377   28.5272   50.0648 H   0  0  0  0  0  0  0  0  0  0  0  0
   60.1099   30.1044   50.9271 H   0  0  0  0  0  0  0  0  0  0  0  0
   58.5320   29.2900   48.7754 H   0  0  0  0  0  0  0  0  0  0  0  0
   58.7587   30.9864   49.3452 H   0  0  0  0  0  0  0  0  0  0  0  0
   60.8540   30.8740   47.7100 H   0  0  0  0  0  0  0  0  0  0  0  0
   59.6025   32.9196   47.6201 H   0  0  0  0  0  0  0  0  0  0  0  0
   59.0646   35.1443   46.6525 H   0  0  0  0  0  0  0  0  0  0  0  0
   57.9811   35.3049   44.4204 H   0  0  0  0  0  0  0  0  0  0  0  0
   57.3334   33.2463   43.1912 H   0  0  0  0  0  0  0  0  0  0  0  0
   55.6395   30.8929   43.4032 H   0  0  0  0  0  0  0  0  0  0  0  0
   56.8733   31.6887   42.3683 H   0  0  0  0  0  0  0  0  0  0  0  0
   56.7201   29.8989   42.3683 H   0  0  0  0  0  0  0  0  0  0  0  0
   57.3714   28.3800   42.7827 H   0  0  0  0  0  0  0  0  0  0  0  0
   59.2488   25.9694   45.8228 H   0  0  0  0  0  0  0  0  0  0  0  0
   59.7365   28.0083   47.1585 H   0  0  0  0  0  0  0  0  0  0  0  0
  1  2  1  0
  2  3  1  0
  3  4  1  0
  4  5  1  0
  5  6  1  0
  6  7  1  0
  7  8  1  0
  8  9  1  0
  9 10  1  0
 10 11  2  0
 11 12  1  0
 12 13  2  0
 13 14  1  0
 14 15  2  0
 15 16  1  0
 16 17  2  0
 17 18  1  0
 17 19  1  0
 19 20  2  0
 20 21  1  0
 21 22  1  0
 21 23  2  0
 23 24  1  0
 24 25  2  0
 25 10  1  0
 16 11  1  0
 25 19  1  0
  1 26  1  0
  1 27  1  0
  1 28  1  0
  2 29  1  0
  2 30  1  0
  3 31  1  0
  4 32  1  0
  4 33  1  0
  5 34  1  0
  5 35  1  0
  7 36  1  0
  7 37  1  0
  8 38  1  0
  8 39  1  0
  9 40  1  0
 12 41  1  0
 13 42  1  0
 14 43  1  0
 15 44  1  0
 18 45  1  0
 18 46  1  0
 18 47  1  0
 20 48  1  0
 23 49  1  0
 24 50  1  0
M  CHG  1  17   1
M  END
>  <UniqueID>  (24) 
23

>  <SMILES>  (24) 
CCNCCOCCNc1c2ccccc2[n+](C)c2cc(F)ccc12

>  <Energy>  (24) 
76.8315060433142

>  <Genealogy>  (24) 
CCNCCOCCNc1c2ccccc2[n+](C)c2cc(F)ccc12 (3D coordinates assigned)
CCNCCOCCNc1c2ccccc2[n+](C)c2cc(F)ccc12 (optimized conformer: 76.8315060433142 kcal/mol)

>  <smiles>  (24) 
CCNCCOCCNc1c2ccccc2[n+](C)c2cc(F)ccc12

>  <score_type>  (24) 
oracle

>  <origin>  (24) 
adg

>  <m_score__min__energy>  (24) 
-4.5199999999999996

>  <m_primary>  (24) 
energy

$$$$
24:0
     RDKit          3D

 52 54  0  0  0  0  0  0  0  0999 V2000
   60.3770   30.0750   47.0180 C   0  0  0  0  0  0  0  0  0  0  0  0
   60.9760   29.6830   45.6730 C   0  0  0  0  0  0  0  0  0  0  0  0
   59.9240   29.5330   44.6710 N   0  0  0  0  0  0  0  0  0  0  0  0
   58.6650   28.9090   44.9750 C   0  0  0  0  0  0  0  0  0  0  0  0
   57.4560   29.5920   44.7070 C   0  0  0  0  0  0  0  0  0  0  0  0
   57.4430   30.9580   44.0460 C   0  0  0  0  0  0  0  0  0  0  0  0
   57.9260   32.0360   44.9870 C   0  0  0  0  0  0  0  0  0  0  0  0
   58.4640   33.2310   44.4760 C   0  0  0  0  0  0  0  0  0  0  0  0
   58.8920   34.2400   45.3450 C   0  0  0  0  0  0  0  0  0  0  0  0
   58.7810   34.0700   46.7260 C   0  0  0  0  0  0  0  0  0  0  0  0
   58.2400   32.8910   47.2440 C   0  0  0  0  0  0  0  0  0  0  0  0
   57.8100   31.8790   46.3800 C   0  0  0  0  0  0  0  0  0  0  0  0
   56.2380   28.9660   45.0320 C   0  0  0  0  0  0  0  0  0  0  0  0
   55.1400   29.5430   44.8120 O   0  0  0  0  0  0  0  0  0  0  0  0
   56.2320   27.7270   45.5840 N   0  0  0  0  0  0  0  0  0  0  0  0
   57.3700   27.0390   45.8630 C   0  0  0  0  0  0  0  0  0  0  0  0
   57.2930   25.7520   46.4480 C   0  0  0  0  0  0  0  0  0  0  0  0
   55.9260   25.1210   46.7090 C   0  0  2  0  0  0  0  0  0  0  0  0
   55.9700   23.8400   47.5750 C   0  0  0  0  0  0  0  0  0  0  0  0
   55.1930   24.9560   45.4250 N   0  0  0  0  0  0  0  0  0  0  0  0
   55.9150   24.1590   44.4170 C   0  0  0  0  0  0  0  0  0  0  0  0
   53.8300   24.4360   45.6150 C   0  0  0  0  0  0  0  0  0  0  0  0
   58.4910   25.0600   46.7140 C   0  0  0  0  0  0  0  0  0  0  0  0
   59.7270   25.6480   46.4520 C   0  0  0  0  0  0  0  0  0  0  0  0
   59.7990   26.9220   45.8950 C   0  0  0  0  0  0  0  0  0  0  0  0
   58.6250   27.6260   45.5710 C   0  0  0  0  0  0  0  0  0  0  0  0
   60.9989   29.6680   47.8289 H   0  0  0  0  0  0  0  0  0  0  0  0
   60.3416   31.1715   47.0980 H   0  0  0  0  0  0  0  0  0  0  0  0
   59.3580   29.6685   47.0980 H   0  0  0  0  0  0  0  0  0  0  0  0
   61.6779   30.4648   45.3472 H   0  0  0  0  0  0  0  0  0  0  0  0
   61.5029   28.7237   45.7832 H   0  0  0  0  0  0  0  0  0  0  0  0
   60.0910   29.8740   43.6980 H   0  0  0  0  0  0  0  0  0  0  0  0
   58.0996   30.9339   43.1638 H   0  0  0  0  0  0  0  0  0  0  0  0
   56.4071   31.1912   43.7587 H   0  0  0  0  0  0  0  0  0  0  0  0
   58.5485   33.3726   43.3884 H   0  0  0  0  0  0  0  0  0  0  0  0
   59.3171   35.1698   44.9391 H   0  0  0  0  0  0  0  0  0  0  0  0
   59.1197   34.8649   47.4067 H   0  0  0  0  0  0  0  0  0  0  0  0
   58.1521   32.7585   48.3324 H   0  0  0  0  0  0  0  0  0  0  0  0
   57.3786   30.9549   46.7921 H   0  0  0  0  0  0  0  0  0  0  0  0
   55.3548   25.8193   47.3383 H   0  0  0  0  0  0  0  0  0  0  0  0
   55.9605   24.1166   48.6396 H   0  0  0  0  0  0  0  0  0  0  0  0
   55.0928   23.2154   47.3506 H   0  0  0  0  0  0  0  0  0  0  0  0
   56.8880   23.2771   47.3506 H   0  0  0  0  0  0  0  0  0  0  0  0
   56.5708   23.4351   44.9229 H   0  0  0  0  0  0  0  0  0  0  0  0
   55.1909   23.6206   43.7879 H   0  0  0  0  0  0  0  0  0  0  0  0
   56.5222   24.8265   43.7879 H   0  0  0  0  0  0  0  0  0  0  0  0
   53.6154   24.3541   46.6908 H   0  0  0  0  0  0  0  0  0  0  0  0
   53.1076   25.1217   45.1482 H   0  0  0  0  0  0  0  0  0  0  0  0
   53.7479   23.4434   45.1482 H   0  0  0  0  0  0  0  0  0  0  0  0
   58.4503   24.0439   47.1333 H   0  0  0  0  0  0  0  0  0  0  0  0
   60.6524   25.1017   46.6869 H   0  0  0  0  0  0  0  0  0  0  0  0
   60.7807   27.3812   45.7070 H   0  0  0  0  0  0  0  0  0  0  0  0
  1  2  1  0
  2  3  1  0
  3  4  1  0
  4  5  2  0
  5  6  1  0
  6  7  1  0
  7  8  2  0
  8  9  1  0
  9 10  2  0
 10 11  1  0
 11 12  2  0
  5 13  1  0
 13 14  2  0
 13 15  1  0
 15 16  1  0
 16 17  2  0
 17 18  1  0
 18 19  1  0
 18 20  1  0
 20 21  1  0
 20 22  1  0
 17 23  1  0
 23 24  2  0
 24 25  1  0
 25 26  2  0
 26  4  1  0
 12  7  1  0
 26 16  1  0
  1 27  1  0
  1 28  1  0
  1 29  1  0
  2 30  1  0
  2 31  1  0
  3 32  1  0
  6 33  1  0
  6 34  1  0
  8 35  1  0
  9 36  1  0
 10 37  1  0
 11 38  1  0
 12 39  1  0
 18 40  1  1
 19 41  1  0
 19 42  1  0
 19 43  1  0
 21 44  1  0
 21 45  1  0
 21 46  1  0
 22 47  1  0
 22 48  1  0
 22 49  1  0
 23 50  1  0
 24 51  1  0
 25 52  1  0
M  CHG  1  15  -1
M  END
>  <UniqueID>  (25) 
24

>  <SMILES>  (25) 
CCNc1c(Cc2ccccc2)c(=O)[n-]c2c([C@H](C)N(C)C)cccc12

>  <Energy>  (25) 
68.64288238228703

>  <Genealogy>  (25) 
CCNc1c(Cc2ccccc2)c(=O)[n-]c2c(C(C)N(C)C)cccc12 (protonated)
CCNc1c(Cc2ccccc2)c(=O)[n-]c2c([C@H](C)N(C)C)cccc12 (chirality)
CCNc1c(Cc2ccccc2)c(=O)[n-]c2c([C@H](C)N(C)C)cccc12 (3D coordinates assigned)
CCNc1c(Cc2ccccc2)c(=O)[n-]c2c([C@H](C)N(C)C)cccc12 (optimized conformer: 68.64288238228703 kcal/mol)

>  <smiles>  (25) 
CCNc1c(Cc2ccccc2)c(=O)[nH]c2c(C(C)N(C)C)cccc12

>  <score_type>  (25) 
oracle

>  <origin>  (25) 
adg

>  <m_score__min__energy>  (25) 
-9.8599999999999994

>  <m_primary>  (25) 
energy

$$$$
25:0
     RDKit          3D

 40 40  0  0  0  0  0  0  0  0999 V2000
   58.9320   28.6320   48.2260 C   0  0  0  0  0  0  0  0  0  0  0  0
   58.7380   29.5500   47.0530 C   0  0  0  0  0  0  0  0  0  0  0  0
   59.9400   29.9810   46.4740 N   0  0  0  0  0  0  0  0  0  0  0  0
   60.5130   29.2980   45.3940 C   0  0  0  0  0  0  0  0  0  0  0  0
   59.6360   28.3920   44.5900 C   0  0  0  0  0  0  0  0  0  0  0  0
   60.7930   30.8310   47.2110 C   0  0  0  0  0  0  0  0  0  0  0  0
   60.4360   32.2290   46.9830 C   0  0  0  0  0  0  0  0  0  0  0  0
   60.1520   33.3970   46.7740 C   0  0  0  0  0  0  0  0  0  0  0  0
   59.8160   34.8180   46.4970 C   0  0  0  0  0  0  0  0  0  0  0  0
   59.0210   34.9720   45.2430 C   0  0  0  0  0  0  0  0  0  0  0  0
   58.7100   33.6500   44.5540 C   0  0  0  0  0  0  0  0  0  0  0  0
   57.4320   33.1060   45.1150 C   0  0  0  0  0  0  0  0  0  0  0  0
   57.1060   31.7930   44.5440 C   0  0  0  0  0  0  0  0  0  0  0  0
   57.7690   31.3190   43.3990 C   0  0  0  0  0  0  0  0  0  0  0  0
   57.3090   30.1100   43.0780 N   0  0  0  0  0  0  0  0  0  0  0  0
   56.3760   29.8120   43.9920 C   0  0  0  0  0  0  0  0  0  0  0  0
   56.2590   30.8250   44.8710 N   0  0  0  0  0  0  0  0  0  0  0  0
   58.8119   29.2003   49.1601 H   0  0  0  0  0  0  0  0  0  0  0  0
   58.1843   27.8260   48.1884 H   0  0  0  0  0  0  0  0  0  0  0  0
   59.9418   28.1974   48.1884 H   0  0  0  0  0  0  0  0  0  0  0  0
   58.1542   29.0178   46.2875 H   0  0  0  0  0  0  0  0  0  0  0  0
   58.2197   30.4457   47.4260 H   0  0  0  0  0  0  0  0  0  0  0  0
   60.9186   30.0550   44.7066 H   0  0  0  0  0  0  0  0  0  0  0  0
   61.2519   28.6262   45.8552 H   0  0  0  0  0  0  0  0  0  0  0  0
   59.0332   27.7692   45.2673 H   0  0  0  0  0  0  0  0  0  0  0  0
   58.9695   28.9948   43.9556 H   0  0  0  0  0  0  0  0  0  0  0  0
   60.2602   27.7455   43.9556 H   0  0  0  0  0  0  0  0  0  0  0  0
   60.6962   30.6019   48.2825 H   0  0  0  0  0  0  0  0  0  0  0  0
   61.8304   30.6686   46.8832 H   0  0  0  0  0  0  0  0  0  0  0  0
   59.2304   35.2149   47.3394 H   0  0  0  0  0  0  0  0  0  0  0  0
   60.7585   35.3710   46.3710 H   0  0  0  0  0  0  0  0  0  0  0  0
   58.0706   35.4668   45.4920 H   0  0  0  0  0  0  0  0  0  0  0  0
   59.6301   35.5650   44.5449 H   0  0  0  0  0  0  0  0  0  0  0  0
   58.5994   33.8134   43.4718 H   0  0  0  0  0  0  0  0  0  0  0  0
   59.5289   32.9359   44.7254 H   0  0  0  0  0  0  0  0  0  0  0  0
   57.5353   33.0052   46.2055 H   0  0  0  0  0  0  0  0  0  0  0  0
   56.6202   33.8031   44.8597 H   0  0  0  0  0  0  0  0  0  0  0  0
   58.5507   31.8643   42.8499 H   0  0  0  0  0  0  0  0  0  0  0  0
   57.6460   29.5390   42.2530 H   0  0  0  0  0  0  0  0  0  0  0  0
   55.7930   28.8796   44.0201 H   0  0  0  0  0  0  0  0  0  0  0  0
  1  2  1  0
  2  3  1  0
  3  4  1  0
  4  5  1  0
  3  6  1  0
  6  7  1  0
  7  8  3  0
  8  9  1  0
  9 10  1  0
 10 11  1  0
 11 12  1  0
 12 13  1  0
 13 14  2  0
 14 15  1  0
 15 16  1  0
 16 17  2  0
 17 13  1  0
  1 18  1  0
  1 19  1  0
  1 20  1  0
  2 21  1  0
  2 22  1  0
  4 23  1  0
  4 24  1  0
  5 25  1  0
  5 26  1  0
  5 27  1  0
  6 28  1  0
  6 29  1  0
  9 30  1  0
  9 31  1  0
 10 32  1  0
 10 33  1  0
 11 34  1  0
 11 35  1  0
 12 36  1  0
 12 37  1  0
 14 38  1  0
 15 39  1  0
 16 40  1  0
M  END
>  <smiles>  (26) 
CCN(CC)CC#CCCCCc1c[nH]cn1

>  <score_type>  (26) 
oracle

>  <origin>  (26) 
adg

>  <m_score__min__energy>  (26) 
-5.7000000000000002

>  <m_primary>  (26) 
energy

$$$$
26:0
     RDKit          3D

 48 48  0  0  0  0  0  0  0  0999 V2000
   63.7100   33.5160   49.9370 C   0  0  0  0  0  0  0  0  0  0  0  0
   64.1390   33.0170   48.5520 C   0  0  0  0  0  0  0  0  0  0  0  0
   63.0200   32.9900   47.5750 N   0  0  1  0  0  0  0  0  0  0  0  0
   63.3300   33.8320   46.4010 C   0  0  0  0  0  0  0  0  0  0  0  0
   62.7580   31.5870   47.1650 C   0  0  0  0  0  0  0  0  0  0  0  0
   61.5230   30.9780   47.8580 C   0  0  0  0  0  0  0  0  0  0  0  0
   61.2230   31.7000   49.0380 O   0  0  0  0  0  0  0  0  0  0  0  0
   59.9200   31.4040   49.5080 C   0  0  0  0  0  0  0  0  0  0  0  0
   59.1120   32.6970   49.6700 C   0  0  0  0  0  0  0  0  0  0  0  0
   60.0010   33.9500   49.5980 C   0  0  0  0  0  0  0  0  0  0  0  0
   60.4140   34.2290   48.2150 N   0  0  0  0  0  0  0  0  0  0  0  0
   59.3480   34.8860   47.4420 C   0  0  0  0  0  0  0  0  0  0  0  0
   59.6170   34.7300   45.9420 C   0  0  0  0  0  0  0  0  0  0  0  0
   58.9470   33.4930   45.3970 C   0  0  0  0  0  0  0  0  0  0  0  0
   58.7440   32.3770   46.2250 C   0  0  0  0  0  0  0  0  0  0  0  0
   58.0520   31.2600   45.7450 C   0  0  0  0  0  0  0  0  0  0  0  0
   57.5600   31.2480   44.4370 C   0  0  0  0  0  0  0  0  0  0  0  0
   56.5970   29.7300   43.7920 Br  0  0  0  0  0  0  0  0  0  0  0  0
   57.7640   32.3540   43.6050 C   0  0  0  0  0  0  0  0  0  0  0  0
   58.4520   33.4740   44.0820 C   0  0  0  0  0  0  0  0  0  0  0  0
   64.2181   32.9250   50.7133 H   0  0  0  0  0  0  0  0  0  0  0  0
   63.9831   34.5760   50.0457 H   0  0  0  0  0  0  0  0  0  0  0  0
   62.6210   33.4050   50.0457 H   0  0  0  0  0  0  0  0  0  0  0  0
   64.9251   33.6831   48.1669 H   0  0  0  0  0  0  0  0  0  0  0  0
   64.4990   31.9843   48.6701 H   0  0  0  0  0  0  0  0  0  0  0  0
   62.1590   33.3650   48.0410 H   0  0  0  0  0  0  0  0  0  0  0  0
   63.6916   34.8142   46.7394 H   0  0  0  0  0  0  0  0  0  0  0  0
   64.1074   33.3440   45.7948 H   0  0  0  0  0  0  0  0  0  0  0  0
   62.4217   33.9646   45.7948 H   0  0  0  0  0  0  0  0  0  0  0  0
   62.5966   31.5640   46.0772 H   0  0  0  0  0  0  0  0  0  0  0  0
   63.6314   30.9884   47.4631 H   0  0  0  0  0  0  0  0  0  0  0  0
   60.6624   31.0240   47.1744 H   0  0  0  0  0  0  0  0  0  0  0  0
   61.7365   29.9313   48.1204 H   0  0  0  0  0  0  0  0  0  0  0  0
   59.4135   30.7465   48.7861 H   0  0  0  0  0  0  0  0  0  0  0  0
   59.9947   30.9015   50.4836 H   0  0  0  0  0  0  0  0  0  0  0  0
   58.3613   32.7486   48.8676 H   0  0  0  0  0  0  0  0  0  0  0  0
   58.6368   32.6764   50.6618 H   0  0  0  0  0  0  0  0  0  0  0  0
   59.4383   34.8121   49.9854 H   0  0  0  0  0  0  0  0  0  0  0  0
   60.9029   33.7728   50.2023 H   0  0  0  0  0  0  0  0  0  0  0  0
   60.6350   33.3180   47.7490 H   0  0  0  0  0  0  0  0  0  0  0  0
   58.3810   34.4235   47.6888 H   0  0  0  0  0  0  0  0  0  0  0  0
   59.3249   35.9561   47.6955 H   0  0  0  0  0  0  0  0  0  0  0  0
   59.2274   35.6124   45.4132 H   0  0  0  0  0  0  0  0  0  0  0  0
   60.7023   34.6363   45.7891 H   0  0  0  0  0  0  0  0  0  0  0  0
   59.1306   32.3812   47.2548 H   0  0  0  0  0  0  0  0  0  0  0  0
   57.8948   30.3892   46.3985 H   0  0  0  0  0  0  0  0  0  0  0  0
   57.3824   32.3426   42.5734 H   0  0  0  0  0  0  0  0  0  0  0  0
   58.6063   34.3431   43.4256 H   0  0  0  0  0  0  0  0  0  0  0  0
  1  2  1  0
  2  3  1  0
  3  4  1  0
  3  5  1  0
  5  6  1  0
  6  7  1  0
  7  8  1  0
  8  9  1  0
  9 10  1  0
 10 11  1  0
 11 12  1  0
 12 13  1  0
 13 14  1  0
 14 15  2  0
 15 16  1  0
 16 17  2  0
 17 18  1  0
 17 19  1  0
 19 20  2  0
 20 14  1  0
  1 21  1  0
  1 22  1  0
  1 23  1  0
  2 24  1  0
  2 25  1  0
  3 26  1  1
  4 27  1  0
  4 28  1  0
  4 29  1  0
  5 30  1  0
  5 31  1  0
  6 32  1  0
  6 33  1  0
  8 34  1  0
  8 35  1  0
  9 36  1  0
  9 37  1  0
 10 38  1  0
 10 39  1  0
 11 40  1  0
 12 41  1  0
 12 42  1  0
 13 43  1  0
 13 44  1  0
 15 45  1  0
 16 46  1  0
 19 47  1  0
 20 48  1  0
M  CHG  1   3   1
M  END
>  <UniqueID>  (27) 
25

>  <SMILES>  (27) 
CC[N@@H+](C)CCOCCCNCCc1ccc(Br)cc1

>  <Energy>  (27) 
40.24994315204322

>  <Genealogy>  (27) 
CC[NH+](C)CCOCCCNCCc1ccc(Br)cc1 (protonated)
CC[N@@H+](C)CCOCCCNCCc1ccc(Br)cc1 (chirality)
CC[N@@H+](C)CCOCCCNCCc1ccc(Br)cc1 (3D coordinates assigned)
CC[N@@H+](C)CCOCCCNCCc1ccc(Br)cc1 (optimized conformer: 40.24994315204322 kcal/mol)

>  <smiles>  (27) 
CCN(C)CCOCCCNCCc1ccc(Br)cc1

>  <score_type>  (27) 
oracle

>  <origin>  (27) 
adg

>  <m_score__min__energy>  (27) 
-4.2699999999999996

>  <m_primary>  (27) 
energy

$$$$
27:0
     RDKit          3D

 67 70  0  0  0  0  0  0  0  0999 V2000
   56.4640   23.6870   43.3270 C   0  0  0  0  0  0  0  0  0  0  0  0
   57.3780   24.8790   43.0140 C   0  0  0  0  0  0  0  0  0  0  0  0
   57.3920   25.9010   44.0950 N   0  0  0  0  0  0  0  0  0  0  0  0
   57.9930   25.4090   45.3640 C   0  0  0  0  0  0  0  0  0  0  0  0
   57.1730   25.7310   46.6220 C   0  0  0  0  0  0  0  0  0  0  0  0
   58.0600   27.1510   43.6350 C   0  0  0  0  0  0  0  0  0  0  0  0
   57.5450   28.4060   44.3640 C   0  0  0  0  0  0  0  0  0  0  0  0
   58.5400   29.4800   44.3450 N   0  0  0  0  0  0  0  0  0  0  0  0
   58.7960   30.2620   45.5190 C   0  0  0  0  0  0  0  0  0  0  0  0
   58.5330   31.6400   45.5110 C   0  0  0  0  0  0  0  0  0  0  0  0
   58.7480   32.3880   46.6930 C   0  0  0  0  0  0  0  0  0  0  0  0
   59.1890   31.7570   47.8400 N   0  0  0  0  0  0  0  0  0  0  0  0
   58.9010   32.4040   49.1360 C   0  0  0  0  0  0  0  0  0  0  0  0
   59.6880   30.4650   47.7820 C   0  0  0  0  0  0  0  0  0  0  0  0
   60.5240   29.8860   48.7980 C   0  0  0  0  0  0  0  0  0  0  0  0
   61.4360   30.6980   49.7080 C   0  0  0  0  0  0  0  0  0  0  0  0
   62.1380   31.7890   49.0040 N   0  0  0  0  0  0  0  0  0  0  0  0
   62.2680   33.0020   49.6300 C   0  0  0  0  0  0  0  0  0  0  0  0
   62.9570   34.0510   49.0200 C   0  0  0  0  0  0  0  0  0  0  0  0
   63.5320   33.8560   47.7660 C   0  0  0  0  0  0  0  0  0  0  0  0
   63.4150   32.6190   47.1400 C   0  0  0  0  0  0  0  0  0  0  0  0
   62.7200   31.5890   47.7770 C   0  0  0  0  0  0  0  0  0  0  0  0
   60.7740   28.5030   48.7730 C   0  0  0  0  0  0  0  0  0  0  0  0
   60.2930   27.7040   47.7450 C   0  0  0  0  0  0  0  0  0  0  0  0
   59.6290   28.2810   46.6720 C   0  0  0  0  0  0  0  0  0  0  0  0
   59.3620   29.6620   46.6550 C   0  0  0  0  0  0  0  0  0  0  0  0
   58.3690   33.8660   46.7300 C   0  0  0  0  0  0  0  0  0  0  0  0
   58.3230   34.5140   45.3470 C   0  0  0  0  0  0  0  0  0  0  0  0
   57.4610   33.6750   44.4150 C   0  0  0  0  0  0  0  0  0  0  0  0
   58.0990   32.3030   44.2130 C   0  0  0  0  0  0  0  0  0  0  0  0
   56.3743   23.5700   44.4171 H   0  0  0  0  0  0  0  0  0  0  0  0
   55.4685   23.8647   42.8942 H   0  0  0  0  0  0  0  0  0  0  0  0
   56.8939   22.7717   42.8942 H   0  0  0  0  0  0  0  0  0  0  0  0
   58.4030   24.5065   42.8706 H   0  0  0  0  0  0  0  0  0  0  0  0
   56.9867   25.3643   42.1077 H   0  0  0  0  0  0  0  0  0  0  0  0
   56.3940   26.1250   44.3210 H   0  0  0  0  0  0  0  0  0  0  0  0
   58.0994   24.3165   45.2932 H   0  0  0  0  0  0  0  0  0  0  0  0
   58.9565   25.9277   45.4764 H   0  0  0  0  0  0  0  0  0  0  0  0
   57.7680   25.4974   47.5172 H   0  0  0  0  0  0  0  0  0  0  0  0
   56.9101   26.7991   46.6249 H   0  0  0  0  0  0  0  0  0  0  0  0
   56.2536   25.1271   46.6249 H   0  0  0  0  0  0  0  0  0  0  0  0
   59.1412   27.0586   43.8155 H   0  0  0  0  0  0  0  0  0  0  0  0
   57.8337   27.2731   42.5655 H   0  0  0  0  0  0  0  0  0  0  0  0
   56.6288   28.7579   43.8673 H   0  0  0  0  0  0  0  0  0  0  0  0
   57.3427   28.1395   45.4119 H   0  0  0  0  0  0  0  0  0  0  0  0
   59.0280   29.7470   43.4580 H   0  0  0  0  0  0  0  0  0  0  0  0
   59.1996   31.7332   49.9551 H   0  0  0  0  0  0  0  0  0  0  0  0
   59.4650   33.3456   49.2091 H   0  0  0  0  0  0  0  0  0  0  0  0
   57.8239   32.6151   49.2091 H   0  0  0  0  0  0  0  0  0  0  0  0
   60.8270   31.1360   50.5125 H   0  0  0  0  0  0  0  0  0  0  0  0
   62.2036   30.0129   50.0971 H   0  0  0  0  0  0  0  0  0  0  0  0
   61.8237   33.1500   50.6253 H   0  0  0  0  0  0  0  0  0  0  0  0
   63.0455   35.0241   49.5252 H   0  0  0  0  0  0  0  0  0  0  0  0
   64.0756   34.6757   47.2735 H   0  0  0  0  0  0  0  0  0  0  0  0
   63.8666   32.4537   46.1507 H   0  0  0  0  0  0  0  0  0  0  0  0
   62.6379   30.6061   47.2900 H   0  0  0  0  0  0  0  0  0  0  0  0
   61.3615   28.0457   49.5828 H   0  0  0  0  0  0  0  0  0  0  0  0
   60.4381   26.6142   47.7809 H   0  0  0  0  0  0  0  0  0  0  0  0
   59.3087   27.6532   45.8275 H   0  0  0  0  0  0  0  0  0  0  0  0
   57.3754   33.9600   47.1926 H   0  0  0  0  0  0  0  0  0  0  0  0
   59.1467   34.3870   47.3077 H   0  0  0  0  0  0  0  0  0  0  0  0
   57.8949   35.5238   45.4306 H   0  0  0  0  0  0  0  0  0  0  0  0
   59.3432   34.5773   44.9406 H   0  0  0  0  0  0  0  0  0  0  0  0
   56.4609   33.5510   44.8559 H   0  0  0  0  0  0  0  0  0  0  0  0
   57.3780   34.1828   43.4428 H   0  0  0  0  0  0  0  0  0  0  0  0
   57.3682   31.6488   43.7151 H   0  0  0  0  0  0  0  0  0  0  0  0
   59.0047   32.4529   43.6071 H   0  0  0  0  0  0  0  0  0  0  0  0
  1  2  1  0
  2  3  1  0
  3  4  1  0
  4  5  1  0
  3  6  1  0
  6  7  1  0
  7  8  1  0
  8  9  1  0
  9 10  2  0
 10 11  1  0
 11 12  2  0
 12 13  1  0
 12 14  1  0
 14 15  2  0
 15 16  1  0
 16 17  1  0
 17 18  2  0
 18 19  1  0
 19 20  2  0
 20 21  1  0
 21 22  2  0
 15 23  1  0
 23 24  2  0
 24 25  1  0
 25 26  2  0
 11 27  1  0
 27 28  1  0
 28 29  1  0
 29 30  1  0
 26  9  1  0
 30 10  1  0
 26 14  1  0
 22 17  1  0
  1 31  1  0
  1 32  1  0
  1 33  1  0
  2 34  1  0
  2 35  1  0
  3 36  1  0
  4 37  1  0
  4 38  1  0
  5 39  1  0
  5 40  1  0
  5 41  1  0
  6 42  1  0
  6 43  1  0
  7 44  1  0
  7 45  1  0
  8 46  1  0
 13 47  1  0
 13 48  1  0
 13 49  1  0
 16 50  1  0
 16 51  1  0
 18 52  1  0
 19 53  1  0
 20 54  1  0
 21 55  1  0
 22 56  1  0
 23 57  1  0
 24 58  1  0
 25 59  1  0
 27 60  1  0
 27 61  1  0
 28 62  1  0
 28 63  1  0
 29 64  1  0
 29 65  1  0
 30 66  1  0
 30 67  1  0
M  CHG  3   3   1  12   1  17   1
M  END
>  <UniqueID>  (28) 
26

>  <SMILES>  (28) 
CC[NH+](CC)CCNc1c2c([n+](C)c3c(C[n+]4ccccc4)cccc13)CCCC2

>  <Energy>  (28) 
108.35416158813038

>  <Genealogy>  (28) 
CC[NH+](CC)CCNc1c2c([n+](C)c3c(C[n+]4ccccc4)cccc13)CCCC2 (protonated)
CC[NH+](CC)CCNc1c2c([n+](C)c3c(C[n+]4ccccc4)cccc13)CCCC2 (3D coordinates assigned)
CC[NH+](CC)CCNc1c2c([n+](C)c3c(C[n+]4ccccc4)cccc13)CCCC2 (nonaromatic ring conformer: 108.35416158813038 kcal/mol)

>  <smiles>  (28) 
CCN(CC)CCNc1c2c([n+](C)c3c(C[n+]4ccccc4)cccc13)CCCC2

>  <score_type>  (28) 
oracle

>  <origin>  (28) 
adg

>  <m_score__min__energy>  (28) 
-4.3099999999999996

>  <m_primary>  (28) 
energy

$$$$
