0:0
     RDKit          3D

 42 44  0  0  0  0  0  0  0  0999 V2000
   57.0720   32.8630   40.0230 C   0  0  0  0  0  0  0  0  0  0  0  0
   57.2200   31.9990   41.1270 O   0  0  0  0  0  0  0  0  0  0  0  0
   57.9270   32.6610   42.1550 C   0  0  0  0  0  0  0  0  0  0  0  0
   57.5230   32.0780   43.5180 C   0  0  1  0  0  0  0  0  0  0  0  0
   58.0070   30.7000   43.6350 N   0  0  0  0  0  0  0  0  0  0  0  0
   57.4500   29.7670   44.5700 C   0  0  0  0  0  0  0  0  0  0  0  0
   56.2550   29.8970   44.9510 O   0  0  0  0  0  0  0  0  0  0  0  0
   58.2570   28.6400   45.0780 C   0  0  0  0  0  0  0  0  0  0  0  0
   58.5600   27.4460   44.4160 C   0  0  0  0  0  0  0  0  0  0  0  0
   58.1450   27.0730   43.0310 C   0  0  0  0  0  0  0  0  0  0  0  0
   59.2720   26.6530   45.1950 O   0  0  0  0  0  0  0  0  0  0  0  0
   59.4490   27.2720   46.3370 C   0  0  0  0  0  0  0  0  0  0  0  0
   60.1320   26.7970   47.4550 C   0  0  0  0  0  0  0  0  0  0  0  0
   60.1790   27.6180   48.5970 C   0  0  0  0  0  0  0  0  0  0  0  0
   59.5390   28.8780   48.5980 C   0  0  0  0  0  0  0  0  0  0  0  0
   58.8510   29.3310   47.4560 C   0  0  0  0  0  0  0  0  0  0  0  0
   58.8420   28.5050   46.3270 C   0  0  0  0  0  0  0  0  0  0  0  0
   58.0090   32.8810   44.7130 C   0  0  0  0  0  0  0  0  0  0  0  0
   58.9520   33.9040   44.5020 C   0  0  0  0  0  0  0  0  0  0  0  0
   59.3930   34.6970   45.5680 C   0  0  0  0  0  0  0  0  0  0  0  0
   58.9030   34.4760   46.8560 C   0  0  0  0  0  0  0  0  0  0  0  0
   57.9460   33.4830   47.0770 C   0  0  0  0  0  0  0  0  0  0  0  0
   57.4870   32.7000   46.0110 C   0  0  0  0  0  0  0  0  0  0  0  0
   56.8964   33.8883   40.3807 H   0  0  0  0  0  0  0  0  0  0  0  0
   57.9873   32.8391   39.4134 H   0  0  0  0  0  0  0  0  0  0  0  0
   56.2168   32.5358   39.4134 H   0  0  0  0  0  0  0  0  0  0  0  0
   59.0077   32.5225   42.0036 H   0  0  0  0  0  0  0  0  0  0  0  0
   57.6858   33.7340   42.1312 H   0  0  0  0  0  0  0  0  0  0  0  0
   56.4240   32.1172   43.5430 H   0  0  0  0  0  0  0  0  0  0  0  0
   58.7820   30.3850   43.0070 H   0  0  0  0  0  0  0  0  0  0  0  0
   57.3276   26.3384   43.0785 H   0  0  0  0  0  0  0  0  0  0  0  0
   57.8004   27.9709   42.4971 H   0  0  0  0  0  0  0  0  0  0  0  0
   59.0012   26.6349   42.4971 H   0  0  0  0  0  0  0  0  0  0  0  0
   60.6193   25.8109   47.4451 H   0  0  0  0  0  0  0  0  0  0  0  0
   60.7169   27.2771   49.4939 H   0  0  0  0  0  0  0  0  0  0  0  0
   59.5786   29.5096   49.4977 H   0  0  0  0  0  0  0  0  0  0  0  0
   58.3369   30.3035   47.4518 H   0  0  0  0  0  0  0  0  0  0  0  0
   59.3460   34.0821   43.4906 H   0  0  0  0  0  0  0  0  0  0  0  0
   60.1275   35.4963   45.3901 H   0  0  0  0  0  0  0  0  0  0  0  0
   59.2702   35.0834   47.6964 H   0  0  0  0  0  0  0  0  0  0  0  0
   57.5522   33.3158   48.0904 H   0  0  0  0  0  0  0  0  0  0  0  0
   56.7135   31.9379   46.1869 H   0  0  0  0  0  0  0  0  0  0  0  0
  1  2  1  0
  2  3  1  0
  3  4  1  0
  4  5  1  0
  5  6  1  0
  6  7  2  0
  6  8  1  0
  8  9  2  0
  9 10  1  0
  9 11  1  0
 11 12  1  0
 12 13  2  0
 13 14  1  0
 14 15  2  0
 15 16  1  0
 16 17  2  0
  4 18  1  0
 18 19  2  0
 19 20  1  0
 20 21  2  0
 21 22  1  0
 22 23  2  0
 17  8  1  0
 23 18  1  0
 17 12  1  0
  1 24  1  0
  1 25  1  0
  1 26  1  0
  3 27  1  0
  3 28  1  0
  4 29  1  6
  5 30  1  0
 10 31  1  0
 10 32  1  0
 10 33  1  0
 13 34  1  0
 14 35  1  0
 15 36  1  0
 16 37  1  0
 19 38  1  0
 20 39  1  0
 21 40  1  0
 22 41  1  0
 23 42  1  0
M  END
>  <UniqueID>  (1) 
1

>  <SMILES>  (1) 
COC[C@@H](NC(=O)c1c(C)oc2ccccc12)c1ccccc1

>  <Energy>  (1) 
80.05824261847609

>  <Genealogy>  (1) 
COC[C@@H](NC(=O)c1c(C)oc2ccccc12)c1ccccc1 (chirality)
COC[C@@H](NC(=O)c1c(C)oc2ccccc12)c1ccccc1 (3D coordinates assigned)
COC[C@@H](NC(=O)c1c(C)oc2ccccc12)c1ccccc1 (optimized conformer: 80.05824261847609 kcal/mol)

>  <smiles>  (1) 
COCC(NC(=O)c1c(C)oc2ccccc12)c1ccccc1

>  <score_type>  (1) 
oracle

>  <origin>  (1) 
adg

>  <m_score__min__energy>  (1) 
-8

>  <m_primary>  (1) 
energy

$$$$
1:0
     RDKit          3D

 45 48  0  0  0  0  0  0  0  0999 V2000
   58.9410   30.0790   43.2750 H   0  0  0  0  0  0  0  0  0  0  0  0
   59.0070   29.5280   44.1590 N   0  0  0  0  0  0  0  0  0  0  0  0
   58.0280   28.8140   44.6150 C   0  0  0  0  0  0  0  0  0  0  0  0
   58.1500   27.5280   45.0880 C   0  0  0  0  0  0  0  0  0  0  0  0
   59.0563   26.9069   45.1419 H   0  0  0  0  0  0  0  0  0  0  0  0
   56.8580   27.1980   45.4820 C   0  0  0  0  0  0  0  0  0  0  0  0
   56.4100   25.9180   46.0840 C   0  0  0  0  0  0  0  0  0  0  0  0
   57.1320   25.3570   47.1550 C   0  0  0  0  0  0  0  0  0  0  0  0
   58.0242   25.8720   47.5406 H   0  0  0  0  0  0  0  0  0  0  0  0
   56.7240   24.1510   47.7320 C   0  0  0  0  0  0  0  0  0  0  0  0
   57.2964   23.7201   48.5667 H   0  0  0  0  0  0  0  0  0  0  0  0
   55.5900   23.4920   47.2500 C   0  0  0  0  0  0  0  0  0  0  0  0
   55.2695   22.5432   47.7051 H   0  0  0  0  0  0  0  0  0  0  0  0
   54.8640   24.0390   46.1900 C   0  0  0  0  0  0  0  0  0  0  0  0
   53.9710   23.5202   45.8112 H   0  0  0  0  0  0  0  0  0  0  0  0
   55.2690   25.2440   45.6090 C   0  0  0  0  0  0  0  0  0  0  0  0
   54.6919   25.6688   44.7744 H   0  0  0  0  0  0  0  0  0  0  0  0
   56.0300   28.2430   45.2480 N   0  0  0  0  0  0  0  0  0  0  0  0
   56.7440   29.2190   44.7100 N   0  0  0  0  0  0  0  0  0  0  0  0
   56.1850   30.5300   44.3850 C   0  0  0  0  0  0  0  0  0  0  0  0
   55.9767   30.5798   43.3061 H   0  0  0  0  0  0  0  0  0  0  0  0
   55.2538   30.6760   44.9520 H   0  0  0  0  0  0  0  0  0  0  0  0
   57.1570   31.6060   44.7520 C   0  0  0  0  0  0  0  0  0  0  0  0
   57.8320   31.8300   46.2760 S   0  0  0  0  0  0  0  0  0  0  0  0
   58.6950   33.2120   45.8640 C   0  0  0  0  0  0  0  0  0  0  0  0
   59.7380   34.1140   46.9480 S   0  0  0  0  0  0  0  0  0  0  0  0
   60.6820   34.9430   46.1220 O   0  0  0  0  0  0  0  0  0  0  0  0
   58.9010   35.0280   47.8000 O   0  0  0  0  0  0  0  0  0  0  0  0
   60.6420   33.0050   47.9550 N   0  0  0  0  0  0  0  0  0  0  0  0
   61.4960   33.7410   48.8940 C   0  0  0  0  0  0  0  0  0  0  0  0
   61.0655   34.7343   49.0891 H   0  0  0  0  0  0  0  0  0  0  0  0
   61.5702   33.1970   49.8472 H   0  0  0  0  0  0  0  0  0  0  0  0
   62.8740   33.8910   48.2650 C   0  0  0  0  0  0  0  0  0  0  0  0
   63.0164   34.9164   47.8932 H   0  0  0  0  0  0  0  0  0  0  0  0
   63.6759   33.6974   48.9927 H   0  0  0  0  0  0  0  0  0  0  0  0
   62.9100   32.9030   47.1170 C   0  0  0  0  0  0  0  0  0  0  0  0
   63.0546   33.4292   46.1619 H   0  0  0  0  0  0  0  0  0  0  0  0
   63.7408   32.1894   47.2200 H   0  0  0  0  0  0  0  0  0  0  0  0
   61.5600   32.2020   47.1380 C   0  0  0  0  0  0  0  0  0  0  0  0
   61.1688   32.1154   46.1136 H   0  0  0  0  0  0  0  0  0  0  0  0
   61.6618   31.1915   47.5606 H   0  0  0  0  0  0  0  0  0  0  0  0
   58.4630   33.5220   44.5320 C   0  0  0  0  0  0  0  0  0  0  0  0
   58.9158   34.3843   44.0207 H   0  0  0  0  0  0  0  0  0  0  0  0
   57.5920   32.6220   43.9070 C   0  0  0  0  0  0  0  0  0  0  0  0
   57.2829   32.7092   42.8549 H   0  0  0  0  0  0  0  0  0  0  0  0
  1  2  1  0
  2  3  2  0
  3  4  1  0
  4  5  1  0
  4  6  2  0
  6  7  1  0
  7  8  2  0
  8  9  1  0
  8 10  1  0
 10 11  1  0
 10 12  2  0
 12 13  1  0
 12 14  1  0
 14 15  1  0
 14 16  2  0
 16 17  1  0
  6 18  1  0
 18 19  1  0
 19 20  1  0
 20 21  1  0
 20 22  1  0
 20 23  1  0
 23 24  1  0
 24 25  1  0
 25 26  1  0
 26 27  2  0
 26 28  2  0
 26 29  1  0
 29 30  1  0
 30 31  1  0
 30 32  1  0
 30 33  1  0
 33 34  1  0
 33 35  1  0
 33 36  1  0
 36 37  1  0
 36 38  1  0
 36 39  1  0
 39 40  1  0
 39 41  1  0
 25 42  2  0
 42 43  1  0
 42 44  1  0
 44 45  1  0
 19  3  1  0
 44 23  2  0
 16  7  1  0
 39 29  1  0
M  CHG  1  18  -1
M  END
>  <UniqueID>  (2) 
2

>  <SMILES>  (2) 
[H]/N=c1/cc(-c2ccccc2)[n-]n1Cc1ccc(S(=O)(=O)N2CCCC2)s1

>  <Energy>  (2) 
106.38242768478369

>  <Genealogy>  (2) 
N=c1cc(-c2ccccc2)[n-]n1Cc1ccc(S(=O)(=O)N2CCCC2)s1 (protonated)
[H]/N=c1/cc(-c2ccccc2)[n-]n1Cc1ccc(S(=O)(=O)N2CCCC2)s1 (cis-trans isomerization)
[H]/N=c1/cc(-c2ccccc2)[n-]n1Cc1ccc(S(=O)(=O)N2CCCC2)s1 (3D coordinates assigned)
[H]/N=c1/cc(-c2ccccc2)[n-]n1Cc1ccc(S(=O)(=O)N2CCCC2)s1 (nonaromatic ring conformer: 106.38242768478369 kcal/mol)

>  <smiles>  (2) 
N=c1cc(-c2ccccc2)[nH]n1Cc1ccc(S(=O)(=O)N2CCCC2)s1

>  <score_type>  (2) 
oracle

>  <origin>  (2) 
adg

>  <m_score__min__energy>  (2) 
-9.8399999999999999

>  <m_primary>  (2) 
energy

$$$$
2:0
     RDKit          3D

 40 43  0  0  0  0  0  0  0  0999 V2000
   59.6071   29.0522   48.3828 H   0  0  0  0  0  0  0  0  0  0  0  0
   60.2910   29.8530   48.0650 C   0  0  0  0  0  0  0  0  0  0  0  0
   61.3010   30.2550   48.8940 N   0  0  0  0  0  0  0  0  0  0  0  0
   62.1250   31.2420   48.4700 C   0  0  0  0  0  0  0  0  0  0  0  0
   61.9680   31.8320   47.2600 C   0  0  0  0  0  0  0  0  0  0  0  0
   60.9810   31.4650   46.4090 N   0  0  0  0  0  0  0  0  0  0  0  0
   60.1210   30.4680   46.7900 C   0  0  0  0  0  0  0  0  0  0  0  0
   59.0310   30.0460   45.8720 C   0  0  0  0  0  0  0  0  0  0  0  0
   59.1710   28.8770   45.1020 C   0  0  0  0  0  0  0  0  0  0  0  0
   60.0841   28.2702   45.1914 H   0  0  0  0  0  0  0  0  0  0  0  0
   58.1600   28.4820   44.2260 C   0  0  0  0  0  0  0  0  0  0  0  0
   58.2716   27.5672   43.6255 H   0  0  0  0  0  0  0  0  0  0  0  0
   57.0080   29.2570   44.1190 C   0  0  0  0  0  0  0  0  0  0  0  0
   56.2044   28.9559   43.4309 H   0  0  0  0  0  0  0  0  0  0  0  0
   56.8770   30.3840   44.8640 N   0  0  0  0  0  0  0  0  0  0  0  0
   57.8450   30.8050   45.7270 C   0  0  0  0  0  0  0  0  0  0  0  0
   57.6620   31.8780   46.4420 N   0  0  0  0  0  0  0  0  0  0  0  0
   58.3970   33.1010   46.2800 C   0  0  0  0  0  0  0  0  0  0  0  0
   58.5330   33.7040   45.0060 C   0  0  0  0  0  0  0  0  0  0  0  0
   57.9190   33.0890   43.7760 C   0  0  0  0  0  0  0  0  0  0  0  0
   57.1711   32.3399   44.0750 H   0  0  0  0  0  0  0  0  0  0  0  0
   57.4331   33.8735   43.1773 H   0  0  0  0  0  0  0  0  0  0  0  0
   58.7043   32.6044   43.1773 H   0  0  0  0  0  0  0  0  0  0  0  0
   59.2310   34.9150   44.8880 C   0  0  0  0  0  0  0  0  0  0  0  0
   59.3095   35.4067   43.9071 H   0  0  0  0  0  0  0  0  0  0  0  0
   59.8260   35.5000   46.0050 C   0  0  0  0  0  0  0  0  0  0  0  0
   60.3707   36.4500   45.9014 H   0  0  0  0  0  0  0  0  0  0  0  0
   59.7330   34.8850   47.2530 C   0  0  0  0  0  0  0  0  0  0  0  0
   60.2135   35.3478   48.1276 H   0  0  0  0  0  0  0  0  0  0  0  0
   59.0300   33.6790   47.4000 C   0  0  0  0  0  0  0  0  0  0  0  0
   58.9160   33.0370   48.7560 C   0  0  0  0  0  0  0  0  0  0  0  0
   59.0516   33.8008   49.5359 H   0  0  0  0  0  0  0  0  0  0  0  0
   57.9222   32.5774   48.8617 H   0  0  0  0  0  0  0  0  0  0  0  0
   59.6908   32.2634   48.8617 H   0  0  0  0  0  0  0  0  0  0  0  0
   62.9420   32.7900   47.1200 C   0  0  0  0  0  0  0  0  0  0  0  0
   63.1120   33.4596   46.2640 H   0  0  0  0  0  0  0  0  0  0  0  0
   63.6680   32.7210   48.3120 C   0  0  0  0  0  0  0  0  0  0  0  0
   64.5352   33.3543   48.5505 H   0  0  0  0  0  0  0  0  0  0  0  0
   63.1620   31.7700   49.1360 N   0  0  0  0  0  0  0  0  0  0  0  0
   63.5060   31.5070   50.0860 H   0  0  0  0  0  0  0  0  0  0  0  0
  1  2  1  0
  2  3  2  0
  3  4  1  0
  4  5  2  0
  5  6  1  0
  6  7  2  0
  7  8  1  0
  8  9  2  0
  9 10  1  0
  9 11  1  0
 11 12  1  0
 11 13  2  0
 13 14  1  0
 13 15  1  0
 15 16  1  0
 16 17  2  0
 17 18  1  0
 18 19  2  0
 19 20  1  0
 20 21  1  0
 20 22  1  0
 20 23  1  0
 19 24  1  0
 24 25  1  0
 24 26  2  0
 26 27  1  0
 26 28  1  0
 28 29  1  0
 28 30  2  0
 30 31  1  0
 31 32  1  0
 31 33  1  0
 31 34  1  0
  5 35  1  0
 35 36  1  0
 35 37  2  0
 37 38  1  0
 37 39  1  0
 39 40  1  0
  7  2  1  0
 16  8  1  0
 30 18  1  0
 39  4  1  0
M  CHG  1  15  -1
M  END
>  <UniqueID>  (3) 
3

>  <SMILES>  (3) 
Cc1cccc(C)c1/N=c1\[n-]cccc1-c1cnc2[nH]ccc2n1

>  <Energy>  (3) 
96.49071157836413

>  <Genealogy>  (3) 
Cc1cccc(C)c1N=c1[n-]cccc1-c1cnc2[nH]ccc2n1 (protonated)
Cc1cccc(C)c1/N=c1\[n-]cccc1-c1cnc2[nH]ccc2n1 (cis-trans isomerization)
Cc1cccc(C)c1/N=c1\[n-]cccc1-c1cnc2[nH]ccc2n1 (3D coordinates assigned)
Cc1cccc(C)c1/N=c1\[n-]cccc1-c1cnc2[nH]ccc2n1 (optimized conformer: 96.49071157836413 kcal/mol)

>  <smiles>  (3) 
Cc1cccc(C)c1N=c1[nH]cccc1-c1cnc2[nH]ccc2n1

>  <score_type>  (3) 
oracle

>  <origin>  (3) 
adg

>  <m_score__min__energy>  (3) 
-9.0099999999999998

>  <m_primary>  (3) 
energy

$$$$
3:0
     RDKit          3D

 46 49  0  0  0  0  0  0  0  0999 V2000
   59.9890   34.9650   48.1740 C   0  0  0  0  0  0  0  0  0  0  0  0
   59.9750   35.6700   46.9390 O   0  0  0  0  0  0  0  0  0  0  0  0
   59.5350   35.0910   45.7440 C   0  0  0  0  0  0  0  0  0  0  0  0
   59.5650   35.7570   44.6720 O   0  0  0  0  0  0  0  0  0  0  0  0
   59.0370   33.6970   45.7390 C   0  0  0  0  0  0  0  0  0  0  0  0
   57.7840   33.3940   45.1840 C   0  0  0  0  0  0  0  0  0  0  0  0
   57.3090   32.0800   45.1760 C   0  0  0  0  0  0  0  0  0  0  0  0
   58.0790   31.0360   45.7200 C   0  0  0  0  0  0  0  0  0  0  0  0
   57.5840   29.6360   45.7220 C   0  0  0  0  0  0  0  0  0  0  0  0
   56.3680   29.3760   45.3210 N   0  0  0  0  0  0  0  0  0  0  0  0
   55.8950   28.0700   45.2730 O   0  0  0  0  0  0  0  0  0  0  0  0
   56.7540   26.9640   45.5910 C   0  0  1  0  0  0  0  0  0  0  0  0
   55.9650   25.7030   45.8870 C   0  0  0  0  0  0  0  0  0  0  0  0
   54.7060   25.7550   45.9010 O   0  0  0  0  0  0  0  0  0  0  0  0
   56.6000   24.4300   46.0660 N   0  0  0  0  0  0  0  0  0  0  0  0
   56.8280   23.4500   45.0460 C   0  0  0  0  0  0  0  0  0  0  0  0
   56.0210   23.3900   43.8960 C   0  0  0  0  0  0  0  0  0  0  0  0
   56.2770   22.4350   42.9080 C   0  0  0  0  0  0  0  0  0  0  0  0
   57.3470   21.5480   43.0510 C   0  0  0  0  0  0  0  0  0  0  0  0
   58.1700   21.6230   44.1780 C   0  0  0  0  0  0  0  0  0  0  0  0
   57.9160   22.5770   45.1690 C   0  0  0  0  0  0  0  0  0  0  0  0
   57.7860   26.7890   44.4630 C   0  0  0  0  0  0  0  0  0  0  0  0
   58.9330   27.7490   44.8190 C   0  0  0  0  0  0  0  0  0  0  0  0
   58.4760   28.4590   46.0980 C   0  0  2  0  0  0  0  0  0  0  0  0
   57.6100   27.4050   46.7730 C   0  0  0  0  0  0  0  0  0  0  0  0
   59.3300   31.3440   46.2840 C   0  0  0  0  0  0  0  0  0  0  0  0
   59.8050   32.6580   46.2910 C   0  0  0  0  0  0  0  0  0  0  0  0
   59.9747   35.6837   49.0066 H   0  0  0  0  0  0  0  0  0  0  0  0
   59.1036   34.3152   48.2353 H   0  0  0  0  0  0  0  0  0  0  0  0
   60.8995   34.3508   48.2353 H   0  0  0  0  0  0  0  0  0  0  0  0
   57.1705   34.1981   44.7515 H   0  0  0  0  0  0  0  0  0  0  0  0
   56.3234   31.8598   44.7401 H   0  0  0  0  0  0  0  0  0  0  0  0
   55.1865   24.0961   43.7737 H   0  0  0  0  0  0  0  0  0  0  0  0
   55.6350   22.3817   42.0164 H   0  0  0  0  0  0  0  0  0  0  0  0
   57.5415   20.7910   42.2769 H   0  0  0  0  0  0  0  0  0  0  0  0
   59.0184   20.9311   44.2859 H   0  0  0  0  0  0  0  0  0  0  0  0
   58.5736   22.6417   46.0485 H   0  0  0  0  0  0  0  0  0  0  0  0
   58.1478   25.7508   44.4279 H   0  0  0  0  0  0  0  0  0  0  0  0
   57.3572   27.0072   43.4738 H   0  0  0  0  0  0  0  0  0  0  0  0
   59.8630   27.1898   44.9988 H   0  0  0  0  0  0  0  0  0  0  0  0
   59.1438   28.4592   44.0059 H   0  0  0  0  0  0  0  0  0  0  0  0
   59.3062   28.8308   46.7165 H   0  0  0  0  0  0  0  0  0  0  0  0
   58.2132   26.5758   47.1713 H   0  0  0  0  0  0  0  0  0  0  0  0
   57.0437   27.7621   47.6458 H   0  0  0  0  0  0  0  0  0  0  0  0
   59.9409   30.5421   46.7242 H   0  0  0  0  0  0  0  0  0  0  0  0
   60.7878   32.8807   46.7321 H   0  0  0  0  0  0  0  0  0  0  0  0
  1  2  1  0
  2  3  1  0
  3  4  2  0
  3  5  1  0
  5  6  2  0
  6  7  1  0
  7  8  2  0
  8  9  1  0
  9 10  2  0
 10 11  1  0
 11 12  1  0
 12 13  1  1
 13 14  2  0
 13 15  1  0
 15 16  1  0
 16 17  2  0
 17 18  1  0
 18 19  2  0
 19 20  1  0
 20 21  2  0
 12 22  1  0
 22 23  1  0
 23 24  1  0
 24 25  1  0
  8 26  1  0
 26 27  2  0
 27  5  1  0
 24  9  1  0
 25 12  1  0
 21 16  1  0
  1 28  1  0
  1 29  1  0
  1 30  1  0
  6 31  1  0
  7 32  1  0
 17 33  1  0
 18 34  1  0
 19 35  1  0
 20 36  1  0
 21 37  1  0
 22 38  1  0
 22 39  1  0
 23 40  1  0
 23 41  1  0
 24 42  1  1
 25 43  1  0
 25 44  1  0
 26 45  1  0
 27 46  1  0
M  CHG  1  15  -1
M  END
>  <UniqueID>  (4) 
4

>  <SMILES>  (4) 
COC(=O)c1ccc(C2=NO[C@@]3(C(=O)[N-]c4ccccc4)CC[C@@H]2C3)cc1

>  <Energy>  (4) 
68.27278181766577

>  <Genealogy>  (4) 
COC(=O)c1ccc(C2=NOC3(C(=O)[N-]c4ccccc4)CCC2C3)cc1 (protonated)
COC(=O)c1ccc(C2=NO[C@@]3(C(=O)[N-]c4ccccc4)CC[C@@H]2C3)cc1 (chirality)
COC(=O)c1ccc(C2=NO[C@@]3(C(=O)[N-]c4ccccc4)CC[C@@H]2C3)cc1 (3D coordinates assigned)
COC(=O)c1ccc(C2=NO[C@@]3(C(=O)[N-]c4ccccc4)CC[C@@H]2C3)cc1 (nonaromatic ring conformer: 68.27278181766577 kcal/mol)

>  <smiles>  (4) 
COC(=O)c1ccc(C2=NOC3(C(=O)Nc4ccccc4)CCC2C3)cc1

>  <score_type>  (4) 
oracle

>  <origin>  (4) 
adg

>  <m_score__min__energy>  (4) 
-10.65

>  <m_primary>  (4) 
energy

$$$$
4:0
     RDKit          3D

 39 42  0  0  0  0  0  0  0  0999 V2000
   55.8460   29.3080   45.2320 O   0  0  0  0  0  0  0  0  0  0  0  0
   57.0290   28.9730   45.5060 C   0  0  0  0  0  0  0  0  0  0  0  0
   57.4760   27.6160   45.8020 C   0  0  0  0  0  0  0  0  0  0  0  0
   56.7610   26.4230   45.8960 C   0  0  0  0  0  0  0  0  0  0  0  0
   57.4740   25.2490   46.1970 C   0  0  0  0  0  0  0  0  0  0  0  0
   58.8720   25.2890   46.3930 C   0  0  0  0  0  0  0  0  0  0  0  0
   59.5700   26.5060   46.2900 C   0  0  0  0  0  0  0  0  0  0  0  0
   58.8420   27.6560   45.9890 C   0  0  0  0  0  0  0  0  0  0  0  0
   59.2730   29.0380   45.8200 C   0  0  0  0  0  0  0  0  0  0  0  0
   60.4510   29.4580   45.9650 O   0  0  0  0  0  0  0  0  0  0  0  0
   58.1460   29.8700   45.5180 N   0  0  0  0  0  0  0  0  0  0  0  0
   58.1390   31.2860   45.2650 C   0  0  0  0  0  0  0  0  0  0  0  0
   57.7780   31.7800   44.0000 C   0  0  0  0  0  0  0  0  0  0  0  0
   57.7790   33.1550   43.7530 C   0  0  0  0  0  0  0  0  0  0  0  0
   58.1390   34.0500   44.7620 C   0  0  0  0  0  0  0  0  0  0  0  0
   58.4910   33.5750   46.0340 C   0  0  0  0  0  0  0  0  0  0  0  0
   58.9230   34.5350   47.1100 C   0  0  0  0  0  0  0  0  0  0  0  0
   60.3130   34.2000   47.5760 C   0  0  0  0  0  0  0  0  0  0  0  0
   61.3010   33.8260   46.6490 C   0  0  0  0  0  0  0  0  0  0  0  0
   62.5820   33.4780   47.0870 C   0  0  0  0  0  0  0  0  0  0  0  0
   62.8860   33.4920   48.4530 C   0  0  0  0  0  0  0  0  0  0  0  0
   64.4930   33.0540   48.9990 Cl  0  0  0  0  0  0  0  0  0  0  0  0
   61.9050   33.8520   49.3810 C   0  0  0  0  0  0  0  0  0  0  0  0
   60.6220   34.2010   48.9470 C   0  0  0  0  0  0  0  0  0  0  0  0
   58.4980   32.1910   46.2770 C   0  0  0  0  0  0  0  0  0  0  0  0
   55.6724   26.4007   45.7395 H   0  0  0  0  0  0  0  0  0  0  0  0
   56.9385   24.2918   46.2805 H   0  0  0  0  0  0  0  0  0  0  0  0
   59.4181   24.3634   46.6275 H   0  0  0  0  0  0  0  0  0  0  0  0
   60.6585   26.5489   46.4425 H   0  0  0  0  0  0  0  0  0  0  0  0
   57.4932   31.0805   43.2002 H   0  0  0  0  0  0  0  0  0  0  0  0
   57.4951   33.5337   42.7600 H   0  0  0  0  0  0  0  0  0  0  0  0
   58.1467   35.1311   44.5589 H   0  0  0  0  0  0  0  0  0  0  0  0
   58.9109   35.5594   46.7095 H   0  0  0  0  0  0  0  0  0  0  0  0
   58.2301   34.4567   47.9608 H   0  0  0  0  0  0  0  0  0  0  0  0
   61.0653   33.8071   45.5747 H   0  0  0  0  0  0  0  0  0  0  0  0
   63.3530   33.1924   46.3562 H   0  0  0  0  0  0  0  0  0  0  0  0
   62.1424   33.8609   50.4550 H   0  0  0  0  0  0  0  0  0  0  0  0
   59.8516   34.4774   49.6819 H   0  0  0  0  0  0  0  0  0  0  0  0
   58.7873   31.8131   47.2687 H   0  0  0  0  0  0  0  0  0  0  0  0
  1  2  2  0
  2  3  1  0
  3  4  2  0
  4  5  1  0
  5  6  2  0
  6  7  1  0
  7  8  2  0
  8  9  1  0
  9 10  2  0
  9 11  1  0
 11 12  1  0
 12 13  2  0
 13 14  1  0
 14 15  2  0
 15 16  1  0
 16 17  1  0
 17 18  1  0
 18 19  2  0
 19 20  1  0
 20 21  2  0
 21 22  1  0
 21 23  1  0
 23 24  2  0
 16 25  2  0
 11  2  1  0
 25 12  1  0
  8  3  1  0
 24 18  1  0
  4 26  1  0
  5 27  1  0
  6 28  1  0
  7 29  1  0
 13 30  1  0
 14 31  1  0
 15 32  1  0
 17 33  1  0
 17 34  1  0
 19 35  1  0
 20 36  1  0
 23 37  1  0
 24 38  1  0
 25 39  1  0
M  END
>  <UniqueID>  (5) 
5

>  <SMILES>  (5) 
O=C1c2ccccc2C(=O)N1c1cccc(Cc2ccc(Cl)cc2)c1

>  <Energy>  (5) 
79.02251333602172

>  <Genealogy>  (5) 
O=C1c2ccccc2C(=O)N1c1cccc(Cc2ccc(Cl)cc2)c1 (3D coordinates assigned)
O=C1c2ccccc2C(=O)N1c1cccc(Cc2ccc(Cl)cc2)c1 (nonaromatic ring conformer: 79.02251333602172 kcal/mol)

>  <smiles>  (5) 
O=C1c2ccccc2C(=O)N1c1cccc(Cc2ccc(Cl)cc2)c1

>  <score_type>  (5) 
oracle

>  <origin>  (5) 
adg

>  <m_score__min__energy>  (5) 
-9.3499999999999996

>  <m_primary>  (5) 
energy

$$$$
5:0
     RDKit          3D

 30 32  0  0  0  0  0  0  0  0999 V2000
   55.9270   29.1310   44.2010 O   0  0  0  0  0  0  0  0  0  0  0  0
   56.9450   29.3080   44.9250 C   0  0  0  0  0  0  0  0  0  0  0  0
   57.3610   30.5890   45.2500 C   0  0  0  0  0  0  0  0  0  0  0  0
   56.8140   31.7850   44.9620 N   0  0  0  0  0  0  0  0  0  0  0  0
   57.5940   32.6840   45.5650 N   0  0  0  0  0  0  0  0  0  0  0  0
   58.6020   32.0990   46.2090 N   0  0  0  0  0  0  0  0  0  0  0  0
   59.5970   32.8030   46.9760 C   0  0  0  0  0  0  0  0  0  0  0  0
   59.1970   33.7210   47.9630 C   0  0  0  0  0  0  0  0  0  0  0  0
   60.1500   34.4170   48.7120 C   0  0  0  0  0  0  0  0  0  0  0  0
   61.5120   34.2120   48.4790 C   0  0  0  0  0  0  0  0  0  0  0  0
   61.9230   33.3130   47.4910 C   0  0  0  0  0  0  0  0  0  0  0  0
   63.6330   33.0700   47.1850 Cl  0  0  0  0  0  0  0  0  0  0  0  0
   60.9720   32.6140   46.7390 C   0  0  0  0  0  0  0  0  0  0  0  0
   58.4520   30.7790   46.0130 C   0  0  0  0  0  0  0  0  0  0  0  0
   59.1770   29.7540   46.5160 N   0  0  0  0  0  0  0  0  0  0  0  0
   58.7880   28.4800   46.2030 C   0  0  0  0  0  0  0  0  0  0  0  0
   57.6750   28.2480   45.4170 N   0  0  0  0  0  0  0  0  0  0  0  0
   57.3120   26.8620   45.0840 C   0  0  0  0  0  0  0  0  0  0  0  0
   56.4330   26.2640   46.1800 C   0  0  0  0  0  0  0  0  0  0  0  0
   55.1110   26.6890   46.0050 O   0  0  0  0  0  0  0  0  0  0  0  0
   58.1262   33.8927   48.1471 H   0  0  0  0  0  0  0  0  0  0  0  0
   59.8267   35.1278   49.4867 H   0  0  0  0  0  0  0  0  0  0  0  0
   62.2603   34.7576   49.0726 H   0  0  0  0  0  0  0  0  0  0  0  0
   61.3007   31.9126   45.9580 H   0  0  0  0  0  0  0  0  0  0  0  0
   59.3700   27.6273   46.5828 H   0  0  0  0  0  0  0  0  0  0  0  0
   56.7619   26.8503   44.1315 H   0  0  0  0  0  0  0  0  0  0  0  0
   58.2308   26.2635   44.9973 H   0  0  0  0  0  0  0  0  0  0  0  0
   56.4751   25.1662   46.1249 H   0  0  0  0  0  0  0  0  0  0  0  0
   56.7970   26.5973   47.1631 H   0  0  0  0  0  0  0  0  0  0  0  0
   55.1500   27.4620   45.3840 H   0  0  0  0  0  0  0  0  0  0  0  0
  1  2  2  0
  2  3  1  0
  3  4  1  0
  4  5  2  0
  5  6  1  0
  6  7  1  0
  7  8  2  0
  8  9  1  0
  9 10  2  0
 10 11  1  0
 11 12  1  0
 11 13  2  0
  6 14  1  0
 14 15  1  0
 15 16  2  0
 16 17  1  0
 17 18  1  0
 18 19  1  0
 19 20  1  0
 17  2  1  0
 14  3  2  0
 13  7  1  0
  8 21  1  0
  9 22  1  0
 10 23  1  0
 13 24  1  0
 16 25  1  0
 18 26  1  0
 18 27  1  0
 19 28  1  0
 19 29  1  0
 20 30  1  0
M  END
>  <UniqueID>  (6) 
6

>  <SMILES>  (6) 
O=c1c2nnn(-c3cccc(Cl)c3)c2ncn1CCO

>  <Energy>  (6) 
83.40145709941449

>  <Genealogy>  (6) 
O=c1c2nnn(-c3cccc(Cl)c3)c2ncn1CCO (3D coordinates assigned)
O=c1c2nnn(-c3cccc(Cl)c3)c2ncn1CCO (optimized conformer: 83.40145709941449 kcal/mol)

>  <smiles>  (6) 
O=c1c2nnn(-c3cccc(Cl)c3)c2ncn1CCO

>  <score_type>  (6) 
oracle

>  <origin>  (6) 
adg

>  <m_score__min__energy>  (6) 
-8.1500000000000004

>  <m_primary>  (6) 
energy

$$$$
6:0
     RDKit          3D

 58 62  0  0  0  0  0  0  0  0999 V2000
   57.3810   25.5530   44.3510 C   0  0  0  0  0  0  0  0  0  0  0  0
   58.0450   26.0900   43.3220 C   0  0  0  0  0  0  0  0  0  0  0  0
   57.7730   27.4950   42.8610 C   0  0  0  0  0  0  0  0  0  0  0  0
   58.2400   28.4850   43.8590 N   0  0  0  0  0  0  0  0  0  0  0  0
   59.6410   28.1880   44.2340 C   0  0  0  0  0  0  0  0  0  0  0  0
   60.1990   29.1360   45.3090 C   0  0  0  0  0  0  0  0  0  0  0  0
   59.1440   29.6120   46.3560 C   0  0  2  0  0  0  0  0  0  0  0  0
   59.7780   29.7040   47.7900 C   0  0  0  0  0  0  0  0  0  0  0  0
   59.6200   28.4400   48.6640 C   0  0  0  0  0  0  0  0  0  0  0  0
   59.4900   27.1590   47.8400 C   0  0  0  0  0  0  0  0  0  0  0  0
   58.2550   27.2050   46.9280 C   0  0  0  0  0  0  0  0  0  0  0  0
   57.9420   28.6320   46.3950 C   0  0  2  0  0  0  0  0  0  0  0  0
   57.2770   28.6270   45.0000 C   0  0  1  0  0  0  0  0  0  0  0  0
   56.5440   29.9710   44.8500 C   0  0  0  0  0  0  0  0  0  0  0  0
   57.4480   31.1470   45.1480 C   0  0  0  0  0  0  0  0  0  0  0  0
   57.0460   32.4200   44.7160 C   0  0  0  0  0  0  0  0  0  0  0  0
   57.8350   33.5390   44.9720 C   0  0  0  0  0  0  0  0  0  0  0  0
   59.0500   33.4100   45.6600 C   0  0  0  0  0  0  0  0  0  0  0  0
   59.8660   34.5690   45.9300 N   0  0  0  0  0  0  0  0  0  0  0  0
   60.9220   34.2190   46.8480 C   0  0  0  0  0  0  0  0  0  0  0  0
   62.1870   33.8390   46.3610 C   0  0  0  0  0  0  0  0  0  0  0  0
   63.2040   33.4660   47.2440 C   0  0  0  0  0  0  0  0  0  0  0  0
   62.9690   33.4640   48.6210 C   0  0  0  0  0  0  0  0  0  0  0  0
   61.7170   33.8340   49.1180 C   0  0  0  0  0  0  0  0  0  0  0  0
   60.6930   34.2080   48.2390 C   0  0  0  0  0  0  0  0  0  0  0  0
   59.4840   34.5600   48.7450 F   0  0  0  0  0  0  0  0  0  0  0  0
   59.4490   32.1430   46.1110 C   0  0  0  0  0  0  0  0  0  0  0  0
   58.6440   31.0010   45.9040 C   0  0  0  0  0  0  0  0  0  0  0  0
   57.5989   24.5226   44.6686 H   0  0  0  0  0  0  0  0  0  0  0  0
   56.6169   26.1416   44.8799 H   0  0  0  0  0  0  0  0  0  0  0  0
   58.8067   25.4909   42.8016 H   0  0  0  0  0  0  0  0  0  0  0  0
   58.2980   27.6688   41.9101 H   0  0  0  0  0  0  0  0  0  0  0  0
   56.6873   27.6156   42.7317 H   0  0  0  0  0  0  0  0  0  0  0  0
   59.6884   27.1584   44.6183 H   0  0  0  0  0  0  0  0  0  0  0  0
   60.2547   28.3232   43.3312 H   0  0  0  0  0  0  0  0  0  0  0  0
   61.0046   28.6128   45.8451 H   0  0  0  0  0  0  0  0  0  0  0  0
   60.5496   30.0365   44.7835 H   0  0  0  0  0  0  0  0  0  0  0  0
   60.8533   29.9047   47.6739 H   0  0  0  0  0  0  0  0  0  0  0  0
   59.2341   30.5049   48.3123 H   0  0  0  0  0  0  0  0  0  0  0  0
   60.5024   28.3507   49.3146 H   0  0  0  0  0  0  0  0  0  0  0  0
   58.6928   28.5542   49.2448 H   0  0  0  0  0  0  0  0  0  0  0  0
   60.3899   27.0397   47.2188 H   0  0  0  0  0  0  0  0  0  0  0  0
   59.3794   26.3109   48.5318 H   0  0  0  0  0  0  0  0  0  0  0  0
   58.4297   26.5410   46.0686 H   0  0  0  0  0  0  0  0  0  0  0  0
   57.3918   26.8831   47.5290 H   0  0  0  0  0  0  0  0  0  0  0  0
   57.2363   29.0059   47.1515 H   0  0  0  0  0  0  0  0  0  0  0  0
   56.6111   27.7528   44.9504 H   0  0  0  0  0  0  0  0  0  0  0  0
   56.1740   30.0603   43.8179 H   0  0  0  0  0  0  0  0  0  0  0  0
   55.7153   29.9882   45.5732 H   0  0  0  0  0  0  0  0  0  0  0  0
   56.0983   32.5355   44.1697 H   0  0  0  0  0  0  0  0  0  0  0  0
   57.5026   34.5309   44.6320 H   0  0  0  0  0  0  0  0  0  0  0  0
   59.2840   35.3450   46.3250 H   0  0  0  0  0  0  0  0  0  0  0  0
   60.2700   34.9300   45.0340 H   0  0  0  0  0  0  0  0  0  0  0  0
   62.3764   33.8356   45.2774 H   0  0  0  0  0  0  0  0  0  0  0  0
   64.1903   33.1738   46.8544 H   0  0  0  0  0  0  0  0  0  0  0  0
   63.7707   33.1708   49.3147 H   0  0  0  0  0  0  0  0  0  0  0  0
   61.5350   33.8316   50.2028 H   0  0  0  0  0  0  0  0  0  0  0  0
   60.4092   32.0366   46.6370 H   0  0  0  0  0  0  0  0  0  0  0  0
  1  2  2  0
  2  3  1  0
  3  4  1  0
  4  5  1  0
  5  6  1  0
  7  6  1  6
  7  8  1  0
  8  9  1  0
  9 10  1  0
 10 11  1  0
 11 12  1  0
 12 13  1  0
 13 14  1  0
 14 15  1  0
 15 16  2  0
 16 17  1  0
 17 18  2  0
 18 19  1  0
 19 20  1  0
 20 21  2  0
 21 22  1  0
 22 23  2  0
 23 24  1  0
 24 25  2  0
 25 26  1  0
 18 27  1  0
 27 28  2  0
 13  4  1  0
 28 15  1  0
 12  7  1  0
 25 20  1  0
 28  7  1  0
  1 29  1  0
  1 30  1  0
  2 31  1  0
  3 32  1  0
  3 33  1  0
  5 34  1  0
  5 35  1  0
  6 36  1  0
  6 37  1  0
  8 38  1  0
  8 39  1  0
  9 40  1  0
  9 41  1  0
 10 42  1  0
 10 43  1  0
 11 44  1  0
 11 45  1  0
 12 46  1  1
 13 47  1  1
 14 48  1  0
 14 49  1  0
 16 50  1  0
 17 51  1  0
 19 52  1  0
 19 53  1  0
 21 54  1  0
 22 55  1  0
 23 56  1  0
 24 57  1  0
 27 58  1  0
M  CHG  1  19   1
M  END
>  <UniqueID>  (7) 
7

>  <SMILES>  (7) 
C=CCN1CC[C@]23CCCC[C@@H]2C1Cc1ccc([NH2+]c2ccccc2F)cc13

>  <Energy>  (7) 
88.89593942360806

>  <Genealogy>  (7) 
C=CCN1CCC23CCCCC2C1Cc1ccc([NH2+]c2ccccc2F)cc13 (protonated)
C=CCN1CC[C@]23CCCC[C@@H]2C1Cc1ccc([NH2+]c2ccccc2F)cc13 (chirality)
C=CCN1CC[C@]23CCCC[C@@H]2C1Cc1ccc([NH2+]c2ccccc2F)cc13 (3D coordinates assigned)
C=CCN1CC[C@]23CCCC[C@@H]2C1Cc1ccc([NH2+]c2ccccc2F)cc13 (nonaromatic ring conformer: 88.89593942360806 kcal/mol)

>  <smiles>  (7) 
C=CCN1CCC23CCCCC2C1Cc1ccc(Nc2ccccc2F)cc13

>  <score_type>  (7) 
oracle

>  <origin>  (7) 
adg

>  <m_score__min__energy>  (7) 
-7.6699999999999999

>  <m_primary>  (7) 
energy

$$$$
7:0
     RDKit          3D

 44 46  0  0  0  0  0  0  0  0999 V2000
   57.4070   31.2590   42.9670 C   0  0  0  0  0  0  0  0  0  0  0  0
   56.5520   30.0020   43.0850 C   0  0  0  0  0  0  0  0  0  0  0  0
   55.5460   30.1210   44.2310 C   0  0  0  0  0  0  0  0  0  0  0  0
   55.6860   28.9780   45.1240 N   0  0  0  0  0  0  0  0  0  0  0  0
   56.9530   28.5340   45.6170 C   0  0  0  0  0  0  0  0  0  0  0  0
   57.1870   27.3030   45.7610 O   0  0  0  0  0  0  0  0  0  0  0  0
   58.0180   29.5350   45.9260 C   0  0  0  0  0  0  0  0  0  0  0  0
   59.3540   28.7580   46.8940 S   0  0  0  0  0  0  0  0  0  0  0  0
   59.0570   29.7380   48.3670 C   0  0  0  0  0  0  0  0  0  0  0  0
   58.4070   29.3160   49.4190 O   0  0  0  0  0  0  0  0  0  0  0  0
   58.4000   30.3070   50.2850 C   0  0  0  0  0  0  0  0  0  0  0  0
   57.7590   30.2250   51.6020 C   0  0  0  0  0  0  0  0  0  0  0  0
   58.2760   29.5750   52.7140 C   0  0  0  0  0  0  0  0  0  0  0  0
   57.4490   29.6660   53.8390 C   0  0  0  0  0  0  0  0  0  0  0  0
   56.2820   30.3870   53.6150 C   0  0  0  0  0  0  0  0  0  0  0  0
   56.2800   30.9090   52.0160 S   0  0  0  0  0  0  0  0  0  0  0  0
   59.0460   31.4060   49.8360 N   0  0  0  0  0  0  0  0  0  0  0  0
   59.4580   31.0320   48.6090 C   0  0  0  0  0  0  0  0  0  0  0  0
   60.4040   32.0520   47.5390 S   0  0  0  0  0  0  0  0  0  0  0  0
   61.2980   31.1990   46.6840 O   0  0  0  0  0  0  0  0  0  0  0  0
   61.2640   32.9740   48.3570 O   0  0  0  0  0  0  0  0  0  0  0  0
   59.3150   32.9690   46.5040 C   0  0  0  0  0  0  0  0  0  0  0  0
   59.8070   33.9860   45.6710 C   0  0  0  0  0  0  0  0  0  0  0  0
   58.9280   34.7290   44.8750 C   0  0  0  0  0  0  0  0  0  0  0  0
   57.5570   34.4640   44.9100 C   0  0  0  0  0  0  0  0  0  0  0  0
   57.0630   33.4530   45.7410 C   0  0  0  0  0  0  0  0  0  0  0  0
   57.9390   32.7080   46.5380 C   0  0  0  0  0  0  0  0  0  0  0  0
   57.6577   31.6276   43.9726 H   0  0  0  0  0  0  0  0  0  0  0  0
   58.3327   31.0230   42.4216 H   0  0  0  0  0  0  0  0  0  0  0  0
   56.8474   32.0332   42.4216 H   0  0  0  0  0  0  0  0  0  0  0  0
   56.0055   29.8504   42.1425 H   0  0  0  0  0  0  0  0  0  0  0  0
   57.2149   29.1488   43.2915 H   0  0  0  0  0  0  0  0  0  0  0  0
   55.7365   31.0486   44.7907 H   0  0  0  0  0  0  0  0  0  0  0  0
   54.5255   30.1418   43.8210 H   0  0  0  0  0  0  0  0  0  0  0  0
   58.4320   29.9267   44.9852 H   0  0  0  0  0  0  0  0  0  0  0  0
   57.5794   30.3545   46.5144 H   0  0  0  0  0  0  0  0  0  0  0  0
   59.2384   29.0423   52.7112 H   0  0  0  0  0  0  0  0  0  0  0  0
   57.6987   29.2103   54.8085 H   0  0  0  0  0  0  0  0  0  0  0  0
   55.4940   30.5829   54.3570 H   0  0  0  0  0  0  0  0  0  0  0  0
   60.8858   34.1994   45.6438 H   0  0  0  0  0  0  0  0  0  0  0  0
   59.3173   35.5229   44.2207 H   0  0  0  0  0  0  0  0  0  0  0  0
   56.8667   35.0495   44.2849 H   0  0  0  0  0  0  0  0  0  0  0  0
   55.9835   33.2432   45.7679 H   0  0  0  0  0  0  0  0  0  0  0  0
   57.5465   31.9158   47.1925 H   0  0  0  0  0  0  0  0  0  0  0  0
  1  2  1  0
  2  3  1  0
  3  4  1  0
  4  5  1  0
  5  6  2  0
  5  7  1  0
  7  8  1  0
  8  9  1  0
  9 10  1  0
 10 11  1  0
 11 12  1  0
 12 13  2  0
 13 14  1  0
 14 15  2  0
 15 16  1  0
 11 17  2  0
 17 18  1  0
 18 19  1  0
 19 20  2  0
 19 21  2  0
 19 22  1  0
 22 23  2  0
 23 24  1  0
 24 25  2  0
 25 26  1  0
 26 27  2  0
 18  9  2  0
 27 22  1  0
 16 12  1  0
  1 28  1  0
  1 29  1  0
  1 30  1  0
  2 31  1  0
  2 32  1  0
  3 33  1  0
  3 34  1  0
  7 35  1  0
  7 36  1  0
 13 37  1  0
 14 38  1  0
 15 39  1  0
 23 40  1  0
 24 41  1  0
 25 42  1  0
 26 43  1  0
 27 44  1  0
M  CHG  1   4  -1
M  END
>  <UniqueID>  (8) 
8

>  <SMILES>  (8) 
CCC[N-]C(=O)CSc1oc(-c2cccs2)nc1S(=O)(=O)c1ccccc1

>  <Energy>  (8) 
89.6909052498723

>  <Genealogy>  (8) 
CCC[N-]C(=O)CSc1oc(-c2cccs2)nc1S(=O)(=O)c1ccccc1 (protonated)
CCC[N-]C(=O)CSc1oc(-c2cccs2)nc1S(=O)(=O)c1ccccc1 (3D coordinates assigned)
CCC[N-]C(=O)CSc1oc(-c2cccs2)nc1S(=O)(=O)c1ccccc1 (optimized conformer: 89.6909052498723 kcal/mol)

>  <smiles>  (8) 
CCCNC(=O)CSc1oc(-c2cccs2)nc1S(=O)(=O)c1ccccc1

>  <score_type>  (8) 
oracle

>  <origin>  (8) 
adg

>  <m_score__min__energy>  (8) 
-9.9900000000000002

>  <m_primary>  (8) 
energy

$$$$
8:0
     RDKit          3D

 36 38  0  0  0  0  0  0  0  0999 V2000
   58.1630   32.7290   51.7300 C   0  0  0  0  0  0  0  0  0  0  0  0
   59.5930   33.8370   51.9200 S   0  0  0  0  0  0  0  0  0  0  0  0
   60.1560   33.5860   50.2360 C   0  0  0  0  0  0  0  0  0  0  0  0
   59.2650   33.0770   49.2690 C   0  0  0  0  0  0  0  0  0  0  0  0
   59.7180   32.8910   47.9490 C   0  0  0  0  0  0  0  0  0  0  0  0
   58.8370   32.3860   46.9220 N   0  0  0  0  0  0  0  0  0  0  0  0
   58.3650   33.2690   45.8490 C   0  0  0  0  0  0  0  0  0  0  0  0
   57.0250   32.7610   45.2980 C   0  0  0  0  0  0  0  0  0  0  0  0
   57.0640   31.3390   44.8640 N   0  0  0  0  0  0  0  0  0  0  0  0
   57.0310   31.2240   43.3990 C   0  0  0  0  0  0  0  0  0  0  0  0
   58.1920   30.5530   45.4140 C   0  0  0  0  0  0  0  0  0  0  0  0
   58.5150   30.9550   46.8560 C   0  0  0  0  0  0  0  0  0  0  0  0
   61.0150   33.2110   47.6820 N   0  0  0  0  0  0  0  0  0  0  0  0
   61.6610   33.0810   46.5360 N   0  0  0  0  0  0  0  0  0  0  0  0
   62.9320   33.4990   46.7530 C   0  0  0  0  0  0  0  0  0  0  0  0
   63.0910   33.8950   48.0770 C   0  0  0  0  0  0  0  0  0  0  0  0
   61.8450   33.6870   48.6170 C   0  0  0  0  0  0  0  0  0  0  0  0
   61.4450   33.8830   49.8970 N   0  0  0  0  0  0  0  0  0  0  0  0
   57.7891   32.4393   52.7231 H   0  0  0  0  0  0  0  0  0  0  0  0
   57.3675   33.2488   51.1760 H   0  0  0  0  0  0  0  0  0  0  0  0
   58.4677   31.8289   51.1760 H   0  0  0  0  0  0  0  0  0  0  0  0
   58.2290   32.8283   49.5425 H   0  0  0  0  0  0  0  0  0  0  0  0
   58.2327   34.2860   46.2467 H   0  0  0  0  0  0  0  0  0  0  0  0
   59.1076   33.2778   45.0375 H   0  0  0  0  0  0  0  0  0  0  0  0
   56.2632   32.8644   46.0847 H   0  0  0  0  0  0  0  0  0  0  0  0
   56.7904   33.3648   44.4090 H   0  0  0  0  0  0  0  0  0  0  0  0
   56.7377   30.2018   43.1180 H   0  0  0  0  0  0  0  0  0  0  0  0
   56.3020   31.9398   42.9913 H   0  0  0  0  0  0  0  0  0  0  0  0
   58.0286   31.4444   42.9913 H   0  0  0  0  0  0  0  0  0  0  0  0
   57.9262   29.4858   45.3928 H   0  0  0  0  0  0  0  0  0  0  0  0
   59.0804   30.7513   44.7964 H   0  0  0  0  0  0  0  0  0  0  0  0
   57.6437   30.7485   47.4949 H   0  0  0  0  0  0  0  0  0  0  0  0
   59.3819   30.3749   47.2054 H   0  0  0  0  0  0  0  0  0  0  0  0
   63.7248   33.5218   45.9908 H   0  0  0  0  0  0  0  0  0  0  0  0
   63.9947   34.2809   48.5714 H   0  0  0  0  0  0  0  0  0  0  0  0
   62.1120   34.2530   50.6110 H   0  0  0  0  0  0  0  0  0  0  0  0
  1  2  1  0
  2  3  1  0
  3  4  1  0
  4  5  2  0
  5  6  1  0
  6  7  1  0
  7  8  1  0
  8  9  1  0
  9 10  1  0
  9 11  1  0
 11 12  1  0
  5 13  1  0
 13 14  1  0
 14 15  2  0
 15 16  1  0
 16 17  2  0
 17 18  1  0
 18  3  2  0
 12  6  1  0
 17 13  1  0
  1 19  1  0
  1 20  1  0
  1 21  1  0
  4 22  1  0
  7 23  1  0
  7 24  1  0
  8 25  1  0
  8 26  1  0
 10 27  1  0
 10 28  1  0
 10 29  1  0
 11 30  1  0
 11 31  1  0
 12 32  1  0
 12 33  1  0
 15 34  1  0
 16 35  1  0
 18 36  1  0
M  CHG  1  18   1
M  END
>  <UniqueID>  (9) 
9

>  <SMILES>  (9) 
CSc1cc(N2CCN(C)CC2)n2nccc2[nH+]1

>  <Energy>  (9) 
78.1797830299133

>  <Genealogy>  (9) 
CSc1cc(N2CCN(C)CC2)n2nccc2[nH+]1 (protonated)
CSc1cc(N2CCN(C)CC2)n2nccc2[nH+]1 (3D coordinates assigned)
CSc1cc(N2CCN(C)CC2)n2nccc2[nH+]1 (nonaromatic ring conformer: 78.1797830299133 kcal/mol)

>  <smiles>  (9) 
CSc1cc(N2CCN(C)CC2)n2nccc2n1

>  <score_type>  (9) 
oracle

>  <origin>  (9) 
adg

>  <m_score__min__energy>  (9) 
-4.6799999999999997

>  <m_primary>  (9) 
energy

$$$$
9:0
     RDKit          3D

 34 37  0  0  0  0  0  0  0  0999 V2000
   60.0032   34.3489   50.1802 H   0  0  0  0  0  0  0  0  0  0  0  0
   59.6470   33.8590   49.2620 C   0  0  0  0  0  0  0  0  0  0  0  0
   59.2110   32.5320   49.3050 C   0  0  0  0  0  0  0  0  0  0  0  0
   59.2253   31.9809   50.2569 H   0  0  0  0  0  0  0  0  0  0  0  0
   58.7570   31.9030   48.1430 C   0  0  0  0  0  0  0  0  0  0  0  0
   58.4160   30.8579   48.1822 H   0  0  0  0  0  0  0  0  0  0  0  0
   58.7350   32.6020   46.9250 C   0  0  0  0  0  0  0  0  0  0  0  0
   58.2790   31.9810   45.7520 C   0  0  0  0  0  0  0  0  0  0  0  0
   57.9433   30.9339   45.7837 H   0  0  0  0  0  0  0  0  0  0  0  0
   58.2480   32.6870   44.5370 C   0  0  0  0  0  0  0  0  0  0  0  0
   57.7790   32.0170   43.3010 C   0  0  0  0  0  0  0  0  0  0  0  0
   58.3810   32.2400   42.2160 O   0  0  0  0  0  0  0  0  0  0  0  0
   56.6250   31.1630   43.2810 N   0  0  0  0  0  0  0  0  0  0  0  0
   56.4560   30.1050   44.0170 C   0  0  0  0  0  0  0  0  0  0  0  0
   55.2810   29.7190   44.5520 N   0  0  0  0  0  0  0  0  0  0  0  0
   55.5310   28.6440   45.2420 O   0  0  0  0  0  0  0  0  0  0  0  0
   56.8050   28.3240   45.1750 C   0  0  0  0  0  0  0  0  0  0  0  0
   57.4250   27.1560   45.8750 C   0  0  0  0  0  0  0  0  0  0  0  0
   56.5661   26.4775   45.7664 H   0  0  0  0  0  0  0  0  0  0  0  0
   58.3710   27.5290   47.0070 C   0  0  0  0  0  0  0  0  0  0  0  0
   58.4947   28.5833   47.2953 H   0  0  0  0  0  0  0  0  0  0  0  0
   58.4808   27.2281   48.0593 H   0  0  0  0  0  0  0  0  0  0  0  0
   58.9300   27.0330   45.6850 C   0  0  0  0  0  0  0  0  0  0  0  0
   59.4584   27.7282   45.0160 H   0  0  0  0  0  0  0  0  0  0  0  0
   59.6121   26.2243   45.3837 H   0  0  0  0  0  0  0  0  0  0  0  0
   57.4660   29.2500   44.3960 C   0  0  0  0  0  0  0  0  0  0  0  0
   58.5351   29.2944   44.1408 H   0  0  0  0  0  0  0  0  0  0  0  0
   58.7050   34.0160   44.5030 C   0  0  0  0  0  0  0  0  0  0  0  0
   58.7036   34.5684   43.5517 H   0  0  0  0  0  0  0  0  0  0  0  0
   59.1610   34.6420   45.6660 C   0  0  0  0  0  0  0  0  0  0  0  0
   59.5086   35.6849   45.6268 H   0  0  0  0  0  0  0  0  0  0  0  0
   59.1770   33.9460   46.8820 C   0  0  0  0  0  0  0  0  0  0  0  0
   59.6320   34.5660   48.0560 C   0  0  0  0  0  0  0  0  0  0  0  0
   59.9774   35.6100   48.0272 H   0  0  0  0  0  0  0  0  0  0  0  0
  1  2  1  0
  2  3  2  0
  3  4  1  0
  3  5  1  0
  5  6  1  0
  5  7  2  0
  7  8  1  0
  8  9  1  0
  8 10  2  0
 10 11  1  0
 11 12  2  0
 11 13  1  0
 13 14  2  0
 14 15  1  0
 15 16  1  0
 16 17  1  0
 17 18  1  0
 18 19  1  0
 18 20  1  0
 20 21  1  0
 20 22  1  0
 20 23  1  0
 23 24  1  0
 23 25  1  0
 17 26  2  0
 26 27  1  0
 10 28  1  0
 28 29  1  0
 28 30  2  0
 30 31  1  0
 30 32  1  0
 32 33  2  0
 33 34  1  0
 33  2  1  0
 32  7  1  0
 26 14  1  0
 23 18  1  0
M  CHG  1  15  -1
M  END
>  <UniqueID>  (10) 
10

>  <SMILES>  (10) 
O=C(/N=c1/cc(C2CC2)o[n-]1)c1ccc2ccccc2c1

>  <Energy>  (10) 
342.1681085797064

>  <Genealogy>  (10) 
O=C(N=c1cc(C2CC2)o[n-]1)c1ccc2ccccc2c1 (protonated)
O=C(/N=c1/cc(C2CC2)o[n-]1)c1ccc2ccccc2c1 (cis-trans isomerization)
O=C(/N=c1/cc(C2CC2)o[n-]1)c1ccc2ccccc2c1 (3D coordinates assigned)
O=C(/N=c1/cc(C2CC2)o[n-]1)c1ccc2ccccc2c1 (nonaromatic ring conformer: 342.1681085797064 kcal/mol)

>  <smiles>  (10) 
O=C(N=c1cc(C2CC2)o[nH]1)c1ccc2ccccc2c1

>  <score_type>  (10) 
oracle

>  <origin>  (10) 
adg

>  <m_score__min__energy>  (10) 
-10.81

>  <m_primary>  (10) 
energy

$$$$
10:0
     RDKit          3D

 64 68  0  0  1  0  0  0  0  0999 V2000
   57.0910   34.0960   45.1210 C   0  0  0  0  0  0  0  0  0  0  0  0
   58.5720   34.3600   44.8600 C   0  0  2  0  0  0  0  0  0  0  0  0
   59.0210   33.4540   43.8040 N   0  0  0  0  0  0  0  0  0  0  0  0
   58.2920   32.4760   43.3880 C   0  0  0  0  0  0  0  0  0  0  0  0
   57.7730   32.6020   42.1420 N   0  0  0  0  0  0  0  0  0  0  0  0
   57.0030   31.6190   41.6450 C   0  0  0  0  0  0  0  0  0  0  0  0
   56.7330   30.4980   42.3670 N   0  0  0  0  0  0  0  0  0  0  0  0
   57.2470   30.3690   43.6030 C   0  0  0  0  0  0  0  0  0  0  0  0
   56.9820   29.2400   44.3450 C   0  0  0  0  0  0  0  0  0  0  0  0
   57.5180   29.1170   45.6250 C   0  0  0  0  0  0  0  0  0  0  0  0
   58.3140   30.1050   46.1690 C   0  0  0  0  0  0  0  0  0  0  0  0
   58.8660   29.9690   47.4960 C   0  0  0  0  0  0  0  0  0  0  0  0
   59.3170   29.8720   48.6080 C   0  0  0  0  0  0  0  0  0  0  0  0
   59.8360   29.7510   49.9500 C   0  0  0  0  0  0  0  0  0  0  0  0
   61.2850   29.7950   49.9220 N   0  0  0  0  0  0  0  0  0  0  0  0
   61.9150   30.9460   50.4390 C   0  0  0  0  0  0  0  0  0  0  0  0
   61.1340   31.8470   50.8890 O   0  0  0  0  0  0  0  0  0  0  0  0
   63.3370   31.1790   50.5000 C   0  0  0  0  0  0  0  0  0  0  0  0
   63.8670   32.2470   49.7630 C   0  0  0  0  0  0  0  0  0  0  0  0
   65.1870   32.5040   49.7870 N   0  0  0  0  0  0  0  0  0  0  0  0
   66.0540   31.7670   50.5040 C   0  0  0  0  0  0  0  0  0  0  0  0
   65.5780   30.7340   51.2220 N   0  0  0  0  0  0  0  0  0  0  0  0
   66.5150   29.9420   51.9940 C   0  0  0  0  0  0  0  0  0  0  0  0
   66.8340   28.6400   51.4040 C   0  0  0  0  0  0  0  0  0  0  0  0
   67.8990   28.5970   50.4960 C   0  0  0  0  0  0  0  0  0  0  0  0
   68.2150   27.3710   49.9260 C   0  0  0  0  0  0  0  0  0  0  0  0
   67.5160   26.2140   50.2320 C   0  0  0  0  0  0  0  0  0  0  0  0
   66.5010   26.2980   51.1080 N   0  0  0  0  0  0  0  0  0  0  0  0
   66.1660   27.4640   51.6770 C   0  0  0  0  0  0  0  0  0  0  0  0
   64.2470   30.4510   51.2170 C   0  0  0  0  0  0  0  0  0  0  0  0
   63.8910   29.4760   51.9110 O   0  0  0  0  0  0  0  0  0  0  0  0
   58.5870   31.2530   45.4240 C   0  0  0  0  0  0  0  0  0  0  0  0
   58.0450   31.3530   44.1610 C   0  0  0  0  0  0  0  0  0  0  0  0
   59.3380   34.1490   46.1210 C   0  0  0  0  0  0  0  0  0  0  0  0
   58.7010   34.1430   47.3450 C   0  0  0  0  0  0  0  0  0  0  0  0
   59.3730   33.9520   48.5280 C   0  0  0  0  0  0  0  0  0  0  0  0
   60.7410   33.7590   48.4910 C   0  0  0  0  0  0  0  0  0  0  0  0
   61.3890   33.7630   47.2670 C   0  0  0  0  0  0  0  0  0  0  0  0
   60.7040   33.9550   46.0840 C   0  0  0  0  0  0  0  0  0  0  0  0
   56.9099   34.0637   46.2055 H   0  0  0  0  0  0  0  0  0  0  0  0
   56.4905   34.9013   44.6728 H   0  0  0  0  0  0  0  0  0  0  0  0
   56.8057   33.1328   44.6728 H   0  0  0  0  0  0  0  0  0  0  0  0
   58.7374   35.3971   44.5328 H   0  0  0  0  0  0  0  0  0  0  0  0
   56.5825   31.7229   40.6339 H   0  0  0  0  0  0  0  0  0  0  0  0
   56.1250   29.7720   41.9150 H   0  0  0  0  0  0  0  0  0  0  0  0
   56.3511   28.4402   43.9299 H   0  0  0  0  0  0  0  0  0  0  0  0
   57.3024   28.2137   46.2145 H   0  0  0  0  0  0  0  0  0  0  0  0
   59.4572   30.5812   50.5643 H   0  0  0  0  0  0  0  0  0  0  0  0
   59.5100   28.7927   50.3805 H   0  0  0  0  0  0  0  0  0  0  0  0
   61.8220   29.0040   49.5310 H   0  0  0  0  0  0  0  0  0  0  0  0
   63.1985   32.8796   49.1606 H   0  0  0  0  0  0  0  0  0  0  0  0
   67.1282   32.0037   50.5032 H   0  0  0  0  0  0  0  0  0  0  0  0
   67.4496   30.5136   52.0927 H   0  0  0  0  0  0  0  0  0  0  0  0
   66.0331   29.7394   52.9619 H   0  0  0  0  0  0  0  0  0  0  0  0
   68.4666   29.5045   50.2426 H   0  0  0  0  0  0  0  0  0  0  0  0
   69.0469   27.3162   49.2084 H   0  0  0  0  0  0  0  0  0  0  0  0
   67.7851   25.2527   49.7699 H   0  0  0  0  0  0  0  0  0  0  0  0
   65.3271   27.4844   52.3883 H   0  0  0  0  0  0  0  0  0  0  0  0
   59.2175   32.0559   45.8337 H   0  0  0  0  0  0  0  0  0  0  0  0
   57.6123   34.2972   47.3748 H   0  0  0  0  0  0  0  0  0  0  0  0
   58.8326   33.9527   49.4861 H   0  0  0  0  0  0  0  0  0  0  0  0
   61.3075   33.6043   49.4211 H   0  0  0  0  0  0  0  0  0  0  0  0
   62.4778   33.6092   47.2367 H   0  0  0  0  0  0  0  0  0  0  0  0
   61.2403   33.9534   45.1236 H   0  0  0  0  0  0  0  0  0  0  0  0
  1  2  1  0
  2  3  1  0
  3  4  2  0
  4  5  1  0
  5  6  2  0
  6  7  1  0
  7  8  1  0
  8  9  2  0
  9 10  1  0
 10 11  2  0
 11 12  1  0
 12 13  3  0
 13 14  1  0
 14 15  1  0
 15 16  1  0
 16 17  2  0
 16 18  1  0
 18 19  2  0
 19 20  1  0
 20 21  2  0
 21 22  1  0
 22 23  1  0
 23 24  1  0
 24 25  2  0
 25 26  1  0
 26 27  2  0
 27 28  1  0
 28 29  2  0
 22 30  1  0
 30 31  2  0
 11 32  1  0
 32 33  2  0
  2 34  1  0
 34 35  2  0
 35 36  1  0
 36 37  2  0
 37 38  1  0
 38 39  2  0
 33  4  1  0
 39 34  1  0
 33  8  1  0
 30 18  1  0
 29 24  1  0
  1 40  1  0
  1 41  1  0
  1 42  1  0
  2 43  1  6
  6 44  1  0
  7 45  1  0
  9 46  1  0
 10 47  1  0
 14 48  1  0
 14 49  1  0
 15 50  1  0
 19 51  1  0
 21 52  1  0
 23 53  1  0
 23 54  1  0
 25 55  1  0
 26 56  1  0
 27 57  1  0
 29 58  1  0
 32 59  1  0
 35 60  1  0
 36 61  1  0
 37 62  1  0
 38 63  1  0
 39 64  1  0
M  END
>  <smiles>  (11) 
CC(N=c1nc[nH]c2ccc(C#CCNC(=O)c3cncn(Cc4cccnc4)c3=O)cc12)c1ccccc1

>  <score_type>  (11) 
oracle

>  <origin>  (11) 
adg

>  <m_score__min__energy>  (11) 
-10.27

>  <m_primary>  (11) 
energy

$$$$
11:0
     RDKit          3D

 36 37  0  0  0  0  0  0  0  0999 V2000
   57.9820   32.3400   42.0800 C   0  0  0  0  0  0  0  0  0  0  0  0
   58.0790   32.0550   43.5200 N   0  0  0  0  0  0  0  0  0  0  0  0
   57.4050   33.0810   44.3500 C   0  0  0  0  0  0  0  0  0  0  0  0
   58.2390   33.5970   45.5100 C   0  0  0  0  0  0  0  0  0  0  0  0
   58.1300   33.0200   46.7890 C   0  0  0  0  0  0  0  0  0  0  0  0
   58.9020   33.5040   47.8500 C   0  0  0  0  0  0  0  0  0  0  0  0
   59.7990   34.5550   47.6430 C   0  0  0  0  0  0  0  0  0  0  0  0
   59.9330   35.1180   46.3720 C   0  0  0  0  0  0  0  0  0  0  0  0
   59.1630   34.6380   45.3090 C   0  0  0  0  0  0  0  0  0  0  0  0
   57.5500   30.4230   43.8870 S   0  0  0  0  0  0  0  0  0  0  0  0
   56.8810   29.8040   42.6900 O   0  0  0  0  0  0  0  0  0  0  0  0
   56.5790   30.4290   45.0340 O   0  0  0  0  0  0  0  0  0  0  0  0
   58.9290   29.4030   44.3970 C   0  0  0  0  0  0  0  0  0  0  0  0
   58.4760   28.1540   45.1090 C   0  0  0  0  0  0  0  0  0  0  0  0
   58.3910   28.1630   46.5120 C   0  0  0  0  0  0  0  0  0  0  0  0
   57.9550   27.0320   47.2040 C   0  0  0  0  0  0  0  0  0  0  0  0
   57.5960   25.8780   46.5050 C   0  0  0  0  0  0  0  0  0  0  0  0
   57.0450   24.4590   47.3770 Cl  0  0  0  0  0  0  0  0  0  0  0  0
   57.6680   25.8570   45.1090 C   0  0  0  0  0  0  0  0  0  0  0  0
   58.1030   26.9860   44.4050 C   0  0  0  0  0  0  0  0  0  0  0  0
   58.1270   26.9060   42.6460 Cl  0  0  0  0  0  0  0  0  0  0  0  0
   57.6307   33.3720   41.9333 H   0  0  0  0  0  0  0  0  0  0  0  0
   58.9716   32.2199   41.6150 H   0  0  0  0  0  0  0  0  0  0  0  0
   57.2711   31.6411   41.6150 H   0  0  0  0  0  0  0  0  0  0  0  0
   57.1503   33.9336   43.7034 H   0  0  0  0  0  0  0  0  0  0  0  0
   56.5205   32.5972   44.7901 H   0  0  0  0  0  0  0  0  0  0  0  0
   57.4343   32.1843   46.9550 H   0  0  0  0  0  0  0  0  0  0  0  0
   58.8027   33.0562   48.8498 H   0  0  0  0  0  0  0  0  0  0  0  0
   60.3995   34.9389   48.4809 H   0  0  0  0  0  0  0  0  0  0  0  0
   60.6452   35.9400   46.2074 H   0  0  0  0  0  0  0  0  0  0  0  0
   59.2806   35.0777   44.3076 H   0  0  0  0  0  0  0  0  0  0  0  0
   59.5056   29.1142   43.5058 H   0  0  0  0  0  0  0  0  0  0  0  0
   59.5435   29.9885   45.0967 H   0  0  0  0  0  0  0  0  0  0  0  0
   58.6705   29.0692   47.0694 H   0  0  0  0  0  0  0  0  0  0  0  0
   57.8941   27.0499   48.3022 H   0  0  0  0  0  0  0  0  0  0  0  0
   57.3811   24.9477   44.5605 H   0  0  0  0  0  0  0  0  0  0  0  0
  1  2  1  0
  2  3  1  0
  3  4  1  0
  4  5  2  0
  5  6  1  0
  6  7  2  0
  7  8  1  0
  8  9  2  0
  2 10  1  0
 10 11  2  0
 10 12  2  0
 10 13  1  0
 13 14  1  0
 14 15  2  0
 15 16  1  0
 16 17  2  0
 17 18  1  0
 17 19  1  0
 19 20  2  0
 20 21  1  0
  9  4  1  0
 20 14  1  0
  1 22  1  0
  1 23  1  0
  1 24  1  0
  3 25  1  0
  3 26  1  0
  5 27  1  0
  6 28  1  0
  7 29  1  0
  8 30  1  0
  9 31  1  0
 13 32  1  0
 13 33  1  0
 15 34  1  0
 16 35  1  0
 19 36  1  0
M  END
>  <UniqueID>  (12) 
11

>  <SMILES>  (12) 
CN(Cc1ccccc1)S(=O)(=O)Cc1ccc(Cl)cc1Cl

>  <Energy>  (12) 
36.03301481104078

>  <Genealogy>  (12) 
CN(Cc1ccccc1)S(=O)(=O)Cc1ccc(Cl)cc1Cl (3D coordinates assigned)
CN(Cc1ccccc1)S(=O)(=O)Cc1ccc(Cl)cc1Cl (optimized conformer: 36.03301481104078 kcal/mol)

>  <smiles>  (12) 
CN(Cc1ccccc1)S(=O)(=O)Cc1ccc(Cl)cc1Cl

>  <score_type>  (12) 
oracle

>  <origin>  (12) 
adg

>  <m_score__min__energy>  (12) 
-8.4700000000000006

>  <m_primary>  (12) 
energy

$$$$
12:0
     RDKit          3D

 28 30  0  0  0  0  0  0  0  0999 V2000
   59.7006   35.7729   44.5295 H   0  0  0  0  0  0  0  0  0  0  0  0
   59.2630   34.9670   45.1370 C   0  0  0  0  0  0  0  0  0  0  0  0
   59.3050   35.0420   46.4920 N   0  0  0  0  0  0  0  0  0  0  0  0
   58.7730   34.0670   47.2750 C   0  0  0  0  0  0  0  0  0  0  0  0
   58.8204   34.1560   48.3704 H   0  0  0  0  0  0  0  0  0  0  0  0
   58.1660   32.9520   46.6920 C   0  0  0  0  0  0  0  0  0  0  0  0
   57.7335   32.1648   47.3271 H   0  0  0  0  0  0  0  0  0  0  0  0
   58.1090   32.8380   45.2910 C   0  0  0  0  0  0  0  0  0  0  0  0
   57.4610   31.6520   44.6710 C   0  0  0  0  0  0  0  0  0  0  0  0
   57.0230   30.6070   45.4300 N   0  0  0  0  0  0  0  0  0  0  0  0
   56.4780   29.6250   44.6830 C   0  0  0  0  0  0  0  0  0  0  0  0
   55.9590   28.5580   45.2190 N   0  0  0  0  0  0  0  0  0  0  0  0
   56.6640   27.3780   45.6310 C   0  0  0  0  0  0  0  0  0  0  0  0
   55.9890   26.2080   46.0130 C   0  0  0  0  0  0  0  0  0  0  0  0
   54.8895   26.1859   46.0376 H   0  0  0  0  0  0  0  0  0  0  0  0
   56.7240   25.0710   46.3620 C   0  0  0  0  0  0  0  0  0  0  0  0
   56.2019   24.1557   46.6777 H   0  0  0  0  0  0  0  0  0  0  0  0
   58.0840   25.0940   46.3120 N   0  0  0  0  0  0  0  0  0  0  0  0
   58.6200   24.2370   46.5740 H   0  0  0  0  0  0  0  0  0  0  0  0
   58.7590   26.2060   45.9130 C   0  0  0  0  0  0  0  0  0  0  0  0
   59.8582   26.1951   45.8721 H   0  0  0  0  0  0  0  0  0  0  0  0
   58.0600   27.3620   45.5550 C   0  0  0  0  0  0  0  0  0  0  0  0
   58.6054   28.2548   45.2151 H   0  0  0  0  0  0  0  0  0  0  0  0
   56.4910   30.0150   43.0440 S   0  0  0  0  0  0  0  0  0  0  0  0
   57.2480   31.4960   43.2960 C   0  0  0  0  0  0  0  0  0  0  0  0
   57.5277   32.2180   42.5146 H   0  0  0  0  0  0  0  0  0  0  0  0
   58.6660   33.8700   44.5120 C   0  0  0  0  0  0  0  0  0  0  0  0
   58.6311   33.8124   43.4141 H   0  0  0  0  0  0  0  0  0  0  0  0
  1  2  1  0
  2  3  2  0
  3  4  1  0
  4  5  1  0
  4  6  2  0
  6  7  1  0
  6  8  1  0
  8  9  1  0
  9 10  1  0
 10 11  1  0
 11 12  2  0
 12 13  1  0
 13 14  2  0
 14 15  1  0
 14 16  1  0
 16 17  1  0
 16 18  2  0
 18 19  1  0
 18 20  1  0
 20 21  1  0
 20 22  2  0
 22 23  1  0
 11 24  1  0
 24 25  1  0
 25 26  1  0
  8 27  2  0
 27 28  1  0
 27  2  1  0
 25  9  2  0
 22 13  1  0
M  CHG  2  10  -1  18   1
M  END
>  <UniqueID>  (13) 
12

>  <SMILES>  (13) 
c1cc(-c2cs/c(=N\c3cc[nH+]cc3)[n-]2)ccn1

>  <Energy>  (13) 
71.32869630536139

>  <Genealogy>  (13) 
c1cc(-c2csc(=Nc3cc[nH+]cc3)[n-]2)ccn1 (protonated)
c1cc(-c2cs/c(=N\c3cc[nH+]cc3)[n-]2)ccn1 (cis-trans isomerization)
c1cc(-c2cs/c(=N\c3cc[nH+]cc3)[n-]2)ccn1 (3D coordinates assigned)
c1cc(-c2cs/c(=N\c3cc[nH+]cc3)[n-]2)ccn1 (optimized conformer: 71.32869630536139 kcal/mol)

>  <smiles>  (13) 
c1cc(N=c2[nH]c(-c3ccncc3)cs2)ccn1

>  <score_type>  (13) 
oracle

>  <origin>  (13) 
adg

>  <m_score__min__energy>  (13) 
-6.5099999999999998

>  <m_primary>  (13) 
energy

$$$$
13:0
     RDKit          3D

 48 51  0  0  0  0  0  0  0  0999 V2000
   59.3040   33.5870   54.1370 C   0  0  0  0  0  0  0  0  0  0  0  0
   59.1950   33.2840   52.6720 C   0  0  0  0  0  0  0  0  0  0  0  0
   58.0570   32.6440   52.1610 C   0  0  0  0  0  0  0  0  0  0  0  0
   57.9730   32.3360   50.8010 C   0  0  0  0  0  0  0  0  0  0  0  0
   59.0330   32.6400   49.9360 C   0  0  0  0  0  0  0  0  0  0  0  0
   58.9150   32.3080   48.5460 N   0  0  0  0  0  0  0  0  0  0  0  0
   58.7130   33.3060   47.5320 C   0  0  0  0  0  0  0  0  0  0  0  0
   58.8500   34.5270   47.8230 O   0  0  0  0  0  0  0  0  0  0  0  0
   58.3760   32.9180   46.1420 C   0  0  0  0  0  0  0  0  0  0  0  0
   58.5990   33.8160   45.0830 C   0  0  0  0  0  0  0  0  0  0  0  0
   58.2970   33.4490   43.7690 C   0  0  0  0  0  0  0  0  0  0  0  0
   57.7640   32.1880   43.4980 C   0  0  0  0  0  0  0  0  0  0  0  0
   57.5150   31.2900   44.5430 C   0  0  0  0  0  0  0  0  0  0  0  0
   56.8660   29.6950   44.1830 S   0  0  0  0  0  0  0  0  0  0  0  0
   56.6640   29.5660   42.6990 O   0  0  0  0  0  0  0  0  0  0  0  0
   55.5400   29.4910   44.8620 O   0  0  0  0  0  0  0  0  0  0  0  0
   57.9860   28.4880   44.7270 N   0  0  0  0  0  0  0  0  0  0  0  0
   59.4310   28.6870   44.7960 C   0  0  0  0  0  0  0  0  0  0  0  0
   59.9910   27.4660   45.5660 C   0  0  0  0  0  0  0  0  0  0  0  0
   58.7690   26.6900   45.9200 C   0  0  0  0  0  0  0  0  0  0  0  0
   58.6810   25.5070   46.6550 C   0  0  0  0  0  0  0  0  0  0  0  0
   57.4110   24.9530   46.8850 C   0  0  0  0  0  0  0  0  0  0  0  0
   56.2600   25.5870   46.3770 C   0  0  0  0  0  0  0  0  0  0  0  0
   56.3740   26.7740   45.6370 C   0  0  0  0  0  0  0  0  0  0  0  0
   57.6510   27.3050   45.4270 C   0  0  0  0  0  0  0  0  0  0  0  0
   57.8190   31.6580   45.8620 C   0  0  0  0  0  0  0  0  0  0  0  0
   60.1760   33.2920   50.4450 C   0  0  0  0  0  0  0  0  0  0  0  0
   61.6110   33.8580   49.3040 Br  0  0  0  0  0  0  0  0  0  0  0  0
   60.2550   33.5970   51.8090 C   0  0  0  0  0  0  0  0  0  0  0  0
   58.9878   32.7080   54.7178 H   0  0  0  0  0  0  0  0  0  0  0  0
   60.3472   33.8336   54.3838 H   0  0  0  0  0  0  0  0  0  0  0  0
   58.6570   34.4417   54.3838 H   0  0  0  0  0  0  0  0  0  0  0  0
   57.2268   32.3833   52.8339 H   0  0  0  0  0  0  0  0  0  0  0  0
   57.0680   31.8512   50.4060 H   0  0  0  0  0  0  0  0  0  0  0  0
   59.2250   31.3540   48.2490 H   0  0  0  0  0  0  0  0  0  0  0  0
   59.0137   34.8135   45.2903 H   0  0  0  0  0  0  0  0  0  0  0  0
   58.4798   34.1558   42.9462 H   0  0  0  0  0  0  0  0  0  0  0  0
   57.5389   31.8988   42.4608 H   0  0  0  0  0  0  0  0  0  0  0  0
   59.8600   28.7308   43.7840 H   0  0  0  0  0  0  0  0  0  0  0  0
   59.6851   29.6323   45.2979 H   0  0  0  0  0  0  0  0  0  0  0  0
   60.6628   26.8728   44.9281 H   0  0  0  0  0  0  0  0  0  0  0  0
   60.5886   27.7500   46.4448 H   0  0  0  0  0  0  0  0  0  0  0  0
   59.5862   25.0192   47.0456 H   0  0  0  0  0  0  0  0  0  0  0  0
   57.3148   24.0221   47.4630 H   0  0  0  0  0  0  0  0  0  0  0  0
   55.2676   25.1497   46.5612 H   0  0  0  0  0  0  0  0  0  0  0  0
   55.4818   27.2742   45.2324 H   0  0  0  0  0  0  0  0  0  0  0  0
   57.6199   30.9548   46.6841 H   0  0  0  0  0  0  0  0  0  0  0  0
   61.1562   34.0863   52.2071 H   0  0  0  0  0  0  0  0  0  0  0  0
  1  2  1  0
  2  3  2  0
  3  4  1  0
  4  5  2  0
  5  6  1  0
  6  7  1  0
  7  8  2  0
  7  9  1  0
  9 10  2  0
 10 11  1  0
 11 12  2  0
 12 13  1  0
 13 14  1  0
 14 15  2  0
 14 16  2  0
 14 17  1  0
 17 18  1  0
 18 19  1  0
 19 20  1  0
 20 21  2  0
 21 22  1  0
 22 23  2  0
 23 24  1  0
 24 25  2  0
 13 26  2  0
  5 27  1  0
 27 28  1  0
 27 29  2  0
 29  2  1  0
 26  9  1  0
 25 17  1  0
 25 20  1  0
  1 30  1  0
  1 31  1  0
  1 32  1  0
  3 33  1  0
  4 34  1  0
  6 35  1  0
 10 36  1  0
 11 37  1  0
 12 38  1  0
 18 39  1  0
 18 40  1  0
 19 41  1  0
 19 42  1  0
 21 43  1  0
 22 44  1  0
 23 45  1  0
 24 46  1  0
 26 47  1  0
 29 48  1  0
M  END
>  <UniqueID>  (14) 
13

>  <SMILES>  (14) 
Cc1ccc(NC(=O)c2cccc(S(=O)(=O)N3CCc4ccccc43)c2)c(Br)c1

>  <Energy>  (14) 
74.63621401789177

>  <Genealogy>  (14) 
Cc1ccc(NC(=O)c2cccc(S(=O)(=O)N3CCc4ccccc43)c2)c(Br)c1 (3D coordinates assigned)
Cc1ccc(NC(=O)c2cccc(S(=O)(=O)N3CCc4ccccc43)c2)c(Br)c1 (nonaromatic ring conformer: 74.63621401789177 kcal/mol)

>  <smiles>  (14) 
Cc1ccc(NC(=O)c2cccc(S(=O)(=O)N3CCc4ccccc43)c2)c(Br)c1

>  <score_type>  (14) 
oracle

>  <origin>  (14) 
adg

>  <m_score__min__energy>  (14) 
-9.9299999999999997

>  <m_primary>  (14) 
energy

$$$$
14:0
     RDKit          3D

 53 56  0  0  0  0  0  0  0  0999 V2000
   60.7560   28.3210   45.6790 C   0  0  0  0  0  0  0  0  0  0  0  0
   59.7220   27.7600   44.8760 O   0  0  0  0  0  0  0  0  0  0  0  0
   58.6940   26.9320   45.3580 C   0  0  0  0  0  0  0  0  0  0  0  0
   58.9610   25.6300   45.8290 C   0  0  0  0  0  0  0  0  0  0  0  0
   57.9350   24.8420   46.3530 C   0  0  0  0  0  0  0  0  0  0  0  0
   56.6350   25.3390   46.4180 C   0  0  0  0  0  0  0  0  0  0  0  0
   56.3530   26.6220   45.9480 C   0  0  0  0  0  0  0  0  0  0  0  0
   57.3680   27.4240   45.3990 C   0  0  0  0  0  0  0  0  0  0  0  0
   57.0120   28.7720   44.9000 C   0  0  0  0  0  0  0  0  0  0  0  0
   57.8890   29.7750   44.6800 N   0  0  0  0  0  0  0  0  0  0  0  0
   57.1340   30.7830   44.2120 C   0  0  0  0  0  0  0  0  0  0  0  0
   57.6700   32.1090   43.7670 C   0  0  0  0  0  0  0  0  0  0  0  0
   58.3580   32.7850   44.8840 N   0  0  0  0  0  0  0  0  0  0  0  0
   57.4610   32.8900   46.0530 C   0  0  0  0  0  0  0  0  0  0  0  0
   58.1240   33.6710   47.2070 C   0  0  0  0  0  0  0  0  0  0  0  0
   59.5200   34.0010   46.8680 N   0  0  0  0  0  0  0  0  0  0  0  0
   60.2800   34.5810   47.9970 C   0  0  0  0  0  0  0  0  0  0  0  0
   61.6550   33.9750   48.1950 C   0  0  0  0  0  0  0  0  0  0  0  0
   62.2130   33.8810   49.4830 C   0  0  0  0  0  0  0  0  0  0  0  0
   63.4830   33.3250   49.6610 C   0  0  0  0  0  0  0  0  0  0  0  0
   64.2070   32.8630   48.5580 C   0  0  0  0  0  0  0  0  0  0  0  0
   63.6640   32.9620   47.2740 C   0  0  0  0  0  0  0  0  0  0  0  0
   62.3950   33.5180   47.0900 C   0  0  0  0  0  0  0  0  0  0  0  0
   59.5850   34.8180   45.6410 C   0  0  0  0  0  0  0  0  0  0  0  0
   58.8280   34.1290   44.4830 C   0  0  0  0  0  0  0  0  0  0  0  0
   55.8230   30.3630   44.1510 C   0  0  0  0  0  0  0  0  0  0  0  0
   55.7830   29.1220   44.5780 O   0  0  0  0  0  0  0  0  0  0  0  0
   60.5083   28.1866   46.7423 H   0  0  0  0  0  0  0  0  0  0  0  0
   61.7075   27.8154   45.4574 H   0  0  0  0  0  0  0  0  0  0  0  0
   60.8508   29.3943   45.4574 H   0  0  0  0  0  0  0  0  0  0  0  0
   59.9856   25.2323   45.7831 H   0  0  0  0  0  0  0  0  0  0  0  0
   58.1532   23.8266   46.7154 H   0  0  0  0  0  0  0  0  0  0  0  0
   55.8302   24.7193   46.8403 H   0  0  0  0  0  0  0  0  0  0  0  0
   55.3254   27.0099   46.0078 H   0  0  0  0  0  0  0  0  0  0  0  0
   58.9280   29.7680   44.7840 H   0  0  0  0  0  0  0  0  0  0  0  0
   58.3819   31.9544   42.9428 H   0  0  0  0  0  0  0  0  0  0  0  0
   56.8330   32.7379   43.4295 H   0  0  0  0  0  0  0  0  0  0  0  0
   56.5404   33.4111   45.7514 H   0  0  0  0  0  0  0  0  0  0  0  0
   57.2373   31.8733   46.4084 H   0  0  0  0  0  0  0  0  0  0  0  0
   57.5642   34.6013   47.3838 H   0  0  0  0  0  0  0  0  0  0  0  0
   58.1145   33.0465   48.1125 H   0  0  0  0  0  0  0  0  0  0  0  0
   60.4009   35.6590   47.8142 H   0  0  0  0  0  0  0  0  0  0  0  0
   59.7048   34.3661   48.9096 H   0  0  0  0  0  0  0  0  0  0  0  0
   61.6478   34.2464   50.3531 H   0  0  0  0  0  0  0  0  0  0  0  0
   63.9134   33.2509   50.6706 H   0  0  0  0  0  0  0  0  0  0  0  0
   65.2043   32.4214   48.7007 H   0  0  0  0  0  0  0  0  0  0  0  0
   64.2365   32.6016   46.4066 H   0  0  0  0  0  0  0  0  0  0  0  0
   61.9736   33.5984   46.0771 H   0  0  0  0  0  0  0  0  0  0  0  0
   59.1288   35.7997   45.8366 H   0  0  0  0  0  0  0  0  0  0  0  0
   60.6396   34.9370   45.3518 H   0  0  0  0  0  0  0  0  0  0  0  0
   57.9607   34.7449   44.2031 H   0  0  0  0  0  0  0  0  0  0  0  0
   59.5144   34.0208   43.6302 H   0  0  0  0  0  0  0  0  0  0  0  0
   54.9652   30.9595   43.8069 H   0  0  0  0  0  0  0  0  0  0  0  0
  1  2  1  0
  2  3  1  0
  3  4  2  0
  4  5  1  0
  5  6  2  0
  6  7  1  0
  7  8  2  0
  8  9  1  0
  9 10  2  0
 10 11  1  0
 11 12  1  0
 12 13  1  0
 13 14  1  0
 14 15  1  0
 15 16  1  0
 16 17  1  0
 17 18  1  0
 18 19  2  0
 19 20  1  0
 20 21  2  0
 21 22  1  0
 22 23  2  0
 16 24  1  0
 24 25  1  0
 11 26  2  0
 26 27  1  0
  8  3  1  0
 27  9  1  0
 25 13  1  0
 23 18  1  0
  1 28  1  0
  1 29  1  0
  1 30  1  0
  4 31  1  0
  5 32  1  0
  6 33  1  0
  7 34  1  0
 10 35  1  0
 12 36  1  0
 12 37  1  0
 14 38  1  0
 14 39  1  0
 15 40  1  0
 15 41  1  0
 17 42  1  0
 17 43  1  0
 19 44  1  0
 20 45  1  0
 21 46  1  0
 22 47  1  0
 23 48  1  0
 24 49  1  0
 24 50  1  0
 25 51  1  0
 25 52  1  0
 26 53  1  0
M  CHG  1  10   1
M  END
>  <UniqueID>  (15) 
14

>  <SMILES>  (15) 
COc1ccccc1-c1[nH+]c(CN2CCN(Cc3ccccc3)CC2)co1

>  <Energy>  (15) 
100.2044338086923

>  <Genealogy>  (15) 
COc1ccccc1-c1[nH+]c(CN2CCN(Cc3ccccc3)CC2)co1 (protonated)
COc1ccccc1-c1[nH+]c(CN2CCN(Cc3ccccc3)CC2)co1 (3D coordinates assigned)
COc1ccccc1-c1[nH+]c(CN2CCN(Cc3ccccc3)CC2)co1 (nonaromatic ring conformer: 100.2044338086923 kcal/mol)

>  <smiles>  (15) 
COc1ccccc1-c1nc(CN2CCN(Cc3ccccc3)CC2)co1

>  <score_type>  (15) 
oracle

>  <origin>  (15) 
adg

>  <m_score__min__energy>  (15) 
-6.5800000000000001

>  <m_primary>  (15) 
energy

$$$$
15:0
     RDKit          3D

 47 49  0  0  0  0  0  0  0  0999 V2000
   67.7030   33.1760   50.8970 C   0  0  0  0  0  0  0  0  0  0  0  0
   66.3970   33.2690   51.4540 O   0  0  0  0  0  0  0  0  0  0  0  0
   65.2470   33.3980   50.6680 C   0  0  0  0  0  0  0  0  0  0  0  0
   65.1900   32.7640   49.4260 C   0  0  0  0  0  0  0  0  0  0  0  0
   64.0430   32.8920   48.6400 C   0  0  0  0  0  0  0  0  0  0  0  0
   62.9550   33.6540   49.0970 C   0  0  0  0  0  0  0  0  0  0  0  0
   61.7270   33.8000   48.2730 C   0  0  0  0  0  0  0  0  0  0  0  0
   61.7650   33.5670   46.8860 C   0  0  0  0  0  0  0  0  0  0  0  0
   60.6080   33.6990   46.1130 C   0  0  0  0  0  0  0  0  0  0  0  0
   59.3950   34.0680   46.7090 C   0  0  0  0  0  0  0  0  0  0  0  0
   58.1480   34.1770   45.8750 C   0  0  0  0  0  0  0  0  0  0  0  0
   57.8170   32.8760   45.2890 N   0  0  0  0  0  0  0  0  0  0  0  0
   57.4430   32.7160   44.0290 N   0  0  0  0  0  0  0  0  0  0  0  0
   57.3070   31.4000   43.7790 C   0  0  0  0  0  0  0  0  0  0  0  0
   56.9650   30.8320   42.4390 C   0  0  0  0  0  0  0  0  0  0  0  0
   57.6400   30.6880   44.9220 C   0  0  0  0  0  0  0  0  0  0  0  0
   57.6580   29.1970   45.0920 C   0  0  0  0  0  0  0  0  0  0  0  0
   56.2610   28.6750   45.2030 C   0  0  0  0  0  0  0  0  0  0  0  0
   56.0510   27.5100   45.6350 O   0  0  0  0  0  0  0  0  0  0  0  0
   55.1860   29.4900   44.8740 O   0  0  0  0  0  0  0  0  0  0  0  0
   57.9350   31.6590   45.8720 C   0  0  0  0  0  0  0  0  0  0  0  0
   58.4420   31.4130   47.2630 C   0  0  0  0  0  0  0  0  0  0  0  0
   59.3510   34.3010   48.0920 C   0  0  0  0  0  0  0  0  0  0  0  0
   60.5070   34.1680   48.8670 C   0  0  0  0  0  0  0  0  0  0  0  0
   63.0580   34.2750   50.3540 C   0  0  0  0  0  0  0  0  0  0  0  0
   64.1850   34.1330   51.1000 N   0  0  0  0  0  0  0  0  0  0  0  0
   68.4445   33.1232   51.7078 H   0  0  0  0  0  0  0  0  0  0  0  0
   67.7733   32.2706   50.2763 H   0  0  0  0  0  0  0  0  0  0  0  0
   67.9009   34.0623   50.2763 H   0  0  0  0  0  0  0  0  0  0  0  0
   66.0426   32.1677   49.0688 H   0  0  0  0  0  0  0  0  0  0  0  0
   63.9913   32.3947   47.6602 H   0  0  0  0  0  0  0  0  0  0  0  0
   62.7121   33.2789   46.4065 H   0  0  0  0  0  0  0  0  0  0  0  0
   60.6501   33.5120   45.0298 H   0  0  0  0  0  0  0  0  0  0  0  0
   57.3145   34.5125   46.5096 H   0  0  0  0  0  0  0  0  0  0  0  0
   58.3191   34.9024   45.0660 H   0  0  0  0  0  0  0  0  0  0  0  0
   57.3080   33.4920   43.3420 H   0  0  0  0  0  0  0  0  0  0  0  0
   56.4016   29.8964   42.5703 H   0  0  0  0  0  0  0  0  0  0  0  0
   56.3514   31.5541   41.8804 H   0  0  0  0  0  0  0  0  0  0  0  0
   57.8903   30.6276   41.8804 H   0  0  0  0  0  0  0  0  0  0  0  0
   58.1499   28.7376   44.2219 H   0  0  0  0  0  0  0  0  0  0  0  0
   58.2098   28.9462   46.0099 H   0  0  0  0  0  0  0  0  0  0  0  0
   57.7011   31.7725   47.9922 H   0  0  0  0  0  0  0  0  0  0  0  0
   58.6062   30.3350   47.4081 H   0  0  0  0  0  0  0  0  0  0  0  0
   59.3903   31.9511   47.4081 H   0  0  0  0  0  0  0  0  0  0  0  0
   58.4026   34.5896   48.5686 H   0  0  0  0  0  0  0  0  0  0  0  0
   60.4616   34.3528   49.9504 H   0  0  0  0  0  0  0  0  0  0  0  0
   62.2218   34.8792   50.7358 H   0  0  0  0  0  0  0  0  0  0  0  0
  1  2  1  0
  2  3  1  0
  3  4  2  0
  4  5  1  0
  5  6  2  0
  6  7  1  0
  7  8  2  0
  8  9  1  0
  9 10  2  0
 10 11  1  0
 11 12  1  0
 12 13  1  0
 13 14  2  0
 14 15  1  0
 14 16  1  0
 16 17  1  0
 17 18  1  0
 18 19  2  0
 18 20  1  0
 16 21  2  0
 21 22  1  0
 10 23  1  0
 23 24  2  0
  6 25  1  0
 25 26  2  0
 26  3  1  0
 24  7  1  0
 21 12  1  0
  1 27  1  0
  1 28  1  0
  1 29  1  0
  4 30  1  0
  5 31  1  0
  8 32  1  0
  9 33  1  0
 11 34  1  0
 11 35  1  0
 13 36  1  0
 15 37  1  0
 15 38  1  0
 15 39  1  0
 17 40  1  0
 17 41  1  0
 22 42  1  0
 22 43  1  0
 22 44  1  0
 23 45  1  0
 24 46  1  0
 25 47  1  0
M  CHG  2  13   1  20  -1
M  END
>  <UniqueID>  (16) 
15

>  <SMILES>  (16) 
COc1ccc(-c2ccc(Cn3[nH+]c(C)c(CC(=O)[O-])c3C)cc2)cn1

>  <Energy>  (16) 
77.89006758691337

>  <Genealogy>  (16) 
COc1ccc(-c2ccc(Cn3[nH+]c(C)c(CC(=O)[O-])c3C)cc2)cn1 (protonated)
COc1ccc(-c2ccc(Cn3[nH+]c(C)c(CC(=O)[O-])c3C)cc2)cn1 (3D coordinates assigned)
COc1ccc(-c2ccc(Cn3[nH+]c(C)c(CC(=O)[O-])c3C)cc2)cn1 (optimized conformer: 77.89006758691337 kcal/mol)

>  <smiles>  (16) 
COc1ccc(-c2ccc(Cn3nc(C)c(CC(=O)O)c3C)cc2)cn1

>  <score_type>  (16) 
oracle

>  <origin>  (16) 
adg

>  <m_score__min__energy>  (16) 
-9.6600000000000001

>  <m_primary>  (16) 
energy

$$$$
16:0
     RDKit          3D

 33 35  0  0  0  0  0  0  0  0999 V2000
   60.2351   29.4785   48.0961 H   0  0  0  0  0  0  0  0  0  0  0  0
   59.8800   29.0980   47.1270 C   0  0  0  0  0  0  0  0  0  0  0  0
   60.7470   28.9760   46.0870 N   0  0  0  0  0  0  0  0  0  0  0  0
   60.3440   28.5090   44.8750 C   0  0  0  0  0  0  0  0  0  0  0  0
   61.0689   28.4216   44.0522 H   0  0  0  0  0  0  0  0  0  0  0  0
   59.0120   28.1400   44.6720 C   0  0  0  0  0  0  0  0  0  0  0  0
   58.6837   27.7641   43.6918 H   0  0  0  0  0  0  0  0  0  0  0  0
   58.0970   28.2530   45.7290 C   0  0  0  0  0  0  0  0  0  0  0  0
   56.6500   27.8830   45.5370 C   0  0  0  0  0  0  0  0  0  0  0  0
   56.1973   27.6729   46.5173 H   0  0  0  0  0  0  0  0  0  0  0  0
   56.5936   26.9925   44.8936 H   0  0  0  0  0  0  0  0  0  0  0  0
   55.9210   28.9760   44.8950 N   0  0  0  0  0  0  0  0  0  0  0  0
   56.4740   30.0040   44.3220 C   0  0  0  0  0  0  0  0  0  0  0  0
   57.0780   30.9480   45.0900 N   0  0  0  0  0  0  0  0  0  0  0  0
   57.6770   32.0420   44.5410 C   0  0  0  0  0  0  0  0  0  0  0  0
   58.3180   33.0430   45.4320 C   0  0  0  0  0  0  0  0  0  0  0  0
   58.9610   34.1650   44.8820 C   0  0  0  0  0  0  0  0  0  0  0  0
   58.9936   34.2970   43.7904 H   0  0  0  0  0  0  0  0  0  0  0  0
   59.5580   35.1120   45.7140 C   0  0  0  0  0  0  0  0  0  0  0  0
   60.0669   35.9869   45.2832 H   0  0  0  0  0  0  0  0  0  0  0  0
   59.5040   34.9400   47.0960 C   0  0  0  0  0  0  0  0  0  0  0  0
   59.9754   35.6797   47.7597 H   0  0  0  0  0  0  0  0  0  0  0  0
   58.8700   33.8600   47.6260 N   0  0  0  0  0  0  0  0  0  0  0  0
   58.8300   33.7500   48.6630 H   0  0  0  0  0  0  0  0  0  0  0  0
   58.2810   32.9200   46.8340 C   0  0  0  0  0  0  0  0  0  0  0  0
   57.7732   32.0592   47.2935 H   0  0  0  0  0  0  0  0  0  0  0  0
   57.6540   32.1980   43.1460 C   0  0  0  0  0  0  0  0  0  0  0  0
   58.1197   33.0749   42.6726 H   0  0  0  0  0  0  0  0  0  0  0  0
   57.0300   31.2210   42.3720 C   0  0  0  0  0  0  0  0  0  0  0  0
   57.0041   31.3205   41.2768 H   0  0  0  0  0  0  0  0  0  0  0  0
   56.4550   30.1480   42.9690 N   0  0  0  0  0  0  0  0  0  0  0  0
   58.5390   28.7410   46.9670 C   0  0  0  0  0  0  0  0  0  0  0  0
   57.8349   28.8420   47.8061 H   0  0  0  0  0  0  0  0  0  0  0  0
  1  2  1  0
  2  3  2  0
  3  4  1  0
  4  5  1  0
  4  6  2  0
  6  7  1  0
  6  8  1  0
  8  9  1  0
  9 10  1  0
  9 11  1  0
  9 12  1  0
 12 13  2  0
 13 14  1  0
 14 15  2  0
 15 16  1  0
 16 17  2  0
 17 18  1  0
 17 19  1  0
 19 20  1  0
 19 21  2  0
 21 22  1  0
 21 23  1  0
 23 24  1  0
 23 25  2  0
 25 26  1  0
 15 27  1  0
 27 28  1  0
 27 29  2  0
 29 30  1  0
 29 31  1  0
  8 32  2  0
 32 33  1  0
 32  2  1  0
 31 13  1  0
 25 16  1  0
M  CHG  2  23   1  31  -1
M  END
>  <UniqueID>  (17) 
16

>  <SMILES>  (17) 
c1c[nH+]cc(-c2cc[n-]/c(=N\Cc3ccncc3)n2)c1

>  <Energy>  (17) 
40.65970746313982

>  <Genealogy>  (17) 
c1c[nH+]cc(-c2cc[n-]c(=NCc3ccncc3)n2)c1 (protonated)
c1c[nH+]cc(-c2cc[n-]/c(=N\Cc3ccncc3)n2)c1 (cis-trans isomerization)
c1c[nH+]cc(-c2cc[n-]/c(=N\Cc3ccncc3)n2)c1 (3D coordinates assigned)
c1c[nH+]cc(-c2cc[n-]/c(=N\Cc3ccncc3)n2)c1 (optimized conformer: 40.65970746313982 kcal/mol)

>  <smiles>  (17) 
c1cncc(-c2cc[nH]c(=NCc3ccncc3)n2)c1

>  <score_type>  (17) 
oracle

>  <origin>  (17) 
adg

>  <m_score__min__energy>  (17) 
-7.0899999999999999

>  <m_primary>  (17) 
energy

$$$$
17:0
     RDKit          3D

 50 53  0  0  0  0  0  0  0  0999 V2000
   56.9067   20.6740   44.2603 H   0  0  0  0  0  0  0  0  0  0  0  0
   56.8080   21.7300   44.5520 C   0  0  0  0  0  0  0  0  0  0  0  0
   55.5470   22.3260   44.5960 C   0  0  0  0  0  0  0  0  0  0  0  0
   54.6527   21.7377   44.3427 H   0  0  0  0  0  0  0  0  0  0  0  0
   55.4180   23.6680   44.9610 C   0  0  0  0  0  0  0  0  0  0  0  0
   54.4213   24.1319   44.9975 H   0  0  0  0  0  0  0  0  0  0  0  0
   56.5560   24.4290   45.2820 C   0  0  0  0  0  0  0  0  0  0  0  0
   57.8300   23.8260   45.2470 C   0  0  0  0  0  0  0  0  0  0  0  0
   57.9450   22.4730   44.8780 C   0  0  0  0  0  0  0  0  0  0  0  0
   58.9364   21.9975   44.8461 H   0  0  0  0  0  0  0  0  0  0  0  0
   59.0260   24.6070   45.6350 C   0  0  0  0  0  0  0  0  0  0  0  0
   60.1530   24.0440   45.7160 O   0  0  0  0  0  0  0  0  0  0  0  0
   58.9070   26.0470   45.9450 C   0  0  0  0  0  0  0  0  0  0  0  0
   59.9670   26.6790   46.3690 N   0  0  0  0  0  0  0  0  0  0  0  0
   60.0180   27.5460   47.5090 C   0  0  0  0  0  0  0  0  0  0  0  0
   60.4760   27.0700   48.7450 C   0  0  0  0  0  0  0  0  0  0  0  0
   60.8171   26.0286   48.8403 H   0  0  0  0  0  0  0  0  0  0  0  0
   60.5000   27.9160   49.8560 C   0  0  0  0  0  0  0  0  0  0  0  0
   60.8427   27.5348   50.8292 H   0  0  0  0  0  0  0  0  0  0  0  0
   60.0890   29.2470   49.7330 C   0  0  0  0  0  0  0  0  0  0  0  0
   60.0895   29.9034   50.6157 H   0  0  0  0  0  0  0  0  0  0  0  0
   59.6750   29.7510   48.4870 C   0  0  0  0  0  0  0  0  0  0  0  0
   59.1790   31.1690   48.3630 C   0  0  0  0  0  0  0  0  0  0  0  0
   60.2430   31.9990   48.0640 F   0  0  0  0  0  0  0  0  0  0  0  0
   58.5990   31.5880   49.5480 F   0  0  0  0  0  0  0  0  0  0  0  0
   58.2320   31.2710   47.3580 F   0  0  0  0  0  0  0  0  0  0  0  0
   59.6340   28.8860   47.3790 C   0  0  0  0  0  0  0  0  0  0  0  0
   59.2976   29.2651   46.4027 H   0  0  0  0  0  0  0  0  0  0  0  0
   57.6190   26.7810   45.5920 C   0  0  1  0  0  0  0  0  0  0  0  0
   57.4599   27.5847   46.3260 H   0  0  0  0  0  0  0  0  0  0  0  0
   57.7370   27.3770   44.2420 N   0  0  0  0  0  0  0  0  0  0  0  0
   58.6660   27.1380   43.8220 H   0  0  0  0  0  0  0  0  0  0  0  0
   57.0090   26.9750   43.6050 H   0  0  0  0  0  0  0  0  0  0  0  0
   57.6270   28.8150   44.2910 C   0  0  0  0  0  0  0  0  0  0  0  0
   58.7640   29.6130   44.5010 C   0  0  0  0  0  0  0  0  0  0  0  0
   59.7456   29.1391   44.6488 H   0  0  0  0  0  0  0  0  0  0  0  0
   58.6540   31.0060   44.5230 C   0  0  0  0  0  0  0  0  0  0  0  0
   59.5506   31.6209   44.6903 H   0  0  0  0  0  0  0  0  0  0  0  0
   57.4130   31.6260   44.3340 C   0  0  0  0  0  0  0  0  0  0  0  0
   57.3570   33.0280   44.3650 O   0  0  0  0  0  0  0  0  0  0  0  0
   57.9400   33.8320   45.3860 C   0  0  0  0  0  0  0  0  0  0  0  0
   57.6537   33.4371   46.3720 H   0  0  0  0  0  0  0  0  0  0  0  0
   59.0354   33.8127   45.2873 H   0  0  0  0  0  0  0  0  0  0  0  0
   57.5812   34.8671   45.2873 H   0  0  0  0  0  0  0  0  0  0  0  0
   56.2730   30.8300   44.1190 C   0  0  0  0  0  0  0  0  0  0  0  0
   55.2929   31.3061   43.9684 H   0  0  0  0  0  0  0  0  0  0  0  0
   56.3810   29.4370   44.0960 C   0  0  0  0  0  0  0  0  0  0  0  0
   55.4849   28.8226   43.9241 H   0  0  0  0  0  0  0  0  0  0  0  0
   56.4280   25.8520   45.6630 C   0  0  0  0  0  0  0  0  0  0  0  0
   55.3040   26.3160   45.9990 O   0  0  0  0  0  0  0  0  0  0  0  0
  1  2  1  0
  2  3  2  0
  3  4  1  0
  3  5  1  0
  5  6  1  0
  5  7  2  0
  7  8  1  0
  8  9  2  0
  9 10  1  0
  8 11  1  0
 11 12  2  0
 11 13  1  0
 13 14  2  0
 14 15  1  0
 15 16  2  0
 16 17  1  0
 16 18  1  0
 18 19  1  0
 18 20  2  0
 20 21  1  0
 20 22  1  0
 22 23  1  0
 23 24  1  0
 23 25  1  0
 23 26  1  0
 22 27  2  0
 27 28  1  0
 13 29  1  0
 29 30  1  1
 29 31  1  0
 31 32  1  0
 31 33  1  0
 31 34  1  0
 34 35  2  0
 35 36  1  0
 35 37  1  0
 37 38  1  0
 37 39  2  0
 39 40  1  0
 40 41  1  0
 41 42  1  0
 41 43  1  0
 41 44  1  0
 39 45  1  0
 45 46  1  0
 45 47  2  0
 47 48  1  0
 29 49  1  0
 49 50  2  0
  9  2  1  0
 27 15  1  0
 47 34  1  0
 49  7  1  0
M  CHG  1  31   1
M  END
>  <UniqueID>  (18) 
17

>  <SMILES>  (18) 
COc1ccc([NH2+][C@H]2C(=O)c3ccccc3C(=O)/C2=N/c2cccc(C(F)(F)F)c2)cc1

>  <Energy>  (18) 
66.89994917721425

>  <Genealogy>  (18) 
COc1ccc([NH2+]C2C(=O)c3ccccc3C(=O)C2=Nc2cccc(C(F)(F)F)c2)cc1 (protonated)
COc1ccc([NH2+][C@H]2C(=O)c3ccccc3C(=O)C2=Nc2cccc(C(F)(F)F)c2)cc1 (chirality)
COc1ccc([NH2+][C@H]2C(=O)c3ccccc3C(=O)/C2=N/c2cccc(C(F)(F)F)c2)cc1 (cis-trans isomerization)
COc1ccc([NH2+][C@H]2C(=O)c3ccccc3C(=O)/C2=N/c2cccc(C(F)(F)F)c2)cc1 (3D coordinates assigned)
COc1ccc([NH2+][C@H]2C(=O)c3ccccc3C(=O)/C2=N/c2cccc(C(F)(F)F)c2)cc1 (nonaromatic ring conformer: 66.89994917721425 kcal/mol)

>  <smiles>  (18) 
COc1ccc(NC2C(=O)c3ccccc3C(=O)C2=Nc2cccc(C(F)(F)F)c2)cc1

>  <score_type>  (18) 
oracle

>  <origin>  (18) 
adg

>  <m_score__min__energy>  (18) 
-7.0499999999999998

>  <m_primary>  (18) 
energy

$$$$
18:0
     RDKit          3D

 54 56  0  0  0  0  0  0  0  0999 V2000
   58.8060   32.8830   51.0080 C   0  0  0  0  0  0  0  0  0  0  0  0
   58.1660   31.9450   49.9880 C   0  0  0  0  0  0  0  0  0  0  0  0
   58.2150   32.5330   48.6860 O   0  0  0  0  0  0  0  0  0  0  0  0
   59.3800   32.9630   48.0290 C   0  0  0  0  0  0  0  0  0  0  0  0
   60.6610   32.5140   48.4000 C   0  0  0  0  0  0  0  0  0  0  0  0
   61.7990   32.9220   47.6800 C   0  0  0  0  0  0  0  0  0  0  0  0
   63.1420   32.4050   48.0380 C   0  0  0  0  0  0  0  0  0  0  0  0
   63.7710   31.7080   47.1960 O   0  0  0  0  0  0  0  0  0  0  0  0
   63.7470   32.6990   49.3090 N   0  0  0  0  0  0  0  0  0  0  0  0
   62.9610   32.6170   50.5530 C   0  0  0  0  0  0  0  0  0  0  0  0
   63.3090   33.7910   51.4830 C   0  0  0  0  0  0  0  0  0  0  0  0
   64.8230   34.1040   51.5370 C   0  0  0  0  0  0  0  0  0  0  0  0
   65.6850   33.0490   50.8340 C   0  0  0  0  0  0  0  0  0  0  0  0
   65.2110   32.8360   49.3900 C   0  0  0  0  0  0  0  0  0  0  0  0
   61.6500   33.8430   46.6340 C   0  0  0  0  0  0  0  0  0  0  0  0
   60.3860   34.3170   46.2820 C   0  0  0  0  0  0  0  0  0  0  0  0
   59.2400   33.8620   46.9610 C   0  0  0  0  0  0  0  0  0  0  0  0
   57.9420   34.2730   46.6120 O   0  0  0  0  0  0  0  0  0  0  0  0
   57.3650   34.1880   45.3110 C   0  0  0  0  0  0  0  0  0  0  0  0
   57.5350   32.8010   44.7680 C   0  0  0  0  0  0  0  0  0  0  0  0
   57.4040   32.6210   43.5270 O   0  0  0  0  0  0  0  0  0  0  0  0
   57.7290   31.6940   45.6690 N   0  0  0  0  0  0  0  0  0  0  0  0
   58.2020   30.3690   45.3230 C   0  0  0  0  0  0  0  0  0  0  0  0
   59.4530   29.9540   45.8190 C   0  0  0  0  0  0  0  0  0  0  0  0
   59.9730   28.6980   45.4920 C   0  0  0  0  0  0  0  0  0  0  0  0
   59.2490   27.8330   44.6720 C   0  0  0  0  0  0  0  0  0  0  0  0
   57.9940   28.2150   44.1940 C   0  0  0  0  0  0  0  0  0  0  0  0
   57.4610   29.4670   44.5230 C   0  0  0  0  0  0  0  0  0  0  0  0
   58.5691   32.5358   52.0246 H   0  0  0  0  0  0  0  0  0  0  0  0
   59.8969   32.8884   50.8673 H   0  0  0  0  0  0  0  0  0  0  0  0
   58.4131   33.9008   50.8673 H   0  0  0  0  0  0  0  0  0  0  0  0
   58.7125   30.9904   49.9776 H   0  0  0  0  0  0  0  0  0  0  0  0
   57.1162   31.7704   50.2664 H   0  0  0  0  0  0  0  0  0  0  0  0
   60.7737   31.8381   49.2605 H   0  0  0  0  0  0  0  0  0  0  0  0
   61.8892   32.6536   50.3081 H   0  0  0  0  0  0  0  0  0  0  0  0
   63.1988   31.6728   51.0647 H   0  0  0  0  0  0  0  0  0  0  0  0
   62.7802   34.6871   51.1262 H   0  0  0  0  0  0  0  0  0  0  0  0
   63.0005   33.5031   52.4988 H   0  0  0  0  0  0  0  0  0  0  0  0
   64.9962   35.0761   51.0522 H   0  0  0  0  0  0  0  0  0  0  0  0
   65.1168   34.1117   52.5970 H   0  0  0  0  0  0  0  0  0  0  0  0
   66.7320   33.3861   50.8244 H   0  0  0  0  0  0  0  0  0  0  0  0
   65.5953   32.0981   51.3797 H   0  0  0  0  0  0  0  0  0  0  0  0
   65.5219   33.6986   48.7824 H   0  0  0  0  0  0  0  0  0  0  0  0
   65.6625   31.9053   49.0160 H   0  0  0  0  0  0  0  0  0  0  0  0
   62.5367   34.1948   46.0863 H   0  0  0  0  0  0  0  0  0  0  0  0
   60.2843   35.0508   45.4689 H   0  0  0  0  0  0  0  0  0  0  0  0
   56.2931   34.4276   45.3709 H   0  0  0  0  0  0  0  0  0  0  0  0
   57.8686   34.9028   44.6436 H   0  0  0  0  0  0  0  0  0  0  0  0
   57.6760   31.9200   46.6850 H   0  0  0  0  0  0  0  0  0  0  0  0
   60.0284   30.6266   46.4721 H   0  0  0  0  0  0  0  0  0  0  0  0
   60.9548   28.3916   45.8822 H   0  0  0  0  0  0  0  0  0  0  0  0
   59.6659   26.8515   44.4023 H   0  0  0  0  0  0  0  0  0  0  0  0
   57.4204   27.5278   43.5548 H   0  0  0  0  0  0  0  0  0  0  0  0
   56.4627   29.7506   44.1584 H   0  0  0  0  0  0  0  0  0  0  0  0
  1  2  1  0
  2  3  1  0
  3  4  1  0
  4  5  2  0
  5  6  1  0
  6  7  1  0
  7  8  2  0
  7  9  1  0
  9 10  1  0
 10 11  1  0
 11 12  1  0
 12 13  1  0
 13 14  1  0
  6 15  2  0
 15 16  1  0
 16 17  2  0
 17 18  1  0
 18 19  1  0
 19 20  1  0
 20 21  2  0
 20 22  1  0
 22 23  1  0
 23 24  2  0
 24 25  1  0
 25 26  2  0
 26 27  1  0
 27 28  2  0
 17  4  1  0
 28 23  1  0
 14  9  1  0
  1 29  1  0
  1 30  1  0
  1 31  1  0
  2 32  1  0
  2 33  1  0
  5 34  1  0
 10 35  1  0
 10 36  1  0
 11 37  1  0
 11 38  1  0
 12 39  1  0
 12 40  1  0
 13 41  1  0
 13 42  1  0
 14 43  1  0
 14 44  1  0
 15 45  1  0
 16 46  1  0
 19 47  1  0
 19 48  1  0
 22 49  1  0
 24 50  1  0
 25 51  1  0
 26 52  1  0
 27 53  1  0
 28 54  1  0
M  END
>  <UniqueID>  (19) 
18

>  <SMILES>  (19) 
CCOc1cc(C(=O)N2CCCCC2)ccc1OCC(=O)Nc1ccccc1

>  <Energy>  (19) 
64.68998072728009

>  <Genealogy>  (19) 
CCOc1cc(C(=O)N2CCCCC2)ccc1OCC(=O)Nc1ccccc1 (3D coordinates assigned)
CCOc1cc(C(=O)N2CCCCC2)ccc1OCC(=O)Nc1ccccc1 (nonaromatic ring conformer: 64.68998072728009 kcal/mol)

>  <smiles>  (19) 
CCOc1cc(C(=O)N2CCCCC2)ccc1OCC(=O)Nc1ccccc1

>  <score_type>  (19) 
oracle

>  <origin>  (19) 
adg

>  <m_score__min__energy>  (19) 
-8.2799999999999994

>  <m_primary>  (19) 
energy

$$$$
19:0
     RDKit          3D

 41 42  0  0  0  0  0  0  0  0999 V2000
   60.9065   28.4931   49.0271 H   0  0  0  0  0  0  0  0  0  0  0  0
   60.2250   28.5560   48.1660 C   0  0  0  0  0  0  0  0  0  0  0  0
   59.5090   29.6900   47.9490 N   0  0  0  0  0  0  0  0  0  0  0  0
   58.6540   29.8170   46.8980 C   0  0  0  0  0  0  0  0  0  0  0  0
   57.9340   31.0120   46.7600 O   0  0  0  0  0  0  0  0  0  0  0  0
   58.4790   32.2930   46.9420 C   0  0  0  0  0  0  0  0  0  0  0  0
   58.8790   32.7230   48.2190 C   0  0  0  0  0  0  0  0  0  0  0  0
   58.7877   32.0415   49.0776 H   0  0  0  0  0  0  0  0  0  0  0  0
   59.3900   34.0050   48.4060 C   0  0  0  0  0  0  0  0  0  0  0  0
   59.7002   34.3314   49.4096 H   0  0  0  0  0  0  0  0  0  0  0  0
   59.5090   34.8750   47.3240 C   0  0  0  0  0  0  0  0  0  0  0  0
   59.9065   35.8887   47.4805 H   0  0  0  0  0  0  0  0  0  0  0  0
   59.1260   34.4690   46.0360 C   0  0  0  0  0  0  0  0  0  0  0  0
   59.2680   35.4420   44.8940 C   0  0  0  0  0  0  0  0  0  0  0  0
   59.4160   36.4564   45.2928 H   0  0  0  0  0  0  0  0  0  0  0  0
   60.1345   35.1602   44.2778 H   0  0  0  0  0  0  0  0  0  0  0  0
   58.3571   35.4196   44.2778 H   0  0  0  0  0  0  0  0  0  0  0  0
   58.6390   33.1520   45.8320 C   0  0  0  0  0  0  0  0  0  0  0  0
   58.2060   32.6960   44.4600 C   0  0  0  0  0  0  0  0  0  0  0  0
   57.4516   31.9015   44.5588 H   0  0  0  0  0  0  0  0  0  0  0  0
   57.7741   33.5455   43.9106 H   0  0  0  0  0  0  0  0  0  0  0  0
   59.0767   32.3086   43.9106 H   0  0  0  0  0  0  0  0  0  0  0  0
   58.5330   28.7580   45.9680 C   0  0  0  0  0  0  0  0  0  0  0  0
   57.6930   28.8740   44.7490 C   0  0  0  0  0  0  0  0  0  0  0  0
   56.5120   29.6940   44.8250 N   0  0  0  0  0  0  0  0  0  0  0  0
   56.2490   30.0800   45.7610 H   0  0  0  0  0  0  0  0  0  0  0  0
   55.7620   30.1300   43.6450 C   0  0  0  0  0  0  0  0  0  0  0  0
   55.0455   30.9100   43.9419 H   0  0  0  0  0  0  0  0  0  0  0  0
   55.2333   29.2618   43.2246 H   0  0  0  0  0  0  0  0  0  0  0  0
   56.6990   30.6920   42.5800 C   0  0  0  0  0  0  0  0  0  0  0  0
   57.5450   31.1994   43.0667 H   0  0  0  0  0  0  0  0  0  0  0  0
   57.0758   29.8707   41.9527 H   0  0  0  0  0  0  0  0  0  0  0  0
   56.1518   31.4111   41.9527 H   0  0  0  0  0  0  0  0  0  0  0  0
   58.0170   28.2610   43.6390 N   0  0  0  0  0  0  0  0  0  0  0  0
   58.3680   28.7970   42.8160 H   0  0  0  0  0  0  0  0  0  0  0  0
   57.8720   26.8750   43.4560 C   0  0  0  0  0  0  0  0  0  0  0  0
   57.7550   25.7330   43.3050 N   0  0  0  0  0  0  0  0  0  0  0  0
   59.2460   27.5750   46.1960 C   0  0  0  0  0  0  0  0  0  0  0  0
   59.1356   26.7258   45.5056 H   0  0  0  0  0  0  0  0  0  0  0  0
   60.0970   27.4710   47.2980 C   0  0  0  0  0  0  0  0  0  0  0  0
   60.6604   26.5439   47.4799 H   0  0  0  0  0  0  0  0  0  0  0  0
  1  2  1  0
  2  3  2  0
  3  4  1  0
  4  5  1  0
  5  6  1  0
  6  7  2  0
  7  8  1  0
  7  9  1  0
  9 10  1  0
  9 11  2  0
 11 12  1  0
 11 13  1  0
 13 14  1  0
 14 15  1  0
 14 16  1  0
 14 17  1  0
 13 18  2  0
 18 19  1  0
 19 20  1  0
 19 21  1  0
 19 22  1  0
  4 23  2  0
 23 24  1  0
 24 25  1  0
 25 26  1  0
 25 27  1  0
 27 28  1  0
 27 29  1  0
 27 30  1  0
 30 31  1  0
 30 32  1  0
 30 33  1  0
 24 34  2  0
 34 35  1  0
 34 36  1  0
 36 37  3  0
 23 38  1  0
 38 39  1  0
 38 40  2  0
 40 41  1  0
 40  2  1  0
 18  6  1  0
M  CHG  1  34   1
M  END
>  <UniqueID>  (20) 
19

>  <SMILES>  (20) 
CCN/C(=[NH+]/C#N)c1cccnc1Oc1cccc(C)c1C

>  <Energy>  (20) 
51.541569457965636

>  <Genealogy>  (20) 
CCNC(=[NH+]C#N)c1cccnc1Oc1cccc(C)c1C (protonated)
CCN/C(=[NH+]/C#N)c1cccnc1Oc1cccc(C)c1C (cis-trans isomerization)
CCN/C(=[NH+]/C#N)c1cccnc1Oc1cccc(C)c1C (3D coordinates assigned)
CCN/C(=[NH+]/C#N)c1cccnc1Oc1cccc(C)c1C (optimized conformer: 51.541569457965636 kcal/mol)

>  <smiles>  (20) 
CCNC(=NC#N)c1cccnc1Oc1cccc(C)c1C

>  <score_type>  (20) 
oracle

>  <origin>  (20) 
adg

>  <m_score__min__energy>  (20) 
-5.75

>  <m_primary>  (20) 
energy

$$$$
20:0
     RDKit          3D

 43 45  0  0  0  0  0  0  0  0999 V2000
   55.8870   30.0870   43.5960 C   0  0  0  0  0  0  0  0  0  0  0  0
   56.5370   30.0910   44.8620 O   0  0  0  0  0  0  0  0  0  0  0  0
   57.8290   29.5930   45.1010 C   0  0  0  0  0  0  0  0  0  0  0  0
   58.2680   28.3770   44.5400 C   0  0  0  0  0  0  0  0  0  0  0  0
   59.5600   27.9070   44.7920 C   0  0  0  0  0  0  0  0  0  0  0  0
   60.4270   28.6410   45.5990 C   0  0  0  0  0  0  0  0  0  0  0  0
   60.0070   29.8490   46.1610 C   0  0  0  0  0  0  0  0  0  0  0  0
   58.7080   30.3310   45.9250 C   0  0  0  0  0  0  0  0  0  0  0  0
   58.2950   31.6570   46.5170 C   0  0  0  0  0  0  0  0  0  0  0  0
   58.4080   32.7910   45.4790 C   0  0  1  0  0  0  0  0  0  0  0  0
   57.1840   33.6890   45.3580 C   0  0  0  0  0  0  0  0  0  0  0  0
   57.5990   34.9640   44.9050 O   0  0  0  0  0  0  0  0  0  0  0  0
   59.0100   34.9490   44.8320 C   0  0  0  0  0  0  0  0  0  0  0  0
   59.5300   33.7940   45.6760 C   0  0  1  0  0  0  0  0  0  0  0  0
   59.8900   34.2110   47.1390 C   0  0  0  0  0  0  0  0  0  0  0  0
   61.3030   33.9250   47.6250 C   0  0  0  0  0  0  0  0  0  0  0  0
   62.3020   33.4680   46.7440 C   0  0  0  0  0  0  0  0  0  0  0  0
   63.5910   33.1970   47.2100 C   0  0  0  0  0  0  0  0  0  0  0  0
   63.8920   33.3410   48.5660 C   0  0  0  0  0  0  0  0  0  0  0  0
   62.8970   33.7330   49.4610 C   0  0  0  0  0  0  0  0  0  0  0  0
   61.6050   34.0030   48.9980 C   0  0  0  0  0  0  0  0  0  0  0  0
   54.7970   30.0803   43.7435 H   0  0  0  0  0  0  0  0  0  0  0  0
   56.1753   30.9869   43.0330 H   0  0  0  0  0  0  0  0  0  0  0  0
   56.1863   29.1907   43.0330 H   0  0  0  0  0  0  0  0  0  0  0  0
   57.5896   27.7941   43.8997 H   0  0  0  0  0  0  0  0  0  0  0  0
   59.8932   26.9554   44.3522 H   0  0  0  0  0  0  0  0  0  0  0  0
   61.4436   28.2687   45.7938 H   0  0  0  0  0  0  0  0  0  0  0  0
   60.6977   30.4270   46.7926 H   0  0  0  0  0  0  0  0  0  0  0  0
   57.2522   31.5874   46.8601 H   0  0  0  0  0  0  0  0  0  0  0  0
   58.9658   31.8868   47.3579 H   0  0  0  0  0  0  0  0  0  0  0  0
   58.5767   32.1609   44.5933 H   0  0  0  0  0  0  0  0  0  0  0  0
   56.4751   33.2533   44.6385 H   0  0  0  0  0  0  0  0  0  0  0  0
   56.6893   33.7817   46.3361 H   0  0  0  0  0  0  0  0  0  0  0  0
   59.3252   34.8149   43.7867 H   0  0  0  0  0  0  0  0  0  0  0  0
   59.4149   35.9001   45.2081 H   0  0  0  0  0  0  0  0  0  0  0  0
   60.5056   33.3757   45.3875 H   0  0  0  0  0  0  0  0  0  0  0  0
   59.7266   35.2956   47.2218 H   0  0  0  0  0  0  0  0  0  0  0  0
   59.2442   33.5871   47.7744 H   0  0  0  0  0  0  0  0  0  0  0  0
   62.0654   33.3231   45.6796 H   0  0  0  0  0  0  0  0  0  0  0  0
   64.3709   32.8693   46.5068 H   0  0  0  0  0  0  0  0  0  0  0  0
   64.9123   33.1455   48.9276 H   0  0  0  0  0  0  0  0  0  0  0  0
   63.1284   33.8300   50.5320 H   0  0  0  0  0  0  0  0  0  0  0  0
   60.8168   34.2791   49.7139 H   0  0  0  0  0  0  0  0  0  0  0  0
  1  2  1  0
  2  3  1  0
  3  4  2  0
  4  5  1  0
  5  6  2  0
  6  7  1  0
  7  8  2  0
  8  9  1  0
  9 10  1  0
 10 11  1  0
 11 12  1  0
 12 13  1  0
 13 14  1  0
 14 15  1  0
 15 16  1  0
 16 17  2  0
 17 18  1  0
 18 19  2  0
 19 20  1  0
 20 21  2  0
  8  3  1  0
 14 10  1  0
 21 16  1  0
  1 22  1  0
  1 23  1  0
  1 24  1  0
  4 25  1  0
  5 26  1  0
  6 27  1  0
  7 28  1  0
  9 29  1  0
  9 30  1  0
 10 31  1  6
 11 32  1  0
 11 33  1  0
 13 34  1  0
 13 35  1  0
 14 36  1  6
 15 37  1  0
 15 38  1  0
 17 39  1  0
 18 40  1  0
 19 41  1  0
 20 42  1  0
 21 43  1  0
M  END
>  <UniqueID>  (21) 
20

>  <SMILES>  (21) 
COc1ccccc1C[C@H]1COC[C@H]1Cc1ccccc1

>  <Energy>  (21) 
49.93092273732374

>  <Genealogy>  (21) 
COc1ccccc1C[C@H]1COC[C@H]1Cc1ccccc1 (chirality)
COc1ccccc1C[C@H]1COC[C@H]1Cc1ccccc1 (3D coordinates assigned)
COc1ccccc1C[C@H]1COC[C@H]1Cc1ccccc1 (nonaromatic ring conformer: 49.93092273732374 kcal/mol)

>  <smiles>  (21) 
COc1ccccc1CC1COCC1Cc1ccccc1

>  <score_type>  (21) 
oracle

>  <origin>  (21) 
adg

>  <m_score__min__energy>  (21) 
-8.2799999999999994

>  <m_primary>  (21) 
energy

$$$$
21:0
     RDKit          3D

 33 35  0  0  0  0  0  0  0  0999 V2000
   57.9015   32.6707   43.2846 H   0  0  0  0  0  0  0  0  0  0  0  0
   58.1610   32.8580   44.3370 C   0  0  0  0  0  0  0  0  0  0  0  0
   58.7070   34.0880   44.7110 C   0  0  0  0  0  0  0  0  0  0  0  0
   58.8626   34.8687   43.9518 H   0  0  0  0  0  0  0  0  0  0  0  0
   59.0590   34.3370   46.0470 C   0  0  0  0  0  0  0  0  0  0  0  0
   59.6490   35.6720   46.4180 C   0  0  0  0  0  0  0  0  0  0  0  0
   59.6894   35.7634   47.5135 H   0  0  0  0  0  0  0  0  0  0  0  0
   60.6658   35.7508   46.0058 H   0  0  0  0  0  0  0  0  0  0  0  0
   59.0228   36.4769   46.0058 H   0  0  0  0  0  0  0  0  0  0  0  0
   58.8820   33.3170   47.0130 C   0  0  0  0  0  0  0  0  0  0  0  0
   59.2600   33.5310   48.4550 C   0  0  0  0  0  0  0  0  0  0  0  0
   58.4879   33.0939   49.1052 H   0  0  0  0  0  0  0  0  0  0  0  0
   60.2266   33.0461   48.6565 H   0  0  0  0  0  0  0  0  0  0  0  0
   59.3416   34.6093   48.6565 H   0  0  0  0  0  0  0  0  0  0  0  0
   58.3270   32.0850   46.6230 C   0  0  0  0  0  0  0  0  0  0  0  0
   58.1936   31.2877   47.3690 H   0  0  0  0  0  0  0  0  0  0  0  0
   57.9430   31.8630   45.2970 C   0  0  0  0  0  0  0  0  0  0  0  0
   57.4150   30.5860   44.9210 N   0  0  0  0  0  0  0  0  0  0  0  0
   57.6830   29.4420   45.4880 C   0  0  0  0  0  0  0  0  0  0  0  0
   56.6300   28.3960   45.4680 C   0  0  0  0  0  0  0  0  0  0  0  0
   55.5290   28.5920   44.8860 O   0  0  0  0  0  0  0  0  0  0  0  0
   56.8880   27.1360   46.1560 C   0  0  0  0  0  0  0  0  0  0  0  0
   56.0510   26.0890   46.2820 N   0  0  0  0  0  0  0  0  0  0  0  0
   56.7610   25.2180   47.0410 C   0  0  0  0  0  0  0  0  0  0  0  0
   56.3817   24.2311   47.3445 H   0  0  0  0  0  0  0  0  0  0  0  0
   57.9810   25.6840   47.3870 N   0  0  0  0  0  0  0  0  0  0  0  0
   58.7070   25.2050   47.9670 H   0  0  0  0  0  0  0  0  0  0  0  0
   58.0460   26.8960   46.8190 C   0  0  0  0  0  0  0  0  0  0  0  0
   59.1470   27.8580   46.8760 C   0  0  0  0  0  0  0  0  0  0  0  0
   60.1620   27.6160   47.5830 O   0  0  0  0  0  0  0  0  0  0  0  0
   59.0800   29.1260   46.0490 C   0  0  1  0  0  0  0  0  0  0  0  0
   59.3350   29.9593   46.7202 H   0  0  0  0  0  0  0  0  0  0  0  0
   60.2290   28.9700   44.6930 Cl  0  0  0  0  0  0  0  0  0  0  0  0
  1  2  1  0
  2  3  2  0
  3  4  1  0
  3  5  1  0
  5  6  1  0
  6  7  1  0
  6  8  1  0
  6  9  1  0
  5 10  2  0
 10 11  1  0
 11 12  1  0
 11 13  1  0
 11 14  1  0
 10 15  1  0
 15 16  1  0
 15 17  2  0
 17 18  1  0
 18 19  2  0
 19 20  1  0
 20 21  2  0
 20 22  1  0
 22 23  1  0
 23 24  2  0
 24 25  1  0
 24 26  1  0
 26 27  1  0
 26 28  1  0
 28 29  1  0
 29 30  2  0
 29 31  1  0
 31 32  1  1
 31 33  1  0
 17  2  1  0
 31 19  1  0
 28 22  2  0
M  END
>  <UniqueID>  (22) 
21

>  <SMILES>  (22) 
Cc1ccc(/N=C2/C(=O)c3nc[nH]c3C(=O)[C@H]2Cl)cc1C

>  <Energy>  (22) 
76.24726295371248

>  <Genealogy>  (22) 
Cc1ccc(N=C2C(=O)c3nc[nH]c3C(=O)[C@H]2Cl)cc1C (chirality)
Cc1ccc(/N=C2/C(=O)c3nc[nH]c3C(=O)[C@H]2Cl)cc1C (cis-trans isomerization)
Cc1ccc(/N=C2/C(=O)c3nc[nH]c3C(=O)[C@H]2Cl)cc1C (3D coordinates assigned)
Cc1ccc(/N=C2/C(=O)c3nc[nH]c3C(=O)[C@H]2Cl)cc1C (nonaromatic ring conformer: 76.24726295371248 kcal/mol)

>  <smiles>  (22) 
Cc1ccc(N=C2C(=O)c3nc[nH]c3C(=O)C2Cl)cc1C

>  <score_type>  (22) 
oracle

>  <origin>  (22) 
adg

>  <m_score__min__energy>  (22) 
-7.6299999999999999

>  <m_primary>  (22) 
energy

$$$$
22:0
     RDKit          3D

 43 45  0  0  0  0  0  0  0  0999 V2000
   54.3570   28.9780   44.4970 H   0  0  0  0  0  0  0  0  0  0  0  0
   55.1730   29.5130   44.8720 N   0  0  0  0  0  0  0  0  0  0  0  0
   56.2660   28.9200   45.2300 C   0  0  0  0  0  0  0  0  0  0  0  0
   56.2310   27.6150   45.6180 N   0  0  0  0  0  0  0  0  0  0  0  0
   57.3560   26.9570   46.0000 C   0  0  0  0  0  0  0  0  0  0  0  0
   57.3041   25.9024   46.3083 H   0  0  0  0  0  0  0  0  0  0  0  0
   58.5760   27.6290   45.9980 C   0  0  0  0  0  0  0  0  0  0  0  0
   59.4956   27.1097   46.3057 H   0  0  0  0  0  0  0  0  0  0  0  0
   58.6210   28.9310   45.6130 N   0  0  0  0  0  0  0  0  0  0  0  0
   57.5010   29.6030   45.2250 C   0  0  0  0  0  0  0  0  0  0  0  0
   57.6290   31.0560   44.8320 C   0  0  0  0  0  0  0  0  0  0  0  0
   58.5132   31.1741   44.1884 H   0  0  0  0  0  0  0  0  0  0  0  0
   56.7111   31.3484   44.3010 H   0  0  0  0  0  0  0  0  0  0  0  0
   57.7830   31.9760   46.0690 C   0  0  2  0  0  0  0  0  0  0  0  0
   57.3499   31.4011   46.9008 H   0  0  0  0  0  0  0  0  0  0  0  0
   56.9890   33.2810   45.9610 C   0  0  0  0  0  0  0  0  0  0  0  0
   55.9476   33.0389   45.7024 H   0  0  0  0  0  0  0  0  0  0  0  0
   57.0584   33.7935   46.9318 H   0  0  0  0  0  0  0  0  0  0  0  0
   57.5500   34.2270   44.8980 C   0  0  0  0  0  0  0  0  0  0  0  0
   57.0173   34.0376   43.9544 H   0  0  0  0  0  0  0  0  0  0  0  0
   57.4017   35.2481   45.2794 H   0  0  0  0  0  0  0  0  0  0  0  0
   59.0630   34.0730   44.6360 C   0  0  0  0  0  0  0  0  0  0  0  0
   59.1902   33.4286   43.7537 H   0  0  0  0  0  0  0  0  0  0  0  0
   59.4511   35.0932   44.4999 H   0  0  0  0  0  0  0  0  0  0  0  0
   59.8490   33.4830   45.7510 N   0  0  1  0  0  0  0  0  0  0  0  0
   60.7190   33.1330   45.2810 H   0  0  0  0  0  0  0  0  0  0  0  0
   60.3790   34.4900   46.7110 C   0  0  0  0  0  0  0  0  0  0  0  0
   60.6563   35.3905   46.1433 H   0  0  0  0  0  0  0  0  0  0  0  0
   59.5793   34.6673   47.4451 H   0  0  0  0  0  0  0  0  0  0  0  0
   61.5900   34.0410   47.5020 C   0  0  0  0  0  0  0  0  0  0  0  0
   61.6090   34.1380   48.9050 C   0  0  0  0  0  0  0  0  0  0  0  0
   60.7418   34.5580   49.4357 H   0  0  0  0  0  0  0  0  0  0  0  0
   62.7230   33.7040   49.6290 C   0  0  0  0  0  0  0  0  0  0  0  0
   62.7365   33.7981   50.7249 H   0  0  0  0  0  0  0  0  0  0  0  0
   63.8190   33.1510   48.9630 C   0  0  0  0  0  0  0  0  0  0  0  0
   64.7001   32.8212   49.5330 H   0  0  0  0  0  0  0  0  0  0  0  0
   63.7960   33.0170   47.5740 C   0  0  0  0  0  0  0  0  0  0  0  0
   64.6555   32.5721   47.0511 H   0  0  0  0  0  0  0  0  0  0  0  0
   62.6830   33.4470   46.8460 C   0  0  0  0  0  0  0  0  0  0  0  0
   62.6619   33.3200   45.7536 H   0  0  0  0  0  0  0  0  0  0  0  0
   59.2650   32.2730   46.4060 C   0  0  0  0  0  0  0  0  0  0  0  0
   59.8624   31.4015   46.0998 H   0  0  0  0  0  0  0  0  0  0  0  0
   59.2919   32.4749   47.4870 H   0  0  0  0  0  0  0  0  0  0  0  0
  1  2  1  0
  2  3  2  0
  3  4  1  0
  4  5  1  0
  5  6  1  0
  5  7  2  0
  7  8  1  0
  7  9  1  0
  9 10  2  0
 10 11  1  0
 11 12  1  0
 11 13  1  0
 11 14  1  0
 14 15  1  1
 14 16  1  0
 16 17  1  0
 16 18  1  0
 16 19  1  0
 19 20  1  0
 19 21  1  0
 19 22  1  0
 22 23  1  0
 22 24  1  0
 22 25  1  0
 25 26  1  6
 25 27  1  0
 27 28  1  0
 27 29  1  0
 27 30  1  0
 30 31  2  0
 31 32  1  0
 31 33  1  0
 33 34  1  0
 33 35  2  0
 35 36  1  0
 35 37  1  0
 37 38  1  0
 37 39  2  0
 39 40  1  0
 25 41  1  0
 41 42  1  0
 41 43  1  0
 10  3  1  0
 41 14  1  0
 39 30  1  0
M  CHG  2   4  -1  25   1
M  END
>  <UniqueID>  (23) 
22

>  <SMILES>  (23) 
[H]/N=c1\[n-]ccnc1C[C@@H]1CCC[N@@H+](Cc2ccccc2)C1

>  <Energy>  (23) 
63.15027675247513

>  <Genealogy>  (23) 
N=c1[n-]ccnc1CC1CCC[NH+](Cc2ccccc2)C1 (protonated)
N=c1[n-]ccnc1C[C@@H]1CCC[N@@H+](Cc2ccccc2)C1 (chirality)
[H]/N=c1\[n-]ccnc1C[C@@H]1CCC[N@@H+](Cc2ccccc2)C1 (cis-trans isomerization)
[H]/N=c1\[n-]ccnc1C[C@@H]1CCC[N@@H+](Cc2ccccc2)C1 (3D coordinates assigned)
[H]/N=c1\[n-]ccnc1C[C@@H]1CCC[N@@H+](Cc2ccccc2)C1 (nonaromatic ring conformer: 63.15027675247513 kcal/mol)

>  <smiles>  (23) 
N=c1[nH]ccnc1CC1CCCN(Cc2ccccc2)C1

>  <score_type>  (23) 
oracle

>  <origin>  (23) 
adg

>  <m_score__min__energy>  (23) 
-8.6899999999999995

>  <m_primary>  (23) 
energy

$$$$
23:0
     RDKit          3D

 39 41  0  0  0  0  0  0  0  0999 V2000
   56.0370   30.0750   44.8700 O   0  0  0  0  0  0  0  0  0  0  0  0
   57.1410   30.2580   44.2880 C   0  0  0  0  0  0  0  0  0  0  0  0
   57.3510   31.5710   43.5750 C   0  0  0  0  0  0  0  0  0  0  0  0
   57.8410   32.6190   44.5400 C   0  0  0  0  0  0  0  0  0  0  0  0
   58.7800   33.5790   44.1280 C   0  0  0  0  0  0  0  0  0  0  0  0
   59.2570   34.5320   45.0330 C   0  0  0  0  0  0  0  0  0  0  0  0
   58.8090   34.5280   46.3570 C   0  0  0  0  0  0  0  0  0  0  0  0
   59.2740   35.4530   47.2340 F   0  0  0  0  0  0  0  0  0  0  0  0
   57.8830   33.5690   46.7790 C   0  0  0  0  0  0  0  0  0  0  0  0
   57.4030   32.6150   45.8750 C   0  0  0  0  0  0  0  0  0  0  0  0
   58.1440   29.2100   44.3250 N   0  0  0  0  0  0  0  0  0  0  0  0
   57.8170   27.8870   43.7730 C   0  0  0  0  0  0  0  0  0  0  0  0
   57.4050   26.9560   44.8690 C   0  0  0  0  0  0  0  0  0  0  0  0
   58.0390   25.7760   45.2090 C   0  0  0  0  0  0  0  0  0  0  0  0
   57.3060   25.2510   46.2510 C   0  0  0  0  0  0  0  0  0  0  0  0
   56.2730   26.1380   46.4790 C   0  0  0  0  0  0  0  0  0  0  0  0
   56.3590   27.1440   45.6400 O   0  0  0  0  0  0  0  0  0  0  0  0
   59.4990   29.4410   44.8450 C   0  0  0  0  0  0  0  0  0  0  0  0
   59.5710   29.1090   46.3040 C   0  0  0  0  0  0  0  0  0  0  0  0
   60.1070   27.9490   46.8470 C   0  0  0  0  0  0  0  0  0  0  0  0
   59.9730   27.8780   48.2380 C   0  0  0  0  0  0  0  0  0  0  0  0
   59.3140   28.9700   48.7910 C   0  0  0  0  0  0  0  0  0  0  0  0
   58.8980   30.0210   47.5460 S   0  0  0  0  0  0  0  0  0  0  0  0
   58.0965   31.4354   42.7776 H   0  0  0  0  0  0  0  0  0  0  0  0
   56.3939   31.9010   43.1449 H   0  0  0  0  0  0  0  0  0  0  0  0
   59.1415   33.5810   43.0891 H   0  0  0  0  0  0  0  0  0  0  0  0
   59.9862   35.2863   44.7025 H   0  0  0  0  0  0  0  0  0  0  0  0
   57.5320   33.5646   47.8215 H   0  0  0  0  0  0  0  0  0  0  0  0
   56.6791   31.8581   46.2112 H   0  0  0  0  0  0  0  0  0  0  0  0
   56.9917   27.9879   43.0528 H   0  0  0  0  0  0  0  0  0  0  0  0
   58.7064   27.4783   43.2710 H   0  0  0  0  0  0  0  0  0  0  0  0
   58.9393   25.3463   44.7454 H   0  0  0  0  0  0  0  0  0  0  0  0
   57.5040   24.3140   46.7921 H   0  0  0  0  0  0  0  0  0  0  0  0
   55.4952   26.0197   47.2477 H   0  0  0  0  0  0  0  0  0  0  0  0
   60.2097   28.8066   44.2950 H   0  0  0  0  0  0  0  0  0  0  0  0
   59.7523   30.5031   44.7115 H   0  0  0  0  0  0  0  0  0  0  0  0
   60.5885   27.1648   46.2444 H   0  0  0  0  0  0  0  0  0  0  0  0
   60.3532   27.0376   48.8373 H   0  0  0  0  0  0  0  0  0  0  0  0
   59.1012   29.1207   49.8596 H   0  0  0  0  0  0  0  0  0  0  0  0
  1  2  2  0
  2  3  1  0
  3  4  1  0
  4  5  2  0
  5  6  1  0
  6  7  2  0
  7  8  1  0
  7  9  1  0
  9 10  2  0
  2 11  1  0
 11 12  1  0
 12 13  1  0
 13 14  2  0
 14 15  1  0
 15 16  2  0
 16 17  1  0
 11 18  1  0
 18 19  1  0
 19 20  2  0
 20 21  1  0
 21 22  2  0
 22 23  1  0
 10  4  1  0
 17 13  1  0
 23 19  1  0
  3 24  1  0
  3 25  1  0
  5 26  1  0
  6 27  1  0
  9 28  1  0
 10 29  1  0
 12 30  1  0
 12 31  1  0
 14 32  1  0
 15 33  1  0
 16 34  1  0
 18 35  1  0
 18 36  1  0
 20 37  1  0
 21 38  1  0
 22 39  1  0
M  END
>  <UniqueID>  (24) 
23

>  <SMILES>  (24) 
O=C(Cc1ccc(F)cc1)N(Cc1ccco1)Cc1cccs1

>  <Energy>  (24) 
88.23093705343544

>  <Genealogy>  (24) 
O=C(Cc1ccc(F)cc1)N(Cc1ccco1)Cc1cccs1 (3D coordinates assigned)
O=C(Cc1ccc(F)cc1)N(Cc1ccco1)Cc1cccs1 (optimized conformer: 88.23093705343544 kcal/mol)

>  <smiles>  (24) 
O=C(Cc1ccc(F)cc1)N(Cc1ccco1)Cc1cccs1

>  <score_type>  (24) 
oracle

>  <origin>  (24) 
adg

>  <m_score__min__energy>  (24) 
-7.0499999999999998

>  <m_primary>  (24) 
energy

$$$$
24:0
     RDKit          3D

 26 28  0  0  1  0  0  0  0  0999 V2000
   56.5000   30.2460   44.8740 N   0  0  0  0  0  0  0  0  0  0  0  0
   57.2260   29.3480   45.4250 C   0  0  0  0  0  0  0  0  0  0  0  0
   57.0490   28.0540   44.8360 N   0  0  0  0  0  0  0  0  0  0  0  0
   58.0530   26.9440   45.6380 S   0  0  0  0  0  0  0  0  0  0  0  0
   58.6970   28.1080   46.7170 C   0  0  0  0  0  0  0  0  0  0  0  0
   59.6160   27.9080   47.6960 N   0  0  0  0  0  0  0  0  0  0  0  0
   60.0300   28.9250   48.4720 C   0  0  0  0  0  0  0  0  0  0  0  0
   59.4890   30.1180   48.2180 N   0  0  0  0  0  0  0  0  0  0  0  0
   58.5690   30.3550   47.2470 C   0  0  0  0  0  0  0  0  0  0  0  0
   58.1630   31.5200   47.1380 N   0  0  0  0  0  0  0  0  0  0  0  0
   58.5960   32.6830   46.6100 C   0  0  0  0  0  0  0  0  0  0  0  0
   59.2790   33.6180   47.4180 C   0  0  0  0  0  0  0  0  0  0  0  0
   59.6310   34.8550   46.9230 C   0  0  0  0  0  0  0  0  0  0  0  0
   59.3090   35.1720   45.6250 C   0  0  0  0  0  0  0  0  0  0  0  0
   59.6530   36.3810   45.1420 F   0  0  0  0  0  0  0  0  0  0  0  0
   58.6370   34.2710   44.8050 C   0  0  0  0  0  0  0  0  0  0  0  0
   58.2750   33.0280   45.2790 C   0  0  0  0  0  0  0  0  0  0  0  0
   58.1110   29.3120   46.4160 C   0  0  0  0  0  0  0  0  0  0  0  0
   56.2660   31.1300   45.2560 H   0  0  0  0  0  0  0  0  0  0  0  0
   56.3340   27.8920   43.9780 H   0  0  0  0  0  0  0  0  0  0  0  0
   60.7725   28.7817   49.2709 H   0  0  0  0  0  0  0  0  0  0  0  0
   59.8280   30.9070   48.8390 H   0  0  0  0  0  0  0  0  0  0  0  0
   59.5333   33.3558   48.4556 H   0  0  0  0  0  0  0  0  0  0  0  0
   60.1625   35.5789   47.5582 H   0  0  0  0  0  0  0  0  0  0  0  0
   58.3926   34.5527   43.7702 H   0  0  0  0  0  0  0  0  0  0  0  0
   57.7442   32.3159   44.6301 H   0  0  0  0  0  0  0  0  0  0  0  0
  1  2  2  3
  2  3  1  0
  3  4  1  0
  4  5  1  0
  5  6  1  0
  6  7  2  0
  7  8  1  0
  8  9  1  0
  9 10  2  0
 10 11  1  0
 11 12  2  0
 12 13  1  0
 13 14  2  0
 14 15  1  0
 14 16  1  0
 16 17  2  0
  9 18  1  0
 18  2  1  0
 18  5  2  0
 17 11  1  0
  1 19  1  0
  3 20  1  0
  7 21  1  0
  8 22  1  0
 12 23  1  0
 13 24  1  0
 16 25  1  0
 17 26  1  0
M  END
>  <smiles>  (25) 
N=c1[nH]sc2nc[nH]c(=Nc3ccc(F)cc3)c12

>  <score_type>  (25) 
oracle

>  <origin>  (25) 
adg

>  <m_score__min__energy>  (25) 
-6.1600000000000001

>  <m_primary>  (25) 
energy

$$$$
25:0
     RDKit          3D

 26 28  0  0  0  0  0  0  0  0999 V2000
   55.1170   23.5480   46.7970 C   0  0  0  0  0  0  0  0  0  0  0  0
   55.9030   24.8000   46.5980 C   0  0  0  0  0  0  0  0  0  0  0  0
   55.3920   25.9130   46.0050 N   0  0  0  0  0  0  0  0  0  0  0  0
   56.4720   26.7130   46.0070 C   0  0  0  0  0  0  0  0  0  0  0  0
   56.5220   27.9770   45.5210 N   0  0  0  0  0  0  0  0  0  0  0  0
   57.7000   28.6750   45.5860 C   0  0  0  0  0  0  0  0  0  0  0  0
   57.7490   30.0590   45.0480 C   0  0  0  0  0  0  0  0  0  0  0  0
   58.1360   31.1470   45.8570 C   0  0  0  0  0  0  0  0  0  0  0  0
   58.1680   32.4440   45.3320 C   0  0  0  0  0  0  0  0  0  0  0  0
   57.8110   32.6710   44.0010 C   0  0  0  0  0  0  0  0  0  0  0  0
   57.4150   31.6020   43.1930 C   0  0  0  0  0  0  0  0  0  0  0  0
   57.3800   30.3050   43.7120 C   0  0  0  0  0  0  0  0  0  0  0  0
   58.8490   28.0560   46.1470 C   0  0  0  0  0  0  0  0  0  0  0  0
   58.7440   26.7450   46.6340 C   0  0  0  0  0  0  0  0  0  0  0  0
   59.7380   26.1560   47.1350 O   0  0  0  0  0  0  0  0  0  0  0  0
   57.5420   26.1290   46.5430 N   0  0  0  0  0  0  0  0  0  0  0  0
   57.2160   24.9100   46.9190 N   0  0  0  0  0  0  0  0  0  0  0  0
   54.9974   23.3574   47.8737 H   0  0  0  0  0  0  0  0  0  0  0  0
   54.1263   23.6592   46.3320 H   0  0  0  0  0  0  0  0  0  0  0  0
   55.6477   22.7041   46.3320 H   0  0  0  0  0  0  0  0  0  0  0  0
   58.4145   30.9754   46.9072 H   0  0  0  0  0  0  0  0  0  0  0  0
   58.4750   33.2865   45.9691 H   0  0  0  0  0  0  0  0  0  0  0  0
   57.8415   33.6905   43.5891 H   0  0  0  0  0  0  0  0  0  0  0  0
   57.1301   31.7818   42.1459 H   0  0  0  0  0  0  0  0  0  0  0  0
   57.0615   29.4695   43.0713 H   0  0  0  0  0  0  0  0  0  0  0  0
   59.8058   28.5963   46.1986 H   0  0  0  0  0  0  0  0  0  0  0  0
  1  2  1  0
  2  3  1  0
  3  4  2  0
  4  5  1  0
  5  6  1  0
  6  7  1  0
  7  8  2  0
  8  9  1  0
  9 10  2  0
 10 11  1  0
 11 12  2  0
  6 13  2  0
 13 14  1  0
 14 15  2  0
 14 16  1  0
 16 17  1  0
 17  2  2  0
 16  4  1  0
 12  7  1  0
  1 18  1  0
  1 19  1  0
  1 20  1  0
  8 21  1  0
  9 22  1  0
 10 23  1  0
 11 24  1  0
 12 25  1  0
 13 26  1  0
M  CHG  1   5  -1
M  END
>  <UniqueID>  (26) 
24

>  <SMILES>  (26) 
Cc1nc2[n-]c(-c3ccccc3)cc(=O)n2n1

>  <Energy>  (26) 
71.46669171531073

>  <Genealogy>  (26) 
Cc1nc2[n-]c(-c3ccccc3)cc(=O)n2n1 (protonated)
Cc1nc2[n-]c(-c3ccccc3)cc(=O)n2n1 (3D coordinates assigned)
Cc1nc2[n-]c(-c3ccccc3)cc(=O)n2n1 (optimized conformer: 71.46669171531073 kcal/mol)

>  <smiles>  (26) 
Cc1nc2[nH]c(-c3ccccc3)cc(=O)n2n1

>  <score_type>  (26) 
oracle

>  <origin>  (26) 
adg

>  <m_score__min__energy>  (26) 
-7.9800000000000004

>  <m_primary>  (26) 
energy

$$$$
26:0
     RDKit          3D

 51 55  0  0  0  0  0  0  0  0999 V2000
   65.5890   33.1950   50.3620 C   0  0  0  0  0  0  0  0  0  0  0  0
   64.3050   33.6060   49.9090 O   0  0  0  0  0  0  0  0  0  0  0  0
   63.4500   32.7640   49.1950 C   0  0  0  0  0  0  0  0  0  0  0  0
   62.5310   31.9720   49.8880 C   0  0  0  0  0  0  0  0  0  0  0  0
   61.6430   31.1570   49.1780 C   0  0  0  0  0  0  0  0  0  0  0  0
   60.6400   30.3500   49.8900 C   0  0  0  0  0  0  0  0  0  0  0  0
   60.8550   29.0720   50.3970 C   0  0  0  0  0  0  0  0  0  0  0  0
   59.7950   28.6680   51.1320 N   0  0  0  0  0  0  0  0  0  0  0  0
   58.9160   29.6810   51.0840 C   0  0  0  0  0  0  0  0  0  0  0  0
   57.7140   29.7120   51.7050 N   0  0  0  0  0  0  0  0  0  0  0  0
   56.9310   30.8180   51.5570 C   0  0  0  0  0  0  0  0  0  0  0  0
   57.3460   31.8650   50.7780 N   0  0  0  0  0  0  0  0  0  0  0  0
   58.5550   31.8460   50.1350 C   0  0  0  0  0  0  0  0  0  0  0  0
   58.8910   32.9010   49.2180 N   0  0  0  0  0  0  0  0  0  0  0  0
   60.0780   33.7210   49.4700 C   0  0  0  0  0  0  0  0  0  0  0  0
   60.3780   34.5900   48.2550 C   0  0  0  0  0  0  0  0  0  0  0  0
   60.4080   33.7750   47.1040 O   0  0  0  0  0  0  0  0  0  0  0  0
   59.1100   33.3030   46.7430 C   0  0  0  0  0  0  0  0  0  0  0  0
   59.2780   32.0100   45.9340 C   0  0  0  0  0  0  0  0  0  0  0  0
   58.1230   31.9740   44.9370 C   0  0  0  0  0  0  0  0  0  0  0  0
   57.5790   33.3970   44.8440 C   0  0  0  0  0  0  0  0  0  0  0  0
   58.4780   34.2580   45.7210 C   0  0  0  0  0  0  0  0  0  0  0  0
   58.1460   33.0540   47.9610 C   0  0  0  0  0  0  0  0  0  0  0  0
   59.3730   30.7230   50.3260 C   0  0  0  0  0  0  0  0  0  0  0  0
   61.7370   31.0950   47.7810 C   0  0  0  0  0  0  0  0  0  0  0  0
   62.6760   31.8920   47.1220 C   0  0  0  0  0  0  0  0  0  0  0  0
   63.4990   32.7050   47.8340 N   0  0  0  0  0  0  0  0  0  0  0  0
   65.6054   33.1897   51.4619 H   0  0  0  0  0  0  0  0  0  0  0  0
   65.8035   32.1833   49.9872 H   0  0  0  0  0  0  0  0  0  0  0  0
   66.3511   33.8941   49.9872 H   0  0  0  0  0  0  0  0  0  0  0  0
   62.5058   31.9893   50.9876 H   0  0  0  0  0  0  0  0  0  0  0  0
   61.7616   28.4737   50.2237 H   0  0  0  0  0  0  0  0  0  0  0  0
   59.6930   27.7660   51.6460 H   0  0  0  0  0  0  0  0  0  0  0  0
   55.9580   30.8699   52.0674 H   0  0  0  0  0  0  0  0  0  0  0  0
   56.7040   32.6790   50.6500 H   0  0  0  0  0  0  0  0  0  0  0  0
   59.8971   34.3653   50.3430 H   0  0  0  0  0  0  0  0  0  0  0  0
   60.9374   33.0625   49.6642 H   0  0  0  0  0  0  0  0  0  0  0  0
   59.5944   35.3542   48.1455 H   0  0  0  0  0  0  0  0  0  0  0  0
   61.3509   35.0867   48.3843 H   0  0  0  0  0  0  0  0  0  0  0  0
   60.2405   32.0165   45.4015 H   0  0  0  0  0  0  0  0  0  0  0  0
   59.2686   31.1256   46.5881 H   0  0  0  0  0  0  0  0  0  0  0  0
   58.4825   31.6405   43.9523 H   0  0  0  0  0  0  0  0  0  0  0  0
   57.3411   31.2721   45.2626 H   0  0  0  0  0  0  0  0  0  0  0  0
   57.6122   33.7499   43.8027 H   0  0  0  0  0  0  0  0  0  0  0  0
   56.5315   33.4464   45.1761 H   0  0  0  0  0  0  0  0  0  0  0  0
   59.2586   34.7386   45.1130 H   0  0  0  0  0  0  0  0  0  0  0  0
   57.9106   35.0602   46.2156 H   0  0  0  0  0  0  0  0  0  0  0  0
   57.4604   33.9091   48.0542 H   0  0  0  0  0  0  0  0  0  0  0  0
   57.5901   32.1232   47.7751 H   0  0  0  0  0  0  0  0  0  0  0  0
   61.0778   30.4253   47.2091 H   0  0  0  0  0  0  0  0  0  0  0  0
   62.7491   31.8612   46.0249 H   0  0  0  0  0  0  0  0  0  0  0  0
  1  2  1  0
  2  3  1  0
  3  4  2  0
  4  5  1  0
  5  6  1  0
  6  7  2  0
  7  8  1  0
  8  9  1  0
  9 10  2  0
 10 11  1  0
 11 12  2  0
 12 13  1  0
 13 14  1  0
 14 15  1  0
 15 16  1  0
 16 17  1  0
 17 18  1  0
 18 19  1  0
 19 20  1  0
 20 21  1  0
 21 22  1  0
 18 23  1  0
 13 24  2  0
  5 25  2  0
 25 26  1  0
 26 27  2  0
 27  3  1  0
 24  6  1  0
 24  9  1  0
 23 14  1  0
 22 18  1  0
  1 28  1  0
  1 29  1  0
  1 30  1  0
  4 31  1  0
  7 32  1  0
  8 33  1  0
 11 34  1  0
 12 35  1  0
 15 36  1  0
 15 37  1  0
 16 38  1  0
 16 39  1  0
 19 40  1  0
 19 41  1  0
 20 42  1  0
 20 43  1  0
 21 44  1  0
 21 45  1  0
 22 46  1  0
 22 47  1  0
 23 48  1  0
 23 49  1  0
 25 50  1  0
 26 51  1  0
M  CHG  1  12   1
M  END
>  <UniqueID>  (27) 
25

>  <SMILES>  (27) 
COc1cc(-c2c[nH]c3nc[nH+]c(N4CCOC5(CCCC5)C4)c23)ccn1

>  <Energy>  (27) 
108.92899054580099

>  <Genealogy>  (27) 
COc1cc(-c2c[nH]c3nc[nH+]c(N4CCOC5(CCCC5)C4)c23)ccn1 (protonated)
COc1cc(-c2c[nH]c3nc[nH+]c(N4CCOC5(CCCC5)C4)c23)ccn1 (3D coordinates assigned)
COc1cc(-c2c[nH]c3nc[nH+]c(N4CCOC5(CCCC5)C4)c23)ccn1 (nonaromatic ring conformer: 108.92899054580099 kcal/mol)

>  <smiles>  (27) 
COc1cc(-c2c[nH]c3ncnc(N4CCOC5(CCCC5)C4)c23)ccn1

>  <score_type>  (27) 
oracle

>  <origin>  (27) 
adg

>  <m_score__min__energy>  (27) 
-6.4199999999999999

>  <m_primary>  (27) 
energy

$$$$
27:0
     RDKit          3D

 24 25  0  0  0  0  0  0  0  0999 V2000
   55.5320   26.7910   45.9350 O   0  0  0  0  0  0  0  0  0  0  0  0
   56.2690   27.7600   45.6110 C   0  0  0  0  0  0  0  0  0  0  0  0
   55.6630   28.9110   45.0070 N   0  0  0  0  0  0  0  0  0  0  0  0
   56.3510   29.9750   44.3330 C   0  0  0  0  0  0  0  0  0  0  0  0
   56.3110   30.0280   42.9340 C   0  0  0  0  0  0  0  0  0  0  0  0
   56.9880   31.0410   42.2470 C   0  0  0  0  0  0  0  0  0  0  0  0
   57.7220   31.9980   42.9530 C   0  0  0  0  0  0  0  0  0  0  0  0
   57.7890   31.9370   44.3490 C   0  0  0  0  0  0  0  0  0  0  0  0
   58.7250   33.1270   45.2340 Cl  0  0  0  0  0  0  0  0  0  0  0  0
   57.1140   30.9240   45.0380 C   0  0  0  0  0  0  0  0  0  0  0  0
   57.7140   27.7170   45.9250 C   0  0  0  0  0  0  0  0  0  0  0  0
   58.6780   27.8910   44.9180 C   0  0  0  0  0  0  0  0  0  0  0  0
   60.0340   27.8340   45.2470 C   0  0  0  0  0  0  0  0  0  0  0  0
   60.4200   27.5990   46.5670 C   0  0  0  0  0  0  0  0  0  0  0  0
   59.4380   27.4200   47.5430 C   0  0  0  0  0  0  0  0  0  0  0  0
   58.1230   27.4790   47.2040 N   0  0  0  0  0  0  0  0  0  0  0  0
   55.7448   29.2698   42.3732 H   0  0  0  0  0  0  0  0  0  0  0  0
   56.9426   31.0845   41.1488 H   0  0  0  0  0  0  0  0  0  0  0  0
   58.2468   32.7988   42.4113 H   0  0  0  0  0  0  0  0  0  0  0  0
   57.1799   30.8691   46.1346 H   0  0  0  0  0  0  0  0  0  0  0  0
   58.3671   28.0708   43.8783 H   0  0  0  0  0  0  0  0  0  0  0  0
   60.7966   27.9742   44.4667 H   0  0  0  0  0  0  0  0  0  0  0  0
   61.4858   27.5553   46.8356 H   0  0  0  0  0  0  0  0  0  0  0  0
   59.7286   27.2311   48.5870 H   0  0  0  0  0  0  0  0  0  0  0  0
  1  2  2  0
  2  3  1  0
  3  4  1  0
  4  5  2  0
  5  6  1  0
  6  7  2  0
  7  8  1  0
  8  9  1  0
  8 10  2  0
  2 11  1  0
 11 12  2  0
 12 13  1  0
 13 14  2  0
 14 15  1  0
 15 16  2  0
 10  4  1  0
 16 11  1  0
  5 17  1  0
  6 18  1  0
  7 19  1  0
 10 20  1  0
 12 21  1  0
 13 22  1  0
 14 23  1  0
 15 24  1  0
M  CHG  1   3  -1
M  END
>  <UniqueID>  (28) 
26

>  <SMILES>  (28) 
O=C([N-]c1cccc(Cl)c1)c1ccccn1

>  <Energy>  (28) 
31.023637908985744

>  <Genealogy>  (28) 
O=C([N-]c1cccc(Cl)c1)c1ccccn1 (protonated)
O=C([N-]c1cccc(Cl)c1)c1ccccn1 (3D coordinates assigned)
O=C([N-]c1cccc(Cl)c1)c1ccccn1 (optimized conformer: 31.023637908985744 kcal/mol)

>  <smiles>  (28) 
O=C(Nc1cccc(Cl)c1)c1ccccn1

>  <score_type>  (28) 
oracle

>  <origin>  (28) 
adg

>  <m_score__min__energy>  (28) 
-8.4800000000000004

>  <m_primary>  (28) 
energy

$$$$
28:0
     RDKit          3D

 32 33  0  0  0  0  0  0  0  0999 V2000
   63.2210   33.0280   48.5970 C   0  0  0  0  0  0  0  0  0  0  0  0
   61.9880   33.6480   48.0310 C   0  0  0  0  0  0  0  0  0  0  0  0
   60.9100   34.1250   48.7670 C   0  0  0  0  0  0  0  0  0  0  0  0
   59.8550   34.5770   47.9670 C   0  0  0  0  0  0  0  0  0  0  0  0
   60.1010   34.4440   46.6040 C   0  0  0  0  0  0  0  0  0  0  0  0
   59.1520   34.8210   45.4960 C   0  0  0  0  0  0  0  0  0  0  0  0
   58.0560   33.8440   45.2840 N   0  0  0  0  0  0  0  0  0  0  0  0
   57.3080   33.5860   46.5260 C   0  0  0  0  0  0  0  0  0  0  0  0
   58.4880   32.5710   44.6610 C   0  0  0  0  0  0  0  0  0  0  0  0
   57.3890   31.9760   43.7730 C   0  0  0  0  0  0  0  0  0  0  0  0
   56.8780   30.6950   44.3580 C   0  0  0  0  0  0  0  0  0  0  0  0
   55.6500   30.1280   44.1180 C   0  0  0  0  0  0  0  0  0  0  0  0
   55.5290   29.0220   44.8710 N   0  0  0  0  0  0  0  0  0  0  0  0
   56.6920   28.9580   45.5530 C   0  0  0  0  0  0  0  0  0  0  0  0
   57.5420   29.9690   45.2740 N   0  0  0  0  0  0  0  0  0  0  0  0
   61.6220   33.7520   46.3930 S   0  0  0  0  0  0  0  0  0  0  0  0
   63.1725   33.0524   49.6957 H   0  0  0  0  0  0  0  0  0  0  0  0
   63.2964   31.9848   48.2564 H   0  0  0  0  0  0  0  0  0  0  0  0
   64.1034   33.5896   48.2564 H   0  0  0  0  0  0  0  0  0  0  0  0
   60.8884   34.1451   49.8666 H   0  0  0  0  0  0  0  0  0  0  0  0
   58.9234   34.9960   48.3751 H   0  0  0  0  0  0  0  0  0  0  0  0
   58.7045   35.7957   45.7401 H   0  0  0  0  0  0  0  0  0  0  0  0
   59.7404   34.8468   44.5670 H   0  0  0  0  0  0  0  0  0  0  0  0
   57.9486   33.8070   47.3925 H   0  0  0  0  0  0  0  0  0  0  0  0
   56.4155   34.2282   46.5566 H   0  0  0  0  0  0  0  0  0  0  0  0
   57.0012   32.5301   46.5566 H   0  0  0  0  0  0  0  0  0  0  0  0
   59.3807   32.7592   44.0465 H   0  0  0  0  0  0  0  0  0  0  0  0
   58.7084   31.8522   45.4640 H   0  0  0  0  0  0  0  0  0  0  0  0
   56.5594   32.6940   43.6936 H   0  0  0  0  0  0  0  0  0  0  0  0
   57.8088   31.7699   42.7773 H   0  0  0  0  0  0  0  0  0  0  0  0
   54.8904   30.5159   43.4233 H   0  0  0  0  0  0  0  0  0  0  0  0
   56.9255   28.1566   46.2695 H   0  0  0  0  0  0  0  0  0  0  0  0
  1  2  1  0
  2  3  2  0
  3  4  1  0
  4  5  2  0
  5  6  1  0
  6  7  1  0
  7  8  1  0
  7  9  1  0
  9 10  1  0
 10 11  1  0
 11 12  2  0
 12 13  1  0
 13 14  1  0
 14 15  2  0
  5 16  1  0
 16  2  1  0
 15 11  1  0
  1 17  1  0
  1 18  1  0
  1 19  1  0
  3 20  1  0
  4 21  1  0
  6 22  1  0
  6 23  1  0
  8 24  1  0
  8 25  1  0
  8 26  1  0
  9 27  1  0
  9 28  1  0
 10 29  1  0
 10 30  1  0
 12 31  1  0
 14 32  1  0
M  CHG  1  13  -1
M  END
>  <UniqueID>  (29) 
27

>  <SMILES>  (29) 
Cc1ccc(CN(C)CCc2c[n-]cn2)s1

>  <Energy>  (29) 
83.8842698322427

>  <Genealogy>  (29) 
Cc1ccc(CN(C)CCc2c[n-]cn2)s1 (protonated)
Cc1ccc(CN(C)CCc2c[n-]cn2)s1 (3D coordinates assigned)
Cc1ccc(CN(C)CCc2c[n-]cn2)s1 (optimized conformer: 83.8842698322427 kcal/mol)

>  <smiles>  (29) 
Cc1ccc(CN(C)CCc2c[nH]cn2)s1

>  <score_type>  (29) 
oracle

>  <origin>  (29) 
adg

>  <m_score__min__energy>  (29) 
-7.8300000000000001

>  <m_primary>  (29) 
energy

$$$$
29:0
     RDKit          3D

 29 30  0  0  0  0  0  0  0  0999 V2000
   56.2700   30.0780   42.9470 C   0  0  0  0  0  0  0  0  0  0  0  0
   57.1460   29.3130   44.3460 S   0  0  0  0  0  0  0  0  0  0  0  0
   57.6530   30.8850   45.0440 C   0  0  0  0  0  0  0  0  0  0  0  0
   58.1700   30.9420   46.3440 C   0  0  0  0  0  0  0  0  0  0  0  0
   58.5620   32.1670   46.8900 C   0  0  0  0  0  0  0  0  0  0  0  0
   58.4320   33.3420   46.1400 C   0  0  0  0  0  0  0  0  0  0  0  0
   58.9260   34.9160   46.8430 S   0  0  0  0  0  0  0  0  0  0  0  0
   60.5340   34.2960   47.3360 C   0  0  0  0  0  0  0  0  0  0  0  0
   60.8700   34.2200   48.6940 C   0  0  0  0  0  0  0  0  0  0  0  0
   62.1270   33.7430   49.0790 C   0  0  0  0  0  0  0  0  0  0  0  0
   63.0540   33.3350   48.1100 C   0  0  0  0  0  0  0  0  0  0  0  0
   64.3390   32.8470   48.5030 N   0  0  0  0  0  0  0  0  0  0  0  0
   62.7130   33.4080   46.7510 C   0  0  0  0  0  0  0  0  0  0  0  0
   61.4570   33.8860   46.3660 C   0  0  0  0  0  0  0  0  0  0  0  0
   57.9140   33.2870   44.8400 C   0  0  0  0  0  0  0  0  0  0  0  0
   57.5230   32.0610   44.2940 C   0  0  0  0  0  0  0  0  0  0  0  0
   55.4928   30.7568   43.3280 H   0  0  0  0  0  0  0  0  0  0  0  0
   56.9846   30.6464   42.3335 H   0  0  0  0  0  0  0  0  0  0  0  0
   55.8030   29.2934   42.3335 H   0  0  0  0  0  0  0  0  0  0  0  0
   58.2678   30.0205   46.9367 H   0  0  0  0  0  0  0  0  0  0  0  0
   58.9729   32.2082   47.9095 H   0  0  0  0  0  0  0  0  0  0  0  0
   60.1444   34.5358   49.4581 H   0  0  0  0  0  0  0  0  0  0  0  0
   62.3891   33.6878   50.1459 H   0  0  0  0  0  0  0  0  0  0  0  0
   65.1080   32.7400   47.8030 H   0  0  0  0  0  0  0  0  0  0  0  0
   64.5320   32.5870   49.4970 H   0  0  0  0  0  0  0  0  0  0  0  0
   63.4361   33.0882   45.9862 H   0  0  0  0  0  0  0  0  0  0  0  0
   61.1933   33.9401   45.2994 H   0  0  0  0  0  0  0  0  0  0  0  0
   57.8148   34.2090   44.2483 H   0  0  0  0  0  0  0  0  0  0  0  0
   57.1127   32.0196   43.2742 H   0  0  0  0  0  0  0  0  0  0  0  0
  1  2  1  0
  2  3  1  0
  3  4  2  0
  4  5  1  0
  5  6  2  0
  6  7  1  0
  7  8  1  0
  8  9  2  0
  9 10  1  0
 10 11  2  0
 11 12  1  0
 11 13  1  0
 13 14  2  0
  6 15  1  0
 15 16  2  0
 16  3  1  0
 14  8  1  0
  1 17  1  0
  1 18  1  0
  1 19  1  0
  4 20  1  0
  5 21  1  0
  9 22  1  0
 10 23  1  0
 12 24  1  0
 12 25  1  0
 13 26  1  0
 14 27  1  0
 15 28  1  0
 16 29  1  0
M  END
>  <UniqueID>  (30) 
28

>  <SMILES>  (30) 
CSc1ccc(Sc2ccc(N)cc2)cc1

>  <Energy>  (30) 
19.5299058258368

>  <Genealogy>  (30) 
CSc1ccc(Sc2ccc(N)cc2)cc1 (3D coordinates assigned)
CSc1ccc(Sc2ccc(N)cc2)cc1 (optimized conformer: 19.5299058258368 kcal/mol)

>  <smiles>  (30) 
CSc1ccc(Sc2ccc(N)cc2)cc1

>  <score_type>  (30) 
oracle

>  <origin>  (30) 
adg

>  <m_score__min__energy>  (30) 
-6.4800000000000004

>  <m_primary>  (30) 
energy

$$$$
30:0
     RDKit          3D

 75 79  0  0  0  0  0  0  0  0999 V2000
   63.1220   33.8260   46.5650 C   0  0  0  0  0  0  0  0  0  0  0  0
   62.9210   32.4270   47.1350 C   0  0  0  0  0  0  0  0  0  0  0  0
   62.6700   32.4840   48.5410 O   0  0  0  0  0  0  0  0  0  0  0  0
   63.6450   32.4550   49.5530 C   0  0  0  0  0  0  0  0  0  0  0  0
   64.8990   33.0850   49.4080 C   0  0  0  0  0  0  0  0  0  0  0  0
   65.8330   33.0520   50.4460 C   0  0  0  0  0  0  0  0  0  0  0  0
   65.5350   32.3880   51.6360 C   0  0  0  0  0  0  0  0  0  0  0  0
   64.3010   31.7520   51.7920 C   0  0  0  0  0  0  0  0  0  0  0  0
   63.3500   31.7790   50.7570 C   0  0  0  0  0  0  0  0  0  0  0  0
   62.0940   31.0900   50.9250 N   0  0  0  0  0  0  0  0  0  0  0  0
   60.8470   31.8600   51.0390 C   0  0  0  0  0  0  0  0  0  0  0  0
   59.6540   31.0330   50.5480 C   0  0  0  0  0  0  0  0  0  0  0  0
   60.0600   30.2860   49.3470 N   0  0  0  0  0  0  0  0  0  0  0  0
   58.9440   29.8370   48.4870 C   0  0  0  0  0  0  0  0  0  0  0  0
   59.3440   29.3490   47.0740 C   0  0  0  0  0  0  0  0  0  0  0  0
   58.8270   27.9950   46.7610 N   0  0  0  0  0  0  0  0  0  0  0  0
   59.4380   27.2930   45.6160 C   0  0  2  0  0  0  0  0  0  0  0  0
   59.6970   25.8610   46.0780 C   0  0  0  0  0  0  0  0  0  0  0  0
   58.3950   25.3760   46.8550 C   0  0  0  0  0  0  0  0  0  0  0  0
   57.0970   26.2930   46.6720 C   0  0  0  0  0  0  0  0  0  0  0  0
   57.3930   27.8520   46.5740 C   0  0  2  0  0  0  0  0  0  0  0  0
   56.9700   28.5440   45.2090 C   0  0  0  0  0  0  0  0  0  0  0  0
   58.1110   28.8560   44.1290 C   0  0  1  0  0  0  0  0  0  0  0  0
   58.2490   30.3050   43.9710 N   0  0  0  0  0  0  0  0  0  0  0  0
   57.5470   31.2910   44.7400 C   0  0  0  0  0  0  0  0  0  0  0  0
   56.2960   31.1930   44.8530 O   0  0  0  0  0  0  0  0  0  0  0  0
   58.2390   32.4340   45.3690 C   0  0  0  0  0  0  0  0  0  0  0  0
   58.2480   33.6930   44.7460 C   0  0  0  0  0  0  0  0  0  0  0  0
   58.8580   34.7850   45.3700 C   0  0  0  0  0  0  0  0  0  0  0  0
   59.4550   34.6330   46.6250 C   0  0  0  0  0  0  0  0  0  0  0  0
   59.4380   33.3860   47.2640 C   0  0  0  0  0  0  0  0  0  0  0  0
   60.0200   33.2240   48.5210 O   0  0  0  0  0  0  0  0  0  0  0  0
   58.8250   32.2930   46.6390 C   0  0  0  0  0  0  0  0  0  0  0  0
   59.5390   28.2060   44.3890 C   0  0  0  0  0  0  0  0  0  0  0  0
   61.0940   29.2560   49.6010 C   0  0  0  0  0  0  0  0  0  0  0  0
   62.0180   29.6300   50.7760 C   0  0  0  0  0  0  0  0  0  0  0  0
   63.2255   34.5465   47.3897 H   0  0  0  0  0  0  0  0  0  0  0  0
   64.0318   33.8429   45.9469 H   0  0  0  0  0  0  0  0  0  0  0  0
   62.2538   34.0984   45.9469 H   0  0  0  0  0  0  0  0  0  0  0  0
   62.0638   31.9531   46.6344 H   0  0  0  0  0  0  0  0  0  0  0  0
   63.8359   31.8410   46.9632 H   0  0  0  0  0  0  0  0  0  0  0  0
   65.1430   33.6061   48.4705 H   0  0  0  0  0  0  0  0  0  0  0  0
   66.8059   33.5508   50.3248 H   0  0  0  0  0  0  0  0  0  0  0  0
   66.2722   32.3652   52.4521 H   0  0  0  0  0  0  0  0  0  0  0  0
   64.0719   31.2266   52.7309 H   0  0  0  0  0  0  0  0  0  0  0  0
   60.6871   32.1348   52.0920 H   0  0  0  0  0  0  0  0  0  0  0  0
   60.9309   32.7638   50.4177 H   0  0  0  0  0  0  0  0  0  0  0  0
   59.3429   30.3292   51.3341 H   0  0  0  0  0  0  0  0  0  0  0  0
   58.8105   31.6974   50.3088 H   0  0  0  0  0  0  0  0  0  0  0  0
   58.4339   29.0081   48.9996 H   0  0  0  0  0  0  0  0  0  0  0  0
   58.3089   30.7216   48.3315 H   0  0  0  0  0  0  0  0  0  0  0  0
   58.9447   30.0568   46.3326 H   0  0  0  0  0  0  0  0  0  0  0  0
   60.4423   29.2974   47.0423 H   0  0  0  0  0  0  0  0  0  0  0  0
   58.4149   27.0137   45.3240 H   0  0  0  0  0  0  0  0  0  0  0  0
   60.5687   25.8328   46.7484 H   0  0  0  0  0  0  0  0  0  0  0  0
   59.9075   25.2053   45.2202 H   0  0  0  0  0  0  0  0  0  0  0  0
   58.6352   25.3402   47.9279 H   0  0  0  0  0  0  0  0  0  0  0  0
   58.1349   24.3981   46.4237 H   0  0  0  0  0  0  0  0  0  0  0  0
   56.4338   26.1237   47.5331 H   0  0  0  0  0  0  0  0  0  0  0  0
   56.6440   26.0020   45.7128 H   0  0  0  0  0  0  0  0  0  0  0  0
   56.7845   28.3604   47.3364 H   0  0  0  0  0  0  0  0  0  0  0  0
   56.4925   29.5016   45.4639 H   0  0  0  0  0  0  0  0  0  0  0  0
   56.3265   27.8003   44.7162 H   0  0  0  0  0  0  0  0  0  0  0  0
   57.7580   28.3687   43.2082 H   0  0  0  0  0  0  0  0  0  0  0  0
   57.7727   33.8202   43.7622 H   0  0  0  0  0  0  0  0  0  0  0  0
   58.8683   35.7660   44.8725 H   0  0  0  0  0  0  0  0  0  0  0  0
   59.9385   35.4931   47.1113 H   0  0  0  0  0  0  0  0  0  0  0  0
   60.5210   32.3770   48.7660 H   0  0  0  0  0  0  0  0  0  0  0  0
   58.8019   31.3169   47.1456 H   0  0  0  0  0  0  0  0  0  0  0  0
   60.2795   28.9979   44.5750 H   0  0  0  0  0  0  0  0  0  0  0  0
   59.8558   27.6250   43.5103 H   0  0  0  0  0  0  0  0  0  0  0  0
   60.5948   28.3037   49.8332 H   0  0  0  0  0  0  0  0  0  0  0  0
   61.7160   29.1746   48.6974 H   0  0  0  0  0  0  0  0  0  0  0  0
   61.6205   29.1915   51.7032 H   0  0  0  0  0  0  0  0  0  0  0  0
   63.0264   29.2395   50.5745 H   0  0  0  0  0  0  0  0  0  0  0  0
  1  2  1  0
  2  3  1  0
  3  4  1  0
  4  5  2  0
  5  6  1  0
  6  7  2  0
  7  8  1  0
  8  9  2  0
  9 10  1  0
 10 11  1  0
 11 12  1  0
 12 13  1  0
 13 14  1  0
 14 15  1  0
 15 16  1  0
 16 17  1  0
 17 18  1  0
 18 19  1  0
 19 20  1  0
 20 21  1  0
 21 22  1  0
 22 23  1  0
 23 24  1  0
 24 25  1  0
 25 26  2  0
 25 27  1  0
 27 28  2  0
 28 29  1  0
 29 30  2  0
 30 31  1  0
 31 32  1  0
 31 33  2  0
 23 34  1  0
 13 35  1  0
 35 36  1  0
  9  4  1  0
 36 10  1  0
 21 16  1  0
 33 27  1  0
 34 17  1  0
  1 37  1  0
  1 38  1  0
  1 39  1  0
  2 40  1  0
  2 41  1  0
  5 42  1  0
  6 43  1  0
  7 44  1  0
  8 45  1  0
 11 46  1  0
 11 47  1  0
 12 48  1  0
 12 49  1  0
 14 50  1  0
 14 51  1  0
 15 52  1  0
 15 53  1  0
 17 54  1  1
 18 55  1  0
 18 56  1  0
 19 57  1  0
 19 58  1  0
 20 59  1  0
 20 60  1  0
 21 61  1  1
 22 62  1  0
 22 63  1  0
 23 64  1  6
 28 65  1  0
 29 66  1  0
 30 67  1  0
 32 68  1  0
 33 69  1  0
 34 70  1  0
 34 71  1  0
 35 72  1  0
 35 73  1  0
 36 74  1  0
 36 75  1  0
M  CHG  1  24  -1
M  END
>  <UniqueID>  (31) 
29

>  <SMILES>  (31) 
CCOc1ccccc1N1CCN(CCN2[C@@H]3CCC[C@@H]2CC([N-]C(=O)c2cccc(O)c2)C3)CC1

>  <Energy>  (31) 
207.9444115278733

>  <Genealogy>  (31) 
CCOc1ccccc1N1CCN(CCN2C3CCCC2CC([N-]C(=O)c2cccc(O)c2)C3)CC1 (protonated)
CCOc1ccccc1N1CCN(CCN2[C@@H]3CCC[C@@H]2CC([N-]C(=O)c2cccc(O)c2)C3)CC1 (chirality)
CCOc1ccccc1N1CCN(CCN2[C@@H]3CCC[C@@H]2CC([N-]C(=O)c2cccc(O)c2)C3)CC1 (3D coordinates assigned)
CCOc1ccccc1N1CCN(CCN2[C@@H]3CCC[C@@H]2CC([N-]C(=O)c2cccc(O)c2)C3)CC1 (nonaromatic ring conformer: 207.9444115278733 kcal/mol)

>  <smiles>  (31) 
CCOc1ccccc1N1CCN(CCN2C3CCCC2CC(NC(=O)c2cccc(O)c2)C3)CC1

>  <score_type>  (31) 
oracle

>  <origin>  (31) 
adg

>  <m_score__min__energy>  (31) 
-12.779999999999999

>  <m_primary>  (31) 
energy

$$$$
31:0
     RDKit          3D

 36 37  0  0  0  0  0  0  0  0999 V2000
   54.6460   24.9610   45.5890 C   0  0  0  0  0  0  0  0  0  0  0  0
   55.1150   26.2140   46.0290 O   0  0  0  0  0  0  0  0  0  0  0  0
   56.4890   26.1220   46.3400 C   0  0  0  0  0  0  0  0  0  0  0  0
   57.2230   27.3210   45.7430 C   0  0  0  0  0  0  0  0  0  0  0  0
   57.9710   26.9100   44.5310 N   0  0  0  0  0  0  0  0  0  0  0  0
   57.5770   25.5540   44.1100 C   0  0  0  0  0  0  0  0  0  0  0  0
   57.7750   27.8610   43.4190 C   0  0  0  0  0  0  0  0  0  0  0  0
   57.4220   29.2190   43.9500 C   0  0  0  0  0  0  0  0  0  0  0  0
   56.1530   29.7380   44.0710 C   0  0  0  0  0  0  0  0  0  0  0  0
   56.2720   30.9540   44.5420 O   0  0  0  0  0  0  0  0  0  0  0  0
   57.5570   31.1890   44.6980 C   0  0  0  0  0  0  0  0  0  0  0  0
   58.1020   32.4570   45.2240 C   0  0  0  0  0  0  0  0  0  0  0  0
   58.2070   32.6610   46.6110 C   0  0  0  0  0  0  0  0  0  0  0  0
   58.7270   33.8580   47.1120 C   0  0  0  0  0  0  0  0  0  0  0  0
   59.1490   34.8600   46.2330 C   0  0  0  0  0  0  0  0  0  0  0  0
   59.6550   36.0200   46.7210 F   0  0  0  0  0  0  0  0  0  0  0  0
   59.0500   34.6670   44.8530 C   0  0  0  0  0  0  0  0  0  0  0  0
   58.5300   33.4710   44.3480 C   0  0  0  0  0  0  0  0  0  0  0  0
   58.3250   30.1400   44.3320 N   0  0  0  0  0  0  0  0  0  0  0  0
   54.4103   24.3314   46.4596 H   0  0  0  0  0  0  0  0  0  0  0  0
   53.7395   25.1014   44.9819 H   0  0  0  0  0  0  0  0  0  0  0  0
   55.4218   24.4717   44.9819 H   0  0  0  0  0  0  0  0  0  0  0  0
   56.6191   26.1182   47.4323 H   0  0  0  0  0  0  0  0  0  0  0  0
   56.9003   25.1920   45.9206 H   0  0  0  0  0  0  0  0  0  0  0  0
   56.4919   28.0974   45.4732 H   0  0  0  0  0  0  0  0  0  0  0  0
   57.9316   27.7153   46.4863 H   0  0  0  0  0  0  0  0  0  0  0  0
   57.3963   24.9320   44.9991 H   0  0  0  0  0  0  0  0  0  0  0  0
   56.6578   25.6094   43.5083 H   0  0  0  0  0  0  0  0  0  0  0  0
   58.3828   25.1082   43.5083 H   0  0  0  0  0  0  0  0  0  0  0  0
   58.7036   27.9307   42.8334 H   0  0  0  0  0  0  0  0  0  0  0  0
   56.9533   27.5017   42.7821 H   0  0  0  0  0  0  0  0  0  0  0  0
   55.2127   29.2260   43.8187 H   0  0  0  0  0  0  0  0  0  0  0  0
   57.8781   31.8743   47.3059 H   0  0  0  0  0  0  0  0  0  0  0  0
   58.8042   34.0116   48.1985 H   0  0  0  0  0  0  0  0  0  0  0  0
   59.3815   35.4567   44.1627 H   0  0  0  0  0  0  0  0  0  0  0  0
   58.4553   33.3225   43.2606 H   0  0  0  0  0  0  0  0  0  0  0  0
  1  2  1  0
  2  3  1  0
  3  4  1  0
  4  5  1  0
  5  6  1  0
  5  7  1  0
  7  8  1  0
  8  9  2  0
  9 10  1  0
 10 11  1  0
 11 12  1  0
 12 13  2  0
 13 14  1  0
 14 15  2  0
 15 16  1  0
 15 17  1  0
 17 18  2  0
 11 19  2  0
 19  8  1  0
 18 12  1  0
  1 20  1  0
  1 21  1  0
  1 22  1  0
  3 23  1  0
  3 24  1  0
  4 25  1  0
  4 26  1  0
  6 27  1  0
  6 28  1  0
  6 29  1  0
  7 30  1  0
  7 31  1  0
  9 32  1  0
 13 33  1  0
 14 34  1  0
 17 35  1  0
 18 36  1  0
M  END
>  <UniqueID>  (32) 
30

>  <SMILES>  (32) 
COCCN(C)Cc1coc(-c2ccc(F)cc2)n1

>  <Energy>  (32) 
64.51271786924177

>  <Genealogy>  (32) 
COCCN(C)Cc1coc(-c2ccc(F)cc2)n1 (3D coordinates assigned)
COCCN(C)Cc1coc(-c2ccc(F)cc2)n1 (optimized conformer: 64.51271786924177 kcal/mol)

>  <smiles>  (32) 
COCCN(C)Cc1coc(-c2ccc(F)cc2)n1

>  <score_type>  (32) 
oracle

>  <origin>  (32) 
adg

>  <m_score__min__energy>  (32) 
-6.6100000000000003

>  <m_primary>  (32) 
energy

$$$$
32:0
     RDKit          3D

 48 51  0  0  0  0  0  0  0  0999 V2000
   59.9780   33.8360   49.4320 C   0  0  0  0  0  0  0  0  0  0  0  0
   60.7540   32.6260   49.9630 C   0  0  0  0  0  0  0  0  0  0  0  0
   60.6400   31.4390   49.0630 N   0  0  0  0  0  0  0  0  0  0  0  0
   60.7930   30.1520   49.7900 C   0  0  0  0  0  0  0  0  0  0  0  0
   59.4800   29.3680   49.8880 C   0  0  0  0  0  0  0  0  0  0  0  0
   61.5850   31.5220   47.9190 C   0  0  0  0  0  0  0  0  0  0  0  0
   61.2570   30.5660   46.7490 C   0  0  0  0  0  0  0  0  0  0  0  0
   59.8470   30.7020   46.3620 N   0  0  0  0  0  0  0  0  0  0  0  0
   59.2550   31.8830   46.0240 C   0  0  0  0  0  0  0  0  0  0  0  0
   59.7980   33.1730   46.0970 C   0  0  0  0  0  0  0  0  0  0  0  0
   59.0070   34.2550   45.6650 C   0  0  0  0  0  0  0  0  0  0  0  0
   59.6450   35.8860   45.7440 Cl  0  0  0  0  0  0  0  0  0  0  0  0
   57.7020   34.0340   45.1680 C   0  0  0  0  0  0  0  0  0  0  0  0
   57.1770   32.7330   45.1010 C   0  0  0  0  0  0  0  0  0  0  0  0
   57.9820   31.6870   45.5450 C   0  0  0  0  0  0  0  0  0  0  0  0
   57.7680   30.3400   45.5950 C   0  0  0  0  0  0  0  0  0  0  0  0
   56.6870   29.6520   45.1680 N   0  0  0  0  0  0  0  0  0  0  0  0
   56.6750   28.2960   45.2630 C   0  0  0  0  0  0  0  0  0  0  0  0
   57.7690   27.5970   45.8350 C   0  0  0  0  0  0  0  0  0  0  0  0
   57.7420   26.1890   45.9590 C   0  0  0  0  0  0  0  0  0  0  0  0
   56.2920   25.1080   45.3070 Br  0  0  0  0  0  0  0  0  0  0  0  0
   58.7980   25.5250   46.5860 C   0  0  0  0  0  0  0  0  0  0  0  0
   59.8660   26.2410   47.1140 C   0  0  0  0  0  0  0  0  0  0  0  0
   59.9170   27.6280   46.9960 C   0  0  0  0  0  0  0  0  0  0  0  0
   58.9040   28.3320   46.3140 C   0  0  0  0  0  0  0  0  0  0  0  0
   58.8940   29.7420   46.1260 C   0  0  0  0  0  0  0  0  0  0  0  0
   59.5983   34.4280   50.2778 H   0  0  0  0  0  0  0  0  0  0  0  0
   60.6453   34.4591   48.8185 H   0  0  0  0  0  0  0  0  0  0  0  0
   59.1333   33.4894   48.8185 H   0  0  0  0  0  0  0  0  0  0  0  0
   61.8155   32.8993   50.0550 H   0  0  0  0  0  0  0  0  0  0  0  0
   60.3235   32.3517   50.9374 H   0  0  0  0  0  0  0  0  0  0  0  0
   59.6880   31.4310   48.6220 H   0  0  0  0  0  0  0  0  0  0  0  0
   61.5329   29.5343   49.2599 H   0  0  0  0  0  0  0  0  0  0  0  0
   61.1174   30.3860   50.8147 H   0  0  0  0  0  0  0  0  0  0  0  0
   59.2228   29.2144   50.9464 H   0  0  0  0  0  0  0  0  0  0  0  0
   58.6769   29.9345   49.3940 H   0  0  0  0  0  0  0  0  0  0  0  0
   59.5978   28.3923   49.3940 H   0  0  0  0  0  0  0  0  0  0  0  0
   61.5710   32.5528   47.5353 H   0  0  0  0  0  0  0  0  0  0  0  0
   62.5706   31.2209   48.3035 H   0  0  0  0  0  0  0  0  0  0  0  0
   61.8954   30.8133   45.8880 H   0  0  0  0  0  0  0  0  0  0  0  0
   61.4426   29.5302   47.0695 H   0  0  0  0  0  0  0  0  0  0  0  0
   60.8156   33.3360   46.4817 H   0  0  0  0  0  0  0  0  0  0  0  0
   57.0938   34.8866   44.8316 H   0  0  0  0  0  0  0  0  0  0  0  0
   56.1653   32.5468   44.7114 H   0  0  0  0  0  0  0  0  0  0  0  0
   55.8058   27.7334   44.8916 H   0  0  0  0  0  0  0  0  0  0  0  0
   58.7847   24.4278   46.6627 H   0  0  0  0  0  0  0  0  0  0  0  0
   60.6781   25.7076   47.6296 H   0  0  0  0  0  0  0  0  0  0  0  0
   60.7579   28.1806   47.4404 H   0  0  0  0  0  0  0  0  0  0  0  0
  1  2  1  0
  2  3  1  0
  3  4  1  0
  4  5  1  0
  3  6  1  0
  6  7  1  0
  7  8  1  0
  8  9  1  0
  9 10  2  0
 10 11  1  0
 11 12  1  0
 11 13  2  0
 13 14  1  0
 14 15  2  0
 15 16  1  0
 16 17  2  0
 17 18  1  0
 18 19  2  0
 19 20  1  0
 20 21  1  0
 20 22  2  0
 22 23  1  0
 23 24  2  0
 24 25  1  0
 25 26  2  0
 26  8  1  0
 15  9  1  0
 26 16  1  0
 25 19  1  0
  1 27  1  0
  1 28  1  0
  1 29  1  0
  2 30  1  0
  2 31  1  0
  3 32  1  0
  4 33  1  0
  4 34  1  0
  5 35  1  0
  5 36  1  0
  5 37  1  0
  6 38  1  0
  6 39  1  0
  7 40  1  0
  7 41  1  0
 10 42  1  0
 13 43  1  0
 14 44  1  0
 18 45  1  0
 22 46  1  0
 23 47  1  0
 24 48  1  0
M  CHG  1   3   1
M  END
>  <UniqueID>  (33) 
31

>  <SMILES>  (33) 
CC[NH+](CC)CCn1c2cc(Cl)ccc2c2ncc3c(Br)cccc3c21

>  <Energy>  (33) 
111.06187573592953

>  <Genealogy>  (33) 
CC[NH+](CC)CCn1c2cc(Cl)ccc2c2ncc3c(Br)cccc3c21 (protonated)
CC[NH+](CC)CCn1c2cc(Cl)ccc2c2ncc3c(Br)cccc3c21 (3D coordinates assigned)
CC[NH+](CC)CCn1c2cc(Cl)ccc2c2ncc3c(Br)cccc3c21 (optimized conformer: 111.06187573592953 kcal/mol)

>  <smiles>  (33) 
CCN(CC)CCn1c2cc(Cl)ccc2c2ncc3c(Br)cccc3c21

>  <score_type>  (33) 
oracle

>  <origin>  (33) 
adg

>  <m_score__min__energy>  (33) 
-6.9299999999999997

>  <m_primary>  (33) 
energy

$$$$
33:0
     RDKit          3D

 16 17  0  0  0  0  0  0  0  0999 V2000
   55.4220   25.4440   46.2940 O   0  0  0  0  0  0  0  0  0  0  0  0
   56.2330   26.4040   46.2320 C   0  0  0  0  0  0  0  0  0  0  0  0
   55.9960   27.6020   45.4960 N   0  0  0  0  0  0  0  0  0  0  0  0
   57.1670   28.3950   45.7070 C   0  0  0  0  0  0  0  0  0  0  0  0
   57.4230   29.6680   45.1930 C   0  0  0  0  0  0  0  0  0  0  0  0
   56.2610   30.4890   44.1640 Cl  0  0  0  0  0  0  0  0  0  0  0  0
   58.6440   30.2850   45.5220 C   0  0  0  0  0  0  0  0  0  0  0  0
   59.5800   29.6280   46.3500 C   0  0  0  0  0  0  0  0  0  0  0  0
   61.0970   30.4140   46.7460 Cl  0  0  0  0  0  0  0  0  0  0  0  0
   59.3030   28.3460   46.8570 C   0  0  0  0  0  0  0  0  0  0  0  0
   58.0880   27.7560   46.5190 C   0  0  0  0  0  0  0  0  0  0  0  0
   57.5330   26.4650   46.8850 C   0  0  0  0  0  0  0  0  0  0  0  0
   58.0620   25.5840   47.6120 O   0  0  0  0  0  0  0  0  0  0  0  0
   55.1520   27.8420   44.9310 H   0  0  0  0  0  0  0  0  0  0  0  0
   58.8712   31.2877   45.1308 H   0  0  0  0  0  0  0  0  0  0  0  0
   60.0254   27.8243   47.5020 H   0  0  0  0  0  0  0  0  0  0  0  0
  1  2  2  0
  2  3  1  0
  3  4  1  0
  4  5  2  0
  5  6  1  0
  5  7  1  0
  7  8  2  0
  8  9  1  0
  8 10  1  0
 10 11  2  0
 11 12  1  0
 12 13  2  0
 12  2  1  0
 11  4  1  0
  3 14  1  0
  7 15  1  0
 10 16  1  0
M  END
>  <UniqueID>  (34) 
32

>  <SMILES>  (34) 
O=C1Nc2c(Cl)cc(Cl)cc2C1=O

>  <Energy>  (34) 
48.24058366662394

>  <Genealogy>  (34) 
O=C1Nc2c(Cl)cc(Cl)cc2C1=O (3D coordinates assigned)
O=C1Nc2c(Cl)cc(Cl)cc2C1=O (nonaromatic ring conformer: 48.24058366662394 kcal/mol)

>  <smiles>  (34) 
O=C1Nc2c(Cl)cc(Cl)cc2C1=O

>  <score_type>  (34) 
oracle

>  <origin>  (34) 
adg

>  <m_score__min__energy>  (34) 
-5.7999999999999998

>  <m_primary>  (34) 
energy

$$$$
34:0
     RDKit          3D

 36 37  0  0  0  0  0  0  0  0999 V2000
   58.2977   31.3033   43.5972 H   0  0  0  0  0  0  0  0  0  0  0  0
   57.5720   31.8400   44.2260 C   0  0  0  0  0  0  0  0  0  0  0  0
   56.5830   31.1960   44.7660 N   0  0  0  0  0  0  0  0  0  0  0  0
   56.1530   29.8960   44.3440 C   0  0  0  0  0  0  0  0  0  0  0  0
   55.1430   29.3490   44.8630 O   0  0  0  0  0  0  0  0  0  0  0  0
   56.8910   29.1950   43.2450 C   0  0  0  0  0  0  0  0  0  0  0  0
   56.1622   28.7643   42.5426 H   0  0  0  0  0  0  0  0  0  0  0  0
   57.5354   29.9285   42.7383 H   0  0  0  0  0  0  0  0  0  0  0  0
   57.7780   28.0720   43.7940 C   0  0  0  0  0  0  0  0  0  0  0  0
   57.1417   27.2183   44.0701 H   0  0  0  0  0  0  0  0  0  0  0  0
   58.4981   27.7912   43.0113 H   0  0  0  0  0  0  0  0  0  0  0  0
   58.5540   28.5150   45.0080 C   0  0  0  0  0  0  0  0  0  0  0  0
   59.6940   29.3260   44.8690 C   0  0  0  0  0  0  0  0  0  0  0  0
   60.0291   29.6334   43.8674 H   0  0  0  0  0  0  0  0  0  0  0  0
   60.4030   29.7430   45.9990 C   0  0  0  0  0  0  0  0  0  0  0  0
   61.2979   30.3724   45.8849 H   0  0  0  0  0  0  0  0  0  0  0  0
   59.9760   29.3610   47.2740 C   0  0  0  0  0  0  0  0  0  0  0  0
   60.5418   29.6809   48.1614 H   0  0  0  0  0  0  0  0  0  0  0  0
   58.8310   28.5730   47.4230 C   0  0  0  0  0  0  0  0  0  0  0  0
   58.4888   28.2843   48.4278 H   0  0  0  0  0  0  0  0  0  0  0  0
   58.1210   28.1520   46.2950 C   0  0  0  0  0  0  0  0  0  0  0  0
   57.2192   27.5337   46.4151 H   0  0  0  0  0  0  0  0  0  0  0  0
   57.7280   33.3090   44.4560 C   0  0  0  0  0  0  0  0  0  0  0  0
   58.3276   33.7401   43.6407 H   0  0  0  0  0  0  0  0  0  0  0  0
   56.7296   33.7700   44.4818 H   0  0  0  0  0  0  0  0  0  0  0  0
   58.4160   33.5740   45.7680 C   0  0  0  0  0  0  0  0  0  0  0  0
   58.1820   32.7440   46.8780 C   0  0  0  0  0  0  0  0  0  0  0  0
   57.5098   31.8784   46.7837 H   0  0  0  0  0  0  0  0  0  0  0  0
   58.8020   33.0160   48.1030 C   0  0  0  0  0  0  0  0  0  0  0  0
   58.6068   32.3719   48.9731 H   0  0  0  0  0  0  0  0  0  0  0  0
   59.6700   34.1070   48.2210 C   0  0  0  0  0  0  0  0  0  0  0  0
   60.1523   34.3234   49.1857 H   0  0  0  0  0  0  0  0  0  0  0  0
   59.9250   34.9220   47.1150 C   0  0  0  0  0  0  0  0  0  0  0  0
   60.6160   35.7729   47.2071 H   0  0  0  0  0  0  0  0  0  0  0  0
   59.3030   34.6570   45.8920 C   0  0  0  0  0  0  0  0  0  0  0  0
   59.5085   35.2988   45.0226 H   0  0  0  0  0  0  0  0  0  0  0  0
  1  2  1  0
  2  3  2  0
  3  4  1  0
  4  5  2  0
  4  6  1  0
  6  7  1  0
  6  8  1  0
  6  9  1  0
  9 10  1  0
  9 11  1  0
  9 12  1  0
 12 13  2  0
 13 14  1  0
 13 15  1  0
 15 16  1  0
 15 17  2  0
 17 18  1  0
 17 19  1  0
 19 20  1  0
 19 21  2  0
 21 22  1  0
  2 23  1  0
 23 24  1  0
 23 25  1  0
 23 26  1  0
 26 27  2  0
 27 28  1  0
 27 29  1  0
 29 30  1  0
 29 31  2  0
 31 32  1  0
 31 33  1  0
 33 34  1  0
 33 35  2  0
 35 36  1  0
 21 12  1  0
 35 26  1  0
M  END
>  <UniqueID>  (35) 
33

>  <SMILES>  (35) 
O=C(CCc1ccccc1)/N=C/Cc1ccccc1

>  <Energy>  (35) 
26.059343284064003

>  <Genealogy>  (35) 
O=C(CCc1ccccc1)/N=C/Cc1ccccc1 (cis-trans isomerization)
O=C(CCc1ccccc1)/N=C/Cc1ccccc1 (3D coordinates assigned)
O=C(CCc1ccccc1)/N=C/Cc1ccccc1 (optimized conformer: 26.059343284064003 kcal/mol)

>  <smiles>  (35) 
O=C(CCc1ccccc1)N=CCc1ccccc1

>  <score_type>  (35) 
oracle

>  <origin>  (35) 
adg

>  <m_score__min__energy>  (35) 
-7.5999999999999996

>  <m_primary>  (35) 
energy

$$$$
35:0
     RDKit          3D

 32 33  0  0  0  0  0  0  0  0999 V2000
   64.1300   32.5690   47.1640 N   0  0  0  0  0  0  0  0  0  0  0  0
   63.1050   33.4660   46.6250 C   0  0  0  0  0  0  0  0  0  0  0  0
   61.8710   33.5430   47.5360 C   0  0  0  0  0  0  0  0  0  0  0  0
   60.5930   33.6310   46.7430 C   0  0  0  0  0  0  0  0  0  0  0  0
   60.2790   34.8010   46.0340 C   0  0  0  0  0  0  0  0  0  0  0  0
   59.0870   34.8890   45.3120 C   0  0  0  0  0  0  0  0  0  0  0  0
   58.1900   33.8170   45.3070 C   0  0  0  0  0  0  0  0  0  0  0  0
   58.4710   32.6550   46.0330 C   0  0  0  0  0  0  0  0  0  0  0  0
   57.5470   31.6010   46.0050 O   0  0  0  0  0  0  0  0  0  0  0  0
   57.5950   30.5030   45.1320 C   0  0  0  0  0  0  0  0  0  0  0  0
   58.5330   29.4910   45.3740 C   0  0  0  0  0  0  0  0  0  0  0  0
   58.6190   28.3890   44.5200 C   0  0  0  0  0  0  0  0  0  0  0  0
   57.7750   28.2950   43.4090 C   0  0  0  0  0  0  0  0  0  0  0  0
   56.8500   29.3090   43.1480 C   0  0  0  0  0  0  0  0  0  0  0  0
   56.7620   30.4140   44.0010 C   0  0  0  0  0  0  0  0  0  0  0  0
   59.6860   32.5580   46.7370 C   0  0  0  0  0  0  0  0  0  0  0  0
   63.6940   31.9500   47.8860 H   0  0  0  0  0  0  0  0  0  0  0  0
   64.8970   33.1210   47.6120 H   0  0  0  0  0  0  0  0  0  0  0  0
   64.5210   31.9670   46.4040 H   0  0  0  0  0  0  0  0  0  0  0  0
   63.5337   34.4738   46.5218 H   0  0  0  0  0  0  0  0  0  0  0  0
   62.7839   33.0685   45.6509 H   0  0  0  0  0  0  0  0  0  0  0  0
   61.8373   32.6421   48.1663 H   0  0  0  0  0  0  0  0  0  0  0  0
   61.9556   34.4524   48.1491 H   0  0  0  0  0  0  0  0  0  0  0  0
   60.9752   35.6526   46.0472 H   0  0  0  0  0  0  0  0  0  0  0  0
   58.8536   35.8031   44.7464 H   0  0  0  0  0  0  0  0  0  0  0  0
   57.2571   33.8877   44.7284 H   0  0  0  0  0  0  0  0  0  0  0  0
   59.2055   29.5646   46.2414 H   0  0  0  0  0  0  0  0  0  0  0  0
   59.3518   27.5938   44.7217 H   0  0  0  0  0  0  0  0  0  0  0  0
   57.8393   27.4234   42.7411 H   0  0  0  0  0  0  0  0  0  0  0  0
   56.1902   29.2383   42.2707 H   0  0  0  0  0  0  0  0  0  0  0  0
   56.0398   31.2157   43.7873 H   0  0  0  0  0  0  0  0  0  0  0  0
   59.9270   31.6359   47.2862 H   0  0  0  0  0  0  0  0  0  0  0  0
  1  2  1  0
  2  3  1  0
  3  4  1  0
  4  5  2  0
  5  6  1  0
  6  7  2  0
  7  8  1  0
  8  9  1  0
  9 10  1  0
 10 11  2  0
 11 12  1  0
 12 13  2  0
 13 14  1  0
 14 15  2  0
  8 16  2  0
 16  4  1  0
 15 10  1  0
  1 17  1  0
  1 18  1  0
  1 19  1  0
  2 20  1  0
  2 21  1  0
  3 22  1  0
  3 23  1  0
  5 24  1  0
  6 25  1  0
  7 26  1  0
 11 27  1  0
 12 28  1  0
 13 29  1  0
 14 30  1  0
 15 31  1  0
 16 32  1  0
M  CHG  1   1   1
M  END
>  <UniqueID>  (36) 
34

>  <SMILES>  (36) 
[NH3+]CCc1cccc(Oc2ccccc2)c1

>  <Energy>  (36) 
34.65408016122031

>  <Genealogy>  (36) 
[NH3+]CCc1cccc(Oc2ccccc2)c1 (protonated)
[NH3+]CCc1cccc(Oc2ccccc2)c1 (3D coordinates assigned)
[NH3+]CCc1cccc(Oc2ccccc2)c1 (optimized conformer: 34.65408016122031 kcal/mol)

>  <smiles>  (36) 
NCCc1cccc(Oc2ccccc2)c1

>  <score_type>  (36) 
oracle

>  <origin>  (36) 
adg

>  <m_score__min__energy>  (36) 
-5.1699999999999999

>  <m_primary>  (36) 
energy

$$$$
36:0
     RDKit          3D

 38 39  0  0  0  0  0  0  0  0999 V2000
   60.2180   30.2110   47.8780 C   0  0  0  0  0  0  0  0  0  0  0  0
   58.9090   30.4970   47.3980 O   0  0  0  0  0  0  0  0  0  0  0  0
   58.6110   30.8710   46.0780 C   0  0  0  0  0  0  0  0  0  0  0  0
   58.6100   29.9550   45.0190 C   0  0  0  0  0  0  0  0  0  0  0  0
   58.3130   30.3720   43.7610 N   0  0  0  0  0  0  0  0  0  0  0  0
   58.0260   31.6530   43.4900 N   0  0  0  0  0  0  0  0  0  0  0  0
   57.7500   32.0530   42.1060 C   0  0  0  0  0  0  0  0  0  0  0  0
   58.0340   32.5930   44.4870 C   0  0  0  0  0  0  0  0  0  0  0  0
   57.8330   33.8090   44.2150 O   0  0  0  0  0  0  0  0  0  0  0  0
   58.2990   32.2030   45.8120 C   0  0  0  0  0  0  0  0  0  0  0  0
   58.3050   33.1210   46.8730 O   0  0  0  0  0  0  0  0  0  0  0  0
   59.2340   34.1610   47.0220 C   0  0  0  0  0  0  0  0  0  0  0  0
   58.9030   35.3490   46.7560 O   0  0  0  0  0  0  0  0  0  0  0  0
   60.5890   33.8670   47.5390 C   0  0  0  0  0  0  0  0  0  0  0  0
   61.6200   33.4850   46.6670 C   0  0  0  0  0  0  0  0  0  0  0  0
   62.8970   33.2110   47.1570 C   0  0  0  0  0  0  0  0  0  0  0  0
   63.1750   33.3130   48.5290 C   0  0  0  0  0  0  0  0  0  0  0  0
   64.5640   33.0050   49.0260 C   0  0  0  0  0  0  0  0  0  0  0  0
   62.1410   33.6850   49.4190 C   0  0  0  0  0  0  0  0  0  0  0  0
   62.3930   33.8070   50.9000 C   0  0  0  0  0  0  0  0  0  0  0  0
   60.8600   33.9650   48.9140 C   0  0  0  0  0  0  0  0  0  0  0  0
   60.2135   30.2120   48.9780 H   0  0  0  0  0  0  0  0  0  0  0  0
   60.5344   29.2225   47.5135 H   0  0  0  0  0  0  0  0  0  0  0  0
   60.9178   30.9774   47.5135 H   0  0  0  0  0  0  0  0  0  0  0  0
   58.8497   28.8978   45.2059 H   0  0  0  0  0  0  0  0  0  0  0  0
   58.3250   29.6600   42.9950 H   0  0  0  0  0  0  0  0  0  0  0  0
   57.1253   32.9584   42.1036 H   0  0  0  0  0  0  0  0  0  0  0  0
   58.6981   32.2604   41.5882 H   0  0  0  0  0  0  0  0  0  0  0  0
   57.2196   31.2402   41.5882 H   0  0  0  0  0  0  0  0  0  0  0  0
   61.4196   33.4010   45.5887 H   0  0  0  0  0  0  0  0  0  0  0  0
   63.6945   32.9119   46.4609 H   0  0  0  0  0  0  0  0  0  0  0  0
   64.5680   33.0041   50.1260 H   0  0  0  0  0  0  0  0  0  0  0  0
   64.8745   32.0162   48.6574 H   0  0  0  0  0  0  0  0  0  0  0  0
   65.2633   33.7699   48.6574 H   0  0  0  0  0  0  0  0  0  0  0  0
   61.5371   33.3926   51.4529 H   0  0  0  0  0  0  0  0  0  0  0  0
   63.3043   33.2503   51.1640 H   0  0  0  0  0  0  0  0  0  0  0  0
   62.5216   34.8671   51.1640 H   0  0  0  0  0  0  0  0  0  0  0  0
   60.0583   34.2651   49.6048 H   0  0  0  0  0  0  0  0  0  0  0  0
  1  2  1  0
  2  3  1  0
  3  4  1  0
  4  5  2  0
  5  6  1  0
  6  7  1  0
  6  8  1  0
  8  9  2  0
  8 10  1  0
 10 11  1  0
 11 12  1  0
 12 13  2  0
 12 14  1  0
 14 15  2  0
 15 16  1  0
 16 17  2  0
 17 18  1  0
 17 19  1  0
 19 20  1  0
 19 21  2  0
 10  3  2  0
 21 14  1  0
  1 22  1  0
  1 23  1  0
  1 24  1  0
  4 25  1  0
  5 26  1  0
  7 27  1  0
  7 28  1  0
  7 29  1  0
 15 30  1  0
 16 31  1  0
 18 32  1  0
 18 33  1  0
 18 34  1  0
 20 35  1  0
 20 36  1  0
 20 37  1  0
 21 38  1  0
M  CHG  1   5   1
M  END
>  <UniqueID>  (37) 
35

>  <SMILES>  (37) 
COc1c[nH+]n(C)c(=O)c1OC(=O)c1ccc(C)c(C)c1

>  <Energy>  (37) 
46.09382035590184

>  <Genealogy>  (37) 
COc1c[nH+]n(C)c(=O)c1OC(=O)c1ccc(C)c(C)c1 (protonated)
COc1c[nH+]n(C)c(=O)c1OC(=O)c1ccc(C)c(C)c1 (3D coordinates assigned)
COc1c[nH+]n(C)c(=O)c1OC(=O)c1ccc(C)c(C)c1 (optimized conformer: 46.09382035590184 kcal/mol)

>  <smiles>  (37) 
COc1cnn(C)c(=O)c1OC(=O)c1ccc(C)c(C)c1

>  <score_type>  (37) 
oracle

>  <origin>  (37) 
adg

>  <m_score__min__energy>  (37) 
-5.9500000000000002

>  <m_primary>  (37) 
energy

$$$$
37:0
     RDKit          3D

 53 55  0  0  0  0  0  0  0  0999 V2000
   60.7340   29.5220   47.8180 C   0  0  0  0  0  0  0  0  0  0  0  0
   59.7180   28.6030   48.4890 C   0  0  0  0  0  0  0  0  0  0  0  0
   60.2840   27.1870   48.6700 C   0  0  0  0  0  0  0  0  0  0  0  0
   61.0760   26.7000   47.4490 C   0  0  0  0  0  0  0  0  0  0  0  0
   60.2030   26.2810   46.3970 O   0  0  0  0  0  0  0  0  0  0  0  0
   59.1520   27.0410   45.8640 C   0  0  0  0  0  0  0  0  0  0  0  0
   59.4660   28.0510   44.9490 C   0  0  0  0  0  0  0  0  0  0  0  0
   58.4690   28.8940   44.4530 C   0  0  0  0  0  0  0  0  0  0  0  0
   57.1320   28.7170   44.8450 C   0  0  0  0  0  0  0  0  0  0  0  0
   56.0940   29.6690   44.4000 C   0  0  0  0  0  0  0  0  0  0  0  0
   54.8800   29.3370   44.4430 O   0  0  0  0  0  0  0  0  0  0  0  0
   56.4470   30.9670   43.9000 N   0  0  0  0  0  0  0  0  0  0  0  0
   57.4000   31.8320   44.5310 C   0  0  0  0  0  0  0  0  0  0  0  0
   57.9610   32.9210   43.8410 C   0  0  0  0  0  0  0  0  0  0  0  0
   58.8320   33.7970   44.4920 C   0  0  0  0  0  0  0  0  0  0  0  0
   59.1520   33.5950   45.8410 C   0  0  0  0  0  0  0  0  0  0  0  0
   60.1480   34.7570   46.7100 S   0  0  0  0  0  0  0  0  0  0  0  0
   60.0530   36.0910   46.0240 O   0  0  0  0  0  0  0  0  0  0  0  0
   59.6800   34.9170   48.1300 O   0  0  0  0  0  0  0  0  0  0  0  0
   61.7980   34.2270   46.6960 N   0  0  0  0  0  0  0  0  0  0  0  0
   62.3210   33.4240   47.5750 C   0  0  0  0  0  0  0  0  0  0  0  0
   61.5550   32.8650   48.7080 C   0  0  0  0  0  0  0  0  0  0  0  0
   62.6140   32.0910   49.5050 C   0  0  0  0  0  0  0  0  0  0  0  0
   63.8980   32.0700   48.6560 C   0  0  0  0  0  0  0  0  0  0  0  0
   63.6650   32.9800   47.5540 N   0  0  0  0  0  0  0  0  0  0  0  0
   58.6300   32.4840   46.5180 C   0  0  0  0  0  0  0  0  0  0  0  0
   57.7690   31.5990   45.8610 C   0  0  0  0  0  0  0  0  0  0  0  0
   56.8030   27.6590   45.7050 C   0  0  0  0  0  0  0  0  0  0  0  0
   57.8050   26.8320   46.2200 C   0  0  0  0  0  0  0  0  0  0  0  0
   61.3165   30.0489   48.5881 H   0  0  0  0  0  0  0  0  0  0  0  0
   61.4115   28.9238   47.1910 H   0  0  0  0  0  0  0  0  0  0  0  0
   60.2066   30.2560   47.1910 H   0  0  0  0  0  0  0  0  0  0  0  0
   59.4587   29.0145   49.4756 H   0  0  0  0  0  0  0  0  0  0  0  0
   58.8265   28.5422   47.8475 H   0  0  0  0  0  0  0  0  0  0  0  0
   60.9510   27.1847   49.5447 H   0  0  0  0  0  0  0  0  0  0  0  0
   59.4312   26.5052   48.8038 H   0  0  0  0  0  0  0  0  0  0  0  0
   61.7104   27.5206   47.0828 H   0  0  0  0  0  0  0  0  0  0  0  0
   61.6901   25.8398   47.7540 H   0  0  0  0  0  0  0  0  0  0  0  0
   60.5065   28.1825   44.6173 H   0  0  0  0  0  0  0  0  0  0  0  0
   58.7321   29.7001   43.7523 H   0  0  0  0  0  0  0  0  0  0  0  0
   57.7123   33.0839   42.7819 H   0  0  0  0  0  0  0  0  0  0  0  0
   59.2673   34.6464   43.9452 H   0  0  0  0  0  0  0  0  0  0  0  0
   61.1117   33.6665   49.3172 H   0  0  0  0  0  0  0  0  0  0  0  0
   60.7125   32.2345   48.3877 H   0  0  0  0  0  0  0  0  0  0  0  0
   62.8050   32.5934   50.4647 H   0  0  0  0  0  0  0  0  0  0  0  0
   62.2709   31.0680   49.7191 H   0  0  0  0  0  0  0  0  0  0  0  0
   64.7571   32.4072   49.2545 H   0  0  0  0  0  0  0  0  0  0  0  0
   64.1269   31.0553   48.2981 H   0  0  0  0  0  0  0  0  0  0  0  0
   64.3610   33.1610   46.8010 H   0  0  0  0  0  0  0  0  0  0  0  0
   58.8986   32.3076   47.5700 H   0  0  0  0  0  0  0  0  0  0  0  0
   57.3805   30.7170   46.3912 H   0  0  0  0  0  0  0  0  0  0  0  0
   55.7519   27.4794   45.9753 H   0  0  0  0  0  0  0  0  0  0  0  0
   57.5407   26.0141   46.9065 H   0  0  0  0  0  0  0  0  0  0  0  0
  1  2  1  0
  2  3  1  0
  3  4  1  0
  4  5  1  0
  5  6  1  0
  6  7  2  0
  7  8  1  0
  8  9  2  0
  9 10  1  0
 10 11  2  0
 10 12  1  0
 12 13  1  0
 13 14  2  0
 14 15  1  0
 15 16  2  0
 16 17  1  0
 17 18  2  0
 17 19  2  0
 17 20  1  0
 20 21  2  3
 21 22  1  0
 22 23  1  0
 23 24  1  0
 24 25  1  0
 16 26  1  0
 26 27  2  0
  9 28  1  0
 28 29  2  0
 29  6  1  0
 27 13  1  0
 25 21  1  0
  1 30  1  0
  1 31  1  0
  1 32  1  0
  2 33  1  0
  2 34  1  0
  3 35  1  0
  3 36  1  0
  4 37  1  0
  4 38  1  0
  7 39  1  0
  8 40  1  0
 14 41  1  0
 15 42  1  0
 22 43  1  0
 22 44  1  0
 23 45  1  0
 23 46  1  0
 24 47  1  0
 24 48  1  0
 25 49  1  0
 26 50  1  0
 27 51  1  0
 28 52  1  0
 29 53  1  0
M  CHG  1  12  -1
M  END
>  <UniqueID>  (38) 
36

>  <SMILES>  (38) 
CCCCOc1ccc(C(=O)[N-]c2ccc(S(=O)(=O)N=C3CCCN3)cc2)cc1

>  <Energy>  (38) 
62.161397751211936

>  <Genealogy>  (38) 
CCCCOc1ccc(C(=O)[N-]c2ccc(S(=O)(=O)N=C3CCCN3)cc2)cc1 (protonated)
CCCCOc1ccc(C(=O)[N-]c2ccc(S(=O)(=O)N=C3CCCN3)cc2)cc1 (3D coordinates assigned)
CCCCOc1ccc(C(=O)[N-]c2ccc(S(=O)(=O)N=C3CCCN3)cc2)cc1 (nonaromatic ring conformer: 62.161397751211936 kcal/mol)

>  <smiles>  (38) 
CCCCOc1ccc(C(=O)Nc2ccc(S(=O)(=O)N=C3CCCN3)cc2)cc1

>  <score_type>  (38) 
oracle

>  <origin>  (38) 
adg

>  <m_score__min__energy>  (38) 
-9.5399999999999991

>  <m_primary>  (38) 
energy

$$$$
38:0
     RDKit          3D

 41 44  0  0  0  0  0  0  0  0999 V2000
   67.5680   30.7410   52.1430 S   0  0  0  0  0  0  0  0  0  0  0  0
   66.3370   31.1530   51.1880 C   0  0  0  0  0  0  0  0  0  0  0  0
   65.3610   31.4770   50.4380 N   0  0  0  0  0  0  0  0  0  0  0  0
   65.3060   32.7690   49.7620 C   0  0  0  0  0  0  0  0  0  0  0  0
   64.0770   32.8640   48.8970 C   0  0  0  0  0  0  0  0  0  0  0  0
   62.8800   32.2630   49.3030 C   0  0  0  0  0  0  0  0  0  0  0  0
   61.7460   32.3160   48.4880 C   0  0  0  0  0  0  0  0  0  0  0  0
   61.7810   32.9650   47.2360 C   0  0  0  0  0  0  0  0  0  0  0  0
   60.5770   33.0610   46.2890 C   0  0  2  0  0  0  0  0  0  0  0  0
   59.8380   34.4300   46.2500 C   0  0  2  0  0  0  0  0  0  0  0  0
   58.8860   34.6170   47.4560 C   0  0  0  0  0  0  0  0  0  0  0  0
   57.8580   33.4630   47.5030 C   0  0  1  0  0  0  0  0  0  0  0  0
   57.0120   33.4920   46.2110 C   0  0  0  0  0  0  0  0  0  0  0  0
   57.9400   33.3090   44.9900 C   0  0  1  0  0  0  0  0  0  0  0  0
   58.9750   34.4650   44.9600 C   0  0  0  0  0  0  0  0  0  0  0  0
   58.6650   31.9430   45.1040 C   0  0  0  0  0  0  0  0  0  0  0  0
   59.5300   31.9140   46.3930 C   0  0  2  0  0  0  0  0  0  0  0  0
   58.5790   32.1000   47.6000 C   0  0  0  0  0  0  0  0  0  0  0  0
   63.0010   33.5530   46.8360 C   0  0  0  0  0  0  0  0  0  0  0  0
   64.1330   33.5000   47.6520 C   0  0  0  0  0  0  0  0  0  0  0  0
   65.2804   33.5701   50.5154 H   0  0  0  0  0  0  0  0  0  0  0  0
   66.1965   32.8734   49.1247 H   0  0  0  0  0  0  0  0  0  0  0  0
   62.8314   31.7445   50.2719 H   0  0  0  0  0  0  0  0  0  0  0  0
   60.8121   31.8446   48.8279 H   0  0  0  0  0  0  0  0  0  0  0  0
   61.1050   32.9443   45.3311 H   0  0  0  0  0  0  0  0  0  0  0  0
   60.5934   35.2291   46.2790 H   0  0  0  0  0  0  0  0  0  0  0  0
   58.3542   35.5746   47.3551 H   0  0  0  0  0  0  0  0  0  0  0  0
   59.4753   34.6133   48.3848 H   0  0  0  0  0  0  0  0  0  0  0  0
   57.2162   33.5917   48.3870 H   0  0  0  0  0  0  0  0  0  0  0  0
   56.4903   34.4574   46.1348 H   0  0  0  0  0  0  0  0  0  0  0  0
   56.2715   32.6789   46.2366 H   0  0  0  0  0  0  0  0  0  0  0  0
   57.3526   33.3283   44.0602 H   0  0  0  0  0  0  0  0  0  0  0  0
   58.4460   35.4276   44.9002 H   0  0  0  0  0  0  0  0  0  0  0  0
   59.6276   34.3463   44.0825 H   0  0  0  0  0  0  0  0  0  0  0  0
   59.3122   31.7985   44.2263 H   0  0  0  0  0  0  0  0  0  0  0  0
   57.9176   31.1372   45.1494 H   0  0  0  0  0  0  0  0  0  0  0  0
   60.0708   30.9646   46.5201 H   0  0  0  0  0  0  0  0  0  0  0  0
   59.1623   32.0625   48.5319 H   0  0  0  0  0  0  0  0  0  0  0  0
   57.8293   31.2951   47.5949 H   0  0  0  0  0  0  0  0  0  0  0  0
   63.0608   34.0626   45.8630 H   0  0  0  0  0  0  0  0  0  0  0  0
   65.0732   33.9605   47.3144 H   0  0  0  0  0  0  0  0  0  0  0  0
  1  2  2  0
  2  3  2  0
  3  4  1  0
  4  5  1  0
  5  6  2  0
  6  7  1  0
  7  8  2  0
  8  9  1  0
  9 10  1  0
 10 11  1  0
 11 12  1  0
 12 13  1  0
 13 14  1  0
 14 15  1  0
 14 16  1  0
 16 17  1  0
 17 18  1  0
  8 19  1  0
 19 20  2  0
 20  5  1  0
 17  9  1  0
 15 10  1  0
 18 12  1  0
  4 21  1  0
  4 22  1  0
  6 23  1  0
  7 24  1  0
  9 25  1  6
 10 26  1  6
 11 27  1  0
 11 28  1  0
 12 29  1  1
 13 30  1  0
 13 31  1  0
 14 32  1  6
 15 33  1  0
 15 34  1  0
 16 35  1  0
 16 36  1  0
 17 37  1  1
 18 38  1  0
 18 39  1  0
 19 40  1  0
 20 41  1  0
M  END
>  <UniqueID>  (39) 
37

>  <SMILES>  (39) 
S=C=NCc1ccc(C2C3CC4CC(C3)CC2C4)cc1

>  <Energy>  (39) 
50.28480064998196

>  <Genealogy>  (39) 
S=C=NCc1ccc(C2C3CC4CC(C3)CC2C4)cc1 (3D coordinates assigned)
S=C=NCc1ccc(C2C3CC4CC(C3)CC2C4)cc1 (nonaromatic ring conformer: 50.28480064998196 kcal/mol)

>  <smiles>  (39) 
S=C=NCc1ccc(C2C3CC4CC(C3)CC2C4)cc1

>  <score_type>  (39) 
oracle

>  <origin>  (39) 
adg

>  <m_score__min__energy>  (39) 
-7.8499999999999996

>  <m_primary>  (39) 
energy

$$$$
39:0
     RDKit          3D

 37 38  0  0  0  0  0  0  0  0999 V2000
   58.2460   33.4640   44.4920 C   0  0  0  0  0  0  0  0  0  0  0  0
   57.4700   32.8140   45.6170 C   0  0  0  0  0  0  0  0  0  0  0  0
   57.0000   31.5620   45.2290 O   0  0  0  0  0  0  0  0  0  0  0  0
   58.0560   30.8970   44.5990 C   0  0  0  0  0  0  0  0  0  0  0  0
   58.1470   29.5230   45.0100 N   0  0  0  0  0  0  0  0  0  0  0  0
   57.0530   28.7910   45.2750 C   0  0  0  0  0  0  0  0  0  0  0  0
   60.3880   29.6660   44.8750 O   0  0  0  0  0  0  0  0  0  0  0  0
   59.5670   27.6930   45.5030 N   0  0  0  0  0  0  0  0  0  0  0  0
   58.4740   26.9500   45.7730 C   0  0  0  0  0  0  0  0  0  0  0  0
   58.6120   25.6340   46.1640 C   0  0  0  0  0  0  0  0  0  0  0  0
   57.4970   24.8580   46.4430 C   0  0  0  0  0  0  0  0  0  0  0  0
   57.6870   23.5580   46.8280 O   0  0  0  0  0  0  0  0  0  0  0  0
   57.5560   22.4700   45.9560 C   0  0  0  0  0  0  0  0  0  0  0  0
   56.2180   25.3690   46.3420 C   0  0  0  0  0  0  0  0  0  0  0  0
   55.1700   24.5370   46.6360 O   0  0  0  0  0  0  0  0  0  0  0  0
   54.2720   23.9870   45.7040 C   0  0  0  0  0  0  0  0  0  0  0  0
   56.0900   26.6860   45.9490 C   0  0  0  0  0  0  0  0  0  0  0  0
   57.1950   27.4680   45.6690 C   0  0  0  0  0  0  0  0  0  0  0  0
   59.3820   28.9750   45.1250 C   0  0  0  0  0  0  0  0  0  0  0  0
   55.8750   29.2560   45.1830 N   0  0  0  0  0  0  0  0  0  0  0  0
   59.0250   34.1165   44.9131 H   0  0  0  0  0  0  0  0  0  0  0  0
   58.7152   32.6854   43.8726 H   0  0  0  0  0  0  0  0  0  0  0  0
   57.5618   34.0625   43.8726 H   0  0  0  0  0  0  0  0  0  0  0  0
   58.1285   32.6981   46.4905 H   0  0  0  0  0  0  0  0  0  0  0  0
   56.6107   33.4524   45.8701 H   0  0  0  0  0  0  0  0  0  0  0  0
   57.8997   30.9328   43.5107 H   0  0  0  0  0  0  0  0  0  0  0  0
   58.9924   31.3998   44.8826 H   0  0  0  0  0  0  0  0  0  0  0  0
   60.5340   27.2860   45.5870 H   0  0  0  0  0  0  0  0  0  0  0  0
   59.6168   25.1958   46.2554 H   0  0  0  0  0  0  0  0  0  0  0  0
   57.4445   21.5440   46.5392 H   0  0  0  0  0  0  0  0  0  0  0  0
   56.6686   22.6131   45.3219 H   0  0  0  0  0  0  0  0  0  0  0  0
   58.4520   22.3983   45.3219 H   0  0  0  0  0  0  0  0  0  0  0  0
   53.4517   23.4846   46.2376 H   0  0  0  0  0  0  0  0  0  0  0  0
   53.8618   24.7890   45.0727 H   0  0  0  0  0  0  0  0  0  0  0  0
   54.8000   23.2572   45.0727 H   0  0  0  0  0  0  0  0  0  0  0  0
   55.0850   27.1236   45.8564 H   0  0  0  0  0  0  0  0  0  0  0  0
   55.4730   30.0910   45.6230 H   0  0  0  0  0  0  0  0  0  0  0  0
  1  2  1  0
  2  3  1  0
  3  4  1  0
  4  5  1  0
  5  6  1  0
  6  7  2  0
  6  8  1  0
  8  9  1  0
  9 10  2  0
 10 11  1  0
 11 12  1  0
 12 13  1  0
 11 14  2  0
 14 15  1  0
 15 16  1  0
 14 17  1  0
 17 18  2  0
 18 19  1  0
 19 20  2  3
 19  5  1  0
 18  9  1  0
  1 21  1  0
  1 22  1  0
  1 23  1  0
  2 24  1  0
  2 25  1  0
  4 26  1  0
  4 27  1  0
  8 28  1  0
 10 29  1  0
 13 30  1  0
 13 31  1  0
 13 32  1  0
 16 33  1  0
 16 34  1  0
 16 35  1  0
 17 36  1  0
 20 37  1  0
M  END
>  <smiles>  (40) 
CCOCn1c(=O)[nH]c2cc(OC)c(OC)cc2c1=N

>  <score_type>  (40) 
oracle

>  <origin>  (40) 
adg

>  <m_score__min__energy>  (40) 
-5.3200000000000003

>  <m_primary>  (40) 
energy

$$$$
40:0
     RDKit          3D

 48 51  0  0  0  0  0  0  0  0999 V2000
   61.8960   30.8770   47.1540 C   0  0  0  0  0  0  0  0  0  0  0  0
   62.6850   31.7520   47.9950 N   0  0  0  0  0  0  0  0  0  0  0  0
   63.4190   32.7320   47.2270 C   0  0  0  0  0  0  0  0  0  0  0  0
   62.5120   33.8410   46.7220 C   0  0  0  0  0  0  0  0  0  0  0  0
   61.3380   33.9360   47.5200 N   0  0  0  0  0  0  0  0  0  0  0  0
   60.3300   34.8300   47.1050 C   0  0  0  0  0  0  0  0  0  0  0  0
   58.9130   34.4240   47.3570 C   0  0  0  0  0  0  0  0  0  0  0  0
   58.4340   33.5480   46.2810 N   0  0  0  0  0  0  0  0  0  0  0  0
   57.8140   34.1430   45.2680 C   0  0  0  0  0  0  0  0  0  0  0  0
   57.3790   33.3380   44.2760 N   0  0  0  0  0  0  0  0  0  0  0  0
   57.5700   32.0130   44.3330 C   0  0  0  0  0  0  0  0  0  0  0  0
   57.0960   30.7260   43.1160 S   0  0  0  0  0  0  0  0  0  0  0  0
   57.7950   29.4050   44.1120 C   0  0  0  0  0  0  0  0  0  0  0  0
   58.3080   29.9850   45.2310 C   0  0  0  0  0  0  0  0  0  0  0  0
   58.2070   31.3360   45.3640 C   0  0  0  0  0  0  0  0  0  0  0  0
   58.6530   32.2010   46.3840 C   0  0  0  0  0  0  0  0  0  0  0  0
   59.2890   31.8540   47.4080 N   0  0  0  0  0  0  0  0  0  0  0  0
   58.9000   29.0450   46.2660 C   0  0  0  0  0  0  0  0  0  0  0  0
   58.4580   27.6430   45.9960 C   0  0  0  0  0  0  0  0  0  0  0  0
   58.6520   27.1680   44.5850 C   0  0  0  0  0  0  0  0  0  0  0  0
   57.7740   28.0380   43.6680 C   0  0  0  0  0  0  0  0  0  0  0  0
   61.5060   33.7190   48.9160 C   0  0  0  0  0  0  0  0  0  0  0  0
   61.9480   32.2830   49.0980 C   0  0  0  0  0  0  0  0  0  0  0  0
   61.2927   30.2079   47.7851 H   0  0  0  0  0  0  0  0  0  0  0  0
   61.2309   31.4806   46.5189 H   0  0  0  0  0  0  0  0  0  0  0  0
   62.5649   30.2776   46.5189 H   0  0  0  0  0  0  0  0  0  0  0  0
   64.2004   33.1722   47.8639 H   0  0  0  0  0  0  0  0  0  0  0  0
   63.8608   32.2257   46.3561 H   0  0  0  0  0  0  0  0  0  0  0  0
   63.0543   34.7972   46.7629 H   0  0  0  0  0  0  0  0  0  0  0  0
   62.2175   33.6120   45.6872 H   0  0  0  0  0  0  0  0  0  0  0  0
   60.4988   35.7843   47.6254 H   0  0  0  0  0  0  0  0  0  0  0  0
   60.4226   34.8746   46.0098 H   0  0  0  0  0  0  0  0  0  0  0  0
   58.8545   33.8868   48.3151 H   0  0  0  0  0  0  0  0  0  0  0  0
   58.2836   35.3255   47.3908 H   0  0  0  0  0  0  0  0  0  0  0  0
   57.6634   35.2323   45.2393 H   0  0  0  0  0  0  0  0  0  0  0  0
   60.1570   32.1190   47.7780 H   0  0  0  0  0  0  0  0  0  0  0  0
   59.9978   29.0962   46.2189 H   0  0  0  0  0  0  0  0  0  0  0  0
   58.5549   29.3459   47.2662 H   0  0  0  0  0  0  0  0  0  0  0  0
   59.0250   26.9743   46.6604 H   0  0  0  0  0  0  0  0  0  0  0  0
   57.3728   27.6271   46.1751 H   0  0  0  0  0  0  0  0  0  0  0  0
   59.7089   27.2709   44.2980 H   0  0  0  0  0  0  0  0  0  0  0  0
   58.3685   26.1090   44.4948 H   0  0  0  0  0  0  0  0  0  0  0  0
   58.1586   27.9842   42.6388 H   0  0  0  0  0  0  0  0  0  0  0  0
   56.7396   27.6653   43.7022 H   0  0  0  0  0  0  0  0  0  0  0  0
   62.2713   34.4018   49.3137 H   0  0  0  0  0  0  0  0  0  0  0  0
   60.5664   33.9087   49.4556 H   0  0  0  0  0  0  0  0  0  0  0  0
   62.5825   32.2286   49.9949 H   0  0  0  0  0  0  0  0  0  0  0  0
   61.0325   31.6796   49.1858 H   0  0  0  0  0  0  0  0  0  0  0  0
  1  2  1  0
  2  3  1  0
  3  4  1  0
  4  5  1  0
  5  6  1  0
  6  7  1  0
  7  8  1  0
  8  9  1  0
  9 10  2  0
 10 11  1  0
 11 12  1  0
 12 13  1  0
 13 14  2  0
 14 15  1  0
 15 16  1  0
 16 17  2  3
 14 18  1  0
 18 19  1  0
 19 20  1  0
 20 21  1  0
  5 22  1  0
 22 23  1  0
 23  2  1  0
 16  8  1  0
 15 11  2  0
 21 13  1  0
  1 24  1  0
  1 25  1  0
  1 26  1  0
  3 27  1  0
  3 28  1  0
  4 29  1  0
  4 30  1  0
  6 31  1  0
  6 32  1  0
  7 33  1  0
  7 34  1  0
  9 35  1  0
 17 36  1  0
 18 37  1  0
 18 38  1  0
 19 39  1  0
 19 40  1  0
 20 41  1  0
 20 42  1  0
 21 43  1  0
 21 44  1  0
 22 45  1  0
 22 46  1  0
 23 47  1  0
 23 48  1  0
M  END
>  <smiles>  (41) 
CN1CCN(CCn2cnc3sc4c(c3c2=N)CCCC4)CC1

>  <score_type>  (41) 
oracle

>  <origin>  (41) 
adg

>  <m_score__min__energy>  (41) 
-7.1600000000000001

>  <m_primary>  (41) 
energy

$$$$
41:0
     RDKit          3D

 29 31  0  0  0  0  0  0  0  0999 V2000
   56.8560   30.4950   43.8790 C   0  0  0  0  0  0  0  0  0  0  0  0
   56.9820   31.0600   45.1810 O   0  0  0  0  0  0  0  0  0  0  0  0
   57.6460   32.2630   45.4620 C   0  0  0  0  0  0  0  0  0  0  0  0
   57.3970   33.3670   44.6390 C   0  0  0  0  0  0  0  0  0  0  0  0
   58.0420   34.5830   44.8710 C   0  0  0  0  0  0  0  0  0  0  0  0
   58.9380   34.7100   45.9350 C   0  0  0  0  0  0  0  0  0  0  0  0
   59.1870   33.6220   46.7860 C   0  0  0  0  0  0  0  0  0  0  0  0
   60.1440   33.7630   47.9020 C   0  0  0  0  0  0  0  0  0  0  0  0
   59.8630   34.1950   49.1990 C   0  0  0  0  0  0  0  0  0  0  0  0
   60.9960   34.2150   49.9410 N   0  0  0  0  0  0  0  0  0  0  0  0
   61.9730   33.8010   49.1530 N   0  0  0  0  0  0  0  0  0  0  0  0
   63.2750   33.6380   49.4910 C   0  0  0  0  0  0  0  0  0  0  0  0
   64.1480   33.1390   48.5150 C   0  0  0  0  0  0  0  0  0  0  0  0
   63.6340   32.8210   47.2430 C   0  0  0  0  0  0  0  0  0  0  0  0
   62.3100   33.0060   46.9650 N   0  0  0  0  0  0  0  0  0  0  0  0
   61.5040   33.5180   47.9320 C   0  0  0  0  0  0  0  0  0  0  0  0
   58.5510   32.3930   46.5350 C   0  0  0  0  0  0  0  0  0  0  0  0
   56.6173   29.4247   43.9653 H   0  0  0  0  0  0  0  0  0  0  0  0
   56.0501   31.0076   43.3333 H   0  0  0  0  0  0  0  0  0  0  0  0
   57.8033   30.6166   43.3333 H   0  0  0  0  0  0  0  0  0  0  0  0
   56.6878   33.2759   43.8031 H   0  0  0  0  0  0  0  0  0  0  0  0
   57.8442   35.4431   44.2144 H   0  0  0  0  0  0  0  0  0  0  0  0
   59.4511   35.6677   46.1069 H   0  0  0  0  0  0  0  0  0  0  0  0
   58.8654   34.4783   49.5657 H   0  0  0  0  0  0  0  0  0  0  0  0
   63.6352   33.8894   50.4995 H   0  0  0  0  0  0  0  0  0  0  0  0
   65.2158   32.9982   48.7384 H   0  0  0  0  0  0  0  0  0  0  0  0
   64.3040   32.4207   46.4678 H   0  0  0  0  0  0  0  0  0  0  0  0
   61.9350   32.7300   46.0310 H   0  0  0  0  0  0  0  0  0  0  0  0
   58.7612   31.5273   47.1803 H   0  0  0  0  0  0  0  0  0  0  0  0
  1  2  1  0
  2  3  1  0
  3  4  2  0
  4  5  1  0
  5  6  2  0
  6  7  1  0
  7  8  1  0
  8  9  1  0
  9 10  2  0
 10 11  1  0
 11 12  1  0
 12 13  2  0
 13 14  1  0
 14 15  2  0
 15 16  1  0
  7 17  2  0
 17  3  1  0
 16  8  2  0
 16 11  1  0
  1 18  1  0
  1 19  1  0
  1 20  1  0
  4 21  1  0
  5 22  1  0
  6 23  1  0
  9 24  1  0
 12 25  1  0
 13 26  1  0
 14 27  1  0
 15 28  1  0
 17 29  1  0
M  CHG  1  15   1
M  END
>  <UniqueID>  (42) 
38

>  <SMILES>  (42) 
COc1cccc(-c2cnn3ccc[nH+]c23)c1

>  <Energy>  (42) 
72.14714944850876

>  <Genealogy>  (42) 
COc1cccc(-c2cnn3ccc[nH+]c23)c1 (protonated)
COc1cccc(-c2cnn3ccc[nH+]c23)c1 (3D coordinates assigned)
COc1cccc(-c2cnn3ccc[nH+]c23)c1 (optimized conformer: 72.14714944850876 kcal/mol)

>  <smiles>  (42) 
COc1cccc(-c2cnn3cccnc23)c1

>  <score_type>  (42) 
oracle

>  <origin>  (42) 
adg

>  <m_score__min__energy>  (42) 
-5.2699999999999996

>  <m_primary>  (42) 
energy

$$$$
42:0
     RDKit          3D

 34 35  0  0  0  0  0  0  0  0999 V2000
   57.2914   35.2743   44.8910 H   0  0  0  0  0  0  0  0  0  0  0  0
   58.0090   34.5680   45.3340 C   0  0  0  0  0  0  0  0  0  0  0  0
   59.2660   35.0170   45.7460 C   0  0  0  0  0  0  0  0  0  0  0  0
   59.5363   36.0765   45.6261 H   0  0  0  0  0  0  0  0  0  0  0  0
   60.1810   34.1240   46.3100 C   0  0  0  0  0  0  0  0  0  0  0  0
   61.1641   34.4853   46.6460 H   0  0  0  0  0  0  0  0  0  0  0  0
   59.8490   32.7670   46.4490 C   0  0  0  0  0  0  0  0  0  0  0  0
   58.5760   32.3160   46.0420 C   0  0  0  0  0  0  0  0  0  0  0  0
   57.6620   33.2220   45.4840 C   0  0  0  0  0  0  0  0  0  0  0  0
   56.6695   32.8725   45.1635 H   0  0  0  0  0  0  0  0  0  0  0  0
   58.2220   30.9330   46.1900 N   0  0  0  0  0  0  0  0  0  0  0  0
   57.2370   30.6420   46.0030 H   0  0  0  0  0  0  0  0  0  0  0  0
   59.2230   29.9640   46.5550 C   0  0  0  0  0  0  0  0  0  0  0  0
   58.9260   28.7150   46.7670 N   0  0  0  0  0  0  0  0  0  0  0  0
   57.6790   28.0640   46.3730 C   0  0  0  0  0  0  0  0  0  0  0  0
   56.8457   28.7718   46.4937 H   0  0  0  0  0  0  0  0  0  0  0  0
   57.5177   27.1819   47.0101 H   0  0  0  0  0  0  0  0  0  0  0  0
   57.7550   27.6180   44.9140 C   0  0  0  0  0  0  0  0  0  0  0  0
   56.9009   26.9611   44.6928 H   0  0  0  0  0  0  0  0  0  0  0  0
   58.7020   27.0804   44.7586 H   0  0  0  0  0  0  0  0  0  0  0  0
   57.7180   28.7720   44.0150 N   0  0  0  0  0  0  0  0  0  0  0  0
   58.5110   28.9050   43.3480 H   0  0  0  0  0  0  0  0  0  0  0  0
   56.6400   29.7170   44.0070 C   0  0  0  0  0  0  0  0  0  0  0  0
   55.7100   29.6350   44.8540 O   0  0  0  0  0  0  0  0  0  0  0  0
   56.6380   30.8350   43.0160 C   0  0  0  0  0  0  0  0  0  0  0  0
   56.6363   31.7973   43.5489 H   0  0  0  0  0  0  0  0  0  0  0  0
   57.5363   30.7670   42.3847 H   0  0  0  0  0  0  0  0  0  0  0  0
   55.7400   30.7638   42.3847 H   0  0  0  0  0  0  0  0  0  0  0  0
   60.6630   30.3870   46.5960 C   0  0  0  0  0  0  0  0  0  0  0  0
   61.2217   29.7003   47.2489 H   0  0  0  0  0  0  0  0  0  0  0  0
   61.0672   30.3585   45.5733 H   0  0  0  0  0  0  0  0  0  0  0  0
   60.7980   31.8160   47.1370 C   0  0  0  0  0  0  0  0  0  0  0  0
   60.5782   31.8111   48.2148 H   0  0  0  0  0  0  0  0  0  0  0  0
   61.8253   32.1590   46.9449 H   0  0  0  0  0  0  0  0  0  0  0  0
  1  2  1  0
  2  3  2  0
  3  4  1  0
  3  5  1  0
  5  6  1  0
  5  7  2  0
  7  8  1  0
  8  9  2  0
  9 10  1  0
  8 11  1  0
 11 12  1  0
 11 13  1  0
 13 14  2  0
 14 15  1  0
 15 16  1  0
 15 17  1  0
 15 18  1  0
 18 19  1  0
 18 20  1  0
 18 21  1  0
 21 22  1  0
 21 23  1  0
 23 24  2  0
 23 25  1  0
 25 26  1  0
 25 27  1  0
 25 28  1  0
 13 29  1  0
 29 30  1  0
 29 31  1  0
 29 32  1  0
 32 33  1  0
 32 34  1  0
  9  2  1  0
 32  7  1  0
M  END
>  <UniqueID>  (43) 
39

>  <SMILES>  (43) 
CC(=O)NCC/N=C1/CCc2ccccc2N1

>  <Energy>  (43) 
27.084386745497977

>  <Genealogy>  (43) 
CC(=O)NCC/N=C1/CCc2ccccc2N1 (cis-trans isomerization)
CC(=O)NCC/N=C1/CCc2ccccc2N1 (3D coordinates assigned)
CC(=O)NCC/N=C1/CCc2ccccc2N1 (nonaromatic ring conformer: 27.084386745497977 kcal/mol)

>  <smiles>  (43) 
CC(=O)NCCN=C1CCc2ccccc2N1

>  <score_type>  (43) 
oracle

>  <origin>  (43) 
adg

>  <m_score__min__energy>  (43) 
-6.4199999999999999

>  <m_primary>  (43) 
energy

$$$$
43:0
     RDKit          3D

 52 54  0  0  0  0  0  0  0  0999 V2000
   57.8434   28.3406   43.6378 H   0  0  0  0  0  0  0  0  0  0  0  0
   57.8330   29.2770   44.2150 C   0  0  0  0  0  0  0  0  0  0  0  0
   56.7020   30.0930   44.1970 C   0  0  0  0  0  0  0  0  0  0  0  0
   55.5110   29.7210   43.3740 C   0  0  0  0  0  0  0  0  0  0  0  0
   54.6738   29.4595   44.0378 H   0  0  0  0  0  0  0  0  0  0  0  0
   55.2236   30.5722   42.7392 H   0  0  0  0  0  0  0  0  0  0  0  0
   55.7591   28.8576   42.7392 H   0  0  0  0  0  0  0  0  0  0  0  0
   56.7080   31.2640   44.8810 N   0  0  0  0  0  0  0  0  0  0  0  0
   57.7690   31.6630   45.6300 C   0  0  0  0  0  0  0  0  0  0  0  0
   58.9120   30.8400   45.7460 C   0  0  0  0  0  0  0  0  0  0  0  0
   58.9580   29.6480   44.9680 C   0  0  0  0  0  0  0  0  0  0  0  0
   60.1800   28.7680   44.8930 C   0  0  0  0  0  0  0  0  0  0  0  0
   60.5190   28.5239   45.9106 H   0  0  0  0  0  0  0  0  0  0  0  0
   59.9314   27.8402   44.3569 H   0  0  0  0  0  0  0  0  0  0  0  0
   60.9811   29.2979   44.3569 H   0  0  0  0  0  0  0  0  0  0  0  0
   60.0200   31.2800   46.6540 C   0  0  0  0  0  0  0  0  0  0  0  0
   60.8580   30.3950   47.1150 N   0  0  0  0  0  0  0  0  0  0  0  0
   60.5780   29.4130   48.1600 C   0  0  0  0  0  0  0  0  0  0  0  0
   60.5396   28.4089   47.7124 H   0  0  0  0  0  0  0  0  0  0  0  0
   61.3755   29.4606   48.9161 H   0  0  0  0  0  0  0  0  0  0  0  0
   59.2320   29.7170   48.8370 C   0  0  0  0  0  0  0  0  0  0  0  0
   58.5907   30.2358   48.1093 H   0  0  0  0  0  0  0  0  0  0  0  0
   58.8193   28.7503   49.1613 H   0  0  0  0  0  0  0  0  0  0  0  0
   59.3320   30.5610   50.0500 N   0  0  0  0  0  0  0  0  0  0  0  0
   59.5630   29.8380   51.3170 C   0  0  0  0  0  0  0  0  0  0  0  0
   60.0516   28.8793   51.0888 H   0  0  0  0  0  0  0  0  0  0  0  0
   60.1917   30.4804   51.9510 H   0  0  0  0  0  0  0  0  0  0  0  0
   58.2590   29.5520   52.1000 C   0  0  0  0  0  0  0  0  0  0  0  0
   58.1176   28.4627   52.1595 H   0  0  0  0  0  0  0  0  0  0  0  0
   58.3665   30.0072   53.0956 H   0  0  0  0  0  0  0  0  0  0  0  0
   57.1160   30.1220   51.4960 O   0  0  0  0  0  0  0  0  0  0  0  0
   57.3440   31.4930   51.2610 C   0  0  0  0  0  0  0  0  0  0  0  0
   56.3968   31.9745   50.9764 H   0  0  0  0  0  0  0  0  0  0  0  0
   57.7399   31.9517   52.1791 H   0  0  0  0  0  0  0  0  0  0  0  0
   58.3670   31.6790   50.1290 C   0  0  0  0  0  0  0  0  0  0  0  0
   57.8271   31.7475   49.1731 H   0  0  0  0  0  0  0  0  0  0  0  0
   58.9350   32.5974   50.3387 H   0  0  0  0  0  0  0  0  0  0  0  0
   60.0460   32.7030   47.1860 C   0  0  0  0  0  0  0  0  0  0  0  0
   61.0665   33.0973   47.0718 H   0  0  0  0  0  0  0  0  0  0  0  0
   59.7272   32.6575   48.2378 H   0  0  0  0  0  0  0  0  0  0  0  0
   59.0690   33.6600   46.4600 C   0  0  0  0  0  0  0  0  0  0  0  0
   59.6140   34.0310   45.0600 C   0  0  0  0  0  0  0  0  0  0  0  0
   60.5187   34.6469   45.1701 H   0  0  0  0  0  0  0  0  0  0  0  0
   59.8607   33.1125   44.5074 H   0  0  0  0  0  0  0  0  0  0  0  0
   58.8499   34.5974   44.5074 H   0  0  0  0  0  0  0  0  0  0  0  0
   58.9250   34.9570   47.2830 C   0  0  0  0  0  0  0  0  0  0  0  0
   58.9518   34.7154   48.3558 H   0  0  0  0  0  0  0  0  0  0  0  0
   59.7529   35.6393   47.0400 H   0  0  0  0  0  0  0  0  0  0  0  0
   57.9676   35.4411   47.0400 H   0  0  0  0  0  0  0  0  0  0  0  0
   57.6850   32.9800   46.3490 C   0  0  0  0  0  0  0  0  0  0  0  0
   57.0044   33.6448   45.7969 H   0  0  0  0  0  0  0  0  0  0  0  0
   57.3127   32.7919   47.3668 H   0  0  0  0  0  0  0  0  0  0  0  0
  1  2  1  0
  2  3  2  0
  3  4  1  0
  4  5  1  0
  4  6  1  0
  4  7  1  0
  3  8  1  0
  8  9  2  0
  9 10  1  0
 10 11  2  0
 11 12  1  0
 12 13  1  0
 12 14  1  0
 12 15  1  0
 10 16  1  0
 16 17  2  0
 17 18  1  0
 18 19  1  0
 18 20  1  0
 18 21  1  0
 21 22  1  0
 21 23  1  0
 21 24  1  0
 24 25  1  0
 25 26  1  0
 25 27  1  0
 25 28  1  0
 28 29  1  0
 28 30  1  0
 28 31  1  0
 31 32  1  0
 32 33  1  0
 32 34  1  0
 32 35  1  0
 35 36  1  0
 35 37  1  0
 16 38  1  0
 38 39  1  0
 38 40  1  0
 38 41  1  0
 41 42  1  0
 42 43  1  0
 42 44  1  0
 42 45  1  0
 41 46  1  0
 46 47  1  0
 46 48  1  0
 46 49  1  0
 41 50  1  0
 50 51  1  0
 50 52  1  0
 11  2  1  0
 35 24  1  0
 50  9  1  0
M  END
>  <UniqueID>  (44) 
40

>  <SMILES>  (44) 
Cc1cc(C)c2c(n1)CC(C)(C)C/C2=N\CCN1CCOCC1

>  <Energy>  (44) 
68.17106036774973

>  <Genealogy>  (44) 
Cc1cc(C)c2c(n1)CC(C)(C)C/C2=N\CCN1CCOCC1 (cis-trans isomerization)
Cc1cc(C)c2c(n1)CC(C)(C)C/C2=N\CCN1CCOCC1 (3D coordinates assigned)
Cc1cc(C)c2c(n1)CC(C)(C)C/C2=N\CCN1CCOCC1 (nonaromatic ring conformer: 68.17106036774973 kcal/mol)

>  <smiles>  (44) 
Cc1cc(C)c2c(n1)CC(C)(C)CC2=NCCN1CCOCC1

>  <score_type>  (44) 
oracle

>  <origin>  (44) 
adg

>  <m_score__min__energy>  (44) 
-8.0199999999999996

>  <m_primary>  (44) 
energy

$$$$
44:0
     RDKit          3D

 37 39  0  0  0  0  0  0  0  0999 V2000
   57.6030   32.3320   41.0180 C   0  0  0  0  0  0  0  0  0  0  0  0
   57.4070   31.7680   42.3900 C   0  0  0  0  0  0  0  0  0  0  0  0
   58.1140   32.2910   43.4770 C   0  0  0  0  0  0  0  0  0  0  0  0
   57.9090   31.7360   44.7540 C   0  0  0  0  0  0  0  0  0  0  0  0
   58.6110   32.2260   45.9230 N   0  0  0  0  0  0  0  0  0  0  0  0
   58.5180   31.5260   47.2110 C   0  0  0  0  0  0  0  0  0  0  0  0
   59.4160   33.4550   45.8310 C   0  0  0  0  0  0  0  0  0  0  0  0
   60.3400   33.5660   47.0150 C   0  0  0  0  0  0  0  0  0  0  0  0
   59.8950   34.1420   48.2160 C   0  0  0  0  0  0  0  0  0  0  0  0
   60.7460   34.2230   49.3210 C   0  0  0  0  0  0  0  0  0  0  0  0
   62.0550   33.7300   49.2380 C   0  0  0  0  0  0  0  0  0  0  0  0
   62.9250   33.8000   50.3320 C   0  0  0  0  0  0  0  0  0  0  0  0
   64.2230   33.3000   50.2200 C   0  0  0  0  0  0  0  0  0  0  0  0
   64.6390   32.7330   49.0140 C   0  0  0  0  0  0  0  0  0  0  0  0
   63.7890   32.6680   47.9530 N   0  0  0  0  0  0  0  0  0  0  0  0
   62.5130   33.1480   48.0330 C   0  0  0  0  0  0  0  0  0  0  0  0
   61.6500   33.0710   46.9300 C   0  0  0  0  0  0  0  0  0  0  0  0
   57.0240   30.7080   44.8810 N   0  0  0  0  0  0  0  0  0  0  0  0
   56.3460   30.2120   43.8150 C   0  0  0  0  0  0  0  0  0  0  0  0
   56.5390   30.7410   42.5810 N   0  0  0  0  0  0  0  0  0  0  0  0
   57.9632   33.3685   41.0956 H   0  0  0  0  0  0  0  0  0  0  0  0
   58.3433   31.7263   40.4749 H   0  0  0  0  0  0  0  0  0  0  0  0
   56.6466   32.3159   40.4749 H   0  0  0  0  0  0  0  0  0  0  0  0
   58.8194   33.1232   43.3363 H   0  0  0  0  0  0  0  0  0  0  0  0
   58.6146   32.2527   48.0311 H   0  0  0  0  0  0  0  0  0  0  0  0
   57.5446   31.0188   47.2832 H   0  0  0  0  0  0  0  0  0  0  0  0
   59.3252   30.7822   47.2832 H   0  0  0  0  0  0  0  0  0  0  0  0
   60.0121   33.4297   44.9069 H   0  0  0  0  0  0  0  0  0  0  0  0
   58.7416   34.3239   45.8215 H   0  0  0  0  0  0  0  0  0  0  0  0
   58.8690   34.5322   48.2872 H   0  0  0  0  0  0  0  0  0  0  0  0
   60.3878   34.6746   50.2579 H   0  0  0  0  0  0  0  0  0  0  0  0
   62.5865   34.2481   51.2779 H   0  0  0  0  0  0  0  0  0  0  0  0
   64.9129   33.3522   51.0752 H   0  0  0  0  0  0  0  0  0  0  0  0
   65.6606   32.3361   48.9206 H   0  0  0  0  0  0  0  0  0  0  0  0
   64.1330   32.2360   47.0650 H   0  0  0  0  0  0  0  0  0  0  0  0
   62.0029   32.6191   45.9913 H   0  0  0  0  0  0  0  0  0  0  0  0
   55.6393   29.3802   43.9519 H   0  0  0  0  0  0  0  0  0  0  0  0
  1  2  1  0
  2  3  2  0
  3  4  1  0
  4  5  1  0
  5  6  1  0
  5  7  1  0
  7  8  1  0
  8  9  2  0
  9 10  1  0
 10 11  2  0
 11 12  1  0
 12 13  2  0
 13 14  1  0
 14 15  2  0
 15 16  1  0
 16 17  2  0
  4 18  2  0
 18 19  1  0
 19 20  2  0
 20  2  1  0
 17  8  1  0
 16 11  1  0
  1 21  1  0
  1 22  1  0
  1 23  1  0
  3 24  1  0
  6 25  1  0
  6 26  1  0
  6 27  1  0
  7 28  1  0
  7 29  1  0
  9 30  1  0
 10 31  1  0
 12 32  1  0
 13 33  1  0
 14 34  1  0
 15 35  1  0
 17 36  1  0
 19 37  1  0
M  CHG  1  15   1
M  END
>  <UniqueID>  (45) 
41

>  <SMILES>  (45) 
Cc1cc(N(C)Cc2ccc3ccc[nH+]c3c2)ncn1

>  <Energy>  (45) 
41.10378488799309

>  <Genealogy>  (45) 
Cc1cc(N(C)Cc2ccc3ccc[nH+]c3c2)ncn1 (protonated)
Cc1cc(N(C)Cc2ccc3ccc[nH+]c3c2)ncn1 (3D coordinates assigned)
Cc1cc(N(C)Cc2ccc3ccc[nH+]c3c2)ncn1 (optimized conformer: 41.10378488799309 kcal/mol)

>  <smiles>  (45) 
Cc1cc(N(C)Cc2ccc3cccnc3c2)ncn1

>  <score_type>  (45) 
oracle

>  <origin>  (45) 
adg

>  <m_score__min__energy>  (45) 
-6.2000000000000002

>  <m_primary>  (45) 
energy

$$$$
45:0
     RDKit          3D

 26 27  0  0  0  0  0  0  0  0999 V2000
   56.6860   29.9060   45.5440 O   0  0  0  0  0  0  0  0  0  0  0  0
   56.9910   30.5300   44.4940 C   0  0  0  0  0  0  0  0  0  0  0  0
   56.2780   30.3710   43.2110 C   0  0  0  0  0  0  0  0  0  0  0  0
   57.0790   31.2620   42.2520 C   0  0  0  0  0  0  0  0  0  0  0  0
   58.0740   32.0700   43.1080 C   0  0  0  0  0  0  0  0  0  0  0  0
   58.0540   31.4630   44.4290 N   0  0  0  0  0  0  0  0  0  0  0  0
   58.6830   32.0510   45.5760 C   0  0  0  0  0  0  0  0  0  0  0  0
   59.7070   31.3610   46.2400 C   0  0  0  0  0  0  0  0  0  0  0  0
   60.3160   31.9120   47.3700 C   0  0  0  0  0  0  0  0  0  0  0  0
   59.9250   33.1740   47.8450 C   0  0  0  0  0  0  0  0  0  0  0  0
   60.5470   33.7480   49.0940 C   0  0  0  0  0  0  0  0  0  0  0  0
   59.6270   34.5620   49.7270 F   0  0  0  0  0  0  0  0  0  0  0  0
   60.9260   32.7380   49.9610 F   0  0  0  0  0  0  0  0  0  0  0  0
   61.6710   34.4930   48.7820 F   0  0  0  0  0  0  0  0  0  0  0  0
   58.8840   33.8560   47.1920 C   0  0  0  0  0  0  0  0  0  0  0  0
   58.2710   33.3070   46.0600 C   0  0  0  0  0  0  0  0  0  0  0  0
   57.0220   34.2350   45.2400 Cl  0  0  0  0  0  0  0  0  0  0  0  0
   56.2918   29.3223   42.8794 H   0  0  0  0  0  0  0  0  0  0  0  0
   55.2151   30.6480   43.2709 H   0  0  0  0  0  0  0  0  0  0  0  0
   57.6238   30.6406   41.5260 H   0  0  0  0  0  0  0  0  0  0  0  0
   56.4113   31.9322   41.6907 H   0  0  0  0  0  0  0  0  0  0  0  0
   59.0841   32.0119   42.6763 H   0  0  0  0  0  0  0  0  0  0  0  0
   57.7970   33.1337   43.1500 H   0  0  0  0  0  0  0  0  0  0  0  0
   60.0333   30.3784   45.8684 H   0  0  0  0  0  0  0  0  0  0  0  0
   61.1073   31.3533   47.8912 H   0  0  0  0  0  0  0  0  0  0  0  0
   58.5477   34.8310   47.5745 H   0  0  0  0  0  0  0  0  0  0  0  0
  1  2  2  0
  2  3  1  0
  3  4  1  0
  4  5  1  0
  5  6  1  0
  6  7  1  0
  7  8  2  0
  8  9  1  0
  9 10  2  0
 10 11  1  0
 11 12  1  0
 11 13  1  0
 11 14  1  0
 10 15  1  0
 15 16  2  0
 16 17  1  0
  6  2  1  0
 16  7  1  0
  3 18  1  0
  3 19  1  0
  4 20  1  0
  4 21  1  0
  5 22  1  0
  5 23  1  0
  8 24  1  0
  9 25  1  0
 15 26  1  0
M  END
>  <UniqueID>  (46) 
42

>  <SMILES>  (46) 
O=C1CCCN1c1ccc(C(F)(F)F)cc1Cl

>  <Energy>  (46) 
38.97540536772

>  <Genealogy>  (46) 
O=C1CCCN1c1ccc(C(F)(F)F)cc1Cl (3D coordinates assigned)
O=C1CCCN1c1ccc(C(F)(F)F)cc1Cl (nonaromatic ring conformer: 38.97540536772 kcal/mol)

>  <smiles>  (46) 
O=C1CCCN1c1ccc(C(F)(F)F)cc1Cl

>  <score_type>  (46) 
oracle

>  <origin>  (46) 
adg

>  <m_score__min__energy>  (46) 
-5.8899999999999997

>  <m_primary>  (46) 
energy

$$$$
