0:0
     RDKit          3D

 54 56  0  0  0  0  0  0  0  0999 V2000
   65.4820   32.8350   50.0870 C   0  0  0  0  0  0  0  0  0  0  0  0
   64.6710   31.9850   49.2820 O   0  0  0  0  0  0  0  0  0  0  0  0
   63.4730   32.3850   48.6700 C   0  0  0  0  0  0  0  0  0  0  0  0
   62.8160   31.5960   47.7070 C   0  0  0  0  0  0  0  0  0  0  0  0
   61.6250   32.0390   47.1260 C   0  0  0  0  0  0  0  0  0  0  0  0
   61.0690   33.2740   47.4960 C   0  0  0  0  0  0  0  0  0  0  0  0
   59.8410   33.7270   46.8920 N   0  0  0  0  0  0  0  0  0  0  0  0
   59.9000   34.5210   45.6580 C   0  0  0  0  0  0  0  0  0  0  0  0
   58.5110   34.6570   45.0180 C   0  0  0  0  0  0  0  0  0  0  0  0
   57.6650   33.4810   45.2930 N   0  0  0  0  0  0  0  0  0  0  0  0
   58.1950   32.2310   44.6960 C   0  0  0  0  0  0  0  0  0  0  0  0
   57.0530   31.2470   44.4210 C   0  0  0  0  0  0  0  0  0  0  0  0
   57.3860   29.9000   44.8880 N   0  0  0  0  0  0  0  0  0  0  0  0
   56.5160   28.8910   45.1070 C   0  0  0  0  0  0  0  0  0  0  0  0
   55.1480   28.9780   44.8760 O   0  0  0  0  0  0  0  0  0  0  0  0
   57.1600   27.7770   45.6050 C   0  0  0  0  0  0  0  0  0  0  0  0
   58.5000   28.1230   45.6980 C   0  0  0  0  0  0  0  0  0  0  0  0
   59.6170   27.2660   46.2350 C   0  0  0  0  0  0  0  0  0  0  0  0
   59.1470   25.8210   46.4350 C   0  0  0  0  0  0  0  0  0  0  0  0
   60.1590   27.8560   47.5420 C   0  0  0  0  0  0  0  0  0  0  0  0
   58.5980   29.4330   45.2580 C   0  0  0  0  0  0  0  0  0  0  0  0
   59.7800   30.1710   45.2220 O   0  0  0  0  0  0  0  0  0  0  0  0
   57.3760   33.3530   46.7400 C   0  0  0  0  0  0  0  0  0  0  0  0
   58.5870   33.6630   47.6510 C   0  0  0  0  0  0  0  0  0  0  0  0
   61.7240   34.0570   48.4590 C   0  0  0  0  0  0  0  0  0  0  0  0
   62.9160   33.6150   49.0380 C   0  0  0  0  0  0  0  0  0  0  0  0
   65.2861   32.6297   51.1498 H   0  0  0  0  0  0  0  0  0  0  0  0
   66.5430   32.6459   49.8665 H   0  0  0  0  0  0  0  0  0  0  0  0
   65.2433   33.8859   49.8665 H   0  0  0  0  0  0  0  0  0  0  0  0
   63.2422   30.6262   47.4105 H   0  0  0  0  0  0  0  0  0  0  0  0
   61.1195   31.4159   46.3735 H   0  0  0  0  0  0  0  0  0  0  0  0
   60.2857   35.5236   45.8946 H   0  0  0  0  0  0  0  0  0  0  0  0
   60.5630   34.0084   44.9455 H   0  0  0  0  0  0  0  0  0  0  0  0
   58.0182   35.5530   45.4233 H   0  0  0  0  0  0  0  0  0  0  0  0
   58.6422   34.7372   43.9288 H   0  0  0  0  0  0  0  0  0  0  0  0
   58.7051   32.4682   43.7507 H   0  0  0  0  0  0  0  0  0  0  0  0
   58.9026   31.7699   45.4008 H   0  0  0  0  0  0  0  0  0  0  0  0
   56.1485   31.5934   44.9424 H   0  0  0  0  0  0  0  0  0  0  0  0
   56.8850   31.2057   43.3347 H   0  0  0  0  0  0  0  0  0  0  0  0
   56.7043   26.8124   45.8732 H   0  0  0  0  0  0  0  0  0  0  0  0
   60.4336   27.2533   45.4981 H   0  0  0  0  0  0  0  0  0  0  0  0
   59.0764   25.6040   47.5111 H   0  0  0  0  0  0  0  0  0  0  0  0
   58.1595   25.6887   45.9687 H   0  0  0  0  0  0  0  0  0  0  0  0
   59.8677   25.1331   45.9687 H   0  0  0  0  0  0  0  0  0  0  0  0
   59.6905   27.3460   48.3966 H   0  0  0  0  0  0  0  0  0  0  0  0
   61.2491   27.7151   47.5836 H   0  0  0  0  0  0  0  0  0  0  0  0
   59.9263   28.9303   47.5836 H   0  0  0  0  0  0  0  0  0  0  0  0
   59.9400   30.9560   45.8400 H   0  0  0  0  0  0  0  0  0  0  0  0
   56.5641   34.0503   46.9940 H   0  0  0  0  0  0  0  0  0  0  0  0
   57.1023   32.3028   46.9192 H   0  0  0  0  0  0  0  0  0  0  0  0
   58.4211   34.6313   48.1457 H   0  0  0  0  0  0  0  0  0  0  0  0
   58.6758   32.8510   48.3878 H   0  0  0  0  0  0  0  0  0  0  0  0
   61.2962   35.0247   48.7597 H   0  0  0  0  0  0  0  0  0  0  0  0
   63.4212   34.2392   49.7897 H   0  0  0  0  0  0  0  0  0  0  0  0
  1  2  1  0
  2  3  1  0
  3  4  2  0
  4  5  1  0
  5  6  2  0
  6  7  1  0
  7  8  1  0
  8  9  1  0
  9 10  1  0
 10 11  1  0
 11 12  1  0
 12 13  1  0
 13 14  1  0
 14 15  1  0
 14 16  2  0
 16 17  1  0
 17 18  1  0
 18 19  1  0
 18 20  1  0
 17 21  2  0
 21 22  1  0
 10 23  1  0
 23 24  1  0
  6 25  1  0
 25 26  2  0
 26  3  1  0
 24  7  1  0
 21 13  1  0
  1 27  1  0
  1 28  1  0
  1 29  1  0
  4 30  1  0
  5 31  1  0
  8 32  1  0
  8 33  1  0
  9 34  1  0
  9 35  1  0
 11 36  1  0
 11 37  1  0
 12 38  1  0
 12 39  1  0
 16 40  1  0
 18 41  1  0
 19 42  1  0
 19 43  1  0
 19 44  1  0
 20 45  1  0
 20 46  1  0
 20 47  1  0
 22 48  1  0
 23 49  1  0
 23 50  1  0
 24 51  1  0
 24 52  1  0
 25 53  1  0
 26 54  1  0
M  CHG  1  15  -1
M  END
>  <UniqueID>  (1) 
1

>  <SMILES>  (1) 
COc1ccc(N2CCN(CCn3c([O-])cc(C(C)C)c3O)CC2)cc1

>  <Energy>  (1) 
87.1862242128824

>  <Genealogy>  (1) 
COc1ccc(N2CCN(CCn3c([O-])cc(C(C)C)c3O)CC2)cc1 (protonated)
COc1ccc(N2CCN(CCn3c([O-])cc(C(C)C)c3O)CC2)cc1 (3D coordinates assigned)
COc1ccc(N2CCN(CCn3c([O-])cc(C(C)C)c3O)CC2)cc1 (nonaromatic ring conformer: 87.1862242128824 kcal/mol)

>  <smiles>  (1) 
COc1ccc(N2CCN(CCn3c(O)cc(C(C)C)c3O)CC2)cc1

>  <score_type>  (1) 
oracle

>  <origin>  (1) 
adg

>  <m_score__min__energy>  (1) 
-11.289999999999999

>  <m_primary>  (1) 
energy

$$$$
1:0
     RDKit          3D

 17 17  0  0  0  0  0  0  0  0999 V2000
   56.3910   30.0910   43.0010 C   0  0  0  0  0  0  0  0  0  0  0  0
   57.1090   31.1950   43.7200 C   0  0  0  0  0  0  0  0  0  0  0  0
   57.1250   31.1930   45.0800 N   0  0  0  0  0  0  0  0  0  0  0  0
   57.7590   32.1630   45.7870 C   0  0  0  0  0  0  0  0  0  0  0  0
   58.4110   33.1910   45.1080 C   0  0  0  0  0  0  0  0  0  0  0  0
   59.3080   34.5670   46.0840 Br  0  0  0  0  0  0  0  0  0  0  0  0
   58.4040   33.2070   43.7480 N   0  0  0  0  0  0  0  0  0  0  0  0
   57.7690   32.2350   43.0280 C   0  0  0  0  0  0  0  0  0  0  0  0
   57.7830   32.2870   41.5250 C   0  0  0  0  0  0  0  0  0  0  0  0
   55.9446   29.4046   43.7356 H   0  0  0  0  0  0  0  0  0  0  0  0
   55.5981   30.5192   42.3702 H   0  0  0  0  0  0  0  0  0  0  0  0
   57.1039   29.5398   42.3702 H   0  0  0  0  0  0  0  0  0  0  0  0
   57.7582   32.1380   46.8867 H   0  0  0  0  0  0  0  0  0  0  0  0
   58.8970   33.9840   43.2550 H   0  0  0  0  0  0  0  0  0  0  0  0
   58.0559   33.3005   41.1957 H   0  0  0  0  0  0  0  0  0  0  0  0
   58.5189   31.5658   41.1400 H   0  0  0  0  0  0  0  0  0  0  0  0
   56.7844   32.0328   41.1400 H   0  0  0  0  0  0  0  0  0  0  0  0
  1  2  1  0
  2  3  2  0
  3  4  1  0
  4  5  2  0
  5  6  1  0
  5  7  1  0
  7  8  2  0
  8  9  1  0
  8  2  1  0
  1 10  1  0
  1 11  1  0
  1 12  1  0
  4 13  1  0
  7 14  1  0
  9 15  1  0
  9 16  1  0
  9 17  1  0
M  CHG  1   7   1
M  END
>  <UniqueID>  (2) 
2

>  <SMILES>  (2) 
Cc1ncc(Br)[nH+]c1C

>  <Energy>  (2) 
15.46797773593332

>  <Genealogy>  (2) 
Cc1ncc(Br)[nH+]c1C (protonated)
Cc1ncc(Br)[nH+]c1C (3D coordinates assigned)
Cc1ncc(Br)[nH+]c1C (optimized conformer: 15.46797773593332 kcal/mol)

>  <smiles>  (2) 
Cc1ncc(Br)nc1C

>  <score_type>  (2) 
oracle

>  <origin>  (2) 
adg

>  <m_score__min__energy>  (2) 
-3.6000000000000001

>  <m_primary>  (2) 
energy

$$$$
2:0
     RDKit          3D

 39 41  0  0  0  0  0  0  0  0999 V2000
   66.8490   32.9690   50.4060 N   0  0  0  0  0  0  0  0  0  0  0  0
   65.7690   33.0910   50.0100 C   0  0  0  0  0  0  0  0  0  0  0  0
   64.4250   33.2440   49.5150 C   0  0  0  0  0  0  0  0  0  0  0  0
   64.1400   32.9880   48.1690 C   0  0  0  0  0  0  0  0  0  0  0  0
   62.8350   33.1360   47.6880 C   0  0  0  0  0  0  0  0  0  0  0  0
   61.8020   33.5470   48.5480 C   0  0  0  0  0  0  0  0  0  0  0  0
   60.4550   33.6860   48.0560 N   0  0  0  0  0  0  0  0  0  0  0  0
   60.0290   34.9150   47.3740 C   0  0  0  0  0  0  0  0  0  0  0  0
   59.4550   34.5690   45.9980 C   0  0  0  0  0  0  0  0  0  0  0  0
   58.5580   33.4040   46.0650 N   0  0  0  0  0  0  0  0  0  0  0  0
   57.8450   33.0070   44.8800 C   0  0  0  0  0  0  0  0  0  0  0  0
   57.3580   33.8920   44.1260 O   0  0  0  0  0  0  0  0  0  0  0  0
   57.6870   31.5810   44.5140 C   0  0  0  0  0  0  0  0  0  0  0  0
   58.3980   30.5840   45.2030 C   0  0  0  0  0  0  0  0  0  0  0  0
   58.2470   29.2480   44.8320 C   0  0  0  0  0  0  0  0  0  0  0  0
   57.4000   28.9130   43.7770 C   0  0  0  0  0  0  0  0  0  0  0  0
   56.7170   29.9260   43.1010 C   0  0  0  0  0  0  0  0  0  0  0  0
   56.8760   31.2260   43.4740 N   0  0  0  0  0  0  0  0  0  0  0  0
   58.2350   32.7990   47.3660 C   0  0  0  0  0  0  0  0  0  0  0  0
   59.5180   32.5580   48.1740 C   0  0  0  0  0  0  0  0  0  0  0  0
   62.0950   33.7950   49.9000 C   0  0  0  0  0  0  0  0  0  0  0  0
   63.4010   33.6470   50.3800 C   0  0  0  0  0  0  0  0  0  0  0  0
   64.9434   32.6699   47.4883 H   0  0  0  0  0  0  0  0  0  0  0  0
   62.6157   32.9295   46.6300 H   0  0  0  0  0  0  0  0  0  0  0  0
   59.2580   35.4186   47.9757 H   0  0  0  0  0  0  0  0  0  0  0  0
   60.8951   35.5818   47.2502 H   0  0  0  0  0  0  0  0  0  0  0  0
   58.8904   35.4335   45.6186 H   0  0  0  0  0  0  0  0  0  0  0  0
   60.2913   34.3225   45.3273 H   0  0  0  0  0  0  0  0  0  0  0  0
   59.0700   30.8556   46.0304 H   0  0  0  0  0  0  0  0  0  0  0  0
   58.7949   28.4608   45.3706 H   0  0  0  0  0  0  0  0  0  0  0  0
   57.2710   27.8617   43.4801 H   0  0  0  0  0  0  0  0  0  0  0  0
   56.0486   29.6732   42.2648 H   0  0  0  0  0  0  0  0  0  0  0  0
   56.3460   31.9580   42.9480 H   0  0  0  0  0  0  0  0  0  0  0  0
   57.5744   33.4762   47.9272 H   0  0  0  0  0  0  0  0  0  0  0  0
   57.7314   31.8356   47.1978 H   0  0  0  0  0  0  0  0  0  0  0  0
   59.2525   32.4243   49.2331 H   0  0  0  0  0  0  0  0  0  0  0  0
   60.0110   31.6593   47.7748 H   0  0  0  0  0  0  0  0  0  0  0  0
   61.2929   34.1073   50.5849 H   0  0  0  0  0  0  0  0  0  0  0  0
   63.6232   33.8476   51.4385 H   0  0  0  0  0  0  0  0  0  0  0  0
  1  2  3  0
  2  3  1  0
  3  4  2  0
  4  5  1  0
  5  6  2  0
  6  7  1  0
  7  8  1  0
  8  9  1  0
  9 10  1  0
 10 11  1  0
 11 12  2  0
 11 13  1  0
 13 14  2  0
 14 15  1  0
 15 16  2  0
 16 17  1  0
 17 18  2  0
 10 19  1  0
 19 20  1  0
  6 21  1  0
 21 22  2  0
 22  3  1  0
 20  7  1  0
 18 13  1  0
  4 23  1  0
  5 24  1  0
  8 25  1  0
  8 26  1  0
  9 27  1  0
  9 28  1  0
 14 29  1  0
 15 30  1  0
 16 31  1  0
 17 32  1  0
 18 33  1  0
 19 34  1  0
 19 35  1  0
 20 36  1  0
 20 37  1  0
 21 38  1  0
 22 39  1  0
M  CHG  1  18   1
M  END
>  <UniqueID>  (3) 
3

>  <SMILES>  (3) 
N#Cc1ccc(N2CCN(C(=O)c3cccc[nH+]3)CC2)cc1

>  <Energy>  (3) 
49.19762900988592

>  <Genealogy>  (3) 
N#Cc1ccc(N2CCN(C(=O)c3cccc[nH+]3)CC2)cc1 (protonated)
N#Cc1ccc(N2CCN(C(=O)c3cccc[nH+]3)CC2)cc1 (3D coordinates assigned)
N#Cc1ccc(N2CCN(C(=O)c3cccc[nH+]3)CC2)cc1 (nonaromatic ring conformer: 49.19762900988592 kcal/mol)

>  <smiles>  (3) 
N#Cc1ccc(N2CCN(C(=O)c3ccccn3)CC2)cc1

>  <score_type>  (3) 
oracle

>  <origin>  (3) 
adg

>  <m_score__min__energy>  (3) 
-5.3499999999999996

>  <m_primary>  (3) 
energy

$$$$
3:0
     RDKit          3D

 28 30  0  0  0  0  0  0  0  0999 V2000
   59.3170   33.5940   51.3500 C   0  0  0  0  0  0  0  0  0  0  0  0
   59.8670   34.0910   50.1350 O   0  0  0  0  0  0  0  0  0  0  0  0
   59.4550   33.6890   48.8560 C   0  0  0  0  0  0  0  0  0  0  0  0
   59.5690   34.6020   47.8020 C   0  0  0  0  0  0  0  0  0  0  0  0
   59.1730   34.2490   46.5090 C   0  0  0  0  0  0  0  0  0  0  0  0
   58.6590   32.9670   46.2460 C   0  0  0  0  0  0  0  0  0  0  0  0
   58.2490   32.6100   44.9120 N   0  0  0  0  0  0  0  0  0  0  0  0
   58.5160   33.2770   43.7570 C   0  0  0  0  0  0  0  0  0  0  0  0
   58.0000   32.6770   42.6500 N   0  0  0  0  0  0  0  0  0  0  0  0
   57.3910   31.5880   43.1550 C   0  0  0  0  0  0  0  0  0  0  0  0
   56.7160   30.5820   42.4730 C   0  0  0  0  0  0  0  0  0  0  0  0
   56.2020   29.5190   43.2380 C   0  0  0  0  0  0  0  0  0  0  0  0
   56.3910   29.5070   44.6400 C   0  0  0  0  0  0  0  0  0  0  0  0
   57.0650   30.5240   45.2590 N   0  0  0  0  0  0  0  0  0  0  0  0
   57.5380   31.5470   44.5040 C   0  0  0  0  0  0  0  0  0  0  0  0
   58.5380   32.0530   47.3060 C   0  0  0  0  0  0  0  0  0  0  0  0
   58.9330   32.4070   48.5990 C   0  0  0  0  0  0  0  0  0  0  0  0
   59.8322   34.0595   52.2032 H   0  0  0  0  0  0  0  0  0  0  0  0
   58.2447   33.8356   51.3929 H   0  0  0  0  0  0  0  0  0  0  0  0
   59.4490   32.5028   51.3929 H   0  0  0  0  0  0  0  0  0  0  0  0
   59.9740   35.6068   47.9927 H   0  0  0  0  0  0  0  0  0  0  0  0
   59.2641   34.9792   45.6914 H   0  0  0  0  0  0  0  0  0  0  0  0
   59.0939   34.2123   43.7212 H   0  0  0  0  0  0  0  0  0  0  0  0
   56.5891   30.6157   41.3809 H   0  0  0  0  0  0  0  0  0  0  0  0
   55.6551   28.7001   42.7478 H   0  0  0  0  0  0  0  0  0  0  0  0
   55.9929   28.6734   45.2371 H   0  0  0  0  0  0  0  0  0  0  0  0
   58.1287   31.0497   47.1166 H   0  0  0  0  0  0  0  0  0  0  0  0
   58.8356   31.6808   49.4195 H   0  0  0  0  0  0  0  0  0  0  0  0
  1  2  1  0
  2  3  1  0
  3  4  2  0
  4  5  1  0
  5  6  2  0
  6  7  1  0
  7  8  1  0
  8  9  2  0
  9 10  1  0
 10 11  2  0
 11 12  1  0
 12 13  2  0
 13 14  1  0
 14 15  2  0
  6 16  1  0
 16 17  2  0
 17  3  1  0
 15  7  1  0
 15 10  1  0
  1 18  1  0
  1 19  1  0
  1 20  1  0
  4 21  1  0
  5 22  1  0
  8 23  1  0
 11 24  1  0
 12 25  1  0
 13 26  1  0
 16 27  1  0
 17 28  1  0
M  END
>  <UniqueID>  (4) 
4

>  <SMILES>  (4) 
COc1ccc(-n2cnc3cccnc32)cc1

>  <Energy>  (4) 
74.25426655383403

>  <Genealogy>  (4) 
COc1ccc(-n2cnc3cccnc32)cc1 (3D coordinates assigned)
COc1ccc(-n2cnc3cccnc32)cc1 (optimized conformer: 74.25426655383403 kcal/mol)

>  <smiles>  (4) 
COc1ccc(-n2cnc3cccnc32)cc1

>  <score_type>  (4) 
oracle

>  <origin>  (4) 
adg

>  <m_score__min__energy>  (4) 
-5.7699999999999996

>  <m_primary>  (4) 
energy

$$$$
4:0
     RDKit          3D

 39 41  0  0  0  0  0  0  0  0999 V2000
   54.4520   25.2040   45.6230 C   0  0  0  0  0  0  0  0  0  0  0  0
   55.1870   26.3640   45.9990 O   0  0  0  0  0  0  0  0  0  0  0  0
   56.5860   26.4320   46.0270 C   0  0  0  0  0  0  0  0  0  0  0  0
   57.4150   25.3060   46.2530 C   0  0  0  0  0  0  0  0  0  0  0  0
   58.8210   25.4410   46.2700 C   0  0  0  0  0  0  0  0  0  0  0  0
   59.4200   26.6960   46.0620 C   0  0  0  0  0  0  0  0  0  0  0  0
   58.5820   27.7850   45.8420 C   0  0  0  0  0  0  0  0  0  0  0  0
   58.8700   29.1100   45.6130 C   0  0  0  0  0  0  0  0  0  0  0  0
   57.6210   29.7130   45.4690 C   0  0  0  0  0  0  0  0  0  0  0  0
   57.3880   31.1460   45.2100 C   0  0  0  0  0  0  0  0  0  0  0  0
   56.4040   31.4880   44.4950 O   0  0  0  0  0  0  0  0  0  0  0  0
   58.3130   32.1450   45.7030 N   0  0  0  0  0  0  0  0  0  0  0  0
   57.8260   32.7380   46.9610 C   0  0  0  0  0  0  0  0  0  0  0  0
   58.8870   33.6860   47.5560 C   0  0  0  0  0  0  0  0  0  0  0  0
   59.6040   34.4880   46.5340 N   0  0  0  0  0  0  0  0  0  0  0  0
   61.0060   34.0660   46.3620 C   0  0  0  0  0  0  0  0  0  0  0  0
   58.8900   34.5660   45.2450 C   0  0  0  0  0  0  0  0  0  0  0  0
   58.5540   33.1750   44.6610 C   0  0  0  0  0  0  0  0  0  0  0  0
   56.6550   28.8210   45.6010 O   0  0  0  0  0  0  0  0  0  0  0  0
   57.2180   27.6600   45.8250 C   0  0  0  0  0  0  0  0  0  0  0  0
   54.1161   24.6739   46.5264 H   0  0  0  0  0  0  0  0  0  0  0  0
   53.5773   25.5017   45.0260 H   0  0  0  0  0  0  0  0  0  0  0  0
   55.0947   24.5402   45.0260 H   0  0  0  0  0  0  0  0  0  0  0  0
   56.9600   24.3180   46.4167 H   0  0  0  0  0  0  0  0  0  0  0  0
   59.4521   24.5576   46.4473 H   0  0  0  0  0  0  0  0  0  0  0  0
   60.5137   26.8130   46.0728 H   0  0  0  0  0  0  0  0  0  0  0  0
   59.8601   29.5858   45.5563 H   0  0  0  0  0  0  0  0  0  0  0  0
   59.2200   31.6680   45.9190 H   0  0  0  0  0  0  0  0  0  0  0  0
   56.9048   33.3050   46.7614 H   0  0  0  0  0  0  0  0  0  0  0  0
   57.6253   31.9310   47.6811 H   0  0  0  0  0  0  0  0  0  0  0  0
   58.3867   34.3757   48.2517 H   0  0  0  0  0  0  0  0  0  0  0  0
   59.6369   33.0575   48.0586 H   0  0  0  0  0  0  0  0  0  0  0  0
   61.4706   33.9262   47.3492 H   0  0  0  0  0  0  0  0  0  0  0  0
   61.0379   33.1184   45.8042 H   0  0  0  0  0  0  0  0  0  0  0  0
   61.5556   34.8385   45.8042 H   0  0  0  0  0  0  0  0  0  0  0  0
   57.9516   35.1197   45.3960 H   0  0  0  0  0  0  0  0  0  0  0  0
   59.5531   35.0741   44.5294 H   0  0  0  0  0  0  0  0  0  0  0  0
   57.6487   33.2650   44.0426 H   0  0  0  0  0  0  0  0  0  0  0  0
   59.4250   32.8482   44.0741 H   0  0  0  0  0  0  0  0  0  0  0  0
  1  2  1  0
  2  3  1  0
  3  4  2  0
  4  5  1  0
  5  6  2  0
  6  7  1  0
  7  8  1  0
  8  9  2  0
  9 10  1  0
 10 11  2  0
 10 12  1  0
 12 13  1  0
 13 14  1  0
 14 15  1  0
 15 16  1  0
 15 17  1  0
 17 18  1  0
  9 19  1  0
 19 20  1  0
 20  3  1  0
 20  7  2  0
 18 12  1  0
  1 21  1  0
  1 22  1  0
  1 23  1  0
  4 24  1  0
  5 25  1  0
  6 26  1  0
  8 27  1  0
 12 28  1  0
 13 29  1  0
 13 30  1  0
 14 31  1  0
 14 32  1  0
 16 33  1  0
 16 34  1  0
 16 35  1  0
 17 36  1  0
 17 37  1  0
 18 38  1  0
 18 39  1  0
M  CHG  1  12   1
M  END
>  <UniqueID>  (5) 
5

>  <SMILES>  (5) 
COc1cccc2cc(C(=O)[NH+]3CCN(C)CC3)oc12

>  <Energy>  (5) 
85.55278071682268

>  <Genealogy>  (5) 
COc1cccc2cc(C(=O)[NH+]3CCN(C)CC3)oc12 (protonated)
COc1cccc2cc(C(=O)[NH+]3CCN(C)CC3)oc12 (3D coordinates assigned)
COc1cccc2cc(C(=O)[NH+]3CCN(C)CC3)oc12 (nonaromatic ring conformer: 85.55278071682268 kcal/mol)

>  <smiles>  (5) 
COc1cccc2cc(C(=O)N3CCN(C)CC3)oc12

>  <score_type>  (5) 
oracle

>  <origin>  (5) 
adg

>  <m_score__min__energy>  (5) 
-6.0099999999999998

>  <m_primary>  (5) 
energy

$$$$
5:0
     RDKit          3D

 35 36  0  0  0  0  0  0  0  0999 V2000
   67.1600   33.0750   50.1500 C   0  0  0  0  0  0  0  0  0  0  0  0
   66.2380   32.1320   50.9170 C   0  0  0  0  0  0  0  0  0  0  0  0
   64.9460   31.8630   50.1330 C   0  0  0  0  0  0  0  0  0  0  0  0
   64.4110   33.1340   49.4590 C   0  0  0  0  0  0  0  0  0  0  0  0
   63.1090   32.9060   48.8270 N   0  0  0  0  0  0  0  0  0  0  0  0
   62.7810   33.5110   47.5670 C   0  0  0  0  0  0  0  0  0  0  0  0
   63.6410   34.2120   46.9680 O   0  0  0  0  0  0  0  0  0  0  0  0
   61.4540   33.3300   46.9480 C   0  0  0  0  0  0  0  0  0  0  0  0
   60.7760   32.1210   46.7530 C   0  0  0  0  0  0  0  0  0  0  0  0
   59.5290   32.2980   46.1420 C   0  0  0  0  0  0  0  0  0  0  0  0
   58.6190   31.2880   45.8180 C   0  0  0  0  0  0  0  0  0  0  0  0
   57.3940   31.6390   45.2020 C   0  0  0  0  0  0  0  0  0  0  0  0
   56.4330   30.6790   44.8480 O   0  0  0  0  0  0  0  0  0  0  0  0
   56.4290   29.9650   43.6160 C   0  0  0  0  0  0  0  0  0  0  0  0
   57.1140   32.9940   44.9300 C   0  0  0  0  0  0  0  0  0  0  0  0
   58.0340   33.9990   45.2610 C   0  0  0  0  0  0  0  0  0  0  0  0
   59.2300   33.6220   45.8650 C   0  0  0  0  0  0  0  0  0  0  0  0
   60.4960   34.6000   46.3660 S   0  0  0  0  0  0  0  0  0  0  0  0
   67.7461   33.6744   50.8622 H   0  0  0  0  0  0  0  0  0  0  0  0
   67.8415   32.4873   49.5174 H   0  0  0  0  0  0  0  0  0  0  0  0
   66.5572   33.7431   49.5174 H   0  0  0  0  0  0  0  0  0  0  0  0
   66.7600   31.1788   51.0871 H   0  0  0  0  0  0  0  0  0  0  0  0
   65.9735   32.6044   51.8746 H   0  0  0  0  0  0  0  0  0  0  0  0
   65.1502   31.1088   49.3587 H   0  0  0  0  0  0  0  0  0  0  0  0
   64.1845   31.5066   50.8423 H   0  0  0  0  0  0  0  0  0  0  0  0
   64.3052   33.9226   50.2185 H   0  0  0  0  0  0  0  0  0  0  0  0
   65.1240   33.4329   48.6765 H   0  0  0  0  0  0  0  0  0  0  0  0
   62.4230   32.2700   49.2880 H   0  0  0  0  0  0  0  0  0  0  0  0
   61.1785   31.1405   47.0473 H   0  0  0  0  0  0  0  0  0  0  0  0
   58.8514   30.2357   46.0385 H   0  0  0  0  0  0  0  0  0  0  0  0
   56.4229   28.8839   43.8188 H   0  0  0  0  0  0  0  0  0  0  0  0
   55.5324   30.2348   43.0387 H   0  0  0  0  0  0  0  0  0  0  0  0
   57.3286   30.2248   43.0387 H   0  0  0  0  0  0  0  0  0  0  0  0
   56.1614   33.2661   44.4519 H   0  0  0  0  0  0  0  0  0  0  0  0
   57.8166   35.0563   45.0492 H   0  0  0  0  0  0  0  0  0  0  0  0
  1  2  1  0
  2  3  1  0
  3  4  1  0
  4  5  1  0
  5  6  1  0
  6  7  2  0
  6  8  1  0
  8  9  2  0
  9 10  1  0
 10 11  2  0
 11 12  1  0
 12 13  1  0
 13 14  1  0
 12 15  2  0
 15 16  1  0
 16 17  2  0
 17 18  1  0
 18  8  1  0
 17 10  1  0
  1 19  1  0
  1 20  1  0
  1 21  1  0
  2 22  1  0
  2 23  1  0
  3 24  1  0
  3 25  1  0
  4 26  1  0
  4 27  1  0
  5 28  1  0
  9 29  1  0
 11 30  1  0
 14 31  1  0
 14 32  1  0
 14 33  1  0
 15 34  1  0
 16 35  1  0
M  END
>  <UniqueID>  (6) 
6

>  <SMILES>  (6) 
CCCCNC(=O)c1cc2cc(OC)ccc2s1

>  <Energy>  (6) 
56.257533505445735

>  <Genealogy>  (6) 
CCCCNC(=O)c1cc2cc(OC)ccc2s1 (3D coordinates assigned)
CCCCNC(=O)c1cc2cc(OC)ccc2s1 (optimized conformer: 56.257533505445735 kcal/mol)

>  <smiles>  (6) 
CCCCNC(=O)c1cc2cc(OC)ccc2s1

>  <score_type>  (6) 
oracle

>  <origin>  (6) 
adg

>  <m_score__min__energy>  (6) 
-6.21

>  <m_primary>  (6) 
energy

$$$$
6:0
     RDKit          3D

 49 52  0  0  0  0  0  0  0  0999 V2000
   60.2220   31.0900   48.9780 C   0  0  0  0  0  0  0  0  0  0  0  0
   61.3590   31.5320   48.0580 C   0  0  0  0  0  0  0  0  0  0  0  0
   61.4830   30.6470   46.8120 C   0  0  0  0  0  0  0  0  0  0  0  0
   60.1350   30.2610   46.2710 C   0  0  0  0  0  0  0  0  0  0  0  0
   59.2550   31.2410   45.9010 N   0  0  0  0  0  0  0  0  0  0  0  0
   58.0400   30.8590   45.4490 C   0  0  0  0  0  0  0  0  0  0  0  0
   57.6700   29.5680   45.3390 C   0  0  0  0  0  0  0  0  0  0  0  0
   56.4510   29.5160   44.7670 N   0  0  0  0  0  0  0  0  0  0  0  0
   56.1010   30.7860   44.5520 N   0  0  0  0  0  0  0  0  0  0  0  0
   57.0510   31.6200   44.9680 N   0  0  0  0  0  0  0  0  0  0  0  0
   57.0340   33.0670   44.7920 C   0  0  0  0  0  0  0  0  0  0  0  0
   58.0550   33.7050   45.6910 C   0  0  0  0  0  0  0  0  0  0  0  0
   59.0690   34.5160   45.1530 C   0  0  0  0  0  0  0  0  0  0  0  0
   59.9930   35.1410   45.9960 C   0  0  0  0  0  0  0  0  0  0  0  0
   59.9070   34.9660   47.3800 C   0  0  0  0  0  0  0  0  0  0  0  0
   58.8950   34.1700   47.9240 C   0  0  0  0  0  0  0  0  0  0  0  0
   57.9680   33.5450   47.0840 C   0  0  0  0  0  0  0  0  0  0  0  0
   58.5450   28.5540   45.7110 C   0  0  0  0  0  0  0  0  0  0  0  0
   58.1970   27.1640   45.5740 N   0  0  0  0  0  0  0  0  0  0  0  0
   57.9980   26.3120   46.7520 C   0  0  0  0  0  0  0  0  0  0  0  0
   56.6790   25.5220   46.6340 C   0  0  0  0  0  0  0  0  0  0  0  0
   56.2440   25.2900   45.2410 N   0  0  0  0  0  0  0  0  0  0  0  0
   57.3730   25.2140   44.3050 C   0  0  0  0  0  0  0  0  0  0  0  0
   58.1090   26.5600   44.2400 C   0  0  0  0  0  0  0  0  0  0  0  0
   59.7790   28.9330   46.1770 N   0  0  0  0  0  0  0  0  0  0  0  0
   60.5312   31.2102   50.0268 H   0  0  0  0  0  0  0  0  0  0  0  0
   59.3327   31.7079   48.7848 H   0  0  0  0  0  0  0  0  0  0  0  0
   59.9836   30.0337   48.7848 H   0  0  0  0  0  0  0  0  0  0  0  0
   61.1717   32.5676   47.7380 H   0  0  0  0  0  0  0  0  0  0  0  0
   62.2988   31.4474   48.6233 H   0  0  0  0  0  0  0  0  0  0  0  0
   62.0345   31.1982   46.0361 H   0  0  0  0  0  0  0  0  0  0  0  0
   62.0163   29.7275   47.0949 H   0  0  0  0  0  0  0  0  0  0  0  0
   57.2680   33.3096   43.7449 H   0  0  0  0  0  0  0  0  0  0  0  0
   56.0357   33.4508   45.0492 H   0  0  0  0  0  0  0  0  0  0  0  0
   59.1360   34.6596   44.0645 H   0  0  0  0  0  0  0  0  0  0  0  0
   60.7879   35.7707   45.5698 H   0  0  0  0  0  0  0  0  0  0  0  0
   60.6367   35.4553   48.0420 H   0  0  0  0  0  0  0  0  0  0  0  0
   58.8277   34.0351   49.0136 H   0  0  0  0  0  0  0  0  0  0  0  0
   57.1678   32.9258   47.5155 H   0  0  0  0  0  0  0  0  0  0  0  0
   58.8368   25.6050   46.8326 H   0  0  0  0  0  0  0  0  0  0  0  0
   57.9505   26.9498   47.6470 H   0  0  0  0  0  0  0  0  0  0  0  0
   56.8151   24.5455   47.1218 H   0  0  0  0  0  0  0  0  0  0  0  0
   55.8984   26.1290   47.1159 H   0  0  0  0  0  0  0  0  0  0  0  0
   55.6210   26.0800   44.9470 H   0  0  0  0  0  0  0  0  0  0  0  0
   58.0721   24.4351   44.6435 H   0  0  0  0  0  0  0  0  0  0  0  0
   56.9891   24.9696   43.3035 H   0  0  0  0  0  0  0  0  0  0  0  0
   59.1242   26.3986   43.8483 H   0  0  0  0  0  0  0  0  0  0  0  0
   57.5502   27.2388   43.5790 H   0  0  0  0  0  0  0  0  0  0  0  0
   60.4620   28.2010   46.4770 H   0  0  0  0  0  0  0  0  0  0  0  0
  1  2  1  0
  2  3  1  0
  3  4  1  0
  4  5  2  0
  5  6  1  0
  6  7  2  0
  7  8  1  0
  8  9  2  0
  9 10  1  0
 10 11  1  0
 11 12  1  0
 12 13  2  0
 13 14  1  0
 14 15  2  0
 15 16  1  0
 16 17  2  0
  7 18  1  0
 18 19  1  0
 19 20  1  0
 20 21  1  0
 21 22  1  0
 22 23  1  0
 23 24  1  0
 18 25  2  0
 25  4  1  0
 10  6  1  0
 17 12  1  0
 24 19  1  0
  1 26  1  0
  1 27  1  0
  1 28  1  0
  2 29  1  0
  2 30  1  0
  3 31  1  0
  3 32  1  0
 11 33  1  0
 11 34  1  0
 13 35  1  0
 14 36  1  0
 15 37  1  0
 16 38  1  0
 17 39  1  0
 20 40  1  0
 20 41  1  0
 21 42  1  0
 21 43  1  0
 22 44  1  0
 23 45  1  0
 23 46  1  0
 24 47  1  0
 24 48  1  0
 25 49  1  0
M  CHG  1  25   1
M  END
>  <UniqueID>  (7) 
7

>  <SMILES>  (7) 
CCCc1nc2c(nnn2Cc2ccccc2)c(N2CCNCC2)[nH+]1

>  <Energy>  (7) 
100.05731398123852

>  <Genealogy>  (7) 
CCCc1nc2c(nnn2Cc2ccccc2)c(N2CCNCC2)[nH+]1 (protonated)
CCCc1nc2c(nnn2Cc2ccccc2)c(N2CCNCC2)[nH+]1 (3D coordinates assigned)
CCCc1nc2c(nnn2Cc2ccccc2)c(N2CCNCC2)[nH+]1 (nonaromatic ring conformer: 100.05731398123852 kcal/mol)

>  <smiles>  (7) 
CCCc1nc(N2CCNCC2)c2nnn(Cc3ccccc3)c2n1

>  <score_type>  (7) 
oracle

>  <origin>  (7) 
adg

>  <m_score__min__energy>  (7) 
-7.1200000000000001

>  <m_primary>  (7) 
energy

$$$$
7:0
     RDKit          3D

 40 41  0  0  0  0  0  0  0  0999 V2000
   60.6120   28.5920   45.0890 C   0  0  0  0  0  0  0  0  0  0  0  0
   59.2370   28.1210   45.3510 N   0  0  0  0  0  0  0  0  0  0  0  0
   58.1550   28.7710   44.7910 C   0  0  0  0  0  0  0  0  0  0  0  0
   58.2990   29.9760   43.9890 N   0  0  0  0  0  0  0  0  0  0  0  0
   57.0560   30.7700   43.9590 C   0  0  0  0  0  0  0  0  0  0  0  0
   57.1690   32.0680   44.7750 C   0  0  0  0  0  0  0  0  0  0  0  0
   58.5870   32.3340   45.1080 N   0  0  0  0  0  0  0  0  0  0  0  0
   58.9530   33.7600   44.9240 C   0  0  0  0  0  0  0  0  0  0  0  0
   58.7890   34.5840   46.2180 C   0  0  0  0  0  0  0  0  0  0  0  0
   57.8120   34.0050   47.0560 O   0  0  0  0  0  0  0  0  0  0  0  0
   58.2730   32.7610   47.5530 C   0  0  0  0  0  0  0  0  0  0  0  0
   58.9340   31.8770   46.4670 C   0  0  0  0  0  0  0  0  0  0  0  0
   56.8680   28.2680   45.0040 C   0  0  0  0  0  0  0  0  0  0  0  0
   56.6910   27.1390   45.7890 C   0  0  0  0  0  0  0  0  0  0  0  0
   55.5200   26.7180   45.9940 O   0  0  0  0  0  0  0  0  0  0  0  0
   57.7720   26.5020   46.3300 N   0  0  0  0  0  0  0  0  0  0  0  0
   57.5760   25.3210   47.1900 C   0  0  0  0  0  0  0  0  0  0  0  0
   59.0350   27.0020   46.1300 C   0  0  0  0  0  0  0  0  0  0  0  0
   60.0200   26.4230   46.6690 O   0  0  0  0  0  0  0  0  0  0  0  0
   61.1274   28.7686   46.0446 H   0  0  0  0  0  0  0  0  0  0  0  0
   61.1574   27.8294   44.5136 H   0  0  0  0  0  0  0  0  0  0  0  0
   60.5753   29.5288   44.5136 H   0  0  0  0  0  0  0  0  0  0  0  0
   59.0930   30.5810   44.2890 H   0  0  0  0  0  0  0  0  0  0  0  0
   58.5190   29.6860   43.0080 H   0  0  0  0  0  0  0  0  0  0  0  0
   56.8271   31.0283   42.9145 H   0  0  0  0  0  0  0  0  0  0  0  0
   56.2581   30.1603   44.4080 H   0  0  0  0  0  0  0  0  0  0  0  0
   56.7700   32.9058   44.1842 H   0  0  0  0  0  0  0  0  0  0  0  0
   56.5930   31.9609   45.7060 H   0  0  0  0  0  0  0  0  0  0  0  0
   60.0030   33.8158   44.6010 H   0  0  0  0  0  0  0  0  0  0  0  0
   58.2745   34.1844   44.1694 H   0  0  0  0  0  0  0  0  0  0  0  0
   59.7505   34.6144   46.7514 H   0  0  0  0  0  0  0  0  0  0  0  0
   58.4689   35.6021   45.9515 H   0  0  0  0  0  0  0  0  0  0  0  0
   59.0120   32.9531   48.3448 H   0  0  0  0  0  0  0  0  0  0  0  0
   57.3959   32.2145   47.9299 H   0  0  0  0  0  0  0  0  0  0  0  0
   60.0264   31.9186   46.5893 H   0  0  0  0  0  0  0  0  0  0  0  0
   58.5634   30.8485   46.5887 H   0  0  0  0  0  0  0  0  0  0  0  0
   55.9987   28.7664   44.5502 H   0  0  0  0  0  0  0  0  0  0  0  0
   57.6263   25.6241   48.2462 H   0  0  0  0  0  0  0  0  0  0  0  0
   56.5917   24.8758   46.9828 H   0  0  0  0  0  0  0  0  0  0  0  0
   58.3637   24.5817   46.9828 H   0  0  0  0  0  0  0  0  0  0  0  0
  1  2  1  0
  2  3  1  0
  3  4  1  0
  4  5  1  0
  5  6  1  0
  6  7  1  0
  7  8  1  0
  8  9  1  0
  9 10  1  0
 10 11  1  0
 11 12  1  0
  3 13  2  0
 13 14  1  0
 14 15  2  0
 14 16  1  0
 16 17  1  0
 16 18  1  0
 18 19  2  0
 18  2  1  0
 12  7  1  0
  1 20  1  0
  1 21  1  0
  1 22  1  0
  4 23  1  0
  4 24  1  0
  5 25  1  0
  5 26  1  0
  6 27  1  0
  6 28  1  0
  8 29  1  0
  8 30  1  0
  9 31  1  0
  9 32  1  0
 11 33  1  0
 11 34  1  0
 12 35  1  0
 12 36  1  0
 13 37  1  0
 17 38  1  0
 17 39  1  0
 17 40  1  0
M  CHG  1   4   1
M  END
>  <UniqueID>  (8) 
8

>  <SMILES>  (8) 
Cn1c([NH2+]CCN2CCOCC2)cc(=O)n(C)c1=O

>  <Energy>  (8) 
61.037081979537525

>  <Genealogy>  (8) 
Cn1c([NH2+]CCN2CCOCC2)cc(=O)n(C)c1=O (protonated)
Cn1c([NH2+]CCN2CCOCC2)cc(=O)n(C)c1=O (3D coordinates assigned)
Cn1c([NH2+]CCN2CCOCC2)cc(=O)n(C)c1=O (nonaromatic ring conformer: 61.037081979537525 kcal/mol)

>  <smiles>  (8) 
Cn1c(NCCN2CCOCC2)cc(=O)n(C)c1=O

>  <score_type>  (8) 
oracle

>  <origin>  (8) 
adg

>  <m_score__min__energy>  (8) 
-4.2199999999999998

>  <m_primary>  (8) 
energy

$$$$
8:0
     RDKit          3D

 27 29  0  0  0  0  0  0  0  0999 V2000
   56.5140   30.0790   43.0010 C   0  0  0  0  0  0  0  0  0  0  0  0
   57.0480   31.2140   42.3870 C   0  0  0  0  0  0  0  0  0  0  0  0
   57.7700   32.1460   43.1390 C   0  0  0  0  0  0  0  0  0  0  0  0
   57.9650   31.9510   44.5190 C   0  0  0  0  0  0  0  0  0  0  0  0
   58.7290   32.9360   45.3200 C   0  0  0  0  0  0  0  0  0  0  0  0
   58.3180   34.2310   45.4420 N   0  0  0  0  0  0  0  0  0  0  0  0
   59.4570   34.9540   46.4100 S   0  0  0  0  0  0  0  0  0  0  0  0
   60.4280   33.6240   46.6470 C   0  0  0  0  0  0  0  0  0  0  0  0
   61.6710   33.5500   47.4420 C   0  0  0  0  0  0  0  0  0  0  0  0
   61.6720   33.9170   48.7970 C   0  0  0  0  0  0  0  0  0  0  0  0
   62.8490   33.8450   49.5420 C   0  0  0  0  0  0  0  0  0  0  0  0
   64.0230   33.4080   48.9280 C   0  0  0  0  0  0  0  0  0  0  0  0
   64.0150   33.0550   47.6140 N   0  0  0  0  0  0  0  0  0  0  0  0
   62.8780   33.1150   46.8670 C   0  0  0  0  0  0  0  0  0  0  0  0
   59.8830   32.5870   45.9740 N   0  0  0  0  0  0  0  0  0  0  0  0
   57.4210   30.8030   45.1270 C   0  0  0  0  0  0  0  0  0  0  0  0
   56.7010   29.8740   44.3700 C   0  0  0  0  0  0  0  0  0  0  0  0
   55.9467   29.3472   42.4071 H   0  0  0  0  0  0  0  0  0  0  0  0
   56.9003   31.3753   41.3090 H   0  0  0  0  0  0  0  0  0  0  0  0
   58.1883   33.0374   42.6487 H   0  0  0  0  0  0  0  0  0  0  0  0
   60.7421   34.2623   49.2725 H   0  0  0  0  0  0  0  0  0  0  0  0
   62.8515   34.1303   50.6044 H   0  0  0  0  0  0  0  0  0  0  0  0
   64.9564   33.3487   49.5070 H   0  0  0  0  0  0  0  0  0  0  0  0
   64.9020   32.7290   47.1690 H   0  0  0  0  0  0  0  0  0  0  0  0
   62.9041   32.8213   45.8072 H   0  0  0  0  0  0  0  0  0  0  0  0
   57.5636   30.6362   46.2049 H   0  0  0  0  0  0  0  0  0  0  0  0
   56.2809   28.9797   44.8535 H   0  0  0  0  0  0  0  0  0  0  0  0
  1  2  2  0
  2  3  1  0
  3  4  2  0
  4  5  1  0
  5  6  2  0
  6  7  1  0
  7  8  1  0
  8  9  1  0
  9 10  2  0
 10 11  1  0
 11 12  2  0
 12 13  1  0
 13 14  2  0
  8 15  2  0
  4 16  1  0
 16 17  2  0
 17  1  1  0
 15  5  1  0
 14  9  1  0
  1 18  1  0
  2 19  1  0
  3 20  1  0
 10 21  1  0
 11 22  1  0
 12 23  1  0
 13 24  1  0
 14 25  1  0
 16 26  1  0
 17 27  1  0
M  CHG  1  13   1
M  END
>  <UniqueID>  (9) 
9

>  <SMILES>  (9) 
c1ccc(-c2nsc(-c3ccc[nH+]c3)n2)cc1

>  <Energy>  (9) 
68.13694460611563

>  <Genealogy>  (9) 
c1ccc(-c2nsc(-c3ccc[nH+]c3)n2)cc1 (protonated)
c1ccc(-c2nsc(-c3ccc[nH+]c3)n2)cc1 (3D coordinates assigned)
c1ccc(-c2nsc(-c3ccc[nH+]c3)n2)cc1 (optimized conformer: 68.13694460611563 kcal/mol)

>  <smiles>  (9) 
c1ccc(-c2nsc(-c3cccnc3)n2)cc1

>  <score_type>  (9) 
oracle

>  <origin>  (9) 
adg

>  <m_score__min__energy>  (9) 
-6.1500000000000004

>  <m_primary>  (9) 
energy

$$$$
9:0
     RDKit          3D

 44 46  0  0  0  0  0  0  0  0999 V2000
   60.8200   29.8620   48.6910 C   0  0  0  0  0  0  0  0  0  0  0  0
   60.5550   28.9740   47.6100 O   0  0  0  0  0  0  0  0  0  0  0  0
   59.5140   29.1340   46.6780 C   0  0  0  0  0  0  0  0  0  0  0  0
   58.9740   30.3990   46.3890 C   0  0  0  0  0  0  0  0  0  0  0  0
   57.9390   30.5480   45.4550 C   0  0  0  0  0  0  0  0  0  0  0  0
   57.3740   31.9280   45.2120 C   0  0  0  0  0  0  0  0  0  0  0  0
   58.3440   32.9600   45.6290 N   0  0  0  0  0  0  0  0  0  0  0  0
   58.4990   33.9810   44.5670 C   0  0  0  0  0  0  0  0  0  0  0  0
   59.2650   35.2330   45.0510 C   0  0  0  0  0  0  0  0  0  0  0  0
   60.0280   34.9590   46.3480 C   0  0  0  0  0  0  0  0  0  0  0  0
   59.0780   34.4690   47.4530 C   0  0  0  0  0  0  0  0  0  0  0  0
   57.9380   33.5930   46.9010 C   0  0  0  0  0  0  0  0  0  0  0  0
   57.4310   29.4150   44.7900 C   0  0  0  0  0  0  0  0  0  0  0  0
   56.4100   29.5600   43.8470 O   0  0  0  0  0  0  0  0  0  0  0  0
   56.6350   30.2210   42.6080 C   0  0  0  0  0  0  0  0  0  0  0  0
   57.9450   28.1360   45.0830 C   0  0  0  0  0  0  0  0  0  0  0  0
   57.4350   27.0200   44.4760 N   0  0  0  0  0  0  0  0  0  0  0  0
   57.9200   25.7770   44.7370 C   0  0  0  0  0  0  0  0  0  0  0  0
   58.9610   25.6040   45.6470 C   0  0  0  0  0  0  0  0  0  0  0  0
   59.4990   26.7150   46.2930 C   0  0  0  0  0  0  0  0  0  0  0  0
   58.9960   28.0000   46.0250 C   0  0  0  0  0  0  0  0  0  0  0  0
   60.6631   29.3362   49.6444 H   0  0  0  0  0  0  0  0  0  0  0  0
   61.8615   30.2111   48.6319 H   0  0  0  0  0  0  0  0  0  0  0  0
   60.1402   30.7248   48.6319 H   0  0  0  0  0  0  0  0  0  0  0  0
   59.3699   31.2867   46.9040 H   0  0  0  0  0  0  0  0  0  0  0  0
   57.1557   32.0471   44.1405 H   0  0  0  0  0  0  0  0  0  0  0  0
   56.4518   32.0455   45.8000 H   0  0  0  0  0  0  0  0  0  0  0  0
   59.0505   33.5339   43.7268 H   0  0  0  0  0  0  0  0  0  0  0  0
   57.4912   34.3035   44.2663 H   0  0  0  0  0  0  0  0  0  0  0  0
   59.9808   35.5366   44.2729 H   0  0  0  0  0  0  0  0  0  0  0  0
   58.5331   36.0312   45.2441 H   0  0  0  0  0  0  0  0  0  0  0  0
   60.7902   34.1882   46.1610 H   0  0  0  0  0  0  0  0  0  0  0  0
   60.5001   35.8950   46.6813 H   0  0  0  0  0  0  0  0  0  0  0  0
   59.6560   33.8797   48.1801 H   0  0  0  0  0  0  0  0  0  0  0  0
   58.6238   35.3544   47.9219 H   0  0  0  0  0  0  0  0  0  0  0  0
   57.6952   32.8098   47.6343 H   0  0  0  0  0  0  0  0  0  0  0  0
   57.0574   34.2266   46.7190 H   0  0  0  0  0  0  0  0  0  0  0  0
   56.9841   31.2467   42.7977 H   0  0  0  0  0  0  0  0  0  0  0  0
   57.3977   29.6744   42.0340 H   0  0  0  0  0  0  0  0  0  0  0  0
   55.6972   30.2532   42.0340 H   0  0  0  0  0  0  0  0  0  0  0  0
   56.6460   27.0950   43.7950 H   0  0  0  0  0  0  0  0  0  0  0  0
   57.4883   24.9032   44.2271 H   0  0  0  0  0  0  0  0  0  0  0  0
   59.3550   24.5980   45.8537 H   0  0  0  0  0  0  0  0  0  0  0  0
   60.3193   26.5863   47.0145 H   0  0  0  0  0  0  0  0  0  0  0  0
  1  2  1  0
  2  3  1  0
  3  4  2  0
  4  5  1  0
  5  6  1  0
  6  7  1  0
  7  8  1  0
  8  9  1  0
  9 10  1  0
 10 11  1  0
 11 12  1  0
  5 13  2  0
 13 14  1  0
 14 15  1  0
 13 16  1  0
 16 17  2  0
 17 18  1  0
 18 19  2  0
 19 20  1  0
 20 21  2  0
 21  3  1  0
 12  7  1  0
 21 16  1  0
  1 22  1  0
  1 23  1  0
  1 24  1  0
  4 25  1  0
  6 26  1  0
  6 27  1  0
  8 28  1  0
  8 29  1  0
  9 30  1  0
  9 31  1  0
 10 32  1  0
 10 33  1  0
 11 34  1  0
 11 35  1  0
 12 36  1  0
 12 37  1  0
 15 38  1  0
 15 39  1  0
 15 40  1  0
 17 41  1  0
 18 42  1  0
 19 43  1  0
 20 44  1  0
M  CHG  1  17   1
M  END
>  <UniqueID>  (10) 
10

>  <SMILES>  (10) 
COc1cc(CN2CCCCC2)c(OC)c2[nH+]cccc12

>  <Energy>  (10) 
59.83933059806418

>  <Genealogy>  (10) 
COc1cc(CN2CCCCC2)c(OC)c2[nH+]cccc12 (protonated)
COc1cc(CN2CCCCC2)c(OC)c2[nH+]cccc12 (3D coordinates assigned)
COc1cc(CN2CCCCC2)c(OC)c2[nH+]cccc12 (nonaromatic ring conformer: 59.83933059806418 kcal/mol)

>  <smiles>  (10) 
COc1cc(CN2CCCCC2)c(OC)c2ncccc12

>  <score_type>  (10) 
oracle

>  <origin>  (10) 
adg

>  <m_score__min__energy>  (10) 
-5.5599999999999996

>  <m_primary>  (10) 
energy

$$$$
10:0
     RDKit          3D

 32 33  0  0  0  0  0  0  0  0999 V2000
   61.1120   34.2220   46.9980 C   0  0  0  0  0  0  0  0  0  0  0  0
   59.8830   33.5650   46.4440 C   0  0  0  0  0  0  0  0  0  0  0  0
   59.3280   32.4490   47.0860 C   0  0  0  0  0  0  0  0  0  0  0  0
   58.2030   31.8150   46.5500 C   0  0  0  0  0  0  0  0  0  0  0  0
   57.6250   32.2750   45.3620 C   0  0  0  0  0  0  0  0  0  0  0  0
   56.4680   31.5970   44.8530 N   0  0  0  0  0  0  0  0  0  0  0  0
   56.4600   29.9960   44.1880 S   0  0  0  0  0  0  0  0  0  0  0  0
   55.1490   29.3370   44.5140 O   0  0  0  0  0  0  0  0  0  0  0  0
   56.6090   30.0820   42.6970 O   0  0  0  0  0  0  0  0  0  0  0  0
   57.8030   29.0620   44.8420 C   0  0  0  0  0  0  0  0  0  0  0  0
   59.1200   29.4020   44.5050 C   0  0  0  0  0  0  0  0  0  0  0  0
   60.1890   28.6710   45.0270 C   0  0  0  0  0  0  0  0  0  0  0  0
   59.9510   27.5940   45.8860 C   0  0  0  0  0  0  0  0  0  0  0  0
   61.0030   26.8950   46.3840 F   0  0  0  0  0  0  0  0  0  0  0  0
   58.6350   27.2420   46.2290 C   0  0  0  0  0  0  0  0  0  0  0  0
   58.3820   26.0800   47.1460 C   0  0  0  0  0  0  0  0  0  0  0  0
   57.5630   27.9790   45.6990 C   0  0  0  0  0  0  0  0  0  0  0  0
   58.1960   33.3800   44.7040 C   0  0  0  0  0  0  0  0  0  0  0  0
   59.3200   34.0160   45.2410 C   0  0  0  0  0  0  0  0  0  0  0  0
   61.0746   34.2020   48.0972 H   0  0  0  0  0  0  0  0  0  0  0  0
   62.0049   33.6809   46.6516 H   0  0  0  0  0  0  0  0  0  0  0  0
   61.1580   35.2650   46.6516 H   0  0  0  0  0  0  0  0  0  0  0  0
   59.7794   32.0707   48.0150 H   0  0  0  0  0  0  0  0  0  0  0  0
   57.7685   30.9467   47.0671 H   0  0  0  0  0  0  0  0  0  0  0  0
   59.3122   30.2470   43.8275 H   0  0  0  0  0  0  0  0  0  0  0  0
   61.2212   28.9433   44.7616 H   0  0  0  0  0  0  0  0  0  0  0  0
   58.4550   26.4151   48.1912 H   0  0  0  0  0  0  0  0  0  0  0  0
   57.3753   25.6780   46.9593 H   0  0  0  0  0  0  0  0  0  0  0  0
   59.1304   25.2958   46.9593 H   0  0  0  0  0  0  0  0  0  0  0  0
   56.5297   27.7048   45.9579 H   0  0  0  0  0  0  0  0  0  0  0  0
   57.7568   33.7450   43.7638 H   0  0  0  0  0  0  0  0  0  0  0  0
   59.7650   34.8747   44.7170 H   0  0  0  0  0  0  0  0  0  0  0  0
  1  2  1  0
  2  3  2  0
  3  4  1  0
  4  5  2  0
  5  6  1  0
  6  7  1  0
  7  8  2  0
  7  9  2  0
  7 10  1  0
 10 11  2  0
 11 12  1  0
 12 13  2  0
 13 14  1  0
 13 15  1  0
 15 16  1  0
 15 17  2  0
  5 18  1  0
 18 19  2  0
 19  2  1  0
 17 10  1  0
  1 20  1  0
  1 21  1  0
  1 22  1  0
  3 23  1  0
  4 24  1  0
 11 25  1  0
 12 26  1  0
 16 27  1  0
 16 28  1  0
 16 29  1  0
 17 30  1  0
 18 31  1  0
 19 32  1  0
M  CHG  1   6  -1
M  END
>  <UniqueID>  (11) 
11

>  <SMILES>  (11) 
Cc1ccc([N-]S(=O)(=O)c2ccc(F)c(C)c2)cc1

>  <Energy>  (11) 
34.17751666784417

>  <Genealogy>  (11) 
Cc1ccc([N-]S(=O)(=O)c2ccc(F)c(C)c2)cc1 (protonated)
Cc1ccc([N-]S(=O)(=O)c2ccc(F)c(C)c2)cc1 (3D coordinates assigned)
Cc1ccc([N-]S(=O)(=O)c2ccc(F)c(C)c2)cc1 (optimized conformer: 34.17751666784417 kcal/mol)

>  <smiles>  (11) 
Cc1ccc(NS(=O)(=O)c2ccc(F)c(C)c2)cc1

>  <score_type>  (11) 
oracle

>  <origin>  (11) 
adg

>  <m_score__min__energy>  (11) 
-8.7100000000000009

>  <m_primary>  (11) 
energy

$$$$
11:0
     RDKit          3D

 31 33  0  0  0  0  0  0  0  0999 V2000
   56.7730   23.9130   43.5120 C   0  0  0  0  0  0  0  0  0  0  0  0
   57.6450   24.5440   44.4430 O   0  0  0  0  0  0  0  0  0  0  0  0
   57.7450   25.9330   44.6190 C   0  0  0  0  0  0  0  0  0  0  0  0
   58.1080   26.8020   43.5760 C   0  0  0  0  0  0  0  0  0  0  0  0
   58.1930   28.1790   43.8010 C   0  0  0  0  0  0  0  0  0  0  0  0
   57.9100   28.7170   45.0700 C   0  0  0  0  0  0  0  0  0  0  0  0
   58.0130   30.1830   45.2900 C   0  0  0  0  0  0  0  0  0  0  0  0
   59.1220   30.7550   45.9400 C   0  0  0  0  0  0  0  0  0  0  0  0
   59.1750   32.1420   46.1290 C   0  0  0  0  0  0  0  0  0  0  0  0
   60.2700   32.7400   46.7720 C   0  0  0  0  0  0  0  0  0  0  0  0
   60.3060   34.1260   46.9530 C   0  0  0  0  0  0  0  0  0  0  0  0
   59.2530   34.9230   46.4950 C   0  0  0  0  0  0  0  0  0  0  0  0
   58.1560   34.3390   45.8550 C   0  0  0  0  0  0  0  0  0  0  0  0
   58.1100   32.9490   45.6690 C   0  0  0  0  0  0  0  0  0  0  0  0
   57.0210   32.3390   45.0370 C   0  0  0  0  0  0  0  0  0  0  0  0
   57.0000   30.9910   44.8680 N   0  0  0  0  0  0  0  0  0  0  0  0
   57.5570   27.8400   46.1130 C   0  0  0  0  0  0  0  0  0  0  0  0
   57.4740   26.4630   45.8850 C   0  0  0  0  0  0  0  0  0  0  0  0
   55.9987   23.3527   44.0565 H   0  0  0  0  0  0  0  0  0  0  0  0
   56.2966   24.6769   42.8799 H   0  0  0  0  0  0  0  0  0  0  0  0
   57.3497   23.2217   42.8799 H   0  0  0  0  0  0  0  0  0  0  0  0
   58.3264   26.3964   42.5771 H   0  0  0  0  0  0  0  0  0  0  0  0
   58.4839   28.8485   42.9781 H   0  0  0  0  0  0  0  0  0  0  0  0
   59.9431   30.1164   46.2979 H   0  0  0  0  0  0  0  0  0  0  0  0
   61.1013   32.1172   47.1341 H   0  0  0  0  0  0  0  0  0  0  0  0
   61.1659   34.5907   47.4575 H   0  0  0  0  0  0  0  0  0  0  0  0
   59.2877   36.0130   46.6386 H   0  0  0  0  0  0  0  0  0  0  0  0
   57.3286   34.9693   45.4971 H   0  0  0  0  0  0  0  0  0  0  0  0
   56.1811   32.9512   44.6766 H   0  0  0  0  0  0  0  0  0  0  0  0
   57.3448   28.2411   47.1151 H   0  0  0  0  0  0  0  0  0  0  0  0
   57.1930   25.7902   46.7087 H   0  0  0  0  0  0  0  0  0  0  0  0
  1  2  1  0
  2  3  1  0
  3  4  2  0
  4  5  1  0
  5  6  2  0
  6  7  1  0
  7  8  2  0
  8  9  1  0
  9 10  2  0
 10 11  1  0
 11 12  2  0
 12 13  1  0
 13 14  2  0
 14 15  1  0
 15 16  2  0
  6 17  1  0
 17 18  2  0
 18  3  1  0
 16  7  1  0
 14  9  1  0
  1 19  1  0
  1 20  1  0
  1 21  1  0
  4 22  1  0
  5 23  1  0
  8 24  1  0
 10 25  1  0
 11 26  1  0
 12 27  1  0
 13 28  1  0
 15 29  1  0
 17 30  1  0
 18 31  1  0
M  END
>  <UniqueID>  (12) 
12

>  <SMILES>  (12) 
COc1ccc(-c2cc3ccccc3cn2)cc1

>  <Energy>  (12) 
40.884031665466544

>  <Genealogy>  (12) 
COc1ccc(-c2cc3ccccc3cn2)cc1 (3D coordinates assigned)
COc1ccc(-c2cc3ccccc3cn2)cc1 (optimized conformer: 40.884031665466544 kcal/mol)

>  <smiles>  (12) 
COc1ccc(-c2cc3ccccc3cn2)cc1

>  <score_type>  (12) 
oracle

>  <origin>  (12) 
adg

>  <m_score__min__energy>  (12) 
-6.5800000000000001

>  <m_primary>  (12) 
energy

$$$$
12:0
     RDKit          3D

 41 43  0  0  0  0  0  0  0  0999 V2000
   55.9000   29.7860   42.6210 O   0  0  0  0  0  0  0  0  0  0  0  0
   56.3000   30.2870   43.7070 C   0  0  0  0  0  0  0  0  0  0  0  0
   57.0730   31.5660   43.7000 C   0  0  0  0  0  0  0  0  0  0  0  0
   57.3360   31.9770   45.0750 N   0  0  0  0  0  0  0  0  0  0  0  0
   57.8560   33.2780   45.3890 C   0  0  0  0  0  0  0  0  0  0  0  0
   57.7660   34.2110   44.5450 O   0  0  0  0  0  0  0  0  0  0  0  0
   58.5230   33.5330   46.6760 C   0  0  0  0  0  0  0  0  0  0  0  0
   59.5180   34.4780   46.9000 C   0  0  0  0  0  0  0  0  0  0  0  0
   60.0140   34.4620   48.2090 C   0  0  0  0  0  0  0  0  0  0  0  0
   59.4140   33.5070   49.0220 C   0  0  0  0  0  0  0  0  0  0  0  0
   58.2700   32.6820   48.1080 S   0  0  0  0  0  0  0  0  0  0  0  0
   56.0960   29.6210   44.9200 O   0  0  0  0  0  0  0  0  0  0  0  0
   56.8300   28.4600   45.2960 C   0  0  0  0  0  0  0  0  0  0  0  0
   58.2920   28.7820   45.3290 C   0  0  0  0  0  0  0  0  0  0  0  0
   59.2530   28.0120   44.6790 C   0  0  0  0  0  0  0  0  0  0  0  0
   60.7640   28.6460   45.0550 S   0  0  0  0  0  0  0  0  0  0  0  0
   60.1340   29.8480   46.0480 C   0  0  0  0  0  0  0  0  0  0  0  0
   60.9410   30.8930   46.7450 C   0  0  0  0  0  0  0  0  0  0  0  0
   61.0610   30.5640   48.2060 C   0  0  0  0  0  0  0  0  0  0  0  0
   60.2440   29.5760   48.7830 C   0  0  0  0  0  0  0  0  0  0  0  0
   60.3800   29.2540   50.1380 C   0  0  0  0  0  0  0  0  0  0  0  0
   61.3390   29.9040   50.9190 C   0  0  0  0  0  0  0  0  0  0  0  0
   62.1630   30.8790   50.3500 C   0  0  0  0  0  0  0  0  0  0  0  0
   62.0270   31.2100   48.9990 C   0  0  0  0  0  0  0  0  0  0  0  0
   58.7850   29.7950   46.0920 N   0  0  0  0  0  0  0  0  0  0  0  0
   58.0265   31.4164   43.1723 H   0  0  0  0  0  0  0  0  0  0  0  0
   56.4912   32.3458   43.1868 H   0  0  0  0  0  0  0  0  0  0  0  0
   57.2310   31.2640   45.8320 H   0  0  0  0  0  0  0  0  0  0  0  0
   59.8797   35.1699   46.1251 H   0  0  0  0  0  0  0  0  0  0  0  0
   60.8043   35.1413   48.5613 H   0  0  0  0  0  0  0  0  0  0  0  0
   59.6478   33.3231   50.0810 H   0  0  0  0  0  0  0  0  0  0  0  0
   56.5052   28.1280   46.2931 H   0  0  0  0  0  0  0  0  0  0  0  0
   56.6477   27.6586   44.5649 H   0  0  0  0  0  0  0  0  0  0  0  0
   59.0580   27.1427   44.0337 H   0  0  0  0  0  0  0  0  0  0  0  0
   61.9452   30.9354   46.2980 H   0  0  0  0  0  0  0  0  0  0  0  0
   60.4409   31.8666   46.6352 H   0  0  0  0  0  0  0  0  0  0  0  0
   59.4959   29.0547   48.1677 H   0  0  0  0  0  0  0  0  0  0  0  0
   59.7313   28.4884   50.5887 H   0  0  0  0  0  0  0  0  0  0  0  0
   61.4457   29.6479   51.9835 H   0  0  0  0  0  0  0  0  0  0  0  0
   62.9196   31.3866   50.9664 H   0  0  0  0  0  0  0  0  0  0  0  0
   62.6772   31.9779   48.5544 H   0  0  0  0  0  0  0  0  0  0  0  0
  1  2  2  0
  2  3  1  0
  3  4  1  0
  4  5  1  0
  5  6  2  0
  5  7  1  0
  7  8  2  0
  8  9  1  0
  9 10  2  0
 10 11  1  0
  2 12  1  0
 12 13  1  0
 13 14  1  0
 14 15  2  0
 15 16  1  0
 16 17  1  0
 17 18  1  0
 18 19  1  0
 19 20  2  0
 20 21  1  0
 21 22  2  0
 22 23  1  0
 23 24  2  0
 17 25  2  0
 11  7  1  0
 25 14  1  0
 24 19  1  0
  3 26  1  0
  3 27  1  0
  4 28  1  0
  8 29  1  0
  9 30  1  0
 10 31  1  0
 13 32  1  0
 13 33  1  0
 15 34  1  0
 18 35  1  0
 18 36  1  0
 20 37  1  0
 21 38  1  0
 22 39  1  0
 23 40  1  0
 24 41  1  0
M  END
>  <UniqueID>  (13) 
13

>  <SMILES>  (13) 
O=C(CNC(=O)c1cccs1)OCc1csc(Cc2ccccc2)n1

>  <Energy>  (13) 
87.18033759677645

>  <Genealogy>  (13) 
O=C(CNC(=O)c1cccs1)OCc1csc(Cc2ccccc2)n1 (3D coordinates assigned)
O=C(CNC(=O)c1cccs1)OCc1csc(Cc2ccccc2)n1 (optimized conformer: 87.18033759677645 kcal/mol)

>  <smiles>  (13) 
O=C(CNC(=O)c1cccs1)OCc1csc(Cc2ccccc2)n1

>  <score_type>  (13) 
oracle

>  <origin>  (13) 
adg

>  <m_score__min__energy>  (13) 
-7.3200000000000003

>  <m_primary>  (13) 
energy

$$$$
13:0
     RDKit          3D

 57 61  0  0  0  0  0  0  0  0999 V2000
   56.7310   27.4640   45.6400 C   0  0  0  0  0  0  0  0  0  0  0  0
   56.8310   28.8360   45.1540 N   0  0  0  0  0  0  0  0  0  0  0  0
   56.0080   29.3330   44.2430 N   0  0  0  0  0  0  0  0  0  0  0  0
   56.3360   30.6250   44.0500 C   0  0  0  0  0  0  0  0  0  0  0  0
   57.3980   30.9600   44.8630 C   0  0  0  0  0  0  0  0  0  0  0  0
   57.7030   29.7960   45.5440 C   0  0  0  0  0  0  0  0  0  0  0  0
   58.7530   29.6620   46.5810 C   0  0  0  0  0  0  0  0  0  0  0  0
   58.5290   28.9330   47.7580 C   0  0  0  0  0  0  0  0  0  0  0  0
   59.5370   28.8170   48.7170 C   0  0  0  0  0  0  0  0  0  0  0  0
   60.7690   29.4430   48.5220 C   0  0  0  0  0  0  0  0  0  0  0  0
   61.0050   30.2050   47.3650 C   0  0  0  0  0  0  0  0  0  0  0  0
   62.3420   30.8780   47.1280 C   0  0  0  0  0  0  0  0  0  0  0  0
   62.7600   31.9630   48.1650 C   0  0  2  0  0  0  0  0  0  0  0  0
   62.7900   31.4120   49.6240 C   0  0  0  0  0  0  0  0  0  0  0  0
   62.6230   32.3810   50.6520 O   0  0  0  0  0  0  0  0  0  0  0  0
   63.1020   33.6460   50.2660 C   0  0  0  0  0  0  0  0  0  0  0  0
   62.2110   34.2160   49.1630 C   0  0  0  0  0  0  0  0  0  0  0  0
   61.9860   33.2230   48.1010 N   0  0  0  0  0  0  0  0  0  0  0  0
   61.5350   33.7510   46.8430 C   0  0  0  0  0  0  0  0  0  0  0  0
   62.3960   34.1870   46.0360 O   0  0  0  0  0  0  0  0  0  0  0  0
   60.0740   33.8580   46.5320 C   0  0  0  0  0  0  0  0  0  0  0  0
   59.6790   34.2970   45.2510 C   0  0  0  0  0  0  0  0  0  0  0  0
   58.3360   34.3240   44.8810 C   0  0  0  0  0  0  0  0  0  0  0  0
   57.3520   33.9430   45.7890 C   0  0  0  0  0  0  0  0  0  0  0  0
   57.7080   33.5620   47.0800 C   0  0  0  0  0  0  0  0  0  0  0  0
   59.0560   33.5390   47.4780 C   0  0  0  0  0  0  0  0  0  0  0  0
   59.3450   33.2630   48.8560 N   0  0  0  0  0  0  0  0  0  0  0  0
   59.4680   34.1990   49.7850 N   0  0  0  0  0  0  0  0  0  0  0  0
   59.5910   33.5470   50.9590 C   0  0  0  0  0  0  0  0  0  0  0  0
   59.5140   32.1910   50.7090 C   0  0  0  0  0  0  0  0  0  0  0  0
   59.3470   32.0500   49.3850 N   0  0  0  0  0  0  0  0  0  0  0  0
   60.0110   30.2490   46.3730 C   0  0  0  0  0  0  0  0  0  0  0  0
   56.7310   27.4637   46.7400 H   0  0  0  0  0  0  0  0  0  0  0  0
   55.7975   27.0122   45.2732 H   0  0  0  0  0  0  0  0  0  0  0  0
   57.5891   26.8816   45.2732 H   0  0  0  0  0  0  0  0  0  0  0  0
   55.8332   31.3088   43.3503 H   0  0  0  0  0  0  0  0  0  0  0  0
   57.8936   31.9381   44.9506 H   0  0  0  0  0  0  0  0  0  0  0  0
   57.5549   28.4505   47.9263 H   0  0  0  0  0  0  0  0  0  0  0  0
   59.3594   28.2298   49.6300 H   0  0  0  0  0  0  0  0  0  0  0  0
   61.5605   29.3393   49.2788 H   0  0  0  0  0  0  0  0  0  0  0  0
   63.1160   30.0964   47.1297 H   0  0  0  0  0  0  0  0  0  0  0  0
   62.2378   31.4104   46.1711 H   0  0  0  0  0  0  0  0  0  0  0  0
   63.7848   32.2263   47.8643 H   0  0  0  0  0  0  0  0  0  0  0  0
   61.9823   30.6718   49.7226 H   0  0  0  0  0  0  0  0  0  0  0  0
   63.7974   30.9938   49.7664 H   0  0  0  0  0  0  0  0  0  0  0  0
   63.0894   34.3226   51.1332 H   0  0  0  0  0  0  0  0  0  0  0  0
   64.1313   33.5483   49.8906 H   0  0  0  0  0  0  0  0  0  0  0  0
   61.2422   34.5048   49.5965 H   0  0  0  0  0  0  0  0  0  0  0  0
   62.7130   35.0908   48.7241 H   0  0  0  0  0  0  0  0  0  0  0  0
   60.4445   34.6237   44.5317 H   0  0  0  0  0  0  0  0  0  0  0  0
   58.0524   34.6473   43.8685 H   0  0  0  0  0  0  0  0  0  0  0  0
   56.2943   33.9429   45.4869 H   0  0  0  0  0  0  0  0  0  0  0  0
   56.9248   33.2755   47.7973 H   0  0  0  0  0  0  0  0  0  0  0  0
   59.7288   34.0144   51.9452 H   0  0  0  0  0  0  0  0  0  0  0  0
   59.5774   31.3823   51.4520 H   0  0  0  0  0  0  0  0  0  0  0  0
   59.2150   31.1580   48.8620 H   0  0  0  0  0  0  0  0  0  0  0  0
   60.2221   30.7517   45.4176 H   0  0  0  0  0  0  0  0  0  0  0  0
  1  2  1  0
  2  3  1  0
  3  4  2  0
  4  5  1  0
  5  6  2  0
  6  7  1  0
  7  8  2  0
  8  9  1  0
  9 10  2  0
 10 11  1  0
 11 12  1  0
 12 13  1  0
 13 14  1  0
 14 15  1  0
 15 16  1  0
 16 17  1  0
 17 18  1  0
 18 19  1  0
 19 20  2  0
 19 21  1  0
 21 22  2  0
 22 23  1  0
 23 24  2  0
 24 25  1  0
 25 26  2  0
 26 27  1  0
 27 28  1  0
 28 29  2  0
 29 30  1  0
 30 31  2  0
 11 32  2  0
  6  2  1  0
 32  7  1  0
 18 13  1  0
 26 21  1  0
 31 27  1  0
  1 33  1  0
  1 34  1  0
  1 35  1  0
  4 36  1  0
  5 37  1  0
  8 38  1  0
  9 39  1  0
 10 40  1  0
 12 41  1  0
 12 42  1  0
 13 43  1  6
 14 44  1  0
 14 45  1  0
 16 46  1  0
 16 47  1  0
 17 48  1  0
 17 49  1  0
 22 50  1  0
 23 51  1  0
 24 52  1  0
 25 53  1  0
 29 54  1  0
 30 55  1  0
 31 56  1  0
 32 57  1  0
M  CHG  1  31   1
M  END
>  <UniqueID>  (14) 
14

>  <SMILES>  (14) 
Cn1nccc1-c1cccc(C[C@@H]2COCCN2C(=O)c2ccccc2-n2ncc[nH+]2)c1

>  <Energy>  (14) 
152.130965579204

>  <Genealogy>  (14) 
Cn1nccc1-c1cccc(CC2COCCN2C(=O)c2ccccc2-n2ncc[nH+]2)c1 (protonated)
Cn1nccc1-c1cccc(C[C@@H]2COCCN2C(=O)c2ccccc2-n2ncc[nH+]2)c1 (chirality)
Cn1nccc1-c1cccc(C[C@@H]2COCCN2C(=O)c2ccccc2-n2ncc[nH+]2)c1 (3D coordinates assigned)
Cn1nccc1-c1cccc(C[C@@H]2COCCN2C(=O)c2ccccc2-n2ncc[nH+]2)c1 (nonaromatic ring conformer: 152.130965579204 kcal/mol)

>  <smiles>  (14) 
Cn1nccc1-c1cccc(CC2COCCN2C(=O)c2ccccc2-n2nccn2)c1

>  <score_type>  (14) 
oracle

>  <origin>  (14) 
adg

>  <m_score__min__energy>  (14) 
-8.4600000000000009

>  <m_primary>  (14) 
energy

$$$$
14:0
     RDKit          3D

 46 47  0  0  0  0  0  0  0  0999 V2000
   56.3080   29.8680   42.6710 C   0  0  0  0  0  0  0  0  0  0  0  0
   56.0660   29.7510   44.1740 C   0  0  0  0  0  0  0  0  0  0  0  0
   57.0080   30.6200   44.9140 N   0  0  0  0  0  0  0  0  0  0  0  0
   57.3390   31.8350   44.1360 C   0  0  0  0  0  0  0  0  0  0  0  0
   57.4040   33.0520   45.0550 C   0  0  0  0  0  0  0  0  0  0  0  0
   58.2350   29.8790   45.2910 C   0  0  0  0  0  0  0  0  0  0  0  0
   58.0170   28.3730   45.1130 C   0  0  0  0  0  0  0  0  0  0  0  0
   57.6050   27.7630   46.3750 N   0  0  0  0  0  0  0  0  0  0  0  0
   57.1950   26.3930   46.4810 C   0  0  0  0  0  0  0  0  0  0  0  0
   57.9960   25.3010   46.7670 C   0  0  0  0  0  0  0  0  0  0  0  0
   57.1430   24.2130   46.7610 C   0  0  0  0  0  0  0  0  0  0  0  0
   57.5350   22.9070   47.0310 O   0  0  0  0  0  0  0  0  0  0  0  0
   55.8720   24.5840   46.4870 N   0  0  0  0  0  0  0  0  0  0  0  0
   54.7170   23.7290   46.3980 C   0  0  0  0  0  0  0  0  0  0  0  0
   54.6230   22.5770   47.1950 C   0  0  0  0  0  0  0  0  0  0  0  0
   53.5020   21.7450   47.1080 C   0  0  0  0  0  0  0  0  0  0  0  0
   52.4550   22.0550   46.2200 C   0  0  0  0  0  0  0  0  0  0  0  0
   51.3090   21.2540   46.0970 O   0  0  0  0  0  0  0  0  0  0  0  0
   50.4980   20.8390   47.1900 C   0  0  0  0  0  0  0  0  0  0  0  0
   52.5510   23.2050   45.4270 C   0  0  0  0  0  0  0  0  0  0  0  0
   53.6720   24.0360   45.5130 C   0  0  0  0  0  0  0  0  0  0  0  0
   55.9090   25.9230   46.3180 C   0  0  0  0  0  0  0  0  0  0  0  0
   54.8050   26.7050   45.9950 O   0  0  0  0  0  0  0  0  0  0  0  0
   57.2852   30.3405   42.4926 H   0  0  0  0  0  0  0  0  0  0  0  0
   56.2975   28.8653   42.2188 H   0  0  0  0  0  0  0  0  0  0  0  0
   55.5156   30.4825   42.2188 H   0  0  0  0  0  0  0  0  0  0  0  0
   55.0343   30.0580   44.4006 H   0  0  0  0  0  0  0  0  0  0  0  0
   56.2242   28.7070   44.4822 H   0  0  0  0  0  0  0  0  0  0  0  0
   58.3144   31.6977   43.6464 H   0  0  0  0  0  0  0  0  0  0  0  0
   56.5572   31.9994   43.3798 H   0  0  0  0  0  0  0  0  0  0  0  0
   57.3863   32.7208   46.1038 H   0  0  0  0  0  0  0  0  0  0  0  0
   58.3331   33.6082   44.8617 H   0  0  0  0  0  0  0  0  0  0  0  0
   56.5394   33.7040   44.8617 H   0  0  0  0  0  0  0  0  0  0  0  0
   59.0677   30.2042   44.6500 H   0  0  0  0  0  0  0  0  0  0  0  0
   58.4708   30.0862   46.3453 H   0  0  0  0  0  0  0  0  0  0  0  0
   57.2341   28.2073   44.3582 H   0  0  0  0  0  0  0  0  0  0  0  0
   58.9615   27.9129   44.7870 H   0  0  0  0  0  0  0  0  0  0  0  0
   57.6540   28.3420   47.2440 H   0  0  0  0  0  0  0  0  0  0  0  0
   59.0793   25.2992   46.9581 H   0  0  0  0  0  0  0  0  0  0  0  0
   55.4362   22.3271   47.8924 H   0  0  0  0  0  0  0  0  0  0  0  0
   53.4384   20.8444   47.7364 H   0  0  0  0  0  0  0  0  0  0  0  0
   50.9982   21.0950   48.1357 H   0  0  0  0  0  0  0  0  0  0  0  0
   49.5253   21.3501   47.1397 H   0  0  0  0  0  0  0  0  0  0  0  0
   50.3436   19.7511   47.1397 H   0  0  0  0  0  0  0  0  0  0  0  0
   51.7376   23.4567   44.7305 H   0  0  0  0  0  0  0  0  0  0  0  0
   53.7353   24.9357   44.8833 H   0  0  0  0  0  0  0  0  0  0  0  0
  1  2  1  0
  2  3  1  0
  3  4  1  0
  4  5  1  0
  3  6  1  0
  6  7  1  0
  7  8  1  0
  8  9  1  0
  9 10  1  0
 10 11  2  0
 11 12  1  0
 11 13  1  0
 13 14  1  0
 14 15  2  0
 15 16  1  0
 16 17  2  0
 17 18  1  0
 18 19  1  0
 17 20  1  0
 20 21  2  0
 13 22  1  0
 22 23  1  0
 22  9  2  0
 21 14  1  0
  1 24  1  0
  1 25  1  0
  1 26  1  0
  2 27  1  0
  2 28  1  0
  4 29  1  0
  4 30  1  0
  5 31  1  0
  5 32  1  0
  5 33  1  0
  6 34  1  0
  6 35  1  0
  7 36  1  0
  7 37  1  0
  8 38  1  0
 10 39  1  0
 15 40  1  0
 16 41  1  0
 19 42  1  0
 19 43  1  0
 19 44  1  0
 20 45  1  0
 21 46  1  0
M  CHG  2  12  -1  23  -1
M  END
>  <UniqueID>  (15) 
15

>  <SMILES>  (15) 
CCN(CC)CCNc1cc([O-])n(-c2ccc(OC)cc2)c1[O-]

>  <Energy>  (15) 
74.5511840860626

>  <Genealogy>  (15) 
CCN(CC)CCNc1cc([O-])n(-c2ccc(OC)cc2)c1[O-] (protonated)
CCN(CC)CCNc1cc([O-])n(-c2ccc(OC)cc2)c1[O-] (3D coordinates assigned)
CCN(CC)CCNc1cc([O-])n(-c2ccc(OC)cc2)c1[O-] (optimized conformer: 74.5511840860626 kcal/mol)

>  <smiles>  (15) 
CCN(CC)CCNc1cc(O)n(-c2ccc(OC)cc2)c1O

>  <score_type>  (15) 
oracle

>  <origin>  (15) 
adg

>  <m_score__min__energy>  (15) 
-11.44

>  <m_primary>  (15) 
energy

$$$$
15:0
     RDKit          3D

 54 55  0  0  0  0  0  0  0  0999 V2000
   60.5310   29.2570   45.5710 C   0  0  0  0  0  0  0  0  0  0  0  0
   59.0560   29.3610   45.9510 C   0  0  0  0  0  0  0  0  0  0  0  0
   58.1910   28.9290   44.8290 N   0  0  0  0  0  0  0  0  0  0  0  0
   58.3540   27.4820   44.5340 C   0  0  0  0  0  0  0  0  0  0  0  0
   58.1220   27.1100   43.0640 C   0  0  0  0  0  0  0  0  0  0  0  0
   56.7820   29.3480   45.0400 C   0  0  0  0  0  0  0  0  0  0  0  0
   56.2990   30.4140   44.0320 C   0  0  0  0  0  0  0  0  0  0  0  0
   57.2270   30.6240   42.9050 N   0  0  0  0  0  0  0  0  0  0  0  0
   57.5870   32.0340   42.6840 C   0  0  0  0  0  0  0  0  0  0  0  0
   57.8280   32.7570   43.9730 C   0  0  0  0  0  0  0  0  0  0  0  0
   58.8640   32.5060   44.7960 N   0  0  0  0  0  0  0  0  0  0  0  0
   58.6430   33.4020   45.7820 C   0  0  0  0  0  0  0  0  0  0  0  0
   59.5310   33.5740   46.9540 C   0  0  0  0  0  0  0  0  0  0  0  0
   60.9100   33.7380   46.7790 C   0  0  0  0  0  0  0  0  0  0  0  0
   61.7610   33.8940   47.8880 C   0  0  0  0  0  0  0  0  0  0  0  0
   63.1490   34.0590   47.7380 O   0  0  0  0  0  0  0  0  0  0  0  0
   64.1220   33.0660   48.0460 C   0  0  0  0  0  0  0  0  0  0  0  0
   61.2320   33.8830   49.1880 C   0  0  0  0  0  0  0  0  0  0  0  0
   62.1500   34.0440   50.2440 O   0  0  0  0  0  0  0  0  0  0  0  0
   62.4580   33.0910   51.2550 C   0  0  0  0  0  0  0  0  0  0  0  0
   59.8350   33.7180   49.3770 C   0  0  0  0  0  0  0  0  0  0  0  0
   59.3000   33.7070   50.6750 O   0  0  0  0  0  0  0  0  0  0  0  0
   58.6320   32.6020   51.2770 C   0  0  0  0  0  0  0  0  0  0  0  0
   59.0020   33.5640   48.2520 C   0  0  0  0  0  0  0  0  0  0  0  0
   57.5380   34.1430   45.5630 N   0  0  0  0  0  0  0  0  0  0  0  0
   57.0640   33.7140   44.4350 O   0  0  0  0  0  0  0  0  0  0  0  0
   61.1427   29.2139   46.4842 H   0  0  0  0  0  0  0  0  0  0  0  0
   60.6933   28.3452   44.9775 H   0  0  0  0  0  0  0  0  0  0  0  0
   60.8197   30.1370   44.9775 H   0  0  0  0  0  0  0  0  0  0  0  0
   58.8624   28.7192   46.8232 H   0  0  0  0  0  0  0  0  0  0  0  0
   58.8267   30.4103   46.1886 H   0  0  0  0  0  0  0  0  0  0  0  0
   59.3781   27.1875   44.8069 H   0  0  0  0  0  0  0  0  0  0  0  0
   57.5880   26.9519   45.1189 H   0  0  0  0  0  0  0  0  0  0  0  0
   57.5406   26.1778   43.0090 H   0  0  0  0  0  0  0  0  0  0  0  0
   57.5674   27.9180   42.5644 H   0  0  0  0  0  0  0  0  0  0  0  0
   59.0916   26.9674   42.5644 H   0  0  0  0  0  0  0  0  0  0  0  0
   56.1373   28.4618   44.9453 H   0  0  0  0  0  0  0  0  0  0  0  0
   56.7252   29.8000   46.0412 H   0  0  0  0  0  0  0  0  0  0  0  0
   55.3271   30.0950   43.6275 H   0  0  0  0  0  0  0  0  0  0  0  0
   56.2326   31.3671   44.5772 H   0  0  0  0  0  0  0  0  0  0  0  0
   58.0840   30.0290   42.9810 H   0  0  0  0  0  0  0  0  0  0  0  0
   58.5027   32.0762   42.0759 H   0  0  0  0  0  0  0  0  0  0  0  0
   56.7469   32.5240   42.1700 H   0  0  0  0  0  0  0  0  0  0  0  0
   61.3327   33.7450   45.7635 H   0  0  0  0  0  0  0  0  0  0  0  0
   64.2155   32.9705   49.1379 H   0  0  0  0  0  0  0  0  0  0  0  0
   63.8095   32.1016   47.6190 H   0  0  0  0  0  0  0  0  0  0  0  0
   65.0926   33.3588   47.6190 H   0  0  0  0  0  0  0  0  0  0  0  0
   62.3108   33.5465   52.2454 H   0  0  0  0  0  0  0  0  0  0  0  0
   61.7960   32.2187   51.1506 H   0  0  0  0  0  0  0  0  0  0  0  0
   63.5053   32.7711   51.1506 H   0  0  0  0  0  0  0  0  0  0  0  0
   58.6868   32.6926   52.3719 H   0  0  0  0  0  0  0  0  0  0  0  0
   57.5781   32.5947   50.9620 H   0  0  0  0  0  0  0  0  0  0  0  0
   59.1153   31.6654   50.9620 H   0  0  0  0  0  0  0  0  0  0  0  0
   57.9190   33.4338   48.3941 H   0  0  0  0  0  0  0  0  0  0  0  0
  1  2  1  0
  2  3  1  0
  3  4  1  0
  4  5  1  0
  3  6  1  0
  6  7  1  0
  7  8  1  0
  8  9  1  0
  9 10  1  0
 10 11  2  0
 11 12  1  0
 12 13  1  0
 13 14  2  0
 14 15  1  0
 15 16  1  0
 16 17  1  0
 15 18  2  0
 18 19  1  0
 19 20  1  0
 18 21  1  0
 21 22  1  0
 22 23  1  0
 21 24  2  0
 12 25  2  0
 25 26  1  0
 26 10  1  0
 24 13  1  0
  1 27  1  0
  1 28  1  0
  1 29  1  0
  2 30  1  0
  2 31  1  0
  4 32  1  0
  4 33  1  0
  5 34  1  0
  5 35  1  0
  5 36  1  0
  6 37  1  0
  6 38  1  0
  7 39  1  0
  7 40  1  0
  8 41  1  0
  9 42  1  0
  9 43  1  0
 14 44  1  0
 17 45  1  0
 17 46  1  0
 17 47  1  0
 20 48  1  0
 20 49  1  0
 20 50  1  0
 23 51  1  0
 23 52  1  0
 23 53  1  0
 24 54  1  0
M  END
>  <UniqueID>  (16) 
16

>  <SMILES>  (16) 
CCN(CC)CCNCc1nc(-c2cc(OC)c(OC)c(OC)c2)no1

>  <Energy>  (16) 
88.70091513494965

>  <Genealogy>  (16) 
CCN(CC)CCNCc1nc(-c2cc(OC)c(OC)c(OC)c2)no1 (3D coordinates assigned)
CCN(CC)CCNCc1nc(-c2cc(OC)c(OC)c(OC)c2)no1 (optimized conformer: 88.70091513494965 kcal/mol)

>  <smiles>  (16) 
CCN(CC)CCNCc1nc(-c2cc(OC)c(OC)c(OC)c2)no1

>  <score_type>  (16) 
oracle

>  <origin>  (16) 
adg

>  <m_score__min__energy>  (16) 
-6.1100000000000003

>  <m_primary>  (16) 
energy

$$$$
16:0
     RDKit          3D

 31 33  0  0  0  0  0  0  0  0999 V2000
   64.2190   32.4380   49.3010 C   0  0  0  0  0  0  0  0  0  0  0  0
   63.3730   33.0710   48.2990 N   0  0  0  0  0  0  0  0  0  0  0  0
   63.7240   33.2640   47.0310 N   0  0  0  0  0  0  0  0  0  0  0  0
   62.6670   33.8090   46.3750 C   0  0  0  0  0  0  0  0  0  0  0  0
   61.6240   33.9410   47.2710 C   0  0  0  0  0  0  0  0  0  0  0  0
   60.3140   34.3880   47.1790 C   0  0  0  0  0  0  0  0  0  0  0  0
   59.6330   34.9960   45.6300 S   0  0  0  0  0  0  0  0  0  0  0  0
   57.9960   34.2180   45.8620 C   0  0  0  0  0  0  0  0  0  0  0  0
   57.9760   32.8230   45.2990 C   0  0  0  0  0  0  0  0  0  0  0  0
   57.7220   32.6180   43.9330 C   0  0  0  0  0  0  0  0  0  0  0  0
   57.6670   31.3200   43.4150 C   0  0  0  0  0  0  0  0  0  0  0  0
   57.8590   30.2200   44.2560 C   0  0  0  0  0  0  0  0  0  0  0  0
   57.8020   28.9620   43.7530 F   0  0  0  0  0  0  0  0  0  0  0  0
   58.1080   30.4170   45.6180 C   0  0  0  0  0  0  0  0  0  0  0  0
   58.1660   31.7130   46.1400 C   0  0  0  0  0  0  0  0  0  0  0  0
   59.5470   34.3390   48.3110 N   0  0  0  0  0  0  0  0  0  0  0  0
   60.0500   33.8520   49.4920 C   0  0  0  0  0  0  0  0  0  0  0  0
   61.3400   33.4050   49.5680 N   0  0  0  0  0  0  0  0  0  0  0  0
   62.1000   33.4670   48.4480 C   0  0  0  0  0  0  0  0  0  0  0  0
   63.8606   32.7061   50.3058 H   0  0  0  0  0  0  0  0  0  0  0  0
   64.1797   31.3457   49.1770 H   0  0  0  0  0  0  0  0  0  0  0  0
   65.2558   32.7840   49.1770 H   0  0  0  0  0  0  0  0  0  0  0  0
   62.6452   34.0958   45.3133 H   0  0  0  0  0  0  0  0  0  0  0  0
   57.7675   34.1751   46.9372 H   0  0  0  0  0  0  0  0  0  0  0  0
   57.2439   34.8203   45.3313 H   0  0  0  0  0  0  0  0  0  0  0  0
   57.5659   33.4807   43.2687 H   0  0  0  0  0  0  0  0  0  0  0  0
   57.4723   31.1644   42.3436 H   0  0  0  0  0  0  0  0  0  0  0  0
   58.2585   29.5512   46.2796 H   0  0  0  0  0  0  0  0  0  0  0  0
   58.3609   31.8642   47.2120 H   0  0  0  0  0  0  0  0  0  0  0  0
   58.5560   34.6690   48.2780 H   0  0  0  0  0  0  0  0  0  0  0  0
   59.4092   33.8211   50.3855 H   0  0  0  0  0  0  0  0  0  0  0  0
  1  2  1  0
  2  3  1  0
  3  4  2  0
  4  5  1  0
  5  6  2  0
  6  7  1  0
  7  8  1  0
  8  9  1  0
  9 10  2  0
 10 11  1  0
 11 12  2  0
 12 13  1  0
 12 14  1  0
 14 15  2  0
  6 16  1  0
 16 17  2  0
 17 18  1  0
 18 19  2  0
 19  2  1  0
 19  5  1  0
 15  9  1  0
  1 20  1  0
  1 21  1  0
  1 22  1  0
  4 23  1  0
  8 24  1  0
  8 25  1  0
 10 26  1  0
 11 27  1  0
 14 28  1  0
 15 29  1  0
 16 30  1  0
 17 31  1  0
M  CHG  1  16   1
M  END
>  <UniqueID>  (17) 
17

>  <SMILES>  (17) 
Cn1ncc2c(SCc3ccc(F)cc3)[nH+]cnc21

>  <Energy>  (17) 
68.92800940296095

>  <Genealogy>  (17) 
Cn1ncc2c(SCc3ccc(F)cc3)[nH+]cnc21 (protonated)
Cn1ncc2c(SCc3ccc(F)cc3)[nH+]cnc21 (3D coordinates assigned)
Cn1ncc2c(SCc3ccc(F)cc3)[nH+]cnc21 (optimized conformer: 68.92800940296095 kcal/mol)

>  <smiles>  (17) 
Cn1ncc2c(SCc3ccc(F)cc3)ncnc21

>  <score_type>  (17) 
oracle

>  <origin>  (17) 
adg

>  <m_score__min__energy>  (17) 
-5.0999999999999996

>  <m_primary>  (17) 
energy

$$$$
17:0
     RDKit          3D

 67 70  0  0  0  0  0  0  0  0999 V2000
   67.1430   29.6990   51.4470 C   0  0  0  0  0  0  0  0  0  0  0  0
   66.4510   30.9120   51.7230 O   0  0  0  0  0  0  0  0  0  0  0  0
   65.4470   31.4550   50.9080 C   0  0  0  0  0  0  0  0  0  0  0  0
   65.6710   32.5690   50.0790 C   0  0  0  0  0  0  0  0  0  0  0  0
   64.6400   33.0720   49.2810 C   0  0  0  0  0  0  0  0  0  0  0  0
   63.3660   32.4780   49.2990 C   0  0  0  0  0  0  0  0  0  0  0  0
   62.3050   32.9940   48.4670 N   0  0  0  0  0  0  0  0  0  0  0  0
   62.6370   33.6250   47.1820 C   0  0  0  0  0  0  0  0  0  0  0  0
   61.3920   33.7660   46.2980 C   0  0  0  0  0  0  0  0  0  0  0  0
   60.3020   34.4530   47.0330 N   0  0  0  0  0  0  0  0  0  0  0  0
   59.1220   34.7480   46.1650 C   0  0  0  0  0  0  0  0  0  0  0  0
   57.7830   34.0250   46.4680 C   0  0  0  0  0  0  0  0  0  0  0  0
   57.1630   33.2810   45.2830 C   0  0  0  0  0  0  0  0  0  0  0  0
   58.2440   32.7880   44.3040 C   0  0  0  0  0  0  0  0  0  0  0  0
   58.1430   31.2640   44.0560 C   0  0  2  0  0  0  0  0  0  0  0  0
   56.6880   30.8640   43.7230 C   0  0  0  0  0  0  0  0  0  0  0  0
   56.4800   29.3370   43.5380 C   0  0  0  0  0  0  0  0  0  0  0  0
   57.7290   28.4810   43.8250 C   0  0  0  0  0  0  0  0  0  0  0  0
   58.4560   28.9860   45.0420 C   0  0  0  0  0  0  0  0  0  0  0  0
   58.9650   28.0950   45.9980 C   0  0  0  0  0  0  0  0  0  0  0  0
   59.6380   28.5700   47.1280 C   0  0  0  0  0  0  0  0  0  0  0  0
   60.1420   27.6370   48.0460 O   0  0  0  0  0  0  0  0  0  0  0  0
   60.6250   27.9680   49.3440 C   0  0  0  0  0  0  0  0  0  0  0  0
   59.7840   29.9560   47.3050 C   0  0  0  0  0  0  0  0  0  0  0  0
   59.2840   30.8490   46.3550 C   0  0  0  0  0  0  0  0  0  0  0  0
   58.6460   30.3730   45.1910 C   0  0  0  0  0  0  0  0  0  0  0  0
   59.9860   33.8630   48.3710 C   0  0  0  0  0  0  0  0  0  0  0  0
   60.9040   32.6970   48.7820 C   0  0  0  0  0  0  0  0  0  0  0  0
   63.1490   31.3640   50.1300 C   0  0  0  0  0  0  0  0  0  0  0  0
   64.1820   30.8610   50.9260 C   0  0  0  0  0  0  0  0  0  0  0  0
   67.4209   29.2119   52.3933 H   0  0  0  0  0  0  0  0  0  0  0  0
   66.4913   29.0288   50.8672 H   0  0  0  0  0  0  0  0  0  0  0  0
   68.0515   29.9189   50.8672 H   0  0  0  0  0  0  0  0  0  0  0  0
   66.6619   33.0462   50.0588 H   0  0  0  0  0  0  0  0  0  0  0  0
   64.8270   33.9408   48.6327 H   0  0  0  0  0  0  0  0  0  0  0  0
   63.0587   34.6233   47.3704 H   0  0  0  0  0  0  0  0  0  0  0  0
   63.3666   32.9894   46.6589 H   0  0  0  0  0  0  0  0  0  0  0  0
   61.6490   34.3517   45.4031 H   0  0  0  0  0  0  0  0  0  0  0  0
   61.0467   32.7619   46.0108 H   0  0  0  0  0  0  0  0  0  0  0  0
   60.7020   35.4000   47.2400 H   0  0  0  0  0  0  0  0  0  0  0  0
   58.9304   35.8290   46.2333 H   0  0  0  0  0  0  0  0  0  0  0  0
   59.4145   34.3705   45.1741 H   0  0  0  0  0  0  0  0  0  0  0  0
   57.9640   33.2955   47.2711 H   0  0  0  0  0  0  0  0  0  0  0  0
   57.0660   34.8122   46.7439 H   0  0  0  0  0  0  0  0  0  0  0  0
   56.5987   32.4150   45.6593 H   0  0  0  0  0  0  0  0  0  0  0  0
   56.4993   33.9749   44.7464 H   0  0  0  0  0  0  0  0  0  0  0  0
   58.1225   33.3135   43.3453 H   0  0  0  0  0  0  0  0  0  0  0  0
   59.2284   32.9976   44.7479 H   0  0  0  0  0  0  0  0  0  0  0  0
   58.8191   31.0873   43.2065 H   0  0  0  0  0  0  0  0  0  0  0  0
   56.0392   31.2047   44.5434 H   0  0  0  0  0  0  0  0  0  0  0  0
   56.4395   31.3379   42.7619 H   0  0  0  0  0  0  0  0  0  0  0  0
   55.6789   29.0146   44.2194 H   0  0  0  0  0  0  0  0  0  0  0  0
   56.2321   29.1819   42.4776 H   0  0  0  0  0  0  0  0  0  0  0  0
   57.4204   27.4391   43.9960 H   0  0  0  0  0  0  0  0  0  0  0  0
   58.4052   28.5435   42.9596 H   0  0  0  0  0  0  0  0  0  0  0  0
   58.8335   27.0119   45.8576 H   0  0  0  0  0  0  0  0  0  0  0  0
   59.9696   27.5188   50.1047 H   0  0  0  0  0  0  0  0  0  0  0  0
   61.6470   27.5796   49.4650 H   0  0  0  0  0  0  0  0  0  0  0  0
   60.6316   29.0613   49.4650 H   0  0  0  0  0  0  0  0  0  0  0  0
   60.2963   30.3409   48.1991 H   0  0  0  0  0  0  0  0  0  0  0  0
   59.3886   31.9321   46.5159 H   0  0  0  0  0  0  0  0  0  0  0  0
   60.0770   34.6563   49.1275 H   0  0  0  0  0  0  0  0  0  0  0  0
   58.9676   33.4530   48.3020 H   0  0  0  0  0  0  0  0  0  0  0  0
   60.8070   32.5273   49.8645 H   0  0  0  0  0  0  0  0  0  0  0  0
   60.6020   31.7995   48.2223 H   0  0  0  0  0  0  0  0  0  0  0  0
   62.1590   30.8851   50.1536 H   0  0  0  0  0  0  0  0  0  0  0  0
   63.9977   29.9901   51.5722 H   0  0  0  0  0  0  0  0  0  0  0  0
  1  2  1  0
  2  3  1  0
  3  4  2  0
  4  5  1  0
  5  6  2  0
  6  7  1  0
  7  8  1  0
  8  9  1  0
  9 10  1  0
 10 11  1  0
 11 12  1  0
 12 13  1  0
 13 14  1  0
 14 15  1  0
 15 16  1  0
 16 17  1  0
 17 18  1  0
 18 19  1  0
 19 20  2  0
 20 21  1  0
 21 22  1  0
 22 23  1  0
 21 24  2  0
 24 25  1  0
 25 26  2  0
 10 27  1  0
 27 28  1  0
  6 29  1  0
 29 30  2  0
 30  3  1  0
 28  7  1  0
 26 15  1  0
 26 19  1  0
  1 31  1  0
  1 32  1  0
  1 33  1  0
  4 34  1  0
  5 35  1  0
  8 36  1  0
  8 37  1  0
  9 38  1  0
  9 39  1  0
 10 40  1  0
 11 41  1  0
 11 42  1  0
 12 43  1  0
 12 44  1  0
 13 45  1  0
 13 46  1  0
 14 47  1  0
 14 48  1  0
 15 49  1  6
 16 50  1  0
 16 51  1  0
 17 52  1  0
 17 53  1  0
 18 54  1  0
 18 55  1  0
 20 56  1  0
 23 57  1  0
 23 58  1  0
 23 59  1  0
 24 60  1  0
 25 61  1  0
 27 62  1  0
 27 63  1  0
 28 64  1  0
 28 65  1  0
 29 66  1  0
 30 67  1  0
M  CHG  1  10   1
M  END
>  <UniqueID>  (18) 
18

>  <SMILES>  (18) 
COc1ccc(N2CC[NH+](CCCC[C@@H]3CCCc4cc(OC)ccc43)CC2)cc1

>  <Energy>  (18) 
90.16982816692062

>  <Genealogy>  (18) 
COc1ccc(N2CC[NH+](CCCCC3CCCc4cc(OC)ccc43)CC2)cc1 (protonated)
COc1ccc(N2CC[NH+](CCCC[C@@H]3CCCc4cc(OC)ccc43)CC2)cc1 (chirality)
COc1ccc(N2CC[NH+](CCCC[C@@H]3CCCc4cc(OC)ccc43)CC2)cc1 (3D coordinates assigned)
COc1ccc(N2CC[NH+](CCCC[C@@H]3CCCc4cc(OC)ccc43)CC2)cc1 (nonaromatic ring conformer: 90.16982816692062 kcal/mol)

>  <smiles>  (18) 
COc1ccc(N2CCN(CCCCC3CCCc4cc(OC)ccc43)CC2)cc1

>  <score_type>  (18) 
oracle

>  <origin>  (18) 
adg

>  <m_score__min__energy>  (18) 
-6.9100000000000001

>  <m_primary>  (18) 
energy

$$$$
18:0
     RDKit          3D

 36 38  0  0  0  0  0  0  0  0999 V2000
   63.4880   33.2780   47.0880 C   0  0  0  0  0  0  0  0  0  0  0  0
   62.1530   33.6850   47.3680 O   0  0  0  0  0  0  0  0  0  0  0  0
   61.0240   32.8540   47.2560 C   0  0  0  0  0  0  0  0  0  0  0  0
   60.9420   31.6280   47.9360 C   0  0  0  0  0  0  0  0  0  0  0  0
   59.8040   30.8350   47.8030 C   0  0  0  0  0  0  0  0  0  0  0  0
   58.7720   31.2350   47.0170 N   0  0  0  0  0  0  0  0  0  0  0  0
   58.8140   32.4120   46.3220 C   0  0  0  0  0  0  0  0  0  0  0  0
   57.7510   32.7920   45.4720 C   0  0  0  0  0  0  0  0  0  0  0  0
   56.6430   31.9200   45.2450 N   0  0  0  0  0  0  0  0  0  0  0  0
   56.7560   30.6480   44.0790 S   0  0  0  0  0  0  0  0  0  0  0  0
   57.2650   31.1980   42.7760 O   0  0  0  0  0  0  0  0  0  0  0  0
   55.3920   30.0590   43.8560 O   0  0  0  0  0  0  0  0  0  0  0  0
   57.8500   29.3980   44.6700 C   0  0  0  0  0  0  0  0  0  0  0  0
   59.2320   29.5370   44.4830 C   0  0  0  0  0  0  0  0  0  0  0  0
   60.1130   28.5960   45.0230 C   0  0  0  0  0  0  0  0  0  0  0  0
   59.6180   27.5100   45.7520 C   0  0  0  0  0  0  0  0  0  0  0  0
   60.7250   26.3390   46.4430 Cl  0  0  0  0  0  0  0  0  0  0  0  0
   58.2400   27.3650   45.9370 C   0  0  0  0  0  0  0  0  0  0  0  0
   57.3560   28.3060   45.3990 C   0  0  0  0  0  0  0  0  0  0  0  0
   57.8080   34.0080   44.7830 C   0  0  0  0  0  0  0  0  0  0  0  0
   58.9150   34.8450   44.9190 C   0  0  0  0  0  0  0  0  0  0  0  0
   59.9830   34.4730   45.7360 C   0  0  0  0  0  0  0  0  0  0  0  0
   59.9480   33.2560   46.4400 C   0  0  0  0  0  0  0  0  0  0  0  0
   64.0270   33.1137   48.0327 H   0  0  0  0  0  0  0  0  0  0  0  0
   63.4724   32.3438   46.5075 H   0  0  0  0  0  0  0  0  0  0  0  0
   63.9962   34.0620   46.5075 H   0  0  0  0  0  0  0  0  0  0  0  0
   61.7747   31.2943   48.5725 H   0  0  0  0  0  0  0  0  0  0  0  0
   59.7413   29.8767   48.3395 H   0  0  0  0  0  0  0  0  0  0  0  0
   57.9370   30.6100   46.9590 H   0  0  0  0  0  0  0  0  0  0  0  0
   59.6246   30.3895   43.9093 H   0  0  0  0  0  0  0  0  0  0  0  0
   61.1970   28.7097   44.8745 H   0  0  0  0  0  0  0  0  0  0  0  0
   57.8500   26.5089   46.5070 H   0  0  0  0  0  0  0  0  0  0  0  0
   56.2723   28.1897   45.5477 H   0  0  0  0  0  0  0  0  0  0  0  0
   56.9745   34.3058   44.1299 H   0  0  0  0  0  0  0  0  0  0  0  0
   58.9463   35.8031   44.3796 H   0  0  0  0  0  0  0  0  0  0  0  0
   60.8566   35.1348   45.8300 H   0  0  0  0  0  0  0  0  0  0  0  0
  1  2  1  0
  2  3  1  0
  3  4  2  0
  4  5  1  0
  5  6  2  0
  6  7  1  0
  7  8  2  0
  8  9  1  0
  9 10  1  0
 10 11  2  0
 10 12  2  0
 10 13  1  0
 13 14  2  0
 14 15  1  0
 15 16  2  0
 16 17  1  0
 16 18  1  0
 18 19  2  0
  8 20  1  0
 20 21  2  0
 21 22  1  0
 22 23  2  0
 23  3  1  0
 23  7  1  0
 19 13  1  0
  1 24  1  0
  1 25  1  0
  1 26  1  0
  4 27  1  0
  5 28  1  0
  6 29  1  0
 14 30  1  0
 15 31  1  0
 18 32  1  0
 19 33  1  0
 20 34  1  0
 21 35  1  0
 22 36  1  0
M  CHG  2   6   1   9  -1
M  END
>  <UniqueID>  (19) 
19

>  <SMILES>  (19) 
COc1cc[nH+]c2c([N-]S(=O)(=O)c3ccc(Cl)cc3)cccc12

>  <Energy>  (19) 
50.35920308251251

>  <Genealogy>  (19) 
COc1cc[nH+]c2c([N-]S(=O)(=O)c3ccc(Cl)cc3)cccc12 (protonated)
COc1cc[nH+]c2c([N-]S(=O)(=O)c3ccc(Cl)cc3)cccc12 (3D coordinates assigned)
COc1cc[nH+]c2c([N-]S(=O)(=O)c3ccc(Cl)cc3)cccc12 (optimized conformer: 50.35920308251251 kcal/mol)

>  <smiles>  (19) 
COc1ccnc2c(NS(=O)(=O)c3ccc(Cl)cc3)cccc12

>  <score_type>  (19) 
oracle

>  <origin>  (19) 
adg

>  <m_score__min__energy>  (19) 
-7.9800000000000004

>  <m_primary>  (19) 
energy

$$$$
19:0
     RDKit          3D

 43 45  0  0  1  0  0  0  0  0999 V2000
   59.5720   35.1830   46.2570 C   0  0  0  0  0  0  0  0  0  0  0  0
   58.9650   33.9120   45.9260 C   0  0  0  0  0  0  0  0  0  0  0  0
   57.3880   33.8010   45.0550 S   0  0  0  0  0  0  0  0  0  0  0  0
   57.4540   32.0310   45.0360 C   0  0  0  0  0  0  0  0  0  0  0  0
   56.5020   31.2320   44.5220 N   0  0  0  0  0  0  0  0  0  0  0  0
   56.6270   29.9030   44.5720 C   0  0  0  0  0  0  0  0  0  0  0  0
   57.7400   29.4290   45.1440 N   0  0  0  0  0  0  0  0  0  0  0  0
   58.7110   30.2330   45.6620 C   0  0  0  0  0  0  0  0  0  0  0  0
   59.7680   29.6900   45.9160 N   0  0  0  0  0  0  0  0  0  0  0  0
   60.2380   28.6960   46.7070 C   0  0  0  0  0  0  0  0  0  0  0  0
   60.4410   27.5240   45.5940 C   0  0  0  0  0  0  0  0  0  0  0  0
   59.5550   26.4180   46.0310 C   0  0  0  0  0  0  0  0  0  0  0  0
   58.1890   26.6140   45.9280 N   0  0  0  0  0  0  0  0  0  0  0  0
   57.4180   26.5350   47.1290 C   0  0  0  0  0  0  0  0  0  0  0  0
   56.6450   25.2630   47.2080 C   0  0  0  0  0  0  0  0  0  0  0  0
   55.8190   25.2110   46.0680 O   0  0  0  0  0  0  0  0  0  0  0  0
   56.6970   24.9310   44.9970 C   0  0  0  0  0  0  0  0  0  0  0  0
   57.5160   26.1740   44.7570 C   0  0  0  0  0  0  0  0  0  0  0  0
   58.6270   31.6220   45.6620 C   0  0  0  0  0  0  0  0  0  0  0  0
   59.4240   32.5670   46.1440 C   0  0  0  0  0  0  0  0  0  0  0  0
   60.5770   32.5790   47.1350 C   0  0  0  0  0  0  0  0  0  0  0  0
   59.6236   35.2910   47.3505 H   0  0  0  0  0  0  0  0  0  0  0  0
   60.5874   35.2251   45.8361 H   0  0  0  0  0  0  0  0  0  0  0  0
   58.9665   35.9992   45.8361 H   0  0  0  0  0  0  0  0  0  0  0  0
   55.8554   29.2333   44.1643 H   0  0  0  0  0  0  0  0  0  0  0  0
   57.8190   28.3790   45.1710 H   0  0  0  0  0  0  0  0  0  0  0  0
   61.1880   28.9714   47.1883 H   0  0  0  0  0  0  0  0  0  0  0  0
   59.5858   28.4267   47.5509 H   0  0  0  0  0  0  0  0  0  0  0  0
   60.1468   27.8834   44.5968 H   0  0  0  0  0  0  0  0  0  0  0  0
   61.4911   27.2052   45.5182 H   0  0  0  0  0  0  0  0  0  0  0  0
   59.8076   25.5349   45.4257 H   0  0  0  0  0  0  0  0  0  0  0  0
   59.7429   26.3186   47.1103 H   0  0  0  0  0  0  0  0  0  0  0  0
   58.0970   26.5932   47.9925 H   0  0  0  0  0  0  0  0  0  0  0  0
   56.7026   27.3705   47.1315 H   0  0  0  0  0  0  0  0  0  0  0  0
   57.3316   24.4037   47.2164 H   0  0  0  0  0  0  0  0  0  0  0  0
   56.0451   25.2250   48.1292 H   0  0  0  0  0  0  0  0  0  0  0  0
   57.3558   24.0901   45.2594 H   0  0  0  0  0  0  0  0  0  0  0  0
   56.1351   24.6524   44.0933 H   0  0  0  0  0  0  0  0  0  0  0  0
   58.2638   25.9595   43.9794 H   0  0  0  0  0  0  0  0  0  0  0  0
   56.8280   26.9737   44.4453 H   0  0  0  0  0  0  0  0  0  0  0  0
   60.1791   32.5749   48.1605 H   0  0  0  0  0  0  0  0  0  0  0  0
   61.2024   31.6873   46.9807 H   0  0  0  0  0  0  0  0  0  0  0  0
   61.1837   33.4835   46.9807 H   0  0  0  0  0  0  0  0  0  0  0  0
  1  2  1  0
  2  3  1  0
  3  4  1  0
  4  5  1  0
  5  6  2  0
  6  7  1  0
  7  8  1  0
  8  9  2  0
  9 10  1  0
 10 11  1  0
 11 12  1  0
 12 13  1  0
 13 14  1  0
 14 15  1  0
 15 16  1  0
 16 17  1  0
 17 18  1  0
  8 19  1  0
 19 20  1  0
 20 21  1  0
 20  2  2  0
 19  4  2  0
 18 13  1  0
  1 22  1  0
  1 23  1  0
  1 24  1  0
  6 25  1  0
  7 26  1  0
 10 27  1  0
 10 28  1  0
 11 29  1  0
 11 30  1  0
 12 31  1  0
 12 32  1  0
 14 33  1  0
 14 34  1  0
 15 35  1  0
 15 36  1  0
 17 37  1  0
 17 38  1  0
 18 39  1  0
 18 40  1  0
 21 41  1  0
 21 42  1  0
 21 43  1  0
M  END
>  <smiles>  (20) 
Cc1sc2nc[nH]c(=NCCCN3CCOCC3)c2c1C

>  <score_type>  (20) 
oracle

>  <origin>  (20) 
adg

>  <m_score__min__energy>  (20) 
-7.1900000000000004

>  <m_primary>  (20) 
energy

$$$$
20:0
     RDKit          3D

 45 46  0  0  0  0  0  0  0  0999 V2000
   60.0550   29.8180   48.9700 C   0  0  0  0  0  0  0  0  0  0  0  0
   61.1120   30.0330   47.8800 C   0  0  0  0  0  0  0  0  0  0  0  0
   60.5010   30.3060   46.5490 N   0  0  0  0  0  0  0  0  0  0  0  0
   60.7700   29.1800   45.6140 C   0  0  0  0  0  0  0  0  0  0  0  0
   59.4930   28.6640   44.9390 C   0  0  0  0  0  0  0  0  0  0  0  0
   59.0350   30.5170   46.6940 C   0  0  0  0  0  0  0  0  0  0  0  0
   58.5840   31.8300   46.0770 C   0  0  0  0  0  0  0  0  0  0  0  0
   58.2160   31.8320   44.7190 C   0  0  0  0  0  0  0  0  0  0  0  0
   57.7290   32.9910   44.1130 C   0  0  0  0  0  0  0  0  0  0  0  0
   57.6020   34.1650   44.8530 C   0  0  0  0  0  0  0  0  0  0  0  0
   57.9670   34.1850   46.1990 C   0  0  0  0  0  0  0  0  0  0  0  0
   58.4630   33.0290   46.8270 C   0  0  0  0  0  0  0  0  0  0  0  0
   58.8650   33.0880   48.2060 N   0  0  0  0  0  0  0  0  0  0  0  0
   59.8450   34.0520   48.7060 C   0  0  0  0  0  0  0  0  0  0  0  0
   61.2170   33.7220   48.1850 C   0  0  0  0  0  0  0  0  0  0  0  0
   62.1620   33.1120   49.0280 C   0  0  0  0  0  0  0  0  0  0  0  0
   63.4370   32.7990   48.5470 C   0  0  0  0  0  0  0  0  0  0  0  0
   63.7790   33.0950   47.2250 C   0  0  0  0  0  0  0  0  0  0  0  0
   62.8480   33.7050   46.3820 C   0  0  0  0  0  0  0  0  0  0  0  0
   61.5710   34.0220   46.8580 C   0  0  0  0  0  0  0  0  0  0  0  0
   60.5246   29.9135   49.9601 H   0  0  0  0  0  0  0  0  0  0  0  0
   59.2621   30.5732   48.8659 H   0  0  0  0  0  0  0  0  0  0  0  0
   59.6201   28.8130   48.8659 H   0  0  0  0  0  0  0  0  0  0  0  0
   61.7429   30.8887   48.1623 H   0  0  0  0  0  0  0  0  0  0  0  0
   61.7036   29.1094   47.7967 H   0  0  0  0  0  0  0  0  0  0  0  0
   60.9290   31.1770   46.1520 H   0  0  0  0  0  0  0  0  0  0  0  0
   61.4663   29.5255   44.8357 H   0  0  0  0  0  0  0  0  0  0  0  0
   61.1984   28.3528   46.1990 H   0  0  0  0  0  0  0  0  0  0  0  0
   58.7646   28.3697   45.7089 H   0  0  0  0  0  0  0  0  0  0  0  0
   59.0628   29.4589   44.3120 H   0  0  0  0  0  0  0  0  0  0  0  0
   59.7358   27.7934   44.3120 H   0  0  0  0  0  0  0  0  0  0  0  0
   58.5065   29.6908   46.1959 H   0  0  0  0  0  0  0  0  0  0  0  0
   58.8015   30.5492   47.7685 H   0  0  0  0  0  0  0  0  0  0  0  0
   58.3133   30.9093   44.1281 H   0  0  0  0  0  0  0  0  0  0  0  0
   57.4452   32.9778   43.0503 H   0  0  0  0  0  0  0  0  0  0  0  0
   57.2136   35.0765   44.3752 H   0  0  0  0  0  0  0  0  0  0  0  0
   57.8656   35.1161   46.7759 H   0  0  0  0  0  0  0  0  0  0  0  0
   58.4780   32.3930   48.8830 H   0  0  0  0  0  0  0  0  0  0  0  0
   59.5635   35.0616   48.3721 H   0  0  0  0  0  0  0  0  0  0  0  0
   59.8603   34.0083   49.8050 H   0  0  0  0  0  0  0  0  0  0  0  0
   61.8974   32.8800   50.0702 H   0  0  0  0  0  0  0  0  0  0  0  0
   64.1718   32.3191   49.2102 H   0  0  0  0  0  0  0  0  0  0  0  0
   64.7823   32.8473   46.8481 H   0  0  0  0  0  0  0  0  0  0  0  0
   63.1190   33.9369   45.3414 H   0  0  0  0  0  0  0  0  0  0  0  0
   60.8422   34.5072   46.1921 H   0  0  0  0  0  0  0  0  0  0  0  0
  1  2  1  0
  2  3  1  0
  3  4  1  0
  4  5  1  0
  3  6  1  0
  6  7  1  0
  7  8  2  0
  8  9  1  0
  9 10  2  0
 10 11  1  0
 11 12  2  0
 12 13  1  0
 13 14  1  0
 14 15  1  0
 15 16  2  0
 16 17  1  0
 17 18  2  0
 18 19  1  0
 19 20  2  0
 12  7  1  0
 20 15  1  0
  1 21  1  0
  1 22  1  0
  1 23  1  0
  2 24  1  0
  2 25  1  0
  3 26  1  0
  4 27  1  0
  4 28  1  0
  5 29  1  0
  5 30  1  0
  5 31  1  0
  6 32  1  0
  6 33  1  0
  8 34  1  0
  9 35  1  0
 10 36  1  0
 11 37  1  0
 13 38  1  0
 14 39  1  0
 14 40  1  0
 16 41  1  0
 17 42  1  0
 18 43  1  0
 19 44  1  0
 20 45  1  0
M  CHG  1   3   1
M  END
>  <UniqueID>  (21) 
20

>  <SMILES>  (21) 
CC[NH+](CC)Cc1ccccc1NCc1ccccc1

>  <Energy>  (21) 
49.994927188680165

>  <Genealogy>  (21) 
CC[NH+](CC)Cc1ccccc1NCc1ccccc1 (protonated)
CC[NH+](CC)Cc1ccccc1NCc1ccccc1 (3D coordinates assigned)
CC[NH+](CC)Cc1ccccc1NCc1ccccc1 (optimized conformer: 49.994927188680165 kcal/mol)

>  <smiles>  (21) 
CCN(CC)Cc1ccccc1NCc1ccccc1

>  <score_type>  (21) 
oracle

>  <origin>  (21) 
adg

>  <m_score__min__energy>  (21) 
-5.0300000000000002

>  <m_primary>  (21) 
energy

$$$$
21:0
     RDKit          3D

 37 38  0  0  0  0  0  0  0  0999 V2000
   57.3760   32.3580   40.6110 C   0  0  0  0  0  0  0  0  0  0  0  0
   57.1220   31.5900   41.9030 C   0  0  0  0  0  0  0  0  0  0  0  0
   57.8290   32.2120   43.0200 N   0  0  0  0  0  0  0  0  0  0  0  0
   57.4490   31.9980   44.3890 C   0  0  0  0  0  0  0  0  0  0  0  0
   56.5620   31.1450   44.6670 O   0  0  0  0  0  0  0  0  0  0  0  0
   58.0970   32.7160   45.4540 N   0  0  0  0  0  0  0  0  0  0  0  0
   58.3170   32.0380   46.7410 C   0  0  0  0  0  0  0  0  0  0  0  0
   59.0130   32.9560   47.7550 C   0  0  0  0  0  0  0  0  0  0  0  0
   60.1100   33.6870   47.1050 N   0  0  0  0  0  0  0  0  0  0  0  0
   61.4350   33.6450   47.6570 C   0  0  0  0  0  0  0  0  0  0  0  0
   62.4870   33.3810   46.8330 N   0  0  0  0  0  0  0  0  0  0  0  0
   63.7620   33.2880   47.2920 C   0  0  0  0  0  0  0  0  0  0  0  0
   64.0280   33.4590   48.6490 C   0  0  0  0  0  0  0  0  0  0  0  0
   62.9770   33.7430   49.5210 C   0  0  0  0  0  0  0  0  0  0  0  0
   61.6680   33.8520   49.0350 C   0  0  0  0  0  0  0  0  0  0  0  0
   60.6110   34.2170   49.9300 N   0  0  0  0  0  0  0  0  0  0  0  0
   59.9030   34.3350   45.8010 C   0  0  0  0  0  0  0  0  0  0  0  0
   58.4710   34.1300   45.3030 C   0  0  0  0  0  0  0  0  0  0  0  0
   57.7131   33.3773   40.8506 H   0  0  0  0  0  0  0  0  0  0  0  0
   58.1518   31.8434   40.0250 H   0  0  0  0  0  0  0  0  0  0  0  0
   56.4464   32.4075   40.0250 H   0  0  0  0  0  0  0  0  0  0  0  0
   56.0427   31.5871   42.1153 H   0  0  0  0  0  0  0  0  0  0  0  0
   57.4893   30.5604   41.7808 H   0  0  0  0  0  0  0  0  0  0  0  0
   58.6610   32.8040   42.8010 H   0  0  0  0  0  0  0  0  0  0  0  0
   57.3447   31.7268   47.1507 H   0  0  0  0  0  0  0  0  0  0  0  0
   58.9668   31.1684   46.5636 H   0  0  0  0  0  0  0  0  0  0  0  0
   58.2833   33.6754   48.1552 H   0  0  0  0  0  0  0  0  0  0  0  0
   59.4226   32.3443   48.5724 H   0  0  0  0  0  0  0  0  0  0  0  0
   64.5845   33.0777   46.5925 H   0  0  0  0  0  0  0  0  0  0  0  0
   65.0566   33.3709   49.0288 H   0  0  0  0  0  0  0  0  0  0  0  0
   63.1769   33.8818   50.5937 H   0  0  0  0  0  0  0  0  0  0  0  0
   59.9130   34.9510   49.6830 H   0  0  0  0  0  0  0  0  0  0  0  0
   60.5690   33.8140   50.8930 H   0  0  0  0  0  0  0  0  0  0  0  0
   60.0973   35.4131   45.9011 H   0  0  0  0  0  0  0  0  0  0  0  0
   60.5931   33.8827   45.0736 H   0  0  0  0  0  0  0  0  0  0  0  0
   57.7847   34.7557   45.8925 H   0  0  0  0  0  0  0  0  0  0  0  0
   58.4075   34.4147   44.2424 H   0  0  0  0  0  0  0  0  0  0  0  0
  1  2  1  0
  2  3  1  0
  3  4  1  0
  4  5  2  0
  4  6  1  0
  6  7  1  0
  7  8  1  0
  8  9  1  0
  9 10  1  0
 10 11  2  0
 11 12  1  0
 12 13  2  0
 13 14  1  0
 14 15  2  0
 15 16  1  0
  9 17  1  0
 17 18  1  0
 18  6  1  0
 15 10  1  0
  1 19  1  0
  1 20  1  0
  1 21  1  0
  2 22  1  0
  2 23  1  0
  3 24  1  0
  7 25  1  0
  7 26  1  0
  8 27  1  0
  8 28  1  0
 12 29  1  0
 13 30  1  0
 14 31  1  0
 16 32  1  0
 16 33  1  0
 17 34  1  0
 17 35  1  0
 18 36  1  0
 18 37  1  0
M  END
>  <UniqueID>  (22) 
21

>  <SMILES>  (22) 
CCNC(=O)N1CCN(c2ncccc2N)CC1

>  <Energy>  (22) 
39.465525446131835

>  <Genealogy>  (22) 
CCNC(=O)N1CCN(c2ncccc2N)CC1 (3D coordinates assigned)
CCNC(=O)N1CCN(c2ncccc2N)CC1 (nonaromatic ring conformer: 39.465525446131835 kcal/mol)

>  <smiles>  (22) 
CCNC(=O)N1CCN(c2ncccc2N)CC1

>  <score_type>  (22) 
oracle

>  <origin>  (22) 
adg

>  <m_score__min__energy>  (22) 
-6.4500000000000002

>  <m_primary>  (22) 
energy

$$$$
22:0
     RDKit          3D

 45 47  0  0  0  0  0  0  0  0999 V2000
   59.1290   30.1780   49.4110 C   0  0  0  0  0  0  0  0  0  0  0  0
   59.8300   31.0240   48.4330 N   0  0  0  0  0  0  0  0  0  0  0  0
   58.9490   32.1040   47.9600 C   0  0  0  0  0  0  0  0  0  0  0  0
   60.2890   30.2140   47.3220 C   0  0  0  0  0  0  0  0  0  0  0  0
   61.3970   30.4770   46.7730 O   0  0  0  0  0  0  0  0  0  0  0  0
   59.4720   29.0960   46.7790 C   0  0  0  0  0  0  0  0  0  0  0  0
   59.9540   27.7770   46.7520 C   0  0  0  0  0  0  0  0  0  0  0  0
   59.1690   26.7450   46.2380 C   0  0  0  0  0  0  0  0  0  0  0  0
   57.8760   26.9990   45.7560 C   0  0  0  0  0  0  0  0  0  0  0  0
   57.0740   25.9150   45.2530 N   0  0  0  0  0  0  0  0  0  0  0  0
   57.4270   25.1400   44.0750 C   0  0  0  0  0  0  0  0  0  0  0  0
   56.3140   24.1130   43.9180 C   0  0  0  0  0  0  0  0  0  0  0  0
   55.6360   24.0330   45.2820 C   0  0  0  0  0  0  0  0  0  0  0  0
   55.9420   25.3540   45.9730 C   0  0  0  0  0  0  0  0  0  0  0  0
   57.3700   28.3140   45.8000 C   0  0  0  0  0  0  0  0  0  0  0  0
   56.0800   28.6010   45.2400 N   0  0  0  0  0  0  0  0  0  0  0  0
   55.7930   29.5990   44.2520 C   0  0  0  0  0  0  0  0  0  0  0  0
   54.7520   29.4810   43.5540 O   0  0  0  0  0  0  0  0  0  0  0  0
   56.6470   30.7890   44.0850 C   0  0  0  0  0  0  0  0  0  0  0  0
   57.2740   31.1760   42.9160 C   0  0  0  0  0  0  0  0  0  0  0  0
   57.9470   32.3390   43.2220 C   0  0  0  0  0  0  0  0  0  0  0  0
   57.6880   32.5920   44.5540 C   0  0  0  0  0  0  0  0  0  0  0  0
   56.9090   31.6540   45.0380 O   0  0  0  0  0  0  0  0  0  0  0  0
   58.1780   29.3530   46.2950 C   0  0  0  0  0  0  0  0  0  0  0  0
   59.3942   30.4981   50.4294 H   0  0  0  0  0  0  0  0  0  0  0  0
   58.0427   30.2747   49.2675 H   0  0  0  0  0  0  0  0  0  0  0  0
   59.4259   29.1286   49.2675 H   0  0  0  0  0  0  0  0  0  0  0  0
   60.6420   31.4830   48.9060 H   0  0  0  0  0  0  0  0  0  0  0  0
   58.5189   32.6313   48.8242 H   0  0  0  0  0  0  0  0  0  0  0  0
   59.5308   32.8116   47.3511 H   0  0  0  0  0  0  0  0  0  0  0  0
   58.1389   31.6762   47.3511 H   0  0  0  0  0  0  0  0  0  0  0  0
   60.9594   27.5560   47.1396 H   0  0  0  0  0  0  0  0  0  0  0  0
   59.5681   25.7203   46.2102 H   0  0  0  0  0  0  0  0  0  0  0  0
   57.4793   25.7893   43.1886 H   0  0  0  0  0  0  0  0  0  0  0  0
   58.4124   24.6624   44.1798 H   0  0  0  0  0  0  0  0  0  0  0  0
   55.5962   24.4386   43.1507 H   0  0  0  0  0  0  0  0  0  0  0  0
   56.7038   23.1352   43.5987 H   0  0  0  0  0  0  0  0  0  0  0  0
   54.5499   23.9049   45.1634 H   0  0  0  0  0  0  0  0  0  0  0  0
   56.0005   23.1754   45.8665 H   0  0  0  0  0  0  0  0  0  0  0  0
   55.0755   26.0290   45.9133 H   0  0  0  0  0  0  0  0  0  0  0  0
   56.1658   25.2141   47.0409 H   0  0  0  0  0  0  0  0  0  0  0  0
   57.2425   30.6627   41.9436 H   0  0  0  0  0  0  0  0  0  0  0  0
   58.5655   32.9435   42.5422 H   0  0  0  0  0  0  0  0  0  0  0  0
   58.0758   33.4497   45.1231 H   0  0  0  0  0  0  0  0  0  0  0  0
   57.7912   30.3827   46.3035 H   0  0  0  0  0  0  0  0  0  0  0  0
  1  2  1  0
  2  3  1  0
  2  4  1  0
  4  5  2  0
  4  6  1  0
  6  7  2  0
  7  8  1  0
  8  9  2  0
  9 10  1  0
 10 11  1  0
 11 12  1  0
 12 13  1  0
 13 14  1  0
  9 15  1  0
 15 16  1  0
 16 17  1  0
 17 18  2  0
 17 19  1  0
 19 20  2  0
 20 21  1  0
 21 22  2  0
 22 23  1  0
 15 24  2  0
 24  6  1  0
 14 10  1  0
 23 19  1  0
  1 25  1  0
  1 26  1  0
  1 27  1  0
  2 28  1  0
  3 29  1  0
  3 30  1  0
  3 31  1  0
  7 32  1  0
  8 33  1  0
 11 34  1  0
 11 35  1  0
 12 36  1  0
 12 37  1  0
 13 38  1  0
 13 39  1  0
 14 40  1  0
 14 41  1  0
 20 42  1  0
 21 43  1  0
 22 44  1  0
 24 45  1  0
M  CHG  2   2   1  16  -1
M  END
>  <UniqueID>  (23) 
22

>  <SMILES>  (23) 
C[NH+](C)C(=O)c1ccc(N2CCCC2)c([N-]C(=O)c2ccco2)c1

>  <Energy>  (23) 
84.1900065385148

>  <Genealogy>  (23) 
C[NH+](C)C(=O)c1ccc(N2CCCC2)c([N-]C(=O)c2ccco2)c1 (protonated)
C[NH+](C)C(=O)c1ccc(N2CCCC2)c([N-]C(=O)c2ccco2)c1 (3D coordinates assigned)
C[NH+](C)C(=O)c1ccc(N2CCCC2)c([N-]C(=O)c2ccco2)c1 (nonaromatic ring conformer: 84.1900065385148 kcal/mol)

>  <smiles>  (23) 
CN(C)C(=O)c1ccc(N2CCCC2)c(NC(=O)c2ccco2)c1

>  <score_type>  (23) 
oracle

>  <origin>  (23) 
adg

>  <m_score__min__energy>  (23) 
-7.2199999999999998

>  <m_primary>  (23) 
energy

$$$$
23:0
     RDKit          3D

 49 51  0  0  0  0  0  0  0  0999 V2000
   60.7030   34.1870   49.4870 C   0  0  0  0  0  0  0  0  0  0  0  0
   62.1640   34.2250   49.0450 C   0  0  0  0  0  0  0  0  0  0  0  0
   62.7610   32.8720   49.1310 N   0  0  0  0  0  0  0  0  0  0  0  0
   63.7200   32.7830   50.2570 C   0  0  0  0  0  0  0  0  0  0  0  0
   65.1510   32.7380   49.7290 C   0  0  0  0  0  0  0  0  0  0  0  0
   63.4040   32.4900   47.8530 C   0  0  0  0  0  0  0  0  0  0  0  0
   62.5460   31.4520   47.1220 C   0  0  0  0  0  0  0  0  0  0  0  0
   61.1650   31.4910   47.6010 N   0  0  0  0  0  0  0  0  0  0  0  0
   60.0530   31.2860   46.7140 C   0  0  0  0  0  0  0  0  0  0  0  0
   59.4470   32.3840   46.0800 C   0  0  0  0  0  0  0  0  0  0  0  0
   59.8560   33.7020   46.3710 C   0  0  0  0  0  0  0  0  0  0  0  0
   59.2290   34.7900   45.7680 C   0  0  0  0  0  0  0  0  0  0  0  0
   58.1820   34.5840   44.8780 C   0  0  0  0  0  0  0  0  0  0  0  0
   57.7700   33.2890   44.5650 C   0  0  0  0  0  0  0  0  0  0  0  0
   58.4130   32.1590   45.1310 C   0  0  0  0  0  0  0  0  0  0  0  0
   58.0520   30.8690   44.7910 N   0  0  0  0  0  0  0  0  0  0  0  0
   57.2000   30.6250   43.6060 C   0  0  0  0  0  0  0  0  0  0  0  0
   58.5030   29.8030   45.5500 C   0  0  0  0  0  0  0  0  0  0  0  0
   57.9460   28.5050   45.4190 C   0  0  0  0  0  0  0  0  0  0  0  0
   58.4270   27.4360   46.1740 C   0  0  0  0  0  0  0  0  0  0  0  0
   59.4530   27.6320   47.0900 C   0  0  0  0  0  0  0  0  0  0  0  0
   59.9960   28.9020   47.2690 C   0  0  0  0  0  0  0  0  0  0  0  0
   59.5330   29.9970   46.5090 C   0  0  0  0  0  0  0  0  0  0  0  0
   60.6523   34.1857   50.5858 H   0  0  0  0  0  0  0  0  0  0  0  0
   60.1787   35.0718   49.0968 H   0  0  0  0  0  0  0  0  0  0  0  0
   60.2254   33.2761   49.0968 H   0  0  0  0  0  0  0  0  0  0  0  0
   62.2198   34.5812   48.0058 H   0  0  0  0  0  0  0  0  0  0  0  0
   62.7209   34.9052   49.7062 H   0  0  0  0  0  0  0  0  0  0  0  0
   63.6000   33.6625   50.9067 H   0  0  0  0  0  0  0  0  0  0  0  0
   63.5191   31.8642   50.8274 H   0  0  0  0  0  0  0  0  0  0  0  0
   65.8535   32.7159   50.5752 H   0  0  0  0  0  0  0  0  0  0  0  0
   65.2873   31.8351   49.1156 H   0  0  0  0  0  0  0  0  0  0  0  0
   65.3437   33.6305   49.1156 H   0  0  0  0  0  0  0  0  0  0  0  0
   63.5135   33.3827   47.2197 H   0  0  0  0  0  0  0  0  0  0  0  0
   64.3930   32.0565   48.0628 H   0  0  0  0  0  0  0  0  0  0  0  0
   62.5600   31.6674   46.0434 H   0  0  0  0  0  0  0  0  0  0  0  0
   62.9593   30.4515   47.3176 H   0  0  0  0  0  0  0  0  0  0  0  0
   60.9780   31.7370   48.5990 H   0  0  0  0  0  0  0  0  0  0  0  0
   60.6784   33.8725   47.0813 H   0  0  0  0  0  0  0  0  0  0  0  0
   59.5629   35.8129   45.9965 H   0  0  0  0  0  0  0  0  0  0  0  0
   57.6761   35.4459   44.4185 H   0  0  0  0  0  0  0  0  0  0  0  0
   56.9323   33.1417   43.8675 H   0  0  0  0  0  0  0  0  0  0  0  0
   56.1905   30.3359   43.9335 H   0  0  0  0  0  0  0  0  0  0  0  0
   57.1408   31.5423   43.0018 H   0  0  0  0  0  0  0  0  0  0  0  0
   57.6354   29.8154   43.0018 H   0  0  0  0  0  0  0  0  0  0  0  0
   57.1212   28.3391   44.7103 H   0  0  0  0  0  0  0  0  0  0  0  0
   57.9925   26.4338   46.0439 H   0  0  0  0  0  0  0  0  0  0  0  0
   59.8370   26.7830   47.6746 H   0  0  0  0  0  0  0  0  0  0  0  0
   60.7942   29.0530   48.0107 H   0  0  0  0  0  0  0  0  0  0  0  0
  1  2  1  0
  2  3  1  0
  3  4  1  0
  4  5  1  0
  3  6  1  0
  6  7  1  0
  7  8  1  0
  8  9  1  0
  9 10  2  0
 10 11  1  0
 11 12  2  0
 12 13  1  0
 13 14  2  0
 14 15  1  0
 15 16  2  0
 16 17  1  0
 16 18  1  0
 18 19  2  0
 19 20  1  0
 20 21  2  0
 21 22  1  0
 22 23  2  0
 23  9  1  0
 15 10  1  0
 23 18  1  0
  1 24  1  0
  1 25  1  0
  1 26  1  0
  2 27  1  0
  2 28  1  0
  4 29  1  0
  4 30  1  0
  5 31  1  0
  5 32  1  0
  5 33  1  0
  6 34  1  0
  6 35  1  0
  7 36  1  0
  7 37  1  0
  8 38  1  0
 11 39  1  0
 12 40  1  0
 13 41  1  0
 14 42  1  0
 17 43  1  0
 17 44  1  0
 17 45  1  0
 19 46  1  0
 20 47  1  0
 21 48  1  0
 22 49  1  0
M  CHG  1  16   1
M  END
>  <UniqueID>  (24) 
23

>  <SMILES>  (24) 
CCN(CC)CCNc1c2ccccc2[n+](C)c2ccccc12

>  <Energy>  (24) 
73.08220064580743

>  <Genealogy>  (24) 
CCN(CC)CCNc1c2ccccc2[n+](C)c2ccccc12 (3D coordinates assigned)
CCN(CC)CCNc1c2ccccc2[n+](C)c2ccccc12 (optimized conformer: 73.08220064580743 kcal/mol)

>  <smiles>  (24) 
CCN(CC)CCNc1c2ccccc2[n+](C)c2ccccc12

>  <score_type>  (24) 
oracle

>  <origin>  (24) 
adg

>  <m_score__min__energy>  (24) 
-5.3300000000000001

>  <m_primary>  (24) 
energy

$$$$
24:0
     RDKit          3D

 33 35  0  0  1  0  0  0  0  0999 V2000
   59.6670   22.1250   44.8010 C   0  0  0  0  0  0  0  0  0  0  0  0
   59.7290   23.1430   45.7500 O   0  0  0  0  0  0  0  0  0  0  0  0
   59.1780   24.4050   45.6230 C   0  0  0  0  0  0  0  0  0  0  0  0
   58.0260   24.5350   44.8570 C   0  0  0  0  0  0  0  0  0  0  0  0
   57.4090   25.7620   44.6780 C   0  0  0  0  0  0  0  0  0  0  0  0
   57.9350   26.8800   45.2620 C   0  0  0  0  0  0  0  0  0  0  0  0
   57.2920   28.1510   45.0740 C   0  0  0  0  0  0  0  0  0  0  0  0
   56.1840   28.5940   45.0320 N   0  0  0  0  0  0  0  0  0  0  0  0
   55.7770   29.8010   44.8480 N   0  0  0  0  0  0  0  0  0  0  0  0
   56.7300   30.7190   44.6750 C   0  0  0  0  0  0  0  0  0  0  0  0
   56.7210   31.9680   44.4750 N   0  0  0  0  0  0  0  0  0  0  0  0
   57.6470   32.8390   45.1720 C   0  0  0  0  0  0  0  0  0  0  0  0
   58.3910   33.7820   44.4960 C   0  0  0  0  0  0  0  0  0  0  0  0
   59.2670   34.5960   45.2050 C   0  0  0  0  0  0  0  0  0  0  0  0
   59.3960   34.4660   46.5870 C   0  0  0  0  0  0  0  0  0  0  0  0
   58.6350   33.5060   47.2550 C   0  0  0  0  0  0  0  0  0  0  0  0
   57.7670   32.7010   46.5390 C   0  0  0  0  0  0  0  0  0  0  0  0
   58.2960   29.7180   44.7960 S   0  0  0  0  0  0  0  0  0  0  0  0
   59.0690   26.7490   46.0160 C   0  0  0  0  0  0  0  0  0  0  0  0
   59.6970   25.5360   46.2060 C   0  0  0  0  0  0  0  0  0  0  0  0
   59.6077   21.1519   45.3105 H   0  0  0  0  0  0  0  0  0  0  0  0
   58.7757   22.2642   44.1716 H   0  0  0  0  0  0  0  0  0  0  0  0
   60.5686   22.1550   44.1716 H   0  0  0  0  0  0  0  0  0  0  0  0
   57.5938   23.6422   44.3815 H   0  0  0  0  0  0  0  0  0  0  0  0
   56.4974   25.8365   44.0670 H   0  0  0  0  0  0  0  0  0  0  0  0
   54.7470   30.0950   44.8270 H   0  0  0  0  0  0  0  0  0  0  0  0
   58.2925   33.8895   43.4057 H   0  0  0  0  0  0  0  0  0  0  0  0
   59.8639   35.3497   44.6705 H   0  0  0  0  0  0  0  0  0  0  0  0
   60.0896   35.1127   47.1444 H   0  0  0  0  0  0  0  0  0  0  0  0
   58.7247   33.3898   48.3452 H   0  0  0  0  0  0  0  0  0  0  0  0
   57.1670   31.9438   47.0649 H   0  0  0  0  0  0  0  0  0  0  0  0
   59.4963   27.6456   46.4888 H   0  0  0  0  0  0  0  0  0  0  0  0
   60.6074   25.4742   46.8202 H   0  0  0  0  0  0  0  0  0  0  0  0
  1  2  1  0
  2  3  1  0
  3  4  2  0
  4  5  1  0
  5  6  2  0
  6  7  1  0
  7  8  2  0
  8  9  1  0
  9 10  1  0
 10 11  2  0
 11 12  1  0
 12 13  2  0
 13 14  1  0
 14 15  2  0
 15 16  1  0
 16 17  2  0
 10 18  1  0
  6 19  1  0
 19 20  2  0
 20  3  1  0
 18  7  1  0
 17 12  1  0
  1 21  1  0
  1 22  1  0
  1 23  1  0
  4 24  1  0
  5 25  1  0
  9 26  1  0
 13 27  1  0
 14 28  1  0
 15 29  1  0
 16 30  1  0
 17 31  1  0
 19 32  1  0
 20 33  1  0
M  END
>  <smiles>  (25) 
COc1ccc(-c2n[nH]c(=Nc3ccccc3)s2)cc1

>  <score_type>  (25) 
oracle

>  <origin>  (25) 
adg

>  <m_score__min__energy>  (25) 
-7.04

>  <m_primary>  (25) 
energy

$$$$
25:0
     RDKit          3D

 55 58  0  0  0  0  0  0  0  0999 V2000
   63.3920   32.0680   51.3770 C   0  0  0  0  0  0  0  0  0  0  0  0
   63.1220   32.0750   49.9070 C   0  0  0  0  0  0  0  0  0  0  0  0
   61.9890   31.7010   49.3260 C   0  0  0  0  0  0  0  0  0  0  0  0
   62.0470   31.9530   47.8380 C   0  0  1  0  0  0  0  0  0  0  0  0
   61.9620   30.6610   47.0900 C   0  0  0  0  0  0  0  0  0  0  0  0
   60.8430   30.2670   46.4760 C   0  0  0  0  0  0  0  0  0  0  0  0
   59.5590   31.0960   46.4300 C   0  0  1  0  0  0  0  0  0  0  0  0
   58.5940   30.4850   47.4760 C   0  0  0  0  0  0  0  0  0  0  0  0
   59.8090   32.5530   46.8660 C   0  0  0  0  0  0  0  0  0  0  0  0
   60.9790   32.9310   47.4380 C   0  0  0  0  0  0  0  0  0  0  0  0
   58.6650   33.5510   46.6430 C   0  0  1  0  0  0  0  0  0  0  0  0
   58.8470   34.9200   47.3410 C   0  0  0  0  0  0  0  0  0  0  0  0
   58.3500   33.6430   45.1210 C   0  0  0  0  0  0  0  0  0  0  0  0
   57.1370   34.5720   44.8550 C   0  0  0  0  0  0  0  0  0  0  0  0
   59.5620   34.2240   44.3420 C   0  0  0  0  0  0  0  0  0  0  0  0
   58.0360   32.2130   44.5630 C   0  0  2  0  0  0  0  0  0  0  0  0
   56.6440   31.6230   44.8720 C   0  0  0  0  0  0  0  0  0  0  0  0
   56.8020   30.0930   44.7590 C   0  0  1  0  0  0  0  0  0  0  0  0
   55.9200   29.5390   43.8120 O   0  0  0  0  0  0  0  0  0  0  0  0
   58.2720   29.8580   44.3750 C   0  0  2  0  0  0  0  0  0  0  0  0
   58.7890   28.4410   44.6510 C   0  0  0  0  0  0  0  0  0  0  0  0
   59.0440   31.0920   44.9180 C   0  0  2  0  0  0  0  0  0  0  0  0
   63.3340   32.5380   47.6520 O   0  0  0  0  0  0  0  0  0  0  0  0
   63.9710   32.6190   48.8750 C   0  0  0  0  0  0  0  0  0  0  0  0
   65.1200   33.1060   49.0440 O   0  0  0  0  0  0  0  0  0  0  0  0
   62.4386   32.0927   51.9250 H   0  0  0  0  0  0  0  0  0  0  0  0
   63.9448   31.1552   51.6439 H   0  0  0  0  0  0  0  0  0  0  0  0
   63.9914   32.9509   51.6439 H   0  0  0  0  0  0  0  0  0  0  0  0
   61.1273   31.2676   49.8548 H   0  0  0  0  0  0  0  0  0  0  0  0
   62.8502   30.0137   47.0438 H   0  0  0  0  0  0  0  0  0  0  0  0
   60.8454   29.2883   45.9738 H   0  0  0  0  0  0  0  0  0  0  0  0
   58.9573   30.7150   48.4885 H   0  0  0  0  0  0  0  0  0  0  0  0
   57.5892   30.9118   47.3412 H   0  0  0  0  0  0  0  0  0  0  0  0
   58.5501   29.3942   47.3412 H   0  0  0  0  0  0  0  0  0  0  0  0
   61.1540   34.0021   47.6172 H   0  0  0  0  0  0  0  0  0  0  0  0
   57.7756   33.1562   47.1559 H   0  0  0  0  0  0  0  0  0  0  0  0
   58.8285   34.7807   48.4320 H   0  0  0  0  0  0  0  0  0  0  0  0
   59.8113   35.3579   47.0436 H   0  0  0  0  0  0  0  0  0  0  0  0
   58.0306   35.5946   47.0436 H   0  0  0  0  0  0  0  0  0  0  0  0
   56.7090   34.8998   45.8138 H   0  0  0  0  0  0  0  0  0  0  0  0
   57.4669   35.4506   44.2812 H   0  0  0  0  0  0  0  0  0  0  0  0
   56.3747   34.0245   44.2812 H   0  0  0  0  0  0  0  0  0  0  0  0
   60.3170   34.5859   45.0554 H   0  0  0  0  0  0  0  0  0  0  0  0
   60.0018   33.4388   43.7095 H   0  0  0  0  0  0  0  0  0  0  0  0
   59.2254   35.0586   43.7095 H   0  0  0  0  0  0  0  0  0  0  0  0
   58.1050   32.4755   43.4970 H   0  0  0  0  0  0  0  0  0  0  0  0
   56.3268   31.9014   45.8878 H   0  0  0  0  0  0  0  0  0  0  0  0
   55.8798   32.0036   44.1784 H   0  0  0  0  0  0  0  0  0  0  0  0
   56.5485   29.5956   45.7068 H   0  0  0  0  0  0  0  0  0  0  0  0
   56.2410   28.6280   43.5880 H   0  0  0  0  0  0  0  0  0  0  0  0
   58.4422   29.8258   43.2887 H   0  0  0  0  0  0  0  0  0  0  0  0
   58.8486   28.2775   45.7372 H   0  0  0  0  0  0  0  0  0  0  0  0
   58.1009   27.7066   44.2069 H   0  0  0  0  0  0  0  0  0  0  0  0
   59.7884   28.3223   44.2069 H   0  0  0  0  0  0  0  0  0  0  0  0
   60.0459   31.1745   44.4714 H   0  0  0  0  0  0  0  0  0  0  0  0
  1  2  1  0
  2  3  2  0
  3  4  1  0
  4  5  1  0
  5  6  2  0
  6  7  1  0
  7  8  1  1
  7  9  1  0
  9 10  2  0
  9 11  1  0
 11 12  1  0
 11 13  1  0
 13 14  1  0
 13 15  1  0
 13 16  1  0
 16 17  1  0
 17 18  1  0
 18 19  1  0
 18 20  1  0
 20 21  1  0
 20 22  1  0
  4 23  1  1
 23 24  1  0
 24 25  2  0
 24  2  1  0
 10  4  1  0
 22 16  1  0
 22  7  1  0
  1 26  1  0
  1 27  1  0
  1 28  1  0
  3 29  1  0
  5 30  1  0
  6 31  1  0
  8 32  1  0
  8 33  1  0
  8 34  1  0
 10 35  1  0
 11 36  1  1
 12 37  1  0
 12 38  1  0
 12 39  1  0
 14 40  1  0
 14 41  1  0
 14 42  1  0
 15 43  1  0
 15 44  1  0
 15 45  1  0
 16 46  1  6
 17 47  1  0
 17 48  1  0
 18 49  1  1
 19 50  1  0
 20 51  1  6
 21 52  1  0
 21 53  1  0
 21 54  1  0
 22 55  1  6
M  END
>  <UniqueID>  (26) 
24

>  <SMILES>  (26) 
CC1=C[C@]2(C=C[C@@]3(C)C(=C2)C(C)C(C)(C)C2CC(O)C(C)C23)OC1=O

>  <Energy>  (26) 
103.51099869297137

>  <Genealogy>  (26) 
CC1=C[C@]2(C=C[C@@]3(C)C(=C2)C(C)C(C)(C)C2CC(O)C(C)C23)OC1=O (chirality)
CC1=C[C@]2(C=C[C@@]3(C)C(=C2)C(C)C(C)(C)C2CC(O)C(C)C23)OC1=O (3D coordinates assigned)
CC1=C[C@]2(C=C[C@@]3(C)C(=C2)C(C)C(C)(C)C2CC(O)C(C)C23)OC1=O (nonaromatic ring conformer: 103.51099869297137 kcal/mol)

>  <smiles>  (26) 
CC1=CC2(C=CC3(C)C(=C2)C(C)C(C)(C)C2CC(O)C(C)C23)OC1=O

>  <score_type>  (26) 
oracle

>  <origin>  (26) 
adg

>  <m_score__min__energy>  (26) 
-8.7400000000000002

>  <m_primary>  (26) 
energy

$$$$
26:0
     RDKit          3D

 58 61  0  0  0  0  0  0  0  0999 V2000
   56.8370   31.4470   45.0060 O   0  0  0  0  0  0  0  0  0  0  0  0
   57.9570   30.9370   45.2780 C   0  0  0  0  0  0  0  0  0  0  0  0
   58.5790   29.9960   44.2920 C   0  0  0  0  0  0  0  0  0  0  0  0
   59.4540   28.9280   44.9700 C   0  0  0  0  0  0  0  0  0  0  0  0
   58.6310   27.7910   45.5690 C   0  0  0  0  0  0  0  0  0  0  0  0
   59.2910   26.7120   46.1890 C   0  0  0  0  0  0  0  0  0  0  0  0
   58.5640   25.6500   46.7340 C   0  0  0  0  0  0  0  0  0  0  0  0
   57.1710   25.6470   46.6660 C   0  0  0  0  0  0  0  0  0  0  0  0
   56.5000   26.7050   46.0500 C   0  0  0  0  0  0  0  0  0  0  0  0
   55.1460   26.6980   45.9800 F   0  0  0  0  0  0  0  0  0  0  0  0
   57.2230   27.7700   45.5030 C   0  0  0  0  0  0  0  0  0  0  0  0
   60.4530   29.5470   45.9660 C   0  0  0  0  0  0  0  0  0  0  0  0
   59.8330   30.5660   46.8800 C   0  0  0  0  0  0  0  0  0  0  0  0
   60.3940   30.8070   47.9830 O   0  0  0  0  0  0  0  0  0  0  0  0
   58.6510   31.2970   46.4910 N   0  0  0  0  0  0  0  0  0  0  0  0
   58.1690   32.4090   47.3280 C   0  0  0  0  0  0  0  0  0  0  0  0
   58.5870   33.7690   46.7470 C   0  0  0  0  0  0  0  0  0  0  0  0
   59.9420   33.7280   46.0160 C   0  0  0  0  0  0  0  0  0  0  0  0
   61.0280   34.3290   46.8220 N   0  0  0  0  0  0  0  0  0  0  0  0
   60.7810   34.1730   48.2810 C   0  0  0  0  0  0  0  0  0  0  0  0
   62.0730   34.1570   49.1060 C   0  0  0  0  0  0  0  0  0  0  0  0
   62.9520   33.0800   48.6340 N   0  0  0  0  0  0  0  0  0  0  0  0
   63.8720   32.4280   49.5390 C   0  0  0  0  0  0  0  0  0  0  0  0
   65.2080   32.8620   49.6410 C   0  0  0  0  0  0  0  0  0  0  0  0
   66.0940   32.2290   50.5170 C   0  0  0  0  0  0  0  0  0  0  0  0
   65.6610   31.1570   51.3000 C   0  0  0  0  0  0  0  0  0  0  0  0
   66.5220   30.5430   52.1480 F   0  0  0  0  0  0  0  0  0  0  0  0
   64.3390   30.7140   51.2050 C   0  0  0  0  0  0  0  0  0  0  0  0
   63.4490   31.3430   50.3310 C   0  0  0  0  0  0  0  0  0  0  0  0
   62.9020   32.6980   47.2180 C   0  0  0  0  0  0  0  0  0  0  0  0
   62.3630   33.8590   46.3740 C   0  0  0  0  0  0  0  0  0  0  0  0
   57.7780   29.4921   43.7312 H   0  0  0  0  0  0  0  0  0  0  0  0
   59.2267   30.5871   43.6278 H   0  0  0  0  0  0  0  0  0  0  0  0
   60.0616   28.4639   44.1792 H   0  0  0  0  0  0  0  0  0  0  0  0
   60.3896   26.7052   46.2448 H   0  0  0  0  0  0  0  0  0  0  0  0
   59.0917   24.8147   47.2176 H   0  0  0  0  0  0  0  0  0  0  0  0
   56.6010   24.8111   47.0977 H   0  0  0  0  0  0  0  0  0  0  0  0
   56.6879   28.5990   45.0167 H   0  0  0  0  0  0  0  0  0  0  0  0
   60.8772   28.7397   46.5810 H   0  0  0  0  0  0  0  0  0  0  0  0
   61.2206   30.0671   45.3741 H   0  0  0  0  0  0  0  0  0  0  0  0
   57.0713   32.3656   47.3837 H   0  0  0  0  0  0  0  0  0  0  0  0
   58.6144   32.3079   48.3287 H   0  0  0  0  0  0  0  0  0  0  0  0
   57.8155   34.0964   46.0345 H   0  0  0  0  0  0  0  0  0  0  0  0
   58.6931   34.4657   47.5916 H   0  0  0  0  0  0  0  0  0  0  0  0
   60.1978   32.6798   45.8017 H   0  0  0  0  0  0  0  0  0  0  0  0
   59.8447   34.3127   45.0893 H   0  0  0  0  0  0  0  0  0  0  0  0
   60.1565   35.0115   48.6230 H   0  0  0  0  0  0  0  0  0  0  0  0
   60.2821   33.2040   48.4298 H   0  0  0  0  0  0  0  0  0  0  0  0
   62.5880   35.1228   48.9966 H   0  0  0  0  0  0  0  0  0  0  0  0
   61.8258   33.9861   50.1641 H   0  0  0  0  0  0  0  0  0  0  0  0
   65.5566   33.7053   49.0267 H   0  0  0  0  0  0  0  0  0  0  0  0
   67.1352   32.5762   50.5899 H   0  0  0  0  0  0  0  0  0  0  0  0
   63.9984   29.8679   51.8199 H   0  0  0  0  0  0  0  0  0  0  0  0
   62.4102   30.9882   50.2609 H   0  0  0  0  0  0  0  0  0  0  0  0
   63.9149   32.4397   46.8755 H   0  0  0  0  0  0  0  0  0  0  0  0
   62.2341   31.8315   47.1038 H   0  0  0  0  0  0  0  0  0  0  0  0
   63.0707   34.6986   46.4396 H   0  0  0  0  0  0  0  0  0  0  0  0
   62.2548   33.4939   45.3420 H   0  0  0  0  0  0  0  0  0  0  0  0
  1  2  2  0
  2  3  1  0
  3  4  1  0
  4  5  1  0
  5  6  2  0
  6  7  1  0
  7  8  2  0
  8  9  1  0
  9 10  1  0
  9 11  2  0
  4 12  1  0
 12 13  1  0
 13 14  2  0
 13 15  1  0
 15 16  1  0
 16 17  1  0
 17 18  1  0
 18 19  1  0
 19 20  1  0
 20 21  1  0
 21 22  1  0
 22 23  1  0
 23 24  2  0
 24 25  1  0
 25 26  2  0
 26 27  1  0
 26 28  1  0
 28 29  2  0
 22 30  1  0
 30 31  1  0
 15  2  1  0
 31 19  1  0
 11  5  1  0
 29 23  1  0
  3 32  1  0
  3 33  1  0
  4 34  1  0
  6 35  1  0
  7 36  1  0
  8 37  1  0
 11 38  1  0
 12 39  1  0
 12 40  1  0
 16 41  1  0
 16 42  1  0
 17 43  1  0
 17 44  1  0
 18 45  1  0
 18 46  1  0
 20 47  1  0
 20 48  1  0
 21 49  1  0
 21 50  1  0
 24 51  1  0
 25 52  1  0
 28 53  1  0
 29 54  1  0
 30 55  1  0
 30 56  1  0
 31 57  1  0
 31 58  1  0
M  END
>  <UniqueID>  (27) 
25

>  <SMILES>  (27) 
O=C1CC(c2cccc(F)c2)CC(=O)N1CCCN1CCN(c2ccc(F)cc2)CC1

>  <Energy>  (27) 
70.11922121081153

>  <Genealogy>  (27) 
O=C1CC(c2cccc(F)c2)CC(=O)N1CCCN1CCN(c2ccc(F)cc2)CC1 (3D coordinates assigned)
O=C1CC(c2cccc(F)c2)CC(=O)N1CCCN1CCN(c2ccc(F)cc2)CC1 (nonaromatic ring conformer: 70.11922121081153 kcal/mol)

>  <smiles>  (27) 
O=C1CC(c2cccc(F)c2)CC(=O)N1CCCN1CCN(c2ccc(F)cc2)CC1

>  <score_type>  (27) 
oracle

>  <origin>  (27) 
adg

>  <m_score__min__energy>  (27) 
-9.0199999999999996

>  <m_primary>  (27) 
energy

$$$$
27:0
     RDKit          3D

 30 32  0  0  0  0  0  0  0  0999 V2000
   59.6390   35.2880   46.3470 C   0  0  0  0  0  0  0  0  0  0  0  0
   59.3720   33.8190   46.1120 C   0  0  0  0  0  0  0  0  0  0  0  0
   60.2030   32.8090   46.6640 C   0  0  0  0  0  0  0  0  0  0  0  0
   61.3470   33.1120   47.5490 C   0  0  0  0  0  0  0  0  0  0  0  0
   62.6510   32.8120   47.1240 C   0  0  0  0  0  0  0  0  0  0  0  0
   63.7410   33.0640   47.9630 C   0  0  0  0  0  0  0  0  0  0  0  0
   63.5350   33.6010   49.2370 C   0  0  0  0  0  0  0  0  0  0  0  0
   64.5940   33.8420   50.0500 F   0  0  0  0  0  0  0  0  0  0  0  0
   62.2390   33.8790   49.6770 C   0  0  0  0  0  0  0  0  0  0  0  0
   61.1460   33.6290   48.8400 C   0  0  0  0  0  0  0  0  0  0  0  0
   59.9700   31.5300   46.3820 O   0  0  0  0  0  0  0  0  0  0  0  0
   58.9600   31.1210   45.6260 C   0  0  0  0  0  0  0  0  0  0  0  0
   58.7870   29.7550   45.3820 C   0  0  0  0  0  0  0  0  0  0  0  0
   57.7190   29.3110   44.5960 C   0  0  0  0  0  0  0  0  0  0  0  0
   56.8190   30.2310   44.0520 C   0  0  0  0  0  0  0  0  0  0  0  0
   56.9830   31.6000   44.2880 C   0  0  0  0  0  0  0  0  0  0  0  0
   58.0570   32.0560   45.0760 C   0  0  0  0  0  0  0  0  0  0  0  0
   58.2700   33.4200   45.3320 C   0  0  0  0  0  0  0  0  0  0  0  0
   57.4800   34.2850   44.8610 O   0  0  0  0  0  0  0  0  0  0  0  0
   59.6749   35.4857   47.4285 H   0  0  0  0  0  0  0  0  0  0  0  0
   60.6019   35.5631   45.8918 H   0  0  0  0  0  0  0  0  0  0  0  0
   58.8345   35.8843   45.8918 H   0  0  0  0  0  0  0  0  0  0  0  0
   62.8159   32.3770   46.1272 H   0  0  0  0  0  0  0  0  0  0  0  0
   64.7617   32.8394   47.6200 H   0  0  0  0  0  0  0  0  0  0  0  0
   62.0774   34.2949   50.6825 H   0  0  0  0  0  0  0  0  0  0  0  0
   60.1257   33.8379   49.1939 H   0  0  0  0  0  0  0  0  0  0  0  0
   59.4929   29.0277   45.8095 H   0  0  0  0  0  0  0  0  0  0  0  0
   57.5872   28.2356   44.4057 H   0  0  0  0  0  0  0  0  0  0  0  0
   55.9788   29.8776   43.4362 H   0  0  0  0  0  0  0  0  0  0  0  0
   56.2723   32.3209   43.8576 H   0  0  0  0  0  0  0  0  0  0  0  0
  1  2  1  0
  2  3  2  0
  3  4  1  0
  4  5  2  0
  5  6  1  0
  6  7  2  0
  7  8  1  0
  7  9  1  0
  9 10  2  0
  3 11  1  0
 11 12  1  0
 12 13  2  0
 13 14  1  0
 14 15  2  0
 15 16  1  0
 16 17  2  0
 17 18  1  0
 18 19  2  0
 18  2  1  0
 10  4  1  0
 17 12  1  0
  1 20  1  0
  1 21  1  0
  1 22  1  0
  5 23  1  0
  6 24  1  0
  9 25  1  0
 10 26  1  0
 13 27  1  0
 14 28  1  0
 15 29  1  0
 16 30  1  0
M  END
>  <UniqueID>  (28) 
26

>  <SMILES>  (28) 
Cc1c(-c2ccc(F)cc2)oc2ccccc2c1=O

>  <Energy>  (28) 
45.792760205394686

>  <Genealogy>  (28) 
Cc1c(-c2ccc(F)cc2)oc2ccccc2c1=O (3D coordinates assigned)
Cc1c(-c2ccc(F)cc2)oc2ccccc2c1=O (optimized conformer: 45.792760205394686 kcal/mol)

>  <smiles>  (28) 
Cc1c(-c2ccc(F)cc2)oc2ccccc2c1=O

>  <score_type>  (28) 
oracle

>  <origin>  (28) 
adg

>  <m_score__min__energy>  (28) 
-6.7599999999999998

>  <m_primary>  (28) 
energy

$$$$
28:0
     RDKit          3D

 38 39  0  0  0  0  0  0  0  0999 V2000
   58.1420   26.7970   42.4500 C   0  0  0  0  0  0  0  0  0  0  0  0
   57.9900   27.8450   43.4630 N   0  0  0  0  0  0  0  0  0  0  0  0
   58.9740   27.6700   44.5440 C   0  0  0  0  0  0  0  0  0  0  0  0
   58.5080   28.3360   45.8490 C   0  0  0  0  0  0  0  0  0  0  0  0
   58.5980   29.8430   45.7790 C   0  0  0  0  0  0  0  0  0  0  0  0
   59.5770   30.5130   46.5310 C   0  0  0  0  0  0  0  0  0  0  0  0
   59.6670   31.9150   46.5120 C   0  0  0  0  0  0  0  0  0  0  0  0
   60.7040   32.6150   47.3120 C   0  0  0  0  0  0  0  0  0  0  0  0
   60.3400   33.5840   48.2650 C   0  0  0  0  0  0  0  0  0  0  0  0
   61.3190   34.2410   49.0160 C   0  0  0  0  0  0  0  0  0  0  0  0
   62.6690   33.9420   48.8240 C   0  0  0  0  0  0  0  0  0  0  0  0
   63.0440   32.9830   47.8800 C   0  0  0  0  0  0  0  0  0  0  0  0
   62.0690   32.3210   47.1280 C   0  0  0  0  0  0  0  0  0  0  0  0
   58.7570   32.6430   45.7300 C   0  0  0  0  0  0  0  0  0  0  0  0
   57.7760   31.9870   44.9840 C   0  0  0  0  0  0  0  0  0  0  0  0
   57.6830   30.5830   45.0020 C   0  0  0  0  0  0  0  0  0  0  0  0
   56.7030   29.8970   44.2670 O   0  0  0  0  0  0  0  0  0  0  0  0
   56.2710   30.2600   42.9590 C   0  0  0  0  0  0  0  0  0  0  0  0
   58.2829   25.8253   42.9460 H   0  0  0  0  0  0  0  0  0  0  0  0
   57.2397   26.7606   41.8218 H   0  0  0  0  0  0  0  0  0  0  0  0
   59.0174   27.0184   41.8218 H   0  0  0  0  0  0  0  0  0  0  0  0
   58.1300   28.7720   42.9990 H   0  0  0  0  0  0  0  0  0  0  0  0
   57.0190   27.7940   43.8530 H   0  0  0  0  0  0  0  0  0  0  0  0
   59.1184   26.5945   44.7242 H   0  0  0  0  0  0  0  0  0  0  0  0
   59.9150   28.1467   44.2322 H   0  0  0  0  0  0  0  0  0  0  0  0
   57.4628   28.0511   46.0395 H   0  0  0  0  0  0  0  0  0  0  0  0
   59.1679   27.9935   46.6597 H   0  0  0  0  0  0  0  0  0  0  0  0
   60.2828   29.9322   47.1431 H   0  0  0  0  0  0  0  0  0  0  0  0
   59.2782   33.8261   48.4201 H   0  0  0  0  0  0  0  0  0  0  0  0
   61.0248   34.9957   49.7603 H   0  0  0  0  0  0  0  0  0  0  0  0
   63.4372   34.4613   49.4158 H   0  0  0  0  0  0  0  0  0  0  0  0
   64.1079   32.7484   47.7282 H   0  0  0  0  0  0  0  0  0  0  0  0
   62.3700   31.5653   46.3875 H   0  0  0  0  0  0  0  0  0  0  0  0
   58.8172   33.7411   45.7046 H   0  0  0  0  0  0  0  0  0  0  0  0
   57.0698   32.5726   44.3770 H   0  0  0  0  0  0  0  0  0  0  0  0
   55.4308   30.9660   43.0331 H   0  0  0  0  0  0  0  0  0  0  0  0
   57.1021   30.7348   42.4169 H   0  0  0  0  0  0  0  0  0  0  0  0
   55.9465   29.3595   42.4169 H   0  0  0  0  0  0  0  0  0  0  0  0
  1  2  1  0
  2  3  1  0
  3  4  1  0
  4  5  1  0
  5  6  2  0
  6  7  1  0
  7  8  1  0
  8  9  2  0
  9 10  1  0
 10 11  2  0
 11 12  1  0
 12 13  2  0
  7 14  2  0
 14 15  1  0
 15 16  2  0
 16 17  1  0
 17 18  1  0
 16  5  1  0
 13  8  1  0
  1 19  1  0
  1 20  1  0
  1 21  1  0
  2 22  1  0
  2 23  1  0
  3 24  1  0
  3 25  1  0
  4 26  1  0
  4 27  1  0
  6 28  1  0
  9 29  1  0
 10 30  1  0
 11 31  1  0
 12 32  1  0
 13 33  1  0
 14 34  1  0
 15 35  1  0
 18 36  1  0
 18 37  1  0
 18 38  1  0
M  CHG  1   2   1
M  END
>  <UniqueID>  (29) 
27

>  <SMILES>  (29) 
C[NH2+]CCc1cc(-c2ccccc2)ccc1OC

>  <Energy>  (29) 
38.9585430542995

>  <Genealogy>  (29) 
C[NH2+]CCc1cc(-c2ccccc2)ccc1OC (protonated)
C[NH2+]CCc1cc(-c2ccccc2)ccc1OC (3D coordinates assigned)
C[NH2+]CCc1cc(-c2ccccc2)ccc1OC (optimized conformer: 38.9585430542995 kcal/mol)

>  <smiles>  (29) 
CNCCc1cc(-c2ccccc2)ccc1OC

>  <score_type>  (29) 
oracle

>  <origin>  (29) 
adg

>  <m_score__min__energy>  (29) 
-4.7999999999999998

>  <m_primary>  (29) 
energy

$$$$
29:0
     RDKit          3D

 54 57  0  0  0  0  0  0  0  0999 V2000
   63.3920   33.8220   46.3880 C   0  0  0  0  0  0  0  0  0  0  0  0
   63.7490   32.9350   47.4420 O   0  0  0  0  0  0  0  0  0  0  0  0
   63.2100   33.0410   48.7270 C   0  0  0  0  0  0  0  0  0  0  0  0
   63.4640   32.1710   49.6060 O   0  0  0  0  0  0  0  0  0  0  0  0
   62.3570   34.2200   49.0740 C   0  0  0  0  0  0  0  0  0  0  0  0
   60.9570   33.8030   49.5470 C   0  0  0  0  0  0  0  0  0  0  0  0
   60.3210   32.8490   48.6050 N   0  0  0  0  0  0  0  0  0  0  0  0
   59.6690   33.3660   47.5050 C   0  0  0  0  0  0  0  0  0  0  0  0
   59.6390   34.6140   47.3210 O   0  0  0  0  0  0  0  0  0  0  0  0
   59.0350   32.5090   46.5770 C   0  0  0  0  0  0  0  0  0  0  0  0
   58.2850   33.0200   45.3330 C   0  0  0  0  0  0  0  0  0  0  0  0
   57.8000   31.8330   44.4750 C   0  0  0  0  0  0  0  0  0  0  0  0
   59.1980   33.9420   44.4960 C   0  0  0  0  0  0  0  0  0  0  0  0
   57.0390   33.8430   45.7470 C   0  0  0  0  0  0  0  0  0  0  0  0
   59.0990   31.1740   46.7960 N   0  0  0  0  0  0  0  0  0  0  0  0
   59.7380   30.6310   47.8570 C   0  0  0  0  0  0  0  0  0  0  0  0
   59.7850   29.2320   48.0170 C   0  0  0  0  0  0  0  0  0  0  0  0
   59.1010   28.3180   47.0690 C   0  0  0  0  0  0  0  0  0  0  0  0
   59.5530   28.2140   45.7260 C   0  0  0  0  0  0  0  0  0  0  0  0
   58.9060   27.3570   44.8180 C   0  0  0  0  0  0  0  0  0  0  0  0
   57.8220   26.6190   45.2790 C   0  0  0  0  0  0  0  0  0  0  0  0
   57.3880   26.7050   46.5620 C   0  0  0  0  0  0  0  0  0  0  0  0
   58.0000   27.5380   47.4930 C   0  0  0  0  0  0  0  0  0  0  0  0
   56.3050   25.8660   46.7400 O   0  0  0  0  0  0  0  0  0  0  0  0
   56.0410   25.2130   45.4900 C   0  0  0  0  0  0  0  0  0  0  0  0
   57.0320   25.7220   44.5860 O   0  0  0  0  0  0  0  0  0  0  0  0
   60.5080   28.7000   49.0890 C   0  0  0  0  0  0  0  0  0  0  0  0
   61.1510   29.5530   49.9790 C   0  0  0  0  0  0  0  0  0  0  0  0
   61.0830   30.9020   49.8200 N   0  0  0  0  0  0  0  0  0  0  0  0
   60.3880   31.4780   48.7840 C   0  0  0  0  0  0  0  0  0  0  0  0
   63.0132   34.7631   46.8132 H   0  0  0  0  0  0  0  0  0  0  0  0
   64.2766   34.0296   45.7680 H   0  0  0  0  0  0  0  0  0  0  0  0
   62.6102   33.3589   45.7680 H   0  0  0  0  0  0  0  0  0  0  0  0
   62.8479   34.7883   49.8778 H   0  0  0  0  0  0  0  0  0  0  0  0
   62.2392   34.8307   48.1667 H   0  0  0  0  0  0  0  0  0  0  0  0
   61.0418   33.3259   50.5345 H   0  0  0  0  0  0  0  0  0  0  0  0
   60.3293   34.7049   49.5976 H   0  0  0  0  0  0  0  0  0  0  0  0
   57.4666   31.0170   45.1330 H   0  0  0  0  0  0  0  0  0  0  0  0
   56.9624   32.1576   43.8401 H   0  0  0  0  0  0  0  0  0  0  0  0
   58.6252   31.4781   43.8401 H   0  0  0  0  0  0  0  0  0  0  0  0
   59.8104   34.5604   45.1687 H   0  0  0  0  0  0  0  0  0  0  0  0
   59.8552   33.3293   43.8615 H   0  0  0  0  0  0  0  0  0  0  0  0
   58.5788   34.5932   43.8615 H   0  0  0  0  0  0  0  0  0  0  0  0
   56.9754   33.8850   46.8444 H   0  0  0  0  0  0  0  0  0  0  0  0
   57.1236   34.8635   45.3453 H   0  0  0  0  0  0  0  0  0  0  0  0
   56.1336   33.3647   45.3453 H   0  0  0  0  0  0  0  0  0  0  0  0
   60.4165   28.8090   45.3937 H   0  0  0  0  0  0  0  0  0  0  0  0
   59.2470   27.2733   43.7756 H   0  0  0  0  0  0  0  0  0  0  0  0
   57.6376   27.5886   48.5304 H   0  0  0  0  0  0  0  0  0  0  0  0
   56.1385   24.1225   45.5958 H   0  0  0  0  0  0  0  0  0  0  0  0
   55.0188   25.4056   45.1321 H   0  0  0  0  0  0  0  0  0  0  0  0
   60.5679   27.6104   49.2278 H   0  0  0  0  0  0  0  0  0  0  0  0
   61.7208   29.1323   50.8207 H   0  0  0  0  0  0  0  0  0  0  0  0
   61.6100   31.4590   50.5210 H   0  0  0  0  0  0  0  0  0  0  0  0
  1  2  1  0
  2  3  1  0
  3  4  2  0
  3  5  1  0
  5  6  1  0
  6  7  1  0
  7  8  1  0
  8  9  2  0
  8 10  1  0
 10 11  1  0
 11 12  1  0
 11 13  1  0
 11 14  1  0
 10 15  2  0
 15 16  1  0
 16 17  2  0
 17 18  1  0
 18 19  2  0
 19 20  1  0
 20 21  2  0
 21 22  1  0
 22 23  2  0
 22 24  1  0
 24 25  1  0
 25 26  1  0
 17 27  1  0
 27 28  2  0
 28 29  1  0
 29 30  2  0
 30  7  1  0
 30 16  1  0
 23 18  1  0
 26 21  1  0
  1 31  1  0
  1 32  1  0
  1 33  1  0
  5 34  1  0
  5 35  1  0
  6 36  1  0
  6 37  1  0
 12 38  1  0
 12 39  1  0
 12 40  1  0
 13 41  1  0
 13 42  1  0
 13 43  1  0
 14 44  1  0
 14 45  1  0
 14 46  1  0
 19 47  1  0
 20 48  1  0
 23 49  1  0
 25 50  1  0
 25 51  1  0
 27 52  1  0
 28 53  1  0
 29 54  1  0
M  CHG  1  29   1
M  END
>  <UniqueID>  (30) 
28

>  <SMILES>  (30) 
COC(=O)CCn1c(=O)c(C(C)(C)C)nc2c(-c3ccc4c(c3)OCO4)cc[nH+]c21

>  <Energy>  (30) 
96.49061516294621

>  <Genealogy>  (30) 
COC(=O)CCn1c(=O)c(C(C)(C)C)nc2c(-c3ccc4c(c3)OCO4)cc[nH+]c21 (protonated)
COC(=O)CCn1c(=O)c(C(C)(C)C)nc2c(-c3ccc4c(c3)OCO4)cc[nH+]c21 (3D coordinates assigned)
COC(=O)CCn1c(=O)c(C(C)(C)C)nc2c(-c3ccc4c(c3)OCO4)cc[nH+]c21 (nonaromatic ring conformer: 96.49061516294621 kcal/mol)

>  <smiles>  (30) 
COC(=O)CCn1c(=O)c(C(C)(C)C)nc2c(-c3ccc4c(c3)OCO4)ccnc21

>  <score_type>  (30) 
oracle

>  <origin>  (30) 
adg

>  <m_score__min__energy>  (30) 
-6.5

>  <m_primary>  (30) 
energy

$$$$
30:0
     RDKit          3D

 42 44  0  0  0  0  0  0  0  0999 V2000
   56.0030   29.8210   43.4220 C   0  0  0  0  0  0  0  0  0  0  0  0
   56.2080   30.4710   44.6710 O   0  0  0  0  0  0  0  0  0  0  0  0
   57.4670   30.7170   45.2370 C   0  0  0  0  0  0  0  0  0  0  0  0
   58.2390   29.6090   45.6580 C   0  0  0  0  0  0  0  0  0  0  0  0
   59.5100   29.7890   46.2300 C   0  0  0  0  0  0  0  0  0  0  0  0
   59.9820   31.0910   46.3710 C   0  0  0  0  0  0  0  0  0  0  0  0
   61.1330   31.4700   46.8680 O   0  0  0  0  0  0  0  0  0  0  0  0
   61.1880   32.7890   46.8140 C   0  0  0  0  0  0  0  0  0  0  0  0
   62.3580   33.5810   47.2610 C   0  0  0  0  0  0  0  0  0  0  0  0
   63.0310   34.2080   46.3990 O   0  0  0  0  0  0  0  0  0  0  0  0
   62.7620   33.6370   48.6490 N   0  0  0  0  0  0  0  0  0  0  0  0
   64.0430   33.0700   49.0860 C   0  0  0  0  0  0  0  0  0  0  0  0
   61.8470   34.2140   49.6450 C   0  0  0  0  0  0  0  0  0  0  0  0
   60.7770   33.2170   49.9990 C   0  0  0  0  0  0  0  0  0  0  0  0
   59.6780   33.6170   50.7730 C   0  0  0  0  0  0  0  0  0  0  0  0
   58.6750   32.6940   51.0710 C   0  0  0  0  0  0  0  0  0  0  0  0
   58.7720   31.3860   50.5930 C   0  0  0  0  0  0  0  0  0  0  0  0
   59.8760   31.0220   49.8210 C   0  0  0  0  0  0  0  0  0  0  0  0
   60.8470   31.9330   49.5370 N   0  0  0  0  0  0  0  0  0  0  0  0
   60.0050   33.2900   46.2580 C   0  0  0  0  0  0  0  0  0  0  0  0
   59.6520   34.7210   45.9880 C   0  0  0  0  0  0  0  0  0  0  0  0
   59.2450   32.1730   45.9720 C   0  0  0  0  0  0  0  0  0  0  0  0
   57.9810   32.0280   45.3970 C   0  0  0  0  0  0  0  0  0  0  0  0
   55.6763   28.7853   43.5969 H   0  0  0  0  0  0  0  0  0  0  0  0
   55.2305   30.3577   42.8517 H   0  0  0  0  0  0  0  0  0  0  0  0
   56.9436   29.8175   42.8517 H   0  0  0  0  0  0  0  0  0  0  0  0
   57.8387   28.5917   45.5359 H   0  0  0  0  0  0  0  0  0  0  0  0
   60.1127   28.9285   46.5559 H   0  0  0  0  0  0  0  0  0  0  0  0
   64.0807   33.0533   50.1852 H   0  0  0  0  0  0  0  0  0  0  0  0
   64.1408   32.0445   48.7002 H   0  0  0  0  0  0  0  0  0  0  0  0
   64.8678   33.6871   48.7002 H   0  0  0  0  0  0  0  0  0  0  0  0
   62.4133   34.4776   50.5504 H   0  0  0  0  0  0  0  0  0  0  0  0
   61.3764   35.1147   49.2241 H   0  0  0  0  0  0  0  0  0  0  0  0
   59.6073   34.6507   51.1424 H   0  0  0  0  0  0  0  0  0  0  0  0
   57.8106   32.9960   51.6806 H   0  0  0  0  0  0  0  0  0  0  0  0
   57.9869   30.6504   50.8223 H   0  0  0  0  0  0  0  0  0  0  0  0
   59.9621   29.9937   49.4400 H   0  0  0  0  0  0  0  0  0  0  0  0
   61.6570   31.6310   48.9520 H   0  0  0  0  0  0  0  0  0  0  0  0
   59.5209   35.2526   46.9420 H   0  0  0  0  0  0  0  0  0  0  0  0
   60.4600   35.1956   45.4119 H   0  0  0  0  0  0  0  0  0  0  0  0
   58.7160   34.7653   45.4119 H   0  0  0  0  0  0  0  0  0  0  0  0
   57.4007   32.9061   45.0773 H   0  0  0  0  0  0  0  0  0  0  0  0
  1  2  1  0
  2  3  1  0
  3  4  2  0
  4  5  1  0
  5  6  2  0
  6  7  1  0
  7  8  1  0
  8  9  1  0
  9 10  2  0
  9 11  1  0
 11 12  1  0
 11 13  1  0
 13 14  1  0
 14 15  2  0
 15 16  1  0
 16 17  2  0
 17 18  1  0
 18 19  2  0
  8 20  2  0
 20 21  1  0
 20 22  1  0
 22 23  2  0
 23  3  1  0
 22  6  1  0
 19 14  1  0
  1 24  1  0
  1 25  1  0
  1 26  1  0
  4 27  1  0
  5 28  1  0
 12 29  1  0
 12 30  1  0
 12 31  1  0
 13 32  1  0
 13 33  1  0
 15 34  1  0
 16 35  1  0
 17 36  1  0
 18 37  1  0
 19 38  1  0
 21 39  1  0
 21 40  1  0
 21 41  1  0
 23 42  1  0
M  CHG  1  19   1
M  END
>  <UniqueID>  (31) 
29

>  <SMILES>  (31) 
COc1ccc2oc(C(=O)N(C)Cc3cccc[nH+]3)c(C)c2c1

>  <Energy>  (31) 
76.81241970070974

>  <Genealogy>  (31) 
COc1ccc2oc(C(=O)N(C)Cc3cccc[nH+]3)c(C)c2c1 (protonated)
COc1ccc2oc(C(=O)N(C)Cc3cccc[nH+]3)c(C)c2c1 (3D coordinates assigned)
COc1ccc2oc(C(=O)N(C)Cc3cccc[nH+]3)c(C)c2c1 (optimized conformer: 76.81241970070974 kcal/mol)

>  <smiles>  (31) 
COc1ccc2oc(C(=O)N(C)Cc3ccccn3)c(C)c2c1

>  <score_type>  (31) 
oracle

>  <origin>  (31) 
adg

>  <m_score__min__energy>  (31) 
-5.7300000000000004

>  <m_primary>  (31) 
energy

$$$$
31:0
     RDKit          3D

 45 48  0  0  0  0  0  0  0  0999 V2000
   55.8750   25.9750   45.9970 C   0  0  0  0  0  0  0  0  0  0  0  0
   55.9490   27.3530   45.6410 O   0  0  0  0  0  0  0  0  0  0  0  0
   57.1430   28.0370   45.3670 C   0  0  0  0  0  0  0  0  0  0  0  0
   58.0770   27.4290   44.5230 C   0  0  0  0  0  0  0  0  0  0  0  0
   59.2790   28.0710   44.2160 C   0  0  0  0  0  0  0  0  0  0  0  0
   59.5610   29.3270   44.7570 C   0  0  0  0  0  0  0  0  0  0  0  0
   58.6410   29.9520   45.6160 C   0  0  0  0  0  0  0  0  0  0  0  0
   58.9170   31.2500   46.1700 N   0  0  0  0  0  0  0  0  0  0  0  0
   58.6640   32.3930   45.5500 N   0  0  0  0  0  0  0  0  0  0  0  0
   59.0570   33.4190   46.3340 C   0  0  0  0  0  0  0  0  0  0  0  0
   58.9210   34.8520   45.9240 C   0  0  0  0  0  0  0  0  0  0  0  0
   59.5760   32.9070   47.5290 C   0  0  0  0  0  0  0  0  0  0  0  0
   59.4800   31.5350   47.3600 C   0  0  0  0  0  0  0  0  0  0  0  0
   59.8920   30.5610   48.3240 N   0  0  0  0  0  0  0  0  0  0  0  0
   59.2450   30.4510   49.5940 C   0  0  0  0  0  0  0  0  0  0  0  0
   58.4880   29.4720   49.8230 O   0  0  0  0  0  0  0  0  0  0  0  0
   59.5000   31.4720   50.6660 C   0  0  0  0  0  0  0  0  0  0  0  0
   58.8970   33.1530   50.2430 S   0  0  0  0  0  0  0  0  0  0  0  0
   59.9980   33.5730   48.8250 C   0  0  1  0  0  0  0  0  0  0  0  0
   61.4630   33.3780   49.1650 C   0  0  0  0  0  0  0  0  0  0  0  0
   61.9830   33.6920   50.4370 C   0  0  0  0  0  0  0  0  0  0  0  0
   63.3330   33.4720   50.7250 C   0  0  0  0  0  0  0  0  0  0  0  0
   64.1790   32.9300   49.7530 C   0  0  0  0  0  0  0  0  0  0  0  0
   66.0210   32.6240   50.1520 Br  0  0  0  0  0  0  0  0  0  0  0  0
   63.6730   32.6040   48.4920 C   0  0  0  0  0  0  0  0  0  0  0  0
   62.3230   32.8230   48.2000 C   0  0  0  0  0  0  0  0  0  0  0  0
   57.4290   29.3060   45.9110 C   0  0  0  0  0  0  0  0  0  0  0  0
   55.8699   25.8792   47.0928 H   0  0  0  0  0  0  0  0  0  0  0  0
   54.9522   25.5393   45.5865 H   0  0  0  0  0  0  0  0  0  0  0  0
   56.7459   25.4430   45.5865 H   0  0  0  0  0  0  0  0  0  0  0  0
   57.8637   26.4374   44.0974 H   0  0  0  0  0  0  0  0  0  0  0  0
   60.0049   27.5861   43.5467 H   0  0  0  0  0  0  0  0  0  0  0  0
   60.5077   29.8296   44.5097 H   0  0  0  0  0  0  0  0  0  0  0  0
   58.2470   32.4750   44.5960 H   0  0  0  0  0  0  0  0  0  0  0  0
   58.8608   35.4859   46.8210 H   0  0  0  0  0  0  0  0  0  0  0  0
   59.7952   35.1465   45.3248 H   0  0  0  0  0  0  0  0  0  0  0  0
   58.0070   34.9768   45.3248 H   0  0  0  0  0  0  0  0  0  0  0  0
   58.9946   31.1431   51.5860 H   0  0  0  0  0  0  0  0  0  0  0  0
   60.5908   31.5434   50.7887 H   0  0  0  0  0  0  0  0  0  0  0  0
   59.8752   34.6498   48.6369 H   0  0  0  0  0  0  0  0  0  0  0  0
   61.3217   34.1132   51.2085 H   0  0  0  0  0  0  0  0  0  0  0  0
   63.7306   33.7259   51.7187 H   0  0  0  0  0  0  0  0  0  0  0  0
   64.3375   32.1745   47.7278 H   0  0  0  0  0  0  0  0  0  0  0  0
   61.9302   32.5590   47.2070 H   0  0  0  0  0  0  0  0  0  0  0  0
   56.6973   29.7940   46.5716 H   0  0  0  0  0  0  0  0  0  0  0  0
  1  2  1  0
  2  3  1  0
  3  4  2  0
  4  5  1  0
  5  6  2  0
  6  7  1  0
  7  8  1  0
  8  9  1  0
  9 10  2  0
 10 11  1  0
 10 12  1  0
 12 13  2  0
 13 14  1  0
 14 15  1  0
 15 16  2  0
 15 17  1  0
 17 18  1  0
 18 19  1  0
 19 20  1  0
 20 21  2  0
 21 22  1  0
 22 23  2  0
 23 24  1  0
 23 25  1  0
 25 26  2  0
  7 27  2  0
 27  3  1  0
 13  8  1  0
 26 20  1  0
 19 12  1  0
  1 28  1  0
  1 29  1  0
  1 30  1  0
  4 31  1  0
  5 32  1  0
  6 33  1  0
  9 34  1  0
 11 35  1  0
 11 36  1  0
 11 37  1  0
 17 38  1  0
 17 39  1  0
 19 40  1  6
 21 41  1  0
 22 42  1  0
 25 43  1  0
 26 44  1  0
 27 45  1  0
M  CHG  2   9   1  14  -1
M  END
>  <UniqueID>  (32) 
30

>  <SMILES>  (32) 
COc1cccc(-n2[nH+]c(C)c3c2[N-]C(=O)CS[C@H]3c2ccc(Br)cc2)c1

>  <Energy>  (32) 
95.5965240683636

>  <Genealogy>  (32) 
COc1cccc(-n2[nH+]c(C)c3c2[N-]C(=O)CSC3c2ccc(Br)cc2)c1 (protonated)
COc1cccc(-n2[nH+]c(C)c3c2[N-]C(=O)CS[C@H]3c2ccc(Br)cc2)c1 (chirality)
COc1cccc(-n2[nH+]c(C)c3c2[N-]C(=O)CS[C@H]3c2ccc(Br)cc2)c1 (3D coordinates assigned)
COc1cccc(-n2[nH+]c(C)c3c2[N-]C(=O)CS[C@H]3c2ccc(Br)cc2)c1 (nonaromatic ring conformer: 95.5965240683636 kcal/mol)

>  <smiles>  (32) 
COc1cccc(-n2nc(C)c3c2NC(=O)CSC3c2ccc(Br)cc2)c1

>  <score_type>  (32) 
oracle

>  <origin>  (32) 
adg

>  <m_score__min__energy>  (32) 
-6.8499999999999996

>  <m_primary>  (32) 
energy

$$$$
32:0
     RDKit          3D

 31 32  0  0  0  0  0  0  0  0999 V2000
   55.1590   29.3510   44.8820 O   0  0  0  0  0  0  0  0  0  0  0  0
   56.1510   29.9270   44.3620 C   0  0  0  0  0  0  0  0  0  0  0  0
   57.2510   29.0910   43.7620 C   0  0  0  0  0  0  0  0  0  0  0  0
   58.0650   28.4720   44.8100 N   0  0  0  0  0  0  0  0  0  0  0  0
   59.5050   28.6480   44.8960 C   0  0  0  0  0  0  0  0  0  0  0  0
   59.9710   28.0040   46.2080 C   0  0  0  0  0  0  0  0  0  0  0  0
   58.8380   26.6340   46.6370 S   0  0  0  0  0  0  0  0  0  0  0  0
   57.5910   27.4540   45.6790 C   0  0  0  0  0  0  0  0  0  0  0  0
   56.3680   27.1850   45.7990 O   0  0  0  0  0  0  0  0  0  0  0  0
   56.2730   31.3480   44.5060 N   0  0  0  0  0  0  0  0  0  0  0  0
   57.3760   32.0560   45.0860 C   0  0  0  0  0  0  0  0  0  0  0  0
   58.1480   31.4930   46.1150 C   0  0  0  0  0  0  0  0  0  0  0  0
   59.2410   32.1920   46.6380 C   0  0  0  0  0  0  0  0  0  0  0  0
   59.5920   33.4470   46.1300 C   0  0  0  0  0  0  0  0  0  0  0  0
   60.6950   34.1080   46.6920 O   0  0  0  0  0  0  0  0  0  0  0  0
   61.9200   33.4780   47.0570 C   0  0  0  0  0  0  0  0  0  0  0  0
   62.9010   33.8420   46.1540 F   0  0  0  0  0  0  0  0  0  0  0  0
   62.3010   33.8830   48.3230 F   0  0  0  0  0  0  0  0  0  0  0  0
   58.8340   33.9980   45.0770 C   0  0  0  0  0  0  0  0  0  0  0  0
   57.7420   33.2980   44.5560 C   0  0  0  0  0  0  0  0  0  0  0  0
   56.8050   28.3020   43.1387 H   0  0  0  0  0  0  0  0  0  0  0  0
   57.8959   29.7417   43.1532 H   0  0  0  0  0  0  0  0  0  0  0  0
   59.9949   28.1573   44.0421 H   0  0  0  0  0  0  0  0  0  0  0  0
   59.7666   29.7162   44.8746 H   0  0  0  0  0  0  0  0  0  0  0  0
   60.9917   27.6130   46.0843 H   0  0  0  0  0  0  0  0  0  0  0  0
   59.9660   28.7548   47.0119 H   0  0  0  0  0  0  0  0  0  0  0  0
   57.8924   30.4991   46.5111 H   0  0  0  0  0  0  0  0  0  0  0  0
   59.8296   31.7508   47.4559 H   0  0  0  0  0  0  0  0  0  0  0  0
   61.7826   32.3866   47.0503 H   0  0  0  0  0  0  0  0  0  0  0  0
   59.1026   34.9816   44.6641 H   0  0  0  0  0  0  0  0  0  0  0  0
   57.1660   33.7270   43.7228 H   0  0  0  0  0  0  0  0  0  0  0  0
  1  2  2  0
  2  3  1  0
  3  4  1  0
  4  5  1  0
  5  6  1  0
  6  7  1  0
  7  8  1  0
  8  9  2  0
  2 10  1  0
 10 11  1  0
 11 12  2  0
 12 13  1  0
 13 14  2  0
 14 15  1  0
 15 16  1  0
 16 17  1  0
 16 18  1  0
 14 19  1  0
 19 20  2  0
  8  4  1  0
 20 11  1  0
  3 21  1  0
  3 22  1  0
  5 23  1  0
  5 24  1  0
  6 25  1  0
  6 26  1  0
 12 27  1  0
 13 28  1  0
 16 29  1  0
 19 30  1  0
 20 31  1  0
M  CHG  1  10  -1
M  END
>  <UniqueID>  (33) 
31

>  <SMILES>  (33) 
O=C(CN1CCSC1=O)[N-]c1ccc(OC(F)F)cc1

>  <Energy>  (33) 
40.019045694972256

>  <Genealogy>  (33) 
O=C(CN1CCSC1=O)[N-]c1ccc(OC(F)F)cc1 (protonated)
O=C(CN1CCSC1=O)[N-]c1ccc(OC(F)F)cc1 (3D coordinates assigned)
O=C(CN1CCSC1=O)[N-]c1ccc(OC(F)F)cc1 (nonaromatic ring conformer: 40.019045694972256 kcal/mol)

>  <smiles>  (33) 
O=C(CN1CCSC1=O)Nc1ccc(OC(F)F)cc1

>  <score_type>  (33) 
oracle

>  <origin>  (33) 
adg

>  <m_score__min__energy>  (33) 
-7.8799999999999999

>  <m_primary>  (33) 
energy

$$$$
33:0
     RDKit          3D

 52 55  0  0  0  0  0  0  0  0999 V2000
   62.9330   33.0620   46.9830 F   0  0  0  0  0  0  0  0  0  0  0  0
   63.3410   32.5950   48.1890 C   0  0  0  0  0  0  0  0  0  0  0  0
   64.4760   33.1590   48.7820 C   0  0  0  0  0  0  0  0  0  0  0  0
   64.9020   32.7220   50.0380 C   0  0  0  0  0  0  0  0  0  0  0  0
   64.1950   31.7220   50.7070 C   0  0  0  0  0  0  0  0  0  0  0  0
   63.0610   31.1530   50.1210 C   0  0  0  0  0  0  0  0  0  0  0  0
   62.6220   31.5790   48.8540 C   0  0  0  0  0  0  0  0  0  0  0  0
   61.4500   30.9860   48.2580 N   0  0  0  0  0  0  0  0  0  0  0  0
   60.2810   30.6860   49.0960 C   0  0  0  0  0  0  0  0  0  0  0  0
   59.0780   30.2990   48.2340 C   0  0  0  0  0  0  0  0  0  0  0  0
   59.4490   29.2090   47.3080 N   0  0  0  0  0  0  0  0  0  0  0  0
   58.3000   28.7070   46.5230 C   0  0  0  0  0  0  0  0  0  0  0  0
   57.7170   29.7500   45.6110 C   0  0  0  0  0  0  0  0  0  0  0  0
   58.4070   30.7960   45.1180 N   0  0  0  0  0  0  0  0  0  0  0  0
   57.4470   31.4420   44.4260 C   0  0  0  0  0  0  0  0  0  0  0  0
   57.6660   32.7560   43.7280 C   0  0  0  0  0  0  0  0  0  0  0  0
   57.9430   33.8690   44.6630 N   0  0  0  0  0  0  0  0  0  0  0  0
   59.3900   34.1620   44.7920 C   0  0  0  0  0  0  0  0  0  0  0  0
   59.6700   35.0850   45.9830 C   0  0  0  0  0  0  0  0  0  0  0  0
   59.2280   34.4410   47.3090 C   0  0  0  0  0  0  0  0  0  0  0  0
   58.1030   33.4090   47.1280 C   0  0  0  0  0  0  0  0  0  0  0  0
   57.1960   33.7760   45.9450 C   0  0  0  0  0  0  0  0  0  0  0  0
   56.2520   30.8230   44.4960 N   0  0  0  0  0  0  0  0  0  0  0  0
   56.4620   29.7790   45.2380 O   0  0  0  0  0  0  0  0  0  0  0  0
   60.6610   29.4610   46.4850 C   0  0  0  0  0  0  0  0  0  0  0  0
   61.3640   30.7910   46.8060 C   0  0  0  0  0  0  0  0  0  0  0  0
   65.0341   33.9486   48.2575 H   0  0  0  0  0  0  0  0  0  0  0  0
   65.7957   33.1664   50.5005 H   0  0  0  0  0  0  0  0  0  0  0  0
   64.5309   31.3810   51.6974 H   0  0  0  0  0  0  0  0  0  0  0  0
   62.5075   30.3661   50.6544 H   0  0  0  0  0  0  0  0  0  0  0  0
   60.5251   29.8513   49.7696 H   0  0  0  0  0  0  0  0  0  0  0  0
   60.0239   31.5845   49.6762 H   0  0  0  0  0  0  0  0  0  0  0  0
   58.2577   29.9610   48.8843 H   0  0  0  0  0  0  0  0  0  0  0  0
   58.7556   31.1741   47.6506 H   0  0  0  0  0  0  0  0  0  0  0  0
   58.6362   27.8554   45.9133 H   0  0  0  0  0  0  0  0  0  0  0  0
   57.5149   28.4142   47.2356 H   0  0  0  0  0  0  0  0  0  0  0  0
   58.5215   32.6514   43.0445 H   0  0  0  0  0  0  0  0  0  0  0  0
   56.7382   33.0014   43.1905 H   0  0  0  0  0  0  0  0  0  0  0  0
   59.9350   33.2173   44.9355 H   0  0  0  0  0  0  0  0  0  0  0  0
   59.7234   34.6697   43.8749 H   0  0  0  0  0  0  0  0  0  0  0  0
   60.7492   35.2931   46.0285 H   0  0  0  0  0  0  0  0  0  0  0  0
   59.0987   36.0144   45.8423 H   0  0  0  0  0  0  0  0  0  0  0  0
   60.0957   33.9385   47.7613 H   0  0  0  0  0  0  0  0  0  0  0  0
   58.8385   35.2441   47.9519 H   0  0  0  0  0  0  0  0  0  0  0  0
   58.5494   32.4205   46.9444 H   0  0  0  0  0  0  0  0  0  0  0  0
   57.4927   33.3959   48.0431 H   0  0  0  0  0  0  0  0  0  0  0  0
   56.4176   33.0052   45.8447 H   0  0  0  0  0  0  0  0  0  0  0  0
   56.7611   34.7651   46.1512 H   0  0  0  0  0  0  0  0  0  0  0  0
   61.3740   28.6414   46.6577 H   0  0  0  0  0  0  0  0  0  0  0  0
   60.3306   29.5180   45.4373 H   0  0  0  0  0  0  0  0  0  0  0  0
   62.3786   30.7765   46.3814 H   0  0  0  0  0  0  0  0  0  0  0  0
   60.7833   31.6165   46.3686 H   0  0  0  0  0  0  0  0  0  0  0  0
  1  2  1  0
  2  3  2  0
  3  4  1  0
  4  5  2  0
  5  6  1  0
  6  7  2  0
  7  8  1  0
  8  9  1  0
  9 10  1  0
 10 11  1  0
 11 12  1  0
 12 13  1  0
 13 14  2  0
 14 15  1  0
 15 16  1  0
 16 17  1  0
 17 18  1  0
 18 19  1  0
 19 20  1  0
 20 21  1  0
 21 22  1  0
 15 23  2  0
 23 24  1  0
 11 25  1  0
 25 26  1  0
  7  2  1  0
 26  8  1  0
 24 13  1  0
 22 17  1  0
  3 27  1  0
  4 28  1  0
  5 29  1  0
  6 30  1  0
  9 31  1  0
  9 32  1  0
 10 33  1  0
 10 34  1  0
 12 35  1  0
 12 36  1  0
 16 37  1  0
 16 38  1  0
 18 39  1  0
 18 40  1  0
 19 41  1  0
 19 42  1  0
 20 43  1  0
 20 44  1  0
 21 45  1  0
 21 46  1  0
 22 47  1  0
 22 48  1  0
 25 49  1  0
 25 50  1  0
 26 51  1  0
 26 52  1  0
M  END
>  <UniqueID>  (34) 
32

>  <SMILES>  (34) 
Fc1ccccc1N1CCN(Cc2nc(CN3CCCCC3)no2)CC1

>  <Energy>  (34) 
103.8332510628069

>  <Genealogy>  (34) 
Fc1ccccc1N1CCN(Cc2nc(CN3CCCCC3)no2)CC1 (3D coordinates assigned)
Fc1ccccc1N1CCN(Cc2nc(CN3CCCCC3)no2)CC1 (nonaromatic ring conformer: 103.8332510628069 kcal/mol)

>  <smiles>  (34) 
Fc1ccccc1N1CCN(Cc2nc(CN3CCCCC3)no2)CC1

>  <score_type>  (34) 
oracle

>  <origin>  (34) 
adg

>  <m_score__min__energy>  (34) 
-8.5700000000000003

>  <m_primary>  (34) 
energy

$$$$
34:0
     RDKit          3D

 36 38  0  0  0  0  0  0  0  0999 V2000
   55.3190   26.2360   46.2090 O   0  0  0  0  0  0  0  0  0  0  0  0
   56.2790   26.9990   45.9250 C   0  0  0  0  0  0  0  0  0  0  0  0
   55.9810   28.2280   45.2470 N   0  0  0  0  0  0  0  0  0  0  0  0
   56.8640   28.9840   44.3690 C   0  0  0  0  0  0  0  0  0  0  0  0
   56.9530   30.4030   44.8470 C   0  0  0  0  0  0  0  0  0  0  0  0
   56.0590   31.2230   44.5030 O   0  0  0  0  0  0  0  0  0  0  0  0
   58.0640   30.8510   45.6500 N   0  0  0  0  0  0  0  0  0  0  0  0
   58.7690   29.8790   46.4970 C   0  0  0  0  0  0  0  0  0  0  0  0
   60.2740   30.1330   46.4460 C   0  0  0  0  0  0  0  0  0  0  0  0
   60.5930   31.5540   46.9160 C   0  0  0  0  0  0  0  0  0  0  0  0
   59.7410   32.5850   46.2200 C   0  0  0  0  0  0  0  0  0  0  0  0
   60.1540   33.9270   46.2290 C   0  0  0  0  0  0  0  0  0  0  0  0
   59.3470   34.9200   45.6720 C   0  0  0  0  0  0  0  0  0  0  0  0
   58.1100   34.5870   45.1230 C   0  0  0  0  0  0  0  0  0  0  0  0
   57.6790   33.2580   45.1190 C   0  0  0  0  0  0  0  0  0  0  0  0
   58.4910   32.2360   45.6530 C   0  0  0  0  0  0  0  0  0  0  0  0
   57.6470   26.5850   46.3180 C   0  0  0  0  0  0  0  0  0  0  0  0
   58.4630   25.7380   45.5700 C   0  0  0  0  0  0  0  0  0  0  0  0
   59.7290   25.5320   46.1320 C   0  0  0  0  0  0  0  0  0  0  0  0
   59.9310   26.2190   47.3200 C   0  0  0  0  0  0  0  0  0  0  0  0
   58.5330   27.0810   47.6640 S   0  0  0  0  0  0  0  0  0  0  0  0
   57.8662   28.5307   44.3789 H   0  0  0  0  0  0  0  0  0  0  0  0
   56.4630   28.9676   43.3448 H   0  0  0  0  0  0  0  0  0  0  0  0
   58.4181   29.9788   47.5348 H   0  0  0  0  0  0  0  0  0  0  0  0
   58.5625   28.8635   46.1282 H   0  0  0  0  0  0  0  0  0  0  0  0
   60.7854   29.4117   47.1004 H   0  0  0  0  0  0  0  0  0  0  0  0
   60.6202   30.0149   45.4086 H   0  0  0  0  0  0  0  0  0  0  0  0
   60.4137   31.6181   47.9994 H   0  0  0  0  0  0  0  0  0  0  0  0
   61.6452   31.7635   46.6732 H   0  0  0  0  0  0  0  0  0  0  0  0
   61.1208   34.1976   46.6784 H   0  0  0  0  0  0  0  0  0  0  0  0
   59.6874   35.9660   45.6663 H   0  0  0  0  0  0  0  0  0  0  0  0
   57.4716   35.3723   44.6919 H   0  0  0  0  0  0  0  0  0  0  0  0
   56.6958   33.0061   44.6948 H   0  0  0  0  0  0  0  0  0  0  0  0
   58.1422   25.2742   44.6255 H   0  0  0  0  0  0  0  0  0  0  0  0
   60.4922   24.8856   45.6740 H   0  0  0  0  0  0  0  0  0  0  0  0
   60.8466   26.2018   47.9294 H   0  0  0  0  0  0  0  0  0  0  0  0
  1  2  2  0
  2  3  1  0
  3  4  1  0
  4  5  1  0
  5  6  2  0
  5  7  1  0
  7  8  1  0
  8  9  1  0
  9 10  1  0
 10 11  1  0
 11 12  2  0
 12 13  1  0
 13 14  2  0
 14 15  1  0
 15 16  2  0
  2 17  1  0
 17 18  2  0
 18 19  1  0
 19 20  2  0
 20 21  1  0
 16  7  1  0
 21 17  1  0
 16 11  1  0
  4 22  1  0
  4 23  1  0
  8 24  1  0
  8 25  1  0
  9 26  1  0
  9 27  1  0
 10 28  1  0
 10 29  1  0
 12 30  1  0
 13 31  1  0
 14 32  1  0
 15 33  1  0
 18 34  1  0
 19 35  1  0
 20 36  1  0
M  CHG  1   3  -1
M  END
>  <UniqueID>  (35) 
33

>  <SMILES>  (35) 
O=C([N-]CC(=O)N1CCCc2ccccc21)c1cccs1

>  <Energy>  (35) 
69.66079064012645

>  <Genealogy>  (35) 
O=C([N-]CC(=O)N1CCCc2ccccc21)c1cccs1 (protonated)
O=C([N-]CC(=O)N1CCCc2ccccc21)c1cccs1 (3D coordinates assigned)
O=C([N-]CC(=O)N1CCCc2ccccc21)c1cccs1 (nonaromatic ring conformer: 69.66079064012645 kcal/mol)

>  <smiles>  (35) 
O=C(NCC(=O)N1CCCc2ccccc21)c1cccs1

>  <score_type>  (35) 
oracle

>  <origin>  (35) 
adg

>  <m_score__min__energy>  (35) 
-9.8800000000000008

>  <m_primary>  (35) 
energy

$$$$
35:0
     RDKit          3D

 39 41  0  0  0  0  0  0  0  0999 V2000
   66.3160   33.0860   50.1410 C   0  0  0  0  0  0  0  0  0  0  0  0
   65.3540   32.0970   49.7940 O   0  0  0  0  0  0  0  0  0  0  0  0
   64.1530   32.3620   49.1200 C   0  0  0  0  0  0  0  0  0  0  0  0
   64.1230   33.4190   48.2040 C   0  0  0  0  0  0  0  0  0  0  0  0
   62.9520   33.7230   47.5060 C   0  0  0  0  0  0  0  0  0  0  0  0
   61.7830   32.9720   47.7140 C   0  0  0  0  0  0  0  0  0  0  0  0
   60.5400   33.2980   46.9690 C   0  0  0  0  0  0  0  0  0  0  0  0
   60.0410   34.6050   46.9530 C   0  0  0  0  0  0  0  0  0  0  0  0
   58.8840   34.8850   46.2380 C   0  0  0  0  0  0  0  0  0  0  0  0
   58.2390   33.8600   45.5510 C   0  0  0  0  0  0  0  0  0  0  0  0
   57.2040   34.1250   44.8790 O   0  0  0  0  0  0  0  0  0  0  0  0
   58.7450   32.5860   45.5980 N   0  0  0  0  0  0  0  0  0  0  0  0
   58.0870   31.5070   44.9020 C   0  0  0  0  0  0  0  0  0  0  0  0
   57.5790   31.7140   43.6110 C   0  0  0  0  0  0  0  0  0  0  0  0
   56.9420   30.6750   42.9300 C   0  0  0  0  0  0  0  0  0  0  0  0
   56.8190   29.4170   43.5250 C   0  0  0  0  0  0  0  0  0  0  0  0
   57.3560   29.1780   44.8020 C   0  0  0  0  0  0  0  0  0  0  0  0
   57.1900   27.8330   45.4620 C   0  0  0  0  0  0  0  0  0  0  0  0
   57.7950   26.8640   44.6810 F   0  0  0  0  0  0  0  0  0  0  0  0
   57.7720   27.8270   46.7180 F   0  0  0  0  0  0  0  0  0  0  0  0
   55.8490   27.5220   45.6050 F   0  0  0  0  0  0  0  0  0  0  0  0
   57.9720   30.2370   45.4920 C   0  0  0  0  0  0  0  0  0  0  0  0
   59.8670   32.3260   46.2840 N   0  0  0  0  0  0  0  0  0  0  0  0
   61.8120   31.9090   48.6340 C   0  0  0  0  0  0  0  0  0  0  0  0
   62.9850   31.6060   49.3300 C   0  0  0  0  0  0  0  0  0  0  0  0
   66.3876   33.1596   51.2362 H   0  0  0  0  0  0  0  0  0  0  0  0
   67.2959   32.8053   49.7275 H   0  0  0  0  0  0  0  0  0  0  0  0
   66.0083   34.0578   49.7275 H   0  0  0  0  0  0  0  0  0  0  0  0
   65.0304   34.0165   48.0318 H   0  0  0  0  0  0  0  0  0  0  0  0
   62.9450   34.5565   46.7882 H   0  0  0  0  0  0  0  0  0  0  0  0
   60.5608   35.4040   47.5021 H   0  0  0  0  0  0  0  0  0  0  0  0
   58.4804   35.9080   46.2146 H   0  0  0  0  0  0  0  0  0  0  0  0
   57.6830   32.6993   43.1331 H   0  0  0  0  0  0  0  0  0  0  0  0
   56.5359   30.8473   41.9223 H   0  0  0  0  0  0  0  0  0  0  0  0
   56.2986   28.6083   42.9909 H   0  0  0  0  0  0  0  0  0  0  0  0
   58.3681   30.0694   46.5044 H   0  0  0  0  0  0  0  0  0  0  0  0
   60.2210   31.3420   46.3280 H   0  0  0  0  0  0  0  0  0  0  0  0
   60.9047   31.3117   48.8070 H   0  0  0  0  0  0  0  0  0  0  0  0
   62.9955   30.7714   50.0465 H   0  0  0  0  0  0  0  0  0  0  0  0
  1  2  1  0
  2  3  1  0
  3  4  2  0
  4  5  1  0
  5  6  2  0
  6  7  1  0
  7  8  1  0
  8  9  2  0
  9 10  1  0
 10 11  2  0
 10 12  1  0
 12 13  1  0
 13 14  2  0
 14 15  1  0
 15 16  2  0
 16 17  1  0
 17 18  1  0
 18 19  1  0
 18 20  1  0
 18 21  1  0
 17 22  2  0
 12 23  1  0
  6 24  1  0
 24 25  2  0
 25  3  1  0
 23  7  2  0
 22 13  1  0
  1 26  1  0
  1 27  1  0
  1 28  1  0
  4 29  1  0
  5 30  1  0
  8 31  1  0
  9 32  1  0
 14 33  1  0
 15 34  1  0
 16 35  1  0
 22 36  1  0
 23 37  1  0
 24 38  1  0
 25 39  1  0
M  CHG  1  23   1
M  END
>  <UniqueID>  (36) 
34

>  <SMILES>  (36) 
COc1ccc(-c2ccc(=O)n(-c3cccc(C(F)(F)F)c3)[nH+]2)cc1

>  <Energy>  (36) 
54.706004500112556

>  <Genealogy>  (36) 
COc1ccc(-c2ccc(=O)n(-c3cccc(C(F)(F)F)c3)[nH+]2)cc1 (protonated)
COc1ccc(-c2ccc(=O)n(-c3cccc(C(F)(F)F)c3)[nH+]2)cc1 (3D coordinates assigned)
COc1ccc(-c2ccc(=O)n(-c3cccc(C(F)(F)F)c3)[nH+]2)cc1 (optimized conformer: 54.706004500112556 kcal/mol)

>  <smiles>  (36) 
COc1ccc(-c2ccc(=O)n(-c3cccc(C(F)(F)F)c3)n2)cc1

>  <score_type>  (36) 
oracle

>  <origin>  (36) 
adg

>  <m_score__min__energy>  (36) 
-6.2999999999999998

>  <m_primary>  (36) 
energy

$$$$
36:0
     RDKit          3D

 43 45  0  0  0  0  0  0  0  0999 V2000
   60.7680   29.0580   45.2910 C   0  0  0  0  0  0  0  0  0  0  0  0
   60.1320   29.8980   46.3050 N   0  0  0  0  0  0  0  0  0  0  0  0
   58.8660   29.8060   46.8040 C   0  0  0  0  0  0  0  0  0  0  0  0
   57.8490   28.7760   46.3830 C   0  0  0  0  0  0  0  0  0  0  0  0
   56.8210   29.3360   45.4900 N   0  0  0  0  0  0  0  0  0  0  0  0
   57.3620   29.8340   44.2110 C   0  0  0  0  0  0  0  0  0  0  0  0
   56.7690   31.2010   43.8270 C   0  0  0  0  0  0  0  0  0  0  0  0
   57.8650   32.2100   43.4720 C   0  0  0  0  0  0  0  0  0  0  0  0
   58.1860   33.0700   44.6650 C   0  0  0  0  0  0  0  0  0  0  0  0
   59.2730   33.9590   44.6210 C   0  0  0  0  0  0  0  0  0  0  0  0
   59.6080   34.7200   45.7450 C   0  0  0  0  0  0  0  0  0  0  0  0
   58.8630   34.5950   46.9210 C   0  0  0  0  0  0  0  0  0  0  0  0
   57.7870   33.7050   46.9770 C   0  0  0  0  0  0  0  0  0  0  0  0
   57.4510   32.9400   45.8560 C   0  0  0  0  0  0  0  0  0  0  0  0
   58.6580   30.6470   47.8480 N   0  0  0  0  0  0  0  0  0  0  0  0
   59.8370   31.2660   48.0190 C   0  0  0  0  0  0  0  0  0  0  0  0
   60.1930   32.1750   49.0130 C   0  0  0  0  0  0  0  0  0  0  0  0
   61.5270   32.6210   49.0410 C   0  0  0  0  0  0  0  0  0  0  0  0
   62.4610   32.1450   48.0920 C   0  0  0  0  0  0  0  0  0  0  0  0
   62.0700   31.2210   47.1050 C   0  0  0  0  0  0  0  0  0  0  0  0
   60.7340   30.8100   47.0960 C   0  0  0  0  0  0  0  0  0  0  0  0
   61.3616   28.2740   45.7840 H   0  0  0  0  0  0  0  0  0  0  0  0
   59.9944   28.5919   44.6631 H   0  0  0  0  0  0  0  0  0  0  0  0
   61.4265   29.6762   44.6631 H   0  0  0  0  0  0  0  0  0  0  0  0
   58.3681   27.9611   45.8572 H   0  0  0  0  0  0  0  0  0  0  0  0
   57.3440   28.4124   47.2901 H   0  0  0  0  0  0  0  0  0  0  0  0
   56.2740   30.0770   45.9880 H   0  0  0  0  0  0  0  0  0  0  0  0
   58.4537   29.9335   44.3020 H   0  0  0  0  0  0  0  0  0  0  0  0
   57.0920   29.1137   43.4247 H   0  0  0  0  0  0  0  0  0  0  0  0
   56.1073   31.0719   42.9578 H   0  0  0  0  0  0  0  0  0  0  0  0
   56.2101   31.5892   44.6913 H   0  0  0  0  0  0  0  0  0  0  0  0
   58.7703   31.6685   43.1603 H   0  0  0  0  0  0  0  0  0  0  0  0
   57.5102   32.8517   42.6520 H   0  0  0  0  0  0  0  0  0  0  0  0
   59.8632   34.0568   43.6979 H   0  0  0  0  0  0  0  0  0  0  0  0
   60.4579   35.4171   45.7038 H   0  0  0  0  0  0  0  0  0  0  0  0
   59.1239   35.1978   47.8034 H   0  0  0  0  0  0  0  0  0  0  0  0
   57.2036   33.6062   47.9043 H   0  0  0  0  0  0  0  0  0  0  0  0
   56.6088   32.2342   45.9063 H   0  0  0  0  0  0  0  0  0  0  0  0
   57.7990   30.7420   48.4340 H   0  0  0  0  0  0  0  0  0  0  0  0
   59.4575   32.5311   49.7494 H   0  0  0  0  0  0  0  0  0  0  0  0
   61.8455   33.3445   49.8059 H   0  0  0  0  0  0  0  0  0  0  0  0
   63.5017   32.4998   48.1254 H   0  0  0  0  0  0  0  0  0  0  0  0
   62.7897   30.8362   46.3674 H   0  0  0  0  0  0  0  0  0  0  0  0
  1  2  1  0
  2  3  1  0
  3  4  1  0
  4  5  1  0
  5  6  1  0
  6  7  1  0
  7  8  1  0
  8  9  1  0
  9 10  2  0
 10 11  1  0
 11 12  2  0
 12 13  1  0
 13 14  2  0
  3 15  2  0
 15 16  1  0
 16 17  2  0
 17 18  1  0
 18 19  2  0
 19 20  1  0
 20 21  2  0
 21  2  1  0
 14  9  1  0
 21 16  1  0
  1 22  1  0
  1 23  1  0
  1 24  1  0
  4 25  1  0
  4 26  1  0
  5 27  1  0
  6 28  1  0
  6 29  1  0
  7 30  1  0
  7 31  1  0
  8 32  1  0
  8 33  1  0
 10 34  1  0
 11 35  1  0
 12 36  1  0
 13 37  1  0
 14 38  1  0
 15 39  1  0
 17 40  1  0
 18 41  1  0
 19 42  1  0
 20 43  1  0
M  CHG  1  15   1
M  END
>  <UniqueID>  (37) 
35

>  <SMILES>  (37) 
Cn1c(CNCCCc2ccccc2)[nH+]c2ccccc21

>  <Energy>  (37) 
78.14025766503606

>  <Genealogy>  (37) 
Cn1c(CNCCCc2ccccc2)[nH+]c2ccccc21 (protonated)
Cn1c(CNCCCc2ccccc2)[nH+]c2ccccc21 (3D coordinates assigned)
Cn1c(CNCCCc2ccccc2)[nH+]c2ccccc21 (optimized conformer: 78.14025766503606 kcal/mol)

>  <smiles>  (37) 
Cn1c(CNCCCc2ccccc2)nc2ccccc21

>  <score_type>  (37) 
oracle

>  <origin>  (37) 
adg

>  <m_score__min__energy>  (37) 
-5.5099999999999998

>  <m_primary>  (37) 
energy

$$$$
37:0
     RDKit          3D

 52 53  0  0  1  0  0  0  0  0999 V2000
   55.9140   30.0010   44.0950 C   0  0  0  0  0  0  0  0  0  0  0  0
   57.0120   30.8320   43.5290 C   0  0  0  0  0  0  0  0  0  0  0  0
   58.3390   30.7090   44.2280 C   0  0  0  0  0  0  0  0  0  0  0  0
   58.3850   29.6560   45.2790 C   0  0  0  0  0  0  0  0  0  0  0  0
   58.9520   30.2170   46.5650 C   0  0  0  0  0  0  0  0  0  0  0  0
   60.4910   30.4230   46.3980 C   0  0  0  0  0  0  0  0  0  0  0  0
   60.6110   31.7730   46.8570 N   0  0  0  0  0  0  0  0  0  0  0  0
   61.6970   32.3200   47.2080 C   0  0  0  0  0  0  0  0  0  0  0  0
   62.2440   33.2370   46.3810 N   0  0  0  0  0  0  0  0  0  0  0  0
   63.4290   33.8190   46.7200 C   0  0  0  0  0  0  0  0  0  0  0  0
   64.0340   33.4610   47.8890 N   0  0  0  0  0  0  0  0  0  0  0  0
   63.4870   32.5480   48.7120 C   0  0  0  0  0  0  0  0  0  0  0  0
   62.2750   31.9350   48.3930 C   0  0  0  0  0  0  0  0  0  0  0  0
   61.6050   30.7590   49.4950 S   0  0  0  0  0  0  0  0  0  0  0  0
   60.5940   31.4480   50.8260 C   0  0  0  0  0  0  0  0  0  0  0  0
   60.2150   32.8880   50.5530 C   0  0  0  0  0  0  0  0  0  0  0  0
   59.5370   33.0590   49.3090 N   0  0  0  0  0  0  0  0  0  0  0  0
   59.6320   34.3590   48.7240 C   0  0  0  0  0  0  0  0  0  0  0  0
   59.0870   34.3390   47.3420 C   0  0  0  0  0  0  0  0  0  0  0  0
   59.6540   35.0080   46.2870 C   0  0  0  0  0  0  0  0  0  0  0  0
   59.0580   34.9190   45.0340 C   0  0  0  0  0  0  0  0  0  0  0  0
   57.9150   34.1770   44.8330 C   0  0  0  0  0  0  0  0  0  0  0  0
   57.3290   33.4950   45.8940 C   0  0  0  0  0  0  0  0  0  0  0  0
   57.9300   33.5910   47.1320 C   0  0  0  0  0  0  0  0  0  0  0  0
   55.9580   30.0343   45.1936 H   0  0  0  0  0  0  0  0  0  0  0  0
   54.9444   30.3935   43.7548 H   0  0  0  0  0  0  0  0  0  0  0  0
   56.0284   28.9612   43.7548 H   0  0  0  0  0  0  0  0  0  0  0  0
   57.1531   30.5384   42.4783 H   0  0  0  0  0  0  0  0  0  0  0  0
   56.6975   31.8783   43.6565 H   0  0  0  0  0  0  0  0  0  0  0  0
   59.1049   30.4759   43.4737 H   0  0  0  0  0  0  0  0  0  0  0  0
   58.5160   31.6682   44.7366 H   0  0  0  0  0  0  0  0  0  0  0  0
   57.3664   29.2842   45.4640 H   0  0  0  0  0  0  0  0  0  0  0  0
   59.0306   28.8353   44.9331 H   0  0  0  0  0  0  0  0  0  0  0  0
   58.4734   31.1818   46.7886 H   0  0  0  0  0  0  0  0  0  0  0  0
   58.7594   29.5170   47.3913 H   0  0  0  0  0  0  0  0  0  0  0  0
   61.0668   29.7259   47.0245 H   0  0  0  0  0  0  0  0  0  0  0  0
   60.8757   30.2421   45.3835 H   0  0  0  0  0  0  0  0  0  0  0  0
   61.7890   33.5240   45.4760 H   0  0  0  0  0  0  0  0  0  0  0  0
   63.8913   34.5675   46.0597 H   0  0  0  0  0  0  0  0  0  0  0  0
   64.0013   32.2818   49.6472 H   0  0  0  0  0  0  0  0  0  0  0  0
   59.6759   30.8499   50.9225 H   0  0  0  0  0  0  0  0  0  0  0  0
   61.1830   31.4185   51.7545 H   0  0  0  0  0  0  0  0  0  0  0  0
   59.5565   33.2368   51.3621 H   0  0  0  0  0  0  0  0  0  0  0  0
   61.1470   33.4701   50.5030 H   0  0  0  0  0  0  0  0  0  0  0  0
   59.5330   32.2620   48.6680 H   0  0  0  0  0  0  0  0  0  0  0  0
   59.0574   35.0739   49.3312 H   0  0  0  0  0  0  0  0  0  0  0  0
   60.6890   34.6614   48.6894 H   0  0  0  0  0  0  0  0  0  0  0  0
   60.5663   35.6057   46.4302 H   0  0  0  0  0  0  0  0  0  0  0  0
   59.5091   35.4528   44.1846 H   0  0  0  0  0  0  0  0  0  0  0  0
   57.4646   34.1237   43.8308 H   0  0  0  0  0  0  0  0  0  0  0  0
   56.4160   32.8984   45.7507 H   0  0  0  0  0  0  0  0  0  0  0  0
   57.4803   33.0586   47.9831 H   0  0  0  0  0  0  0  0  0  0  0  0
  1  2  1  0
  2  3  1  0
  3  4  1  0
  4  5  1  0
  5  6  1  0
  6  7  1  0
  7  8  2  0
  8  9  1  0
  9 10  1  0
 10 11  2  0
 11 12  1  0
 12 13  2  0
 13 14  1  0
 14 15  1  0
 15 16  1  0
 16 17  1  0
 17 18  1  0
 18 19  1  0
 19 20  2  0
 20 21  1  0
 21 22  2  0
 22 23  1  0
 23 24  2  0
 13  8  1  0
 24 19  1  0
  1 25  1  0
  1 26  1  0
  1 27  1  0
  2 28  1  0
  2 29  1  0
  3 30  1  0
  3 31  1  0
  4 32  1  0
  4 33  1  0
  5 34  1  0
  5 35  1  0
  6 36  1  0
  6 37  1  0
  9 38  1  0
 10 39  1  0
 12 40  1  0
 15 41  1  0
 15 42  1  0
 16 43  1  0
 16 44  1  0
 17 45  1  0
 18 46  1  0
 18 47  1  0
 20 48  1  0
 21 49  1  0
 22 50  1  0
 23 51  1  0
 24 52  1  0
M  END
>  <smiles>  (38) 
CCCCCCN=c1[nH]cncc1SCCNCc1ccccc1

>  <score_type>  (38) 
oracle

>  <origin>  (38) 
adg

>  <m_score__min__energy>  (38) 
-6.8899999999999997

>  <m_primary>  (38) 
energy

$$$$
38:0
     RDKit          3D

 43 44  0  0  0  0  0  0  0  0999 V2000
   59.6590   35.7180   46.2480 C   0  0  0  0  0  0  0  0  0  0  0  0
   59.0500   34.3570   46.0740 C   0  0  0  0  0  0  0  0  0  0  0  0
   58.7630   33.8630   44.7910 C   0  0  0  0  0  0  0  0  0  0  0  0
   58.1890   32.5990   44.6350 C   0  0  0  0  0  0  0  0  0  0  0  0
   57.8740   31.8200   45.7610 C   0  0  0  0  0  0  0  0  0  0  0  0
   57.2880   30.5190   45.6310 N   0  0  0  0  0  0  0  0  0  0  0  0
   56.5320   30.0390   44.5090 C   0  0  0  0  0  0  0  0  0  0  0  0
   55.4620   30.6290   44.2030 O   0  0  0  0  0  0  0  0  0  0  0  0
   57.0050   28.8870   43.6610 C   0  0  0  0  0  0  0  0  0  0  0  0
   58.3900   28.3430   44.0800 C   0  0  0  0  0  0  0  0  0  0  0  0
   58.6790   28.3450   45.5360 N   0  0  1  0  0  0  0  0  0  0  0  0
   58.0900   27.2010   46.2500 C   0  0  0  0  0  0  0  0  0  0  0  0
   60.3820   28.4960   45.9210 S   0  0  0  0  0  0  0  0  0  0  0  0
   60.8850   27.1840   46.4560 O   0  0  0  0  0  0  0  0  0  0  0  0
   61.1700   28.8290   44.6820 O   0  0  0  0  0  0  0  0  0  0  0  0
   60.6480   29.7330   47.1500 C   0  0  0  0  0  0  0  0  0  0  0  0
   61.4670   30.8420   46.8880 C   0  0  0  0  0  0  0  0  0  0  0  0
   61.6580   31.8200   47.8680 C   0  0  0  0  0  0  0  0  0  0  0  0
   61.0370   31.6940   49.1140 C   0  0  0  0  0  0  0  0  0  0  0  0
   60.2240   30.5880   49.3810 C   0  0  0  0  0  0  0  0  0  0  0  0
   60.0300   29.6090   48.4010 C   0  0  0  0  0  0  0  0  0  0  0  0
   58.1890   32.2990   47.0370 C   0  0  0  0  0  0  0  0  0  0  0  0
   58.7630   33.5640   47.1970 C   0  0  0  0  0  0  0  0  0  0  0  0
   59.0390   34.0160   48.4470 F   0  0  0  0  0  0  0  0  0  0  0  0
   59.7587   35.9407   47.3206 H   0  0  0  0  0  0  0  0  0  0  0  0
   60.6521   35.7385   45.7755 H   0  0  0  0  0  0  0  0  0  0  0  0
   59.0125   36.4721   45.7755 H   0  0  0  0  0  0  0  0  0  0  0  0
   58.9912   34.4740   43.9052 H   0  0  0  0  0  0  0  0  0  0  0  0
   57.9828   32.2119   43.6262 H   0  0  0  0  0  0  0  0  0  0  0  0
   56.2714   28.0712   43.7409 H   0  0  0  0  0  0  0  0  0  0  0  0
   57.1015   29.2607   42.6309 H   0  0  0  0  0  0  0  0  0  0  0  0
   58.4652   27.3050   43.7238 H   0  0  0  0  0  0  0  0  0  0  0  0
   59.1246   29.0283   43.6319 H   0  0  0  0  0  0  0  0  0  0  0  0
   58.2210   29.2030   45.9230 H   0  0  0  0  0  0  0  0  0  0  0  0
   58.1736   27.3633   47.3347 H   0  0  0  0  0  0  0  0  0  0  0  0
   57.0295   27.1034   45.9745 H   0  0  0  0  0  0  0  0  0  0  0  0
   58.6266   26.2811   45.9745 H   0  0  0  0  0  0  0  0  0  0  0  0
   61.9596   30.9418   45.9095 H   0  0  0  0  0  0  0  0  0  0  0  0
   62.2978   32.6899   47.6586 H   0  0  0  0  0  0  0  0  0  0  0  0
   61.1878   32.4647   49.8843 H   0  0  0  0  0  0  0  0  0  0  0  0
   59.7368   30.4879   50.3621 H   0  0  0  0  0  0  0  0  0  0  0  0
   59.3905   28.7395   48.6132 H   0  0  0  0  0  0  0  0  0  0  0  0
   57.9838   31.6764   47.9203 H   0  0  0  0  0  0  0  0  0  0  0  0
  1  2  1  0
  2  3  2  0
  3  4  1  0
  4  5  2  0
  5  6  1  0
  6  7  1  0
  7  8  2  0
  7  9  1  0
  9 10  1  0
 10 11  1  0
 11 12  1  0
 11 13  1  0
 13 14  2  0
 13 15  2  0
 13 16  1  0
 16 17  2  0
 17 18  1  0
 18 19  2  0
 19 20  1  0
 20 21  2  0
  5 22  1  0
 22 23  2  0
 23 24  1  0
 23  2  1  0
 21 16  1  0
  1 25  1  0
  1 26  1  0
  1 27  1  0
  3 28  1  0
  4 29  1  0
  9 30  1  0
  9 31  1  0
 10 32  1  0
 10 33  1  0
 11 34  1  1
 12 35  1  0
 12 36  1  0
 12 37  1  0
 17 38  1  0
 18 39  1  0
 19 40  1  0
 20 41  1  0
 21 42  1  0
 22 43  1  0
M  CHG  2   6  -1  11   1
M  END
>  <UniqueID>  (39) 
36

>  <SMILES>  (39) 
Cc1ccc([N-]C(=O)CC[N@@H+](C)S(=O)(=O)c2ccccc2)cc1F

>  <Energy>  (39) 
48.14275181283126

>  <Genealogy>  (39) 
Cc1ccc([N-]C(=O)CC[NH+](C)S(=O)(=O)c2ccccc2)cc1F (protonated)
Cc1ccc([N-]C(=O)CC[N@@H+](C)S(=O)(=O)c2ccccc2)cc1F (chirality)
Cc1ccc([N-]C(=O)CC[N@@H+](C)S(=O)(=O)c2ccccc2)cc1F (3D coordinates assigned)
Cc1ccc([N-]C(=O)CC[N@@H+](C)S(=O)(=O)c2ccccc2)cc1F (optimized conformer: 48.14275181283126 kcal/mol)

>  <smiles>  (39) 
Cc1ccc(NC(=O)CCN(C)S(=O)(=O)c2ccccc2)cc1F

>  <score_type>  (39) 
oracle

>  <origin>  (39) 
adg

>  <m_score__min__energy>  (39) 
-8.8800000000000008

>  <m_primary>  (39) 
energy

$$$$
39:0
     RDKit          3D

 48 50  0  0  0  0  0  0  0  0999 V2000
   58.6840   29.8470   46.8260 C   0  0  0  0  0  0  0  0  0  0  0  0
   57.6800   30.7110   46.3040 O   0  0  0  0  0  0  0  0  0  0  0  0
   57.5650   31.0770   44.9530 C   0  0  0  0  0  0  0  0  0  0  0  0
   57.1500   30.1600   43.9680 C   0  0  0  0  0  0  0  0  0  0  0  0
   57.0720   30.5470   42.6280 C   0  0  0  0  0  0  0  0  0  0  0  0
   57.4050   31.8500   42.2570 C   0  0  0  0  0  0  0  0  0  0  0  0
   57.8140   32.7710   43.2230 C   0  0  0  0  0  0  0  0  0  0  0  0
   57.8900   32.3970   44.5760 C   0  0  0  0  0  0  0  0  0  0  0  0
   58.3150   33.3570   45.5610 N   0  0  0  0  0  0  0  0  0  0  0  0
   57.7710   33.3260   46.9200 C   0  0  0  0  0  0  0  0  0  0  0  0
   58.9060   33.4160   47.9570 C   0  0  0  0  0  0  0  0  0  0  0  0
   60.0530   34.2700   47.5330 N   0  0  0  0  0  0  0  0  0  0  0  0
   61.4680   33.2970   47.1740 S   0  0  0  0  0  0  0  0  0  0  0  0
   61.0480   31.8730   46.9420 O   0  0  0  0  0  0  0  0  0  0  0  0
   62.1380   33.7980   45.9230 O   0  0  0  0  0  0  0  0  0  0  0  0
   62.6140   33.3300   48.5210 C   0  0  0  0  0  0  0  0  0  0  0  0
   63.9470   32.9460   48.3130 C   0  0  0  0  0  0  0  0  0  0  0  0
   64.8650   32.9860   49.3640 C   0  0  0  0  0  0  0  0  0  0  0  0
   64.4600   33.4110   50.6290 C   0  0  0  0  0  0  0  0  0  0  0  0
   63.1370   33.8000   50.8480 C   0  0  0  0  0  0  0  0  0  0  0  0
   62.2000   33.7660   49.7960 C   0  0  0  0  0  0  0  0  0  0  0  0
   60.8640   34.1570   49.9800 O   0  0  0  0  0  0  0  0  0  0  0  0
   60.0260   33.6990   51.0370 C   0  0  0  0  0  0  0  0  0  0  0  0
   59.7260   35.1940   46.4240 C   0  0  0  0  0  0  0  0  0  0  0  0
   59.2120   34.4510   45.1800 C   0  0  0  0  0  0  0  0  0  0  0  0
   58.6544   29.8725   47.9253 H   0  0  0  0  0  0  0  0  0  0  0  0
   58.5008   28.8197   46.4780 H   0  0  0  0  0  0  0  0  0  0  0  0
   59.6725   30.1812   46.4780 H   0  0  0  0  0  0  0  0  0  0  0  0
   56.8854   29.1318   44.2558 H   0  0  0  0  0  0  0  0  0  0  0  0
   56.7479   29.8240   41.8650 H   0  0  0  0  0  0  0  0  0  0  0  0
   57.3451   32.1523   41.2010 H   0  0  0  0  0  0  0  0  0  0  0  0
   58.0785   33.7959   42.9236 H   0  0  0  0  0  0  0  0  0  0  0  0
   57.0879   34.1774   47.0561 H   0  0  0  0  0  0  0  0  0  0  0  0
   57.2302   32.3792   47.0654 H   0  0  0  0  0  0  0  0  0  0  0  0
   58.4915   33.8315   48.8874 H   0  0  0  0  0  0  0  0  0  0  0  0
   59.3000   32.3969   48.0848 H   0  0  0  0  0  0  0  0  0  0  0  0
   60.3210   34.8650   48.3510 H   0  0  0  0  0  0  0  0  0  0  0  0
   64.2708   32.6115   47.3163 H   0  0  0  0  0  0  0  0  0  0  0  0
   65.9085   32.6821   49.1942 H   0  0  0  0  0  0  0  0  0  0  0  0
   65.1845   33.4398   51.4562 H   0  0  0  0  0  0  0  0  0  0  0  0
   62.8242   34.1351   51.8479 H   0  0  0  0  0  0  0  0  0  0  0  0
   60.4856   33.9502   52.0043 H   0  0  0  0  0  0  0  0  0  0  0  0
   59.0419   34.1847   50.9614 H   0  0  0  0  0  0  0  0  0  0  0  0
   59.9034   32.6085   50.9614 H   0  0  0  0  0  0  0  0  0  0  0  0
   58.9491   35.8945   46.7642 H   0  0  0  0  0  0  0  0  0  0  0  0
   60.6483   35.7237   46.1433 H   0  0  0  0  0  0  0  0  0  0  0  0
   58.6662   35.1578   44.5377 H   0  0  0  0  0  0  0  0  0  0  0  0
   60.0729   34.0294   44.6404 H   0  0  0  0  0  0  0  0  0  0  0  0
  1  2  1  0
  2  3  1  0
  3  4  2  0
  4  5  1  0
  5  6  2  0
  6  7  1  0
  7  8  2  0
  8  9  1  0
  9 10  1  0
 10 11  1  0
 11 12  1  0
 12 13  1  0
 13 14  2  0
 13 15  2  0
 13 16  1  0
 16 17  2  0
 17 18  1  0
 18 19  2  0
 19 20  1  0
 20 21  2  0
 21 22  1  0
 22 23  1  0
 12 24  1  0
 24 25  1  0
  8  3  1  0
 25  9  1  0
 21 16  1  0
  1 26  1  0
  1 27  1  0
  1 28  1  0
  4 29  1  0
  5 30  1  0
  6 31  1  0
  7 32  1  0
 10 33  1  0
 10 34  1  0
 11 35  1  0
 11 36  1  0
 12 37  1  0
 17 38  1  0
 18 39  1  0
 19 40  1  0
 20 41  1  0
 23 42  1  0
 23 43  1  0
 23 44  1  0
 24 45  1  0
 24 46  1  0
 25 47  1  0
 25 48  1  0
M  CHG  1  12   1
M  END
>  <UniqueID>  (40) 
37

>  <SMILES>  (40) 
COc1ccccc1N1CC[NH+](S(=O)(=O)c2ccccc2OC)CC1

>  <Energy>  (40) 
58.93681350385244

>  <Genealogy>  (40) 
COc1ccccc1N1CC[NH+](S(=O)(=O)c2ccccc2OC)CC1 (protonated)
COc1ccccc1N1CC[NH+](S(=O)(=O)c2ccccc2OC)CC1 (3D coordinates assigned)
COc1ccccc1N1CC[NH+](S(=O)(=O)c2ccccc2OC)CC1 (nonaromatic ring conformer: 58.93681350385244 kcal/mol)

>  <smiles>  (40) 
COc1ccccc1N1CCN(S(=O)(=O)c2ccccc2OC)CC1

>  <score_type>  (40) 
oracle

>  <origin>  (40) 
adg

>  <m_score__min__energy>  (40) 
-5.9500000000000002

>  <m_primary>  (40) 
energy

$$$$
40:0
     RDKit          3D

 38 40  0  0  0  0  0  0  0  0999 V2000
   54.7360   24.6650   45.6160 C   0  0  0  0  0  0  0  0  0  0  0  0
   55.3400   25.9440   45.9980 N   0  0  0  0  0  0  0  0  0  0  0  0
   56.5640   25.7550   46.7930 C   0  0  0  0  0  0  0  0  0  0  0  0
   57.7030   26.6870   46.3460 C   0  0  0  0  0  0  0  0  0  0  0  0
   57.4380   27.2150   45.0470 O   0  0  0  0  0  0  0  0  0  0  0  0
   57.5390   28.5680   44.6770 C   0  0  0  0  0  0  0  0  0  0  0  0
   58.1840   29.5240   45.4850 C   0  0  0  0  0  0  0  0  0  0  0  0
   58.2590   30.8640   45.0650 C   0  0  0  0  0  0  0  0  0  0  0  0
   57.6420   31.2300   43.8510 C   0  0  0  0  0  0  0  0  0  0  0  0
   57.0320   30.2440   43.0660 C   0  0  0  0  0  0  0  0  0  0  0  0
   56.9940   28.9540   43.4910 N   0  0  0  0  0  0  0  0  0  0  0  0
   57.7070   32.6560   43.3650 C   0  0  0  0  0  0  0  0  0  0  0  0
   57.6340   33.6380   44.5390 C   0  0  0  0  0  0  0  0  0  0  0  0
   58.6390   33.2810   45.6060 C   0  0  0  0  0  0  0  0  0  0  0  0
   59.2350   34.2950   46.3720 C   0  0  0  0  0  0  0  0  0  0  0  0
   60.1440   33.9730   47.3800 C   0  0  0  0  0  0  0  0  0  0  0  0
   60.4640   32.6390   47.6330 C   0  0  0  0  0  0  0  0  0  0  0  0
   59.8640   31.6190   46.8900 C   0  0  0  0  0  0  0  0  0  0  0  0
   58.9260   31.9240   45.8820 C   0  0  0  0  0  0  0  0  0  0  0  0
   54.4694   24.1004   46.5216 H   0  0  0  0  0  0  0  0  0  0  0  0
   53.8304   24.8507   45.0198 H   0  0  0  0  0  0  0  0  0  0  0  0
   55.4547   24.0836   45.0198 H   0  0  0  0  0  0  0  0  0  0  0  0
   55.5580   26.4870   45.1300 H   0  0  0  0  0  0  0  0  0  0  0  0
   56.3343   25.9592   47.8492 H   0  0  0  0  0  0  0  0  0  0  0  0
   56.9020   24.7184   46.6472 H   0  0  0  0  0  0  0  0  0  0  0  0
   57.7934   27.5169   47.0623 H   0  0  0  0  0  0  0  0  0  0  0  0
   58.6398   26.1115   46.3111 H   0  0  0  0  0  0  0  0  0  0  0  0
   58.6292   29.2227   46.4447 H   0  0  0  0  0  0  0  0  0  0  0  0
   56.5811   30.5152   42.1000 H   0  0  0  0  0  0  0  0  0  0  0  0
   56.5250   28.2410   42.8890 H   0  0  0  0  0  0  0  0  0  0  0  0
   58.6531   32.8097   42.8253 H   0  0  0  0  0  0  0  0  0  0  0  0
   56.8506   32.8397   42.6995 H   0  0  0  0  0  0  0  0  0  0  0  0
   57.8443   34.6535   44.1721 H   0  0  0  0  0  0  0  0  0  0  0  0
   56.6259   33.5872   44.9761 H   0  0  0  0  0  0  0  0  0  0  0  0
   58.9842   35.3481   46.1766 H   0  0  0  0  0  0  0  0  0  0  0  0
   60.6090   34.7720   47.9761 H   0  0  0  0  0  0  0  0  0  0  0  0
   61.1910   32.3893   48.4199 H   0  0  0  0  0  0  0  0  0  0  0  0
   60.1253   30.5699   47.0929 H   0  0  0  0  0  0  0  0  0  0  0  0
  1  2  1  0
  2  3  1  0
  3  4  1  0
  4  5  1  0
  5  6  1  0
  6  7  2  0
  7  8  1  0
  8  9  2  0
  9 10  1  0
 10 11  2  0
  9 12  1  0
 12 13  1  0
 13 14  1  0
 14 15  2  0
 15 16  1  0
 16 17  2  0
 17 18  1  0
 18 19  2  0
 11  6  1  0
 19 14  1  0
 19  8  1  0
  1 20  1  0
  1 21  1  0
  1 22  1  0
  2 23  1  0
  3 24  1  0
  3 25  1  0
  4 26  1  0
  4 27  1  0
  7 28  1  0
 10 29  1  0
 11 30  1  0
 12 31  1  0
 12 32  1  0
 13 33  1  0
 13 34  1  0
 15 35  1  0
 16 36  1  0
 17 37  1  0
 18 38  1  0
M  CHG  1  11   1
M  END
>  <UniqueID>  (41) 
38

>  <SMILES>  (41) 
CNCCOc1cc2c(c[nH+]1)CCc1ccccc1-2

>  <Energy>  (41) 
43.907688087865964

>  <Genealogy>  (41) 
CNCCOc1cc2c(c[nH+]1)CCc1ccccc1-2 (protonated)
CNCCOc1cc2c(c[nH+]1)CCc1ccccc1-2 (3D coordinates assigned)
CNCCOc1cc2c(c[nH+]1)CCc1ccccc1-2 (nonaromatic ring conformer: 43.907688087865964 kcal/mol)

>  <smiles>  (41) 
CNCCOc1cc2c(cn1)CCc1ccccc1-2

>  <score_type>  (41) 
oracle

>  <origin>  (41) 
adg

>  <m_score__min__energy>  (41) 
-6.1799999999999997

>  <m_primary>  (41) 
energy

$$$$
41:0
     RDKit          3D

 52 55  0  0  0  0  0  0  0  0999 V2000
   59.4720   33.4850   51.2320 C   0  0  0  0  0  0  0  0  0  0  0  0
   60.0770   33.8460   49.9950 O   0  0  0  0  0  0  0  0  0  0  0  0
   59.5440   33.5420   48.7340 C   0  0  0  0  0  0  0  0  0  0  0  0
   59.3420   34.5910   47.8310 C   0  0  0  0  0  0  0  0  0  0  0  0
   58.8110   34.3460   46.5620 C   0  0  0  0  0  0  0  0  0  0  0  0
   58.4750   33.0360   46.1760 C   0  0  0  0  0  0  0  0  0  0  0  0
   57.9390   32.7450   44.9100 C   0  0  0  0  0  0  0  0  0  0  0  0
   57.7370   33.6690   44.0770 O   0  0  0  0  0  0  0  0  0  0  0  0
   57.6280   31.4140   44.5840 C   0  0  0  0  0  0  0  0  0  0  0  0
   57.0830   31.0640   43.3360 C   0  0  0  0  0  0  0  0  0  0  0  0
   56.7830   29.7320   43.0500 C   0  0  0  0  0  0  0  0  0  0  0  0
   57.0220   28.7370   43.9970 C   0  0  0  0  0  0  0  0  0  0  0  0
   57.5650   29.0600   45.2510 C   0  0  0  0  0  0  0  0  0  0  0  0
   57.7520   27.9690   46.2750 C   0  0  0  0  0  0  0  0  0  0  0  0
   56.7920   26.8540   46.0100 C   0  0  0  0  0  0  0  0  0  0  0  0
   55.5550   27.0920   45.9460 O   0  0  0  0  0  0  0  0  0  0  0  0
   57.2920   25.5370   45.7570 N   0  0  0  0  0  0  0  0  0  0  0  0
   57.3930   24.5160   46.7900 C   0  0  0  0  0  0  0  0  0  0  0  0
   56.1560   23.6180   46.7390 C   0  0  0  0  0  0  0  0  0  0  0  0
   56.0840   22.8840   45.4570 N   0  0  0  0  0  0  0  0  0  0  0  0
   57.4270   22.4430   45.0350 C   0  0  0  0  0  0  0  0  0  0  0  0
   57.3320   21.6180   43.7310 C   0  0  0  0  0  0  0  0  0  0  0  0
   56.1220   21.8360   43.0220 O   0  0  0  0  0  0  0  0  0  0  0  0
   55.8270   23.2130   42.9870 C   0  0  0  0  0  0  0  0  0  0  0  0
   55.4440   23.7020   44.3960 C   0  0  0  0  0  0  0  0  0  0  0  0
   57.8650   30.4070   45.5500 C   0  0  0  0  0  0  0  0  0  0  0  0
   58.3690   30.7290   46.7380 O   0  0  0  0  0  0  0  0  0  0  0  0
   58.6790   31.9730   47.0820 C   0  0  0  0  0  0  0  0  0  0  0  0
   59.2100   32.2270   48.3510 C   0  0  0  0  0  0  0  0  0  0  0  0
   60.0901   33.8538   52.0639 H   0  0  0  0  0  0  0  0  0  0  0  0
   58.4690   33.9324   51.2940 H   0  0  0  0  0  0  0  0  0  0  0  0
   59.3894   32.3899   51.2940 H   0  0  0  0  0  0  0  0  0  0  0  0
   59.6037   35.6188   48.1228 H   0  0  0  0  0  0  0  0  0  0  0  0
   58.6552   35.1805   45.8625 H   0  0  0  0  0  0  0  0  0  0  0  0
   56.8926   31.8429   42.5829 H   0  0  0  0  0  0  0  0  0  0  0  0
   56.3556   29.4653   42.0721 H   0  0  0  0  0  0  0  0  0  0  0  0
   56.7831   27.6898   43.7597 H   0  0  0  0  0  0  0  0  0  0  0  0
   58.7815   27.5859   46.2163 H   0  0  0  0  0  0  0  0  0  0  0  0
   57.5647   28.3779   47.2789 H   0  0  0  0  0  0  0  0  0  0  0  0
   58.2944   23.9091   46.6193 H   0  0  0  0  0  0  0  0  0  0  0  0
   57.4575   24.9970   47.7771 H   0  0  0  0  0  0  0  0  0  0  0  0
   56.2034   22.8938   47.5656 H   0  0  0  0  0  0  0  0  0  0  0  0
   55.2607   24.2506   46.8304 H   0  0  0  0  0  0  0  0  0  0  0  0
   58.0614   23.3248   44.8618 H   0  0  0  0  0  0  0  0  0  0  0  0
   57.8641   21.8158   45.8259 H   0  0  0  0  0  0  0  0  0  0  0  0
   58.1742   21.8943   43.0796 H   0  0  0  0  0  0  0  0  0  0  0  0
   57.3608   20.5549   44.0122 H   0  0  0  0  0  0  0  0  0  0  0  0
   56.7104   23.7666   42.6362 H   0  0  0  0  0  0  0  0  0  0  0  0
   54.9841   23.3859   42.3017 H   0  0  0  0  0  0  0  0  0  0  0  0
   55.7661   24.7476   44.5097 H   0  0  0  0  0  0  0  0  0  0  0  0
   54.3533   23.6100   44.5049 H   0  0  0  0  0  0  0  0  0  0  0  0
   59.3679   31.3959   49.0541 H   0  0  0  0  0  0  0  0  0  0  0  0
  1  2  1  0
  2  3  1  0
  3  4  2  0
  4  5  1  0
  5  6  2  0
  6  7  1  0
  7  8  2  0
  7  9  1  0
  9 10  2  0
 10 11  1  0
 11 12  2  0
 12 13  1  0
 13 14  1  0
 14 15  1  0
 15 16  2  0
 15 17  1  0
 17 18  1  0
 18 19  1  0
 19 20  1  0
 20 21  1  0
 21 22  1  0
 22 23  1  0
 23 24  1  0
 24 25  1  0
 13 26  2  0
 26 27  1  0
 27 28  1  0
 28 29  2  0
 29  3  1  0
 28  6  1  0
 26  9  1  0
 25 20  1  0
  1 30  1  0
  1 31  1  0
  1 32  1  0
  4 33  1  0
  5 34  1  0
 10 35  1  0
 11 36  1  0
 12 37  1  0
 14 38  1  0
 14 39  1  0
 18 40  1  0
 18 41  1  0
 19 42  1  0
 19 43  1  0
 21 44  1  0
 21 45  1  0
 22 46  1  0
 22 47  1  0
 24 48  1  0
 24 49  1  0
 25 50  1  0
 25 51  1  0
 29 52  1  0
M  CHG  1  17  -1
M  END
>  <UniqueID>  (42) 
39

>  <SMILES>  (42) 
COc1ccc2c(=O)c3cccc(CC(=O)[N-]CCN4CCOCC4)c3oc2c1

>  <Energy>  (42) 
67.97369756465362

>  <Genealogy>  (42) 
COc1ccc2c(=O)c3cccc(CC(=O)[N-]CCN4CCOCC4)c3oc2c1 (protonated)
COc1ccc2c(=O)c3cccc(CC(=O)[N-]CCN4CCOCC4)c3oc2c1 (3D coordinates assigned)
COc1ccc2c(=O)c3cccc(CC(=O)[N-]CCN4CCOCC4)c3oc2c1 (nonaromatic ring conformer: 67.97369756465362 kcal/mol)

>  <smiles>  (42) 
COc1ccc2c(=O)c3cccc(CC(=O)NCCN4CCOCC4)c3oc2c1

>  <score_type>  (42) 
oracle

>  <origin>  (42) 
adg

>  <m_score__min__energy>  (42) 
-10.83

>  <m_primary>  (42) 
energy

$$$$
42:0
     RDKit          3D

 25 26  0  0  0  0  0  0  0  0999 V2000
   57.0430   34.2170   45.2240 C   0  0  0  0  0  0  0  0  0  0  0  0
   56.9620   32.8080   45.4080 O   0  0  0  0  0  0  0  0  0  0  0  0
   58.0440   31.9860   45.7650 C   0  0  0  0  0  0  0  0  0  0  0  0
   59.0600   32.4340   46.6280 C   0  0  0  0  0  0  0  0  0  0  0  0
   60.1210   31.5950   46.9630 C   0  0  0  0  0  0  0  0  0  0  0  0
   60.1810   30.2990   46.4540 C   0  0  0  0  0  0  0  0  0  0  0  0
   59.1760   29.8190   45.5960 C   0  0  0  0  0  0  0  0  0  0  0  0
   58.1090   30.6790   45.2410 C   0  0  0  0  0  0  0  0  0  0  0  0
   56.8640   30.1260   44.1210 S   0  0  0  0  0  0  0  0  0  0  0  0
   55.5720   29.9160   44.8590 O   0  0  0  0  0  0  0  0  0  0  0  0
   56.6670   31.1330   43.0220 O   0  0  0  0  0  0  0  0  0  0  0  0
   57.4050   28.5910   43.4090 C   0  0  0  0  0  0  0  0  0  0  0  0
   58.0590   27.7330   44.4840 C   0  0  0  0  0  0  0  0  0  0  0  0
   59.2540   28.4230   45.0850 C   0  0  0  0  0  0  0  0  0  0  0  0
   60.3300   27.7730   45.1990 O   0  0  0  0  0  0  0  0  0  0  0  0
   57.0716   34.7138   46.2050 H   0  0  0  0  0  0  0  0  0  0  0  0
   57.9567   34.4615   44.6624 H   0  0  0  0  0  0  0  0  0  0  0  0
   56.1634   34.5646   44.6624 H   0  0  0  0  0  0  0  0  0  0  0  0
   59.0169   33.4526   47.0410 H   0  0  0  0  0  0  0  0  0  0  0  0
   60.9150   31.9574   47.6325 H   0  0  0  0  0  0  0  0  0  0  0  0
   61.0228   29.6453   46.7262 H   0  0  0  0  0  0  0  0  0  0  0  0
   56.5397   28.0565   42.9899 H   0  0  0  0  0  0  0  0  0  0  0  0
   58.1334   28.7948   42.6103 H   0  0  0  0  0  0  0  0  0  0  0  0
   57.3246   27.5325   45.2780 H   0  0  0  0  0  0  0  0  0  0  0  0
   58.3977   26.7949   44.0200 H   0  0  0  0  0  0  0  0  0  0  0  0
  1  2  1  0
  2  3  1  0
  3  4  2  0
  4  5  1  0
  5  6  2  0
  6  7  1  0
  7  8  2  0
  8  9  1  0
  9 10  2  0
  9 11  2  0
  9 12  1  0
 12 13  1  0
 13 14  1  0
 14 15  2  0
  8  3  1  0
 14  7  1  0
  1 16  1  0
  1 17  1  0
  1 18  1  0
  4 19  1  0
  5 20  1  0
  6 21  1  0
 12 22  1  0
 12 23  1  0
 13 24  1  0
 13 25  1  0
M  END
>  <UniqueID>  (43) 
40

>  <SMILES>  (43) 
COc1cccc2c1S(=O)(=O)CCC2=O

>  <Energy>  (43) 
25.098252241883298

>  <Genealogy>  (43) 
COc1cccc2c1S(=O)(=O)CCC2=O (3D coordinates assigned)
COc1cccc2c1S(=O)(=O)CCC2=O (nonaromatic ring conformer: 25.098252241883298 kcal/mol)

>  <smiles>  (43) 
COc1cccc2c1S(=O)(=O)CCC2=O

>  <score_type>  (43) 
oracle

>  <origin>  (43) 
adg

>  <m_score__min__energy>  (43) 
-5.9500000000000002

>  <m_primary>  (43) 
energy

$$$$
43:0
     RDKit          3D

 54 57  0  0  0  0  0  0  0  0999 V2000
   58.2580   22.5220   44.5020 C   0  0  0  0  0  0  0  0  0  0  0  0
   57.4260   23.6860   44.1760 N   0  0  0  0  0  0  0  0  0  0  0  0
   56.2720   23.5060   43.2860 C   0  0  0  0  0  0  0  0  0  0  0  0
   57.7370   24.9930   44.7260 C   0  0  0  0  0  0  0  0  0  0  0  0
   58.0120   25.1540   46.1000 C   0  0  0  0  0  0  0  0  0  0  0  0
   58.3100   26.4130   46.6280 C   0  0  0  0  0  0  0  0  0  0  0  0
   58.3430   27.5480   45.8010 C   0  0  0  0  0  0  0  0  0  0  0  0
   58.6610   28.8840   46.3650 C   0  0  0  0  0  0  0  0  0  0  0  0
   58.6660   29.0900   47.7560 C   0  0  0  0  0  0  0  0  0  0  0  0
   58.9670   30.3480   48.2860 C   0  0  0  0  0  0  0  0  0  0  0  0
   59.2820   31.4210   47.4380 C   0  0  0  0  0  0  0  0  0  0  0  0
   59.6020   32.7880   48.0150 C   0  0  0  0  0  0  0  0  0  0  0  0
   61.0560   33.0380   48.2670 N   0  0  2  0  0  0  0  0  0  0  0  0
   61.6810   31.7380   48.6670 C   0  0  0  0  0  0  0  0  0  0  0  0
   63.1860   31.8980   48.9900 C   0  0  0  0  0  0  0  0  0  0  0  0
   63.6040   33.3570   48.7480 C   0  0  2  0  0  0  0  0  0  0  0  0
   62.7580   34.2330   49.6880 C   0  0  0  0  0  0  0  0  0  0  0  0
   61.2520   34.0260   49.3740 C   0  0  0  0  0  0  0  0  0  0  0  0
   63.2640   33.7590   47.2930 C   0  0  1  0  0  0  0  0  0  0  0  0
   64.0720   33.0790   46.3620 O   0  0  0  0  0  0  0  0  0  0  0  0
   61.7420   33.5350   47.0360 C   0  0  0  0  0  0  0  0  0  0  0  0
   59.2630   31.2210   46.0490 C   0  0  0  0  0  0  0  0  0  0  0  0
   58.9600   29.9650   45.5180 C   0  0  0  0  0  0  0  0  0  0  0  0
   58.0690   27.3940   44.4330 C   0  0  0  0  0  0  0  0  0  0  0  0
   57.7700   26.1370   43.9030 C   0  0  0  0  0  0  0  0  0  0  0  0
   58.3319   22.4186   45.5946 H   0  0  0  0  0  0  0  0  0  0  0  0
   57.8022   21.6152   44.0779 H   0  0  0  0  0  0  0  0  0  0  0  0
   59.2636   22.6597   44.0779 H   0  0  0  0  0  0  0  0  0  0  0  0
   55.3628   23.3642   43.8887 H   0  0  0  0  0  0  0  0  0  0  0  0
   56.1560   24.3969   42.6513 H   0  0  0  0  0  0  0  0  0  0  0  0
   56.4328   22.6221   42.6513 H   0  0  0  0  0  0  0  0  0  0  0  0
   57.9916   24.2775   46.7643 H   0  0  0  0  0  0  0  0  0  0  0  0
   58.5210   26.5164   47.7026 H   0  0  0  0  0  0  0  0  0  0  0  0
   58.4313   28.2548   48.4323 H   0  0  0  0  0  0  0  0  0  0  0  0
   58.9569   30.4980   49.3757 H   0  0  0  0  0  0  0  0  0  0  0  0
   59.2410   33.5505   47.3091 H   0  0  0  0  0  0  0  0  0  0  0  0
   59.1053   32.8344   48.9954 H   0  0  0  0  0  0  0  0  0  0  0  0
   61.1644   31.3544   49.5592 H   0  0  0  0  0  0  0  0  0  0  0  0
   61.5853   31.0391   47.8230 H   0  0  0  0  0  0  0  0  0  0  0  0
   63.3663   31.6337   50.0424 H   0  0  0  0  0  0  0  0  0  0  0  0
   63.7753   31.2330   48.3415 H   0  0  0  0  0  0  0  0  0  0  0  0
   64.6824   33.4813   48.9259 H   0  0  0  0  0  0  0  0  0  0  0  0
   62.9572   33.9489   50.7318 H   0  0  0  0  0  0  0  0  0  0  0  0
   63.0212   35.2906   49.5388 H   0  0  0  0  0  0  0  0  0  0  0  0
   60.7455   33.6562   50.2777 H   0  0  0  0  0  0  0  0  0  0  0  0
   60.8287   34.9904   49.0564 H   0  0  0  0  0  0  0  0  0  0  0  0
   63.4837   34.8280   47.1552 H   0  0  0  0  0  0  0  0  0  0  0  0
   64.7980   32.6170   46.8560 H   0  0  0  0  0  0  0  0  0  0  0  0
   61.2853   34.4878   46.7300 H   0  0  0  0  0  0  0  0  0  0  0  0
   61.6288   32.7801   46.2440 H   0  0  0  0  0  0  0  0  0  0  0  0
   59.4884   32.0594   45.3735 H   0  0  0  0  0  0  0  0  0  0  0  0
   58.9554   29.8207   44.4275 H   0  0  0  0  0  0  0  0  0  0  0  0
   58.0900   28.2726   43.7715 H   0  0  0  0  0  0  0  0  0  0  0  0
   57.5573   26.0382   42.8283 H   0  0  0  0  0  0  0  0  0  0  0  0
  1  2  1  0
  2  3  1  0
  2  4  1  0
  4  5  2  0
  5  6  1  0
  6  7  2  0
  7  8  1  0
  8  9  2  0
  9 10  1  0
 10 11  2  0
 11 12  1  0
 13 12  1  6
 13 14  1  0
 14 15  1  0
 15 16  1  0
 16 17  1  0
 17 18  1  0
 16 19  1  0
 19 20  1  0
 19 21  1  0
 11 22  1  0
 22 23  2  0
  7 24  1  0
 24 25  2  0
 25  4  1  0
 23  8  1  0
 18 13  1  0
 21 13  1  0
  1 26  1  0
  1 27  1  0
  1 28  1  0
  3 29  1  0
  3 30  1  0
  3 31  1  0
  5 32  1  0
  6 33  1  0
  9 34  1  0
 10 35  1  0
 12 36  1  0
 12 37  1  0
 14 38  1  0
 14 39  1  0
 15 40  1  0
 15 41  1  0
 16 42  1  1
 17 43  1  0
 17 44  1  0
 18 45  1  0
 18 46  1  0
 19 47  1  1
 20 48  1  0
 21 49  1  0
 21 50  1  0
 22 51  1  0
 23 52  1  0
 24 53  1  0
 25 54  1  0
M  CHG  1  13   1
M  END
>  <UniqueID>  (44) 
41

>  <SMILES>  (44) 
CN(C)c1ccc(-c2ccc(C[N+]34CCC(CC3)[C@@H](O)C4)cc2)cc1

>  <Energy>  (44) 
84.61046270786044

>  <Genealogy>  (44) 
CN(C)c1ccc(-c2ccc(C[N+]34CCC(CC3)[C@@H](O)C4)cc2)cc1 (chirality)
CN(C)c1ccc(-c2ccc(C[N+]34CCC(CC3)[C@@H](O)C4)cc2)cc1 (3D coordinates assigned)
CN(C)c1ccc(-c2ccc(C[N+]34CCC(CC3)[C@@H](O)C4)cc2)cc1 (nonaromatic ring conformer: 84.61046270786044 kcal/mol)

>  <smiles>  (44) 
CN(C)c1ccc(-c2ccc(C[N+]34CCC(CC3)C(O)C4)cc2)cc1

>  <score_type>  (44) 
oracle

>  <origin>  (44) 
adg

>  <m_score__min__energy>  (44) 
-5.9900000000000002

>  <m_primary>  (44) 
energy

$$$$
44:0
     RDKit          3D

 28 30  0  0  1  0  0  0  0  0999 V2000
   59.9880   34.9430   46.9280 C   0  0  0  0  0  0  0  0  0  0  0  0
   59.6220   34.2700   48.0360 C   0  0  0  0  0  0  0  0  0  0  0  0
   58.1960   33.1600   47.5100 S   0  0  0  0  0  0  0  0  0  0  0  0
   58.3480   33.8230   45.8230 C   0  0  0  0  0  0  0  0  0  0  0  0
   57.3890   33.3160   44.6640 C   0  0  0  0  0  0  0  0  0  0  0  0
   57.1380   32.0320   45.1340 N   0  0  0  0  0  0  0  0  0  0  0  0
   57.2710   30.9340   44.5780 C   0  0  0  0  0  0  0  0  0  0  0  0
   56.3750   30.5610   43.6460 N   0  0  0  0  0  0  0  0  0  0  0  0
   56.4020   29.3880   42.9960 C   0  0  0  0  0  0  0  0  0  0  0  0
   57.3950   28.5420   43.3080 N   0  0  0  0  0  0  0  0  0  0  0  0
   58.3090   28.8750   44.2310 C   0  0  0  0  0  0  0  0  0  0  0  0
   59.2970   27.9500   44.4900 C   0  0  0  0  0  0  0  0  0  0  0  0
   60.2280   28.3140   45.4360 C   0  0  0  0  0  0  0  0  0  0  0  0
   60.2220   29.4900   46.1010 C   0  0  0  0  0  0  0  0  0  0  0  0
   59.2080   30.4540   45.8450 C   0  0  0  0  0  0  0  0  0  0  0  0
   58.2920   30.0920   44.9140 C   0  0  0  0  0  0  0  0  0  0  0  0
   59.3440   34.7260   45.7780 C   0  0  0  0  0  0  0  0  0  0  0  0
   60.8139   35.6684   46.9701 H   0  0  0  0  0  0  0  0  0  0  0  0
   60.0646   34.3521   49.0397 H   0  0  0  0  0  0  0  0  0  0  0  0
   56.4703   33.9172   44.5965 H   0  0  0  0  0  0  0  0  0  0  0  0
   57.8047   33.3743   43.6472 H   0  0  0  0  0  0  0  0  0  0  0  0
   55.5960   31.2100   43.3920 H   0  0  0  0  0  0  0  0  0  0  0  0
   55.6441   29.1314   42.2412 H   0  0  0  0  0  0  0  0  0  0  0  0
   59.3390   26.9803   43.9725 H   0  0  0  0  0  0  0  0  0  0  0  0
   61.0315   27.5989   45.6663 H   0  0  0  0  0  0  0  0  0  0  0  0
   61.0049   29.7029   46.8438 H   0  0  0  0  0  0  0  0  0  0  0  0
   59.1700   31.4227   46.3647 H   0  0  0  0  0  0  0  0  0  0  0  0
   59.6118   35.2536   44.8507 H   0  0  0  0  0  0  0  0  0  0  0  0
  1  2  2  0
  2  3  1  0
  3  4  1  0
  4  5  1  0
  5  6  1  0
  6  7  2  0
  7  8  1  0
  8  9  1  0
  9 10  2  0
 10 11  1  0
 11 12  2  0
 12 13  1  0
 13 14  2  0
 14 15  1  0
 15 16  2  0
  4 17  2  0
 17  1  1  0
 16  7  1  0
 16 11  1  0
  1 18  1  0
  2 19  1  0
  5 20  1  0
  5 21  1  0
  8 22  1  0
  9 23  1  0
 12 24  1  0
 13 25  1  0
 14 26  1  0
 15 27  1  0
 17 28  1  0
M  END
>  <smiles>  (45) 
c1csc(CN=c2[nH]cnc3ccccc23)c1

>  <score_type>  (45) 
oracle

>  <origin>  (45) 
adg

>  <m_score__min__energy>  (45) 
-6.21

>  <m_primary>  (45) 
energy

$$$$
45:0
     RDKit          3D

 41 44  0  0  0  0  0  0  0  0999 V2000
   58.0320   25.1350   45.1180 C   0  0  0  0  0  0  0  0  0  0  0  0
   57.7690   26.2740   46.0040 N   0  0  0  0  0  0  0  0  0  0  0  0
   58.5940   26.4440   47.2110 C   0  0  0  0  0  0  0  0  0  0  0  0
   59.3650   27.7340   47.1370 C   0  0  0  0  0  0  0  0  0  0  0  0
   59.3870   28.6200   48.2270 C   0  0  0  0  0  0  0  0  0  0  0  0
   60.0860   29.8280   48.1400 C   0  0  0  0  0  0  0  0  0  0  0  0
   60.7650   30.1620   46.9640 C   0  0  0  0  0  0  0  0  0  0  0  0
   61.4420   31.3340   46.8810 F   0  0  0  0  0  0  0  0  0  0  0  0
   60.7450   29.2870   45.8740 C   0  0  0  0  0  0  0  0  0  0  0  0
   60.0460   28.0790   45.9570 C   0  0  0  0  0  0  0  0  0  0  0  0
   56.7290   27.2410   45.7120 C   0  0  0  0  0  0  0  0  0  0  0  0
   55.5210   26.9130   45.8700 O   0  0  0  0  0  0  0  0  0  0  0  0
   57.0130   28.6120   45.2290 C   0  0  0  0  0  0  0  0  0  0  0  0
   56.9600   29.0110   43.8940 C   0  0  0  0  0  0  0  0  0  0  0  0
   57.2920   30.3450   43.9230 C   0  0  0  0  0  0  0  0  0  0  0  0
   57.4090   31.2880   42.9070 C   0  0  0  0  0  0  0  0  0  0  0  0
   57.7610   32.5660   43.2430 N   0  0  0  0  0  0  0  0  0  0  0  0
   57.9990   32.9310   44.5470 C   0  0  0  0  0  0  0  0  0  0  0  0
   58.3600   34.2490   44.8680 C   0  0  0  0  0  0  0  0  0  0  0  0
   58.5990   34.6070   46.1990 C   0  0  0  0  0  0  0  0  0  0  0  0
   58.4820   33.6580   47.2210 C   0  0  0  0  0  0  0  0  0  0  0  0
   58.1240   32.3390   46.9200 C   0  0  0  0  0  0  0  0  0  0  0  0
   57.8830   31.9720   45.5900 C   0  0  0  0  0  0  0  0  0  0  0  0
   57.5220   30.6770   45.2250 C   0  0  0  0  0  0  0  0  0  0  0  0
   57.3530   29.6320   45.9980 O   0  0  0  0  0  0  0  0  0  0  0  0
   58.2387   24.2399   45.7230 H   0  0  0  0  0  0  0  0  0  0  0  0
   57.1522   24.9534   44.4833 H   0  0  0  0  0  0  0  0  0  0  0  0
   58.9024   25.3575   44.4833 H   0  0  0  0  0  0  0  0  0  0  0  0
   57.9423   26.4607   48.0970 H   0  0  0  0  0  0  0  0  0  0  0  0
   59.3031   25.6060   47.2816 H   0  0  0  0  0  0  0  0  0  0  0  0
   58.8520   28.3624   49.1530 H   0  0  0  0  0  0  0  0  0  0  0  0
   60.1018   30.5165   48.9978 H   0  0  0  0  0  0  0  0  0  0  0  0
   61.2801   29.5493   44.9494 H   0  0  0  0  0  0  0  0  0  0  0  0
   60.0290   27.3957   45.0951 H   0  0  0  0  0  0  0  0  0  0  0  0
   56.7093   28.3974   43.0162 H   0  0  0  0  0  0  0  0  0  0  0  0
   57.2228   31.0123   41.8585 H   0  0  0  0  0  0  0  0  0  0  0  0
   57.8480   33.2720   42.4780 H   0  0  0  0  0  0  0  0  0  0  0  0
   58.4551   35.0017   44.0715 H   0  0  0  0  0  0  0  0  0  0  0  0
   58.8809   35.6416   46.4441 H   0  0  0  0  0  0  0  0  0  0  0  0
   58.6721   33.9499   48.2644 H   0  0  0  0  0  0  0  0  0  0  0  0
   58.0323   31.5940   47.7241 H   0  0  0  0  0  0  0  0  0  0  0  0
  1  2  1  0
  2  3  1  0
  3  4  1  0
  4  5  2  0
  5  6  1  0
  6  7  2  0
  7  8  1  0
  7  9  1  0
  9 10  2  0
  2 11  1  0
 11 12  2  0
 11 13  1  0
 13 14  2  0
 14 15  1  0
 15 16  2  0
 16 17  1  0
 17 18  2  0
 18 19  1  0
 19 20  2  0
 20 21  1  0
 21 22  2  0
 22 23  1  0
 23 24  2  0
 24 25  1  0
 10  4  1  0
 25 13  1  0
 24 15  1  0
 23 18  1  0
  1 26  1  0
  1 27  1  0
  1 28  1  0
  3 29  1  0
  3 30  1  0
  5 31  1  0
  6 32  1  0
  9 33  1  0
 10 34  1  0
 14 35  1  0
 16 36  1  0
 17 37  1  0
 19 38  1  0
 20 39  1  0
 21 40  1  0
 22 41  1  0
M  CHG  1  17   1
M  END
>  <UniqueID>  (46) 
42

>  <SMILES>  (46) 
CN(Cc1ccc(F)cc1)C(=O)c1cc2c[nH+]c3ccccc3c2o1

>  <Energy>  (46) 
81.52625665337912

>  <Genealogy>  (46) 
CN(Cc1ccc(F)cc1)C(=O)c1cc2c[nH+]c3ccccc3c2o1 (protonated)
CN(Cc1ccc(F)cc1)C(=O)c1cc2c[nH+]c3ccccc3c2o1 (3D coordinates assigned)
CN(Cc1ccc(F)cc1)C(=O)c1cc2c[nH+]c3ccccc3c2o1 (optimized conformer: 81.52625665337912 kcal/mol)

>  <smiles>  (46) 
CN(Cc1ccc(F)cc1)C(=O)c1cc2cnc3ccccc3c2o1

>  <score_type>  (46) 
oracle

>  <origin>  (46) 
adg

>  <m_score__min__energy>  (46) 
-6.7599999999999998

>  <m_primary>  (46) 
energy

$$$$
46:0
     RDKit          3D

 41 43  0  0  0  0  0  0  0  0999 V2000
   55.5850   28.5920   45.1350 O   0  0  0  0  0  0  0  0  0  0  0  0
   56.8100   28.8780   45.2250 C   0  0  0  0  0  0  0  0  0  0  0  0
   57.2860   30.1710   44.6860 C   0  0  0  0  0  0  0  0  0  0  0  0
   57.2130   30.4290   43.3080 C   0  0  0  0  0  0  0  0  0  0  0  0
   57.6410   31.6560   42.7960 C   0  0  0  0  0  0  0  0  0  0  0  0
   58.1430   32.6380   43.6540 C   0  0  0  0  0  0  0  0  0  0  0  0
   58.2320   32.3970   45.0360 C   0  0  0  0  0  0  0  0  0  0  0  0
   58.7140   33.4780   45.9710 C   0  0  0  0  0  0  0  0  0  0  0  0
   58.7180   34.7080   45.3380 F   0  0  0  0  0  0  0  0  0  0  0  0
   60.0020   33.2090   46.4020 F   0  0  0  0  0  0  0  0  0  0  0  0
   57.8750   33.5380   47.0680 F   0  0  0  0  0  0  0  0  0  0  0  0
   57.7730   31.1700   45.5470 C   0  0  0  0  0  0  0  0  0  0  0  0
   57.7170   27.9360   45.8290 N   0  0  0  0  0  0  0  0  0  0  0  0
   59.0560   27.7220   45.2570 C   0  0  0  0  0  0  0  0  0  0  0  0
   59.5800   26.3260   45.6070 C   0  0  0  0  0  0  0  0  0  0  0  0
   58.4640   25.3680   45.5330 N   0  0  0  0  0  0  0  0  0  0  0  0
   58.9020   23.9590   45.4330 C   0  0  0  0  0  0  0  0  0  0  0  0
   58.0570   23.1250   44.5010 C   0  0  0  0  0  0  0  0  0  0  0  0
   56.9950   23.6460   43.7640 C   0  0  0  0  0  0  0  0  0  0  0  0
   56.3320   22.3860   42.8660 S   0  0  0  0  0  0  0  0  0  0  0  0
   57.4060   21.2330   43.4470 C   0  0  0  0  0  0  0  0  0  0  0  0
   58.2690   21.7920   44.3210 N   0  0  0  0  0  0  0  0  0  0  0  0
   57.4530   25.5890   46.5930 C   0  0  0  0  0  0  0  0  0  0  0  0
   57.2690   27.0810   46.9370 C   0  0  0  0  0  0  0  0  0  0  0  0
   56.8166   29.6607   42.6278 H   0  0  0  0  0  0  0  0  0  0  0  0
   57.5827   31.8497   41.7148 H   0  0  0  0  0  0  0  0  0  0  0  0
   58.4705   33.6054   43.2455 H   0  0  0  0  0  0  0  0  0  0  0  0
   57.7952   30.9899   46.6319 H   0  0  0  0  0  0  0  0  0  0  0  0
   59.0012   27.8228   44.1630 H   0  0  0  0  0  0  0  0  0  0  0  0
   59.7427   28.4719   45.6766 H   0  0  0  0  0  0  0  0  0  0  0  0
   60.3645   26.0357   44.8926 H   0  0  0  0  0  0  0  0  0  0  0  0
   60.0031   26.3293   46.6224 H   0  0  0  0  0  0  0  0  0  0  0  0
   59.9398   23.9431   45.0686 H   0  0  0  0  0  0  0  0  0  0  0  0
   58.8024   23.5197   46.4365 H   0  0  0  0  0  0  0  0  0  0  0  0
   56.6522   24.6912   43.7683 H   0  0  0  0  0  0  0  0  0  0  0  0
   57.4060   20.1721   43.1562 H   0  0  0  0  0  0  0  0  0  0  0  0
   59.0180   21.2490   44.8070 H   0  0  0  0  0  0  0  0  0  0  0  0
   56.4890   25.1854   46.2498 H   0  0  0  0  0  0  0  0  0  0  0  0
   57.8066   25.0794   47.5014 H   0  0  0  0  0  0  0  0  0  0  0  0
   56.2046   27.2761   47.1342 H   0  0  0  0  0  0  0  0  0  0  0  0
   57.8744   27.3130   47.8256 H   0  0  0  0  0  0  0  0  0  0  0  0
  1  2  2  0
  2  3  1  0
  3  4  2  0
  4  5  1  0
  5  6  2  0
  6  7  1  0
  7  8  1  0
  8  9  1  0
  8 10  1  0
  8 11  1  0
  7 12  2  0
  2 13  1  0
 13 14  1  0
 14 15  1  0
 15 16  1  0
 16 17  1  0
 17 18  1  0
 18 19  2  0
 19 20  1  0
 20 21  1  0
 21 22  2  0
 16 23  1  0
 23 24  1  0
 12  3  1  0
 24 13  1  0
 22 18  1  0
  4 25  1  0
  5 26  1  0
  6 27  1  0
 12 28  1  0
 14 29  1  0
 14 30  1  0
 15 31  1  0
 15 32  1  0
 17 33  1  0
 17 34  1  0
 19 35  1  0
 21 36  1  0
 22 37  1  0
 23 38  1  0
 23 39  1  0
 24 40  1  0
 24 41  1  0
M  CHG  1  22   1
M  END
>  <UniqueID>  (47) 
43

>  <SMILES>  (47) 
O=C(c1cccc(C(F)(F)F)c1)N1CCN(Cc2csc[nH+]2)CC1

>  <Energy>  (47) 
84.41610716341687

>  <Genealogy>  (47) 
O=C(c1cccc(C(F)(F)F)c1)N1CCN(Cc2csc[nH+]2)CC1 (protonated)
O=C(c1cccc(C(F)(F)F)c1)N1CCN(Cc2csc[nH+]2)CC1 (3D coordinates assigned)
O=C(c1cccc(C(F)(F)F)c1)N1CCN(Cc2csc[nH+]2)CC1 (nonaromatic ring conformer: 84.41610716341687 kcal/mol)

>  <smiles>  (47) 
O=C(c1cccc(C(F)(F)F)c1)N1CCN(Cc2cscn2)CC1

>  <score_type>  (47) 
oracle

>  <origin>  (47) 
adg

>  <m_score__min__energy>  (47) 
-6.1200000000000001

>  <m_primary>  (47) 
energy

$$$$
47:0
     RDKit          3D

 35 37  0  0  0  0  0  0  0  0999 V2000
   59.2368   28.5686   44.5241 H   0  0  0  0  0  0  0  0  0  0  0  0
   58.5400   28.4650   45.3690 C   0  0  0  0  0  0  0  0  0  0  0  0
   58.5280   29.4440   46.2880 C   0  0  0  0  0  0  0  0  0  0  0  0
   58.5413   29.1521   47.3485 H   0  0  0  0  0  0  0  0  0  0  0  0
   58.4980   30.8910   45.9700 C   0  0  0  0  0  0  0  0  0  0  0  0
   57.4040   31.3830   45.2290 C   0  0  0  0  0  0  0  0  0  0  0  0
   56.3840   30.4900   44.8540 O   0  0  0  0  0  0  0  0  0  0  0  0
   56.1750   30.0080   43.5310 C   0  0  0  0  0  0  0  0  0  0  0  0
   55.7377   28.9995   43.5730 H   0  0  0  0  0  0  0  0  0  0  0  0
   55.4889   30.6833   42.9988 H   0  0  0  0  0  0  0  0  0  0  0  0
   57.1369   29.9687   42.9988 H   0  0  0  0  0  0  0  0  0  0  0  0
   57.3640   32.7410   44.8640 C   0  0  0  0  0  0  0  0  0  0  0  0
   56.5121   33.1236   44.2828 H   0  0  0  0  0  0  0  0  0  0  0  0
   58.3920   33.6060   45.2310 C   0  0  0  0  0  0  0  0  0  0  0  0
   58.3563   34.6605   44.9199 H   0  0  0  0  0  0  0  0  0  0  0  0
   59.4700   33.1420   45.9930 C   0  0  0  0  0  0  0  0  0  0  0  0
   60.4890   34.0290   46.3770 C   0  0  0  0  0  0  0  0  0  0  0  0
   60.4484   35.0812   46.0588 H   0  0  0  0  0  0  0  0  0  0  0  0
   61.5530   33.5800   47.1610 C   0  0  0  0  0  0  0  0  0  0  0  0
   62.3546   34.2761   47.4487 H   0  0  0  0  0  0  0  0  0  0  0  0
   61.6020   32.2520   47.5800 C   0  0  0  0  0  0  0  0  0  0  0  0
   62.4364   31.9065   48.2081 H   0  0  0  0  0  0  0  0  0  0  0  0
   60.5960   31.3570   47.2060 C   0  0  0  0  0  0  0  0  0  0  0  0
   60.6386   30.3136   47.5518 H   0  0  0  0  0  0  0  0  0  0  0  0
   59.5250   31.7800   46.3880 C   0  0  0  0  0  0  0  0  0  0  0  0
   57.6850   27.2560   45.4080 C   0  0  0  0  0  0  0  0  0  0  0  0
   56.6660   27.0920   46.3620 C   0  0  0  0  0  0  0  0  0  0  0  0
   56.4784   27.8806   47.1056 H   0  0  0  0  0  0  0  0  0  0  0  0
   55.9110   25.9600   46.3680 N   0  0  0  0  0  0  0  0  0  0  0  0
   56.1170   24.9590   45.4740 C   0  0  0  0  0  0  0  0  0  0  0  0
   55.4795   24.0628   45.4960 H   0  0  0  0  0  0  0  0  0  0  0  0
   57.1370   25.0660   44.5270 C   0  0  0  0  0  0  0  0  0  0  0  0
   57.3153   24.2529   43.8080 H   0  0  0  0  0  0  0  0  0  0  0  0
   57.9280   26.2150   44.5020 C   0  0  0  0  0  0  0  0  0  0  0  0
   58.7440   26.3039   43.7697 H   0  0  0  0  0  0  0  0  0  0  0  0
  1  2  1  0
  2  3  2  0
  3  4  1  0
  3  5  1  0
  5  6  2  0
  6  7  1  0
  7  8  1  0
  8  9  1  0
  8 10  1  0
  8 11  1  0
  6 12  1  0
 12 13  1  0
 12 14  2  0
 14 15  1  0
 14 16  1  0
 16 17  2  0
 17 18  1  0
 17 19  1  0
 19 20  1  0
 19 21  2  0
 21 22  1  0
 21 23  1  0
 23 24  1  0
 23 25  2  0
  2 26  1  0
 26 27  2  0
 27 28  1  0
 27 29  1  0
 29 30  2  0
 30 31  1  0
 30 32  1  0
 32 33  1  0
 32 34  2  0
 34 35  1  0
 25  5  1  0
 34 26  1  0
 25 16  1  0
M  END
>  <UniqueID>  (48) 
44

>  <SMILES>  (48) 
COc1ccc2ccccc2c1/C=C\c1cccnc1

>  <Energy>  (48) 
53.981476376609784

>  <Genealogy>  (48) 
COc1ccc2ccccc2c1/C=C\c1cccnc1 (cis-trans isomerization)
COc1ccc2ccccc2c1/C=C\c1cccnc1 (3D coordinates assigned)
COc1ccc2ccccc2c1/C=C\c1cccnc1 (optimized conformer: 53.981476376609784 kcal/mol)

>  <smiles>  (48) 
COc1ccc2ccccc2c1C=Cc1cccnc1

>  <score_type>  (48) 
oracle

>  <origin>  (48) 
adg

>  <m_score__min__energy>  (48) 
-7.2800000000000002

>  <m_primary>  (48) 
energy

$$$$
