0:0
     RDKit          3D

 68 70  0  0  0  0  0  0  0  0999 V2000
   56.2710   29.7230   42.7150 C   0  0  0  0  0  0  0  0  0  0  0  0
   56.5740   29.4850   44.1890 C   0  0  0  0  0  0  0  0  0  0  0  0
   56.6310   30.7200   44.8800 O   0  0  0  0  0  0  0  0  0  0  0  0
   57.8970   31.3260   44.7130 C   0  0  0  0  0  0  0  0  0  0  0  0
   57.7580   32.5480   43.8020 C   0  0  0  0  0  0  0  0  0  0  0  0
   57.8750   33.8010   44.5780 N   0  0  0  0  0  0  0  0  0  0  0  0
   59.2900   34.2250   44.6720 C   0  0  0  0  0  0  0  0  0  0  0  0
   59.4780   35.2940   45.7570 C   0  0  0  0  0  0  0  0  0  0  0  0
   59.0730   34.8150   47.1040 N   0  0  0  0  0  0  0  0  0  0  0  0
   60.2340   34.5620   47.9860 C   0  0  0  0  0  0  0  0  0  0  0  0
   60.0250   33.3000   48.8360 C   0  0  0  0  0  0  0  0  0  0  0  0
   59.6440   33.6510   50.2920 C   0  0  0  0  0  0  0  0  0  0  0  0
   58.6450   32.7390   50.8940 N   0  0  0  0  0  0  0  0  0  0  0  0
   59.0640   31.3270   50.9190 C   0  0  0  0  0  0  0  0  0  0  0  0
   57.8250   30.4520   51.1140 C   0  0  0  0  0  0  0  0  0  0  0  0
   56.9220   31.0470   52.1060 N   0  0  0  0  0  0  0  0  0  0  0  0
   55.6340   30.4540   52.3230 C   0  0  0  0  0  0  0  0  0  0  0  0
   54.5030   31.0180   51.7120 C   0  0  0  0  0  0  0  0  0  0  0  0
   53.2280   30.4640   51.9090 C   0  0  0  0  0  0  0  0  0  0  0  0
   52.0260   31.0450   51.2090 C   0  0  0  0  0  0  0  0  0  0  0  0
   51.7560   30.3520   50.0410 F   0  0  0  0  0  0  0  0  0  0  0  0
   52.2470   32.3730   50.8810 F   0  0  0  0  0  0  0  0  0  0  0  0
   50.9280   30.9640   52.0450 F   0  0  0  0  0  0  0  0  0  0  0  0
   53.1020   29.3030   52.6890 C   0  0  0  0  0  0  0  0  0  0  0  0
   54.2230   28.7390   53.3050 C   0  0  0  0  0  0  0  0  0  0  0  0
   55.4920   29.3180   53.1490 C   0  0  0  0  0  0  0  0  0  0  0  0
   56.6810   28.6880   53.8200 C   0  0  0  0  0  0  0  0  0  0  0  0
   57.3970   32.1140   52.9940 C   0  0  0  0  0  0  0  0  0  0  0  0
   58.1280   33.2170   52.1970 C   0  0  0  0  0  0  0  0  0  0  0  0
   58.1820   33.6340   47.0690 C   0  0  0  0  0  0  0  0  0  0  0  0
   57.1930   33.7190   45.8970 C   0  0  0  0  0  0  0  0  0  0  0  0
   55.4090   30.4001   42.6225 H   0  0  0  0  0  0  0  0  0  0  0  0
   57.1474   30.1767   42.2291 H   0  0  0  0  0  0  0  0  0  0  0  0
   56.0378   28.7641   42.2291 H   0  0  0  0  0  0  0  0  0  0  0  0
   55.7822   28.8594   44.6268 H   0  0  0  0  0  0  0  0  0  0  0  0
   57.5454   28.9769   44.2793 H   0  0  0  0  0  0  0  0  0  0  0  0
   58.2856   31.6407   45.6928 H   0  0  0  0  0  0  0  0  0  0  0  0
   58.5928   30.6054   44.2585 H   0  0  0  0  0  0  0  0  0  0  0  0
   58.5508   32.5211   43.0399 H   0  0  0  0  0  0  0  0  0  0  0  0
   56.7665   32.5206   43.3263 H   0  0  0  0  0  0  0  0  0  0  0  0
   59.9109   33.3510   44.9180 H   0  0  0  0  0  0  0  0  0  0  0  0
   59.5901   34.6540   43.7046 H   0  0  0  0  0  0  0  0  0  0  0  0
   60.5394   35.5812   45.7891 H   0  0  0  0  0  0  0  0  0  0  0  0
   58.8354   36.1487   45.4990 H   0  0  0  0  0  0  0  0  0  0  0  0
   61.1332   34.4315   47.3660 H   0  0  0  0  0  0  0  0  0  0  0  0
   60.3492   35.4213   48.6630 H   0  0  0  0  0  0  0  0  0  0  0  0
   59.2181   32.6994   48.3908 H   0  0  0  0  0  0  0  0  0  0  0  0
   60.9699   32.7371   48.8539 H   0  0  0  0  0  0  0  0  0  0  0  0
   60.5565   33.6166   50.9053 H   0  0  0  0  0  0  0  0  0  0  0  0
   59.1853   34.6505   50.2668 H   0  0  0  0  0  0  0  0  0  0  0  0
   59.5535   31.0691   49.9683 H   0  0  0  0  0  0  0  0  0  0  0  0
   59.7739   31.1609   51.7427 H   0  0  0  0  0  0  0  0  0  0  0  0
   57.2954   30.3567   50.1546 H   0  0  0  0  0  0  0  0  0  0  0  0
   58.1434   29.4624   51.4735 H   0  0  0  0  0  0  0  0  0  0  0  0
   54.6170   31.9047   51.0711 H   0  0  0  0  0  0  0  0  0  0  0  0
   52.1149   28.8344   52.8160 H   0  0  0  0  0  0  0  0  0  0  0  0
   54.1094   27.8327   53.9179 H   0  0  0  0  0  0  0  0  0  0  0  0
   56.5620   28.7511   54.9117 H   0  0  0  0  0  0  0  0  0  0  0  0
   56.7549   27.6324   53.5196 H   0  0  0  0  0  0  0  0  0  0  0  0
   57.5959   29.2196   53.5196 H   0  0  0  0  0  0  0  0  0  0  0  0
   56.5357   32.5580   53.5147 H   0  0  0  0  0  0  0  0  0  0  0  0
   58.1033   31.6787   53.7163 H   0  0  0  0  0  0  0  0  0  0  0  0
   57.4246   34.0427   52.0141 H   0  0  0  0  0  0  0  0  0  0  0  0
   58.9916   33.5406   52.7965 H   0  0  0  0  0  0  0  0  0  0  0  0
   58.7934   32.7264   46.9574 H   0  0  0  0  0  0  0  0  0  0  0  0
   57.6085   33.6024   48.0071 H   0  0  0  0  0  0  0  0  0  0  0  0
   56.5551   32.8230   45.9087 H   0  0  0  0  0  0  0  0  0  0  0  0
   56.6032   34.6387   46.0248 H   0  0  0  0  0  0  0  0  0  0  0  0
  1  2  1  0
  2  3  1  0
  3  4  1  0
  4  5  1  0
  5  6  1  0
  6  7  1  0
  7  8  1  0
  8  9  1  0
  9 10  1  0
 10 11  1  0
 11 12  1  0
 12 13  1  0
 13 14  1  0
 14 15  1  0
 15 16  1  0
 16 17  1  0
 17 18  2  0
 18 19  1  0
 19 20  1  0
 20 21  1  0
 20 22  1  0
 20 23  1  0
 19 24  2  0
 24 25  1  0
 25 26  2  0
 26 27  1  0
 16 28  1  0
 28 29  1  0
  9 30  1  0
 30 31  1  0
 31  6  1  0
 29 13  1  0
 26 17  1  0
  1 32  1  0
  1 33  1  0
  1 34  1  0
  2 35  1  0
  2 36  1  0
  4 37  1  0
  4 38  1  0
  5 39  1  0
  5 40  1  0
  7 41  1  0
  7 42  1  0
  8 43  1  0
  8 44  1  0
 10 45  1  0
 10 46  1  0
 11 47  1  0
 11 48  1  0
 12 49  1  0
 12 50  1  0
 14 51  1  0
 14 52  1  0
 15 53  1  0
 15 54  1  0
 18 55  1  0
 24 56  1  0
 25 57  1  0
 27 58  1  0
 27 59  1  0
 27 60  1  0
 28 61  1  0
 28 62  1  0
 29 63  1  0
 29 64  1  0
 30 65  1  0
 30 66  1  0
 31 67  1  0
 31 68  1  0
M  END
>  <UniqueID>  (1) 
1

>  <SMILES>  (1) 
CCOCCN1CCN(CCCN2CCN(c3cc(C(F)(F)F)ccc3C)CC2)CC1

>  <Energy>  (1) 
89.18593908327425

>  <Genealogy>  (1) 
CCOCCN1CCN(CCCN2CCN(c3cc(C(F)(F)F)ccc3C)CC2)CC1 (3D coordinates assigned)
CCOCCN1CCN(CCCN2CCN(c3cc(C(F)(F)F)ccc3C)CC2)CC1 (nonaromatic ring conformer: 89.18593908327425 kcal/mol)

>  <smiles>  (1) 
CCOCCN1CCN(CCCN2CCN(c3cc(C(F)(F)F)ccc3C)CC2)CC1

>  <score_type>  (1) 
oracle

>  <origin>  (1) 
adg

>  <m_score__min__energy>  (1) 
-8.2599999999999998

>  <m_primary>  (1) 
energy

$$$$
1:0
     RDKit          3D

 37 38  0  0  0  0  0  0  0  0999 V2000
   57.2220   28.9340   45.1830 C   0  0  0  0  0  0  0  0  0  0  0  0
   56.5980   30.2310   44.8650 N   0  0  0  0  0  0  0  0  0  0  0  0
   55.5380   30.0340   43.8630 C   0  0  0  0  0  0  0  0  0  0  0  0
   57.6030   31.1880   44.3570 C   0  0  0  0  0  0  0  0  0  0  0  0
   58.3330   31.8530   45.5000 C   0  0  0  0  0  0  0  0  0  0  0  0
   59.2200   31.1080   46.2900 C   0  0  0  0  0  0  0  0  0  0  0  0
   59.8620   31.6900   47.3370 N   0  0  0  0  0  0  0  0  0  0  0  0
   59.6710   32.9960   47.6670 C   0  0  0  0  0  0  0  0  0  0  0  0
   60.4230   33.5920   48.8340 C   0  0  0  0  0  0  0  0  0  0  0  0
   61.8620   33.8360   48.5840 N   0  0  0  0  0  0  0  0  0  0  0  0
   62.2720   33.7630   47.1810 C   0  0  0  0  0  0  0  0  0  0  0  0
   63.7750   33.5070   47.1850 C   0  0  0  0  0  0  0  0  0  0  0  0
   64.1180   33.0850   48.6090 C   0  0  0  0  0  0  0  0  0  0  0  0
   62.7830   32.9780   49.3270 C   0  0  0  0  0  0  0  0  0  0  0  0
   58.8050   33.7820   46.8950 C   0  0  0  0  0  0  0  0  0  0  0  0
   58.1270   33.2110   45.8150 C   0  0  0  0  0  0  0  0  0  0  0  0
   57.0290   34.2210   44.8800 Cl  0  0  0  0  0  0  0  0  0  0  0  0
   57.2802   28.8130   46.2748 H   0  0  0  0  0  0  0  0  0  0  0  0
   56.6164   28.1212   44.7558 H   0  0  0  0  0  0  0  0  0  0  0  0
   58.2351   28.8999   44.7558 H   0  0  0  0  0  0  0  0  0  0  0  0
   54.5798   29.8559   44.3731 H   0  0  0  0  0  0  0  0  0  0  0  0
   55.4569   30.9325   43.2335 H   0  0  0  0  0  0  0  0  0  0  0  0
   55.7851   29.1664   43.2335 H   0  0  0  0  0  0  0  0  0  0  0  0
   58.3287   30.6502   43.7293 H   0  0  0  0  0  0  0  0  0  0  0  0
   57.0885   31.9617   43.7682 H   0  0  0  0  0  0  0  0  0  0  0  0
   59.3972   30.0468   46.0611 H   0  0  0  0  0  0  0  0  0  0  0  0
   59.9522   34.5526   49.0902 H   0  0  0  0  0  0  0  0  0  0  0  0
   60.3702   32.8532   49.6472 H   0  0  0  0  0  0  0  0  0  0  0  0
   61.7472   32.9402   46.6735 H   0  0  0  0  0  0  0  0  0  0  0  0
   62.0269   34.6917   46.6449 H   0  0  0  0  0  0  0  0  0  0  0  0
   64.0294   32.7056   46.4757 H   0  0  0  0  0  0  0  0  0  0  0  0
   64.3397   34.4001   46.8792 H   0  0  0  0  0  0  0  0  0  0  0  0
   64.6348   32.1140   48.6094 H   0  0  0  0  0  0  0  0  0  0  0  0
   64.7913   33.8036   49.0992 H   0  0  0  0  0  0  0  0  0  0  0  0
   62.4268   31.9373   49.3205 H   0  0  0  0  0  0  0  0  0  0  0  0
   62.8635   33.2861   50.3799 H   0  0  0  0  0  0  0  0  0  0  0  0
   58.6595   34.8448   47.1384 H   0  0  0  0  0  0  0  0  0  0  0  0
  1  2  1  0
  2  3  1  0
  2  4  1  0
  4  5  1  0
  5  6  2  0
  6  7  1  0
  7  8  2  0
  8  9  1  0
  9 10  1  0
 10 11  1  0
 11 12  1  0
 12 13  1  0
 13 14  1  0
  8 15  1  0
 15 16  2  0
 16 17  1  0
 16  5  1  0
 14 10  1  0
  1 18  1  0
  1 19  1  0
  1 20  1  0
  3 21  1  0
  3 22  1  0
  3 23  1  0
  4 24  1  0
  4 25  1  0
  6 26  1  0
  9 27  1  0
  9 28  1  0
 11 29  1  0
 11 30  1  0
 12 31  1  0
 12 32  1  0
 13 33  1  0
 13 34  1  0
 14 35  1  0
 14 36  1  0
 15 37  1  0
M  END
>  <UniqueID>  (2) 
2

>  <SMILES>  (2) 
CN(C)Cc1cnc(CN2CCCC2)cc1Cl

>  <Energy>  (2) 
42.759119134044276

>  <Genealogy>  (2) 
CN(C)Cc1cnc(CN2CCCC2)cc1Cl (3D coordinates assigned)
CN(C)Cc1cnc(CN2CCCC2)cc1Cl (nonaromatic ring conformer: 42.759119134044276 kcal/mol)

>  <smiles>  (2) 
CN(C)Cc1cnc(CN2CCCC2)cc1Cl

>  <score_type>  (2) 
oracle

>  <origin>  (2) 
adg

>  <m_score__min__energy>  (2) 
-6.5199999999999996

>  <m_primary>  (2) 
energy

$$$$
2:0
     RDKit          3D

 34 36  0  0  0  0  0  0  0  0999 V2000
   58.0470   32.6780   42.6210 O   0  0  0  0  0  0  0  0  0  0  0  0
   57.7130   31.9880   43.5750 C   0  0  0  0  0  0  0  0  0  0  0  0
   57.1290   32.6840   44.7840 C   0  0  0  0  0  0  0  0  0  0  0  0
   58.1470   33.5010   45.4450 N   0  0  0  0  0  0  0  0  0  0  0  0
   58.7880   34.5780   44.9270 C   0  0  0  0  0  0  0  0  0  0  0  0
   59.6430   35.1660   45.8030 N   0  0  0  0  0  0  0  0  0  0  0  0
   59.5080   34.4140   46.9120 C   0  0  0  0  0  0  0  0  0  0  0  0
   60.1540   34.5810   48.1350 C   0  0  0  0  0  0  0  0  0  0  0  0
   59.8450   33.6740   49.1670 C   0  0  0  0  0  0  0  0  0  0  0  0
   58.9070   32.6390   48.9540 C   0  0  0  0  0  0  0  0  0  0  0  0
   58.2700   32.4990   47.7060 C   0  0  0  0  0  0  0  0  0  0  0  0
   58.6050   33.4130   46.7040 C   0  0  0  0  0  0  0  0  0  0  0  0
   57.8200   30.5390   43.4740 N   0  0  0  0  0  0  0  0  0  0  0  0
   56.6410   29.9590   42.7940 C   0  0  0  0  0  0  0  0  0  0  0  0
   55.4390   29.7320   43.7450 C   0  0  0  0  0  0  0  0  0  0  0  0
   55.7780   29.5830   45.1130 O   0  0  0  0  0  0  0  0  0  0  0  0
   57.0280   28.9510   45.2590 C   0  0  0  0  0  0  0  0  0  0  0  0
   58.1470   29.8810   44.7690 C   0  0  0  0  0  0  0  0  0  0  0  0
   56.2980   33.3297   44.4639 H   0  0  0  0  0  0  0  0  0  0  0  0
   56.7670   31.9241   45.4922 H   0  0  0  0  0  0  0  0  0  0  0  0
   58.6310   34.9392   43.8999 H   0  0  0  0  0  0  0  0  0  0  0  0
   60.8800   35.3929   48.2891 H   0  0  0  0  0  0  0  0  0  0  0  0
   60.3373   33.7720   50.1458 H   0  0  0  0  0  0  0  0  0  0  0  0
   58.6728   31.9379   49.7686 H   0  0  0  0  0  0  0  0  0  0  0  0
   57.5359   31.6997   47.5267 H   0  0  0  0  0  0  0  0  0  0  0  0
   58.6330   30.3480   42.8380 H   0  0  0  0  0  0  0  0  0  0  0  0
   56.3279   30.6436   41.9920 H   0  0  0  0  0  0  0  0  0  0  0  0
   56.9397   28.9749   42.4037 H   0  0  0  0  0  0  0  0  0  0  0  0
   54.7631   30.5950   43.6529 H   0  0  0  0  0  0  0  0  0  0  0  0
   54.9782   28.7819   43.4370 H   0  0  0  0  0  0  0  0  0  0  0  0
   57.1928   28.7102   46.3196 H   0  0  0  0  0  0  0  0  0  0  0  0
   57.0379   28.0278   44.6609 H   0  0  0  0  0  0  0  0  0  0  0  0
   58.3147   30.6600   45.5273 H   0  0  0  0  0  0  0  0  0  0  0  0
   59.0457   29.2664   44.6123 H   0  0  0  0  0  0  0  0  0  0  0  0
  1  2  2  0
  2  3  1  0
  3  4  1  0
  4  5  1  0
  5  6  2  0
  6  7  1  0
  7  8  2  0
  8  9  1  0
  9 10  2  0
 10 11  1  0
 11 12  2  0
  2 13  1  0
 13 14  1  0
 14 15  1  0
 15 16  1  0
 16 17  1  0
 17 18  1  0
 12  4  1  0
 18 13  1  0
 12  7  1  0
  3 19  1  0
  3 20  1  0
  5 21  1  0
  8 22  1  0
  9 23  1  0
 10 24  1  0
 11 25  1  0
 13 26  1  0
 14 27  1  0
 14 28  1  0
 15 29  1  0
 15 30  1  0
 17 31  1  0
 17 32  1  0
 18 33  1  0
 18 34  1  0
M  CHG  1  13   1
M  END
>  <UniqueID>  (3) 
3

>  <SMILES>  (3) 
O=C(Cn1cnc2ccccc21)[NH+]1CCOCC1

>  <Energy>  (3) 
87.24389522771348

>  <Genealogy>  (3) 
O=C(Cn1cnc2ccccc21)[NH+]1CCOCC1 (protonated)
O=C(Cn1cnc2ccccc21)[NH+]1CCOCC1 (3D coordinates assigned)
O=C(Cn1cnc2ccccc21)[NH+]1CCOCC1 (nonaromatic ring conformer: 87.24389522771348 kcal/mol)

>  <smiles>  (3) 
O=C(Cn1cnc2ccccc21)N1CCOCC1

>  <score_type>  (3) 
oracle

>  <origin>  (3) 
adg

>  <m_score__min__energy>  (3) 
-5.5700000000000003

>  <m_primary>  (3) 
energy

$$$$
3:0
     RDKit          3D

 36 36  0  0  0  0  0  0  0  0999 V2000
   56.6790   27.1200   45.8750 C   0  0  0  0  0  0  0  0  0  0  0  0
   56.9550   28.4540   45.1750 C   0  0  0  0  0  0  0  0  0  0  0  0
   55.7360   29.2590   44.9870 N   0  0  0  0  0  0  0  0  0  0  0  0
   55.5760   29.7520   43.6100 C   0  0  0  0  0  0  0  0  0  0  0  0
   56.9240   30.2260   43.0480 C   0  0  0  0  0  0  0  0  0  0  0  0
   57.3830   31.5560   43.6620 C   0  0  0  0  0  0  0  0  0  0  0  0
   57.2280   31.5640   45.0840 O   0  0  0  0  0  0  0  0  0  0  0  0
   58.0030   32.3430   45.9550 C   0  0  0  0  0  0  0  0  0  0  0  0
   58.8420   31.7510   46.9310 C   0  0  0  0  0  0  0  0  0  0  0  0
   58.8740   30.2660   47.1620 C   0  0  0  0  0  0  0  0  0  0  0  0
   59.6670   32.5700   47.7180 C   0  0  0  0  0  0  0  0  0  0  0  0
   59.6280   33.9570   47.5800 C   0  0  0  0  0  0  0  0  0  0  0  0
   58.7550   34.5450   46.6670 C   0  0  0  0  0  0  0  0  0  0  0  0
   57.9200   33.7490   45.8700 C   0  0  0  0  0  0  0  0  0  0  0  0
   57.0190   34.4100   44.8630 C   0  0  0  0  0  0  0  0  0  0  0  0
   56.7090   27.2648   46.9650 H   0  0  0  0  0  0  0  0  0  0  0  0
   55.6854   26.7505   45.5814 H   0  0  0  0  0  0  0  0  0  0  0  0
   57.4444   26.3866   45.5814 H   0  0  0  0  0  0  0  0  0  0  0  0
   57.6672   29.0304   45.7838 H   0  0  0  0  0  0  0  0  0  0  0  0
   57.3620   28.2287   44.1782 H   0  0  0  0  0  0  0  0  0  0  0  0
   55.7550   30.0760   45.6420 H   0  0  0  0  0  0  0  0  0  0  0  0
   55.1857   28.9406   42.9782 H   0  0  0  0  0  0  0  0  0  0  0  0
   54.8750   30.5997   43.6150 H   0  0  0  0  0  0  0  0  0  0  0  0
   57.6836   29.4591   43.2598 H   0  0  0  0  0  0  0  0  0  0  0  0
   56.7981   30.3834   41.9666 H   0  0  0  0  0  0  0  0  0  0  0  0
   58.4440   31.7138   43.4182 H   0  0  0  0  0  0  0  0  0  0  0  0
   56.7587   32.3598   43.2446 H   0  0  0  0  0  0  0  0  0  0  0  0
   58.8784   30.0631   48.2431 H   0  0  0  0  0  0  0  0  0  0  0  0
   57.9856   29.8048   46.7060 H   0  0  0  0  0  0  0  0  0  0  0  0
   59.7815   29.8435   46.7060 H   0  0  0  0  0  0  0  0  0  0  0  0
   60.3500   32.1137   48.4497 H   0  0  0  0  0  0  0  0  0  0  0  0
   60.2878   34.5883   48.1932 H   0  0  0  0  0  0  0  0  0  0  0  0
   58.7207   35.6403   46.5709 H   0  0  0  0  0  0  0  0  0  0  0  0
   56.2396   34.9818   45.3880 H   0  0  0  0  0  0  0  0  0  0  0  0
   57.6105   35.0900   44.2323 H   0  0  0  0  0  0  0  0  0  0  0  0
   56.5480   33.6416   44.2323 H   0  0  0  0  0  0  0  0  0  0  0  0
  1  2  1  0
  2  3  1  0
  3  4  1  0
  4  5  1  0
  5  6  1  0
  6  7  1  0
  7  8  1  0
  8  9  2  0
  9 10  1  0
  9 11  1  0
 11 12  2  0
 12 13  1  0
 13 14  2  0
 14 15  1  0
 14  8  1  0
  1 16  1  0
  1 17  1  0
  1 18  1  0
  2 19  1  0
  2 20  1  0
  3 21  1  0
  4 22  1  0
  4 23  1  0
  5 24  1  0
  5 25  1  0
  6 26  1  0
  6 27  1  0
 10 28  1  0
 10 29  1  0
 10 30  1  0
 11 31  1  0
 12 32  1  0
 13 33  1  0
 15 34  1  0
 15 35  1  0
 15 36  1  0
M  END
>  <UniqueID>  (4) 
4

>  <SMILES>  (4) 
CCNCCCOc1c(C)cccc1C

>  <Energy>  (4) 
34.037712894954005

>  <Genealogy>  (4) 
CCNCCCOc1c(C)cccc1C (3D coordinates assigned)
CCNCCCOc1c(C)cccc1C (optimized conformer: 34.037712894954005 kcal/mol)

>  <smiles>  (4) 
CCNCCCOc1c(C)cccc1C

>  <score_type>  (4) 
oracle

>  <origin>  (4) 
adg

>  <m_score__min__energy>  (4) 
-6.0499999999999998

>  <m_primary>  (4) 
energy

$$$$
4:0
     RDKit          3D

 60 62  0  0  0  0  0  0  0  0999 V2000
   59.6690   35.1580   46.0130 C   0  0  0  0  0  0  0  0  0  0  0  0
   58.9000   34.6590   47.2400 C   0  0  0  0  0  0  0  0  0  0  0  0
   57.7480   33.8130   46.8860 N   0  0  0  0  0  0  0  0  0  0  0  0
   57.3380   33.9460   45.4790 C   0  0  0  0  0  0  0  0  0  0  0  0
   57.0150   32.5730   44.8700 C   0  0  0  0  0  0  0  0  0  0  0  0
   58.2610   31.6770   44.7760 C   0  0  0  0  0  0  0  0  0  0  0  0
   58.1680   30.4920   45.6590 N   0  0  0  0  0  0  0  0  0  0  0  0
   57.1490   29.5430   45.1740 C   0  0  0  0  0  0  0  0  0  0  0  0
   59.4850   29.8250   45.7900 C   0  0  0  0  0  0  0  0  0  0  0  0
   59.6410   29.1720   47.1730 C   0  0  0  0  0  0  0  0  0  0  0  0
   58.9750   29.9800   48.2990 C   0  0  0  0  0  0  0  0  0  0  0  0
   59.1360   31.4230   48.0940 N   0  0  0  0  0  0  0  0  0  0  0  0
   59.9480   32.2240   48.9710 C   0  0  0  0  0  0  0  0  0  0  0  0
   61.1980   32.7010   48.5420 C   0  0  0  0  0  0  0  0  0  0  0  0
   61.5940   32.5910   47.1930 C   0  0  0  0  0  0  0  0  0  0  0  0
   62.8240   33.0850   46.7690 C   0  0  0  0  0  0  0  0  0  0  0  0
   63.6750   33.7060   47.6760 C   0  0  0  0  0  0  0  0  0  0  0  0
   63.3060   33.8280   49.0150 C   0  0  0  0  0  0  0  0  0  0  0  0
   62.0710   33.3120   49.4840 C   0  0  0  0  0  0  0  0  0  0  0  0
   61.7010   33.4070   50.8120 N   0  0  0  0  0  0  0  0  0  0  0  0
   62.7040   33.7650   51.8380 C   0  0  0  0  0  0  0  0  0  0  0  0
   60.3910   33.1710   51.1780 C   0  0  0  0  0  0  0  0  0  0  0  0
   59.8930   33.5550   52.4480 C   0  0  0  0  0  0  0  0  0  0  0  0
   58.5690   33.3030   52.8060 C   0  0  0  0  0  0  0  0  0  0  0  0
   57.7030   32.6910   51.9060 C   0  0  0  0  0  0  0  0  0  0  0  0
   58.1560   32.3320   50.6390 C   0  0  0  0  0  0  0  0  0  0  0  0
   59.4970   32.5560   50.2620 C   0  0  0  0  0  0  0  0  0  0  0  0
   60.5500   35.7297   46.3400 H   0  0  0  0  0  0  0  0  0  0  0  0
   59.9935   34.2979   45.4089 H   0  0  0  0  0  0  0  0  0  0  0  0
   59.0157   35.8048   45.4089 H   0  0  0  0  0  0  0  0  0  0  0  0
   59.5855   34.0735   47.8703 H   0  0  0  0  0  0  0  0  0  0  0  0
   58.5124   35.5418   47.7696 H   0  0  0  0  0  0  0  0  0  0  0  0
   56.9360   34.0540   47.5010 H   0  0  0  0  0  0  0  0  0  0  0  0
   56.4437   34.5841   45.4232 H   0  0  0  0  0  0  0  0  0  0  0  0
   58.1668   34.3956   44.9124 H   0  0  0  0  0  0  0  0  0  0  0  0
   56.2646   32.0728   45.4998 H   0  0  0  0  0  0  0  0  0  0  0  0
   56.6349   32.7345   43.8504 H   0  0  0  0  0  0  0  0  0  0  0  0
   58.3738   31.3357   43.7364 H   0  0  0  0  0  0  0  0  0  0  0  0
   59.1283   32.2711   45.0997 H   0  0  0  0  0  0  0  0  0  0  0  0
   56.6460   29.0745   46.0328 H   0  0  0  0  0  0  0  0  0  0  0  0
   56.4083   30.0805   44.5637 H   0  0  0  0  0  0  0  0  0  0  0  0
   57.6325   28.7660   44.5637 H   0  0  0  0  0  0  0  0  0  0  0  0
   59.5734   29.0496   45.0148 H   0  0  0  0  0  0  0  0  0  0  0  0
   60.2733   30.5830   45.6712 H   0  0  0  0  0  0  0  0  0  0  0  0
   59.1837   28.1720   47.1418 H   0  0  0  0  0  0  0  0  0  0  0  0
   60.7174   29.1254   47.3946 H   0  0  0  0  0  0  0  0  0  0  0  0
   57.9017   29.7403   48.3240 H   0  0  0  0  0  0  0  0  0  0  0  0
   59.4592   29.7107   49.2493 H   0  0  0  0  0  0  0  0  0  0  0  0
   58.6790   31.8670   47.2650 H   0  0  0  0  0  0  0  0  0  0  0  0
   60.9226   32.1089   46.4672 H   0  0  0  0  0  0  0  0  0  0  0  0
   63.1231   32.9840   45.7153 H   0  0  0  0  0  0  0  0  0  0  0  0
   64.6431   34.1026   47.3360 H   0  0  0  0  0  0  0  0  0  0  0  0
   63.9838   34.3327   49.7191 H   0  0  0  0  0  0  0  0  0  0  0  0
   62.2750   33.6119   52.8393 H   0  0  0  0  0  0  0  0  0  0  0  0
   63.5934   33.1288   51.7190 H   0  0  0  0  0  0  0  0  0  0  0  0
   62.9896   34.8206   51.7190 H   0  0  0  0  0  0  0  0  0  0  0  0
   60.5608   34.0593   53.1620 H   0  0  0  0  0  0  0  0  0  0  0  0
   58.2079   33.5895   53.8047 H   0  0  0  0  0  0  0  0  0  0  0  0
   56.6607   32.4906   52.1949 H   0  0  0  0  0  0  0  0  0  0  0  0
   57.4604   31.8685   49.9240 H   0  0  0  0  0  0  0  0  0  0  0  0
  1  2  1  0
  2  3  1  0
  3  4  1  0
  4  5  1  0
  5  6  1  0
  6  7  1  0
  7  8  1  0
  7  9  1  0
  9 10  1  0
 10 11  1  0
 11 12  1  0
 12 13  1  0
 13 14  2  0
 14 15  1  0
 15 16  2  0
 16 17  1  0
 17 18  2  0
 18 19  1  0
 19 20  2  0
 20 21  1  0
 20 22  1  0
 22 23  2  0
 23 24  1  0
 24 25  2  0
 25 26  1  0
 26 27  2  0
 27 13  1  0
 19 14  1  0
 27 22  1  0
  1 28  1  0
  1 29  1  0
  1 30  1  0
  2 31  1  0
  2 32  1  0
  3 33  1  0
  4 34  1  0
  4 35  1  0
  5 36  1  0
  5 37  1  0
  6 38  1  0
  6 39  1  0
  8 40  1  0
  8 41  1  0
  8 42  1  0
  9 43  1  0
  9 44  1  0
 10 45  1  0
 10 46  1  0
 11 47  1  0
 11 48  1  0
 12 49  1  0
 15 50  1  0
 16 51  1  0
 17 52  1  0
 18 53  1  0
 21 54  1  0
 21 55  1  0
 21 56  1  0
 23 57  1  0
 24 58  1  0
 25 59  1  0
 26 60  1  0
M  CHG  1  20   1
M  END
>  <UniqueID>  (5) 
5

>  <SMILES>  (5) 
CCNCCCN(C)CCCNc1c2ccccc2[n+](C)c2ccccc12

>  <Energy>  (5) 
82.76124071098639

>  <Genealogy>  (5) 
CCNCCCN(C)CCCNc1c2ccccc2[n+](C)c2ccccc12 (3D coordinates assigned)
CCNCCCN(C)CCCNc1c2ccccc2[n+](C)c2ccccc12 (optimized conformer: 82.76124071098639 kcal/mol)

>  <smiles>  (5) 
CCNCCCN(C)CCCNc1c2ccccc2[n+](C)c2ccccc12

>  <score_type>  (5) 
oracle

>  <origin>  (5) 
adg

>  <m_score__min__energy>  (5) 
-6.4100000000000001

>  <m_primary>  (5) 
energy

$$$$
5:0
     RDKit          3D

 45 47  0  0  0  0  0  0  0  0999 V2000
   55.2818   25.7574   46.7283 H   0  0  0  0  0  0  0  0  0  0  0  0
   56.1220   26.4080   46.4440 C   0  0  0  0  0  0  0  0  0  0  0  0
   55.9080   27.4640   45.6200 N   0  0  0  0  0  0  0  0  0  0  0  0
   56.9160   28.2930   45.2430 C   0  0  0  0  0  0  0  0  0  0  0  0
   56.6420   29.3690   44.3910 C   0  0  0  0  0  0  0  0  0  0  0  0
   55.6159   29.5369   44.0320 H   0  0  0  0  0  0  0  0  0  0  0  0
   57.6690   30.2310   43.9950 C   0  0  0  0  0  0  0  0  0  0  0  0
   57.3200   31.5780   42.9270 Cl  0  0  0  0  0  0  0  0  0  0  0  0
   58.9740   30.0190   44.4490 C   0  0  0  0  0  0  0  0  0  0  0  0
   59.7801   30.6983   44.1349 H   0  0  0  0  0  0  0  0  0  0  0  0
   59.2590   28.9480   45.3000 C   0  0  0  0  0  0  0  0  0  0  0  0
   60.2886   28.7893   45.6531 H   0  0  0  0  0  0  0  0  0  0  0  0
   58.2340   28.0690   45.7090 C   0  0  0  0  0  0  0  0  0  0  0  0
   58.4820   26.9720   46.5680 C   0  0  0  0  0  0  0  0  0  0  0  0
   59.6950   26.7590   47.0050 N   0  0  0  0  0  0  0  0  0  0  0  0
   60.1640   26.7700   48.3920 C   0  0  0  0  0  0  0  0  0  0  0  0
   61.2371   26.5292   48.4124 H   0  0  0  0  0  0  0  0  0  0  0  0
   59.5946   26.0227   48.9641 H   0  0  0  0  0  0  0  0  0  0  0  0
   59.9450   28.1500   49.0270 C   0  0  0  0  0  0  0  0  0  0  0  0
   60.5200   28.2118   49.9627 H   0  0  0  0  0  0  0  0  0  0  0  0
   58.8713   28.2792   49.2283 H   0  0  0  0  0  0  0  0  0  0  0  0
   60.3860   29.2180   48.1190 N   0  0  0  0  0  0  0  0  0  0  0  0
   60.4080   28.8480   47.1390 H   0  0  0  0  0  0  0  0  0  0  0  0
   61.3490   29.5260   48.3910 H   0  0  0  0  0  0  0  0  0  0  0  0
   59.4640   30.3620   48.1760 C   0  0  0  0  0  0  0  0  0  0  0  0
   59.2108   30.5700   49.2261 H   0  0  0  0  0  0  0  0  0  0  0  0
   58.5559   30.1137   47.6071 H   0  0  0  0  0  0  0  0  0  0  0  0
   60.1010   31.5920   47.5650 C   0  0  0  0  0  0  0  0  0  0  0  0
   61.4820   31.7880   47.7610 C   0  0  0  0  0  0  0  0  0  0  0  0
   62.0586   31.0523   48.3408 H   0  0  0  0  0  0  0  0  0  0  0  0
   62.1260   32.9030   47.2290 C   0  0  0  0  0  0  0  0  0  0  0  0
   63.2061   33.0403   47.3857 H   0  0  0  0  0  0  0  0  0  0  0  0
   61.4040   33.8440   46.4990 C   0  0  0  0  0  0  0  0  0  0  0  0
   61.9171   34.7179   46.0713 H   0  0  0  0  0  0  0  0  0  0  0  0
   60.0320   33.6810   46.3090 C   0  0  0  0  0  0  0  0  0  0  0  0
   59.4709   34.4332   45.7351 H   0  0  0  0  0  0  0  0  0  0  0  0
   59.3530   32.5640   46.8430 C   0  0  0  0  0  0  0  0  0  0  0  0
   57.9250   32.4270   46.6630 N   0  0  0  0  0  0  0  0  0  0  0  0
   57.4260   31.5780   47.0030 H   0  0  0  0  0  0  0  0  0  0  0  0
   57.0950   33.4360   46.0120 C   0  0  0  0  0  0  0  0  0  0  0  0
   56.5927   34.0466   46.7767 H   0  0  0  0  0  0  0  0  0  0  0  0
   57.7270   34.0814   45.3844 H   0  0  0  0  0  0  0  0  0  0  0  0
   56.3398   32.9403   45.3844 H   0  0  0  0  0  0  0  0  0  0  0  0
   57.4010   26.1420   46.9330 C   0  0  0  0  0  0  0  0  0  0  0  0
   57.5668   25.2854   47.6029 H   0  0  0  0  0  0  0  0  0  0  0  0
  1  2  1  0
  2  3  1  0
  3  4  1  0
  4  5  2  0
  5  6  1  0
  5  7  1  0
  7  8  1  0
  7  9  2  0
  9 10  1  0
  9 11  1  0
 11 12  1  0
 11 13  2  0
 13 14  1  0
 14 15  2  0
 15 16  1  0
 16 17  1  0
 16 18  1  0
 16 19  1  0
 19 20  1  0
 19 21  1  0
 19 22  1  0
 22 23  1  0
 22 24  1  0
 22 25  1  0
 25 26  1  0
 25 27  1  0
 25 28  1  0
 28 29  2  0
 29 30  1  0
 29 31  1  0
 31 32  1  0
 31 33  2  0
 33 34  1  0
 33 35  1  0
 35 36  1  0
 35 37  2  0
 37 38  1  0
 38 39  1  0
 38 40  1  0
 40 41  1  0
 40 42  1  0
 40 43  1  0
 14 44  1  0
 44 45  1  0
 44  2  2  0
 13  4  1  0
 37 28  1  0
M  CHG  2   3  -1  22   1
M  END
>  <UniqueID>  (6) 
6

>  <SMILES>  (6) 
CNc1ccccc1C[NH2+]CC/N=c1\cc[n-]c2cc(Cl)ccc12

>  <Energy>  (6) 
52.63559308670305

>  <Genealogy>  (6) 
CNc1ccccc1C[NH2+]CCN=c1cc[n-]c2cc(Cl)ccc12 (protonated)
CNc1ccccc1C[NH2+]CC/N=c1\cc[n-]c2cc(Cl)ccc12 (cis-trans isomerization)
CNc1ccccc1C[NH2+]CC/N=c1\cc[n-]c2cc(Cl)ccc12 (3D coordinates assigned)
CNc1ccccc1C[NH2+]CC/N=c1\cc[n-]c2cc(Cl)ccc12 (optimized conformer: 52.63559308670305 kcal/mol)

>  <smiles>  (6) 
CNc1ccccc1CNCCN=c1cc[nH]c2cc(Cl)ccc12

>  <score_type>  (6) 
oracle

>  <origin>  (6) 
adg

>  <m_score__min__energy>  (6) 
-7.5599999999999996

>  <m_primary>  (6) 
energy

$$$$
6:0
     RDKit          3D

 73 75  0  0  0  0  0  0  0  0999 V2000
   59.6970   34.7780   46.2380 C   0  0  0  0  0  0  0  0  0  0  0  0
   58.5140   34.1170   46.9350 C   0  0  0  0  0  0  0  0  0  0  0  0
   57.5370   33.6240   45.9530 N   0  0  0  0  0  0  0  0  0  0  0  0
   58.1850   33.2610   44.6830 C   0  0  0  0  0  0  0  0  0  0  0  0
   57.6140   31.9690   44.1610 C   0  0  0  0  0  0  0  0  0  0  0  0
   56.6570   31.3160   44.7550 N   0  0  0  0  0  0  0  0  0  0  0  0
   56.4380   29.8960   44.7470 C   0  0  0  0  0  0  0  0  0  0  0  0
   55.2810   29.4130   44.8670 O   0  0  0  0  0  0  0  0  0  0  0  0
   57.6100   28.9650   44.6030 C   0  0  0  0  0  0  0  0  0  0  0  0
   57.6260   27.9230   45.6410 N   0  0  0  0  0  0  0  0  0  0  0  0
   58.0330   26.6160   45.1080 C   0  0  0  0  0  0  0  0  0  0  0  0
   58.9520   25.8900   46.1050 C   0  0  0  0  0  0  0  0  0  0  0  0
   59.9260   26.8110   46.7120 N   0  0  0  0  0  0  0  0  0  0  0  0
   59.8840   26.8180   48.1850 C   0  0  0  0  0  0  0  0  0  0  0  0
   59.7970   28.2390   48.7560 C   0  0  0  0  0  0  0  0  0  0  0  0
   59.2050   29.1500   47.7790 N   0  0  0  0  0  0  0  0  0  0  0  0
   59.0880   30.5670   47.9340 C   0  0  0  0  0  0  0  0  0  0  0  0
   58.2900   31.2040   47.1960 O   0  0  0  0  0  0  0  0  0  0  0  0
   59.8440   31.2970   48.9800 C   0  0  0  0  0  0  0  0  0  0  0  0
   61.0890   31.8800   48.6690 C   0  0  0  0  0  0  0  0  0  0  0  0
   61.6630   31.7410   47.3830 C   0  0  0  0  0  0  0  0  0  0  0  0
   62.9060   32.2920   47.0910 C   0  0  0  0  0  0  0  0  0  0  0  0
   63.6060   32.9820   48.0690 C   0  0  0  0  0  0  0  0  0  0  0  0
   63.0590   33.1410   49.3410 C   0  0  0  0  0  0  0  0  0  0  0  0
   61.7770   32.6270   49.6620 C   0  0  0  0  0  0  0  0  0  0  0  0
   61.2000   32.8320   50.9020 N   0  0  0  0  0  0  0  0  0  0  0  0
   61.7800   33.8290   51.8330 C   0  0  0  0  0  0  0  0  0  0  0  0
   60.0630   32.1320   51.2630 C   0  0  0  0  0  0  0  0  0  0  0  0
   59.5930   32.1190   52.5960 C   0  0  0  0  0  0  0  0  0  0  0  0
   58.4000   31.4870   52.9380 C   0  0  0  0  0  0  0  0  0  0  0  0
   57.6260   30.8200   51.9750 C   0  0  0  0  0  0  0  0  0  0  0  0
   56.3580   30.1970   52.3320 N   0  0  0  0  0  0  0  0  0  0  0  0
   55.0850   30.7950   51.9180 C   0  0  0  0  0  0  0  0  0  0  0  0
   56.3270   28.9500   53.1140 C   0  0  0  0  0  0  0  0  0  0  0  0
   58.1200   30.7700   50.6560 C   0  0  0  0  0  0  0  0  0  0  0  0
   59.3380   31.3950   50.2930 C   0  0  0  0  0  0  0  0  0  0  0  0
   60.3957   35.1684   46.9925 H   0  0  0  0  0  0  0  0  0  0  0  0
   60.2127   34.0373   45.6092 H   0  0  0  0  0  0  0  0  0  0  0  0
   59.3365   35.6054   45.6092 H   0  0  0  0  0  0  0  0  0  0  0  0
   58.8772   33.2716   47.5378 H   0  0  0  0  0  0  0  0  0  0  0  0
   58.0223   34.8625   47.5772 H   0  0  0  0  0  0  0  0  0  0  0  0
   57.1080   32.7530   46.3490 H   0  0  0  0  0  0  0  0  0  0  0  0
   58.0128   34.0590   43.9457 H   0  0  0  0  0  0  0  0  0  0  0  0
   59.2644   33.1347   44.8530 H   0  0  0  0  0  0  0  0  0  0  0  0
   58.0270   31.5554   43.2292 H   0  0  0  0  0  0  0  0  0  0  0  0
   57.5581   28.4809   43.6166 H   0  0  0  0  0  0  0  0  0  0  0  0
   58.5283   29.5610   44.7102 H   0  0  0  0  0  0  0  0  0  0  0  0
   58.3050   28.2040   46.3850 H   0  0  0  0  0  0  0  0  0  0  0  0
   57.1372   26.0032   44.9291 H   0  0  0  0  0  0  0  0  0  0  0  0
   58.5809   26.7707   44.1668 H   0  0  0  0  0  0  0  0  0  0  0  0
   58.3358   25.4464   46.9010 H   0  0  0  0  0  0  0  0  0  0  0  0
   59.5068   25.1127   45.5591 H   0  0  0  0  0  0  0  0  0  0  0  0
   59.6620   27.7750   46.4000 H   0  0  0  0  0  0  0  0  0  0  0  0
   59.0034   26.2485   48.5169 H   0  0  0  0  0  0  0  0  0  0  0  0
   60.8164   26.3636   48.5513 H   0  0  0  0  0  0  0  0  0  0  0  0
   59.1743   28.2268   49.6627 H   0  0  0  0  0  0  0  0  0  0  0  0
   60.8122   28.5875   48.9965 H   0  0  0  0  0  0  0  0  0  0  0  0
   61.1180   31.1891   46.6030 H   0  0  0  0  0  0  0  0  0  0  0  0
   63.3340   32.1804   46.0838 H   0  0  0  0  0  0  0  0  0  0  0  0
   64.5954   33.4049   47.8404 H   0  0  0  0  0  0  0  0  0  0  0  0
   63.6334   33.6761   50.1115 H   0  0  0  0  0  0  0  0  0  0  0  0
   61.5959   33.5126   52.8703 H   0  0  0  0  0  0  0  0  0  0  0  0
   62.8636   33.9055   51.6598 H   0  0  0  0  0  0  0  0  0  0  0  0
   61.3109   34.8088   51.6598 H   0  0  0  0  0  0  0  0  0  0  0  0
   60.1817   32.6184   53.3795 H   0  0  0  0  0  0  0  0  0  0  0  0
   58.0574   31.5109   53.9830 H   0  0  0  0  0  0  0  0  0  0  0  0
   54.5016   31.0691   52.8093 H   0  0  0  0  0  0  0  0  0  0  0  0
   55.2810   31.6952   51.3170 H   0  0  0  0  0  0  0  0  0  0  0  0
   54.5173   30.0694   51.3170 H   0  0  0  0  0  0  0  0  0  0  0  0
   56.3330   29.1901   54.1875 H   0  0  0  0  0  0  0  0  0  0  0  0
   55.4146   28.3864   52.8694 H   0  0  0  0  0  0  0  0  0  0  0  0
   57.2103   28.3418   52.8694 H   0  0  0  0  0  0  0  0  0  0  0  0
   57.5446   30.2316   49.8885 H   0  0  0  0  0  0  0  0  0  0  0  0
  1  2  1  0
  2  3  1  0
  3  4  1  0
  4  5  1  0
  5  6  2  3
  6  7  1  0
  7  8  2  0
  7  9  1  0
  9 10  1  0
 10 11  1  0
 11 12  1  0
 12 13  1  0
 13 14  1  0
 14 15  1  0
 15 16  1  0
 16 17  1  0
 17 18  2  0
 17 19  1  0
 19 20  2  0
 20 21  1  0
 21 22  2  0
 22 23  1  0
 23 24  2  0
 24 25  1  0
 25 26  2  0
 26 27  1  0
 26 28  1  0
 28 29  2  0
 29 30  1  0
 30 31  2  0
 31 32  1  0
 32 33  1  0
 32 34  1  0
 31 35  1  0
 35 36  2  0
 36 19  1  0
 25 20  1  0
 36 28  1  0
  1 37  1  0
  1 38  1  0
  1 39  1  0
  2 40  1  0
  2 41  1  0
  3 42  1  0
  4 43  1  0
  4 44  1  0
  5 45  1  0
  9 46  1  0
  9 47  1  0
 10 48  1  0
 11 49  1  0
 11 50  1  0
 12 51  1  0
 12 52  1  0
 13 53  1  0
 14 54  1  0
 14 55  1  0
 15 56  1  0
 15 57  1  0
 21 58  1  0
 22 59  1  0
 23 60  1  0
 24 61  1  0
 27 62  1  0
 27 63  1  0
 27 64  1  0
 29 65  1  0
 30 66  1  0
 33 67  1  0
 33 68  1  0
 33 69  1  0
 34 70  1  0
 34 71  1  0
 34 72  1  0
 35 73  1  0
M  CHG  2  16  -1  26   1
M  END
>  <UniqueID>  (7) 
7

>  <SMILES>  (7) 
CCNCC=NC(=O)CNCCNCC[N-]C(=O)c1c2ccccc2[n+](C)c2ccc(N(C)C)cc12

>  <Energy>  (7) 
99.26146669454249

>  <Genealogy>  (7) 
CCNCC=NC(=O)CNCCNCC[N-]C(=O)c1c2ccccc2[n+](C)c2ccc(N(C)C)cc12 (protonated)
CCNCC=NC(=O)CNCCNCC[N-]C(=O)c1c2ccccc2[n+](C)c2ccc(N(C)C)cc12 (3D coordinates assigned)
CCNCC=NC(=O)CNCCNCC[N-]C(=O)c1c2ccccc2[n+](C)c2ccc(N(C)C)cc12 (optimized conformer: 99.26146669454249 kcal/mol)

>  <smiles>  (7) 
CCNCC=NC(=O)CNCCNCCNC(=O)c1c2ccccc2[n+](C)c2ccc(N(C)C)cc12

>  <score_type>  (7) 
oracle

>  <origin>  (7) 
adg

>  <m_score__min__energy>  (7) 
-6.8099999999999996

>  <m_primary>  (7) 
energy

$$$$
7:0
     RDKit          3D

 71 76  0  0  0  0  0  0  0  0999 V2000
   56.4850   30.3860   43.3780 C   0  0  0  0  0  0  0  0  0  0  0  0
   56.6370   31.2260   44.5190 O   0  0  0  0  0  0  0  0  0  0  0  0
   57.7900   31.2830   45.3140 C   0  0  0  0  0  0  0  0  0  0  0  0
   58.3030   30.1550   45.9690 C   0  0  0  0  0  0  0  0  0  0  0  0
   59.4670   30.2490   46.7330 C   0  0  0  0  0  0  0  0  0  0  0  0
   60.1210   31.4870   46.9070 C   0  0  0  0  0  0  0  0  0  0  0  0
   59.6290   32.6110   46.2060 C   0  0  0  0  0  0  0  0  0  0  0  0
   58.4540   32.5060   45.4470 C   0  0  0  0  0  0  0  0  0  0  0  0
   60.3060   33.9510   46.2860 C   0  0  0  0  0  0  0  0  0  0  0  0
   61.7270   33.8430   46.8570 C   0  0  0  0  0  0  0  0  0  0  0  0
   61.7990   32.9720   48.0640 N   0  0  2  0  0  0  0  0  0  0  0  0
   60.9180   33.5280   49.1370 C   0  0  0  0  0  0  0  0  0  0  0  0
   63.2090   32.9930   48.5460 C   0  0  0  0  0  0  0  0  0  0  0  0
   63.5550   31.9170   49.5740 C   0  0  0  0  0  0  0  0  0  0  0  0
   62.6660   30.8480   49.8150 C   0  0  0  0  0  0  0  0  0  0  0  0
   62.9050   29.9510   50.8890 C   0  0  0  0  0  0  0  0  0  0  0  0
   61.9320   28.9940   51.2610 C   0  0  0  0  0  0  0  0  0  0  0  0
   62.1350   28.1240   52.3410 C   0  0  0  0  0  0  0  0  0  0  0  0
   61.1710   27.1790   52.7320 O   0  0  0  0  0  0  0  0  0  0  0  0
   60.3630   27.2850   53.9020 C   0  0  0  0  0  0  0  0  0  0  0  0
   63.3290   28.1810   53.0540 C   0  0  0  0  0  0  0  0  0  0  0  0
   63.4920   27.2930   54.1270 O   0  0  0  0  0  0  0  0  0  0  0  0
   63.8180   25.9100   54.0030 C   0  0  0  0  0  0  0  0  0  0  0  0
   64.3090   29.1260   52.6990 C   0  0  0  0  0  0  0  0  0  0  0  0
   64.1270   30.0210   51.6160 C   0  0  0  0  0  0  0  0  0  0  0  0
   65.1190   30.9770   51.2360 C   0  0  0  0  0  0  0  0  0  0  0  0
   66.4020   31.0140   51.8300 C   0  0  0  0  0  0  0  0  0  0  0  0
   67.3620   31.9690   51.4690 C   0  0  0  0  0  0  0  0  0  0  0  0
   68.5860   32.0010   52.1420 O   0  0  0  0  0  0  0  0  0  0  0  0
   68.6690   31.8200   53.5470 C   0  0  0  0  0  0  0  0  0  0  0  0
   67.0690   32.8920   50.4540 C   0  0  0  0  0  0  0  0  0  0  0  0
   67.9900   33.8500   49.9970 O   0  0  0  0  0  0  0  0  0  0  0  0
   68.7830   34.6790   50.8450 C   0  0  0  0  0  0  0  0  0  0  0  0
   65.8030   32.8860   49.8710 C   0  0  0  0  0  0  0  0  0  0  0  0
   64.8170   31.9360   50.2290 C   0  0  0  0  0  0  0  0  0  0  0  0
   61.4530   30.6590   48.9260 C   0  0  0  0  0  0  0  0  0  0  0  0
   61.4410   31.5770   47.6850 C   0  0  1  0  0  0  0  0  0  0  0  0
   56.2980   29.3527   43.7057 H   0  0  0  0  0  0  0  0  0  0  0  0
   55.6360   30.7384   42.7738 H   0  0  0  0  0  0  0  0  0  0  0  0
   57.4036   30.4185   42.7738 H   0  0  0  0  0  0  0  0  0  0  0  0
   57.7845   29.1889   45.8802 H   0  0  0  0  0  0  0  0  0  0  0  0
   59.8801   29.3458   47.2059 H   0  0  0  0  0  0  0  0  0  0  0  0
   58.0490   33.3993   44.9490 H   0  0  0  0  0  0  0  0  0  0  0  0
   60.3609   34.3823   45.2756 H   0  0  0  0  0  0  0  0  0  0  0  0
   59.7164   34.5904   46.9594 H   0  0  0  0  0  0  0  0  0  0  0  0
   62.3865   33.4252   46.0821 H   0  0  0  0  0  0  0  0  0  0  0  0
   62.0409   34.8533   47.1581 H   0  0  0  0  0  0  0  0  0  0  0  0
   61.3313   33.2672   50.1225 H   0  0  0  0  0  0  0  0  0  0  0  0
   60.8667   34.6224   49.0389 H   0  0  0  0  0  0  0  0  0  0  0  0
   59.9080   33.1033   49.0389 H   0  0  0  0  0  0  0  0  0  0  0  0
   63.8691   32.8592   47.6763 H   0  0  0  0  0  0  0  0  0  0  0  0
   63.3465   33.9592   49.0535 H   0  0  0  0  0  0  0  0  0  0  0  0
   60.9943   28.9311   50.6894 H   0  0  0  0  0  0  0  0  0  0  0  0
   60.9990   27.2016   54.7956 H   0  0  0  0  0  0  0  0  0  0  0  0
   59.8501   28.2581   53.9065 H   0  0  0  0  0  0  0  0  0  0  0  0
   59.6165   26.4771   53.9065 H   0  0  0  0  0  0  0  0  0  0  0  0
   63.9225   25.4667   55.0043 H   0  0  0  0  0  0  0  0  0  0  0  0
   63.0173   25.3923   53.4545 H   0  0  0  0  0  0  0  0  0  0  0  0
   64.7657   25.8044   53.4545 H   0  0  0  0  0  0  0  0  0  0  0  0
   65.2428   29.1712   53.2787 H   0  0  0  0  0  0  0  0  0  0  0  0
   66.6543   30.2697   52.5996 H   0  0  0  0  0  0  0  0  0  0  0  0
   68.2624   32.7066   54.0556 H   0  0  0  0  0  0  0  0  0  0  0  0
   68.0881   30.9322   53.8373 H   0  0  0  0  0  0  0  0  0  0  0  0
   69.7209   31.6809   53.8373 H   0  0  0  0  0  0  0  0  0  0  0  0
   68.5607   34.4466   51.8969 H   0  0  0  0  0  0  0  0  0  0  0  0
   69.8489   34.4940   50.6460 H   0  0  0  0  0  0  0  0  0  0  0  0
   68.5509   35.7356   50.6460 H   0  0  0  0  0  0  0  0  0  0  0  0
   65.5630   33.6426   49.1095 H   0  0  0  0  0  0  0  0  0  0  0  0
   61.4330   29.6136   48.5843 H   0  0  0  0  0  0  0  0  0  0  0  0
   60.5706   30.9222   49.5278 H   0  0  0  0  0  0  0  0  0  0  0  0
   62.2136   31.2191   46.9886 H   0  0  0  0  0  0  0  0  0  0  0  0
  1  2  1  0
  2  3  1  0
  3  4  2  0
  4  5  1  0
  5  6  2  0
  6  7  1  0
  7  8  2  0
  7  9  1  0
  9 10  1  0
 10 11  1  0
 11 12  1  1
 11 13  1  0
 13 14  1  0
 14 15  2  0
 15 16  1  0
 16 17  2  0
 17 18  1  0
 18 19  1  0
 19 20  1  0
 18 21  2  0
 21 22  1  0
 22 23  1  0
 21 24  1  0
 24 25  2  0
 25 26  1  0
 26 27  2  0
 27 28  1  0
 28 29  1  0
 29 30  1  0
 28 31  2  0
 31 32  1  0
 32 33  1  0
 31 34  1  0
 34 35  2  0
 15 36  1  0
 36 37  1  0
  8  3  1  0
 37 11  1  0
 37  6  1  0
 35 14  1  0
 25 16  1  0
 35 26  1  0
  1 38  1  0
  1 39  1  0
  1 40  1  0
  4 41  1  0
  5 42  1  0
  8 43  1  0
  9 44  1  0
  9 45  1  0
 10 46  1  0
 10 47  1  0
 12 48  1  0
 12 49  1  0
 12 50  1  0
 13 51  1  0
 13 52  1  0
 17 53  1  0
 20 54  1  0
 20 55  1  0
 20 56  1  0
 23 57  1  0
 23 58  1  0
 23 59  1  0
 24 60  1  0
 27 61  1  0
 30 62  1  0
 30 63  1  0
 30 64  1  0
 33 65  1  0
 33 66  1  0
 33 67  1  0
 34 68  1  0
 36 69  1  0
 36 70  1  0
 37 71  1  6
M  CHG  1  11   1
M  END
>  <UniqueID>  (8) 
8

>  <SMILES>  (8) 
COc1ccc2c(c1)CC[N@+]1(C)Cc3c(c4cc(OC)c(OC)cc4c4cc(OC)c(OC)cc34)C[C@@H]21

>  <Energy>  (8) 
126.3370164825649

>  <Genealogy>  (8) 
COc1ccc2c(c1)CC[N@+]1(C)Cc3c(c4cc(OC)c(OC)cc4c4cc(OC)c(OC)cc34)C[C@@H]21 (chirality)
COc1ccc2c(c1)CC[N@+]1(C)Cc3c(c4cc(OC)c(OC)cc4c4cc(OC)c(OC)cc34)C[C@@H]21 (3D coordinates assigned)
COc1ccc2c(c1)CC[N@+]1(C)Cc3c(c4cc(OC)c(OC)cc4c4cc(OC)c(OC)cc34)C[C@@H]21 (nonaromatic ring conformer: 126.3370164825649 kcal/mol)

>  <smiles>  (8) 
COc1ccc2c(c1)CC[N+]1(C)Cc3c(c4cc(OC)c(OC)cc4c4cc(OC)c(OC)cc34)CC21

>  <score_type>  (8) 
oracle

>  <origin>  (8) 
adg

>  <m_score__min__energy>  (8) 
-6.4199999999999999

>  <m_primary>  (8) 
energy

$$$$
8:0
     RDKit          3D

 78 80  0  0  0  0  0  0  0  0999 V2000
   54.0670   29.7010   52.0540 C   0  0  0  0  0  0  0  0  0  0  0  0
   55.0640   30.8460   51.8880 C   0  0  0  0  0  0  0  0  0  0  0  0
   56.4640   30.3830   51.9980 N   0  0  0  0  0  0  0  0  0  0  0  0
   56.6430   29.1400   52.7870 C   0  0  0  0  0  0  0  0  0  0  0  0
   57.8660   29.1580   53.7120 C   0  0  0  0  0  0  0  0  0  0  0  0
   57.3780   31.4660   52.4320 C   0  0  0  0  0  0  0  0  0  0  0  0
   57.7730   32.3290   51.2370 C   0  0  0  0  0  0  0  0  0  0  0  0
   59.1710   32.2480   51.0370 O   0  0  0  0  0  0  0  0  0  0  0  0
   59.8250   31.7550   52.1900 C   0  0  0  0  0  0  0  0  0  0  0  0
   61.0360   30.9230   51.7770 C   0  0  0  0  0  0  0  0  0  0  0  0
   60.7530   30.2860   50.5510 O   0  0  0  0  0  0  0  0  0  0  0  0
   59.6540   29.4160   50.7070 C   0  0  0  0  0  0  0  0  0  0  0  0
   58.6020   29.7500   49.6560 C   0  0  0  0  0  0  0  0  0  0  0  0
   59.1030   30.7680   48.7330 N   0  0  0  0  0  0  0  0  0  0  0  0
   58.8300   30.6910   47.3250 C   0  0  0  0  0  0  0  0  0  0  0  0
   59.0340   29.4790   46.6450 C   0  0  0  0  0  0  0  0  0  0  0  0
   59.6580   28.3850   47.2810 C   0  0  0  0  0  0  0  0  0  0  0  0
   59.9150   27.2070   46.5830 C   0  0  0  0  0  0  0  0  0  0  0  0
   59.5570   27.1010   45.2430 C   0  0  0  0  0  0  0  0  0  0  0  0
   58.9130   28.1590   44.6040 C   0  0  0  0  0  0  0  0  0  0  0  0
   58.6050   29.3540   45.3000 C   0  0  0  0  0  0  0  0  0  0  0  0
   57.9060   30.3820   44.7020 N   0  0  0  0  0  0  0  0  0  0  0  0
   57.1470   30.1310   43.4570 C   0  0  0  0  0  0  0  0  0  0  0  0
   57.8950   31.6380   45.2790 C   0  0  0  0  0  0  0  0  0  0  0  0
   57.4510   32.7720   44.5570 C   0  0  0  0  0  0  0  0  0  0  0  0
   57.4210   34.0290   45.1430 C   0  0  0  0  0  0  0  0  0  0  0  0
   57.8630   34.2080   46.4450 C   0  0  0  0  0  0  0  0  0  0  0  0
   58.3690   33.1270   47.1830 C   0  0  0  0  0  0  0  0  0  0  0  0
   58.9060   33.3280   48.4670 O   0  0  0  0  0  0  0  0  0  0  0  0
   59.8730   34.3140   48.8410 C   0  0  0  0  0  0  0  0  0  0  0  0
   61.2470   33.6740   49.0760 C   0  0  0  0  0  0  0  0  0  0  0  0
   61.4610   32.5290   48.1630 N   0  0  0  0  0  0  0  0  0  0  0  0
   61.6920   32.9870   46.7830 C   0  0  0  0  0  0  0  0  0  0  0  0
   62.5980   31.7090   48.6120 C   0  0  0  0  0  0  0  0  0  0  0  0
   58.3560   31.8210   46.6150 C   0  0  0  0  0  0  0  0  0  0  0  0
   53.9017   29.5111   53.1248 H   0  0  0  0  0  0  0  0  0  0  0  0
   53.1133   29.9734   51.5784 H   0  0  0  0  0  0  0  0  0  0  0  0
   54.4680   28.7938   51.5784 H   0  0  0  0  0  0  0  0  0  0  0  0
   54.9180   31.3031   50.8982 H   0  0  0  0  0  0  0  0  0  0  0  0
   54.8828   31.5732   52.6932 H   0  0  0  0  0  0  0  0  0  0  0  0
   55.7449   28.9899   53.4042 H   0  0  0  0  0  0  0  0  0  0  0  0
   56.8024   28.3255   52.0651 H   0  0  0  0  0  0  0  0  0  0  0  0
   57.5329   29.1531   54.7604 H   0  0  0  0  0  0  0  0  0  0  0  0
   58.4844   28.2689   53.5196 H   0  0  0  0  0  0  0  0  0  0  0  0
   58.4580   30.0650   53.5196 H   0  0  0  0  0  0  0  0  0  0  0  0
   56.8707   32.0919   53.1810 H   0  0  0  0  0  0  0  0  0  0  0  0
   58.2835   31.0196   52.8687 H   0  0  0  0  0  0  0  0  0  0  0  0
   57.2526   31.9691   50.3372 H   0  0  0  0  0  0  0  0  0  0  0  0
   57.4908   33.3743   51.4311 H   0  0  0  0  0  0  0  0  0  0  0  0
   60.1563   32.5996   52.8119 H   0  0  0  0  0  0  0  0  0  0  0  0
   59.1285   31.1256   52.7634 H   0  0  0  0  0  0  0  0  0  0  0  0
   61.9119   31.5780   51.6598 H   0  0  0  0  0  0  0  0  0  0  0  0
   61.2524   30.1694   52.5485 H   0  0  0  0  0  0  0  0  0  0  0  0
   59.9865   28.3754   50.5780 H   0  0  0  0  0  0  0  0  0  0  0  0
   59.2251   29.5365   51.7127 H   0  0  0  0  0  0  0  0  0  0  0  0
   58.3539   28.8397   49.0905 H   0  0  0  0  0  0  0  0  0  0  0  0
   57.7060   30.1392   50.1616 H   0  0  0  0  0  0  0  0  0  0  0  0
   59.7700   31.4960   49.0820 H   0  0  0  0  0  0  0  0  0  0  0  0
   59.9449   28.4631   48.3401 H   0  0  0  0  0  0  0  0  0  0  0  0
   60.4008   26.3611   47.0913 H   0  0  0  0  0  0  0  0  0  0  0  0
   59.7828   26.1796   44.6862 H   0  0  0  0  0  0  0  0  0  0  0  0
   58.6396   28.0648   43.5427 H   0  0  0  0  0  0  0  0  0  0  0  0
   56.1304   29.7948   43.7088 H   0  0  0  0  0  0  0  0  0  0  0  0
   57.0912   31.0585   42.8683 H   0  0  0  0  0  0  0  0  0  0  0  0
   57.6552   29.3531   42.8683 H   0  0  0  0  0  0  0  0  0  0  0  0
   57.1242   32.6543   43.5133 H   0  0  0  0  0  0  0  0  0  0  0  0
   57.0440   34.8896   44.5709 H   0  0  0  0  0  0  0  0  0  0  0  0
   57.8166   35.2067   46.9037 H   0  0  0  0  0  0  0  0  0  0  0  0
   59.9562   35.0597   48.0366 H   0  0  0  0  0  0  0  0  0  0  0  0
   59.5438   34.7912   49.7758 H   0  0  0  0  0  0  0  0  0  0  0  0
   62.0295   34.4265   48.8990 H   0  0  0  0  0  0  0  0  0  0  0  0
   61.2913   33.3090   50.1127 H   0  0  0  0  0  0  0  0  0  0  0  0
   62.1873   33.9690   46.8007 H   0  0  0  0  0  0  0  0  0  0  0  0
   62.3326   32.2626   46.2586 H   0  0  0  0  0  0  0  0  0  0  0  0
   60.7287   33.0716   46.2586 H   0  0  0  0  0  0  0  0  0  0  0  0
   62.6246   31.6898   49.7115 H   0  0  0  0  0  0  0  0  0  0  0  0
   62.4841   30.6838   48.2300 H   0  0  0  0  0  0  0  0  0  0  0  0
   63.5349   32.1407   48.2300 H   0  0  0  0  0  0  0  0  0  0  0  0
  1  2  1  0
  2  3  1  0
  3  4  1  0
  4  5  1  0
  3  6  1  0
  6  7  1  0
  7  8  1  0
  8  9  1  0
  9 10  1  0
 10 11  1  0
 11 12  1  0
 12 13  1  0
 13 14  1  0
 14 15  1  0
 15 16  2  0
 16 17  1  0
 17 18  2  0
 18 19  1  0
 19 20  2  0
 20 21  1  0
 21 22  2  0
 22 23  1  0
 22 24  1  0
 24 25  2  0
 25 26  1  0
 26 27  2  0
 27 28  1  0
 28 29  1  0
 29 30  1  0
 30 31  1  0
 31 32  1  0
 32 33  1  0
 32 34  1  0
 28 35  2  0
 35 15  1  0
 21 16  1  0
 35 24  1  0
  1 36  1  0
  1 37  1  0
  1 38  1  0
  2 39  1  0
  2 40  1  0
  4 41  1  0
  4 42  1  0
  5 43  1  0
  5 44  1  0
  5 45  1  0
  6 46  1  0
  6 47  1  0
  7 48  1  0
  7 49  1  0
  9 50  1  0
  9 51  1  0
 10 52  1  0
 10 53  1  0
 12 54  1  0
 12 55  1  0
 13 56  1  0
 13 57  1  0
 14 58  1  0
 17 59  1  0
 18 60  1  0
 19 61  1  0
 20 62  1  0
 23 63  1  0
 23 64  1  0
 23 65  1  0
 25 66  1  0
 26 67  1  0
 27 68  1  0
 30 69  1  0
 30 70  1  0
 31 71  1  0
 31 72  1  0
 33 73  1  0
 33 74  1  0
 33 75  1  0
 34 76  1  0
 34 77  1  0
 34 78  1  0
M  CHG  1  22   1
M  END
>  <UniqueID>  (9) 
9

>  <SMILES>  (9) 
CCN(CC)CCOCCOCCNc1c2ccccc2[n+](C)c2cccc(OCCN(C)C)c12

>  <Energy>  (9) 
105.30331743717088

>  <Genealogy>  (9) 
CCN(CC)CCOCCOCCNc1c2ccccc2[n+](C)c2cccc(OCCN(C)C)c12 (3D coordinates assigned)
CCN(CC)CCOCCOCCNc1c2ccccc2[n+](C)c2cccc(OCCN(C)C)c12 (optimized conformer: 105.30331743717088 kcal/mol)

>  <smiles>  (9) 
CCN(CC)CCOCCOCCNc1c2ccccc2[n+](C)c2cccc(OCCN(C)C)c12

>  <score_type>  (9) 
oracle

>  <origin>  (9) 
adg

>  <m_score__min__energy>  (9) 
-5.7800000000000002

>  <m_primary>  (9) 
energy

$$$$
9:0
     RDKit          3D

 72 75  0  0  0  0  0  0  0  0999 V2000
   58.5230   34.5670   52.9010 C   0  0  0  0  0  0  0  0  0  0  0  0
   59.6680   33.8700   52.1780 C   0  0  0  0  0  0  0  0  0  0  0  0
   59.4070   32.4290   52.0870 N   0  0  0  0  0  0  0  0  0  0  0  0
   57.9740   32.1700   51.9080 C   0  0  0  0  0  0  0  0  0  0  0  0
   57.6750   31.9250   50.4220 C   0  0  0  0  0  0  0  0  0  0  0  0
   58.8590   32.1780   49.6000 N   0  0  0  0  0  0  0  0  0  0  0  0
   59.0180   31.5350   48.3300 C   0  0  0  0  0  0  0  0  0  0  0  0
   58.5360   32.1680   47.1740 C   0  0  0  0  0  0  0  0  0  0  0  0
   58.1890   33.5360   47.1930 C   0  0  0  0  0  0  0  0  0  0  0  0
   57.7440   34.1700   46.0350 C   0  0  0  0  0  0  0  0  0  0  0  0
   57.6470   33.4580   44.8430 C   0  0  0  0  0  0  0  0  0  0  0  0
   57.9760   32.1040   44.8070 C   0  0  0  0  0  0  0  0  0  0  0  0
   58.4050   31.4240   45.9780 C   0  0  0  0  0  0  0  0  0  0  0  0
   58.6790   30.0710   45.9750 N   0  0  0  0  0  0  0  0  0  0  0  0
   58.2200   29.2320   44.8460 C   0  0  0  0  0  0  0  0  0  0  0  0
   59.3680   29.5050   47.0330 C   0  0  0  0  0  0  0  0  0  0  0  0
   59.9000   28.1970   46.9460 C   0  0  0  0  0  0  0  0  0  0  0  0
   60.5430   27.6100   48.0260 C   0  0  0  0  0  0  0  0  0  0  0  0
   60.7340   28.3200   49.2010 C   0  0  0  0  0  0  0  0  0  0  0  0
   60.3020   29.6530   49.3160 C   0  0  0  0  0  0  0  0  0  0  0  0
   60.6400   30.4130   50.4580 O   0  0  0  0  0  0  0  0  0  0  0  0
   61.7970   30.1790   51.2680 C   0  0  0  0  0  0  0  0  0  0  0  0
   63.1240   30.4240   50.4880 C   0  0  0  0  0  0  0  0  0  0  0  0
   63.2520   31.7270   49.7320 N   0  0  0  0  0  0  0  0  0  0  0  0
   64.6930   32.1130   49.7270 C   0  0  0  0  0  0  0  0  0  0  0  0
   62.4380   32.7240   50.5100 C   0  0  0  0  0  0  0  0  0  0  0  0
   61.9780   34.0490   49.8140 C   0  0  0  0  0  0  0  0  0  0  0  0
   61.2190   33.9940   48.4760 C   0  0  0  0  0  0  0  0  0  0  0  0
   62.0690   33.7730   47.2110 C   0  0  0  0  0  0  0  0  0  0  0  0
   63.0750   32.6240   47.2930 C   0  0  0  0  0  0  0  0  0  0  0  0
   62.7220   31.5420   48.3340 C   0  0  0  0  0  0  0  0  0  0  0  0
   59.5650   30.2380   48.2410 C   0  0  0  0  0  0  0  0  0  0  0  0
   58.6679   34.4788   53.9878 H   0  0  0  0  0  0  0  0  0  0  0  0
   58.5041   35.6300   52.6187 H   0  0  0  0  0  0  0  0  0  0  0  0
   57.5701   34.0956   52.6187 H   0  0  0  0  0  0  0  0  0  0  0  0
   59.7649   34.2865   51.1645 H   0  0  0  0  0  0  0  0  0  0  0  0
   60.5992   34.0314   52.7408 H   0  0  0  0  0  0  0  0  0  0  0  0
   59.9100   32.0490   51.2500 H   0  0  0  0  0  0  0  0  0  0  0  0
   57.6873   31.2818   52.4901 H   0  0  0  0  0  0  0  0  0  0  0  0
   57.3997   33.0409   52.2568 H   0  0  0  0  0  0  0  0  0  0  0  0
   57.3594   30.8800   50.2861 H   0  0  0  0  0  0  0  0  0  0  0  0
   56.8764   32.6129   50.1072 H   0  0  0  0  0  0  0  0  0  0  0  0
   59.5180   32.9480   49.8630 H   0  0  0  0  0  0  0  0  0  0  0  0
   58.2706   34.1064   48.1300 H   0  0  0  0  0  0  0  0  0  0  0  0
   57.4689   35.2347   46.0628 H   0  0  0  0  0  0  0  0  0  0  0  0
   57.3098   33.9651   43.9270 H   0  0  0  0  0  0  0  0  0  0  0  0
   57.9023   31.5537   43.8574 H   0  0  0  0  0  0  0  0  0  0  0  0
   57.7265   28.3298   45.2365 H   0  0  0  0  0  0  0  0  0  0  0  0
   57.5082   29.8023   44.2311 H   0  0  0  0  0  0  0  0  0  0  0  0
   59.0841   28.9401   44.2311 H   0  0  0  0  0  0  0  0  0  0  0  0
   59.8020   27.6354   46.0052 H   0  0  0  0  0  0  0  0  0  0  0  0
   60.9038   26.5737   47.9493 H   0  0  0  0  0  0  0  0  0  0  0  0
   61.2299   27.8344   50.0544 H   0  0  0  0  0  0  0  0  0  0  0  0
   61.7654   30.8564   52.1341 H   0  0  0  0  0  0  0  0  0  0  0  0
   61.7807   29.1249   51.5819 H   0  0  0  0  0  0  0  0  0  0  0  0
   63.9479   30.3815   51.2156 H   0  0  0  0  0  0  0  0  0  0  0  0
   63.1448   29.6439   49.7128 H   0  0  0  0  0  0  0  0  0  0  0  0
   65.0505   32.2088   50.7629 H   0  0  0  0  0  0  0  0  0  0  0  0
   65.2779   31.3399   49.2072 H   0  0  0  0  0  0  0  0  0  0  0  0
   64.8131   33.0750   49.2072 H   0  0  0  0  0  0  0  0  0  0  0  0
   61.5277   32.2043   50.8436 H   0  0  0  0  0  0  0  0  0  0  0  0
   63.1285   33.0683   51.2940 H   0  0  0  0  0  0  0  0  0  0  0  0
   61.3248   34.5721   50.5279 H   0  0  0  0  0  0  0  0  0  0  0  0
   62.9274   34.5355   49.5455 H   0  0  0  0  0  0  0  0  0  0  0  0
   60.4921   33.1707   48.5380 H   0  0  0  0  0  0  0  0  0  0  0  0
   60.7714   34.9914   48.3547 H   0  0  0  0  0  0  0  0  0  0  0  0
   61.3857   33.5675   46.3739 H   0  0  0  0  0  0  0  0  0  0  0  0
   62.6633   34.6893   47.0795 H   0  0  0  0  0  0  0  0  0  0  0  0
   63.1317   32.1450   46.3044 H   0  0  0  0  0  0  0  0  0  0  0  0
   64.0311   33.0656   47.6106 H   0  0  0  0  0  0  0  0  0  0  0  0
   61.6251   31.4933   48.4006 H   0  0  0  0  0  0  0  0  0  0  0  0
   63.2103   30.6275   47.9664 H   0  0  0  0  0  0  0  0  0  0  0  0
  1  2  1  0
  2  3  1  0
  3  4  1  0
  4  5  1  0
  5  6  1  0
  6  7  1  0
  7  8  2  0
  8  9  1  0
  9 10  2  0
 10 11  1  0
 11 12  2  0
 12 13  1  0
 13 14  2  0
 14 15  1  0
 14 16  1  0
 16 17  2  0
 17 18  1  0
 18 19  2  0
 19 20  1  0
 20 21  1  0
 21 22  1  0
 22 23  1  0
 23 24  1  0
 24 25  1  0
 24 26  1  0
 26 27  1  0
 27 28  1  0
 28 29  1  0
 29 30  1  0
 30 31  1  0
 20 32  2  0
 32  7  1  0
 13  8  1  0
 32 16  1  0
 31 24  1  0
  1 33  1  0
  1 34  1  0
  1 35  1  0
  2 36  1  0
  2 37  1  0
  3 38  1  0
  4 39  1  0
  4 40  1  0
  5 41  1  0
  5 42  1  0
  6 43  1  0
  9 44  1  0
 10 45  1  0
 11 46  1  0
 12 47  1  0
 15 48  1  0
 15 49  1  0
 15 50  1  0
 17 51  1  0
 18 52  1  0
 19 53  1  0
 22 54  1  0
 22 55  1  0
 23 56  1  0
 23 57  1  0
 25 58  1  0
 25 59  1  0
 25 60  1  0
 26 61  1  0
 26 62  1  0
 27 63  1  0
 27 64  1  0
 28 65  1  0
 28 66  1  0
 29 67  1  0
 29 68  1  0
 30 69  1  0
 30 70  1  0
 31 71  1  0
 31 72  1  0
M  CHG  2  14   1  24   1
M  END
>  <UniqueID>  (10) 
10

>  <SMILES>  (10) 
CCNCCNc1c2ccccc2[n+](C)c2cccc(OCC[N+]3(C)CCCCCC3)c12

>  <Energy>  (10) 
135.07463457979787

>  <Genealogy>  (10) 
CCNCCNc1c2ccccc2[n+](C)c2cccc(OCC[N+]3(C)CCCCCC3)c12 (3D coordinates assigned)
CCNCCNc1c2ccccc2[n+](C)c2cccc(OCC[N+]3(C)CCCCCC3)c12 (nonaromatic ring conformer: 135.07463457979787 kcal/mol)

>  <smiles>  (10) 
CCNCCNc1c2ccccc2[n+](C)c2cccc(OCC[N+]3(C)CCCCCC3)c12

>  <score_type>  (10) 
oracle

>  <origin>  (10) 
adg

>  <m_score__min__energy>  (10) 
-2.8199999999999998

>  <m_primary>  (10) 
energy

$$$$
10:0
     RDKit          3D

 60 63  0  0  0  0  0  0  0  0999 V2000
   59.2770   29.6980   51.7890 C   0  0  0  0  0  0  0  0  0  0  0  0
   60.2830   30.8310   52.0240 C   0  0  0  0  0  0  0  0  0  0  0  0
   60.2390   31.9070   51.0010 N   0  0  0  0  0  0  0  0  0  0  0  0
   58.9260   32.5920   50.8800 C   0  0  0  0  0  0  0  0  0  0  0  0
   58.1950   32.3350   49.5430 C   0  0  0  0  0  0  0  0  0  0  0  0
   58.9940   31.4980   48.6460 N   0  0  0  0  0  0  0  0  0  0  0  0
   58.8920   31.5840   47.2150 C   0  0  0  0  0  0  0  0  0  0  0  0
   59.0550   32.8350   46.5910 C   0  0  0  0  0  0  0  0  0  0  0  0
   59.4560   33.9670   47.3330 C   0  0  0  0  0  0  0  0  0  0  0  0
   59.6540   35.1960   46.7070 C   0  0  0  0  0  0  0  0  0  0  0  0
   59.4720   35.3140   45.3350 C   0  0  0  0  0  0  0  0  0  0  0  0
   59.0610   34.2130   44.5840 C   0  0  0  0  0  0  0  0  0  0  0  0
   58.8080   32.9600   45.2000 C   0  0  0  0  0  0  0  0  0  0  0  0
   58.3400   31.8780   44.4830 N   0  0  0  0  0  0  0  0  0  0  0  0
   57.7700   32.0800   43.1300 C   0  0  0  0  0  0  0  0  0  0  0  0
   58.3940   30.6090   45.0320 C   0  0  0  0  0  0  0  0  0  0  0  0
   58.2070   29.4570   44.2260 C   0  0  0  0  0  0  0  0  0  0  0  0
   58.2510   28.1820   44.7760 C   0  0  0  0  0  0  0  0  0  0  0  0
   58.5220   28.0090   46.1260 C   0  0  0  0  0  0  0  0  0  0  0  0
   58.7680   29.1150   46.9570 C   0  0  0  0  0  0  0  0  0  0  0  0
   59.1450   28.9240   48.2980 O   0  0  0  0  0  0  0  0  0  0  0  0
   60.3610   28.3250   48.7300 C   0  0  0  0  0  0  0  0  0  0  0  0
   58.6710   30.4340   46.4210 C   0  0  0  0  0  0  0  0  0  0  0  0
   61.4210   32.7950   50.9640 C   0  0  0  0  0  0  0  0  0  0  0  0
   62.0850   32.7580   49.6120 C   0  0  0  0  0  0  0  0  0  0  0  0
   62.0810   31.5810   48.8450 C   0  0  0  0  0  0  0  0  0  0  0  0
   62.7060   31.5530   47.5950 C   0  0  0  0  0  0  0  0  0  0  0  0
   63.3350   32.7000   47.1010 C   0  0  0  0  0  0  0  0  0  0  0  0
   63.3320   33.8780   47.8550 C   0  0  0  0  0  0  0  0  0  0  0  0
   62.7070   33.9100   49.1040 C   0  0  0  0  0  0  0  0  0  0  0  0
   58.9309   29.3082   52.7576 H   0  0  0  0  0  0  0  0  0  0  0  0
   58.4176   30.0828   51.2204 H   0  0  0  0  0  0  0  0  0  0  0  0
   59.7608   28.8902   51.2204 H   0  0  0  0  0  0  0  0  0  0  0  0
   60.0734   31.2801   53.0061 H   0  0  0  0  0  0  0  0  0  0  0  0
   61.2850   30.3808   51.9659 H   0  0  0  0  0  0  0  0  0  0  0  0
   58.2791   32.2438   51.6987 H   0  0  0  0  0  0  0  0  0  0  0  0
   59.1291   33.6721   50.9252 H   0  0  0  0  0  0  0  0  0  0  0  0
   57.2408   31.8281   49.7492 H   0  0  0  0  0  0  0  0  0  0  0  0
   58.0257   33.3040   49.0508 H   0  0  0  0  0  0  0  0  0  0  0  0
   59.7330   30.8830   49.0620 H   0  0  0  0  0  0  0  0  0  0  0  0
   59.6140   33.8778   48.4179 H   0  0  0  0  0  0  0  0  0  0  0  0
   59.9545   36.0728   47.2994 H   0  0  0  0  0  0  0  0  0  0  0  0
   59.6527   36.2791   44.8391 H   0  0  0  0  0  0  0  0  0  0  0  0
   58.9309   34.3176   43.4967 H   0  0  0  0  0  0  0  0  0  0  0  0
   56.7365   32.4462   43.2184 H   0  0  0  0  0  0  0  0  0  0  0  0
   58.3752   32.8184   42.5837 H   0  0  0  0  0  0  0  0  0  0  0  0
   57.7752   31.1253   42.5837 H   0  0  0  0  0  0  0  0  0  0  0  0
   58.0241   29.5750   43.1477 H   0  0  0  0  0  0  0  0  0  0  0  0
   58.0700   27.3046   44.1378 H   0  0  0  0  0  0  0  0  0  0  0  0
   58.5445   26.9944   46.5504 H   0  0  0  0  0  0  0  0  0  0  0  0
   60.3919   28.3098   49.8295 H   0  0  0  0  0  0  0  0  0  0  0  0
   60.4188   27.2953   48.3473 H   0  0  0  0  0  0  0  0  0  0  0  0
   61.2125   28.9067   48.3473 H   0  0  0  0  0  0  0  0  0  0  0  0
   61.1030   33.8256   51.1800 H   0  0  0  0  0  0  0  0  0  0  0  0
   62.1430   32.4473   51.7175 H   0  0  0  0  0  0  0  0  0  0  0  0
   61.5842   30.6781   49.2296 H   0  0  0  0  0  0  0  0  0  0  0  0
   62.7030   30.6281   46.9996 H   0  0  0  0  0  0  0  0  0  0  0  0
   63.8319   32.6758   46.1199 H   0  0  0  0  0  0  0  0  0  0  0  0
   63.8229   34.7813   47.4637 H   0  0  0  0  0  0  0  0  0  0  0  0
   62.7021   34.8402   49.6912 H   0  0  0  0  0  0  0  0  0  0  0  0
  1  2  1  0
  2  3  1  0
  3  4  1  0
  4  5  1  0
  5  6  1  0
  6  7  1  0
  7  8  1  0
  8  9  2  0
  9 10  1  0
 10 11  2  0
 11 12  1  0
 12 13  2  0
 13 14  1  0
 14 15  1  0
 14 16  2  0
 16 17  1  0
 17 18  2  0
 18 19  1  0
 19 20  2  0
 20 21  1  0
 21 22  1  0
 20 23  1  0
  3 24  1  0
 24 25  1  0
 25 26  2  0
 26 27  1  0
 27 28  2  0
 28 29  1  0
 29 30  2  0
 23  7  2  0
 30 25  1  0
 13  8  1  0
 23 16  1  0
  1 31  1  0
  1 32  1  0
  1 33  1  0
  2 34  1  0
  2 35  1  0
  4 36  1  0
  4 37  1  0
  5 38  1  0
  5 39  1  0
  6 40  1  0
  9 41  1  0
 10 42  1  0
 11 43  1  0
 12 44  1  0
 15 45  1  0
 15 46  1  0
 15 47  1  0
 17 48  1  0
 18 49  1  0
 19 50  1  0
 22 51  1  0
 22 52  1  0
 22 53  1  0
 24 54  1  0
 24 55  1  0
 26 56  1  0
 27 57  1  0
 28 58  1  0
 29 59  1  0
 30 60  1  0
M  CHG  1  14   1
M  END
>  <UniqueID>  (11) 
11

>  <SMILES>  (11) 
CCN(CCNc1c2ccccc2[n+](C)c2cccc(OC)c12)Cc1ccccc1

>  <Energy>  (11) 
99.07117488725692

>  <Genealogy>  (11) 
CCN(CCNc1c2ccccc2[n+](C)c2cccc(OC)c12)Cc1ccccc1 (3D coordinates assigned)
CCN(CCNc1c2ccccc2[n+](C)c2cccc(OC)c12)Cc1ccccc1 (optimized conformer: 99.07117488725692 kcal/mol)

>  <smiles>  (11) 
CCN(CCNc1c2ccccc2[n+](C)c2cccc(OC)c12)Cc1ccccc1

>  <score_type>  (11) 
oracle

>  <origin>  (11) 
adg

>  <m_score__min__energy>  (11) 
-6.4199999999999999

>  <m_primary>  (11) 
energy

$$$$
11:0
     RDKit          3D

 69 72  0  0  0  0  0  0  0  0999 V2000
   57.9245   32.8203   42.4494 H   0  0  0  0  0  0  0  0  0  0  0  0
   58.1110   32.7110   43.5280 C   0  0  0  0  0  0  0  0  0  0  0  0
   59.0080   33.5320   44.1450 N   0  0  0  0  0  0  0  0  0  0  0  0
   59.2380   33.3940   45.4730 C   0  0  0  0  0  0  0  0  0  0  0  0
   60.3030   34.2980   46.4180 S   0  0  0  0  0  0  0  0  0  0  0  0
   59.9280   33.4590   47.8480 C   0  0  0  0  0  0  0  0  0  0  0  0
   60.4470   33.6570   49.1300 C   0  0  0  0  0  0  0  0  0  0  0  0
   61.3490   34.5980   49.2400 N   0  0  0  0  0  0  0  0  0  0  0  0
   62.8060   34.5890   49.2970 C   0  0  0  0  0  0  0  0  0  0  0  0
   63.1727   35.6205   49.4039 H   0  0  0  0  0  0  0  0  0  0  0  0
   63.1299   33.9867   50.1586 H   0  0  0  0  0  0  0  0  0  0  0  0
   63.3770   33.9780   48.0130 C   0  0  0  0  0  0  0  0  0  0  0  0
   62.6246   34.0579   47.2145 H   0  0  0  0  0  0  0  0  0  0  0  0
   64.2918   34.5282   47.7478 H   0  0  0  0  0  0  0  0  0  0  0  0
   63.7320   32.5510   48.1980 N   0  0  0  0  0  0  0  0  0  0  0  0
   62.7950   31.6650   47.4810 C   0  0  0  0  0  0  0  0  0  0  0  0
   62.1960   31.0986   48.2092 H   0  0  0  0  0  0  0  0  0  0  0  0
   62.1282   32.2705   46.8496 H   0  0  0  0  0  0  0  0  0  0  0  0
   63.3623   30.9654   46.8496 H   0  0  0  0  0  0  0  0  0  0  0  0
   63.7220   32.2100   49.6290 C   0  0  0  0  0  0  0  0  0  0  0  0
   63.7491   33.1334   50.2262 H   0  0  0  0  0  0  0  0  0  0  0  0
   62.8070   31.6471   49.8654 H   0  0  0  0  0  0  0  0  0  0  0  0
   64.6025   31.5945   49.8654 H   0  0  0  0  0  0  0  0  0  0  0  0
   59.9380   32.8070   50.1840 C   0  0  0  0  0  0  0  0  0  0  0  0
   60.3220   32.8770   51.5460 C   0  0  0  0  0  0  0  0  0  0  0  0
   61.0596   33.6318   51.8561 H   0  0  0  0  0  0  0  0  0  0  0  0
   59.7870   32.0100   52.5090 C   0  0  0  0  0  0  0  0  0  0  0  0
   60.2230   32.1470   53.8360 O   0  0  0  0  0  0  0  0  0  0  0  0
   59.7660   33.1510   54.7350 C   0  0  0  0  0  0  0  0  0  0  0  0
   59.9197   32.8134   55.7706 H   0  0  0  0  0  0  0  0  0  0  0  0
   60.3300   34.0799   54.5647 H   0  0  0  0  0  0  0  0  0  0  0  0
   58.6951   33.3358   54.5647 H   0  0  0  0  0  0  0  0  0  0  0  0
   58.8440   31.0460   52.1300 C   0  0  0  0  0  0  0  0  0  0  0  0
   58.4241   30.3625   52.8827 H   0  0  0  0  0  0  0  0  0  0  0  0
   58.4380   30.9520   50.8030 C   0  0  0  0  0  0  0  0  0  0  0  0
   57.6964   30.1930   50.5132 H   0  0  0  0  0  0  0  0  0  0  0  0
   58.9620   31.8110   49.8350 C   0  0  0  0  0  0  0  0  0  0  0  0
   58.5150   31.6800   48.5560 N   0  0  0  0  0  0  0  0  0  0  0  0
   58.9810   32.4860   47.5780 C   0  0  0  0  0  0  0  0  0  0  0  0
   58.5870   32.4430   46.2400 C   0  0  0  0  0  0  0  0  0  0  0  0
   57.6620   31.5870   45.6450 C   0  0  0  0  0  0  0  0  0  0  0  0
   57.1350   30.8261   46.2394 H   0  0  0  0  0  0  0  0  0  0  0  0
   57.4180   31.7200   44.2620 C   0  0  0  0  0  0  0  0  0  0  0  0
   56.4480   30.8000   43.5660 C   0  0  0  0  0  0  0  0  0  0  0  0
   55.4282   31.1937   43.6881 H   0  0  0  0  0  0  0  0  0  0  0  0
   56.7167   30.7490   42.5005 H   0  0  0  0  0  0  0  0  0  0  0  0
   56.5080   29.4940   44.1090 O   0  0  0  0  0  0  0  0  0  0  0  0
   57.3730   28.6600   43.3580 C   0  0  0  0  0  0  0  0  0  0  0  0
   56.7774   27.8887   42.8478 H   0  0  0  0  0  0  0  0  0  0  0  0
   57.9087   29.2782   42.6226 H   0  0  0  0  0  0  0  0  0  0  0  0
   58.4050   27.9770   44.2750 C   0  0  0  0  0  0  0  0  0  0  0  0
   58.1513   26.9096   44.3544 H   0  0  0  0  0  0  0  0  0  0  0  0
   59.3972   28.1307   43.8258 H   0  0  0  0  0  0  0  0  0  0  0  0
   58.4410   28.5590   45.6440 N   0  0  1  0  0  0  0  0  0  0  0  0
   57.6910   29.2910   45.6790 H   0  0  0  0  0  0  0  0  0  0  0  0
   58.1140   27.5430   46.6700 C   0  0  0  0  0  0  0  0  0  0  0  0
   58.2532   27.9755   47.6718 H   0  0  0  0  0  0  0  0  0  0  0  0
   57.0680   27.2245   46.5503 H   0  0  0  0  0  0  0  0  0  0  0  0
   58.7779   26.6741   46.5503 H   0  0  0  0  0  0  0  0  0  0  0  0
   59.7510   29.2460   45.8980 C   0  0  0  0  0  0  0  0  0  0  0  0
   59.5575   30.3068   45.6807 H   0  0  0  0  0  0  0  0  0  0  0  0
   60.8870   28.7910   44.9550 C   0  0  0  0  0  0  0  0  0  0  0  0
   61.7443   28.4476   45.5527 H   0  0  0  0  0  0  0  0  0  0  0  0
   60.5289   27.9669   44.3205 H   0  0  0  0  0  0  0  0  0  0  0  0
   61.1967   29.6344   44.3205 H   0  0  0  0  0  0  0  0  0  0  0  0
   60.2000   29.1060   47.3660 C   0  0  0  0  0  0  0  0  0  0  0  0
   59.3639   29.3667   48.0316 H   0  0  0  0  0  0  0  0  0  0  0  0
   60.5109   28.0683   47.5570 H   0  0  0  0  0  0  0  0  0  0  0  0
   61.0456   29.7831   47.5570 H   0  0  0  0  0  0  0  0  0  0  0  0
  1  2  1  0
  2  3  2  0
  3  4  1  0
  4  5  1  0
  5  6  1  0
  6  7  1  0
  7  8  2  0
  8  9  1  0
  9 10  1  0
  9 11  1  0
  9 12  1  0
 12 13  1  0
 12 14  1  0
 12 15  1  0
 15 16  1  0
 16 17  1  0
 16 18  1  0
 16 19  1  0
 15 20  1  0
 20 21  1  0
 20 22  1  0
 20 23  1  0
  7 24  1  0
 24 25  2  0
 25 26  1  0
 25 27  1  0
 27 28  1  0
 28 29  1  0
 29 30  1  0
 29 31  1  0
 29 32  1  0
 27 33  2  0
 33 34  1  0
 33 35  1  0
 35 36  1  0
 35 37  2  0
 37 38  1  0
 38 39  1  0
 39 40  1  0
 40 41  1  0
 41 42  1  0
 41 43  2  0
 43 44  1  0
 44 45  1  0
 44 46  1  0
 44 47  1  0
 47 48  1  0
 48 49  1  0
 48 50  1  0
 48 51  1  0
 51 52  1  0
 51 53  1  0
 51 54  1  0
 54 55  1  6
 54 56  1  0
 56 57  1  0
 56 58  1  0
 56 59  1  0
 54 60  1  0
 60 61  1  0
 60 62  1  0
 62 63  1  0
 62 64  1  0
 62 65  1  0
 60 66  1  0
 66 67  1  0
 66 68  1  0
 66 69  1  0
 43  2  1  0
 40  4  2  0
 39  6  2  0
 37 24  1  0
M  CHG  2  38  -1  54   1
M  END
>  <UniqueID>  (12) 
12

>  <SMILES>  (12) 
COc1ccc2[n-]c3c(sc4ncc(COCC[N@@H+](C)C(C)C)cc43)/c(=N/CCN(C)C)c2c1

>  <Energy>  (12) 
132.25118120599112

>  <Genealogy>  (12) 
COc1ccc2[n-]c3c(sc4ncc(COCC[NH+](C)C(C)C)cc43)c(=NCCN(C)C)c2c1 (protonated)
COc1ccc2[n-]c3c(sc4ncc(COCC[N@@H+](C)C(C)C)cc43)c(=NCCN(C)C)c2c1 (chirality)
COc1ccc2[n-]c3c(sc4ncc(COCC[N@@H+](C)C(C)C)cc43)/c(=N/CCN(C)C)c2c1 (cis-trans isomerization)
COc1ccc2[n-]c3c(sc4ncc(COCC[N@@H+](C)C(C)C)cc43)/c(=N/CCN(C)C)c2c1 (3D coordinates assigned)
COc1ccc2[n-]c3c(sc4ncc(COCC[N@@H+](C)C(C)C)cc43)/c(=N/CCN(C)C)c2c1 (optimized conformer: 132.25118120599112 kcal/mol)

>  <smiles>  (12) 
COc1ccc2[nH]c3c(sc4ncc(COCCN(C)C(C)C)cc43)c(=NCCN(C)C)c2c1

>  <score_type>  (12) 
oracle

>  <origin>  (12) 
adg

>  <m_score__min__energy>  (12) 
-7.2999999999999998

>  <m_primary>  (12) 
energy

$$$$
12:0
     RDKit          3D

 50 53  0  0  0  0  0  0  0  0999 V2000
   58.1730   26.9310   42.7680 C   0  0  0  0  0  0  0  0  0  0  0  0
   58.1580   27.3310   44.1710 N   0  0  0  0  0  0  0  0  0  0  0  0
   58.8170   26.7360   45.1790 C   0  0  0  0  0  0  0  0  0  0  0  0
   58.5140   27.4080   46.3420 C   0  0  0  0  0  0  0  0  0  0  0  0
   57.6640   28.4210   46.0730 N   0  0  0  0  0  0  0  0  0  0  0  0
   57.4560   28.3350   44.7410 C   0  0  0  0  0  0  0  0  0  0  0  0
   56.5990   29.3110   43.9910 C   0  0  0  0  0  0  0  0  0  0  0  0
   56.2330   30.4270   44.8690 N   0  0  0  0  0  0  0  0  0  0  0  0
   56.9440   31.6520   44.4670 C   0  0  0  0  0  0  0  0  0  0  0  0
   57.9510   32.1210   45.5370 C   0  0  1  0  0  0  0  0  0  0  0  0
   59.2260   31.2870   45.5900 C   0  0  0  0  0  0  0  0  0  0  0  0
   60.2490   32.1430   46.2080 N   0  0  0  0  0  0  0  0  0  0  0  0
   60.2400   31.9890   47.6870 C   0  0  0  0  0  0  0  0  0  0  0  0
   61.5710   32.3700   48.2800 C   0  0  0  0  0  0  0  0  0  0  0  0
   61.6460   33.0280   49.5170 C   0  0  0  0  0  0  0  0  0  0  0  0
   62.8860   33.4090   50.0310 C   0  0  0  0  0  0  0  0  0  0  0  0
   64.0420   33.1450   49.2970 C   0  0  0  0  0  0  0  0  0  0  0  0
   63.9580   32.5280   48.0880 N   0  0  0  0  0  0  0  0  0  0  0  0
   62.7600   32.1470   47.5660 C   0  0  0  0  0  0  0  0  0  0  0  0
   59.9360   33.5000   45.6780 C   0  0  2  0  0  0  0  0  0  0  0  0
   60.1310   34.6950   46.6080 C   0  0  0  0  0  0  0  0  0  0  0  0
   58.9100   34.9420   47.2600 O   0  0  0  0  0  0  0  0  0  0  0  0
   57.8980   34.5730   46.3500 C   0  0  0  0  0  0  0  0  0  0  0  0
   58.4630   33.5560   45.3520 C   0  0  2  0  0  0  0  0  0  0  0  0
   58.2141   25.8339   42.6999 H   0  0  0  0  0  0  0  0  0  0  0  0
   57.2606   27.2951   42.2731 H   0  0  0  0  0  0  0  0  0  0  0  0
   59.0556   27.3624   42.2731 H   0  0  0  0  0  0  0  0  0  0  0  0
   59.4823   25.8644   45.0908 H   0  0  0  0  0  0  0  0  0  0  0  0
   58.9054   27.1572   47.3390 H   0  0  0  0  0  0  0  0  0  0  0  0
   57.1565   29.6958   43.1243 H   0  0  0  0  0  0  0  0  0  0  0  0
   55.6852   28.8036   43.6482 H   0  0  0  0  0  0  0  0  0  0  0  0
   56.5360   30.1760   45.8380 H   0  0  0  0  0  0  0  0  0  0  0  0
   57.4879   31.4547   43.5314 H   0  0  0  0  0  0  0  0  0  0  0  0
   56.1962   32.4480   44.3361 H   0  0  0  0  0  0  0  0  0  0  0  0
   57.3454   32.0228   46.4500 H   0  0  0  0  0  0  0  0  0  0  0  0
   59.0663   30.3840   46.1975 H   0  0  0  0  0  0  0  0  0  0  0  0
   59.5318   30.9569   44.5862 H   0  0  0  0  0  0  0  0  0  0  0  0
   59.4590   32.6373   48.1109 H   0  0  0  0  0  0  0  0  0  0  0  0
   60.0395   30.9344   47.9272 H   0  0  0  0  0  0  0  0  0  0  0  0
   60.7270   33.2436   50.0817 H   0  0  0  0  0  0  0  0  0  0  0  0
   62.9511   33.9131   51.0065 H   0  0  0  0  0  0  0  0  0  0  0  0
   65.0243   33.4366   49.6970 H   0  0  0  0  0  0  0  0  0  0  0  0
   64.8320   32.3440   47.5460 H   0  0  0  0  0  0  0  0  0  0  0  0
   62.7227   31.6618   46.5795 H   0  0  0  0  0  0  0  0  0  0  0  0
   60.6463   33.6012   44.8442 H   0  0  0  0  0  0  0  0  0  0  0  0
   60.9109   34.4675   47.3497 H   0  0  0  0  0  0  0  0  0  0  0  0
   60.4431   35.5795   46.0333 H   0  0  0  0  0  0  0  0  0  0  0  0
   57.0571   34.1226   46.8978 H   0  0  0  0  0  0  0  0  0  0  0  0
   57.5447   35.4636   45.8096 H   0  0  0  0  0  0  0  0  0  0  0  0
   58.1819   33.8732   44.3369 H   0  0  0  0  0  0  0  0  0  0  0  0
  1  2  1  0
  2  3  1  0
  3  4  2  0
  4  5  1  0
  5  6  2  0
  6  7  1  0
  7  8  1  0
  8  9  1  0
  9 10  1  0
 10 11  1  0
 11 12  1  0
 12 13  1  0
 13 14  1  0
 14 15  2  0
 15 16  1  0
 16 17  2  0
 17 18  1  0
 18 19  2  0
 12 20  1  0
 20 21  1  0
 21 22  1  0
 22 23  1  0
 23 24  1  0
  6  2  1  0
 24 10  1  0
 19 14  1  0
 24 20  1  0
  1 25  1  0
  1 26  1  0
  1 27  1  0
  3 28  1  0
  4 29  1  0
  7 30  1  0
  7 31  1  0
  8 32  1  0
  9 33  1  0
  9 34  1  0
 10 35  1  1
 11 36  1  0
 11 37  1  0
 13 38  1  0
 13 39  1  0
 15 40  1  0
 16 41  1  0
 17 42  1  0
 18 43  1  0
 19 44  1  0
 20 45  1  6
 21 46  1  0
 21 47  1  0
 23 48  1  0
 23 49  1  0
 24 50  1  6
M  CHG  1  18   1
M  END
>  <UniqueID>  (13) 
13

>  <SMILES>  (13) 
Cn1ccnc1CNC[C@H]1CN(Cc2ccc[nH+]c2)[C@@H]2COCC12

>  <Energy>  (13) 
94.46232628431736

>  <Genealogy>  (13) 
Cn1ccnc1CNCC1CN(Cc2ccc[nH+]c2)C2COCC12 (protonated)
Cn1ccnc1CNC[C@H]1CN(Cc2ccc[nH+]c2)[C@@H]2COCC12 (chirality)
Cn1ccnc1CNC[C@H]1CN(Cc2ccc[nH+]c2)[C@@H]2COCC12 (3D coordinates assigned)
Cn1ccnc1CNC[C@H]1CN(Cc2ccc[nH+]c2)[C@@H]2COCC12 (nonaromatic ring conformer: 94.46232628431736 kcal/mol)

>  <smiles>  (13) 
Cn1ccnc1CNCC1CN(Cc2cccnc2)C2COCC12

>  <score_type>  (13) 
oracle

>  <origin>  (13) 
adg

>  <m_score__min__energy>  (13) 
-6.6100000000000003

>  <m_primary>  (13) 
energy

$$$$
13:0
     RDKit          3D

 48 51  0  0  0  0  0  0  0  0999 V2000
   58.0640   25.2990   47.4220 C   0  0  0  0  0  0  0  0  0  0  0  0
   57.6410   26.4650   46.5940 C   0  0  0  0  0  0  0  0  0  0  0  0
   56.5560   26.5450   45.7130 C   0  0  0  0  0  0  0  0  0  0  0  0
   56.4360   27.7800   45.2390 O   0  0  0  0  0  0  0  0  0  0  0  0
   57.3930   28.4810   45.7930 C   0  0  0  0  0  0  0  0  0  0  0  0
   58.1410   27.7410   46.6180 C   0  0  0  0  0  0  0  0  0  0  0  0
   59.1510   28.5750   47.2410 C   0  0  0  0  0  0  0  0  0  0  0  0
   60.0280   28.2180   48.0700 O   0  0  0  0  0  0  0  0  0  0  0  0
   58.9250   29.9240   46.6800 C   0  0  0  0  0  0  0  0  0  0  0  0
   59.6130   31.1090   46.8980 C   0  0  0  0  0  0  0  0  0  0  0  0
   60.7320   31.1370   47.7930 N   0  0  0  0  0  0  0  0  0  0  0  0
   62.0560   31.5030   47.2890 C   0  0  0  0  0  0  0  0  0  0  0  0
   63.0750   31.6350   48.4350 C   0  0  0  0  0  0  0  0  0  0  0  0
   64.1070   32.6700   48.1800 N   0  0  0  0  0  0  0  0  0  0  0  0
   63.4910   33.8470   47.5410 C   0  0  0  0  0  0  0  0  0  0  0  0
   64.7750   33.0860   49.4280 C   0  0  0  0  0  0  0  0  0  0  0  0
   59.1690   32.2650   46.2120 C   0  0  0  0  0  0  0  0  0  0  0  0
   59.7820   33.5130   46.4370 C   0  0  0  0  0  0  0  0  0  0  0  0
   59.3480   34.6510   45.7630 C   0  0  0  0  0  0  0  0  0  0  0  0
   58.2910   34.5710   44.8620 C   0  0  0  0  0  0  0  0  0  0  0  0
   57.6510   33.3520   44.6300 C   0  0  0  0  0  0  0  0  0  0  0  0
   58.0660   32.1730   45.2950 C   0  0  0  0  0  0  0  0  0  0  0  0
   57.4280   30.9600   45.0820 N   0  0  0  0  0  0  0  0  0  0  0  0
   56.3100   30.8390   44.1320 C   0  0  0  0  0  0  0  0  0  0  0  0
   57.8590   29.8700   45.7890 C   0  0  0  0  0  0  0  0  0  0  0  0
   57.9716   25.5536   48.4881 H   0  0  0  0  0  0  0  0  0  0  0  0
   57.4219   24.4354   47.1943 H   0  0  0  0  0  0  0  0  0  0  0  0
   59.1105   25.0480   47.1943 H   0  0  0  0  0  0  0  0  0  0  0  0
   55.8966   25.7046   45.4506 H   0  0  0  0  0  0  0  0  0  0  0  0
   60.6860   30.5120   48.6300 H   0  0  0  0  0  0  0  0  0  0  0  0
   62.4008   30.7260   46.5909 H   0  0  0  0  0  0  0  0  0  0  0  0
   61.9771   32.4757   46.7814 H   0  0  0  0  0  0  0  0  0  0  0  0
   62.5341   31.8993   49.3557 H   0  0  0  0  0  0  0  0  0  0  0  0
   63.5942   30.6694   48.5250 H   0  0  0  0  0  0  0  0  0  0  0  0
   64.8310   32.3000   47.5210 H   0  0  0  0  0  0  0  0  0  0  0  0
   63.1293   34.5381   48.3167 H   0  0  0  0  0  0  0  0  0  0  0  0
   64.2378   34.3571   46.9148 H   0  0  0  0  0  0  0  0  0  0  0  0
   62.6463   33.5241   46.9148 H   0  0  0  0  0  0  0  0  0  0  0  0
   64.1964   32.7256   50.2913 H   0  0  0  0  0  0  0  0  0  0  0  0
   65.7881   32.6589   49.4616 H   0  0  0  0  0  0  0  0  0  0  0  0
   64.8386   34.1836   49.4616 H   0  0  0  0  0  0  0  0  0  0  0  0
   60.6132   33.5892   47.1535 H   0  0  0  0  0  0  0  0  0  0  0  0
   59.8425   35.6169   45.9434 H   0  0  0  0  0  0  0  0  0  0  0  0
   57.9574   35.4736   44.3291 H   0  0  0  0  0  0  0  0  0  0  0  0
   56.8120   33.3070   43.9201 H   0  0  0  0  0  0  0  0  0  0  0  0
   55.3661   30.7368   44.6876 H   0  0  0  0  0  0  0  0  0  0  0  0
   56.2676   31.7378   43.4993 H   0  0  0  0  0  0  0  0  0  0  0  0
   56.4609   29.9519   43.4993 H   0  0  0  0  0  0  0  0  0  0  0  0
  1  2  1  0
  2  3  2  0
  3  4  1  0
  4  5  1  0
  5  6  2  0
  6  7  1  0
  7  8  2  0
  7  9  1  0
  9 10  2  0
 10 11  1  0
 11 12  1  0
 12 13  1  0
 13 14  1  0
 14 15  1  0
 14 16  1  0
 10 17  1  0
 17 18  2  0
 18 19  1  0
 19 20  2  0
 20 21  1  0
 21 22  2  0
 22 23  1  0
 23 24  1  0
 23 25  2  0
  6  2  1  0
 25  9  1  0
 25  5  1  0
 22 17  1  0
  1 26  1  0
  1 27  1  0
  1 28  1  0
  3 29  1  0
 11 30  1  0
 12 31  1  0
 12 32  1  0
 13 33  1  0
 13 34  1  0
 14 35  1  0
 15 36  1  0
 15 37  1  0
 15 38  1  0
 16 39  1  0
 16 40  1  0
 16 41  1  0
 18 42  1  0
 19 43  1  0
 20 44  1  0
 21 45  1  0
 24 46  1  0
 24 47  1  0
 24 48  1  0
M  CHG  2  14   1  23   1
M  END
>  <UniqueID>  (14) 
14

>  <SMILES>  (14) 
Cc1coc2c1C(=O)c1c(NCC[NH+](C)C)c3ccccc3[n+](C)c1-2

>  <Energy>  (14) 
146.11089221014453

>  <Genealogy>  (14) 
Cc1coc2c1C(=O)c1c(NCC[NH+](C)C)c3ccccc3[n+](C)c1-2 (protonated)
Cc1coc2c1C(=O)c1c(NCC[NH+](C)C)c3ccccc3[n+](C)c1-2 (3D coordinates assigned)
Cc1coc2c1C(=O)c1c(NCC[NH+](C)C)c3ccccc3[n+](C)c1-2 (nonaromatic ring conformer: 146.11089221014453 kcal/mol)

>  <smiles>  (14) 
Cc1coc2c1C(=O)c1c(NCCN(C)C)c3ccccc3[n+](C)c1-2

>  <score_type>  (14) 
oracle

>  <origin>  (14) 
adg

>  <m_score__min__energy>  (14) 
-4.8300000000000001

>  <m_primary>  (14) 
energy

$$$$
14:0
     RDKit          3D

 27 29  0  0  0  0  0  0  0  0999 V2000
   55.5190   29.9240   44.2590 O   0  0  0  0  0  0  0  0  0  0  0  0
   56.6440   29.9250   44.8260 C   0  0  0  0  0  0  0  0  0  0  0  0
   57.3080   28.7170   44.9230 C   0  0  0  0  0  0  0  0  0  0  0  0
   58.4170   28.3820   45.7010 C   0  0  0  0  0  0  0  0  0  0  0  0
   59.2520   29.2630   46.4450 C   0  0  0  0  0  0  0  0  0  0  0  0
   59.3240   30.6840   46.2930 C   0  0  0  0  0  0  0  0  0  0  0  0
   60.5200   31.3440   46.7050 C   0  0  0  0  0  0  0  0  0  0  0  0
   60.6350   32.7320   46.7490 C   0  0  0  0  0  0  0  0  0  0  0  0
   62.1480   33.4500   47.2930 Cl  0  0  0  0  0  0  0  0  0  0  0  0
   59.5580   33.5260   46.3720 C   0  0  0  0  0  0  0  0  0  0  0  0
   59.6450   35.2820   46.4310 Cl  0  0  0  0  0  0  0  0  0  0  0  0
   58.3980   32.9200   45.9060 C   0  0  0  0  0  0  0  0  0  0  0  0
   58.2730   31.5230   45.8140 C   0  0  0  0  0  0  0  0  0  0  0  0
   57.1190   31.1100   45.2470 N   0  0  0  0  0  0  0  0  0  0  0  0
   60.2680   28.5900   47.3860 C   0  0  0  0  0  0  0  0  0  0  0  0
   59.7920   27.2360   47.9100 C   0  0  0  0  0  0  0  0  0  0  0  0
   59.3710   26.3780   46.7670 C   0  0  0  0  0  0  0  0  0  0  0  0
   58.6990   26.9170   45.7550 C   0  0  0  0  0  0  0  0  0  0  0  0
   56.9058   27.9052   44.2991 H   0  0  0  0  0  0  0  0  0  0  0  0
   61.3858   30.7328   46.9996 H   0  0  0  0  0  0  0  0  0  0  0  0
   57.5518   33.5525   45.5998 H   0  0  0  0  0  0  0  0  0  0  0  0
   61.2095   28.4418   46.8368 H   0  0  0  0  0  0  0  0  0  0  0  0
   60.3989   29.2512   48.2553 H   0  0  0  0  0  0  0  0  0  0  0  0
   60.6124   26.7449   48.4538 H   0  0  0  0  0  0  0  0  0  0  0  0
   58.9389   27.3859   48.5880 H   0  0  0  0  0  0  0  0  0  0  0  0
   59.6148   25.3054   46.7608 H   0  0  0  0  0  0  0  0  0  0  0  0
   58.3430   26.2699   44.9398 H   0  0  0  0  0  0  0  0  0  0  0  0
  1  2  2  0
  2  3  1  0
  3  4  2  0
  4  5  1  0
  5  6  2  0
  6  7  1  0
  7  8  2  0
  8  9  1  0
  8 10  1  0
 10 11  1  0
 10 12  2  0
 12 13  1  0
 13 14  2  0
  5 15  1  0
 15 16  1  0
 16 17  1  0
 17 18  2  0
 14  2  1  0
 18  4  1  0
 13  6  1  0
  3 19  1  0
  7 20  1  0
 12 21  1  0
 15 22  1  0
 15 23  1  0
 16 24  1  0
 16 25  1  0
 17 26  1  0
 18 27  1  0
M  END
>  <UniqueID>  (15) 
15

>  <SMILES>  (15) 
O=c1cc2c(c3cc(Cl)c(Cl)cc3n1)CCC=C2

>  <Energy>  (15) 
69.968861416935

>  <Genealogy>  (15) 
O=c1cc2c(c3cc(Cl)c(Cl)cc3n1)CCC=C2 (3D coordinates assigned)
O=c1cc2c(c3cc(Cl)c(Cl)cc3n1)CCC=C2 (nonaromatic ring conformer: 69.968861416935 kcal/mol)

>  <smiles>  (15) 
O=c1cc2c(c3cc(Cl)c(Cl)cc3n1)CCC=C2

>  <score_type>  (15) 
oracle

>  <origin>  (15) 
adg

>  <m_score__min__energy>  (15) 
-7.9100000000000001

>  <m_primary>  (15) 
energy

$$$$
15:0
     RDKit          3D

 58 60  0  0  0  0  0  0  0  0999 V2000
   63.2490   33.5990   46.7980 C   0  0  0  0  0  0  0  0  0  0  0  0
   63.3960   32.1180   47.1270 C   0  0  0  0  0  0  0  0  0  0  0  0
   62.9390   31.8590   48.4990 N   0  0  0  0  0  0  0  0  0  0  0  0
   63.9880   32.2060   49.4660 C   0  0  0  0  0  0  0  0  0  0  0  0
   63.7090   31.5540   50.8300 C   0  0  0  0  0  0  0  0  0  0  0  0
   62.2140   31.2910   51.1150 C   0  0  0  0  0  0  0  0  0  0  0  0
   61.6570   30.1350   50.3930 N   0  0  0  0  0  0  0  0  0  0  0  0
   60.1920   30.0660   50.4670 C   0  0  0  0  0  0  0  0  0  0  0  0
   59.5530   30.9950   49.4210 C   0  0  0  0  0  0  0  0  0  0  0  0
   60.3940   31.1980   48.2240 N   0  0  0  0  0  0  0  0  0  0  0  0
   59.6890   30.8820   46.9860 C   0  0  0  0  0  0  0  0  0  0  0  0
   59.6300   29.5370   46.5180 C   0  0  0  0  0  0  0  0  0  0  0  0
   60.3030   28.4790   47.1800 C   0  0  0  0  0  0  0  0  0  0  0  0
   60.2200   27.1680   46.7160 C   0  0  0  0  0  0  0  0  0  0  0  0
   59.4710   26.8750   45.5850 C   0  0  0  0  0  0  0  0  0  0  0  0
   58.7890   27.8910   44.9200 C   0  0  0  0  0  0  0  0  0  0  0  0
   58.8400   29.2300   45.3780 C   0  0  0  0  0  0  0  0  0  0  0  0
   58.1280   30.2190   44.7400 N   0  0  0  0  0  0  0  0  0  0  0  0
   56.9220   29.8470   43.9690 C   0  0  0  0  0  0  0  0  0  0  0  0
   58.4130   31.5450   44.9860 C   0  0  0  0  0  0  0  0  0  0  0  0
   58.0530   32.5870   44.0720 C   0  0  0  0  0  0  0  0  0  0  0  0
   57.7770   32.3410   42.6080 C   0  0  0  0  0  0  0  0  0  0  0  0
   58.0740   33.9220   44.4950 C   0  0  0  0  0  0  0  0  0  0  0  0
   58.5420   34.2520   45.7560 C   0  0  0  0  0  0  0  0  0  0  0  0
   59.0690   33.2680   46.5860 C   0  0  0  0  0  0  0  0  0  0  0  0
   59.0740   31.9020   46.1990 C   0  0  0  0  0  0  0  0  0  0  0  0
   63.1915   34.1780   47.7315 H   0  0  0  0  0  0  0  0  0  0  0  0
   64.1184   33.9326   46.2125 H   0  0  0  0  0  0  0  0  0  0  0  0
   62.3309   33.7552   46.2125 H   0  0  0  0  0  0  0  0  0  0  0  0
   62.7906   31.5271   46.4240 H   0  0  0  0  0  0  0  0  0  0  0  0
   64.4548   31.8327   47.0398 H   0  0  0  0  0  0  0  0  0  0  0  0
   62.7290   30.8350   48.5960 H   0  0  0  0  0  0  0  0  0  0  0  0
   64.9584   31.8515   49.0884 H   0  0  0  0  0  0  0  0  0  0  0  0
   64.0032   33.2985   49.5935 H   0  0  0  0  0  0  0  0  0  0  0  0
   64.2412   30.5920   50.8673 H   0  0  0  0  0  0  0  0  0  0  0  0
   64.0553   32.2642   51.5953 H   0  0  0  0  0  0  0  0  0  0  0  0
   62.0943   31.1143   52.1941 H   0  0  0  0  0  0  0  0  0  0  0  0
   61.6645   32.1773   50.7651 H   0  0  0  0  0  0  0  0  0  0  0  0
   61.9680   30.1360   49.3950 H   0  0  0  0  0  0  0  0  0  0  0  0
   59.8687   29.0318   50.2775 H   0  0  0  0  0  0  0  0  0  0  0  0
   59.8719   30.3871   51.4692 H   0  0  0  0  0  0  0  0  0  0  0  0
   58.5954   30.5563   49.1039 H   0  0  0  0  0  0  0  0  0  0  0  0
   59.4230   31.9783   49.8967 H   0  0  0  0  0  0  0  0  0  0  0  0
   61.2450   30.5980   48.3020 H   0  0  0  0  0  0  0  0  0  0  0  0
   60.8070   32.1530   48.2400 H   0  0  0  0  0  0  0  0  0  0  0  0
   60.9017   28.6974   48.0766 H   0  0  0  0  0  0  0  0  0  0  0  0
   60.7493   26.3633   47.2473 H   0  0  0  0  0  0  0  0  0  0  0  0
   59.4160   25.8409   45.2140 H   0  0  0  0  0  0  0  0  0  0  0  0
   58.2002   27.6490   44.0229 H   0  0  0  0  0  0  0  0  0  0  0  0
   56.1064   29.5954   44.6629 H   0  0  0  0  0  0  0  0  0  0  0  0
   56.6166   30.6927   43.3353 H   0  0  0  0  0  0  0  0  0  0  0  0
   57.1461   28.9762   43.3353 H   0  0  0  0  0  0  0  0  0  0  0  0
   56.9593   31.6122   42.5064 H   0  0  0  0  0  0  0  0  0  0  0  0
   57.4877   33.2863   42.1255 H   0  0  0  0  0  0  0  0  0  0  0  0
   58.6829   31.9453   42.1255 H   0  0  0  0  0  0  0  0  0  0  0  0
   57.7162   34.7141   43.8208 H   0  0  0  0  0  0  0  0  0  0  0  0
   58.4968   35.2951   46.1022 H   0  0  0  0  0  0  0  0  0  0  0  0
   59.4901   33.5538   47.5612 H   0  0  0  0  0  0  0  0  0  0  0  0
  1  2  1  0
  2  3  1  0
  3  4  1  0
  4  5  1  0
  5  6  1  0
  6  7  1  0
  7  8  1  0
  8  9  1  0
  9 10  1  0
 10 11  1  0
 11 12  2  0
 12 13  1  0
 13 14  2  0
 14 15  1  0
 15 16  2  0
 16 17  1  0
 17 18  2  0
 18 19  1  0
 18 20  1  0
 20 21  2  0
 21 22  1  0
 21 23  1  0
 23 24  2  0
 24 25  1  0
 25 26  2  0
 26 11  1  0
 17 12  1  0
 26 20  1  0
  1 27  1  0
  1 28  1  0
  1 29  1  0
  2 30  1  0
  2 31  1  0
  3 32  1  0
  4 33  1  0
  4 34  1  0
  5 35  1  0
  5 36  1  0
  6 37  1  0
  6 38  1  0
  7 39  1  0
  8 40  1  0
  8 41  1  0
  9 42  1  0
  9 43  1  0
 10 44  1  0
 10 45  1  0
 13 46  1  0
 14 47  1  0
 15 48  1  0
 16 49  1  0
 19 50  1  0
 19 51  1  0
 19 52  1  0
 22 53  1  0
 22 54  1  0
 22 55  1  0
 23 56  1  0
 24 57  1  0
 25 58  1  0
M  CHG  2  10   1  18   1
M  END
>  <UniqueID>  (16) 
16

>  <SMILES>  (16) 
CCNCCCNCC[NH2+]c1c2ccccc2[n+](C)c2c(C)cccc12

>  <Energy>  (16) 
89.92326793893969

>  <Genealogy>  (16) 
CCNCCCNCC[NH2+]c1c2ccccc2[n+](C)c2c(C)cccc12 (protonated)
CCNCCCNCC[NH2+]c1c2ccccc2[n+](C)c2c(C)cccc12 (3D coordinates assigned)
CCNCCCNCC[NH2+]c1c2ccccc2[n+](C)c2c(C)cccc12 (optimized conformer: 89.92326793893969 kcal/mol)

>  <smiles>  (16) 
CCNCCCNCCNc1c2ccccc2[n+](C)c2c(C)cccc12

>  <score_type>  (16) 
oracle

>  <origin>  (16) 
adg

>  <m_score__min__energy>  (16) 
-3.9500000000000002

>  <m_primary>  (16) 
energy

$$$$
16:0
     RDKit          3D

 53 55  0  0  0  0  0  0  0  0999 V2000
   56.0130   29.9490   44.4360 C   0  0  0  0  0  0  0  0  0  0  0  0
   57.0270   30.6440   43.5120 C   0  0  0  0  0  0  0  0  0  0  0  0
   57.7550   31.7670   44.1500 N   0  0  0  0  0  0  0  0  0  0  0  0
   58.2880   32.7380   43.1680 C   0  0  0  0  0  0  0  0  0  0  0  0
   57.8460   32.3400   41.7660 C   0  0  0  0  0  0  0  0  0  0  0  0
   56.9920   32.4020   45.2450 C   0  0  0  0  0  0  0  0  0  0  0  0
   57.7950   33.5540   45.8660 C   0  0  0  0  0  0  0  0  0  0  0  0
   59.0550   33.0730   46.6150 C   0  0  0  0  0  0  0  0  0  0  0  0
   59.5910   31.7840   46.1120 N   0  0  0  0  0  0  0  0  0  0  0  0
   60.5990   31.1980   46.9880 C   0  0  0  0  0  0  0  0  0  0  0  0
   61.6850   31.9660   47.4610 C   0  0  0  0  0  0  0  0  0  0  0  0
   62.1540   33.0940   46.7520 C   0  0  0  0  0  0  0  0  0  0  0  0
   63.2300   33.8380   47.2300 C   0  0  0  0  0  0  0  0  0  0  0  0
   63.8630   33.4690   48.4110 C   0  0  0  0  0  0  0  0  0  0  0  0
   63.4170   32.3580   49.1290 C   0  0  0  0  0  0  0  0  0  0  0  0
   62.3110   31.5960   48.6780 C   0  0  0  0  0  0  0  0  0  0  0  0
   61.8310   30.5200   49.3930 N   0  0  0  0  0  0  0  0  0  0  0  0
   62.1960   30.3510   50.8160 C   0  0  0  0  0  0  0  0  0  0  0  0
   61.0340   29.5850   48.7600 C   0  0  0  0  0  0  0  0  0  0  0  0
   60.7830   28.3170   49.3380 C   0  0  0  0  0  0  0  0  0  0  0  0
   60.0220   27.3620   48.6710 C   0  0  0  0  0  0  0  0  0  0  0  0
   59.5670   27.6090   47.3830 C   0  0  0  0  0  0  0  0  0  0  0  0
   59.8170   28.8350   46.7640 C   0  0  0  0  0  0  0  0  0  0  0  0
   59.5460   28.8590   44.8570 Br  0  0  0  0  0  0  0  0  0  0  0  0
   60.4680   29.8760   47.4850 C   0  0  0  0  0  0  0  0  0  0  0  0
   56.2852   30.1356   45.4853 H   0  0  0  0  0  0  0  0  0  0  0  0
   55.0065   30.3480   44.2418 H   0  0  0  0  0  0  0  0  0  0  0  0
   56.0220   28.8663   44.2418 H   0  0  0  0  0  0  0  0  0  0  0  0
   57.7641   29.8965   43.1834 H   0  0  0  0  0  0  0  0  0  0  0  0
   56.4541   31.0711   42.6757 H   0  0  0  0  0  0  0  0  0  0  0  0
   57.9052   33.7425   43.4014 H   0  0  0  0  0  0  0  0  0  0  0  0
   59.3869   32.7425   43.2176 H   0  0  0  0  0  0  0  0  0  0  0  0
   57.0301   31.6053   41.8335 H   0  0  0  0  0  0  0  0  0  0  0  0
   57.4933   33.2310   41.2259 H   0  0  0  0  0  0  0  0  0  0  0  0
   58.6953   31.8962   41.2259 H   0  0  0  0  0  0  0  0  0  0  0  0
   56.0456   32.7953   44.8454 H   0  0  0  0  0  0  0  0  0  0  0  0
   56.7934   31.6490   46.0219 H   0  0  0  0  0  0  0  0  0  0  0  0
   58.1043   34.2390   45.0628 H   0  0  0  0  0  0  0  0  0  0  0  0
   57.1444   34.0512   46.6005 H   0  0  0  0  0  0  0  0  0  0  0  0
   59.8366   33.8397   46.5083 H   0  0  0  0  0  0  0  0  0  0  0  0
   58.7647   32.9136   47.6640 H   0  0  0  0  0  0  0  0  0  0  0  0
   58.7700   31.1540   45.9960 H   0  0  0  0  0  0  0  0  0  0  0  0
   60.0070   31.9190   45.1620 H   0  0  0  0  0  0  0  0  0  0  0  0
   61.6641   33.3881   45.8121 H   0  0  0  0  0  0  0  0  0  0  0  0
   63.5794   34.7191   46.6719 H   0  0  0  0  0  0  0  0  0  0  0  0
   64.7179   34.0541   48.7810 H   0  0  0  0  0  0  0  0  0  0  0  0
   63.9314   32.0702   50.0578 H   0  0  0  0  0  0  0  0  0  0  0  0
   61.3809   30.7284   51.4509 H   0  0  0  0  0  0  0  0  0  0  0  0
   62.3619   29.2844   51.0278 H   0  0  0  0  0  0  0  0  0  0  0  0
   63.1167   30.9145   51.0278 H   0  0  0  0  0  0  0  0  0  0  0  0
   61.1963   28.0832   50.3302 H   0  0  0  0  0  0  0  0  0  0  0  0
   59.7805   26.4095   49.1653 H   0  0  0  0  0  0  0  0  0  0  0  0
   59.0044   26.8316   46.8453 H   0  0  0  0  0  0  0  0  0  0  0  0
  1  2  1  0
  2  3  1  0
  3  4  1  0
  4  5  1  0
  3  6  1  0
  6  7  1  0
  7  8  1  0
  8  9  1  0
  9 10  1  0
 10 11  2  0
 11 12  1  0
 12 13  2  0
 13 14  1  0
 14 15  2  0
 15 16  1  0
 16 17  2  0
 17 18  1  0
 17 19  1  0
 19 20  2  0
 20 21  1  0
 21 22  2  0
 22 23  1  0
 23 24  1  0
 23 25  2  0
 25 10  1  0
 16 11  1  0
 25 19  1  0
  1 26  1  0
  1 27  1  0
  1 28  1  0
  2 29  1  0
  2 30  1  0
  4 31  1  0
  4 32  1  0
  5 33  1  0
  5 34  1  0
  5 35  1  0
  6 36  1  0
  6 37  1  0
  7 38  1  0
  7 39  1  0
  8 40  1  0
  8 41  1  0
  9 42  1  0
  9 43  1  0
 12 44  1  0
 13 45  1  0
 14 46  1  0
 15 47  1  0
 18 48  1  0
 18 49  1  0
 18 50  1  0
 20 51  1  0
 21 52  1  0
 22 53  1  0
M  CHG  2   9   1  17   1
M  END
>  <UniqueID>  (17) 
17

>  <SMILES>  (17) 
CCN(CC)CCC[NH2+]c1c2ccccc2[n+](C)c2cccc(Br)c12

>  <Energy>  (17) 
93.86372255115859

>  <Genealogy>  (17) 
CCN(CC)CCC[NH2+]c1c2ccccc2[n+](C)c2cccc(Br)c12 (protonated)
CCN(CC)CCC[NH2+]c1c2ccccc2[n+](C)c2cccc(Br)c12 (3D coordinates assigned)
CCN(CC)CCC[NH2+]c1c2ccccc2[n+](C)c2cccc(Br)c12 (optimized conformer: 93.86372255115859 kcal/mol)

>  <smiles>  (17) 
CCN(CC)CCCNc1c2ccccc2[n+](C)c2cccc(Br)c12

>  <score_type>  (17) 
oracle

>  <origin>  (17) 
adg

>  <m_score__min__energy>  (17) 
-4.4299999999999997

>  <m_primary>  (17) 
energy

$$$$
17:0
     RDKit          3D

 43 46  0  0  0  0  0  0  0  0999 V2000
   58.1400   31.7250   51.0000 C   0  0  0  0  0  0  0  0  0  0  0  0
   59.4330   30.9440   51.2250 C   0  0  0  0  0  0  0  0  0  0  0  0
   59.9960   30.4770   49.9470 N   0  0  0  0  0  0  0  0  0  0  0  0
   60.1300   29.0050   49.9030 C   0  0  0  0  0  0  0  0  0  0  0  0
   60.5710   28.4800   48.5220 C   0  0  0  0  0  0  0  0  0  0  0  0
   59.5610   28.7440   47.4880 N   0  0  0  0  0  0  0  0  0  0  0  0
   59.2550   29.9200   46.8670 C   0  0  0  0  0  0  0  0  0  0  0  0
   58.1710   29.7610   46.0260 C   0  0  0  0  0  0  0  0  0  0  0  0
   57.7940   28.4370   46.1210 C   0  0  0  0  0  0  0  0  0  0  0  0
   56.7590   27.7250   45.5130 C   0  0  0  0  0  0  0  0  0  0  0  0
   56.6180   26.3650   45.8370 C   0  0  0  0  0  0  0  0  0  0  0  0
   57.5000   25.7520   46.7530 C   0  0  0  0  0  0  0  0  0  0  0  0
   57.3050   24.0540   47.1480 Cl  0  0  0  0  0  0  0  0  0  0  0  0
   58.5320   26.4950   47.3540 C   0  0  0  0  0  0  0  0  0  0  0  0
   58.6570   27.8480   47.0170 C   0  0  0  0  0  0  0  0  0  0  0  0
   57.5910   30.8740   45.2640 C   0  0  0  0  0  0  0  0  0  0  0  0
   56.6040   30.6880   44.5020 O   0  0  0  0  0  0  0  0  0  0  0  0
   58.1960   32.2210   45.4220 C   0  0  0  0  0  0  0  0  0  0  0  0
   57.6640   33.3260   44.7350 C   0  0  0  0  0  0  0  0  0  0  0  0
   58.2330   34.5920   44.8880 C   0  0  0  0  0  0  0  0  0  0  0  0
   59.3340   34.7710   45.7240 C   0  0  0  0  0  0  0  0  0  0  0  0
   59.8770   33.6850   46.4140 C   0  0  0  0  0  0  0  0  0  0  0  0
   59.3200   32.4020   46.2750 C   0  0  0  0  0  0  0  0  0  0  0  0
   59.9030   31.2430   47.0100 C   0  0  0  0  0  0  0  0  0  0  0  0
   60.9350   31.3950   47.7150 O   0  0  0  0  0  0  0  0  0  0  0  0
   57.6988   31.9915   51.9718 H   0  0  0  0  0  0  0  0  0  0  0  0
   58.3593   32.6418   50.4331 H   0  0  0  0  0  0  0  0  0  0  0  0
   57.4306   31.1042   50.4331 H   0  0  0  0  0  0  0  0  0  0  0  0
   60.1651   31.5961   51.7238 H   0  0  0  0  0  0  0  0  0  0  0  0
   59.2089   30.0674   51.8506 H   0  0  0  0  0  0  0  0  0  0  0  0
   59.4160   30.8200   49.1480 H   0  0  0  0  0  0  0  0  0  0  0  0
   60.9490   30.8980   49.8430 H   0  0  0  0  0  0  0  0  0  0  0  0
   60.8779   28.6989   50.6493 H   0  0  0  0  0  0  0  0  0  0  0  0
   59.1386   28.5784   50.1153 H   0  0  0  0  0  0  0  0  0  0  0  0
   61.5105   28.9758   48.2364 H   0  0  0  0  0  0  0  0  0  0  0  0
   60.7049   27.3908   48.5979 H   0  0  0  0  0  0  0  0  0  0  0  0
   56.0753   28.2130   44.8027 H   0  0  0  0  0  0  0  0  0  0  0  0
   55.8145   25.7737   45.3735 H   0  0  0  0  0  0  0  0  0  0  0  0
   59.2226   26.0254   48.0699 H   0  0  0  0  0  0  0  0  0  0  0  0
   56.7952   33.1928   44.0736 H   0  0  0  0  0  0  0  0  0  0  0  0
   57.8107   35.4514   44.3467 H   0  0  0  0  0  0  0  0  0  0  0  0
   59.7767   35.7712   45.8406 H   0  0  0  0  0  0  0  0  0  0  0  0
   60.7466   33.8347   47.0708 H   0  0  0  0  0  0  0  0  0  0  0  0
  1  2  1  0
  2  3  1  0
  3  4  1  0
  4  5  1  0
  5  6  1  0
  6  7  1  0
  7  8  2  0
  8  9  1  0
  9 10  2  0
 10 11  1  0
 11 12  2  0
 12 13  1  0
 12 14  1  0
 14 15  2  0
  8 16  1  0
 16 17  2  0
 16 18  1  0
 18 19  2  0
 19 20  1  0
 20 21  2  0
 21 22  1  0
 22 23  2  0
 23 24  1  0
 24 25  2  0
 15  6  1  0
 23 18  1  0
 24  7  1  0
 15  9  1  0
  1 26  1  0
  1 27  1  0
  1 28  1  0
  2 29  1  0
  2 30  1  0
  3 31  1  0
  3 32  1  0
  4 33  1  0
  4 34  1  0
  5 35  1  0
  5 36  1  0
 10 37  1  0
 11 38  1  0
 14 39  1  0
 19 40  1  0
 20 41  1  0
 21 42  1  0
 22 43  1  0
M  CHG  1   3   1
M  END
>  <UniqueID>  (18) 
18

>  <SMILES>  (18) 
CC[NH2+]CCn1c2c(c3ccc(Cl)cc31)C(=O)c1ccccc1C2=O

>  <Energy>  (18) 
85.32647375203098

>  <Genealogy>  (18) 
CC[NH2+]CCn1c2c(c3ccc(Cl)cc31)C(=O)c1ccccc1C2=O (protonated)
CC[NH2+]CCn1c2c(c3ccc(Cl)cc31)C(=O)c1ccccc1C2=O (3D coordinates assigned)
CC[NH2+]CCn1c2c(c3ccc(Cl)cc31)C(=O)c1ccccc1C2=O (nonaromatic ring conformer: 85.32647375203098 kcal/mol)

>  <smiles>  (18) 
CCNCCn1c2c(c3ccc(Cl)cc31)C(=O)c1ccccc1C2=O

>  <score_type>  (18) 
oracle

>  <origin>  (18) 
adg

>  <m_score__min__energy>  (18) 
-6.6200000000000001

>  <m_primary>  (18) 
energy

$$$$
18:0
     RDKit          3D

 70 72  0  0  0  0  0  0  0  0999 V2000
   61.2990   34.2960   49.1450 C   0  0  0  0  0  0  0  0  0  0  0  0
   59.8540   34.1570   49.6350 C   0  0  0  0  0  0  0  0  0  0  0  0
   59.6380   32.8440   50.2870 N   0  0  0  0  0  0  0  0  0  0  0  0
   59.8550   32.9310   51.7520 C   0  0  0  0  0  0  0  0  0  0  0  0
   58.7900   33.7950   52.4260 C   0  0  0  0  0  0  0  0  0  0  0  0
   58.2850   32.3090   49.9870 C   0  0  0  0  0  0  0  0  0  0  0  0
   58.1460   30.8990   50.5550 C   0  0  0  0  0  0  0  0  0  0  0  0
   59.2290   30.1010   50.1250 O   0  0  0  0  0  0  0  0  0  0  0  0
   59.6350   29.2510   51.1770 C   0  0  0  0  0  0  0  0  0  0  0  0
   61.1580   29.1500   51.1870 C   0  0  0  0  0  0  0  0  0  0  0  0
   61.6970   29.5690   49.9540 O   0  0  0  0  0  0  0  0  0  0  0  0
   61.9290   30.9070   50.0520 N   0  0  0  0  0  0  0  0  0  0  0  0
   62.6350   31.3370   48.8430 C   0  0  0  0  0  0  0  0  0  0  0  0
   61.7290   31.2340   47.6080 C   0  0  0  0  0  0  0  0  0  0  0  0
   60.3420   30.8320   47.9270 N   0  0  0  0  0  0  0  0  0  0  0  0
   59.4940   30.7710   46.7420 C   0  0  0  0  0  0  0  0  0  0  0  0
   59.0090   31.9760   46.1410 C   0  0  0  0  0  0  0  0  0  0  0  0
   59.3220   33.2680   46.6490 C   0  0  0  0  0  0  0  0  0  0  0  0
   58.8780   34.4270   46.0210 C   0  0  0  0  0  0  0  0  0  0  0  0
   58.1210   34.3460   44.8650 C   0  0  0  0  0  0  0  0  0  0  0  0
   57.7760   33.1040   44.3510 C   0  0  0  0  0  0  0  0  0  0  0  0
   58.1750   31.9010   44.9900 C   0  0  0  0  0  0  0  0  0  0  0  0
   57.7790   30.6810   44.4970 N   0  0  0  0  0  0  0  0  0  0  0  0
   56.6510   30.6040   43.5410 C   0  0  0  0  0  0  0  0  0  0  0  0
   58.4010   29.5270   44.9170 C   0  0  0  0  0  0  0  0  0  0  0  0
   58.2700   28.3370   44.1620 C   0  0  0  0  0  0  0  0  0  0  0  0
   58.7980   27.1390   44.6040 C   0  0  0  0  0  0  0  0  0  0  0  0
   59.4500   27.0790   45.8200 C   0  0  0  0  0  0  0  0  0  0  0  0
   59.6420   28.2350   46.5990 C   0  0  0  0  0  0  0  0  0  0  0  0
   60.2450   28.1050   47.8600 O   0  0  0  0  0  0  0  0  0  0  0  0
   60.3880   26.8900   48.5900 C   0  0  0  0  0  0  0  0  0  0  0  0
   59.1920   29.5130   46.1080 C   0  0  0  0  0  0  0  0  0  0  0  0
   61.9750   34.3610   50.0104 H   0  0  0  0  0  0  0  0  0  0  0  0
   61.5657   33.4194   48.5364 H   0  0  0  0  0  0  0  0  0  0  0  0
   61.3937   35.2074   48.5364 H   0  0  0  0  0  0  0  0  0  0  0  0
   59.6411   34.9574   50.3589 H   0  0  0  0  0  0  0  0  0  0  0  0
   59.1813   34.2325   48.7679 H   0  0  0  0  0  0  0  0  0  0  0  0
   59.8168   31.9183   52.1797 H   0  0  0  0  0  0  0  0  0  0  0  0
   60.8371   33.3940   51.9283 H   0  0  0  0  0  0  0  0  0  0  0  0
   58.8897   33.7141   53.5185 H   0  0  0  0  0  0  0  0  0  0  0  0
   58.9227   34.8439   52.1224 H   0  0  0  0  0  0  0  0  0  0  0  0
   57.7910   33.4489   52.1224 H   0  0  0  0  0  0  0  0  0  0  0  0
   57.5255   32.9619   50.4419 H   0  0  0  0  0  0  0  0  0  0  0  0
   58.1423   32.2759   48.8968 H   0  0  0  0  0  0  0  0  0  0  0  0
   58.1414   30.9468   51.6540 H   0  0  0  0  0  0  0  0  0  0  0  0
   57.2043   30.4554   50.1993 H   0  0  0  0  0  0  0  0  0  0  0  0
   59.2880   29.6626   52.1363 H   0  0  0  0  0  0  0  0  0  0  0  0
   59.2010   28.2509   51.0301 H   0  0  0  0  0  0  0  0  0  0  0  0
   61.5562   29.7880   51.9897 H   0  0  0  0  0  0  0  0  0  0  0  0
   61.4399   28.1002   51.3557 H   0  0  0  0  0  0  0  0  0  0  0  0
   60.9940   31.3760   50.0450 H   0  0  0  0  0  0  0  0  0  0  0  0
   62.9561   32.3818   48.9669 H   0  0  0  0  0  0  0  0  0  0  0  0
   63.5048   30.6803   48.6940 H   0  0  0  0  0  0  0  0  0  0  0  0
   61.7020   32.2159   47.1129 H   0  0  0  0  0  0  0  0  0  0  0  0
   62.1521   30.4522   46.9601 H   0  0  0  0  0  0  0  0  0  0  0  0
   59.9260   31.4810   48.6280 H   0  0  0  0  0  0  0  0  0  0  0  0
   60.3430   29.9540   48.4810 H   0  0  0  0  0  0  0  0  0  0  0  0
   59.9305   33.3522   47.5615 H   0  0  0  0  0  0  0  0  0  0  0  0
   59.1292   35.4107   46.4443 H   0  0  0  0  0  0  0  0  0  0  0  0
   57.7936   35.2640   44.3550 H   0  0  0  0  0  0  0  0  0  0  0  0
   57.1801   33.0506   43.4279 H   0  0  0  0  0  0  0  0  0  0  0  0
   55.7036   30.5393   44.0962 H   0  0  0  0  0  0  0  0  0  0  0  0
   56.6445   31.5038   42.9083 H   0  0  0  0  0  0  0  0  0  0  0  0
   56.7669   29.7117   42.9083 H   0  0  0  0  0  0  0  0  0  0  0  0
   57.7355   28.3665   43.2011 H   0  0  0  0  0  0  0  0  0  0  0  0
   58.6990   26.2334   43.9875 H   0  0  0  0  0  0  0  0  0  0  0  0
   59.8253   26.1118   46.1855 H   0  0  0  0  0  0  0  0  0  0  0  0
   60.3627   27.1051   49.6685 H   0  0  0  0  0  0  0  0  0  0  0  0
   59.5639   26.2084   48.3326 H   0  0  0  0  0  0  0  0  0  0  0  0
   61.3479   26.4184   48.3326 H   0  0  0  0  0  0  0  0  0  0  0  0
  1  2  1  0
  2  3  1  0
  3  4  1  0
  4  5  1  0
  3  6  1  0
  6  7  1  0
  7  8  1  0
  8  9  1  0
  9 10  1  0
 10 11  1  0
 11 12  1  0
 12 13  1  0
 13 14  1  0
 14 15  1  0
 15 16  1  0
 16 17  2  0
 17 18  1  0
 18 19  2  0
 19 20  1  0
 20 21  2  0
 21 22  1  0
 22 23  2  0
 23 24  1  0
 23 25  1  0
 25 26  2  0
 26 27  1  0
 27 28  2  0
 28 29  1  0
 29 30  1  0
 30 31  1  0
 29 32  2  0
 32 16  1  0
 22 17  1  0
 32 25  1  0
  1 33  1  0
  1 34  1  0
  1 35  1  0
  2 36  1  0
  2 37  1  0
  4 38  1  0
  4 39  1  0
  5 40  1  0
  5 41  1  0
  5 42  1  0
  6 43  1  0
  6 44  1  0
  7 45  1  0
  7 46  1  0
  9 47  1  0
  9 48  1  0
 10 49  1  0
 10 50  1  0
 12 51  1  0
 13 52  1  0
 13 53  1  0
 14 54  1  0
 14 55  1  0
 15 56  1  0
 15 57  1  0
 18 58  1  0
 19 59  1  0
 20 60  1  0
 21 61  1  0
 24 62  1  0
 24 63  1  0
 24 64  1  0
 26 65  1  0
 27 66  1  0
 28 67  1  0
 31 68  1  0
 31 69  1  0
 31 70  1  0
M  CHG  2  15   1  23   1
M  END
>  <UniqueID>  (19) 
19

>  <SMILES>  (19) 
CCN(CC)CCOCCONCC[NH2+]c1c2ccccc2[n+](C)c2cccc(OC)c12

>  <Energy>  (19) 
99.42634801878363

>  <Genealogy>  (19) 
CCN(CC)CCOCCONCC[NH2+]c1c2ccccc2[n+](C)c2cccc(OC)c12 (protonated)
CCN(CC)CCOCCONCC[NH2+]c1c2ccccc2[n+](C)c2cccc(OC)c12 (3D coordinates assigned)
CCN(CC)CCOCCONCC[NH2+]c1c2ccccc2[n+](C)c2cccc(OC)c12 (optimized conformer: 99.42634801878363 kcal/mol)

>  <smiles>  (19) 
CCN(CC)CCOCCONCCNc1c2ccccc2[n+](C)c2cccc(OC)c12

>  <score_type>  (19) 
oracle

>  <origin>  (19) 
adg

>  <m_score__min__energy>  (19) 
-4.4900000000000002

>  <m_primary>  (19) 
energy

$$$$
19:0
     RDKit          3D

 72 75  0  0  0  0  0  0  0  0999 V2000
   58.2260   19.0470   47.4180 C   0  0  0  0  0  0  0  0  0  0  0  0
   57.0210   19.2260   46.4970 C   0  0  0  0  0  0  0  0  0  0  0  0
   57.3900   19.9770   45.2840 N   0  0  0  0  0  0  0  0  0  0  0  0
   56.8180   21.3430   45.2860 C   0  0  0  0  0  0  0  0  0  0  0  0
   57.3930   22.2650   44.1620 C   0  0  2  0  0  0  0  0  0  0  0  0
   58.4300   21.5920   43.5300 F   0  0  0  0  0  0  0  0  0  0  0  0
   57.9370   23.5680   44.7540 C   0  0  0  0  0  0  0  0  0  0  0  0
   57.2840   24.7970   44.5290 C   0  0  0  0  0  0  0  0  0  0  0  0
   57.8030   25.9880   45.0430 C   0  0  0  0  0  0  0  0  0  0  0  0
   59.0030   25.9890   45.7750 C   0  0  0  0  0  0  0  0  0  0  0  0
   59.5610   27.2560   46.3170 C   0  0  0  0  0  0  0  0  0  0  0  0
   59.5230   27.5250   47.6970 C   0  0  0  0  0  0  0  0  0  0  0  0
   60.0380   28.7220   48.2040 C   0  0  0  0  0  0  0  0  0  0  0  0
   60.5990   29.6820   47.3430 C   0  0  0  0  0  0  0  0  0  0  0  0
   61.1290   30.9640   47.8770 C   0  0  0  0  0  0  0  0  0  0  0  0
   62.3910   31.4450   47.4870 C   0  0  0  0  0  0  0  0  0  0  0  0
   62.8850   32.6380   48.0150 C   0  0  0  0  0  0  0  0  0  0  0  0
   62.1200   33.3490   48.9410 C   0  0  0  0  0  0  0  0  0  0  0  0
   62.6270   34.5340   49.4850 O   0  0  0  0  0  0  0  0  0  0  0  0
   63.2990   34.6010   50.7430 C   0  0  0  0  0  0  0  0  0  0  0  0
   64.5890   33.7720   50.7280 C   0  0  0  0  0  0  0  0  0  0  0  0
   64.5280   32.6200   51.7560 C   0  0  0  0  0  0  0  0  0  0  0  0
   63.4490   31.6360   51.5180 N   0  0  0  0  0  0  0  0  0  0  0  0
   62.3190   31.7380   52.4550 C   0  0  0  0  0  0  0  0  0  0  0  0
   61.1610   30.8440   51.9600 C   0  0  0  0  0  0  0  0  0  0  0  0
   61.5490   29.9950   50.8920 O   0  0  0  0  0  0  0  0  0  0  0  0
   62.7230   29.2850   51.2380 C   0  0  0  0  0  0  0  0  0  0  0  0
   63.9210   30.2450   51.3970 C   0  0  0  0  0  0  0  0  0  0  0  0
   60.8940   32.8800   49.3030 N   0  0  0  0  0  0  0  0  0  0  0  0
   60.3880   31.7240   48.8000 C   0  0  0  0  0  0  0  0  0  0  0  0
   60.6390   29.4120   45.9630 C   0  0  0  0  0  0  0  0  0  0  0  0
   60.1300   28.2130   45.4580 C   0  0  0  0  0  0  0  0  0  0  0  0
   59.6720   24.7700   45.9770 C   0  0  0  0  0  0  0  0  0  0  0  0
   59.1490   23.5770   45.4700 C   0  0  0  0  0  0  0  0  0  0  0  0
   56.3300   22.6020   43.0890 C   0  0  0  0  0  0  0  0  0  0  0  0
   56.0990   21.4920   42.2940 F   0  0  0  0  0  0  0  0  0  0  0  0
   56.7570   23.6410   42.2800 F   0  0  0  0  0  0  0  0  0  0  0  0
   55.1340   22.9660   43.6800 F   0  0  0  0  0  0  0  0  0  0  0  0
   57.8967   19.0959   48.4664 H   0  0  0  0  0  0  0  0  0  0  0  0
   58.6927   18.0697   47.2255 H   0  0  0  0  0  0  0  0  0  0  0  0
   58.9566   19.8465   47.2255 H   0  0  0  0  0  0  0  0  0  0  0  0
   56.6410   18.2358   46.2053 H   0  0  0  0  0  0  0  0  0  0  0  0
   56.2478   19.7917   47.0376 H   0  0  0  0  0  0  0  0  0  0  0  0
   57.0090   19.4620   44.4560 H   0  0  0  0  0  0  0  0  0  0  0  0
   58.4300   20.0010   45.1900 H   0  0  0  0  0  0  0  0  0  0  0  0
   55.7295   21.2642   45.1480 H   0  0  0  0  0  0  0  0  0  0  0  0
   57.0860   21.8031   46.2486 H   0  0  0  0  0  0  0  0  0  0  0  0
   56.3543   24.8185   43.9415 H   0  0  0  0  0  0  0  0  0  0  0  0
   57.2675   26.9338   44.8733 H   0  0  0  0  0  0  0  0  0  0  0  0
   59.0839   26.7866   48.3840 H   0  0  0  0  0  0  0  0  0  0  0  0
   60.0040   28.9146   49.2865 H   0  0  0  0  0  0  0  0  0  0  0  0
   62.9923   30.8775   46.7615 H   0  0  0  0  0  0  0  0  0  0  0  0
   63.8702   33.0156   47.7039 H   0  0  0  0  0  0  0  0  0  0  0  0
   63.5491   35.6498   50.9607 H   0  0  0  0  0  0  0  0  0  0  0  0
   62.6317   34.1926   51.5163 H   0  0  0  0  0  0  0  0  0  0  0  0
   64.7309   33.3482   49.7229 H   0  0  0  0  0  0  0  0  0  0  0  0
   65.4284   34.4311   50.9945 H   0  0  0  0  0  0  0  0  0  0  0  0
   65.4898   32.0868   51.7307 H   0  0  0  0  0  0  0  0  0  0  0  0
   64.3162   33.0840   52.7306 H   0  0  0  0  0  0  0  0  0  0  0  0
   62.6388   31.4052   53.4535 H   0  0  0  0  0  0  0  0  0  0  0  0
   61.9796   32.7829   52.5095 H   0  0  0  0  0  0  0  0  0  0  0  0
   60.8133   30.2212   52.7974 H   0  0  0  0  0  0  0  0  0  0  0  0
   60.3635   31.5047   51.5892 H   0  0  0  0  0  0  0  0  0  0  0  0
   62.5570   28.7559   52.1880 H   0  0  0  0  0  0  0  0  0  0  0  0
   62.9505   28.5694   50.4341 H   0  0  0  0  0  0  0  0  0  0  0  0
   64.4861   29.9736   52.3009 H   0  0  0  0  0  0  0  0  0  0  0  0
   64.5664   30.1619   50.5101 H   0  0  0  0  0  0  0  0  0  0  0  0
   59.3923   31.3800   49.1166 H   0  0  0  0  0  0  0  0  0  0  0  0
   61.0750   30.1516   45.2753 H   0  0  0  0  0  0  0  0  0  0  0  0
   60.1748   28.0154   44.3768 H   0  0  0  0  0  0  0  0  0  0  0  0
   60.6170   24.7544   46.5399 H   0  0  0  0  0  0  0  0  0  0  0  0
   59.6911   22.6337   45.6325 H   0  0  0  0  0  0  0  0  0  0  0  0
  1  2  1  0
  2  3  1  0
  3  4  1  0
  4  5  1  0
  5  6  1  6
  5  7  1  0
  7  8  2  0
  8  9  1  0
  9 10  2  0
 10 11  1  0
 11 12  2  0
 12 13  1  0
 13 14  2  0
 14 15  1  0
 15 16  2  0
 16 17  1  0
 17 18  2  0
 18 19  1  0
 19 20  1  0
 20 21  1  0
 21 22  1  0
 22 23  1  0
 23 24  1  0
 24 25  1  0
 25 26  1  0
 26 27  1  0
 27 28  1  0
 18 29  1  0
 29 30  2  0
 14 31  1  0
 31 32  2  0
 10 33  1  0
 33 34  2  0
  5 35  1  0
 35 36  1  0
 35 37  1  0
 35 38  1  0
 34  7  1  0
 32 11  1  0
 30 15  1  0
 28 23  1  0
  1 39  1  0
  1 40  1  0
  1 41  1  0
  2 42  1  0
  2 43  1  0
  3 44  1  0
  3 45  1  0
  4 46  1  0
  4 47  1  0
  8 48  1  0
  9 49  1  0
 12 50  1  0
 13 51  1  0
 16 52  1  0
 17 53  1  0
 20 54  1  0
 20 55  1  0
 21 56  1  0
 21 57  1  0
 22 58  1  0
 22 59  1  0
 24 60  1  0
 24 61  1  0
 25 62  1  0
 25 63  1  0
 27 64  1  0
 27 65  1  0
 28 66  1  0
 28 67  1  0
 30 68  1  0
 31 69  1  0
 32 70  1  0
 33 71  1  0
 34 72  1  0
M  CHG  1   3   1
M  END
>  <UniqueID>  (20) 
20

>  <SMILES>  (20) 
CC[NH2+]C[C@](F)(c1ccc(-c2ccc(-c3ccc(OCCCN4CCOCC4)nc3)cc2)cc1)C(F)(F)F

>  <Energy>  (20) 
96.8534457342041

>  <Genealogy>  (20) 
CC[NH2+]CC(F)(c1ccc(-c2ccc(-c3ccc(OCCCN4CCOCC4)nc3)cc2)cc1)C(F)(F)F (protonated)
CC[NH2+]C[C@](F)(c1ccc(-c2ccc(-c3ccc(OCCCN4CCOCC4)nc3)cc2)cc1)C(F)(F)F (chirality)
CC[NH2+]C[C@](F)(c1ccc(-c2ccc(-c3ccc(OCCCN4CCOCC4)nc3)cc2)cc1)C(F)(F)F (3D coordinates assigned)
CC[NH2+]C[C@](F)(c1ccc(-c2ccc(-c3ccc(OCCCN4CCOCC4)nc3)cc2)cc1)C(F)(F)F (nonaromatic ring conformer: 96.8534457342041 kcal/mol)

>  <smiles>  (20) 
CCNCC(F)(c1ccc(-c2ccc(-c3ccc(OCCCN4CCOCC4)nc3)cc2)cc1)C(F)(F)F

>  <score_type>  (20) 
oracle

>  <origin>  (20) 
adg

>  <m_score__min__energy>  (20) 
-6.5300000000000002

>  <m_primary>  (20) 
energy

$$$$
20:0
     RDKit          3D

 52 54  0  0  0  0  0  0  0  0999 V2000
   63.3870   33.8790   46.4110 C   0  0  0  0  0  0  0  0  0  0  0  0
   63.3170   33.1980   47.7780 C   0  0  0  0  0  0  0  0  0  0  0  0
   61.9490   32.7310   48.0980 N   0  0  0  0  0  0  0  0  0  0  0  0
   60.9240   33.8010   48.1740 C   0  0  0  0  0  0  0  0  0  0  0  0
   60.1090   33.8170   49.4780 C   0  0  0  0  0  0  0  0  0  0  0  0
   61.5030   31.4940   47.4120 C   0  0  0  0  0  0  0  0  0  0  0  0
   60.7180   30.5230   48.3110 C   0  0  0  0  0  0  0  0  0  0  0  0
   59.2760   30.6840   48.1130 N   0  0  0  0  0  0  0  0  0  0  0  0
   58.6490   30.4430   46.8400 C   0  0  0  0  0  0  0  0  0  0  0  0
   58.4240   29.1230   46.4100 C   0  0  0  0  0  0  0  0  0  0  0  0
   58.7760   28.0250   47.2220 C   0  0  0  0  0  0  0  0  0  0  0  0
   58.5720   26.7200   46.7810 C   0  0  0  0  0  0  0  0  0  0  0  0
   58.0160   26.4850   45.5270 C   0  0  0  0  0  0  0  0  0  0  0  0
   57.7660   24.6930   44.9170 Br  0  0  0  0  0  0  0  0  0  0  0  0
   57.6490   27.5570   44.7140 C   0  0  0  0  0  0  0  0  0  0  0  0
   57.8270   28.8960   45.1430 C   0  0  0  0  0  0  0  0  0  0  0  0
   57.4360   29.9620   44.3590 N   0  0  0  0  0  0  0  0  0  0  0  0
   56.3960   29.7420   43.3320 C   0  0  0  0  0  0  0  0  0  0  0  0
   57.8560   31.2440   44.6700 C   0  0  0  0  0  0  0  0  0  0  0  0
   57.8290   32.3270   43.7310 C   0  0  0  0  0  0  0  0  0  0  0  0
   57.7900   32.1300   42.2350 C   0  0  0  0  0  0  0  0  0  0  0  0
   57.9900   33.6420   44.1900 C   0  0  0  0  0  0  0  0  0  0  0  0
   58.2790   33.9000   45.5240 C   0  0  0  0  0  0  0  0  0  0  0  0
   58.4840   32.8470   46.4070 C   0  0  0  0  0  0  0  0  0  0  0  0
   58.3390   31.5140   45.9800 C   0  0  0  0  0  0  0  0  0  0  0  0
   63.4986   34.9648   46.5475 H   0  0  0  0  0  0  0  0  0  0  0  0
   64.2498   33.4893   45.8509 H   0  0  0  0  0  0  0  0  0  0  0  0
   62.4629   33.6729   45.8509 H   0  0  0  0  0  0  0  0  0  0  0  0
   63.9964   32.3329   47.7785 H   0  0  0  0  0  0  0  0  0  0  0  0
   63.6099   33.9358   48.5395 H   0  0  0  0  0  0  0  0  0  0  0  0
   61.4332   34.7711   48.0760 H   0  0  0  0  0  0  0  0  0  0  0  0
   60.2083   33.6046   47.3621 H   0  0  0  0  0  0  0  0  0  0  0  0
   60.7939   33.8036   50.3386 H   0  0  0  0  0  0  0  0  0  0  0  0
   59.4927   34.7274   49.5141 H   0  0  0  0  0  0  0  0  0  0  0  0
   59.4574   32.9315   49.5141 H   0  0  0  0  0  0  0  0  0  0  0  0
   60.8583   31.7807   46.5681 H   0  0  0  0  0  0  0  0  0  0  0  0
   62.4124   30.9641   47.0923 H   0  0  0  0  0  0  0  0  0  0  0  0
   61.0034   29.4902   48.0624 H   0  0  0  0  0  0  0  0  0  0  0  0
   60.9570   30.7430   49.3619 H   0  0  0  0  0  0  0  0  0  0  0  0
   58.6690   30.8680   48.9440 H   0  0  0  0  0  0  0  0  0  0  0  0
   59.2165   28.2013   48.2144 H   0  0  0  0  0  0  0  0  0  0  0  0
   58.8509   25.8731   47.4252 H   0  0  0  0  0  0  0  0  0  0  0  0
   57.2140   27.3600   43.7230 H   0  0  0  0  0  0  0  0  0  0  0  0
   55.4330   29.5383   43.8231 H   0  0  0  0  0  0  0  0  0  0  0  0
   56.3046   30.6407   42.7043 H   0  0  0  0  0  0  0  0  0  0  0  0
   56.6764   28.8833   42.7043 H   0  0  0  0  0  0  0  0  0  0  0  0
   57.5809   31.0738   42.0096 H   0  0  0  0  0  0  0  0  0  0  0  0
   56.9993   32.7607   41.8026 H   0  0  0  0  0  0  0  0  0  0  0  0
   58.7614   32.4119   41.8026 H   0  0  0  0  0  0  0  0  0  0  0  0
   57.8862   34.4799   43.4849 H   0  0  0  0  0  0  0  0  0  0  0  0
   58.3456   34.9382   45.8814 H   0  0  0  0  0  0  0  0  0  0  0  0
   58.7624   33.0574   47.4502 H   0  0  0  0  0  0  0  0  0  0  0  0
  1  2  1  0
  2  3  1  0
  3  4  1  0
  4  5  1  0
  3  6  1  0
  6  7  1  0
  7  8  1  0
  8  9  1  0
  9 10  2  0
 10 11  1  0
 11 12  2  0
 12 13  1  0
 13 14  1  0
 13 15  2  0
 15 16  1  0
 16 17  2  0
 17 18  1  0
 17 19  1  0
 19 20  2  0
 20 21  1  0
 20 22  1  0
 22 23  2  0
 23 24  1  0
 24 25  2  0
 25  9  1  0
 16 10  1  0
 25 19  1  0
  1 26  1  0
  1 27  1  0
  1 28  1  0
  2 29  1  0
  2 30  1  0
  4 31  1  0
  4 32  1  0
  5 33  1  0
  5 34  1  0
  5 35  1  0
  6 36  1  0
  6 37  1  0
  7 38  1  0
  7 39  1  0
  8 40  1  0
 11 41  1  0
 12 42  1  0
 15 43  1  0
 18 44  1  0
 18 45  1  0
 18 46  1  0
 21 47  1  0
 21 48  1  0
 21 49  1  0
 22 50  1  0
 23 51  1  0
 24 52  1  0
M  CHG  1  17   1
M  END
>  <UniqueID>  (21) 
21

>  <SMILES>  (21) 
CCN(CC)CCNc1c2ccc(Br)cc2[n+](C)c2c(C)cccc12

>  <Energy>  (21) 
93.13088882020004

>  <Genealogy>  (21) 
CCN(CC)CCNc1c2ccc(Br)cc2[n+](C)c2c(C)cccc12 (3D coordinates assigned)
CCN(CC)CCNc1c2ccc(Br)cc2[n+](C)c2c(C)cccc12 (optimized conformer: 93.13088882020004 kcal/mol)

>  <smiles>  (21) 
CCN(CC)CCNc1c2ccc(Br)cc2[n+](C)c2c(C)cccc12

>  <score_type>  (21) 
oracle

>  <origin>  (21) 
adg

>  <m_score__min__energy>  (21) 
-6.2800000000000002

>  <m_primary>  (21) 
energy

$$$$
21:0
     RDKit          3D

 47 49  0  0  0  0  0  0  0  0999 V2000
   56.6470   30.5200   42.7440 C   0  0  0  0  0  0  0  0  0  0  0  0
   55.7340   30.0350   43.8630 C   0  0  0  0  0  0  0  0  0  0  0  0
   56.4000   28.9680   44.6200 N   0  0  0  0  0  0  0  0  0  0  0  0
   57.7920   28.7620   44.1890 C   0  0  0  0  0  0  0  0  0  0  0  0
   58.8110   29.2160   45.2460 C   0  0  0  0  0  0  0  0  0  0  0  0
   58.1730   30.0770   46.2420 N   0  0  0  0  0  0  0  0  0  0  0  0
   58.9190   31.1120   46.8980 C   0  0  0  0  0  0  0  0  0  0  0  0
   58.8460   32.4300   46.4230 C   0  0  0  0  0  0  0  0  0  0  0  0
   59.6340   33.4380   47.0390 C   0  0  0  0  0  0  0  0  0  0  0  0
   60.3760   33.1420   48.1700 N   0  0  0  0  0  0  0  0  0  0  0  0
   61.0440   34.2250   48.9270 C   0  0  0  0  0  0  0  0  0  0  0  0
   60.5100   31.8330   48.5960 C   0  0  0  0  0  0  0  0  0  0  0  0
   61.4050   31.4720   49.6390 C   0  0  0  0  0  0  0  0  0  0  0  0
   61.4900   30.1560   50.0920 C   0  0  0  0  0  0  0  0  0  0  0  0
   60.6990   29.1660   49.5210 C   0  0  0  0  0  0  0  0  0  0  0  0
   60.7770   27.8900   49.9740 F   0  0  0  0  0  0  0  0  0  0  0  0
   59.8360   29.4820   48.4750 C   0  0  0  0  0  0  0  0  0  0  0  0
   59.7500   30.8020   47.9850 C   0  0  0  0  0  0  0  0  0  0  0  0
   59.6030   34.8590   46.4820 C   0  0  0  0  0  0  0  0  0  0  0  0
   59.0650   34.9560   45.0550 C   0  0  0  0  0  0  0  0  0  0  0  0
   57.7540   34.1960   44.9480 C   0  0  0  0  0  0  0  0  0  0  0  0
   58.0010   32.7110   45.1900 C   0  0  0  0  0  0  0  0  0  0  0  0
   57.5395   30.9941   43.1785 H   0  0  0  0  0  0  0  0  0  0  0  0
   56.9517   29.6649   42.1228 H   0  0  0  0  0  0  0  0  0  0  0  0
   56.1090   31.2512   42.1228 H   0  0  0  0  0  0  0  0  0  0  0  0
   55.5056   30.8735   44.5374 H   0  0  0  0  0  0  0  0  0  0  0  0
   54.8019   29.6449   43.4283 H   0  0  0  0  0  0  0  0  0  0  0  0
   55.8640   28.0770   44.5010 H   0  0  0  0  0  0  0  0  0  0  0  0
   57.9444   27.6910   43.9899 H   0  0  0  0  0  0  0  0  0  0  0  0
   57.9548   29.3695   43.2865 H   0  0  0  0  0  0  0  0  0  0  0  0
   59.2291   28.3311   45.7482 H   0  0  0  0  0  0  0  0  0  0  0  0
   59.6098   29.7840   44.7467 H   0  0  0  0  0  0  0  0  0  0  0  0
   57.1440   30.0200   46.4160 H   0  0  0  0  0  0  0  0  0  0  0  0
   60.9311   34.0419   50.0058 H   0  0  0  0  0  0  0  0  0  0  0  0
   62.1130   34.2474   48.6688 H   0  0  0  0  0  0  0  0  0  0  0  0
   60.5842   35.1904   48.6688 H   0  0  0  0  0  0  0  0  0  0  0  0
   62.0414   32.2437   50.0967 H   0  0  0  0  0  0  0  0  0  0  0  0
   62.1859   29.9003   50.9046 H   0  0  0  0  0  0  0  0  0  0  0  0
   59.2143   28.6935   48.0257 H   0  0  0  0  0  0  0  0  0  0  0  0
   58.9646   35.4725   47.1347 H   0  0  0  0  0  0  0  0  0  0  0  0
   60.6443   35.2125   46.4541 H   0  0  0  0  0  0  0  0  0  0  0  0
   58.8969   36.0125   44.7989 H   0  0  0  0  0  0  0  0  0  0  0  0
   59.7968   34.5187   44.3598 H   0  0  0  0  0  0  0  0  0  0  0  0
   57.0479   34.5768   45.7006 H   0  0  0  0  0  0  0  0  0  0  0  0
   57.3320   34.3364   43.9419 H   0  0  0  0  0  0  0  0  0  0  0  0
   57.0286   32.2117   45.3131 H   0  0  0  0  0  0  0  0  0  0  0  0
   58.5585   32.3298   44.3217 H   0  0  0  0  0  0  0  0  0  0  0  0
  1  2  1  0
  2  3  1  0
  3  4  1  0
  4  5  1  0
  5  6  1  0
  6  7  1  0
  7  8  2  0
  8  9  1  0
  9 10  2  0
 10 11  1  0
 10 12  1  0
 12 13  2  0
 13 14  1  0
 14 15  2  0
 15 16  1  0
 15 17  1  0
 17 18  2  0
  9 19  1  0
 19 20  1  0
 20 21  1  0
 21 22  1  0
 18  7  1  0
 22  8  1  0
 18 12  1  0
  1 23  1  0
  1 24  1  0
  1 25  1  0
  2 26  1  0
  2 27  1  0
  3 28  1  0
  4 29  1  0
  4 30  1  0
  5 31  1  0
  5 32  1  0
  6 33  1  0
 11 34  1  0
 11 35  1  0
 11 36  1  0
 13 37  1  0
 14 38  1  0
 17 39  1  0
 19 40  1  0
 19 41  1  0
 20 42  1  0
 20 43  1  0
 21 44  1  0
 21 45  1  0
 22 46  1  0
 22 47  1  0
M  CHG  1  10   1
M  END
>  <UniqueID>  (22) 
22

>  <SMILES>  (22) 
CCNCCNc1c2c([n+](C)c3ccc(F)cc13)CCCC2

>  <Energy>  (22) 
63.57249950207441

>  <Genealogy>  (22) 
CCNCCNc1c2c([n+](C)c3ccc(F)cc13)CCCC2 (3D coordinates assigned)
CCNCCNc1c2c([n+](C)c3ccc(F)cc13)CCCC2 (nonaromatic ring conformer: 63.57249950207441 kcal/mol)

>  <smiles>  (22) 
CCNCCNc1c2c([n+](C)c3ccc(F)cc13)CCCC2

>  <score_type>  (22) 
oracle

>  <origin>  (22) 
adg

>  <m_score__min__energy>  (22) 
-6.21

>  <m_primary>  (22) 
energy

$$$$
22:0
     RDKit          3D

 32 32  0  0  0  0  0  0  0  0999 V2000
   55.1750   30.0930   45.6130 H   0  0  0  0  0  0  0  0  0  0  0  0
   55.6090   29.3960   44.9740 N   0  0  0  0  0  0  0  0  0  0  0  0
   56.7900   28.8760   45.1160 C   0  0  0  0  0  0  0  0  0  0  0  0
   57.0220   27.3680   45.8080 S   0  0  0  0  0  0  0  0  0  0  0  0
   58.6930   27.4460   45.6880 C   0  0  0  0  0  0  0  0  0  0  0  0
   59.3984   26.6655   46.0093 H   0  0  0  0  0  0  0  0  0  0  0  0
   59.0360   28.6680   45.1120 C   0  0  0  0  0  0  0  0  0  0  0  0
   60.4750   29.0390   44.8850 C   0  0  0  0  0  0  0  0  0  0  0  0
   60.9776   29.1686   45.8548 H   0  0  0  0  0  0  0  0  0  0  0  0
   60.9744   28.2402   44.3170 H   0  0  0  0  0  0  0  0  0  0  0  0
   60.5259   29.9796   44.3170 H   0  0  0  0  0  0  0  0  0  0  0  0
   57.9710   29.4650   44.7570 N   0  0  0  0  0  0  0  0  0  0  0  0
   58.1210   30.7940   44.1320 C   0  0  0  0  0  0  0  0  0  0  0  0
   59.1905   31.0460   44.0798 H   0  0  0  0  0  0  0  0  0  0  0  0
   57.6789   30.7544   43.1255 H   0  0  0  0  0  0  0  0  0  0  0  0
   57.4040   31.8600   44.9230 C   0  0  0  0  0  0  0  0  0  0  0  0
   56.1450   31.8950   44.8840 O   0  0  0  0  0  0  0  0  0  0  0  0
   58.1160   32.8110   45.7420 N   0  0  0  0  0  0  0  0  0  0  0  0
   57.5000   33.2880   46.9870 C   0  0  0  0  0  0  0  0  0  0  0  0
   57.5420   34.3869   47.0124 H   0  0  0  0  0  0  0  0  0  0  0  0
   56.4555   32.9444   47.0182 H   0  0  0  0  0  0  0  0  0  0  0  0
   58.2350   32.7310   48.2020 C   0  0  0  0  0  0  0  0  0  0  0  0
   57.7533   33.0960   49.1211 H   0  0  0  0  0  0  0  0  0  0  0  0
   58.1984   31.6318   48.1806 H   0  0  0  0  0  0  0  0  0  0  0  0
   59.2833   33.0635   48.1806 H   0  0  0  0  0  0  0  0  0  0  0  0
   59.4140   33.3600   45.3230 C   0  0  0  0  0  0  0  0  0  0  0  0
   60.2179   32.8177   45.8424 H   0  0  0  0  0  0  0  0  0  0  0  0
   59.5083   33.2409   44.2335 H   0  0  0  0  0  0  0  0  0  0  0  0
   59.5170   34.8460   45.6590 C   0  0  0  0  0  0  0  0  0  0  0  0
   59.5260   34.9752   46.7514 H   0  0  0  0  0  0  0  0  0  0  0  0
   60.4456   35.2546   45.2338 H   0  0  0  0  0  0  0  0  0  0  0  0
   58.6536   35.3788   45.2338 H   0  0  0  0  0  0  0  0  0  0  0  0
  1  2  1  0
  2  3  2  0
  3  4  1  0
  4  5  1  0
  5  6  1  0
  5  7  2  0
  7  8  1  0
  8  9  1  0
  8 10  1  0
  8 11  1  0
  7 12  1  0
 12 13  1  0
 13 14  1  0
 13 15  1  0
 13 16  1  0
 16 17  2  0
 16 18  1  0
 18 19  1  0
 19 20  1  0
 19 21  1  0
 19 22  1  0
 22 23  1  0
 22 24  1  0
 22 25  1  0
 18 26  1  0
 26 27  1  0
 26 28  1  0
 26 29  1  0
 29 30  1  0
 29 31  1  0
 29 32  1  0
 12  3  1  0
M  END
>  <UniqueID>  (23) 
23

>  <SMILES>  (23) 
[H]/N=c1/scc(C)n1CC(=O)N(CC)CC

>  <Energy>  (23) 
57.01590022108492

>  <Genealogy>  (23) 
[H]/N=c1/scc(C)n1CC(=O)N(CC)CC (cis-trans isomerization)
[H]/N=c1/scc(C)n1CC(=O)N(CC)CC (3D coordinates assigned)
[H]/N=c1/scc(C)n1CC(=O)N(CC)CC (optimized conformer: 57.01590022108492 kcal/mol)

>  <smiles>  (23) 
CCN(CC)C(=O)Cn1c(C)csc1=N

>  <score_type>  (23) 
oracle

>  <origin>  (23) 
adg

>  <m_score__min__energy>  (23) 
-6

>  <m_primary>  (23) 
energy

$$$$
23:0
     RDKit          3D

 56 59  0  0  0  0  0  0  0  0999 V2000
   59.7430   33.8560   50.2540 C   0  0  0  0  0  0  0  0  0  0  0  0
   60.2640   33.0180   51.4370 C   0  0  0  0  0  0  0  0  0  0  0  0
   59.5020   31.7690   51.7390 N   0  0  0  0  0  0  0  0  0  0  0  0
   58.2830   31.5460   50.9170 C   0  0  0  0  0  0  0  0  0  0  0  0
   57.0030   31.5840   51.7580 C   0  0  0  0  0  0  0  0  0  0  0  0
   60.3620   30.5600   51.8150 C   0  0  0  0  0  0  0  0  0  0  0  0
   60.0610   29.4850   50.7540 C   0  0  0  0  0  0  0  0  0  0  0  0
   61.0600   29.5200   49.6850 N   0  0  0  0  0  0  0  0  0  0  0  0
   61.4430   30.7460   49.0410 C   0  0  0  0  0  0  0  0  0  0  0  0
   62.6350   31.3890   49.4110 C   0  0  0  0  0  0  0  0  0  0  0  0
   63.4080   30.9230   50.4930 C   0  0  0  0  0  0  0  0  0  0  0  0
   64.6150   31.5360   50.8210 C   0  0  0  0  0  0  0  0  0  0  0  0
   65.0740   32.6190   50.0750 C   0  0  0  0  0  0  0  0  0  0  0  0
   66.5910   33.3920   50.4960 Cl  0  0  0  0  0  0  0  0  0  0  0  0
   64.3240   33.0930   48.9960 C   0  0  0  0  0  0  0  0  0  0  0  0
   63.0930   32.4890   48.6430 C   0  0  0  0  0  0  0  0  0  0  0  0
   62.3540   32.9350   47.5670 N   0  0  0  0  0  0  0  0  0  0  0  0
   63.0610   33.6330   46.4720 C   0  0  0  0  0  0  0  0  0  0  0  0
   61.0400   32.5250   47.4140 C   0  0  0  0  0  0  0  0  0  0  0  0
   60.6170   31.3330   48.0640 C   0  0  0  0  0  0  0  0  0  0  0  0
   59.3740   30.7600   47.7370 C   0  0  0  0  0  0  0  0  0  0  0  0
   58.5400   31.3530   46.7970 C   0  0  0  0  0  0  0  0  0  0  0  0
   58.8640   32.5990   46.2570 C   0  0  0  0  0  0  0  0  0  0  0  0
   57.9490   33.2430   45.4090 C   0  0  0  0  0  0  0  0  0  0  0  0
   58.1890   34.5470   44.9780 C   0  0  0  0  0  0  0  0  0  0  0  0
   59.3180   35.2300   45.4230 C   0  0  0  0  0  0  0  0  0  0  0  0
   60.2430   34.5920   46.2540 C   0  0  0  0  0  0  0  0  0  0  0  0
   60.0830   33.2340   46.6150 C   0  0  0  0  0  0  0  0  0  0  0  0
   59.1985   34.7318   50.6367 H   0  0  0  0  0  0  0  0  0  0  0  0
   60.5920   34.1915   49.6403 H   0  0  0  0  0  0  0  0  0  0  0  0
   59.0665   33.2431   49.6403 H   0  0  0  0  0  0  0  0  0  0  0  0
   61.3033   32.7334   51.2162 H   0  0  0  0  0  0  0  0  0  0  0  0
   60.1520   33.6566   52.3256 H   0  0  0  0  0  0  0  0  0  0  0  0
   59.1630   31.8870   52.7260 H   0  0  0  0  0  0  0  0  0  0  0  0
   58.2254   32.3310   50.1486 H   0  0  0  0  0  0  0  0  0  0  0  0
   58.3596   30.5467   50.4636 H   0  0  0  0  0  0  0  0  0  0  0  0
   57.2657   31.5762   52.8261 H   0  0  0  0  0  0  0  0  0  0  0  0
   56.4388   32.4993   51.5258 H   0  0  0  0  0  0  0  0  0  0  0  0
   56.3855   30.7038   51.5258 H   0  0  0  0  0  0  0  0  0  0  0  0
   61.4085   30.8765   51.6941 H   0  0  0  0  0  0  0  0  0  0  0  0
   60.1586   30.0964   52.7916 H   0  0  0  0  0  0  0  0  0  0  0  0
   60.0760   28.4935   51.2301 H   0  0  0  0  0  0  0  0  0  0  0  0
   59.0704   29.6844   50.3193 H   0  0  0  0  0  0  0  0  0  0  0  0
   61.4880   28.6240   49.3560 H   0  0  0  0  0  0  0  0  0  0  0  0
   63.0545   30.0659   51.0850 H   0  0  0  0  0  0  0  0  0  0  0  0
   65.2066   31.1642   51.6705 H   0  0  0  0  0  0  0  0  0  0  0  0
   64.6952   33.9481   48.4120 H   0  0  0  0  0  0  0  0  0  0  0  0
   63.7829   34.3457   46.8973 H   0  0  0  0  0  0  0  0  0  0  0  0
   63.5940   32.8972   45.8520 H   0  0  0  0  0  0  0  0  0  0  0  0
   62.3320   34.1754   45.8520 H   0  0  0  0  0  0  0  0  0  0  0  0
   59.0583   29.8299   48.2323 H   0  0  0  0  0  0  0  0  0  0  0  0
   57.6215   30.8390   46.4773 H   0  0  0  0  0  0  0  0  0  0  0  0
   57.0395   32.7169   45.0835 H   0  0  0  0  0  0  0  0  0  0  0  0
   57.4869   35.0361   44.2868 H   0  0  0  0  0  0  0  0  0  0  0  0
   59.4822   36.2745   45.1196 H   0  0  0  0  0  0  0  0  0  0  0  0
   61.1088   35.1547   46.6331 H   0  0  0  0  0  0  0  0  0  0  0  0
  1  2  1  0
  2  3  1  0
  3  4  1  0
  4  5  1  0
  3  6  1  0
  6  7  1  0
  7  8  1  0
  8  9  1  0
  9 10  2  0
 10 11  1  0
 11 12  2  0
 12 13  1  0
 13 14  1  0
 13 15  2  0
 15 16  1  0
 16 17  2  0
 17 18  1  0
 17 19  1  0
 19 20  2  0
 20 21  1  0
 21 22  2  0
 22 23  1  0
 23 24  2  0
 24 25  1  0
 25 26  2  0
 26 27  1  0
 27 28  2  0
 20  9  1  0
 28 23  1  0
 16 10  1  0
 28 19  1  0
  1 29  1  0
  1 30  1  0
  1 31  1  0
  2 32  1  0
  2 33  1  0
  3 34  1  0
  4 35  1  0
  4 36  1  0
  5 37  1  0
  5 38  1  0
  5 39  1  0
  6 40  1  0
  6 41  1  0
  7 42  1  0
  7 43  1  0
  8 44  1  0
 11 45  1  0
 12 46  1  0
 15 47  1  0
 18 48  1  0
 18 49  1  0
 18 50  1  0
 21 51  1  0
 22 52  1  0
 24 53  1  0
 25 54  1  0
 26 55  1  0
 27 56  1  0
M  CHG  2   3   1  17   1
M  END
>  <UniqueID>  (24) 
24

>  <SMILES>  (24) 
CC[NH+](CC)CCNc1c2ccc(Cl)cc2[n+](C)c2c1ccc1ccccc12

>  <Energy>  (24) 
107.06059910935504

>  <Genealogy>  (24) 
CC[NH+](CC)CCNc1c2ccc(Cl)cc2[n+](C)c2c1ccc1ccccc12 (protonated)
CC[NH+](CC)CCNc1c2ccc(Cl)cc2[n+](C)c2c1ccc1ccccc12 (3D coordinates assigned)
CC[NH+](CC)CCNc1c2ccc(Cl)cc2[n+](C)c2c1ccc1ccccc12 (optimized conformer: 107.06059910935504 kcal/mol)

>  <smiles>  (24) 
CCN(CC)CCNc1c2ccc(Cl)cc2[n+](C)c2c1ccc1ccccc12

>  <score_type>  (24) 
oracle

>  <origin>  (24) 
adg

>  <m_score__min__energy>  (24) 
-4.8300000000000001

>  <m_primary>  (24) 
energy

$$$$
24:0
     RDKit          3D

 61 63  0  0  0  0  0  0  0  0999 V2000
   59.2910   34.6010   46.0980 C   0  0  0  0  0  0  0  0  0  0  0  0
   58.4480   33.6810   46.9730 C   0  0  0  0  0  0  0  0  0  0  0  0
   57.5850   32.8400   46.1320 N   0  0  0  0  0  0  0  0  0  0  0  0
   57.8370   33.0710   44.7000 C   0  0  0  0  0  0  0  0  0  0  0  0
   57.3830   31.8610   43.8750 C   0  0  0  0  0  0  0  0  0  0  0  0
   56.5790   30.9880   44.6450 O   0  0  0  0  0  0  0  0  0  0  0  0
   56.8530   29.6310   44.3470 C   0  0  0  0  0  0  0  0  0  0  0  0
   58.3220   29.3110   44.6350 C   0  0  0  0  0  0  0  0  0  0  0  0
   58.7220   29.8990   45.8590 O   0  0  0  0  0  0  0  0  0  0  0  0
   59.0730   28.9150   46.8140 C   0  0  0  0  0  0  0  0  0  0  0  0
   59.4600   29.5770   48.1360 C   0  0  0  0  0  0  0  0  0  0  0  0
   59.4730   31.0300   47.9910 N   0  0  0  0  0  0  0  0  0  0  0  0
   60.2050   31.8620   48.9060 C   0  0  0  0  0  0  0  0  0  0  0  0
   59.7150   32.0920   50.2040 C   0  0  0  0  0  0  0  0  0  0  0  0
   60.4770   32.8580   51.1070 C   0  0  0  0  0  0  0  0  0  0  0  0
   61.7410   33.2930   50.7650 N   0  0  0  0  0  0  0  0  0  0  0  0
   62.6410   33.8280   51.8070 C   0  0  0  0  0  0  0  0  0  0  0  0
   62.1590   33.2210   49.4500 C   0  0  0  0  0  0  0  0  0  0  0  0
   63.3320   33.8820   49.0030 C   0  0  0  0  0  0  0  0  0  0  0  0
   63.7490   33.7870   47.6760 C   0  0  0  0  0  0  0  0  0  0  0  0
   63.0070   33.0500   46.7600 C   0  0  0  0  0  0  0  0  0  0  0  0
   61.8370   32.4120   47.1620 C   0  0  0  0  0  0  0  0  0  0  0  0
   61.3980   32.4890   48.5010 C   0  0  0  0  0  0  0  0  0  0  0  0
   59.8550   33.1530   52.4630 C   0  0  0  0  0  0  0  0  0  0  0  0
   58.3650   33.4670   52.3030 C   0  0  0  0  0  0  0  0  0  0  0  0
   57.5860   32.3530   51.5790 C   0  0  0  0  0  0  0  0  0  0  0  0
   58.4580   31.4180   50.7190 C   0  0  0  0  0  0  0  0  0  0  0  0
   59.8961   35.2613   46.7366 H   0  0  0  0  0  0  0  0  0  0  0  0
   59.9549   33.9961   45.4629 H   0  0  0  0  0  0  0  0  0  0  0  0
   58.6305   35.2096   45.4629 H   0  0  0  0  0  0  0  0  0  0  0  0
   59.1111   33.0389   47.5713 H   0  0  0  0  0  0  0  0  0  0  0  0
   57.8198   34.2912   47.6386 H   0  0  0  0  0  0  0  0  0  0  0  0
   57.8170   31.8400   46.3450 H   0  0  0  0  0  0  0  0  0  0  0  0
   57.2805   33.9618   44.3732 H   0  0  0  0  0  0  0  0  0  0  0  0
   58.9159   33.2221   44.5476 H   0  0  0  0  0  0  0  0  0  0  0  0
   56.8022   32.2142   43.0102 H   0  0  0  0  0  0  0  0  0  0  0  0
   58.2762   31.3105   43.5445 H   0  0  0  0  0  0  0  0  0  0  0  0
   56.2127   28.9866   44.9673 H   0  0  0  0  0  0  0  0  0  0  0  0
   56.6492   29.4500   43.2813 H   0  0  0  0  0  0  0  0  0  0  0  0
   58.4503   28.2203   44.6973 H   0  0  0  0  0  0  0  0  0  0  0  0
   58.9427   29.7176   43.8230 H   0  0  0  0  0  0  0  0  0  0  0  0
   58.2149   28.2470   46.9796 H   0  0  0  0  0  0  0  0  0  0  0  0
   59.9304   28.3384   46.4368 H   0  0  0  0  0  0  0  0  0  0  0  0
   58.7302   29.2961   48.9097 H   0  0  0  0  0  0  0  0  0  0  0  0
   60.4655   29.2374   48.4251 H   0  0  0  0  0  0  0  0  0  0  0  0
   58.7620   31.4710   47.3650 H   0  0  0  0  0  0  0  0  0  0  0  0
   62.2355   33.5870   52.8007 H   0  0  0  0  0  0  0  0  0  0  0  0
   63.6378   33.3757   51.6981 H   0  0  0  0  0  0  0  0  0  0  0  0
   62.7199   34.9197   51.6981 H   0  0  0  0  0  0  0  0  0  0  0  0
   63.9217   34.4788   49.7144 H   0  0  0  0  0  0  0  0  0  0  0  0
   64.6684   34.2970   47.3526 H   0  0  0  0  0  0  0  0  0  0  0  0
   63.3449   32.9709   45.7162 H   0  0  0  0  0  0  0  0  0  0  0  0
   61.2484   31.8418   46.4282 H   0  0  0  0  0  0  0  0  0  0  0  0
   59.9736   32.2757   53.1160 H   0  0  0  0  0  0  0  0  0  0  0  0
   60.3598   34.0230   52.9083 H   0  0  0  0  0  0  0  0  0  0  0  0
   57.9276   33.6069   53.3026 H   0  0  0  0  0  0  0  0  0  0  0  0
   58.2860   34.3752   51.6874 H   0  0  0  0  0  0  0  0  0  0  0  0
   57.0737   31.7433   52.3378 H   0  0  0  0  0  0  0  0  0  0  0  0
   56.8914   32.8548   50.8892 H   0  0  0  0  0  0  0  0  0  0  0  0
   58.7497   30.5504   51.3291 H   0  0  0  0  0  0  0  0  0  0  0  0
   57.8606   31.1210   49.8444 H   0  0  0  0  0  0  0  0  0  0  0  0
  1  2  1  0
  2  3  1  0
  3  4  1  0
  4  5  1  0
  5  6  1  0
  6  7  1  0
  7  8  1  0
  8  9  1  0
  9 10  1  0
 10 11  1  0
 11 12  1  0
 12 13  1  0
 13 14  2  0
 14 15  1  0
 15 16  2  0
 16 17  1  0
 16 18  1  0
 18 19  2  0
 19 20  1  0
 20 21  2  0
 21 22  1  0
 22 23  2  0
 15 24  1  0
 24 25  1  0
 25 26  1  0
 26 27  1  0
 23 13  1  0
 27 14  1  0
 23 18  1  0
  1 28  1  0
  1 29  1  0
  1 30  1  0
  2 31  1  0
  2 32  1  0
  3 33  1  0
  4 34  1  0
  4 35  1  0
  5 36  1  0
  5 37  1  0
  7 38  1  0
  7 39  1  0
  8 40  1  0
  8 41  1  0
 10 42  1  0
 10 43  1  0
 11 44  1  0
 11 45  1  0
 12 46  1  0
 17 47  1  0
 17 48  1  0
 17 49  1  0
 19 50  1  0
 20 51  1  0
 21 52  1  0
 22 53  1  0
 24 54  1  0
 24 55  1  0
 25 56  1  0
 25 57  1  0
 26 58  1  0
 26 59  1  0
 27 60  1  0
 27 61  1  0
M  CHG  1  16   1
M  END
>  <UniqueID>  (25) 
25

>  <SMILES>  (25) 
CCNCCOCCOCCNc1c2c([n+](C)c3ccccc13)CCCC2

>  <Energy>  (25) 
84.08283582248889

>  <Genealogy>  (25) 
CCNCCOCCOCCNc1c2c([n+](C)c3ccccc13)CCCC2 (3D coordinates assigned)
CCNCCOCCOCCNc1c2c([n+](C)c3ccccc13)CCCC2 (nonaromatic ring conformer: 84.08283582248889 kcal/mol)

>  <smiles>  (25) 
CCNCCOCCOCCNc1c2c([n+](C)c3ccccc13)CCCC2

>  <score_type>  (25) 
oracle

>  <origin>  (25) 
adg

>  <m_score__min__energy>  (25) 
-6.29

>  <m_primary>  (25) 
energy

$$$$
25:0
     RDKit          3D

 93 97  0  0  0  0  0  0  0  0999 V2000
   61.6650   27.0450   51.4610 C   0  0  0  0  0  0  0  0  0  0  0  0
   62.1200   26.8340   52.9010 C   0  0  0  0  0  0  0  0  0  0  0  0
   62.8210   28.0200   53.4180 N   0  0  0  0  0  0  0  0  0  0  0  0
   63.6570   28.6410   52.3830 C   0  0  0  0  0  0  0  0  0  0  0  0
   64.7040   29.5560   53.0300 C   0  0  0  0  0  0  0  0  0  0  0  0
   65.0870   30.6510   52.1170 N   0  0  0  0  0  0  0  0  0  0  0  0
   64.3920   31.9180   52.4520 C   0  0  2  0  0  0  0  0  0  0  0  0
   62.8470   31.9900   52.3770 C   0  0  0  0  0  0  0  0  0  0  0  0
   62.0280   31.4720   51.3830 C   0  0  0  0  0  0  0  0  0  0  0  0
   62.5790   30.6740   50.2320 C   0  0  0  0  0  0  0  0  0  0  0  0
   61.8390   30.9220   48.9340 C   0  0  0  0  0  0  0  0  0  0  0  0
   60.2940   30.7260   48.9730 C   0  0  2  0  0  0  0  0  0  0  0  0
   59.6210   30.9750   47.5130 C   0  0  1  0  0  0  0  0  0  0  0  0
   60.6850   30.8280   46.3700 C   0  0  0  0  0  0  0  0  0  0  0  0
   58.5200   29.9190   47.2150 C   0  0  0  0  0  0  0  0  0  0  0  0
   57.8420   30.1050   45.8350 C   0  0  0  0  0  0  0  0  0  0  0  0
   57.7670   31.5350   45.3060 C   0  0  0  0  0  0  0  0  0  0  0  0
   57.2600   31.6940   44.2050 O   0  0  0  0  0  0  0  0  0  0  0  0
   58.2720   32.7710   46.0660 C   0  0  0  0  0  0  0  0  0  0  0  0
   57.0350   33.6890   46.2860 C   0  0  0  0  0  0  0  0  0  0  0  0
   59.2790   33.5730   45.2010 C   0  0  0  0  0  0  0  0  0  0  0  0
   58.8780   32.3550   47.4590 C   0  0  2  0  0  0  0  0  0  0  0  0
   59.6700   33.4320   48.2090 C   0  0  0  0  0  0  0  0  0  0  0  0
   59.7880   33.1190   49.7260 C   0  0  0  0  0  0  0  0  0  0  0  0
   59.6950   31.6030   50.1600 C   0  0  1  0  0  0  0  0  0  0  0  0
   58.1910   31.1910   50.4200 C   0  0  0  0  0  0  0  0  0  0  0  0
   60.4920   31.3810   51.5570 C   0  0  1  0  0  0  0  0  0  0  0  0
   60.2450   29.9410   52.1160 C   0  0  0  0  0  0  0  0  0  0  0  0
   59.9670   32.3940   52.6480 C   0  0  0  0  0  0  0  0  0  0  0  0
   60.9260   33.5370   52.9520 C   0  0  0  0  0  0  0  0  0  0  0  0
   62.3030   33.0150   53.3910 C   0  0  1  0  0  0  0  0  0  0  0  0
   62.1830   32.3470   54.7840 C   0  0  0  0  0  0  0  0  0  0  0  0
   63.2850   34.2480   53.4900 C   0  0  0  0  0  0  0  0  0  0  0  0
   64.1210   34.4530   52.2020 C   0  0  0  0  0  0  0  0  0  0  0  0
   65.0120   33.2170   51.8590 C   0  0  2  0  0  0  0  0  0  0  0  0
   65.2660   33.1650   50.3460 C   0  0  0  0  0  0  0  0  0  0  0  0
   60.6671   27.5078   51.4559 H   0  0  0  0  0  0  0  0  0  0  0  0
   62.3777   27.7045   50.9442 H   0  0  0  0  0  0  0  0  0  0  0  0
   61.6220   26.0749   50.9442 H   0  0  0  0  0  0  0  0  0  0  0  0
   61.2396   26.6354   53.5298 H   0  0  0  0  0  0  0  0  0  0  0  0
   62.8147   25.9815   52.9249 H   0  0  0  0  0  0  0  0  0  0  0  0
   62.0920   28.7190   53.6930 H   0  0  0  0  0  0  0  0  0  0  0  0
   64.1671   27.8547   51.8071 H   0  0  0  0  0  0  0  0  0  0  0  0
   63.0190   29.2393   51.7159 H   0  0  0  0  0  0  0  0  0  0  0  0
   64.2852   29.9862   53.9517 H   0  0  0  0  0  0  0  0  0  0  0  0
   65.5997   28.9586   53.2555 H   0  0  0  0  0  0  0  0  0  0  0  0
   66.1130   30.8170   52.2590 H   0  0  0  0  0  0  0  0  0  0  0  0
   65.0110   30.3570   51.1220 H   0  0  0  0  0  0  0  0  0  0  0  0
   64.6074   31.8739   53.5298 H   0  0  0  0  0  0  0  0  0  0  0  0
   63.6356   30.9455   50.0909 H   0  0  0  0  0  0  0  0  0  0  0  0
   62.4592   29.6094   50.4816 H   0  0  0  0  0  0  0  0  0  0  0  0
   62.0377   31.9596   48.6277 H   0  0  0  0  0  0  0  0  0  0  0  0
   62.2138   30.1622   48.2325 H   0  0  0  0  0  0  0  0  0  0  0  0
   60.0392   29.6795   49.1966 H   0  0  0  0  0  0  0  0  0  0  0  0
   61.6824   30.6902   46.8130 H   0  0  0  0  0  0  0  0  0  0  0  0
   60.4365   29.9557   45.7477 H   0  0  0  0  0  0  0  0  0  0  0  0
   60.6823   31.7350   45.7477 H   0  0  0  0  0  0  0  0  0  0  0  0
   58.9788   28.9197   47.2455 H   0  0  0  0  0  0  0  0  0  0  0  0
   57.7381   30.0429   47.9787 H   0  0  0  0  0  0  0  0  0  0  0  0
   58.4026   29.5056   45.1026 H   0  0  0  0  0  0  0  0  0  0  0  0
   56.7978   29.7891   45.9761 H   0  0  0  0  0  0  0  0  0  0  0  0
   56.8613   33.8179   47.3645 H   0  0  0  0  0  0  0  0  0  0  0  0
   57.2199   34.6702   45.8245 H   0  0  0  0  0  0  0  0  0  0  0  0
   56.1494   33.2278   45.8245 H   0  0  0  0  0  0  0  0  0  0  0  0
   59.9695   34.1229   45.8573 H   0  0  0  0  0  0  0  0  0  0  0  0
   59.8504   32.8799   44.5661 H   0  0  0  0  0  0  0  0  0  0  0  0
   58.7313   34.2850   44.5661 H   0  0  0  0  0  0  0  0  0  0  0  0
   57.9400   32.2206   48.0176 H   0  0  0  0  0  0  0  0  0  0  0  0
   60.6809   33.4928   47.7795 H   0  0  0  0  0  0  0  0  0  0  0  0
   59.1327   34.3856   48.1002 H   0  0  0  0  0  0  0  0  0  0  0  0
   60.7607   33.5020   50.0682 H   0  0  0  0  0  0  0  0  0  0  0  0
   58.9104   33.5991   50.1835 H   0  0  0  0  0  0  0  0  0  0  0  0
   58.0067   31.1405   51.5033 H   0  0  0  0  0  0  0  0  0  0  0  0
   57.5226   31.9391   49.9688 H   0  0  0  0  0  0  0  0  0  0  0  0
   57.9972   30.2067   49.9688 H   0  0  0  0  0  0  0  0  0  0  0  0
   60.2498   29.9687   53.2156 H   0  0  0  0  0  0  0  0  0  0  0  0
   59.2706   29.5727   51.7627 H   0  0  0  0  0  0  0  0  0  0  0  0
   61.0410   29.2690   51.7627 H   0  0  0  0  0  0  0  0  0  0  0  0
   59.0195   32.8243   52.2915 H   0  0  0  0  0  0  0  0  0  0  0  0
   59.8515   31.8221   53.5805 H   0  0  0  0  0  0  0  0  0  0  0  0
   61.0482   34.1512   52.0476 H   0  0  0  0  0  0  0  0  0  0  0  0
   60.5039   34.1320   53.7753 H   0  0  0  0  0  0  0  0  0  0  0  0
   62.3195   33.1066   55.5679 H   0  0  0  0  0  0  0  0  0  0  0  0
   61.1882   31.8889   54.8865 H   0  0  0  0  0  0  0  0  0  0  0  0
   62.9562   31.5713   54.8865 H   0  0  0  0  0  0  0  0  0  0  0  0
   62.6919   35.1562   53.6725 H   0  0  0  0  0  0  0  0  0  0  0  0
   63.9871   34.0477   54.3128 H   0  0  0  0  0  0  0  0  0  0  0  0
   63.4345   34.6359   51.3622 H   0  0  0  0  0  0  0  0  0  0  0  0
   64.7910   35.3084   52.3733 H   0  0  0  0  0  0  0  0  0  0  0  0
   66.0002   33.3116   52.3328 H   0  0  0  0  0  0  0  0  0  0  0  0
   66.3281   32.9476   50.1598 H   0  0  0  0  0  0  0  0  0  0  0  0
   64.6458   32.3752   49.8970 H   0  0  0  0  0  0  0  0  0  0  0  0
   65.0061   34.1350   49.8970 H   0  0  0  0  0  0  0  0  0  0  0  0
  1  2  1  0
  2  3  1  0
  3  4  1  0
  4  5  1  0
  5  6  1  0
  6  7  1  0
  7  8  1  0
  8  9  2  0
  9 10  1  0
 10 11  1  0
 11 12  1  0
 12 13  1  0
 13 14  1  6
 13 15  1  0
 15 16  1  0
 16 17  1  0
 17 18  2  0
 17 19  1  0
 19 20  1  0
 19 21  1  0
 19 22  1  0
 22 23  1  0
 23 24  1  0
 24 25  1  0
 25 26  1  1
 25 27  1  0
 27 28  1  1
 27 29  1  0
 29 30  1  0
 30 31  1  0
 31 32  1  1
 31 33  1  0
 33 34  1  0
 34 35  1  0
 35 36  1  0
 35  7  1  0
 31  8  1  0
 27  9  1  0
 25 12  1  0
 22 13  1  0
  1 37  1  0
  1 38  1  0
  1 39  1  0
  2 40  1  0
  2 41  1  0
  3 42  1  0
  4 43  1  0
  4 44  1  0
  5 45  1  0
  5 46  1  0
  6 47  1  0
  6 48  1  0
  7 49  1  1
 10 50  1  0
 10 51  1  0
 11 52  1  0
 11 53  1  0
 12 54  1  1
 14 55  1  0
 14 56  1  0
 14 57  1  0
 15 58  1  0
 15 59  1  0
 16 60  1  0
 16 61  1  0
 20 62  1  0
 20 63  1  0
 20 64  1  0
 21 65  1  0
 21 66  1  0
 21 67  1  0
 22 68  1  1
 23 69  1  0
 23 70  1  0
 24 71  1  0
 24 72  1  0
 26 73  1  0
 26 74  1  0
 26 75  1  0
 28 76  1  0
 28 77  1  0
 28 78  1  0
 29 79  1  0
 29 80  1  0
 30 81  1  0
 30 82  1  0
 32 83  1  0
 32 84  1  0
 32 85  1  0
 33 86  1  0
 33 87  1  0
 34 88  1  0
 34 89  1  0
 35 90  1  1
 36 91  1  0
 36 92  1  0
 36 93  1  0
M  CHG  1   6   1
M  END
>  <UniqueID>  (26) 
26

>  <SMILES>  (26) 
CCNCC[NH2+][C@@H]1C2=C3CC[C@@H]4C5(C)CCC(=O)C(C)(C)C5CCC4(C)C3(C)CCC2(C)CCC1C

>  <Energy>  (26) 
175.89102570916924

>  <Genealogy>  (26) 
CCNCC[NH2+]C1C2=C3CCC4C5(C)CCC(=O)C(C)(C)C5CCC4(C)C3(C)CCC2(C)CCC1C (protonated)
CCNCC[NH2+][C@@H]1C2=C3CC[C@@H]4C5(C)CCC(=O)C(C)(C)C5CCC4(C)C3(C)CCC2(C)CCC1C (chirality)
CCNCC[NH2+][C@@H]1C2=C3CC[C@@H]4C5(C)CCC(=O)C(C)(C)C5CCC4(C)C3(C)CCC2(C)CCC1C (3D coordinates assigned)
CCNCC[NH2+][C@@H]1C2=C3CC[C@@H]4C5(C)CCC(=O)C(C)(C)C5CCC4(C)C3(C)CCC2(C)CCC1C (nonaromatic ring conformer: 175.89102570916924 kcal/mol)

>  <smiles>  (26) 
CCNCCNC1C2=C3CCC4C5(C)CCC(=O)C(C)(C)C5CCC4(C)C3(C)CCC2(C)CCC1C

>  <score_type>  (26) 
oracle

>  <origin>  (26) 
adg

>  <m_score__min__energy>  (26) 
-7.0999999999999996

>  <m_primary>  (26) 
energy

$$$$
26:0
     RDKit          3D

 44 46  0  0  0  0  0  0  0  0999 V2000
   64.5490   33.1970   49.8200 C   0  0  0  0  0  0  0  0  0  0  0  0
   64.1310   32.2510   48.6930 C   0  0  0  0  0  0  0  0  0  0  0  0
   62.9480   32.7690   47.9680 N   0  0  0  0  0  0  0  0  0  0  0  0
   63.3600   33.5010   46.7570 C   0  0  0  0  0  0  0  0  0  0  0  0
   62.1390   33.6500   48.8400 C   0  0  0  0  0  0  0  0  0  0  0  0
   60.8900   32.9270   49.3710 C   0  0  0  0  0  0  0  0  0  0  0  0
   60.8440   31.4400   48.9810 C   0  0  0  0  0  0  0  0  0  0  0  0
   60.8960   31.2710   47.5280 N   0  0  0  0  0  0  0  0  0  0  0  0
   59.6980   31.1810   46.7380 C   0  0  0  0  0  0  0  0  0  0  0  0
   59.1490   32.3330   46.1270 C   0  0  0  0  0  0  0  0  0  0  0  0
   59.7670   33.5970   46.2130 C   0  0  0  0  0  0  0  0  0  0  0  0
   59.1880   34.7110   45.6000 C   0  0  0  0  0  0  0  0  0  0  0  0
   57.9930   34.5810   44.8880 C   0  0  0  0  0  0  0  0  0  0  0  0
   57.3780   33.3330   44.7750 C   0  0  0  0  0  0  0  0  0  0  0  0
   57.9500   32.2090   45.3820 C   0  0  0  0  0  0  0  0  0  0  0  0
   57.3540   30.9970   45.2410 N   0  0  0  0  0  0  0  0  0  0  0  0
   57.8710   29.8730   45.7930 C   0  0  0  0  0  0  0  0  0  0  0  0
   57.2350   28.6850   45.6130 N   0  0  0  0  0  0  0  0  0  0  0  0
   57.7100   27.5290   46.1490 C   0  0  0  0  0  0  0  0  0  0  0  0
   58.8780   27.5400   46.9110 C   0  0  0  0  0  0  0  0  0  0  0  0
   59.5530   28.7440   47.1160 C   0  0  0  0  0  0  0  0  0  0  0  0
   59.0600   29.9340   46.5540 C   0  0  0  0  0  0  0  0  0  0  0  0
   64.3404   32.7248   50.7914 H   0  0  0  0  0  0  0  0  0  0  0  0
   65.6251   33.4102   49.7395 H   0  0  0  0  0  0  0  0  0  0  0  0
   63.9821   34.1362   49.7395 H   0  0  0  0  0  0  0  0  0  0  0  0
   64.9667   32.1446   47.9857 H   0  0  0  0  0  0  0  0  0  0  0  0
   63.8695   31.2781   49.1348 H   0  0  0  0  0  0  0  0  0  0  0  0
   63.8805   34.4257   47.0468 H   0  0  0  0  0  0  0  0  0  0  0  0
   64.0362   32.8713   46.1602 H   0  0  0  0  0  0  0  0  0  0  0  0
   62.4708   33.7523   46.1602 H   0  0  0  0  0  0  0  0  0  0  0  0
   62.7550   33.9717   49.6927 H   0  0  0  0  0  0  0  0  0  0  0  0
   61.8097   34.5149   48.2454 H   0  0  0  0  0  0  0  0  0  0  0  0
   60.8819   33.0018   50.4684 H   0  0  0  0  0  0  0  0  0  0  0  0
   60.0123   33.4125   48.9194 H   0  0  0  0  0  0  0  0  0  0  0  0
   61.7038   30.9239   49.4331 H   0  0  0  0  0  0  0  0  0  0  0  0
   59.8986   31.0134   49.3472 H   0  0  0  0  0  0  0  0  0  0  0  0
   61.8130   31.0800   47.0680 H   0  0  0  0  0  0  0  0  0  0  0  0
   60.7113   33.7070   46.7664 H   0  0  0  0  0  0  0  0  0  0  0  0
   59.6749   35.6943   45.6783 H   0  0  0  0  0  0  0  0  0  0  0  0
   57.5362   35.4633   44.4158 H   0  0  0  0  0  0  0  0  0  0  0  0
   56.4412   33.2326   44.2073 H   0  0  0  0  0  0  0  0  0  0  0  0
   57.1723   26.5841   45.9813 H   0  0  0  0  0  0  0  0  0  0  0  0
   59.2642   26.6069   47.3470 H   0  0  0  0  0  0  0  0  0  0  0  0
   60.4730   28.7617   47.7188 H   0  0  0  0  0  0  0  0  0  0  0  0
  1  2  1  0
  2  3  1  0
  3  4  1  0
  3  5  1  0
  5  6  1  0
  6  7  1  0
  7  8  1  0
  8  9  1  0
  9 10  2  0
 10 11  1  0
 11 12  2  0
 12 13  1  0
 13 14  2  0
 14 15  1  0
 15 16  2  0
 16 17  1  0
 17 18  2  0
 18 19  1  0
 19 20  2  0
 20 21  1  0
 21 22  2  0
 22  9  1  0
 15 10  1  0
 22 17  1  0
  1 23  1  0
  1 24  1  0
  1 25  1  0
  2 26  1  0
  2 27  1  0
  4 28  1  0
  4 29  1  0
  4 30  1  0
  5 31  1  0
  5 32  1  0
  6 33  1  0
  6 34  1  0
  7 35  1  0
  7 36  1  0
  8 37  1  0
 11 38  1  0
 12 39  1  0
 13 40  1  0
 14 41  1  0
 19 42  1  0
 20 43  1  0
 21 44  1  0
M  END
>  <UniqueID>  (27) 
27

>  <SMILES>  (27) 
CCN(C)CCCNc1c2ccccc2nc2ncccc12

>  <Energy>  (27) 
56.1145768412157

>  <Genealogy>  (27) 
CCN(C)CCCNc1c2ccccc2nc2ncccc12 (3D coordinates assigned)
CCN(C)CCCNc1c2ccccc2nc2ncccc12 (optimized conformer: 56.1145768412157 kcal/mol)

>  <smiles>  (27) 
CCN(C)CCCNc1c2ccccc2nc2ncccc12

>  <score_type>  (27) 
oracle

>  <origin>  (27) 
adg

>  <m_score__min__energy>  (27) 
-7.25

>  <m_primary>  (27) 
energy

$$$$
27:0
     RDKit          3D

 54 57  0  0  0  0  0  0  0  0999 V2000
   65.8510   34.5560   52.0240 C   0  0  0  0  0  0  0  0  0  0  0  0
   64.9440   33.4870   52.6260 C   0  0  0  0  0  0  0  0  0  0  0  0
   64.6420   32.4450   51.6320 N   0  0  0  0  0  0  0  0  0  0  0  0
   65.2370   32.7610   50.3270 C   0  0  0  0  0  0  0  0  0  0  0  0
   64.1310   33.1070   49.3210 C   0  0  0  0  0  0  0  0  0  0  0  0
   62.7800   33.0370   49.9140 N   0  0  0  0  0  0  0  0  0  0  0  0
   61.9010   32.1260   49.1900 C   0  0  0  0  0  0  0  0  0  0  0  0
   61.6840   30.8060   49.6750 C   0  0  0  0  0  0  0  0  0  0  0  0
   62.2250   30.3600   50.9070 C   0  0  0  0  0  0  0  0  0  0  0  0
   62.0390   29.0500   51.3440 C   0  0  0  0  0  0  0  0  0  0  0  0
   61.3150   28.1520   50.5710 C   0  0  0  0  0  0  0  0  0  0  0  0
   61.0760   26.5070   51.1320 Cl  0  0  0  0  0  0  0  0  0  0  0  0
   60.7720   28.5610   49.3550 C   0  0  0  0  0  0  0  0  0  0  0  0
   60.9450   29.8860   48.8840 C   0  0  0  0  0  0  0  0  0  0  0  0
   60.4140   30.2820   47.6790 N   0  0  0  0  0  0  0  0  0  0  0  0
   60.1770   29.2540   46.6400 C   0  0  0  0  0  0  0  0  0  0  0  0
   60.3230   31.6230   47.3700 C   0  0  0  0  0  0  0  0  0  0  0  0
   61.2010   32.5390   48.0150 C   0  0  0  0  0  0  0  0  0  0  0  0
   61.3490   33.8330   47.4600 C   0  0  0  0  0  0  0  0  0  0  0  0
   60.5930   34.2420   46.3690 C   0  0  0  0  0  0  0  0  0  0  0  0
   59.5890   33.4230   45.8620 C   0  0  0  0  0  0  0  0  0  0  0  0
   58.7370   33.9070   44.8580 C   0  0  0  0  0  0  0  0  0  0  0  0
   57.6450   33.1520   44.4340 C   0  0  0  0  0  0  0  0  0  0  0  0
   57.3670   31.9160   45.0390 C   0  0  0  0  0  0  0  0  0  0  0  0
   56.2420   31.1490   44.6980 O   0  0  0  0  0  0  0  0  0  0  0  0
   56.2560   30.0690   43.7710 C   0  0  0  0  0  0  0  0  0  0  0  0
   58.2300   31.4250   46.0250 C   0  0  0  0  0  0  0  0  0  0  0  0
   59.4000   32.1260   46.3970 C   0  0  0  0  0  0  0  0  0  0  0  0
   66.3337   35.1249   52.8323 H   0  0  0  0  0  0  0  0  0  0  0  0
   66.6215   34.0758   51.4028 H   0  0  0  0  0  0  0  0  0  0  0  0
   65.2517   35.2380   51.4028 H   0  0  0  0  0  0  0  0  0  0  0  0
   65.4491   33.0282   53.4888 H   0  0  0  0  0  0  0  0  0  0  0  0
   64.0021   33.9584   52.9433 H   0  0  0  0  0  0  0  0  0  0  0  0
   65.0750   31.5530   51.9690 H   0  0  0  0  0  0  0  0  0  0  0  0
   65.9155   33.6203   50.4335 H   0  0  0  0  0  0  0  0  0  0  0  0
   65.7985   31.8879   49.9631 H   0  0  0  0  0  0  0  0  0  0  0  0
   64.2999   34.1285   48.9495 H   0  0  0  0  0  0  0  0  0  0  0  0
   64.1766   32.3665   48.5088 H   0  0  0  0  0  0  0  0  0  0  0  0
   62.3610   33.9940   49.9160 H   0  0  0  0  0  0  0  0  0  0  0  0
   62.8380   32.8280   50.9330 H   0  0  0  0  0  0  0  0  0  0  0  0
   62.8018   31.0603   51.5290 H   0  0  0  0  0  0  0  0  0  0  0  0
   62.4670   28.7263   52.3042 H   0  0  0  0  0  0  0  0  0  0  0  0
   60.1990   27.8428   48.7501 H   0  0  0  0  0  0  0  0  0  0  0  0
   59.9548   28.2903   47.1216 H   0  0  0  0  0  0  0  0  0  0  0  0
   59.3249   29.5558   46.0133 H   0  0  0  0  0  0  0  0  0  0  0  0
   61.0752   29.1522   46.0133 H   0  0  0  0  0  0  0  0  0  0  0  0
   62.0776   34.5287   47.9018 H   0  0  0  0  0  0  0  0  0  0  0  0
   60.7891   35.2190   45.9031 H   0  0  0  0  0  0  0  0  0  0  0  0
   58.9322   34.8890   44.4024 H   0  0  0  0  0  0  0  0  0  0  0  0
   57.0003   33.5249   43.6245 H   0  0  0  0  0  0  0  0  0  0  0  0
   56.2684   29.1154   44.3192 H   0  0  0  0  0  0  0  0  0  0  0  0
   55.3572   30.1168   43.1387 H   0  0  0  0  0  0  0  0  0  0  0  0
   57.1533   30.1401   43.1387 H   0  0  0  0  0  0  0  0  0  0  0  0
   57.9928   30.4726   46.5216 H   0  0  0  0  0  0  0  0  0  0  0  0
  1  2  1  0
  2  3  1  0
  3  4  1  0
  4  5  1  0
  5  6  1  0
  6  7  1  0
  7  8  2  0
  8  9  1  0
  9 10  2  0
 10 11  1  0
 11 12  1  0
 11 13  2  0
 13 14  1  0
 14 15  2  0
 15 16  1  0
 15 17  1  0
 17 18  2  0
 18 19  1  0
 19 20  2  0
 20 21  1  0
 21 22  2  0
 22 23  1  0
 23 24  2  0
 24 25  1  0
 25 26  1  0
 24 27  1  0
 27 28  2  0
 18  7  1  0
 28 21  1  0
 14  8  1  0
 28 17  1  0
  1 29  1  0
  1 30  1  0
  1 31  1  0
  2 32  1  0
  2 33  1  0
  3 34  1  0
  4 35  1  0
  4 36  1  0
  5 37  1  0
  5 38  1  0
  6 39  1  0
  6 40  1  0
  9 41  1  0
 10 42  1  0
 13 43  1  0
 16 44  1  0
 16 45  1  0
 16 46  1  0
 19 47  1  0
 20 48  1  0
 22 49  1  0
 23 50  1  0
 26 51  1  0
 26 52  1  0
 26 53  1  0
 27 54  1  0
M  CHG  2   6   1  15   1
M  END
>  <UniqueID>  (28) 
28

>  <SMILES>  (28) 
CCNCC[NH2+]c1c2ccc(Cl)cc2[n+](C)c2c1ccc1ccc(OC)cc12

>  <Energy>  (28) 
96.84281741759648

>  <Genealogy>  (28) 
CCNCC[NH2+]c1c2ccc(Cl)cc2[n+](C)c2c1ccc1ccc(OC)cc12 (protonated)
CCNCC[NH2+]c1c2ccc(Cl)cc2[n+](C)c2c1ccc1ccc(OC)cc12 (3D coordinates assigned)
CCNCC[NH2+]c1c2ccc(Cl)cc2[n+](C)c2c1ccc1ccc(OC)cc12 (optimized conformer: 96.84281741759648 kcal/mol)

>  <smiles>  (28) 
CCNCCNc1c2ccc(Cl)cc2[n+](C)c2c1ccc1ccc(OC)cc12

>  <score_type>  (28) 
oracle

>  <origin>  (28) 
adg

>  <m_score__min__energy>  (28) 
-5.6699999999999999

>  <m_primary>  (28) 
energy

$$$$
28:0
     RDKit          3D

 54 55  0  0  0  0  0  0  0  0999 V2000
   60.7090   28.2330   50.3110 C   0  0  0  0  0  0  0  0  0  0  0  0
   59.8850   29.4840   49.9880 C   0  0  0  0  0  0  0  0  0  0  0  0
   60.4730   30.7320   50.5440 N   0  0  0  0  0  0  0  0  0  0  0  0
   61.7400   30.5040   51.2920 C   0  0  0  0  0  0  0  0  0  0  0  0
   63.0110   30.8220   50.4920 C   0  0  0  0  0  0  0  0  0  0  0  0
   59.4720   31.4680   51.3730 C   0  0  0  0  0  0  0  0  0  0  0  0
   58.8270   32.6450   50.6240 C   0  0  0  0  0  0  0  0  0  0  0  0
   59.5080   32.8860   49.4110 O   0  0  0  0  0  0  0  0  0  0  0  0
   60.0020   34.2130   49.3690 C   0  0  0  0  0  0  0  0  0  0  0  0
   61.4870   34.2340   49.0020 C   0  0  0  0  0  0  0  0  0  0  0  0
   61.9710   32.9080   48.9260 O   0  0  0  0  0  0  0  0  0  0  0  0
   62.4710   32.6300   47.6310 C   0  0  0  0  0  0  0  0  0  0  0  0
   62.0440   31.2420   47.1450 C   0  0  0  0  0  0  0  0  0  0  0  0
   60.7060   30.9790   47.5550 O   0  0  0  0  0  0  0  0  0  0  0  0
   59.6580   30.8450   46.6400 C   0  0  0  0  0  0  0  0  0  0  0  0
   59.2580   29.5590   46.2550 C   0  0  0  0  0  0  0  0  0  0  0  0
   60.0430   28.1410   46.9340 Cl  0  0  0  0  0  0  0  0  0  0  0  0
   58.2340   29.3890   45.3230 C   0  0  0  0  0  0  0  0  0  0  0  0
   57.5970   30.4940   44.7530 C   0  0  0  0  0  0  0  0  0  0  0  0
   56.3180   30.1860   43.5790 Cl  0  0  0  0  0  0  0  0  0  0  0  0
   57.9920   31.7990   45.1170 C   0  0  0  0  0  0  0  0  0  0  0  0
   57.3840   32.9350   44.5450 C   0  0  0  0  0  0  0  0  0  0  0  0
   57.8010   34.2180   44.9040 C   0  0  0  0  0  0  0  0  0  0  0  0
   58.8260   34.3890   45.8310 C   0  0  0  0  0  0  0  0  0  0  0  0
   59.4400   33.2790   46.4110 C   0  0  0  0  0  0  0  0  0  0  0  0
   59.0310   31.9760   46.0710 C   0  0  0  0  0  0  0  0  0  0  0  0
   60.7859   28.1162   51.4021 H   0  0  0  0  0  0  0  0  0  0  0  0
   60.2162   27.3483   49.8814 H   0  0  0  0  0  0  0  0  0  0  0  0
   61.7163   28.3364   49.8814 H   0  0  0  0  0  0  0  0  0  0  0  0
   59.8179   29.5859   48.8948 H   0  0  0  0  0  0  0  0  0  0  0  0
   58.8963   29.3533   50.4520 H   0  0  0  0  0  0  0  0  0  0  0  0
   60.7320   31.3360   49.7280 H   0  0  0  0  0  0  0  0  0  0  0  0
   61.7296   31.1399   52.1895 H   0  0  0  0  0  0  0  0  0  0  0  0
   61.7772   29.4306   51.5295 H   0  0  0  0  0  0  0  0  0  0  0  0
   63.8389   31.0291   51.1861 H   0  0  0  0  0  0  0  0  0  0  0  0
   63.2704   29.9611   49.8584 H   0  0  0  0  0  0  0  0  0  0  0  0
   62.8344   31.7037   49.8584 H   0  0  0  0  0  0  0  0  0  0  0  0
   58.6800   30.7660   51.6728 H   0  0  0  0  0  0  0  0  0  0  0  0
   60.0029   31.8809   52.2434 H   0  0  0  0  0  0  0  0  0  0  0  0
   57.7753   32.4053   50.4083 H   0  0  0  0  0  0  0  0  0  0  0  0
   58.8869   33.5454   51.2530 H   0  0  0  0  0  0  0  0  0  0  0  0
   59.4375   34.7833   48.6167 H   0  0  0  0  0  0  0  0  0  0  0  0
   59.8808   34.6637   50.3651 H   0  0  0  0  0  0  0  0  0  0  0  0
   61.6173   34.7286   48.0281 H   0  0  0  0  0  0  0  0  0  0  0  0
   62.0475   34.7861   49.7708 H   0  0  0  0  0  0  0  0  0  0  0  0
   62.0873   33.3866   46.9307 H   0  0  0  0  0  0  0  0  0  0  0  0
   63.5698   32.6549   47.6750 H   0  0  0  0  0  0  0  0  0  0  0  0
   62.1037   31.2049   46.0473 H   0  0  0  0  0  0  0  0  0  0  0  0
   62.7127   30.4835   47.5779 H   0  0  0  0  0  0  0  0  0  0  0  0
   57.9247   28.3738   45.0337 H   0  0  0  0  0  0  0  0  0  0  0  0
   56.5750   32.8095   43.8103 H   0  0  0  0  0  0  0  0  0  0  0  0
   57.3180   35.0973   44.4529 H   0  0  0  0  0  0  0  0  0  0  0  0
   59.1525   35.4026   46.1067 H   0  0  0  0  0  0  0  0  0  0  0  0
   60.2507   33.4233   47.1403 H   0  0  0  0  0  0  0  0  0  0  0  0
  1  2  1  0
  2  3  1  0
  3  4  1  0
  4  5  1  0
  3  6  1  0
  6  7  1  0
  7  8  1  0
  8  9  1  0
  9 10  1  0
 10 11  1  0
 11 12  1  0
 12 13  1  0
 13 14  1  0
 14 15  1  0
 15 16  2  0
 16 17  1  0
 16 18  1  0
 18 19  2  0
 19 20  1  0
 19 21  1  0
 21 22  2  0
 22 23  1  0
 23 24  2  0
 24 25  1  0
 25 26  2  0
 26 15  1  0
 26 21  1  0
  1 27  1  0
  1 28  1  0
  1 29  1  0
  2 30  1  0
  2 31  1  0
  3 32  1  0
  4 33  1  0
  4 34  1  0
  5 35  1  0
  5 36  1  0
  5 37  1  0
  6 38  1  0
  6 39  1  0
  7 40  1  0
  7 41  1  0
  9 42  1  0
  9 43  1  0
 10 44  1  0
 10 45  1  0
 12 46  1  0
 12 47  1  0
 13 48  1  0
 13 49  1  0
 18 50  1  0
 22 51  1  0
 23 52  1  0
 24 53  1  0
 25 54  1  0
M  CHG  1   3   1
M  END
>  <UniqueID>  (29) 
29

>  <SMILES>  (29) 
CC[NH+](CC)CCOCCOCCOc1c(Cl)cc(Cl)c2ccccc12

>  <Energy>  (29) 
61.896074682068146

>  <Genealogy>  (29) 
CC[NH+](CC)CCOCCOCCOc1c(Cl)cc(Cl)c2ccccc12 (protonated)
CC[NH+](CC)CCOCCOCCOc1c(Cl)cc(Cl)c2ccccc12 (3D coordinates assigned)
CC[NH+](CC)CCOCCOCCOc1c(Cl)cc(Cl)c2ccccc12 (optimized conformer: 61.896074682068146 kcal/mol)

>  <smiles>  (29) 
CCN(CC)CCOCCOCCOc1c(Cl)cc(Cl)c2ccccc12

>  <score_type>  (29) 
oracle

>  <origin>  (29) 
adg

>  <m_score__min__energy>  (29) 
-4.9100000000000001

>  <m_primary>  (29) 
energy

$$$$
29:0
     RDKit          3D

 70 73  0  0  0  0  0  0  0  0999 V2000
   63.0330   34.2330   48.7330 C   0  0  0  0  0  0  0  0  0  0  0  0
   63.8880   32.9870   48.5300 C   0  0  0  0  0  0  0  0  0  0  0  0
   63.6280   32.4170   47.2000 N   0  0  0  0  0  0  0  0  0  0  0  0
   62.6100   31.3550   47.2300 C   0  0  0  0  0  0  0  0  0  0  0  0
   61.8260   31.3310   48.5580 C   0  0  0  0  0  0  0  0  0  0  0  0
   60.6920   30.2900   48.5500 C   0  0  0  0  0  0  0  0  0  0  0  0
   59.3630   30.9220   48.4470 N   0  0  0  0  0  0  0  0  0  0  0  0
   59.0970   31.3060   47.0740 C   0  0  0  0  0  0  0  0  0  0  0  0
   59.2330   32.6590   46.6300 C   0  0  0  0  0  0  0  0  0  0  0  0
   59.7340   33.6680   47.4850 C   0  0  0  0  0  0  0  0  0  0  0  0
   59.9110   34.9710   47.0310 C   0  0  0  0  0  0  0  0  0  0  0  0
   59.6090   35.3030   45.7170 C   0  0  0  0  0  0  0  0  0  0  0  0
   59.1150   34.3350   44.8440 C   0  0  0  0  0  0  0  0  0  0  0  0
   58.8900   33.0070   45.2770 C   0  0  0  0  0  0  0  0  0  0  0  0
   58.3820   32.0510   44.4170 N   0  0  0  0  0  0  0  0  0  0  0  0
   57.8560   32.4030   43.0830 C   0  0  0  0  0  0  0  0  0  0  0  0
   58.4030   30.7420   44.8140 C   0  0  0  0  0  0  0  0  0  0  0  0
   58.1460   29.6760   44.0200 N   0  0  0  0  0  0  0  0  0  0  0  0
   58.3200   28.5980   44.8030 C   0  0  0  0  0  0  0  0  0  0  0  0
   58.2000   27.2680   44.4040 C   0  0  0  0  0  0  0  0  0  0  0  0
   58.4340   26.2550   45.3600 C   0  0  0  0  0  0  0  0  0  0  0  0
   58.3130   24.8940   45.0530 O   0  0  0  0  0  0  0  0  0  0  0  0
   57.1830   24.0860   45.3870 C   0  0  0  0  0  0  0  0  0  0  0  0
   56.8370   23.1480   44.2130 C   0  0  0  0  0  0  0  0  0  0  0  0
   57.5060   21.8070   44.2400 N   0  0  0  0  0  0  0  0  0  0  0  0
   57.0010   20.9670   45.3530 C   0  0  0  0  0  0  0  0  0  0  0  0
   57.3260   21.0880   42.9530 C   0  0  0  0  0  0  0  0  0  0  0  0
   58.9630   22.0240   44.4460 C   0  0  0  0  0  0  0  0  0  0  0  0
   58.7930   26.6140   46.6770 C   0  0  0  0  0  0  0  0  0  0  0  0
   58.9470   27.9620   47.0440 C   0  0  0  0  0  0  0  0  0  0  0  0
   58.6860   28.9520   46.0860 C   0  0  0  0  0  0  0  0  0  0  0  0
   58.7500   30.3510   46.0970 C   0  0  0  0  0  0  0  0  0  0  0  0
   62.9055   34.4188   49.8097 H   0  0  0  0  0  0  0  0  0  0  0  0
   63.5289   35.0977   48.2679 H   0  0  0  0  0  0  0  0  0  0  0  0
   62.0478   34.0814   48.2679 H   0  0  0  0  0  0  0  0  0  0  0  0
   64.9514   33.2565   48.6104 H   0  0  0  0  0  0  0  0  0  0  0  0
   63.6353   32.2432   49.3001 H   0  0  0  0  0  0  0  0  0  0  0  0
   64.5200   32.0230   46.8140 H   0  0  0  0  0  0  0  0  0  0  0  0
   61.9021   31.5206   46.4045 H   0  0  0  0  0  0  0  0  0  0  0  0
   63.1282   30.3900   47.1284 H   0  0  0  0  0  0  0  0  0  0  0  0
   62.5219   31.0894   49.3749 H   0  0  0  0  0  0  0  0  0  0  0  0
   61.3706   32.3226   48.6972 H   0  0  0  0  0  0  0  0  0  0  0  0
   60.8331   29.6176   47.6910 H   0  0  0  0  0  0  0  0  0  0  0  0
   60.7323   29.7360   49.4995 H   0  0  0  0  0  0  0  0  0  0  0  0
   58.6090   30.2900   48.7910 H   0  0  0  0  0  0  0  0  0  0  0  0
   59.2980   31.7480   49.0810 H   0  0  0  0  0  0  0  0  0  0  0  0
   59.9878   33.4185   48.5258 H   0  0  0  0  0  0  0  0  0  0  0  0
   60.2922   35.7423   47.7165 H   0  0  0  0  0  0  0  0  0  0  0  0
   59.7601   36.3337   45.3636 H   0  0  0  0  0  0  0  0  0  0  0  0
   58.8965   34.6082   43.8011 H   0  0  0  0  0  0  0  0  0  0  0  0
   56.9467   33.0115   43.1963 H   0  0  0  0  0  0  0  0  0  0  0  0
   58.6142   32.9763   42.5295 H   0  0  0  0  0  0  0  0  0  0  0  0
   57.6152   31.4834   42.5295 H   0  0  0  0  0  0  0  0  0  0  0  0
   57.9170   29.6640   43.0000 H   0  0  0  0  0  0  0  0  0  0  0  0
   57.9294   27.0132   43.3687 H   0  0  0  0  0  0  0  0  0  0  0  0
   57.4168   23.4837   46.2773 H   0  0  0  0  0  0  0  0  0  0  0  0
   56.3217   24.7387   45.5924 H   0  0  0  0  0  0  0  0  0  0  0  0
   55.7493   22.9843   44.2192 H   0  0  0  0  0  0  0  0  0  0  0  0
   57.2045   23.6507   43.3062 H   0  0  0  0  0  0  0  0  0  0  0  0
   57.2772   21.4264   46.3136 H   0  0  0  0  0  0  0  0  0  0  0  0
   55.9059   20.8886   45.2855 H   0  0  0  0  0  0  0  0  0  0  0  0
   57.4454   19.9630   45.2855 H   0  0  0  0  0  0  0  0  0  0  0  0
   57.0633   20.0387   43.1528 H   0  0  0  0  0  0  0  0  0  0  0  0
   56.5194   21.5645   42.3765 H   0  0  0  0  0  0  0  0  0  0  0  0
   58.2619   21.1283   42.3765 H   0  0  0  0  0  0  0  0  0  0  0  0
   59.1801   22.0563   45.5239 H   0  0  0  0  0  0  0  0  0  0  0  0
   59.5255   21.1997   43.9832 H   0  0  0  0  0  0  0  0  0  0  0  0
   59.2609   22.9764   43.9832 H   0  0  0  0  0  0  0  0  0  0  0  0
   58.9548   25.8266   47.4278 H   0  0  0  0  0  0  0  0  0  0  0  0
   59.2655   28.2345   48.0610 H   0  0  0  0  0  0  0  0  0  0  0  0
  1  2  1  0
  2  3  1  0
  3  4  1  0
  4  5  1  0
  5  6  1  0
  6  7  1  0
  7  8  1  0
  8  9  2  0
  9 10  1  0
 10 11  2  0
 11 12  1  0
 12 13  2  0
 13 14  1  0
 14 15  2  0
 15 16  1  0
 15 17  1  0
 17 18  1  0
 18 19  1  0
 19 20  2  0
 20 21  1  0
 21 22  1  0
 22 23  1  0
 23 24  1  0
 24 25  1  0
 25 26  1  0
 25 27  1  0
 25 28  1  0
 21 29  2  0
 29 30  1  0
 30 31  2  0
 31 32  1  0
 32  8  1  0
 14  9  1  0
 32 17  2  0
 31 19  1  0
  1 33  1  0
  1 34  1  0
  1 35  1  0
  2 36  1  0
  2 37  1  0
  3 38  1  0
  4 39  1  0
  4 40  1  0
  5 41  1  0
  5 42  1  0
  6 43  1  0
  6 44  1  0
  7 45  1  0
  7 46  1  0
 10 47  1  0
 11 48  1  0
 12 49  1  0
 13 50  1  0
 16 51  1  0
 16 52  1  0
 16 53  1  0
 18 54  1  0
 20 55  1  0
 23 56  1  0
 23 57  1  0
 24 58  1  0
 24 59  1  0
 26 60  1  0
 26 61  1  0
 26 62  1  0
 27 63  1  0
 27 64  1  0
 27 65  1  0
 28 66  1  0
 28 67  1  0
 28 68  1  0
 29 69  1  0
 30 70  1  0
M  CHG  3   7   1  15   1  25   1
M  END
>  <UniqueID>  (30) 
30

>  <SMILES>  (30) 
CCNCCC[NH2+]c1c2ccccc2[n+](C)c2[nH]c3cc(OCC[N+](C)(C)C)ccc3c12

>  <Energy>  (30) 
133.07583709342657

>  <Genealogy>  (30) 
CCNCCC[NH2+]c1c2ccccc2[n+](C)c2[nH]c3cc(OCC[N+](C)(C)C)ccc3c12 (protonated)
CCNCCC[NH2+]c1c2ccccc2[n+](C)c2[nH]c3cc(OCC[N+](C)(C)C)ccc3c12 (3D coordinates assigned)
CCNCCC[NH2+]c1c2ccccc2[n+](C)c2[nH]c3cc(OCC[N+](C)(C)C)ccc3c12 (optimized conformer: 133.07583709342657 kcal/mol)

>  <smiles>  (30) 
CCNCCCNc1c2ccccc2[n+](C)c2[nH]c3cc(OCC[N+](C)(C)C)ccc3c12

>  <score_type>  (30) 
oracle

>  <origin>  (30) 
adg

>  <m_score__min__energy>  (30) 
-4.4500000000000002

>  <m_primary>  (30) 
energy

$$$$
