0:0
     RDKit          3D

 72 74  0  0  0  0  0  0  0  0999 V2000
   57.7610   25.9620   44.4120 C   0  0  0  0  0  0  0  0  0  0  0  0
   56.8610   26.0720   45.6420 C   0  0  0  0  0  0  0  0  0  0  0  0
   57.6490   26.0320   46.8960 N   0  0  0  0  0  0  0  0  0  0  0  0
   57.3760   24.8420   47.7400 C   0  0  0  0  0  0  0  0  0  0  0  0
   56.2240   23.9650   47.2330 C   0  0  0  0  0  0  0  0  0  0  0  0
   59.0960   26.2210   46.6440 C   0  0  0  0  0  0  0  0  0  0  0  0
   59.4900   27.6750   46.9310 C   0  0  0  0  0  0  0  0  0  0  0  0
   58.3220   28.5600   46.8850 N   0  0  0  0  0  0  0  0  0  0  0  0
   58.4100   29.9110   46.3980 C   0  0  0  0  0  0  0  0  0  0  0  0
   57.8330   30.2420   45.1600 C   0  0  0  0  0  0  0  0  0  0  0  0
   57.0830   29.2890   44.4360 C   0  0  0  0  0  0  0  0  0  0  0  0
   56.5760   29.5890   43.1740 C   0  0  0  0  0  0  0  0  0  0  0  0
   56.8140   30.8330   42.6070 C   0  0  0  0  0  0  0  0  0  0  0  0
   57.5440   31.7950   43.3080 C   0  0  0  0  0  0  0  0  0  0  0  0
   58.0420   31.5350   44.6120 C   0  0  0  0  0  0  0  0  0  0  0  0
   58.7390   32.4890   45.3300 N   0  0  0  0  0  0  0  0  0  0  0  0
   58.7380   33.8990   44.8800 C   0  0  0  0  0  0  0  0  0  0  0  0
   59.4110   32.1330   46.4850 C   0  0  0  0  0  0  0  0  0  0  0  0
   60.3470   32.9990   47.1000 C   0  0  0  0  0  0  0  0  0  0  0  0
   60.9580   32.6740   48.3120 C   0  0  0  0  0  0  0  0  0  0  0  0
   61.8790   33.5840   48.8500 O   0  0  0  0  0  0  0  0  0  0  0  0
   63.1620   33.8440   48.2900 C   0  0  0  0  0  0  0  0  0  0  0  0
   64.1410   32.6990   48.6240 C   0  0  0  0  0  0  0  0  0  0  0  0
   64.6600   32.6580   50.0290 N   0  0  0  0  0  0  0  0  0  0  0  0
   64.0850   33.8150   50.7580 C   0  0  0  0  0  0  0  0  0  0  0  0
   66.1410   32.7790   50.0620 C   0  0  0  0  0  0  0  0  0  0  0  0
   64.2450   31.4160   50.7290 C   0  0  0  0  0  0  0  0  0  0  0  0
   60.6650   31.4510   48.9390 C   0  0  0  0  0  0  0  0  0  0  0  0
   61.3240   31.1150   50.1330 O   0  0  0  0  0  0  0  0  0  0  0  0
   61.1130   29.9190   50.8770 C   0  0  0  0  0  0  0  0  0  0  0  0
   59.7610   30.5710   48.3300 C   0  0  0  0  0  0  0  0  0  0  0  0
   59.1900   30.8640   47.0750 C   0  0  0  0  0  0  0  0  0  0  0  0
   58.8056   25.8343   44.7322 H   0  0  0  0  0  0  0  0  0  0  0  0
   57.4537   25.0947   43.8092 H   0  0  0  0  0  0  0  0  0  0  0  0
   57.6716   26.8778   43.8092 H   0  0  0  0  0  0  0  0  0  0  0  0
   56.3086   27.0222   45.5970 H   0  0  0  0  0  0  0  0  0  0  0  0
   56.1692   25.2168   45.6414 H   0  0  0  0  0  0  0  0  0  0  0  0
   58.2877   24.2276   47.7760 H   0  0  0  0  0  0  0  0  0  0  0  0
   57.0769   25.2172   48.7298 H   0  0  0  0  0  0  0  0  0  0  0  0
   55.6759   23.5478   48.0906 H   0  0  0  0  0  0  0  0  0  0  0  0
   55.5410   24.5738   46.6224 H   0  0  0  0  0  0  0  0  0  0  0  0
   56.6290   23.1446   46.6224 H   0  0  0  0  0  0  0  0  0  0  0  0
   59.6711   25.5510   47.3000 H   0  0  0  0  0  0  0  0  0  0  0  0
   59.3139   25.9877   45.5913 H   0  0  0  0  0  0  0  0  0  0  0  0
   59.9447   27.7328   47.9309 H   0  0  0  0  0  0  0  0  0  0  0  0
   60.2043   28.0008   46.1605 H   0  0  0  0  0  0  0  0  0  0  0  0
   57.3800   28.1740   47.1320 H   0  0  0  0  0  0  0  0  0  0  0  0
   56.8970   28.2974   44.8744 H   0  0  0  0  0  0  0  0  0  0  0  0
   55.9864   28.8392   42.6262 H   0  0  0  0  0  0  0  0  0  0  0  0
   56.4267   31.0618   41.6032 H   0  0  0  0  0  0  0  0  0  0  0  0
   57.7368   32.7723   42.8414 H   0  0  0  0  0  0  0  0  0  0  0  0
   58.7375   34.5636   45.7565 H   0  0  0  0  0  0  0  0  0  0  0  0
   59.6360   34.0913   44.2745 H   0  0  0  0  0  0  0  0  0  0  0  0
   57.8397   34.0900   44.2745 H   0  0  0  0  0  0  0  0  0  0  0  0
   60.5989   33.9514   46.6106 H   0  0  0  0  0  0  0  0  0  0  0  0
   63.0686   33.9330   47.1976 H   0  0  0  0  0  0  0  0  0  0  0  0
   63.5521   34.7804   48.7154 H   0  0  0  0  0  0  0  0  0  0  0  0
   63.6232   31.7481   48.4301 H   0  0  0  0  0  0  0  0  0  0  0  0
   65.0232   32.8732   47.9904 H   0  0  0  0  0  0  0  0  0  0  0  0
   64.1697   33.6446   51.8414 H   0  0  0  0  0  0  0  0  0  0  0  0
   64.6338   34.7289   50.4866 H   0  0  0  0  0  0  0  0  0  0  0  0
   63.0252   33.9294   50.4866 H   0  0  0  0  0  0  0  0  0  0  0  0
   66.4834   32.8070   51.1070 H   0  0  0  0  0  0  0  0  0  0  0  0
   66.5910   31.9146   49.5517 H   0  0  0  0  0  0  0  0  0  0  0  0
   66.4447   33.7049   49.5517 H   0  0  0  0  0  0  0  0  0  0  0  0
   64.2975   31.5730   51.8165 H   0  0  0  0  0  0  0  0  0  0  0  0
   63.2132   31.1621   50.4445 H   0  0  0  0  0  0  0  0  0  0  0  0
   64.9169   30.5928   50.4445 H   0  0  0  0  0  0  0  0  0  0  0  0
   61.1528   30.1446   51.9529 H   0  0  0  0  0  0  0  0  0  0  0  0
   60.1271   29.5004   50.6264 H   0  0  0  0  0  0  0  0  0  0  0  0
   61.8961   29.1883   50.6264 H   0  0  0  0  0  0  0  0  0  0  0  0
   59.4919   29.6345   48.8404 H   0  0  0  0  0  0  0  0  0  0  0  0
  1  2  1  0
  2  3  1  0
  3  4  1  0
  4  5  1  0
  3  6  1  0
  6  7  1  0
  7  8  1  0
  8  9  1  0
  9 10  2  0
 10 11  1  0
 11 12  2  0
 12 13  1  0
 13 14  2  0
 14 15  1  0
 15 16  2  0
 16 17  1  0
 16 18  1  0
 18 19  2  0
 19 20  1  0
 20 21  1  0
 21 22  1  0
 22 23  1  0
 23 24  1  0
 24 25  1  0
 24 26  1  0
 24 27  1  0
 20 28  2  0
 28 29  1  0
 29 30  1  0
 28 31  1  0
 31 32  2  0
 32  9  1  0
 15 10  1  0
 32 18  1  0
  1 33  1  0
  1 34  1  0
  1 35  1  0
  2 36  1  0
  2 37  1  0
  4 38  1  0
  4 39  1  0
  5 40  1  0
  5 41  1  0
  5 42  1  0
  6 43  1  0
  6 44  1  0
  7 45  1  0
  7 46  1  0
  8 47  1  0
 11 48  1  0
 12 49  1  0
 13 50  1  0
 14 51  1  0
 17 52  1  0
 17 53  1  0
 17 54  1  0
 19 55  1  0
 22 56  1  0
 22 57  1  0
 23 58  1  0
 23 59  1  0
 25 60  1  0
 25 61  1  0
 25 62  1  0
 26 63  1  0
 26 64  1  0
 26 65  1  0
 27 66  1  0
 27 67  1  0
 27 68  1  0
 30 69  1  0
 30 70  1  0
 30 71  1  0
 31 72  1  0
M  CHG  2  16   1  24   1
M  END
>  <UniqueID>  (1) 
1

>  <SMILES>  (1) 
CCN(CC)CCNc1c2ccccc2[n+](C)c2cc(OCC[N+](C)(C)C)c(OC)cc12

>  <Energy>  (1) 
110.27768748013847

>  <Genealogy>  (1) 
CCN(CC)CCNc1c2ccccc2[n+](C)c2cc(OCC[N+](C)(C)C)c(OC)cc12 (3D coordinates assigned)
CCN(CC)CCNc1c2ccccc2[n+](C)c2cc(OCC[N+](C)(C)C)c(OC)cc12 (optimized conformer: 110.27768748013847 kcal/mol)

>  <smiles>  (1) 
CCN(CC)CCNc1c2ccccc2[n+](C)c2cc(OCC[N+](C)(C)C)c(OC)cc12

>  <score_type>  (1) 
oracle

>  <origin>  (1) 
adg

>  <m_score__min__energy>  (1) 
-4.1200000000000001

>  <m_primary>  (1) 
energy

$$$$
1:0
     RDKit          3D

 59 62  0  0  0  0  0  0  0  0999 V2000
   59.4840   28.5910   48.3090 C   0  0  0  0  0  0  0  0  0  0  0  0
   59.1510   28.5600   46.8390 C   0  0  0  0  0  0  0  0  0  0  0  0
   58.5900   27.3920   46.2980 C   0  0  0  0  0  0  0  0  0  0  0  0
   58.2740   27.3090   44.9330 C   0  0  0  0  0  0  0  0  0  0  0  0
   57.7430   26.0190   44.3370 C   0  0  0  0  0  0  0  0  0  0  0  0
   57.6230   24.9150   45.3190 N   0  0  0  0  0  0  0  0  0  0  0  0
   58.9040   24.2410   45.6400 C   0  0  0  0  0  0  0  0  0  0  0  0
   58.9840   22.8370   45.0290 C   0  0  0  0  0  0  0  0  0  0  0  0
   57.8820   21.9080   45.6190 C   0  0  0  0  0  0  0  0  0  0  0  0
   57.6170   20.7020   44.7670 N   0  0  0  0  0  0  0  0  0  0  0  0
   56.4350   19.9300   45.2110 C   0  0  0  0  0  0  0  0  0  0  0  0
   57.3950   21.0900   43.3550 C   0  0  0  0  0  0  0  0  0  0  0  0
   56.5750   22.7260   45.8910 C   0  0  0  0  0  0  0  0  0  0  0  0
   56.4930   23.9990   45.0380 C   0  0  0  0  0  0  0  0  0  0  0  0
   58.4570   28.4380   44.1210 C   0  0  0  0  0  0  0  0  0  0  0  0
   59.0260   29.6000   44.6440 C   0  0  0  0  0  0  0  0  0  0  0  0
   59.4130   29.6590   45.9880 C   0  0  0  0  0  0  0  0  0  0  0  0
   60.0980   30.8730   46.4710 C   0  0  0  0  0  0  0  0  0  0  0  0
   61.3330   30.9280   47.1080 C   0  0  0  0  0  0  0  0  0  0  0  0
   61.6250   32.2060   47.4450 N   0  0  0  0  0  0  0  0  0  0  0  0
   62.8090   32.6580   48.1680 C   0  0  0  0  0  0  0  0  0  0  0  0
   60.5720   32.9550   47.0550 C   0  0  0  0  0  0  0  0  0  0  0  0
   60.3790   34.3270   47.2350 C   0  0  0  0  0  0  0  0  0  0  0  0
   59.1700   34.8870   46.7820 C   0  0  0  0  0  0  0  0  0  0  0  0
   58.1850   34.0740   46.1820 C   0  0  0  0  0  0  0  0  0  0  0  0
   58.4010   32.6940   46.0210 C   0  0  0  0  0  0  0  0  0  0  0  0
   59.6180   32.1690   46.4570 C   0  0  0  0  0  0  0  0  0  0  0  0
   58.5581   28.5048   48.8966 H   0  0  0  0  0  0  0  0  0  0  0  0
   60.1517   27.7511   48.5515 H   0  0  0  0  0  0  0  0  0  0  0  0
   59.9852   29.5397   48.5515 H   0  0  0  0  0  0  0  0  0  0  0  0
   58.3955   26.5300   46.9531 H   0  0  0  0  0  0  0  0  0  0  0  0
   56.7475   26.2162   43.9126 H   0  0  0  0  0  0  0  0  0  0  0  0
   58.4669   25.6946   43.5749 H   0  0  0  0  0  0  0  0  0  0  0  0
   59.7328   24.8475   45.2458 H   0  0  0  0  0  0  0  0  0  0  0  0
   58.9696   24.1396   46.7334 H   0  0  0  0  0  0  0  0  0  0  0  0
   58.8475   22.9103   43.9400 H   0  0  0  0  0  0  0  0  0  0  0  0
   59.9685   22.4072   45.2659 H   0  0  0  0  0  0  0  0  0  0  0  0
   58.2582   21.5179   46.5762 H   0  0  0  0  0  0  0  0  0  0  0  0
   58.4480   20.0640   44.8070 H   0  0  0  0  0  0  0  0  0  0  0  0
   56.4027   19.9089   46.3103 H   0  0  0  0  0  0  0  0  0  0  0  0
   55.5208   20.4056   44.8263 H   0  0  0  0  0  0  0  0  0  0  0  0
   56.5030   18.9017   44.8263 H   0  0  0  0  0  0  0  0  0  0  0  0
   56.8490   22.0442   43.3185 H   0  0  0  0  0  0  0  0  0  0  0  0
   58.3651   21.2030   42.8489 H   0  0  0  0  0  0  0  0  0  0  0  0
   56.8060   20.3109   42.8489 H   0  0  0  0  0  0  0  0  0  0  0  0
   55.7067   22.0908   45.6619 H   0  0  0  0  0  0  0  0  0  0  0  0
   56.5841   23.0307   46.9479 H   0  0  0  0  0  0  0  0  0  0  0  0
   56.5161   23.7187   43.9746 H   0  0  0  0  0  0  0  0  0  0  0  0
   55.5565   24.5204   45.2855 H   0  0  0  0  0  0  0  0  0  0  0  0
   58.1500   28.4073   43.0651 H   0  0  0  0  0  0  0  0  0  0  0  0
   59.1715   30.4763   43.9952 H   0  0  0  0  0  0  0  0  0  0  0  0
   61.9781   30.0599   47.3086 H   0  0  0  0  0  0  0  0  0  0  0  0
   62.6264   32.5883   49.2505 H   0  0  0  0  0  0  0  0  0  0  0  0
   63.6669   32.0242   47.8993 H   0  0  0  0  0  0  0  0  0  0  0  0
   63.0263   33.7023   47.8993 H   0  0  0  0  0  0  0  0  0  0  0  0
   61.1478   34.9498   47.7156 H   0  0  0  0  0  0  0  0  0  0  0  0
   58.9915   35.9664   46.8965 H   0  0  0  0  0  0  0  0  0  0  0  0
   57.2416   34.5230   45.8378 H   0  0  0  0  0  0  0  0  0  0  0  0
   57.6350   32.0489   45.5659 H   0  0  0  0  0  0  0  0  0  0  0  0
  1  2  1  0
  2  3  2  0
  3  4  1  0
  4  5  1  0
  5  6  1  0
  6  7  1  0
  7  8  1  0
  8  9  1  0
  9 10  1  0
 10 11  1  0
 10 12  1  0
  9 13  1  0
 13 14  1  0
  4 15  2  0
 15 16  1  0
 16 17  2  0
 17 18  1  0
 18 19  2  0
 19 20  1  0
 20 21  1  0
 20 22  1  0
 22 23  2  0
 23 24  1  0
 24 25  2  0
 25 26  1  0
 26 27  2  0
 17  2  1  0
 27 18  1  0
 14  6  1  0
 27 22  1  0
  1 28  1  0
  1 29  1  0
  1 30  1  0
  3 31  1  0
  5 32  1  0
  5 33  1  0
  7 34  1  0
  7 35  1  0
  8 36  1  0
  8 37  1  0
  9 38  1  0
 10 39  1  0
 11 40  1  0
 11 41  1  0
 11 42  1  0
 12 43  1  0
 12 44  1  0
 12 45  1  0
 13 46  1  0
 13 47  1  0
 14 48  1  0
 14 49  1  0
 15 50  1  0
 16 51  1  0
 19 52  1  0
 21 53  1  0
 21 54  1  0
 21 55  1  0
 23 56  1  0
 24 57  1  0
 25 58  1  0
 26 59  1  0
M  CHG  1  10   1
M  END
>  <UniqueID>  (2) 
2

>  <SMILES>  (2) 
Cc1cc(CN2CCC([NH+](C)C)CC2)ccc1-c1cn(C)c2ccccc12

>  <Energy>  (2) 
118.35212428429993

>  <Genealogy>  (2) 
Cc1cc(CN2CCC([NH+](C)C)CC2)ccc1-c1cn(C)c2ccccc12 (protonated)
Cc1cc(CN2CCC([NH+](C)C)CC2)ccc1-c1cn(C)c2ccccc12 (3D coordinates assigned)
Cc1cc(CN2CCC([NH+](C)C)CC2)ccc1-c1cn(C)c2ccccc12 (nonaromatic ring conformer: 118.35212428429993 kcal/mol)

>  <smiles>  (2) 
Cc1cc(CN2CCC(N(C)C)CC2)ccc1-c1cn(C)c2ccccc12

>  <score_type>  (2) 
oracle

>  <origin>  (2) 
adg

>  <m_score__min__energy>  (2) 
-7.3600000000000003

>  <m_primary>  (2) 
energy

$$$$
2:0
     RDKit          3D

 35 36  0  0  0  0  0  0  0  0999 V2000
   63.6220   33.1370   47.4540 C   0  0  0  0  0  0  0  0  0  0  0  0
   62.6150   33.8430   46.5540 C   0  0  0  0  0  0  0  0  0  0  0  0
   61.2680   33.7910   47.1380 N   0  0  0  0  0  0  0  0  0  0  0  0
   61.0250   34.2110   48.5250 C   0  0  0  0  0  0  0  0  0  0  0  0
   59.6320   33.7890   48.9810 C   0  0  0  0  0  0  0  0  0  0  0  0
   60.1950   33.1950   46.3840 C   0  0  0  0  0  0  0  0  0  0  0  0
   59.3660   34.0420   45.6430 C   0  0  0  0  0  0  0  0  0  0  0  0
   58.3190   33.5200   44.9010 C   0  0  0  0  0  0  0  0  0  0  0  0
   58.0930   32.1450   44.8940 C   0  0  0  0  0  0  0  0  0  0  0  0
   57.0340   31.6130   44.1410 C   0  0  0  0  0  0  0  0  0  0  0  0
   56.8010   30.2390   44.1290 C   0  0  0  0  0  0  0  0  0  0  0  0
   57.6220   29.3860   44.8640 C   0  0  0  0  0  0  0  0  0  0  0  0
   58.6800   29.9000   45.6170 C   0  0  0  0  0  0  0  0  0  0  0  0
   58.9410   31.2930   45.6490 C   0  0  0  0  0  0  0  0  0  0  0  0
   59.9830   31.8310   46.3860 N   0  0  0  0  0  0  0  0  0  0  0  0
   60.8650   30.9450   47.1730 C   0  0  0  0  0  0  0  0  0  0  0  0
   63.3628   33.3187   48.5075 H   0  0  0  0  0  0  0  0  0  0  0  0
   63.5994   32.0559   47.2521 H   0  0  0  0  0  0  0  0  0  0  0  0
   64.6306   33.5268   47.2521 H   0  0  0  0  0  0  0  0  0  0  0  0
   62.9150   34.8943   46.4321 H   0  0  0  0  0  0  0  0  0  0  0  0
   62.5965   33.3349   45.5786 H   0  0  0  0  0  0  0  0  0  0  0  0
   61.7758   33.7449   49.1800 H   0  0  0  0  0  0  0  0  0  0  0  0
   61.0977   35.3072   48.5800 H   0  0  0  0  0  0  0  0  0  0  0  0
   59.5939   33.7774   50.0803 H   0  0  0  0  0  0  0  0  0  0  0  0
   58.8884   34.5022   48.5958 H   0  0  0  0  0  0  0  0  0  0  0  0
   59.4092   32.7830   48.5958 H   0  0  0  0  0  0  0  0  0  0  0  0
   59.5456   35.1272   45.6490 H   0  0  0  0  0  0  0  0  0  0  0  0
   57.6680   34.1890   44.3191 H   0  0  0  0  0  0  0  0  0  0  0  0
   56.3855   32.2836   43.5581 H   0  0  0  0  0  0  0  0  0  0  0  0
   55.9686   29.8277   43.5391 H   0  0  0  0  0  0  0  0  0  0  0  0
   57.4358   28.3020   44.8510 H   0  0  0  0  0  0  0  0  0  0  0  0
   59.3193   29.2148   46.1929 H   0  0  0  0  0  0  0  0  0  0  0  0
   60.6941   31.1167   48.2460 H   0  0  0  0  0  0  0  0  0  0  0  0
   60.6423   29.8957   46.9295 H   0  0  0  0  0  0  0  0  0  0  0  0
   61.9153   31.1630   46.9295 H   0  0  0  0  0  0  0  0  0  0  0  0
  1  2  1  0
  2  3  1  0
  3  4  1  0
  4  5  1  0
  3  6  1  0
  6  7  2  0
  7  8  1  0
  8  9  2  0
  9 10  1  0
 10 11  2  0
 11 12  1  0
 12 13  2  0
 13 14  1  0
 14 15  2  0
 15 16  1  0
 15  6  1  0
 14  9  1  0
  1 17  1  0
  1 18  1  0
  1 19  1  0
  2 20  1  0
  2 21  1  0
  4 22  1  0
  4 23  1  0
  5 24  1  0
  5 25  1  0
  5 26  1  0
  7 27  1  0
  8 28  1  0
 10 29  1  0
 11 30  1  0
 12 31  1  0
 13 32  1  0
 16 33  1  0
 16 34  1  0
 16 35  1  0
M  CHG  1  15   1
M  END
>  <UniqueID>  (3) 
3

>  <SMILES>  (3) 
CCN(CC)c1ccc2ccccc2[n+]1C

>  <Energy>  (3) 
42.97454420484077

>  <Genealogy>  (3) 
CCN(CC)c1ccc2ccccc2[n+]1C (3D coordinates assigned)
CCN(CC)c1ccc2ccccc2[n+]1C (optimized conformer: 42.97454420484077 kcal/mol)

>  <smiles>  (3) 
CCN(CC)c1ccc2ccccc2[n+]1C

>  <score_type>  (3) 
oracle

>  <origin>  (3) 
adg

>  <m_score__min__energy>  (3) 
-4.2699999999999996

>  <m_primary>  (3) 
energy

$$$$
3:0
     RDKit          3D

 44 46  0  0  0  0  0  0  0  0999 V2000
   59.5780   34.7560   45.5880 C   0  0  0  0  0  0  0  0  0  0  0  0
   58.8080   33.5320   45.1900 C   0  0  0  0  0  0  0  0  0  0  0  0
   58.4620   32.5720   46.1470 C   0  0  0  0  0  0  0  0  0  0  0  0
   57.7690   31.4210   45.7710 C   0  0  0  0  0  0  0  0  0  0  0  0
   57.4140   31.2020   44.4310 C   0  0  0  0  0  0  0  0  0  0  0  0
   56.5200   29.7290   44.0170 S   0  0  0  0  0  0  0  0  0  0  0  0
   56.1020   29.8040   42.5760 O   0  0  0  0  0  0  0  0  0  0  0  0
   55.2940   29.5850   44.8760 O   0  0  0  0  0  0  0  0  0  0  0  0
   57.5110   28.3210   44.2310 N   0  0  0  0  0  0  0  0  0  0  0  0
   58.3030   28.0220   45.3910 C   0  0  0  0  0  0  0  0  0  0  0  0
   59.4020   28.8240   45.7530 C   0  0  0  0  0  0  0  0  0  0  0  0
   60.1300   28.5460   46.9110 C   0  0  0  0  0  0  0  0  0  0  0  0
   59.7710   27.4730   47.7260 C   0  0  0  0  0  0  0  0  0  0  0  0
   60.7650   27.1040   49.3150 Br  0  0  0  0  0  0  0  0  0  0  0  0
   58.6860   26.6650   47.3780 C   0  0  0  0  0  0  0  0  0  0  0  0
   57.9570   26.9160   46.2040 C   0  0  0  0  0  0  0  0  0  0  0  0
   56.8220   26.0290   45.8620 C   0  0  0  0  0  0  0  0  0  0  0  0
   55.6590   26.3700   46.2110 O   0  0  0  0  0  0  0  0  0  0  0  0
   57.0160   24.7470   45.1410 C   0  0  0  0  0  0  0  0  0  0  0  0
   56.0590   24.3090   44.2080 C   0  0  0  0  0  0  0  0  0  0  0  0
   56.2440   23.1050   43.5200 C   0  0  0  0  0  0  0  0  0  0  0  0
   57.3770   22.3250   43.7620 C   0  0  0  0  0  0  0  0  0  0  0  0
   58.3250   22.7440   44.6990 C   0  0  0  0  0  0  0  0  0  0  0  0
   58.1440   23.9440   45.3920 C   0  0  0  0  0  0  0  0  0  0  0  0
   57.8060   32.1440   43.4480 C   0  0  0  0  0  0  0  0  0  0  0  0
   57.4800   31.9550   41.9900 C   0  0  0  0  0  0  0  0  0  0  0  0
   58.4910   33.3070   43.8440 C   0  0  0  0  0  0  0  0  0  0  0  0
   59.6197   34.8223   46.6852 H   0  0  0  0  0  0  0  0  0  0  0  0
   60.5997   34.6935   45.1853 H   0  0  0  0  0  0  0  0  0  0  0  0
   59.0793   35.6500   45.1853 H   0  0  0  0  0  0  0  0  0  0  0  0
   58.7376   32.7254   47.2008 H   0  0  0  0  0  0  0  0  0  0  0  0
   57.4977   30.6764   46.5338 H   0  0  0  0  0  0  0  0  0  0  0  0
   59.6890   29.6757   45.1188 H   0  0  0  0  0  0  0  0  0  0  0  0
   60.9903   29.1758   47.1817 H   0  0  0  0  0  0  0  0  0  0  0  0
   58.4002   25.8254   48.0286 H   0  0  0  0  0  0  0  0  0  0  0  0
   55.1612   24.9157   44.0185 H   0  0  0  0  0  0  0  0  0  0  0  0
   55.4951   22.7717   42.7865 H   0  0  0  0  0  0  0  0  0  0  0  0
   57.5229   21.3816   43.2154 H   0  0  0  0  0  0  0  0  0  0  0  0
   59.2157   22.1280   44.8916 H   0  0  0  0  0  0  0  0  0  0  0  0
   58.8873   24.2626   46.1377 H   0  0  0  0  0  0  0  0  0  0  0  0
   56.5320   31.4054   41.8945 H   0  0  0  0  0  0  0  0  0  0  0  0
   57.3845   32.9378   41.5052 H   0  0  0  0  0  0  0  0  0  0  0  0
   58.2854   31.3838   41.5052 H   0  0  0  0  0  0  0  0  0  0  0  0
   58.7817   34.0499   43.0866 H   0  0  0  0  0  0  0  0  0  0  0  0
  1  2  1  0
  2  3  2  0
  3  4  1  0
  4  5  2  0
  5  6  1  0
  6  7  2  0
  6  8  2  0
  6  9  1  0
  9 10  1  0
 10 11  2  0
 11 12  1  0
 12 13  2  0
 13 14  1  0
 13 15  1  0
 15 16  2  0
 16 17  1  0
 17 18  2  0
 17 19  1  0
 19 20  2  0
 20 21  1  0
 21 22  2  0
 22 23  1  0
 23 24  2  0
  5 25  1  0
 25 26  1  0
 25 27  2  0
 27  2  1  0
 16 10  1  0
 24 19  1  0
  1 28  1  0
  1 29  1  0
  1 30  1  0
  3 31  1  0
  4 32  1  0
 11 33  1  0
 12 34  1  0
 15 35  1  0
 20 36  1  0
 21 37  1  0
 22 38  1  0
 23 39  1  0
 24 40  1  0
 26 41  1  0
 26 42  1  0
 26 43  1  0
 27 44  1  0
M  CHG  1   9  -1
M  END
>  <UniqueID>  (4) 
4

>  <SMILES>  (4) 
Cc1ccc(S(=O)(=O)[N-]c2ccc(Br)cc2C(=O)c2ccccc2)c(C)c1

>  <Energy>  (4) 
56.982941418987124

>  <Genealogy>  (4) 
Cc1ccc(S(=O)(=O)[N-]c2ccc(Br)cc2C(=O)c2ccccc2)c(C)c1 (protonated)
Cc1ccc(S(=O)(=O)[N-]c2ccc(Br)cc2C(=O)c2ccccc2)c(C)c1 (3D coordinates assigned)
Cc1ccc(S(=O)(=O)[N-]c2ccc(Br)cc2C(=O)c2ccccc2)c(C)c1 (optimized conformer: 56.982941418987124 kcal/mol)

>  <smiles>  (4) 
Cc1ccc(S(=O)(=O)Nc2ccc(Br)cc2C(=O)c2ccccc2)c(C)c1

>  <score_type>  (4) 
oracle

>  <origin>  (4) 
adg

>  <m_score__min__energy>  (4) 
-11.609999999999999

>  <m_primary>  (4) 
energy

$$$$
4:0
     RDKit          3D

 35 37  0  0  0  0  0  0  0  0999 V2000
   58.0520   32.4430   42.2790 C   0  0  0  0  0  0  0  0  0  0  0  0
   58.1110   32.4520   43.7530 N   0  0  0  0  0  0  0  0  0  0  0  0
   57.3450   31.5720   44.4910 C   0  0  0  0  0  0  0  0  0  0  0  0
   56.4520   30.5330   43.8590 C   0  0  0  0  0  0  0  0  0  0  0  0
   56.0190   29.5720   44.8750 N   0  0  0  0  0  0  0  0  0  0  0  0
   57.1790   28.2840   45.0010 S   0  0  0  0  0  0  0  0  0  0  0  0
   57.5880   27.8450   43.6230 O   0  0  0  0  0  0  0  0  0  0  0  0
   56.5650   27.1170   45.7260 O   0  0  0  0  0  0  0  0  0  0  0  0
   58.5990   28.8390   45.8680 C   0  0  0  0  0  0  0  0  0  0  0  0
   59.7620   29.3180   45.2860 C   0  0  0  0  0  0  0  0  0  0  0  0
   60.7230   29.7020   46.2280 C   0  0  0  0  0  0  0  0  0  0  0  0
   60.3150   29.5250   47.5450 C   0  0  0  0  0  0  0  0  0  0  0  0
   58.7570   28.8910   47.5390 S   0  0  0  0  0  0  0  0  0  0  0  0
   57.4100   31.5850   45.8480 N   0  0  0  0  0  0  0  0  0  0  0  0
   58.1880   32.4650   46.5190 C   0  0  0  0  0  0  0  0  0  0  0  0
   58.2200   32.4440   47.9180 C   0  0  0  0  0  0  0  0  0  0  0  0
   59.0170   33.3590   48.6130 C   0  0  0  0  0  0  0  0  0  0  0  0
   59.7820   34.2950   47.9110 C   0  0  0  0  0  0  0  0  0  0  0  0
   59.7540   34.3210   46.5130 C   0  0  0  0  0  0  0  0  0  0  0  0
   58.9560   33.4010   45.8060 C   0  0  0  0  0  0  0  0  0  0  0  0
   58.8950   33.3800   44.4020 C   0  0  0  0  0  0  0  0  0  0  0  0
   59.5660   34.2230   43.7420 O   0  0  0  0  0  0  0  0  0  0  0  0
   57.0129   32.2845   41.9546 H   0  0  0  0  0  0  0  0  0  0  0  0
   58.4141   33.4068   41.8917 H   0  0  0  0  0  0  0  0  0  0  0  0
   58.6849   31.6310   41.8917 H   0  0  0  0  0  0  0  0  0  0  0  0
   55.5707   31.0252   43.4218 H   0  0  0  0  0  0  0  0  0  0  0  0
   57.0084   30.0046   43.0708 H   0  0  0  0  0  0  0  0  0  0  0  0
   56.0010   30.0540   45.8020 H   0  0  0  0  0  0  0  0  0  0  0  0
   59.9136   29.3888   44.1988 H   0  0  0  0  0  0  0  0  0  0  0  0
   61.7083   30.1058   45.9523 H   0  0  0  0  0  0  0  0  0  0  0  0
   60.9103   29.7598   48.4397 H   0  0  0  0  0  0  0  0  0  0  0  0
   57.6182   31.7077   48.4709 H   0  0  0  0  0  0  0  0  0  0  0  0
   59.0420   33.3422   49.7126 H   0  0  0  0  0  0  0  0  0  0  0  0
   60.4082   35.0136   48.4601 H   0  0  0  0  0  0  0  0  0  0  0  0
   60.3560   35.0609   45.9651 H   0  0  0  0  0  0  0  0  0  0  0  0
  1  2  1  0
  2  3  1  0
  3  4  1  0
  4  5  1  0
  5  6  1  0
  6  7  2  0
  6  8  2  0
  6  9  1  0
  9 10  2  0
 10 11  1  0
 11 12  2  0
 12 13  1  0
  3 14  2  0
 14 15  1  0
 15 16  2  0
 16 17  1  0
 17 18  2  0
 18 19  1  0
 19 20  2  0
 20 21  1  0
 21 22  2  0
 21  2  1  0
 13  9  1  0
 20 15  1  0
  1 23  1  0
  1 24  1  0
  1 25  1  0
  4 26  1  0
  4 27  1  0
  5 28  1  0
 10 29  1  0
 11 30  1  0
 12 31  1  0
 16 32  1  0
 17 33  1  0
 18 34  1  0
 19 35  1  0
M  END
>  <UniqueID>  (5) 
5

>  <SMILES>  (5) 
Cn1c(CNS(=O)(=O)c2cccs2)nc2ccccc2c1=O

>  <Energy>  (5) 
69.75845333122035

>  <Genealogy>  (5) 
Cn1c(CNS(=O)(=O)c2cccs2)nc2ccccc2c1=O (3D coordinates assigned)
Cn1c(CNS(=O)(=O)c2cccs2)nc2ccccc2c1=O (optimized conformer: 69.75845333122035 kcal/mol)

>  <smiles>  (5) 
Cn1c(CNS(=O)(=O)c2cccs2)nc2ccccc2c1=O

>  <score_type>  (5) 
oracle

>  <origin>  (5) 
adg

>  <m_score__min__energy>  (5) 
-7.5499999999999998

>  <m_primary>  (5) 
energy

$$$$
5:0
     RDKit          3D

 57 59  0  0  0  0  0  0  0  0999 V2000
   64.1370   32.3200   48.8980 C   0  0  0  0  0  0  0  0  0  0  0  0
   63.3070   32.1250   47.6280 C   0  0  0  0  0  0  0  0  0  0  0  0
   62.0080   32.8280   47.7090 N   0  0  0  0  0  0  0  0  0  0  0  0
   61.8190   33.7170   46.5440 C   0  0  0  0  0  0  0  0  0  0  0  0
   61.9170   33.6060   48.9660 C   0  0  0  0  0  0  0  0  0  0  0  0
   60.7240   34.5670   48.9320 C   0  0  0  0  0  0  0  0  0  0  0  0
   59.5710   33.9370   49.4620 O   0  0  0  0  0  0  0  0  0  0  0  0
   59.8100   33.4120   50.7540 C   0  0  0  0  0  0  0  0  0  0  0  0
   58.5880   32.6420   51.2620 C   0  0  0  0  0  0  0  0  0  0  0  0
   58.0880   31.7970   50.2410 O   0  0  0  0  0  0  0  0  0  0  0  0
   58.5140   30.4590   50.4230 C   0  0  0  0  0  0  0  0  0  0  0  0
   59.7110   30.1600   49.5120 C   0  0  0  0  0  0  0  0  0  0  0  0
   59.7720   31.1040   48.3950 N   0  0  0  0  0  0  0  0  0  0  0  0
   59.1510   30.8450   47.1250 C   0  0  0  0  0  0  0  0  0  0  0  0
   58.5420   31.8770   46.3810 C   0  0  0  0  0  0  0  0  0  0  0  0
   58.4980   33.1950   46.8800 C   0  0  0  0  0  0  0  0  0  0  0  0
   57.9320   34.2210   46.1280 C   0  0  0  0  0  0  0  0  0  0  0  0
   57.4040   33.9560   44.8690 C   0  0  0  0  0  0  0  0  0  0  0  0
   57.4170   32.6580   44.3580 C   0  0  0  0  0  0  0  0  0  0  0  0
   57.9550   31.5830   45.1070 C   0  0  0  0  0  0  0  0  0  0  0  0
   57.9370   30.2790   44.6280 N   0  0  0  0  0  0  0  0  0  0  0  0
   57.2170   29.9350   43.3850 C   0  0  0  0  0  0  0  0  0  0  0  0
   58.6140   29.3050   45.3260 C   0  0  0  0  0  0  0  0  0  0  0  0
   58.8400   27.9760   44.9050 C   0  0  0  0  0  0  0  0  0  0  0  0
   59.5740   27.2260   45.8170 C   0  0  0  0  0  0  0  0  0  0  0  0
   59.9660   28.2010   47.1310 S   0  0  0  0  0  0  0  0  0  0  0  0
   59.1910   29.5780   46.5580 C   0  0  0  0  0  0  0  0  0  0  0  0
   63.4977   32.1698   49.7805 H   0  0  0  0  0  0  0  0  0  0  0  0
   64.9605   31.5909   48.9134 H   0  0  0  0  0  0  0  0  0  0  0  0
   64.5497   33.3395   48.9134 H   0  0  0  0  0  0  0  0  0  0  0  0
   63.8717   32.5176   46.7695 H   0  0  0  0  0  0  0  0  0  0  0  0
   63.1077   31.0496   47.5108 H   0  0  0  0  0  0  0  0  0  0  0  0
   61.6021   34.7374   46.8928 H   0  0  0  0  0  0  0  0  0  0  0  0
   62.7356   33.7245   45.9359 H   0  0  0  0  0  0  0  0  0  0  0  0
   60.9786   33.3509   45.9359 H   0  0  0  0  0  0  0  0  0  0  0  0
   61.7958   32.9119   49.8107 H   0  0  0  0  0  0  0  0  0  0  0  0
   62.8386   34.1955   49.0807 H   0  0  0  0  0  0  0  0  0  0  0  0
   60.9588   35.4585   49.5320 H   0  0  0  0  0  0  0  0  0  0  0  0
   60.5267   34.8564   47.8892 H   0  0  0  0  0  0  0  0  0  0  0  0
   60.6735   32.7318   50.7129 H   0  0  0  0  0  0  0  0  0  0  0  0
   60.0124   34.2462   51.4419 H   0  0  0  0  0  0  0  0  0  0  0  0
   58.8772   32.0319   52.1304 H   0  0  0  0  0  0  0  0  0  0  0  0
   57.8055   33.3584   51.5528 H   0  0  0  0  0  0  0  0  0  0  0  0
   58.8089   30.3103   51.4722 H   0  0  0  0  0  0  0  0  0  0  0  0
   57.6876   29.7795   50.1674 H   0  0  0  0  0  0  0  0  0  0  0  0
   60.6378   30.2381   50.0993 H   0  0  0  0  0  0  0  0  0  0  0  0
   59.5954   29.1445   49.1053 H   0  0  0  0  0  0  0  0  0  0  0  0
   60.1630   32.0570   48.5760 H   0  0  0  0  0  0  0  0  0  0  0  0
   58.9152   33.4149   47.8738 H   0  0  0  0  0  0  0  0  0  0  0  0
   57.9024   35.2441   46.5309 H   0  0  0  0  0  0  0  0  0  0  0  0
   56.9738   34.7743   44.2729 H   0  0  0  0  0  0  0  0  0  0  0  0
   57.0027   32.4663   43.3572 H   0  0  0  0  0  0  0  0  0  0  0  0
   56.2508   29.4734   43.6367 H   0  0  0  0  0  0  0  0  0  0  0  0
   57.0448   30.8481   42.7963 H   0  0  0  0  0  0  0  0  0  0  0  0
   57.8192   29.2273   42.7963 H   0  0  0  0  0  0  0  0  0  0  0  0
   58.4716   27.5739   43.9497 H   0  0  0  0  0  0  0  0  0  0  0  0
   59.8528   26.1685   45.6989 H   0  0  0  0  0  0  0  0  0  0  0  0
  1  2  1  0
  2  3  1  0
  3  4  1  0
  3  5  1  0
  5  6  1  0
  6  7  1  0
  7  8  1  0
  8  9  1  0
  9 10  1  0
 10 11  1  0
 11 12  1  0
 12 13  1  0
 13 14  1  0
 14 15  2  0
 15 16  1  0
 16 17  2  0
 17 18  1  0
 18 19  2  0
 19 20  1  0
 20 21  2  0
 21 22  1  0
 21 23  1  0
 23 24  1  0
 24 25  2  0
 25 26  1  0
 26 27  1  0
 27 14  1  0
 20 15  1  0
 27 23  2  0
  1 28  1  0
  1 29  1  0
  1 30  1  0
  2 31  1  0
  2 32  1  0
  4 33  1  0
  4 34  1  0
  4 35  1  0
  5 36  1  0
  5 37  1  0
  6 38  1  0
  6 39  1  0
  8 40  1  0
  8 41  1  0
  9 42  1  0
  9 43  1  0
 11 44  1  0
 11 45  1  0
 12 46  1  0
 12 47  1  0
 13 48  1  0
 16 49  1  0
 17 50  1  0
 18 51  1  0
 19 52  1  0
 22 53  1  0
 22 54  1  0
 22 55  1  0
 24 56  1  0
 25 57  1  0
M  CHG  1  21   1
M  END
>  <UniqueID>  (6) 
6

>  <SMILES>  (6) 
CCN(C)CCOCCOCCNc1c2ccccc2[n+](C)c2ccsc12

>  <Energy>  (6) 
107.69480115356863

>  <Genealogy>  (6) 
CCN(C)CCOCCOCCNc1c2ccccc2[n+](C)c2ccsc12 (3D coordinates assigned)
CCN(C)CCOCCOCCNc1c2ccccc2[n+](C)c2ccsc12 (optimized conformer: 107.69480115356863 kcal/mol)

>  <smiles>  (6) 
CCN(C)CCOCCOCCNc1c2ccccc2[n+](C)c2ccsc12

>  <score_type>  (6) 
oracle

>  <origin>  (6) 
adg

>  <m_score__min__energy>  (6) 
-6.4299999999999997

>  <m_primary>  (6) 
energy

$$$$
6:0
     RDKit          3D

 71 73  0  0  0  0  0  0  0  0999 V2000
   55.8570   24.0270   44.6520 C   0  0  0  0  0  0  0  0  0  0  0  0
   54.9270   24.8130   45.5820 C   0  0  0  0  0  0  0  0  0  0  0  0
   55.5130   26.0980   46.0040 N   0  0  0  0  0  0  0  0  0  0  0  0
   56.9850   26.0770   46.0340 C   0  0  0  0  0  0  0  0  0  0  0  0
   57.5560   27.4440   46.4500 C   0  0  0  0  0  0  0  0  0  0  0  0
   58.6430   27.3590   47.5380 C   0  0  0  0  0  0  0  0  0  0  0  0
   59.2230   28.7330   47.9160 C   0  0  0  0  0  0  0  0  0  0  0  0
   59.4680   28.8260   49.3650 N   0  0  0  0  0  0  0  0  0  0  0  0
   60.3430   29.9610   49.7160 C   0  0  0  0  0  0  0  0  0  0  0  0
   59.6480   30.9760   50.6380 C   0  0  0  0  0  0  0  0  0  0  0  0
   60.4610   32.2670   50.7670 C   0  0  0  0  0  0  0  0  0  0  0  0
   60.4960   32.9540   49.4760 N   0  0  0  0  0  0  0  0  0  0  0  0
   59.4060   33.3340   48.7710 C   0  0  0  0  0  0  0  0  0  0  0  0
   59.7710   33.7530   47.4990 C   0  0  0  0  0  0  0  0  0  0  0  0
   58.8260   34.1280   46.3820 C   0  0  0  0  0  0  0  0  0  0  0  0
   58.1780   32.9670   45.7280 N   0  0  0  0  0  0  0  0  0  0  0  0
   58.2300   33.0220   44.2570 C   0  0  0  0  0  0  0  0  0  0  0  0
   57.3810   31.8890   43.6430 C   0  0  0  0  0  0  0  0  0  0  0  0
   56.8120   31.0080   44.6880 N   0  0  0  0  0  0  0  0  0  0  0  0
   56.0710   29.8760   44.0890 C   0  0  0  0  0  0  0  0  0  0  0  0
   56.5160   29.6310   42.6480 C   0  0  0  0  0  0  0  0  0  0  0  0
   57.8920   30.5030   45.5610 C   0  0  0  0  0  0  0  0  0  0  0  0
   58.6680   31.6650   46.2190 C   0  0  0  0  0  0  0  0  0  0  0  0
   61.1470   33.6260   47.4420 C   0  0  0  0  0  0  0  0  0  0  0  0
   62.0510   33.8740   46.4080 C   0  0  0  0  0  0  0  0  0  0  0  0
   63.4090   33.5870   46.6360 C   0  0  0  0  0  0  0  0  0  0  0  0
   63.8300   33.0590   47.8760 C   0  0  0  0  0  0  0  0  0  0  0  0
   62.8980   32.8180   48.9010 C   0  0  0  0  0  0  0  0  0  0  0  0
   61.5550   33.1250   48.6550 C   0  0  0  0  0  0  0  0  0  0  0  0
   56.5603   23.4326   45.2536 H   0  0  0  0  0  0  0  0  0  0  0  0
   55.2594   23.3561   44.0173 H   0  0  0  0  0  0  0  0  0  0  0  0
   56.4189   24.7280   44.0173 H   0  0  0  0  0  0  0  0  0  0  0  0
   53.9831   25.0114   45.0531 H   0  0  0  0  0  0  0  0  0  0  0  0
   54.7621   24.2060   46.4844 H   0  0  0  0  0  0  0  0  0  0  0  0
   55.1540   26.3580   46.9530 H   0  0  0  0  0  0  0  0  0  0  0  0
   57.3178   25.3155   46.7547 H   0  0  0  0  0  0  0  0  0  0  0  0
   57.3493   25.8420   45.0230 H   0  0  0  0  0  0  0  0  0  0  0  0
   57.9921   27.9228   45.5608 H   0  0  0  0  0  0  0  0  0  0  0  0
   56.7228   28.0234   46.8744 H   0  0  0  0  0  0  0  0  0  0  0  0
   58.2035   26.9043   48.4380 H   0  0  0  0  0  0  0  0  0  0  0  0
   59.4674   26.7536   47.1333 H   0  0  0  0  0  0  0  0  0  0  0  0
   60.1727   28.8813   47.3811 H   0  0  0  0  0  0  0  0  0  0  0  0
   58.4950   29.5082   47.6349 H   0  0  0  0  0  0  0  0  0  0  0  0
   58.5560   28.9660   49.8600 H   0  0  0  0  0  0  0  0  0  0  0  0
   59.8940   27.9330   49.7100 H   0  0  0  0  0  0  0  0  0  0  0  0
   61.2360   29.5730   50.2278 H   0  0  0  0  0  0  0  0  0  0  0  0
   60.6060   30.4816   48.7834 H   0  0  0  0  0  0  0  0  0  0  0  0
   58.6585   31.2170   50.2224 H   0  0  0  0  0  0  0  0  0  0  0  0
   59.5546   30.5262   51.6375 H   0  0  0  0  0  0  0  0  0  0  0  0
   59.9932   32.9211   51.5176 H   0  0  0  0  0  0  0  0  0  0  0  0
   61.4870   32.0237   51.0801 H   0  0  0  0  0  0  0  0  0  0  0  0
   58.3744   33.3138   49.1524 H   0  0  0  0  0  0  0  0  0  0  0  0
   58.0393   34.7754   46.7967 H   0  0  0  0  0  0  0  0  0  0  0  0
   59.4270   34.6336   45.6118 H   0  0  0  0  0  0  0  0  0  0  0  0
   57.8388   33.9923   43.9171 H   0  0  0  0  0  0  0  0  0  0  0  0
   59.2741   32.8994   43.9333 H   0  0  0  0  0  0  0  0  0  0  0  0
   56.5583   32.3331   43.0634 H   0  0  0  0  0  0  0  0  0  0  0  0
   58.0324   31.2815   42.9975 H   0  0  0  0  0  0  0  0  0  0  0  0
   56.2586   28.9690   44.6825 H   0  0  0  0  0  0  0  0  0  0  0  0
   54.9986   30.1209   44.0876 H   0  0  0  0  0  0  0  0  0  0  0  0
   57.4796   29.1005   42.6470 H   0  0  0  0  0  0  0  0  0  0  0  0
   55.7612   29.0213   42.1298 H   0  0  0  0  0  0  0  0  0  0  0  0
   56.6276   30.5949   42.1298 H   0  0  0  0  0  0  0  0  0  0  0  0
   57.4519   29.8740   46.3488 H   0  0  0  0  0  0  0  0  0  0  0  0
   58.5933   29.9203   44.9457 H   0  0  0  0  0  0  0  0  0  0  0  0
   58.5329   31.6169   47.3096 H   0  0  0  0  0  0  0  0  0  0  0  0
   59.7328   31.5688   45.9603 H   0  0  0  0  0  0  0  0  0  0  0  0
   61.7119   34.2815   45.4442 H   0  0  0  0  0  0  0  0  0  0  0  0
   64.1478   33.7751   45.8431 H   0  0  0  0  0  0  0  0  0  0  0  0
   64.8941   32.8347   48.0413 H   0  0  0  0  0  0  0  0  0  0  0  0
   63.2153   32.4004   49.8679 H   0  0  0  0  0  0  0  0  0  0  0  0
  1  2  1  0
  2  3  1  0
  3  4  1  0
  4  5  1  0
  5  6  1  0
  6  7  1  0
  7  8  1  0
  8  9  1  0
  9 10  1  0
 10 11  1  0
 11 12  1  0
 12 13  1  0
 13 14  2  0
 14 15  1  0
 15 16  1  0
 16 17  1  0
 17 18  1  0
 18 19  1  0
 19 20  1  0
 20 21  1  0
 19 22  1  0
 22 23  1  0
 14 24  1  0
 24 25  2  0
 25 26  1  0
 26 27  2  0
 27 28  1  0
 28 29  2  0
 29 12  1  0
 23 16  1  0
 29 24  1  0
  1 30  1  0
  1 31  1  0
  1 32  1  0
  2 33  1  0
  2 34  1  0
  3 35  1  0
  4 36  1  0
  4 37  1  0
  5 38  1  0
  5 39  1  0
  6 40  1  0
  6 41  1  0
  7 42  1  0
  7 43  1  0
  8 44  1  0
  8 45  1  0
  9 46  1  0
  9 47  1  0
 10 48  1  0
 10 49  1  0
 11 50  1  0
 11 51  1  0
 13 52  1  0
 15 53  1  0
 15 54  1  0
 17 55  1  0
 17 56  1  0
 18 57  1  0
 18 58  1  0
 20 59  1  0
 20 60  1  0
 21 61  1  0
 21 62  1  0
 21 63  1  0
 22 64  1  0
 22 65  1  0
 23 66  1  0
 23 67  1  0
 25 68  1  0
 26 69  1  0
 27 70  1  0
 28 71  1  0
M  CHG  1   8   1
M  END
>  <UniqueID>  (7) 
7

>  <SMILES>  (7) 
CCNCCCC[NH2+]CCCn1cc(CN2CCN(CC)CC2)c2ccccc21

>  <Energy>  (7) 
102.05524326508707

>  <Genealogy>  (7) 
CCNCCCC[NH2+]CCCn1cc(CN2CCN(CC)CC2)c2ccccc21 (protonated)
CCNCCCC[NH2+]CCCn1cc(CN2CCN(CC)CC2)c2ccccc21 (3D coordinates assigned)
CCNCCCC[NH2+]CCCn1cc(CN2CCN(CC)CC2)c2ccccc21 (nonaromatic ring conformer: 102.05524326508707 kcal/mol)

>  <smiles>  (7) 
CCNCCCCNCCCn1cc(CN2CCN(CC)CC2)c2ccccc21

>  <score_type>  (7) 
oracle

>  <origin>  (7) 
adg

>  <m_score__min__energy>  (7) 
-7.2300000000000004

>  <m_primary>  (7) 
energy

$$$$
7:0
     RDKit          3D

 51 52  0  0  0  0  0  0  0  0999 V2000
   59.7298   35.5766   45.3979 H   0  0  0  0  0  0  0  0  0  0  0  0
   59.6040   34.7400   46.1010 C   0  0  0  0  0  0  0  0  0  0  0  0
   58.4110   34.1380   46.1560 C   0  0  0  0  0  0  0  0  0  0  0  0
   57.6652   34.3424   45.3737 H   0  0  0  0  0  0  0  0  0  0  0  0
   58.0730   33.1870   47.2690 C   0  0  0  0  0  0  0  0  0  0  0  0
   57.0845   33.4469   47.6756 H   0  0  0  0  0  0  0  0  0  0  0  0
   58.8461   33.2715   48.0470 H   0  0  0  0  0  0  0  0  0  0  0  0
   58.0440   31.7860   46.7850 N   0  0  0  0  0  0  0  0  0  0  0  0
   58.8020   31.6560   45.5160 C   0  0  0  0  0  0  0  0  0  0  0  0
   58.3295   32.2904   44.7516 H   0  0  0  0  0  0  0  0  0  0  0  0
   59.8396   31.9705   45.7019 H   0  0  0  0  0  0  0  0  0  0  0  0
   58.8230   30.2250   45.0220 C   0  0  0  0  0  0  0  0  0  0  0  0
   60.0040   29.4760   45.1750 C   0  0  0  0  0  0  0  0  0  0  0  0
   60.8862   29.9406   45.6396 H   0  0  0  0  0  0  0  0  0  0  0  0
   60.0690   28.1500   44.7440 C   0  0  0  0  0  0  0  0  0  0  0  0
   60.9976   27.5749   44.8742 H   0  0  0  0  0  0  0  0  0  0  0  0
   58.9590   27.5540   44.1490 C   0  0  0  0  0  0  0  0  0  0  0  0
   59.0145   26.5103   43.8061 H   0  0  0  0  0  0  0  0  0  0  0  0
   57.7770   28.2780   43.9870 C   0  0  0  0  0  0  0  0  0  0  0  0
   56.9079   27.8027   43.5088 H   0  0  0  0  0  0  0  0  0  0  0  0
   57.6870   29.6110   44.4300 C   0  0  0  0  0  0  0  0  0  0  0  0
   56.3860   30.3520   44.2250 C   0  0  0  0  0  0  0  0  0  0  0  0
   56.4904   31.3805   44.6010 H   0  0  0  0  0  0  0  0  0  0  0  0
   56.1467   30.3674   43.1514 H   0  0  0  0  0  0  0  0  0  0  0  0
   55.3070   29.6830   44.9440 N   0  0  0  0  0  0  0  0  0  0  0  0
   55.5210   29.7240   45.9670 H   0  0  0  0  0  0  0  0  0  0  0  0
   54.4340   30.2400   44.7990 H   0  0  0  0  0  0  0  0  0  0  0  0
   58.5480   30.8530   47.8280 C   0  0  0  0  0  0  0  0  0  0  0  0
   58.7823   29.8835   47.3641 H   0  0  0  0  0  0  0  0  0  0  0  0
   57.7725   30.7269   48.5979 H   0  0  0  0  0  0  0  0  0  0  0  0
   59.8200   31.4200   48.4890 C   0  0  0  0  0  0  0  0  0  0  0  0
   60.0106   32.4144   48.0590 H   0  0  0  0  0  0  0  0  0  0  0  0
   59.6170   31.5630   50.0020 C   0  0  0  0  0  0  0  0  0  0  0  0
   60.4051   31.0078   50.5318 H   0  0  0  0  0  0  0  0  0  0  0  0
   59.6674   32.6261   50.2798 H   0  0  0  0  0  0  0  0  0  0  0  0
   58.6329   31.1576   50.2798 H   0  0  0  0  0  0  0  0  0  0  0  0
   61.0380   30.5350   48.1980 C   0  0  0  0  0  0  0  0  0  0  0  0
   61.4885   30.2077   49.1467 H   0  0  0  0  0  0  0  0  0  0  0  0
   60.7217   29.6546   47.6193 H   0  0  0  0  0  0  0  0  0  0  0  0
   61.7776   31.1078   47.6193 H   0  0  0  0  0  0  0  0  0  0  0  0
   60.7670   34.3460   46.9320 C   0  0  0  0  0  0  0  0  0  0  0  0
   60.7080   34.5710   48.3180 C   0  0  0  0  0  0  0  0  0  0  0  0
   59.8090   35.0260   48.7593 H   0  0  0  0  0  0  0  0  0  0  0  0
   61.7830   34.2210   49.1400 C   0  0  0  0  0  0  0  0  0  0  0  0
   61.7298   34.4085   50.2226 H   0  0  0  0  0  0  0  0  0  0  0  0
   62.9240   33.6340   48.5900 C   0  0  0  0  0  0  0  0  0  0  0  0
   63.7705   33.3630   49.2381 H   0  0  0  0  0  0  0  0  0  0  0  0
   62.9900   33.3910   47.2160 C   0  0  0  0  0  0  0  0  0  0  0  0
   63.8870   32.9233   46.7840 H   0  0  0  0  0  0  0  0  0  0  0  0
   61.9180   33.7410   46.3880 C   0  0  0  0  0  0  0  0  0  0  0  0
   61.9736   33.5431   45.3074 H   0  0  0  0  0  0  0  0  0  0  0  0
  1  2  1  0
  2  3  2  0
  3  4  1  0
  3  5  1  0
  5  6  1  0
  5  7  1  0
  5  8  1  0
  8  9  1  0
  9 10  1  0
  9 11  1  0
  9 12  1  0
 12 13  2  0
 13 14  1  0
 13 15  1  0
 15 16  1  0
 15 17  2  0
 17 18  1  0
 17 19  1  0
 19 20  1  0
 19 21  2  0
 21 22  1  0
 22 23  1  0
 22 24  1  0
 22 25  1  0
 25 26  1  0
 25 27  1  0
  8 28  1  0
 28 29  1  0
 28 30  1  0
 28 31  1  0
 31 32  1  0
 31 33  1  0
 33 34  1  0
 33 35  1  0
 33 36  1  0
 31 37  1  0
 37 38  1  0
 37 39  1  0
 37 40  1  0
  2 41  1  0
 41 42  2  0
 42 43  1  0
 42 44  1  0
 44 45  1  0
 44 46  2  0
 46 47  1  0
 46 48  1  0
 48 49  1  0
 48 50  2  0
 50 51  1  0
 21 12  1  0
 50 41  1  0
M  END
>  <UniqueID>  (8) 
8

>  <SMILES>  (8) 
CC(C)CN(C/C=C/c1ccccc1)Cc1ccccc1CN

>  <Energy>  (8) 
45.21832715178753

>  <Genealogy>  (8) 
CC(C)CN(C/C=C/c1ccccc1)Cc1ccccc1CN (cis-trans isomerization)
CC(C)CN(C/C=C/c1ccccc1)Cc1ccccc1CN (3D coordinates assigned)
CC(C)CN(C/C=C/c1ccccc1)Cc1ccccc1CN (optimized conformer: 45.21832715178753 kcal/mol)

>  <smiles>  (8) 
CC(C)CN(CC=Cc1ccccc1)Cc1ccccc1CN

>  <score_type>  (8) 
oracle

>  <origin>  (8) 
adg

>  <m_score__min__energy>  (8) 
-8.0299999999999994

>  <m_primary>  (8) 
energy

$$$$
8:0
     RDKit          3D

 62 64  0  0  0  0  0  0  0  0999 V2000
   65.4840   32.6700   50.0300 C   0  0  0  0  0  0  0  0  0  0  0  0
   64.0570   32.5020   49.5250 C   0  0  0  0  0  0  0  0  0  0  0  0
   64.0320   32.6420   48.0500 N   0  0  0  0  0  0  0  0  0  0  0  0
   63.6380   33.9890   47.5870 C   0  0  0  0  0  0  0  0  0  0  0  0
   62.7480   33.9010   46.3500 C   0  0  0  0  0  0  0  0  0  0  0  0
   63.3000   31.5490   47.3670 C   0  0  0  0  0  0  0  0  0  0  0  0
   61.9430   31.1870   48.0060 C   0  0  0  0  0  0  0  0  0  0  0  0
   61.3360   30.1260   47.2980 O   0  0  0  0  0  0  0  0  0  0  0  0
   60.7190   29.2360   48.2050 C   0  0  0  0  0  0  0  0  0  0  0  0
   59.9420   30.0320   49.2500 C   0  0  0  0  0  0  0  0  0  0  0  0
   58.6610   30.4890   48.7080 N   0  0  0  0  0  0  0  0  0  0  0  0
   58.5590   31.0410   47.3830 C   0  0  0  0  0  0  0  0  0  0  0  0
   58.8770   32.3920   47.1510 C   0  0  0  0  0  0  0  0  0  0  0  0
   59.2680   33.2360   48.2120 C   0  0  0  0  0  0  0  0  0  0  0  0
   59.6460   34.5540   47.9720 C   0  0  0  0  0  0  0  0  0  0  0  0
   59.6450   35.0530   46.6740 C   0  0  0  0  0  0  0  0  0  0  0  0
   59.2260   34.2490   45.6140 C   0  0  0  0  0  0  0  0  0  0  0  0
   58.7900   32.9160   45.8330 C   0  0  0  0  0  0  0  0  0  0  0  0
   58.2990   32.1330   44.8040 N   0  0  0  0  0  0  0  0  0  0  0  0
   57.9420   32.7540   43.5090 C   0  0  0  0  0  0  0  0  0  0  0  0
   58.1070   30.7770   44.9960 C   0  0  0  0  0  0  0  0  0  0  0  0
   57.8550   29.8990   43.9120 C   0  0  0  0  0  0  0  0  0  0  0  0
   57.6160   28.5420   44.1220 C   0  0  0  0  0  0  0  0  0  0  0  0
   57.6160   28.0170   45.4150 C   0  0  0  0  0  0  0  0  0  0  0  0
   57.4110   26.6180   45.6590 N   0  0  0  0  0  0  0  0  0  0  0  0
   56.2320   26.0080   46.1990 C   0  0  0  0  0  0  0  0  0  0  0  0
   56.2700   24.6850   46.8990 C   0  0  0  0  0  0  0  0  0  0  0  0
   55.1250   26.5870   46.0470 O   0  0  0  0  0  0  0  0  0  0  0  0
   57.9240   28.8500   46.4900 C   0  0  0  0  0  0  0  0  0  0  0  0
   58.1870   30.2220   46.3000 C   0  0  0  0  0  0  0  0  0  0  0  0
   65.4860   32.6702   51.1300 H   0  0  0  0  0  0  0  0  0  0  0  0
   66.1033   31.8386   49.6624 H   0  0  0  0  0  0  0  0  0  0  0  0
   65.8933   33.6225   49.6624 H   0  0  0  0  0  0  0  0  0  0  0  0
   63.6847   31.5054   49.8045 H   0  0  0  0  0  0  0  0  0  0  0  0
   63.4165   33.2742   49.9762 H   0  0  0  0  0  0  0  0  0  0  0  0
   63.0877   34.4995   48.3911 H   0  0  0  0  0  0  0  0  0  0  0  0
   64.5470   34.5510   47.3267 H   0  0  0  0  0  0  0  0  0  0  0  0
   61.6979   33.7972   46.6605 H   0  0  0  0  0  0  0  0  0  0  0  0
   62.8640   34.8150   45.7490 H   0  0  0  0  0  0  0  0  0  0  0  0
   63.0408   33.0274   45.7490 H   0  0  0  0  0  0  0  0  0  0  0  0
   63.1182   31.8558   46.3264 H   0  0  0  0  0  0  0  0  0  0  0  0
   63.9319   30.6523   47.4485 H   0  0  0  0  0  0  0  0  0  0  0  0
   62.1036   30.8815   49.0505 H   0  0  0  0  0  0  0  0  0  0  0  0
   61.2834   32.0665   47.9682 H   0  0  0  0  0  0  0  0  0  0  0  0
   60.0288   28.5761   47.6590 H   0  0  0  0  0  0  0  0  0  0  0  0
   61.4888   28.6291   48.7042 H   0  0  0  0  0  0  0  0  0  0  0  0
   59.7558   29.3925   50.1254 H   0  0  0  0  0  0  0  0  0  0  0  0
   60.5370   30.9112   49.5380 H   0  0  0  0  0  0  0  0  0  0  0  0
   57.7850   30.1930   49.1930 H   0  0  0  0  0  0  0  0  0  0  0  0
   59.2742   32.8478   49.2412 H   0  0  0  0  0  0  0  0  0  0  0  0
   59.9457   35.2011   48.8095 H   0  0  0  0  0  0  0  0  0  0  0  0
   59.9755   36.0846   46.4827 H   0  0  0  0  0  0  0  0  0  0  0  0
   59.2336   34.6546   44.5915 H   0  0  0  0  0  0  0  0  0  0  0  0
   57.4013   33.6946   43.6901 H   0  0  0  0  0  0  0  0  0  0  0  0
   58.8583   32.9621   42.9372 H   0  0  0  0  0  0  0  0  0  0  0  0
   57.3010   32.0669   42.9372 H   0  0  0  0  0  0  0  0  0  0  0  0
   57.8479   30.2960   42.8862 H   0  0  0  0  0  0  0  0  0  0  0  0
   57.4263   27.8810   43.2635 H   0  0  0  0  0  0  0  0  0  0  0  0
   56.2654   24.8457   47.9872 H   0  0  0  0  0  0  0  0  0  0  0  0
   55.3885   24.0929   46.6120 H   0  0  0  0  0  0  0  0  0  0  0  0
   57.1840   24.1445   46.6120 H   0  0  0  0  0  0  0  0  0  0  0  0
   57.9625   28.4287   47.5054 H   0  0  0  0  0  0  0  0  0  0  0  0
  1  2  1  0
  2  3  1  0
  3  4  1  0
  4  5  1  0
  3  6  1  0
  6  7  1  0
  7  8  1  0
  8  9  1  0
  9 10  1  0
 10 11  1  0
 11 12  1  0
 12 13  2  0
 13 14  1  0
 14 15  2  0
 15 16  1  0
 16 17  2  0
 17 18  1  0
 18 19  2  0
 19 20  1  0
 19 21  1  0
 21 22  2  0
 22 23  1  0
 23 24  2  0
 24 25  1  0
 25 26  1  0
 26 27  1  0
 26 28  2  0
 24 29  1  0
 29 30  2  0
 30 12  1  0
 18 13  1  0
 30 21  1  0
  1 31  1  0
  1 32  1  0
  1 33  1  0
  2 34  1  0
  2 35  1  0
  4 36  1  0
  4 37  1  0
  5 38  1  0
  5 39  1  0
  5 40  1  0
  6 41  1  0
  6 42  1  0
  7 43  1  0
  7 44  1  0
  9 45  1  0
  9 46  1  0
 10 47  1  0
 10 48  1  0
 11 49  1  0
 14 50  1  0
 15 51  1  0
 16 52  1  0
 17 53  1  0
 20 54  1  0
 20 55  1  0
 20 56  1  0
 22 57  1  0
 23 58  1  0
 27 59  1  0
 27 60  1  0
 27 61  1  0
 29 62  1  0
M  CHG  2  19   1  25  -1
M  END
>  <UniqueID>  (9) 
9

>  <SMILES>  (9) 
CCN(CC)CCOCCNc1c2ccccc2[n+](C)c2ccc([N-]C(C)=O)cc12

>  <Energy>  (9) 
88.41090817841426

>  <Genealogy>  (9) 
CCN(CC)CCOCCNc1c2ccccc2[n+](C)c2ccc([N-]C(C)=O)cc12 (protonated)
CCN(CC)CCOCCNc1c2ccccc2[n+](C)c2ccc([N-]C(C)=O)cc12 (3D coordinates assigned)
CCN(CC)CCOCCNc1c2ccccc2[n+](C)c2ccc([N-]C(C)=O)cc12 (optimized conformer: 88.41090817841426 kcal/mol)

>  <smiles>  (9) 
CCN(CC)CCOCCNc1c2ccccc2[n+](C)c2ccc(NC(C)=O)cc12

>  <score_type>  (9) 
oracle

>  <origin>  (9) 
adg

>  <m_score__min__energy>  (9) 
-8.0399999999999991

>  <m_primary>  (9) 
energy

$$$$
9:0
     RDKit          3D

 47 50  0  0  0  0  0  0  0  0999 V2000
   63.0600   32.6540   47.8680 C   0  0  0  0  0  0  0  0  0  0  0  0
   62.9280   31.6430   48.9290 N   0  0  0  0  0  0  0  0  0  0  0  0
   64.1050   31.6420   49.8120 C   0  0  0  0  0  0  0  0  0  0  0  0
   61.6490   31.7430   49.6680 C   0  0  0  0  0  0  0  0  0  0  0  0
   60.4930   30.9360   49.0470 C   0  0  0  0  0  0  0  0  0  0  0  0
   60.8850   30.4200   47.7360 N   0  0  0  0  0  0  0  0  0  0  0  0
   59.8960   30.1050   46.7460 C   0  0  0  0  0  0  0  0  0  0  0  0
   59.2960   31.1140   45.9920 C   0  0  0  0  0  0  0  0  0  0  0  0
   58.4310   30.8060   44.9540 C   0  0  0  0  0  0  0  0  0  0  0  0
   58.0440   29.5200   44.6760 N   0  0  0  0  0  0  0  0  0  0  0  0
   57.0020   29.2660   43.6660 C   0  0  0  0  0  0  0  0  0  0  0  0
   58.6480   28.4830   45.3710 C   0  0  0  0  0  0  0  0  0  0  0  0
   58.4120   27.1260   45.0350 C   0  0  0  0  0  0  0  0  0  0  0  0
   59.0070   26.0930   45.7550 C   0  0  0  0  0  0  0  0  0  0  0  0
   59.8620   26.3750   46.8150 C   0  0  0  0  0  0  0  0  0  0  0  0
   60.1450   27.6960   47.1530 C   0  0  0  0  0  0  0  0  0  0  0  0
   59.5630   28.7630   46.4400 C   0  0  0  0  0  0  0  0  0  0  0  0
   58.0570   32.0650   44.2880 C   0  0  0  0  0  0  0  0  0  0  0  0
   57.3950   32.2080   43.2270 O   0  0  0  0  0  0  0  0  0  0  0  0
   58.6910   33.1370   45.0380 C   0  0  0  0  0  0  0  0  0  0  0  0
   58.6020   34.5170   44.8570 C   0  0  0  0  0  0  0  0  0  0  0  0
   59.2690   35.3490   45.7700 C   0  0  0  0  0  0  0  0  0  0  0  0
   59.9880   34.7930   46.8460 C   0  0  0  0  0  0  0  0  0  0  0  0
   60.0610   33.3990   47.0100 C   0  0  0  0  0  0  0  0  0  0  0  0
   59.4240   32.5810   46.0700 C   0  0  0  0  0  0  0  0  0  0  0  0
   63.1897   33.6474   48.3222 H   0  0  0  0  0  0  0  0  0  0  0  0
   63.9351   32.4189   47.2443 H   0  0  0  0  0  0  0  0  0  0  0  0
   62.1539   32.6515   47.2443 H   0  0  0  0  0  0  0  0  0  0  0  0
   63.7759   31.6423   50.8616 H   0  0  0  0  0  0  0  0  0  0  0  0
   64.7087   30.7433   49.6172 H   0  0  0  0  0  0  0  0  0  0  0  0
   64.7103   32.5396   49.6172 H   0  0  0  0  0  0  0  0  0  0  0  0
   61.8134   31.3769   50.6922 H   0  0  0  0  0  0  0  0  0  0  0  0
   61.3481   32.8005   49.6350 H   0  0  0  0  0  0  0  0  0  0  0  0
   60.2411   30.0940   49.7085 H   0  0  0  0  0  0  0  0  0  0  0  0
   59.6195   31.5938   48.9275 H   0  0  0  0  0  0  0  0  0  0  0  0
   61.8720   30.5720   47.4260 H   0  0  0  0  0  0  0  0  0  0  0  0
   56.0519   29.0344   44.1696 H   0  0  0  0  0  0  0  0  0  0  0  0
   56.8753   30.1596   43.0371 H   0  0  0  0  0  0  0  0  0  0  0  0
   57.3007   28.4144   43.0371 H   0  0  0  0  0  0  0  0  0  0  0  0
   57.7480   26.8851   44.1917 H   0  0  0  0  0  0  0  0  0  0  0  0
   58.7994   25.0474   45.4836 H   0  0  0  0  0  0  0  0  0  0  0  0
   60.3158   25.5527   47.3877 H   0  0  0  0  0  0  0  0  0  0  0  0
   60.8308   27.9090   47.9862 H   0  0  0  0  0  0  0  0  0  0  0  0
   58.0252   34.9416   44.0221 H   0  0  0  0  0  0  0  0  0  0  0  0
   59.2299   36.4411   45.6444 H   0  0  0  0  0  0  0  0  0  0  0  0
   60.4960   35.4545   47.5631 H   0  0  0  0  0  0  0  0  0  0  0  0
   60.6068   32.9606   47.8585 H   0  0  0  0  0  0  0  0  0  0  0  0
  1  2  1  0
  2  3  1  0
  2  4  1  0
  4  5  1  0
  5  6  1  0
  6  7  1  0
  7  8  2  0
  8  9  1  0
  9 10  2  0
 10 11  1  0
 10 12  1  0
 12 13  2  0
 13 14  1  0
 14 15  2  0
 15 16  1  0
 16 17  2  0
  9 18  1  0
 18 19  2  0
 18 20  1  0
 20 21  2  0
 21 22  1  0
 22 23  2  0
 23 24  1  0
 24 25  2  0
 17  7  1  0
 25 20  1  0
 25  8  1  0
 17 12  1  0
  1 26  1  0
  1 27  1  0
  1 28  1  0
  3 29  1  0
  3 30  1  0
  3 31  1  0
  4 32  1  0
  4 33  1  0
  5 34  1  0
  5 35  1  0
  6 36  1  0
 11 37  1  0
 11 38  1  0
 11 39  1  0
 13 40  1  0
 14 41  1  0
 15 42  1  0
 16 43  1  0
 21 44  1  0
 22 45  1  0
 23 46  1  0
 24 47  1  0
M  CHG  1  10   1
M  END
>  <UniqueID>  (10) 
10

>  <SMILES>  (10) 
CN(C)CCNc1c2c([n+](C)c3ccccc13)C(=O)c1ccccc1-2

>  <Energy>  (10) 
103.82537916006103

>  <Genealogy>  (10) 
CN(C)CCNc1c2c([n+](C)c3ccccc13)C(=O)c1ccccc1-2 (3D coordinates assigned)
CN(C)CCNc1c2c([n+](C)c3ccccc13)C(=O)c1ccccc1-2 (nonaromatic ring conformer: 103.82537916006103 kcal/mol)

>  <smiles>  (10) 
CN(C)CCNc1c2c([n+](C)c3ccccc13)C(=O)c1ccccc1-2

>  <score_type>  (10) 
oracle

>  <origin>  (10) 
adg

>  <m_score__min__energy>  (10) 
-6.2800000000000002

>  <m_primary>  (10) 
energy

$$$$
10:0
     RDKit          3D

 48 51  0  0  0  0  0  0  0  0999 V2000
   55.7110   30.8360   52.0550 C   0  0  0  0  0  0  0  0  0  0  0  0
   57.1480   31.2050   52.4330 C   0  0  0  0  0  0  0  0  0  0  0  0
   57.4520   32.6230   52.1800 N   0  0  0  0  0  0  0  0  0  0  0  0
   58.4940   33.1660   53.0740 C   0  0  0  0  0  0  0  0  0  0  0  0
   59.8630   33.2580   52.3700 C   0  0  0  0  0  0  0  0  0  0  0  0
   60.0920   32.1420   51.4310 N   0  0  0  0  0  0  0  0  0  0  0  0
   60.8170   32.5650   50.2460 C   0  0  0  0  0  0  0  0  0  0  0  0
   60.1400   32.8500   49.0480 C   0  0  0  0  0  0  0  0  0  0  0  0
   60.8210   33.2880   47.9210 C   0  0  0  0  0  0  0  0  0  0  0  0
   62.1900   33.3350   47.8750 N   0  0  0  0  0  0  0  0  0  0  0  0
   62.8790   33.4630   46.5810 C   0  0  0  0  0  0  0  0  0  0  0  0
   62.8970   33.1830   49.0560 C   0  0  0  0  0  0  0  0  0  0  0  0
   64.2860   33.4530   49.1170 C   0  0  0  0  0  0  0  0  0  0  0  0
   65.0070   33.2560   50.2910 C   0  0  0  0  0  0  0  0  0  0  0  0
   64.3690   32.7970   51.4360 C   0  0  0  0  0  0  0  0  0  0  0  0
   62.9970   32.5550   51.4250 C   0  0  0  0  0  0  0  0  0  0  0  0
   62.2290   32.7630   50.2550 C   0  0  0  0  0  0  0  0  0  0  0  0
   59.8290   33.6000   46.8620 C   0  0  0  0  0  0  0  0  0  0  0  0
   59.9530   34.2700   45.6340 C   0  0  0  0  0  0  0  0  0  0  0  0
   58.7970   34.5000   44.8710 C   0  0  0  0  0  0  0  0  0  0  0  0
   57.5340   34.1060   45.3500 C   0  0  0  0  0  0  0  0  0  0  0  0
   57.4120   33.5010   46.6090 C   0  0  0  0  0  0  0  0  0  0  0  0
   58.5750   33.2690   47.3440 C   0  0  0  0  0  0  0  0  0  0  0  0
   58.7110   32.7900   48.7070 C   0  0  0  0  0  0  0  0  0  0  0  0
   57.7600   32.4170   49.4430 O   0  0  0  0  0  0  0  0  0  0  0  0
   55.1188   30.6839   52.9695 H   0  0  0  0  0  0  0  0  0  0  0  0
   55.2675   31.6494   51.4620 H   0  0  0  0  0  0  0  0  0  0  0  0
   55.7142   29.9095   51.4620 H   0  0  0  0  0  0  0  0  0  0  0  0
   57.2952   30.9984   53.5033 H   0  0  0  0  0  0  0  0  0  0  0  0
   57.8230   30.6022   51.8077 H   0  0  0  0  0  0  0  0  0  0  0  0
   57.6920   32.7600   51.1700 H   0  0  0  0  0  0  0  0  0  0  0  0
   58.1935   34.1725   53.4007 H   0  0  0  0  0  0  0  0  0  0  0  0
   58.5963   32.4854   53.9321 H   0  0  0  0  0  0  0  0  0  0  0  0
   59.9094   34.2044   51.8112 H   0  0  0  0  0  0  0  0  0  0  0  0
   60.6416   33.2075   53.1454 H   0  0  0  0  0  0  0  0  0  0  0  0
   60.6260   31.3860   51.9150 H   0  0  0  0  0  0  0  0  0  0  0  0
   59.1820   31.6930   51.1890 H   0  0  0  0  0  0  0  0  0  0  0  0
   63.9473   33.6615   46.7525 H   0  0  0  0  0  0  0  0  0  0  0  0
   62.7664   32.5286   46.0116 H   0  0  0  0  0  0  0  0  0  0  0  0
   62.4383   34.2946   46.0116 H   0  0  0  0  0  0  0  0  0  0  0  0
   64.8040   33.8249   48.2207 H   0  0  0  0  0  0  0  0  0  0  0  0
   66.0868   33.4647   50.3121 H   0  0  0  0  0  0  0  0  0  0  0  0
   64.9488   32.6239   52.3546 H   0  0  0  0  0  0  0  0  0  0  0  0
   62.5031   32.1966   52.3402 H   0  0  0  0  0  0  0  0  0  0  0  0
   60.9369   34.6081   45.2768 H   0  0  0  0  0  0  0  0  0  0  0  0
   58.8794   34.9922   43.8907 H   0  0  0  0  0  0  0  0  0  0  0  0
   56.6382   34.2734   44.7339 H   0  0  0  0  0  0  0  0  0  0  0  0
   56.4264   33.2171   47.0063 H   0  0  0  0  0  0  0  0  0  0  0  0
  1  2  1  0
  2  3  1  0
  3  4  1  0
  4  5  1  0
  5  6  1  0
  6  7  1  0
  7  8  2  0
  8  9  1  0
  9 10  2  0
 10 11  1  0
 10 12  1  0
 12 13  2  0
 13 14  1  0
 14 15  2  0
 15 16  1  0
 16 17  2  0
  9 18  1  0
 18 19  2  0
 19 20  1  0
 20 21  2  0
 21 22  1  0
 22 23  2  0
 23 24  1  0
 24 25  2  0
 17  7  1  0
 23 18  1  0
 24  8  1  0
 17 12  1  0
  1 26  1  0
  1 27  1  0
  1 28  1  0
  2 29  1  0
  2 30  1  0
  3 31  1  0
  4 32  1  0
  4 33  1  0
  5 34  1  0
  5 35  1  0
  6 36  1  0
  6 37  1  0
 11 38  1  0
 11 39  1  0
 11 40  1  0
 13 41  1  0
 14 42  1  0
 15 43  1  0
 16 44  1  0
 19 45  1  0
 20 46  1  0
 21 47  1  0
 22 48  1  0
M  CHG  2   6   1  10   1
M  END
>  <UniqueID>  (11) 
11

>  <SMILES>  (11) 
CCNCC[NH2+]c1c2c([n+](C)c3ccccc13)-c1ccccc1C2=O

>  <Energy>  (11) 
104.6164517877177

>  <Genealogy>  (11) 
CCNCC[NH2+]c1c2c([n+](C)c3ccccc13)-c1ccccc1C2=O (protonated)
CCNCC[NH2+]c1c2c([n+](C)c3ccccc13)-c1ccccc1C2=O (3D coordinates assigned)
CCNCC[NH2+]c1c2c([n+](C)c3ccccc13)-c1ccccc1C2=O (nonaromatic ring conformer: 104.6164517877177 kcal/mol)

>  <smiles>  (11) 
CCNCCNc1c2c([n+](C)c3ccccc13)-c1ccccc1C2=O

>  <score_type>  (11) 
oracle

>  <origin>  (11) 
adg

>  <m_score__min__energy>  (11) 
-4.3499999999999996

>  <m_primary>  (11) 
energy

$$$$
11:0
     RDKit          3D

 52 55  0  0  0  0  0  0  0  0999 V2000
   58.8420   32.3950   49.4930 C   0  0  0  0  0  0  0  0  0  0  0  0
   58.2840   31.5660   50.6470 C   0  0  0  0  0  0  0  0  0  0  0  0
   58.8380   30.1960   50.6140 N   0  0  0  0  0  0  0  0  0  0  0  0
   58.9330   29.6550   51.9830 C   0  0  0  0  0  0  0  0  0  0  0  0
   60.1610   30.1580   49.9450 C   0  0  0  0  0  0  0  0  0  0  0  0
   60.0660   29.4200   48.6050 C   0  0  0  0  0  0  0  0  0  0  0  0
   58.6780   29.0680   48.2930 N   0  0  0  0  0  0  0  0  0  0  0  0
   58.3000   28.7070   46.9540 C   0  0  0  0  0  0  0  0  0  0  0  0
   58.1190   27.3520   46.6300 C   0  0  0  0  0  0  0  0  0  0  0  0
   58.6220   26.3160   47.6170 C   0  0  0  0  0  0  0  0  0  0  0  0
   57.7070   27.0070   45.3120 C   0  0  0  0  0  0  0  0  0  0  0  0
   57.2300   25.7040   44.9710 C   0  0  0  0  0  0  0  0  0  0  0  0
   56.5160   24.8630   45.8650 C   0  0  0  0  0  0  0  0  0  0  0  0
   56.0580   25.3300   47.0910 O   0  0  0  0  0  0  0  0  0  0  0  0
   56.1810   23.5580   45.4910 C   0  0  0  0  0  0  0  0  0  0  0  0
   56.4620   23.0990   44.2050 C   0  0  0  0  0  0  0  0  0  0  0  0
   57.0270   23.9610   43.2670 C   0  0  0  0  0  0  0  0  0  0  0  0
   57.3680   25.2730   43.6310 C   0  0  0  0  0  0  0  0  0  0  0  0
   57.8050   26.1710   42.6650 C   0  0  0  0  0  0  0  0  0  0  0  0
   57.9920   27.5070   43.0040 C   0  0  0  0  0  0  0  0  0  0  0  0
   57.8690   27.9440   44.3030 N   0  0  0  0  0  0  0  0  0  0  0  0
   57.9450   29.2890   44.6170 C   0  0  0  0  0  0  0  0  0  0  0  0
   57.7760   30.3070   43.6390 C   0  0  0  0  0  0  0  0  0  0  0  0
   57.8200   31.6570   43.9880 C   0  0  0  0  0  0  0  0  0  0  0  0
   58.0030   32.0320   45.3140 C   0  0  0  0  0  0  0  0  0  0  0  0
   58.1450   31.0600   46.3000 C   0  0  0  0  0  0  0  0  0  0  0  0
   58.1280   29.6890   45.9670 C   0  0  0  0  0  0  0  0  0  0  0  0
   59.4138   33.2445   49.8947 H   0  0  0  0  0  0  0  0  0  0  0  0
   59.5022   31.7674   48.8764 H   0  0  0  0  0  0  0  0  0  0  0  0
   58.0121   32.7704   48.8764 H   0  0  0  0  0  0  0  0  0  0  0  0
   58.5551   32.0434   51.6002 H   0  0  0  0  0  0  0  0  0  0  0  0
   57.1898   31.5103   50.5491 H   0  0  0  0  0  0  0  0  0  0  0  0
   58.7901   30.4685   52.7095 H   0  0  0  0  0  0  0  0  0  0  0  0
   58.1552   28.8912   52.1302 H   0  0  0  0  0  0  0  0  0  0  0  0
   59.9245   29.2019   52.1302 H   0  0  0  0  0  0  0  0  0  0  0  0
   60.5061   31.1872   49.7674 H   0  0  0  0  0  0  0  0  0  0  0  0
   60.8718   29.6254   50.5940 H   0  0  0  0  0  0  0  0  0  0  0  0
   60.4596   30.0691   47.8089 H   0  0  0  0  0  0  0  0  0  0  0  0
   60.6540   28.4930   48.6746 H   0  0  0  0  0  0  0  0  0  0  0  0
   58.0220   28.8130   49.0650 H   0  0  0  0  0  0  0  0  0  0  0  0
   58.4488   26.6727   48.6431 H   0  0  0  0  0  0  0  0  0  0  0  0
   58.0830   25.3697   47.4619 H   0  0  0  0  0  0  0  0  0  0  0  0
   59.6989   26.1543   47.4619 H   0  0  0  0  0  0  0  0  0  0  0  0
   55.6929   22.8897   46.2157 H   0  0  0  0  0  0  0  0  0  0  0  0
   56.2380   22.0575   43.9309 H   0  0  0  0  0  0  0  0  0  0  0  0
   57.2061   23.6125   42.2392 H   0  0  0  0  0  0  0  0  0  0  0  0
   58.0018   25.8276   41.6387 H   0  0  0  0  0  0  0  0  0  0  0  0
   58.2441   28.2311   42.2153 H   0  0  0  0  0  0  0  0  0  0  0  0
   57.6077   30.0253   42.5891 H   0  0  0  0  0  0  0  0  0  0  0  0
   57.7095   32.4277   43.2109 H   0  0  0  0  0  0  0  0  0  0  0  0
   58.0356   33.0978   45.5842 H   0  0  0  0  0  0  0  0  0  0  0  0
   58.2718   31.3637   47.3496 H   0  0  0  0  0  0  0  0  0  0  0  0
  1  2  1  0
  2  3  1  0
  3  4  1  0
  3  5  1  0
  5  6  1  0
  6  7  1  0
  7  8  1  0
  8  9  2  0
  9 10  1  0
  9 11  1  0
 11 12  2  0
 12 13  1  0
 13 14  1  0
 13 15  2  0
 15 16  1  0
 16 17  2  0
 17 18  1  0
 18 19  2  0
 19 20  1  0
 20 21  2  0
 21 22  1  0
 22 23  2  0
 23 24  1  0
 24 25  2  0
 25 26  1  0
 26 27  2  0
 27  8  1  0
 21 11  1  0
 27 22  1  0
 18 12  1  0
  1 28  1  0
  1 29  1  0
  1 30  1  0
  2 31  1  0
  2 32  1  0
  4 33  1  0
  4 34  1  0
  4 35  1  0
  5 36  1  0
  5 37  1  0
  6 38  1  0
  6 39  1  0
  7 40  1  0
 10 41  1  0
 10 42  1  0
 10 43  1  0
 15 44  1  0
 16 45  1  0
 17 46  1  0
 19 47  1  0
 20 48  1  0
 23 49  1  0
 24 50  1  0
 25 51  1  0
 26 52  1  0
M  CHG  2  14  -1  21   1
M  END
>  <UniqueID>  (12) 
12

>  <SMILES>  (12) 
CCN(C)CCNc1c(C)c2c3c([O-])cccc3cc[n+]2c2ccccc12

>  <Energy>  (12) 
101.42178636455453

>  <Genealogy>  (12) 
CCN(C)CCNc1c(C)c2c3c([O-])cccc3cc[n+]2c2ccccc12 (protonated)
CCN(C)CCNc1c(C)c2c3c([O-])cccc3cc[n+]2c2ccccc12 (3D coordinates assigned)
CCN(C)CCNc1c(C)c2c3c([O-])cccc3cc[n+]2c2ccccc12 (optimized conformer: 101.42178636455453 kcal/mol)

>  <smiles>  (12) 
CCN(C)CCNc1c(C)c2c3c(O)cccc3cc[n+]2c2ccccc12

>  <score_type>  (12) 
oracle

>  <origin>  (12) 
adg

>  <m_score__min__energy>  (12) 
-7.8099999999999996

>  <m_primary>  (12) 
energy

$$$$
12:0
     RDKit          3D

 65 68  0  0  0  0  0  0  0  0999 V2000
   65.3460   33.4080   50.1620 C   0  0  0  0  0  0  0  0  0  0  0  0
   64.9260   31.9930   49.7600 C   0  0  0  0  0  0  0  0  0  0  0  0
   64.1070   32.0200   48.5450 N   0  0  0  0  0  0  0  0  0  0  0  0
   62.6670   32.0220   48.5530 C   0  0  0  0  0  0  0  0  0  0  0  0
   61.9910   33.0310   49.2460 C   0  0  0  0  0  0  0  0  0  0  0  0
   60.6000   33.0400   49.2650 C   0  0  0  0  0  0  0  0  0  0  0  0
   59.8870   32.0560   48.5840 C   0  0  0  0  0  0  0  0  0  0  0  0
   58.5320   32.1050   48.5890 F   0  0  0  0  0  0  0  0  0  0  0  0
   60.5820   31.0510   47.8780 C   0  0  0  0  0  0  0  0  0  0  0  0
   59.7970   30.0160   47.0640 C   0  0  1  0  0  0  0  0  0  0  0  0
   60.7510   29.1500   46.1620 C   0  0  0  0  0  0  0  0  0  0  0  0
   60.4190   27.7650   46.1620 O   0  0  0  0  0  0  0  0  0  0  0  0
   59.0380   27.5270   45.8970 C   0  0  1  0  0  0  0  0  0  0  0  0
   58.7280   26.0400   46.1610 C   0  0  0  0  0  0  0  0  0  0  0  0
   57.6530   25.4560   45.2270 C   0  0  0  0  0  0  0  0  0  0  0  0
   56.0740   25.1820   46.0310 S   0  0  0  0  0  0  0  0  0  0  0  0
   55.2210   23.8580   45.2000 C   0  0  0  0  0  0  0  0  0  0  0  0
   55.2270   26.4240   45.9720 O   0  0  0  0  0  0  0  0  0  0  0  0
   56.2940   24.7910   47.4670 O   0  0  0  0  0  0  0  0  0  0  0  0
   58.1110   28.4330   46.7750 C   0  0  1  0  0  0  0  0  0  0  0  0
   58.9450   29.0400   47.8900 C   0  0  0  0  0  0  0  0  0  0  0  0
   57.7400   29.6030   45.9930 N   0  0  0  0  0  0  0  0  0  0  0  0
   56.6110   29.6690   45.1140 C   0  0  0  0  0  0  0  0  0  0  0  0
   55.9450   28.6270   44.8640 O   0  0  0  0  0  0  0  0  0  0  0  0
   56.2580   30.8920   44.5340 O   0  0  0  0  0  0  0  0  0  0  0  0
   57.1380   31.6540   43.7120 C   0  0  0  0  0  0  0  0  0  0  0  0
   57.7530   32.7760   44.5050 C   0  0  0  0  0  0  0  0  0  0  0  0
   57.2090   33.1620   45.7410 C   0  0  0  0  0  0  0  0  0  0  0  0
   57.7840   34.2110   46.4660 C   0  0  0  0  0  0  0  0  0  0  0  0
   58.8980   34.8880   45.9590 C   0  0  0  0  0  0  0  0  0  0  0  0
   59.4390   34.5160   44.7250 C   0  0  0  0  0  0  0  0  0  0  0  0
   58.8650   33.4670   43.9960 C   0  0  0  0  0  0  0  0  0  0  0  0
   58.7060   30.6710   46.1850 C   0  0  0  0  0  0  0  0  0  0  0  0
   61.9530   31.0710   47.8780 N   0  0  0  0  0  0  0  0  0  0  0  0
   65.3691   33.4859   51.2590 H   0  0  0  0  0  0  0  0  0  0  0  0
   66.3465   33.6222   49.7580 H   0  0  0  0  0  0  0  0  0  0  0  0
   64.6244   34.1334   49.7580 H   0  0  0  0  0  0  0  0  0  0  0  0
   65.8260   31.3882   49.5751 H   0  0  0  0  0  0  0  0  0  0  0  0
   64.3325   31.5555   50.5763 H   0  0  0  0  0  0  0  0  0  0  0  0
   64.6030   32.1440   47.6320 H   0  0  0  0  0  0  0  0  0  0  0  0
   62.5562   33.8136   49.7734 H   0  0  0  0  0  0  0  0  0  0  0  0
   60.0629   33.8246   49.8181 H   0  0  0  0  0  0  0  0  0  0  0  0
   60.6904   29.5240   45.1293 H   0  0  0  0  0  0  0  0  0  0  0  0
   61.7658   29.2428   46.5763 H   0  0  0  0  0  0  0  0  0  0  0  0
   58.8373   27.7779   44.8450 H   0  0  0  0  0  0  0  0  0  0  0  0
   59.6549   25.4631   46.0270 H   0  0  0  0  0  0  0  0  0  0  0  0
   58.3347   25.9710   47.1860 H   0  0  0  0  0  0  0  0  0  0  0  0
   57.5010   26.1555   44.3918 H   0  0  0  0  0  0  0  0  0  0  0  0
   58.0177   24.4744   44.8902 H   0  0  0  0  0  0  0  0  0  0  0  0
   54.7833   23.1786   45.9461 H   0  0  0  0  0  0  0  0  0  0  0  0
   54.4214   24.2752   44.5703 H   0  0  0  0  0  0  0  0  0  0  0  0
   55.9314   23.3024   44.5703 H   0  0  0  0  0  0  0  0  0  0  0  0
   57.2587   27.8321   47.1251 H   0  0  0  0  0  0  0  0  0  0  0  0
   58.3222   29.5636   48.6302 H   0  0  0  0  0  0  0  0  0  0  0  0
   59.5130   28.3192   48.4965 H   0  0  0  0  0  0  0  0  0  0  0  0
   57.9356   30.9997   43.3303 H   0  0  0  0  0  0  0  0  0  0  0  0
   56.5664   32.0795   42.8740 H   0  0  0  0  0  0  0  0  0  0  0  0
   56.3281   32.6378   46.1401 H   0  0  0  0  0  0  0  0  0  0  0  0
   57.3590   34.5042   47.4373 H   0  0  0  0  0  0  0  0  0  0  0  0
   59.3481   35.7127   46.5311 H   0  0  0  0  0  0  0  0  0  0  0  0
   60.3158   35.0473   44.3264 H   0  0  0  0  0  0  0  0  0  0  0  0
   59.2868   33.1830   43.0206 H   0  0  0  0  0  0  0  0  0  0  0  0
   59.1228   31.0021   45.2224 H   0  0  0  0  0  0  0  0  0  0  0  0
   58.2669   31.5688   46.6445 H   0  0  0  0  0  0  0  0  0  0  0  0
   62.4780   30.3650   47.3270 H   0  0  0  0  0  0  0  0  0  0  0  0
  1  2  1  0
  2  3  1  0
  3  4  1  0
  4  5  2  0
  5  6  1  0
  6  7  2  0
  7  8  1  0
  7  9  1  0
 10  9  1  1
 10 11  1  0
 11 12  1  0
 12 13  1  0
 13 14  1  0
 14 15  1  0
 15 16  1  0
 16 17  1  0
 16 18  2  0
 16 19  2  0
 13 20  1  0
 20 21  1  0
 20 22  1  0
 22 23  1  0
 23 24  2  0
 23 25  1  0
 25 26  1  0
 26 27  1  0
 27 28  2  0
 28 29  1  0
 29 30  2  0
 30 31  1  0
 31 32  2  0
 22 33  1  0
  9 34  2  0
 34  4  1  0
 21 10  1  0
 32 27  1  0
 33 10  1  0
  1 35  1  0
  1 36  1  0
  1 37  1  0
  2 38  1  0
  2 39  1  0
  3 40  1  0
  5 41  1  0
  6 42  1  0
 11 43  1  0
 11 44  1  0
 13 45  1  6
 14 46  1  0
 14 47  1  0
 15 48  1  0
 15 49  1  0
 17 50  1  0
 17 51  1  0
 17 52  1  0
 20 53  1  1
 21 54  1  0
 21 55  1  0
 26 56  1  0
 26 57  1  0
 28 58  1  0
 29 59  1  0
 30 60  1  0
 31 61  1  0
 32 62  1  0
 33 63  1  0
 33 64  1  0
 34 65  1  0
M  CHG  1  34   1
M  END
>  <UniqueID>  (13) 
13

>  <SMILES>  (13) 
CCNc1ccc(F)c([C@@]23CO[C@@H](CCS(C)(=O)=O)C(C2)N(C(=O)OCc2ccccc2)C3)[nH+]1

>  <Energy>  (13) 
82.40866764796323

>  <Genealogy>  (13) 
CCNc1ccc(F)c(C23COC(CCS(C)(=O)=O)C(C2)N(C(=O)OCc2ccccc2)C3)[nH+]1 (protonated)
CCNc1ccc(F)c([C@@]23CO[C@@H](CCS(C)(=O)=O)C(C2)N(C(=O)OCc2ccccc2)C3)[nH+]1 (chirality)
CCNc1ccc(F)c([C@@]23CO[C@@H](CCS(C)(=O)=O)C(C2)N(C(=O)OCc2ccccc2)C3)[nH+]1 (3D coordinates assigned)
CCNc1ccc(F)c([C@@]23CO[C@@H](CCS(C)(=O)=O)C(C2)N(C(=O)OCc2ccccc2)C3)[nH+]1 (nonaromatic ring conformer: 82.40866764796323 kcal/mol)

>  <smiles>  (13) 
CCNc1ccc(F)c(C23COC(CCS(C)(=O)=O)C(C2)N(C(=O)OCc2ccccc2)C3)n1

>  <score_type>  (13) 
oracle

>  <origin>  (13) 
adg

>  <m_score__min__energy>  (13) 
-9.7100000000000009

>  <m_primary>  (13) 
energy

$$$$
14:0
     RDKit          3D

 56 58  0  0  0  0  0  0  0  0999 V2000
   61.0540   26.7880   50.4720 C   0  0  0  0  0  0  0  0  0  0  0  0
   61.0920   27.6160   51.7530 C   0  0  0  0  0  0  0  0  0  0  0  0
   61.5150   28.9920   51.4720 N   0  0  0  0  0  0  0  0  0  0  0  0
   60.4020   29.9400   51.6000 C   0  0  0  0  0  0  0  0  0  0  0  0
   59.9300   30.3940   50.2070 C   0  0  0  0  0  0  0  0  0  0  0  0
   60.7590   29.8270   49.1220 N   0  0  0  0  0  0  0  0  0  0  0  0
   60.7100   30.6530   47.9200 C   0  0  0  0  0  0  0  0  0  0  0  0
   61.6290   31.7170   47.7530 C   0  0  0  0  0  0  0  0  0  0  0  0
   62.8740   31.7350   48.4220 C   0  0  0  0  0  0  0  0  0  0  0  0
   63.7720   32.7810   48.2300 C   0  0  0  0  0  0  0  0  0  0  0  0
   63.4570   33.8210   47.3640 C   0  0  0  0  0  0  0  0  0  0  0  0
   62.2300   33.8340   46.7050 C   0  0  0  0  0  0  0  0  0  0  0  0
   61.2820   32.8010   46.9070 C   0  0  0  0  0  0  0  0  0  0  0  0
   60.0360   32.8400   46.3230 N   0  0  0  0  0  0  0  0  0  0  0  0
   59.5110   34.1210   45.8000 C   0  0  0  0  0  0  0  0  0  0  0  0
   59.2900   31.6810   46.2250 C   0  0  0  0  0  0  0  0  0  0  0  0
   58.1730   31.6010   45.3710 C   0  0  0  0  0  0  0  0  0  0  0  0
   57.3960   30.4390   45.2760 C   0  0  0  0  0  0  0  0  0  0  0  0
   56.2060   30.4290   44.5280 O   0  0  0  0  0  0  0  0  0  0  0  0
   56.0380   29.8120   43.2520 C   0  0  0  0  0  0  0  0  0  0  0  0
   57.8210   29.2650   45.9330 C   0  0  0  0  0  0  0  0  0  0  0  0
   57.0990   28.0590   45.8520 O   0  0  0  0  0  0  0  0  0  0  0  0
   57.4240   26.9110   45.0770 C   0  0  0  0  0  0  0  0  0  0  0  0
   59.0110   29.2920   46.7010 C   0  0  0  0  0  0  0  0  0  0  0  0
   59.6490   28.1070   47.1280 O   0  0  0  0  0  0  0  0  0  0  0  0
   60.4210   27.2070   46.3420 C   0  0  0  0  0  0  0  0  0  0  0  0
   59.6540   30.5300   46.9720 C   0  0  0  0  0  0  0  0  0  0  0  0
   61.0050   25.7192   50.7276 H   0  0  0  0  0  0  0  0  0  0  0  0
   60.1676   27.0651   49.8825 H   0  0  0  0  0  0  0  0  0  0  0  0
   61.9620   26.9827   49.8825 H   0  0  0  0  0  0  0  0  0  0  0  0
   60.0879   27.6320   52.2018 H   0  0  0  0  0  0  0  0  0  0  0  0
   61.8142   27.1599   52.4461 H   0  0  0  0  0  0  0  0  0  0  0  0
   62.2350   29.2550   52.1880 H   0  0  0  0  0  0  0  0  0  0  0  0
   59.5677   29.4525   52.1257 H   0  0  0  0  0  0  0  0  0  0  0  0
   60.7412   30.8183   52.1688 H   0  0  0  0  0  0  0  0  0  0  0  0
   58.8888   30.0697   50.0631 H   0  0  0  0  0  0  0  0  0  0  0  0
   60.0192   31.4894   50.1616 H   0  0  0  0  0  0  0  0  0  0  0  0
   60.4160   28.8600   48.9700 H   0  0  0  0  0  0  0  0  0  0  0  0
   61.7470   29.7210   49.4450 H   0  0  0  0  0  0  0  0  0  0  0  0
   63.1365   30.9120   49.1030 H   0  0  0  0  0  0  0  0  0  0  0  0
   64.7331   32.7843   48.7650 H   0  0  0  0  0  0  0  0  0  0  0  0
   64.1778   34.6353   47.1986 H   0  0  0  0  0  0  0  0  0  0  0  0
   61.9935   34.6591   46.0171 H   0  0  0  0  0  0  0  0  0  0  0  0
   59.2419   34.7775   46.6406 H   0  0  0  0  0  0  0  0  0  0  0  0
   60.2815   34.6094   45.1853 H   0  0  0  0  0  0  0  0  0  0  0  0
   58.6194   33.9282   45.1853 H   0  0  0  0  0  0  0  0  0  0  0  0
   57.9029   32.4757   44.7612 H   0  0  0  0  0  0  0  0  0  0  0  0
   55.7512   28.7589   43.3888 H   0  0  0  0  0  0  0  0  0  0  0  0
   55.2500   30.3368   42.6919 H   0  0  0  0  0  0  0  0  0  0  0  0
   56.9832   29.8648   42.6919 H   0  0  0  0  0  0  0  0  0  0  0  0
   57.6616   26.0716   45.7470 H   0  0  0  0  0  0  0  0  0  0  0  0
   56.5666   26.6423   44.4424 H   0  0  0  0  0  0  0  0  0  0  0  0
   58.2950   27.1316   44.4424 H   0  0  0  0  0  0  0  0  0  0  0  0
   60.9930   26.5401   47.0038 H   0  0  0  0  0  0  0  0  0  0  0  0
   59.7517   26.6077   45.7072 H   0  0  0  0  0  0  0  0  0  0  0  0
   61.1152   27.7772   45.7072 H   0  0  0  0  0  0  0  0  0  0  0  0
  1  2  1  0
  2  3  1  0
  3  4  1  0
  4  5  1  0
  5  6  1  0
  6  7  1  0
  7  8  2  0
  8  9  1  0
  9 10  2  0
 10 11  1  0
 11 12  2  0
 12 13  1  0
 13 14  2  0
 14 15  1  0
 14 16  1  0
 16 17  2  0
 17 18  1  0
 18 19  1  0
 19 20  1  0
 18 21  2  0
 21 22  1  0
 22 23  1  0
 21 24  1  0
 24 25  1  0
 25 26  1  0
 24 27  2  0
 27  7  1  0
 13  8  1  0
 27 16  1  0
  1 28  1  0
  1 29  1  0
  1 30  1  0
  2 31  1  0
  2 32  1  0
  3 33  1  0
  4 34  1  0
  4 35  1  0
  5 36  1  0
  5 37  1  0
  6 38  1  0
  6 39  1  0
  9 40  1  0
 10 41  1  0
 11 42  1  0
 12 43  1  0
 15 44  1  0
 15 45  1  0
 15 46  1  0
 17 47  1  0
 20 48  1  0
 20 49  1  0
 20 50  1  0
 23 51  1  0
 23 52  1  0
 23 53  1  0
 26 54  1  0
 26 55  1  0
 26 56  1  0
M  CHG  2   6   1  14   1
M  END
>  <UniqueID>  (14) 
14

>  <SMILES>  (14) 
CCNCC[NH2+]c1c2ccccc2[n+](C)c2cc(OC)c(OC)c(OC)c12

>  <Energy>  (14) 
96.03004006508776

>  <Genealogy>  (14) 
CCNCC[NH2+]c1c2ccccc2[n+](C)c2cc(OC)c(OC)c(OC)c12 (protonated)
CCNCC[NH2+]c1c2ccccc2[n+](C)c2cc(OC)c(OC)c(OC)c12 (3D coordinates assigned)
CCNCC[NH2+]c1c2ccccc2[n+](C)c2cc(OC)c(OC)c(OC)c12 (optimized conformer: 96.03004006508776 kcal/mol)

>  <smiles>  (14) 
CCNCCNc1c2ccccc2[n+](C)c2cc(OC)c(OC)c(OC)c12

>  <score_type>  (14) 
oracle

>  <origin>  (14) 
adg

>  <m_score__min__energy>  (14) 
-3.8599999999999999

>  <m_primary>  (14) 
energy

$$$$
15:0
     RDKit          3D

 63 65  0  0  0  0  0  0  0  0999 V2000
   57.0670   30.8060   42.9370 C   0  0  0  0  0  0  0  0  0  0  0  0
   57.7930   30.7270   44.2240 N   0  0  0  0  0  0  0  0  0  0  0  0
   58.0330   31.8750   44.9560 C   0  0  0  0  0  0  0  0  0  0  0  0
   57.3570   33.0910   44.6800 C   0  0  0  0  0  0  0  0  0  0  0  0
   57.6290   34.2480   45.4080 C   0  0  0  0  0  0  0  0  0  0  0  0
   58.5620   34.2230   46.4390 C   0  0  0  0  0  0  0  0  0  0  0  0
   59.2160   33.0360   46.7580 C   0  0  0  0  0  0  0  0  0  0  0  0
   58.9620   31.8550   46.0300 C   0  0  0  0  0  0  0  0  0  0  0  0
   59.5920   30.6460   46.3750 C   0  0  0  0  0  0  0  0  0  0  0  0
   60.6070   30.6200   47.3930 N   0  0  0  0  0  0  0  0  0  0  0  0
   62.0120   30.8830   47.0830 C   0  0  0  0  0  0  0  0  0  0  0  0
   62.6990   31.5850   48.2720 C   0  0  0  0  0  0  0  0  0  0  0  0
   63.7030   32.6070   47.8870 N   0  0  0  0  0  0  0  0  0  0  0  0
   64.1650   33.4110   49.0330 C   0  0  0  0  0  0  0  0  0  0  0  0
   63.2380   33.4730   46.7900 C   0  0  0  0  0  0  0  0  0  0  0  0
   59.1870   29.4550   45.7520 C   0  0  0  0  0  0  0  0  0  0  0  0
   59.7000   28.2120   46.1710 C   0  0  0  0  0  0  0  0  0  0  0  0
   59.2800   27.0270   45.5730 C   0  0  0  0  0  0  0  0  0  0  0  0
   58.3210   27.0530   44.5520 C   0  0  0  0  0  0  0  0  0  0  0  0
   57.8400   25.8890   43.9330 O   0  0  0  0  0  0  0  0  0  0  0  0
   57.3090   24.7430   44.6010 C   0  0  0  0  0  0  0  0  0  0  0  0
   57.2380   23.5070   43.6720 C   0  0  0  0  0  0  0  0  0  0  0  0
   57.7090   22.2140   44.2600 N   0  0  0  0  0  0  0  0  0  0  0  0
   59.1770   22.2160   44.4700 C   0  0  0  0  0  0  0  0  0  0  0  0
   57.3800   21.1330   43.2990 C   0  0  0  0  0  0  0  0  0  0  0  0
   57.0250   21.9160   45.5410 C   0  0  0  0  0  0  0  0  0  0  0  0
   57.8070   28.2810   44.1300 C   0  0  0  0  0  0  0  0  0  0  0  0
   58.2530   29.5060   44.6860 C   0  0  0  0  0  0  0  0  0  0  0  0
   55.9904   30.9232   43.1299 H   0  0  0  0  0  0  0  0  0  0  0  0
   57.4326   31.6697   42.3622 H   0  0  0  0  0  0  0  0  0  0  0  0
   57.2383   29.8839   42.3622 H   0  0  0  0  0  0  0  0  0  0  0  0
   56.6052   33.1214   43.8776 H   0  0  0  0  0  0  0  0  0  0  0  0
   57.1040   35.1839   45.1663 H   0  0  0  0  0  0  0  0  0  0  0  0
   58.7833   35.1413   47.0026 H   0  0  0  0  0  0  0  0  0  0  0  0
   59.9388   33.0191   47.5870 H   0  0  0  0  0  0  0  0  0  0  0  0
   60.3350   30.3800   48.3730 H   0  0  0  0  0  0  0  0  0  0  0  0
   62.5232   29.9306   46.8790 H   0  0  0  0  0  0  0  0  0  0  0  0
   62.0678   31.5367   46.2001 H   0  0  0  0  0  0  0  0  0  0  0  0
   61.9223   32.0770   48.8759 H   0  0  0  0  0  0  0  0  0  0  0  0
   63.2432   30.8045   48.8239 H   0  0  0  0  0  0  0  0  0  0  0  0
   64.5370   32.0830   47.5270 H   0  0  0  0  0  0  0  0  0  0  0  0
   63.8782   32.9119   49.9704 H   0  0  0  0  0  0  0  0  0  0  0  0
   65.2595   33.5130   48.9919 H   0  0  0  0  0  0  0  0  0  0  0  0
   63.7020   34.4080   48.9919 H   0  0  0  0  0  0  0  0  0  0  0  0
   62.7569   34.3691   47.2090 H   0  0  0  0  0  0  0  0  0  0  0  0
   64.0962   33.7732   46.1709 H   0  0  0  0  0  0  0  0  0  0  0  0
   62.5137   32.9234   46.1709 H   0  0  0  0  0  0  0  0  0  0  0  0
   60.4426   28.1770   46.9818 H   0  0  0  0  0  0  0  0  0  0  0  0
   59.7027   26.0667   45.9034 H   0  0  0  0  0  0  0  0  0  0  0  0
   57.9525   24.5039   45.4605 H   0  0  0  0  0  0  0  0  0  0  0  0
   56.2850   24.9834   44.9229 H   0  0  0  0  0  0  0  0  0  0  0  0
   56.1893   23.3754   43.3672 H   0  0  0  0  0  0  0  0  0  0  0  0
   57.9260   23.7219   42.8410 H   0  0  0  0  0  0  0  0  0  0  0  0
   59.3931   22.2163   45.5486 H   0  0  0  0  0  0  0  0  0  0  0  0
   59.6146   21.3184   44.0086 H   0  0  0  0  0  0  0  0  0  0  0  0
   59.6122   23.1147   44.0086 H   0  0  0  0  0  0  0  0  0  0  0  0
   57.1031   20.2230   43.8515 H   0  0  0  0  0  0  0  0  0  0  0  0
   56.5373   21.4487   42.6664 H   0  0  0  0  0  0  0  0  0  0  0  0
   58.2557   20.9257   42.6664 H   0  0  0  0  0  0  0  0  0  0  0  0
   57.6774   22.2002   46.3798 H   0  0  0  0  0  0  0  0  0  0  0  0
   56.0863   22.4867   45.5969 H   0  0  0  0  0  0  0  0  0  0  0  0
   56.8038   20.8399   45.5969 H   0  0  0  0  0  0  0  0  0  0  0  0
   57.0359   28.2979   43.3457 H   0  0  0  0  0  0  0  0  0  0  0  0
  1  2  1  0
  2  3  2  0
  3  4  1  0
  4  5  2  0
  5  6  1  0
  6  7  2  0
  7  8  1  0
  8  9  2  0
  9 10  1  0
 10 11  1  0
 11 12  1  0
 12 13  1  0
 13 14  1  0
 13 15  1  0
  9 16  1  0
 16 17  2  0
 17 18  1  0
 18 19  2  0
 19 20  1  0
 20 21  1  0
 21 22  1  0
 22 23  1  0
 23 24  1  0
 23 25  1  0
 23 26  1  0
 19 27  1  0
 27 28  2  0
 28  2  1  0
  8  3  1  0
 28 16  1  0
  1 29  1  0
  1 30  1  0
  1 31  1  0
  4 32  1  0
  5 33  1  0
  6 34  1  0
  7 35  1  0
 10 36  1  0
 11 37  1  0
 11 38  1  0
 12 39  1  0
 12 40  1  0
 13 41  1  0
 14 42  1  0
 14 43  1  0
 14 44  1  0
 15 45  1  0
 15 46  1  0
 15 47  1  0
 17 48  1  0
 18 49  1  0
 21 50  1  0
 21 51  1  0
 22 52  1  0
 22 53  1  0
 24 54  1  0
 24 55  1  0
 24 56  1  0
 25 57  1  0
 25 58  1  0
 25 59  1  0
 26 60  1  0
 26 61  1  0
 26 62  1  0
 27 63  1  0
M  CHG  3   2   1  13   1  23   1
M  END
>  <UniqueID>  (15) 
15

>  <SMILES>  (15) 
C[n+]1c2ccccc2c(NCC[NH+](C)C)c2ccc(OCC[N+](C)(C)C)cc21

>  <Energy>  (15) 
97.41216832440031

>  <Genealogy>  (15) 
C[n+]1c2ccccc2c(NCC[NH+](C)C)c2ccc(OCC[N+](C)(C)C)cc21 (protonated)
C[n+]1c2ccccc2c(NCC[NH+](C)C)c2ccc(OCC[N+](C)(C)C)cc21 (3D coordinates assigned)
C[n+]1c2ccccc2c(NCC[NH+](C)C)c2ccc(OCC[N+](C)(C)C)cc21 (optimized conformer: 97.41216832440031 kcal/mol)

>  <smiles>  (15) 
CN(C)CCNc1c2ccccc2[n+](C)c2cc(OCC[N+](C)(C)C)ccc12

>  <score_type>  (15) 
oracle

>  <origin>  (15) 
adg

>  <m_score__min__energy>  (15) 
-3.23

>  <m_primary>  (15) 
energy

$$$$
16:0
     RDKit          3D

 25 24  0  0  0  0  0  0  0  0999 V2000
   56.9900   30.8370   42.5080 C   0  0  0  0  0  0  0  0  0  0  0  0
   56.2580   30.0600   43.5950 C   0  0  0  0  0  0  0  0  0  0  0  0
   56.3210   30.7970   44.8650 N   0  0  0  0  0  0  0  0  0  0  0  0
   57.5830   31.5440   45.0040 C   0  0  0  0  0  0  0  0  0  0  0  0
   57.3720   32.8980   45.7150 C   0  0  1  0  0  0  0  0  0  0  0  0
   57.9370   32.9090   47.1450 C   0  0  0  0  0  0  0  0  0  0  0  0
   57.8370   34.1180   44.8810 C   0  0  0  0  0  0  0  0  0  0  0  0
   59.2180   34.6700   45.2420 C   0  0  0  0  0  0  0  0  0  0  0  0
   57.6736   31.5626   42.9731 H   0  0  0  0  0  0  0  0  0  0  0  0
   57.5662   30.1388   41.8831 H   0  0  0  0  0  0  0  0  0  0  0  0
   56.2587   31.3706   41.8831 H   0  0  0  0  0  0  0  0  0  0  0  0
   55.2060   29.9266   43.3025 H   0  0  0  0  0  0  0  0  0  0  0  0
   56.7359   29.0775   43.7223 H   0  0  0  0  0  0  0  0  0  0  0  0
   56.2670   30.0950   45.6400 H   0  0  0  0  0  0  0  0  0  0  0  0
   58.2914   30.9404   45.5904 H   0  0  0  0  0  0  0  0  0  0  0  0
   57.9747   31.7444   43.9958 H   0  0  0  0  0  0  0  0  0  0  0  0
   56.2817   33.0097   45.8083 H   0  0  0  0  0  0  0  0  0  0  0  0
   57.1074   32.8928   47.8672 H   0  0  0  0  0  0  0  0  0  0  0  0
   58.5714   32.0230   47.2954 H   0  0  0  0  0  0  0  0  0  0  0  0
   58.5364   33.8190   47.2954 H   0  0  0  0  0  0  0  0  0  0  0  0
   57.8570   33.8183   43.8228 H   0  0  0  0  0  0  0  0  0  0  0  0
   57.1213   34.9247   45.0977 H   0  0  0  0  0  0  0  0  0  0  0  0
   59.3217   34.7115   46.3363 H   0  0  0  0  0  0  0  0  0  0  0  0
   59.9958   34.0137   44.8246 H   0  0  0  0  0  0  0  0  0  0  0  0
   59.3291   35.6816   44.8246 H   0  0  0  0  0  0  0  0  0  0  0  0
  1  2  1  0
  2  3  1  0
  3  4  1  0
  4  5  1  0
  5  6  1  0
  5  7  1  0
  7  8  1  0
  1  9  1  0
  1 10  1  0
  1 11  1  0
  2 12  1  0
  2 13  1  0
  3 14  1  0
  4 15  1  0
  4 16  1  0
  5 17  1  1
  6 18  1  0
  6 19  1  0
  6 20  1  0
  7 21  1  0
  7 22  1  0
  8 23  1  0
  8 24  1  0
  8 25  1  0
M  END
>  <UniqueID>  (16) 
16

>  <SMILES>  (16) 
CCNC[C@@H](C)CC

>  <Energy>  (16) 
13.823113481544747

>  <Genealogy>  (16) 
CCNC[C@@H](C)CC (chirality)
CCNC[C@@H](C)CC (3D coordinates assigned)
CCNC[C@@H](C)CC (optimized conformer: 13.823113481544747 kcal/mol)

>  <smiles>  (16) 
CCNCC(C)CC

>  <score_type>  (16) 
oracle

>  <origin>  (16) 
adg

>  <m_score__min__energy>  (16) 
-4.1799999999999997

>  <m_primary>  (16) 
energy

$$$$
17:0
     RDKit          3D

 47 48  0  0  0  0  0  0  0  0999 V2000
   62.7780   32.4140   47.5740 C   0  0  0  0  0  0  0  0  0  0  0  0
   62.9990   32.5770   49.0760 C   0  0  0  0  0  0  0  0  0  0  0  0
   61.9840   31.8350   49.8400 N   0  0  0  0  0  0  0  0  0  0  0  0
   62.5790   30.6460   50.4710 C   0  0  0  0  0  0  0  0  0  0  0  0
   61.5550   29.5090   50.6030 C   0  0  0  0  0  0  0  0  0  0  0  0
   60.2450   29.9040   50.0650 N   0  0  0  0  0  0  0  0  0  0  0  0
   59.2630   30.1150   51.1350 C   0  0  0  0  0  0  0  0  0  0  0  0
   58.6480   31.5100   51.0100 C   0  0  0  0  0  0  0  0  0  0  0  0
   59.4670   32.3530   50.1990 O   0  0  0  0  0  0  0  0  0  0  0  0
   59.1920   32.7290   48.8740 C   0  0  0  0  0  0  0  0  0  0  0  0
   59.5760   34.0120   48.4630 C   0  0  0  0  0  0  0  0  0  0  0  0
   59.3300   34.4480   47.1580 C   0  0  0  0  0  0  0  0  0  0  0  0
   58.6930   33.5980   46.2390 C   0  0  0  0  0  0  0  0  0  0  0  0
   58.4210   33.9890   44.9180 C   0  0  0  0  0  0  0  0  0  0  0  0
   58.7380   35.1350   44.4990 O   0  0  0  0  0  0  0  0  0  0  0  0
   57.7860   33.0930   44.0570 C   0  0  0  0  0  0  0  0  0  0  0  0
   57.4390   31.8200   44.5300 C   0  0  0  0  0  0  0  0  0  0  0  0
   56.7380   30.8380   43.6380 C   0  0  0  0  0  0  0  0  0  0  0  0
   56.1360   29.7030   44.4580 C   0  0  0  0  0  0  0  0  0  0  0  0
   57.7050   31.4800   45.7880 O   0  0  0  0  0  0  0  0  0  0  0  0
   58.3070   32.3000   46.6450 C   0  0  0  0  0  0  0  0  0  0  0  0
   58.5580   31.8730   47.9530 C   0  0  0  0  0  0  0  0  0  0  0  0
   61.9039   31.7693   47.3998 H   0  0  0  0  0  0  0  0  0  0  0  0
   62.6023   33.4004   47.1201 H   0  0  0  0  0  0  0  0  0  0  0  0
   63.6686   31.9548   47.1201 H   0  0  0  0  0  0  0  0  0  0  0  0
   63.9968   32.1944   49.3367 H   0  0  0  0  0  0  0  0  0  0  0  0
   62.9183   33.6444   49.3291 H   0  0  0  0  0  0  0  0  0  0  0  0
   61.2160   31.5370   49.1930 H   0  0  0  0  0  0  0  0  0  0  0  0
   61.5910   32.4620   50.5820 H   0  0  0  0  0  0  0  0  0  0  0  0
   63.4220   30.2985   49.8557 H   0  0  0  0  0  0  0  0  0  0  0  0
   62.9195   30.9235   51.4795 H   0  0  0  0  0  0  0  0  0  0  0  0
   61.9202   28.6319   50.0487 H   0  0  0  0  0  0  0  0  0  0  0  0
   61.4347   29.2727   51.6706 H   0  0  0  0  0  0  0  0  0  0  0  0
   59.8960   29.1160   49.4690 H   0  0  0  0  0  0  0  0  0  0  0  0
   58.4689   29.3579   51.0557 H   0  0  0  0  0  0  0  0  0  0  0  0
   59.7651   30.0267   52.1097 H   0  0  0  0  0  0  0  0  0  0  0  0
   57.6517   31.4254   50.5514 H   0  0  0  0  0  0  0  0  0  0  0  0
   58.5703   31.9530   52.0139 H   0  0  0  0  0  0  0  0  0  0  0  0
   60.0768   34.6840   49.1754 H   0  0  0  0  0  0  0  0  0  0  0  0
   59.6359   35.4588   46.8501 H   0  0  0  0  0  0  0  0  0  0  0  0
   57.5606   33.3822   43.0199 H   0  0  0  0  0  0  0  0  0  0  0  0
   55.9350   31.3548   43.0920 H   0  0  0  0  0  0  0  0  0  0  0  0
   57.4684   30.4165   42.9317 H   0  0  0  0  0  0  0  0  0  0  0  0
   56.2526   29.9229   45.5295 H   0  0  0  0  0  0  0  0  0  0  0  0
   55.0670   29.6043   44.2182 H   0  0  0  0  0  0  0  0  0  0  0  0
   56.6539   28.7626   44.2182 H   0  0  0  0  0  0  0  0  0  0  0  0
   58.2581   30.8615   48.2644 H   0  0  0  0  0  0  0  0  0  0  0  0
  1  2  1  0
  2  3  1  0
  3  4  1  0
  4  5  1  0
  5  6  1  0
  6  7  1  0
  7  8  1  0
  8  9  1  0
  9 10  1  0
 10 11  2  0
 11 12  1  0
 12 13  2  0
 13 14  1  0
 14 15  2  0
 14 16  1  0
 16 17  2  0
 17 18  1  0
 18 19  1  0
 17 20  1  0
 20 21  1  0
 21 22  2  0
 22 10  1  0
 21 13  1  0
  1 23  1  0
  1 24  1  0
  1 25  1  0
  2 26  1  0
  2 27  1  0
  3 28  1  0
  3 29  1  0
  4 30  1  0
  4 31  1  0
  5 32  1  0
  5 33  1  0
  6 34  1  0
  7 35  1  0
  7 36  1  0
  8 37  1  0
  8 38  1  0
 11 39  1  0
 12 40  1  0
 16 41  1  0
 18 42  1  0
 18 43  1  0
 19 44  1  0
 19 45  1  0
 19 46  1  0
 22 47  1  0
M  CHG  1   3   1
M  END
>  <UniqueID>  (17) 
17

>  <SMILES>  (17) 
CC[NH2+]CCNCCOc1ccc2c(=O)cc(CC)oc2c1

>  <Energy>  (17) 
40.19968874429847

>  <Genealogy>  (17) 
CC[NH2+]CCNCCOc1ccc2c(=O)cc(CC)oc2c1 (protonated)
CC[NH2+]CCNCCOc1ccc2c(=O)cc(CC)oc2c1 (3D coordinates assigned)
CC[NH2+]CCNCCOc1ccc2c(=O)cc(CC)oc2c1 (optimized conformer: 40.19968874429847 kcal/mol)

>  <smiles>  (17) 
CCNCCNCCOc1ccc2c(=O)cc(CC)oc2c1

>  <score_type>  (17) 
oracle

>  <origin>  (17) 
adg

>  <m_score__min__energy>  (17) 
-5

>  <m_primary>  (17) 
energy

$$$$
18:0
     RDKit          3D

 70 73  0  0  0  0  0  0  0  0999 V2000
   62.0170   30.6340   50.1270 C   0  0  0  0  0  0  0  0  0  0  0  0
   62.0890   30.9020   48.6230 C   0  0  0  0  0  0  0  0  0  0  0  0
   62.3030   32.3390   48.3310 N   0  0  0  0  0  0  0  0  0  0  0  0
   62.5690   32.5590   46.8910 C   0  0  0  0  0  0  0  0  0  0  0  0
   63.3240   33.8660   46.6410 C   0  0  0  0  0  0  0  0  0  0  0  0
   63.2570   33.0170   49.2530 C   0  0  0  0  0  0  0  0  0  0  0  0
   62.7470   34.2990   49.9580 C   0  0  0  0  0  0  0  0  0  0  0  0
   61.5080   34.1200   50.6180 O   0  0  0  0  0  0  0  0  0  0  0  0
   61.6630   33.4890   51.8790 C   0  0  0  0  0  0  0  0  0  0  0  0
   60.3260   32.9650   52.4150 C   0  0  0  0  0  0  0  0  0  0  0  0
   59.2680   33.6340   51.7570 O   0  0  0  0  0  0  0  0  0  0  0  0
   58.0840   32.8550   51.7580 C   0  0  0  0  0  0  0  0  0  0  0  0
   58.0490   31.8990   50.5560 C   0  0  0  0  0  0  0  0  0  0  0  0
   59.1540   32.1710   49.6360 N   0  0  0  0  0  0  0  0  0  0  0  0
   59.0180   31.9510   48.2200 C   0  0  0  0  0  0  0  0  0  0  0  0
   58.8470   30.6460   47.7190 C   0  0  0  0  0  0  0  0  0  0  0  0
   58.5890   30.4480   46.3380 C   0  0  0  0  0  0  0  0  0  0  0  0
   58.4440   31.5510   45.5100 N   0  0  0  0  0  0  0  0  0  0  0  0
   57.8120   31.4110   44.1790 C   0  0  0  0  0  0  0  0  0  0  0  0
   58.8630   32.7980   45.9390 C   0  0  0  0  0  0  0  0  0  0  0  0
   59.0590   33.8760   45.0350 C   0  0  0  0  0  0  0  0  0  0  0  0
   59.4360   35.1350   45.4890 C   0  0  0  0  0  0  0  0  0  0  0  0
   59.6320   35.3590   46.8480 C   0  0  0  0  0  0  0  0  0  0  0  0
   59.4760   34.3170   47.7580 C   0  0  0  0  0  0  0  0  0  0  0  0
   59.1230   33.0230   47.3170 C   0  0  0  0  0  0  0  0  0  0  0  0
   58.5720   29.0210   45.8340 C   0  0  0  0  0  0  0  0  0  0  0  0
   58.1360   28.7030   44.5820 N   0  0  0  0  0  0  0  0  0  0  0  0
   58.1280   27.4330   44.1010 C   0  0  0  0  0  0  0  0  0  0  0  0
   58.5980   26.3870   44.8910 C   0  0  0  0  0  0  0  0  0  0  0  0
   59.0720   26.6630   46.1700 C   0  0  0  0  0  0  0  0  0  0  0  0
   59.0530   27.9780   46.6580 C   0  0  0  0  0  0  0  0  0  0  0  0
   59.6420   28.2870   48.0030 C   0  0  0  0  0  0  0  0  0  0  0  0
   58.8990   29.4510   48.6490 C   0  0  0  0  0  0  0  0  0  0  0  0
   62.2644   31.5547   50.6758 H   0  0  0  0  0  0  0  0  0  0  0  0
   61.0000   30.3103   50.3935 H   0  0  0  0  0  0  0  0  0  0  0  0
   62.7348   29.8442   50.3935 H   0  0  0  0  0  0  0  0  0  0  0  0
   62.9226   30.3240   48.1976 H   0  0  0  0  0  0  0  0  0  0  0  0
   61.1306   30.6005   48.1751 H   0  0  0  0  0  0  0  0  0  0  0  0
   63.1720   31.7219   46.5093 H   0  0  0  0  0  0  0  0  0  0  0  0
   61.6010   32.6211   46.3722 H   0  0  0  0  0  0  0  0  0  0  0  0
   63.5897   34.3260   47.6042 H   0  0  0  0  0  0  0  0  0  0  0  0
   64.2403   33.6566   46.0695 H   0  0  0  0  0  0  0  0  0  0  0  0
   62.6848   34.5551   46.0695 H   0  0  0  0  0  0  0  0  0  0  0  0
   63.5364   32.2949   50.0344 H   0  0  0  0  0  0  0  0  0  0  0  0
   64.0906   33.3480   48.6162 H   0  0  0  0  0  0  0  0  0  0  0  0
   63.4963   34.6106   50.7006 H   0  0  0  0  0  0  0  0  0  0  0  0
   62.5940   35.0602   49.1788 H   0  0  0  0  0  0  0  0  0  0  0  0
   62.3605   32.6451   51.7727 H   0  0  0  0  0  0  0  0  0  0  0  0
   62.0518   34.2323   52.5906 H   0  0  0  0  0  0  0  0  0  0  0  0
   60.2519   31.8839   52.2260 H   0  0  0  0  0  0  0  0  0  0  0  0
   60.2637   33.1492   53.4977 H   0  0  0  0  0  0  0  0  0  0  0  0
   58.0422   32.2664   52.6863 H   0  0  0  0  0  0  0  0  0  0  0  0
   57.2202   33.5327   51.6902 H   0  0  0  0  0  0  0  0  0  0  0  0
   58.1291   30.8633   50.9179 H   0  0  0  0  0  0  0  0  0  0  0  0
   57.1011   32.0476   50.0181 H   0  0  0  0  0  0  0  0  0  0  0  0
   59.9720   32.7170   49.9900 H   0  0  0  0  0  0  0  0  0  0  0  0
   56.7449   31.1746   44.3028 H   0  0  0  0  0  0  0  0  0  0  0  0
   57.9165   32.3541   43.6225 H   0  0  0  0  0  0  0  0  0  0  0  0
   58.3050   30.6003   43.6225 H   0  0  0  0  0  0  0  0  0  0  0  0
   58.9100   33.7120   43.9575 H   0  0  0  0  0  0  0  0  0  0  0  0
   59.5797   35.9563   44.7715 H   0  0  0  0  0  0  0  0  0  0  0  0
   59.9108   36.3616   47.2043 H   0  0  0  0  0  0  0  0  0  0  0  0
   59.6293   34.5037   48.8312 H   0  0  0  0  0  0  0  0  0  0  0  0
   57.7504   27.2307   43.0878 H   0  0  0  0  0  0  0  0  0  0  0  0
   58.5946   25.3555   44.5089 H   0  0  0  0  0  0  0  0  0  0  0  0
   59.4620   25.8491   46.7989 H   0  0  0  0  0  0  0  0  0  0  0  0
   59.5590   27.4001   48.6484 H   0  0  0  0  0  0  0  0  0  0  0  0
   60.6995   28.5623   47.8768 H   0  0  0  0  0  0  0  0  0  0  0  0
   57.8724   29.1350   48.8862 H   0  0  0  0  0  0  0  0  0  0  0  0
   59.4340   29.7430   49.5647 H   0  0  0  0  0  0  0  0  0  0  0  0
  1  2  1  0
  2  3  1  0
  3  4  1  0
  4  5  1  0
  3  6  1  0
  6  7  1  0
  7  8  1  0
  8  9  1  0
  9 10  1  0
 10 11  1  0
 11 12  1  0
 12 13  1  0
 13 14  1  0
 14 15  1  0
 15 16  2  0
 16 17  1  0
 17 18  2  0
 18 19  1  0
 18 20  1  0
 20 21  2  0
 21 22  1  0
 22 23  2  0
 23 24  1  0
 24 25  2  0
 17 26  1  0
 26 27  2  0
 27 28  1  0
 28 29  2  0
 29 30  1  0
 30 31  2  0
 31 32  1  0
 32 33  1  0
 25 15  1  0
 31 26  1  0
 33 16  1  0
 25 20  1  0
  1 34  1  0
  1 35  1  0
  1 36  1  0
  2 37  1  0
  2 38  1  0
  4 39  1  0
  4 40  1  0
  5 41  1  0
  5 42  1  0
  5 43  1  0
  6 44  1  0
  6 45  1  0
  7 46  1  0
  7 47  1  0
  9 48  1  0
  9 49  1  0
 10 50  1  0
 10 51  1  0
 12 52  1  0
 12 53  1  0
 13 54  1  0
 13 55  1  0
 14 56  1  0
 19 57  1  0
 19 58  1  0
 19 59  1  0
 21 60  1  0
 22 61  1  0
 23 62  1  0
 24 63  1  0
 28 64  1  0
 29 65  1  0
 30 66  1  0
 32 67  1  0
 32 68  1  0
 33 69  1  0
 33 70  1  0
M  CHG  1  18   1
M  END
>  <UniqueID>  (18) 
18

>  <SMILES>  (18) 
CCN(CC)CCOCCOCCNc1c2c([n+](C)c3ccccc13)-c1ncccc1CC2

>  <Energy>  (18) 
113.47525691036569

>  <Genealogy>  (18) 
CCN(CC)CCOCCOCCNc1c2c([n+](C)c3ccccc13)-c1ncccc1CC2 (3D coordinates assigned)
CCN(CC)CCOCCOCCNc1c2c([n+](C)c3ccccc13)-c1ncccc1CC2 (nonaromatic ring conformer: 113.47525691036569 kcal/mol)

>  <smiles>  (18) 
CCN(CC)CCOCCOCCNc1c2c([n+](C)c3ccccc13)-c1ncccc1CC2

>  <score_type>  (18) 
oracle

>  <origin>  (18) 
adg

>  <m_score__min__energy>  (18) 
-6.0800000000000001

>  <m_primary>  (18) 
energy

$$$$
19:0
     RDKit          3D

 48 50  0  0  0  0  0  0  0  0999 V2000
   57.0190   34.2220   45.3620 C   0  0  0  0  0  0  0  0  0  0  0  0
   57.7170   33.1620   44.5140 C   0  0  0  0  0  0  0  0  0  0  0  0
   58.4440   32.2060   45.3760 N   0  0  0  0  0  0  0  0  0  0  0  0
   59.6080   32.5700   46.0120 C   0  0  0  0  0  0  0  0  0  0  0  0
   60.2550   34.2570   45.9420 S   0  0  0  0  0  0  0  0  0  0  0  0
   60.0550   34.5960   47.7320 C   0  0  0  0  0  0  0  0  0  0  0  0
   60.9430   33.6890   48.5920 C   0  0  0  0  0  0  0  0  0  0  0  0
   62.3610   34.1060   48.5130 N   0  0  0  0  0  0  0  0  0  0  0  0
   63.1770   33.5140   49.5900 C   0  0  0  0  0  0  0  0  0  0  0  0
   63.4020   32.0000   49.3690 C   0  0  0  0  0  0  0  0  0  0  0  0
   63.1420   31.5840   48.0390 O   0  0  0  0  0  0  0  0  0  0  0  0
   63.7090   32.4980   47.1260 C   0  0  0  0  0  0  0  0  0  0  0  0
   62.9650   33.8480   47.1830 C   0  0  0  0  0  0  0  0  0  0  0  0
   60.3200   31.6500   46.7140 N   0  0  0  0  0  0  0  0  0  0  0  0
   59.8900   30.3700   46.8650 C   0  0  0  0  0  0  0  0  0  0  0  0
   58.6790   29.9760   46.2720 C   0  0  0  0  0  0  0  0  0  0  0  0
   57.9880   30.9150   45.4870 C   0  0  0  0  0  0  0  0  0  0  0  0
   56.9420   30.5540   44.8770 O   0  0  0  0  0  0  0  0  0  0  0  0
   58.1840   28.5460   46.3620 C   0  0  0  0  0  0  0  0  0  0  0  0
   58.8170   27.7720   47.5230 C   0  0  0  0  0  0  0  0  0  0  0  0
   60.3320   27.9660   47.5270 C   0  0  0  0  0  0  0  0  0  0  0  0
   60.6740   29.4390   47.7600 C   0  0  0  0  0  0  0  0  0  0  0  0
   57.1682   33.9954   46.4280 H   0  0  0  0  0  0  0  0  0  0  0  0
   57.4430   35.2112   45.1345 H   0  0  0  0  0  0  0  0  0  0  0  0
   55.9428   34.2233   45.1345 H   0  0  0  0  0  0  0  0  0  0  0  0
   56.9651   32.6178   43.9237 H   0  0  0  0  0  0  0  0  0  0  0  0
   58.4370   33.6578   43.8463 H   0  0  0  0  0  0  0  0  0  0  0  0
   60.3243   35.6446   47.9270 H   0  0  0  0  0  0  0  0  0  0  0  0
   59.0068   34.3975   48.0000 H   0  0  0  0  0  0  0  0  0  0  0  0
   60.6090   33.7461   49.6385 H   0  0  0  0  0  0  0  0  0  0  0  0
   60.8593   32.6585   48.2165 H   0  0  0  0  0  0  0  0  0  0  0  0
   64.1535   34.0196   49.6167 H   0  0  0  0  0  0  0  0  0  0  0  0
   62.6393   33.6462   50.5405 H   0  0  0  0  0  0  0  0  0  0  0  0
   64.4487   31.7634   49.6108 H   0  0  0  0  0  0  0  0  0  0  0  0
   62.6956   31.4663   50.0219 H   0  0  0  0  0  0  0  0  0  0  0  0
   64.7670   32.6564   47.3818 H   0  0  0  0  0  0  0  0  0  0  0  0
   63.6229   32.0863   46.1096 H   0  0  0  0  0  0  0  0  0  0  0  0
   63.6784   34.6542   46.9568 H   0  0  0  0  0  0  0  0  0  0  0  0
   62.1493   33.8124   46.4458 H   0  0  0  0  0  0  0  0  0  0  0  0
   61.2190   31.9410   47.1610 H   0  0  0  0  0  0  0  0  0  0  0  0
   57.0930   28.5596   46.5017 H   0  0  0  0  0  0  0  0  0  0  0  0
   58.4689   28.0370   45.4294 H   0  0  0  0  0  0  0  0  0  0  0  0
   58.4018   28.1394   48.4730 H   0  0  0  0  0  0  0  0  0  0  0  0
   58.5940   26.7016   47.4027 H   0  0  0  0  0  0  0  0  0  0  0  0
   60.7742   27.3586   48.3304 H   0  0  0  0  0  0  0  0  0  0  0  0
   60.7372   27.6524   46.5536 H   0  0  0  0  0  0  0  0  0  0  0  0
   60.4529   29.6898   48.8080 H   0  0  0  0  0  0  0  0  0  0  0  0
   61.7402   29.5730   47.5249 H   0  0  0  0  0  0  0  0  0  0  0  0
  1  2  1  0
  2  3  1  0
  3  4  1  0
  4  5  1  0
  5  6  1  0
  6  7  1  0
  7  8  1  0
  8  9  1  0
  9 10  1  0
 10 11  1  0
 11 12  1  0
 12 13  1  0
  4 14  2  0
 14 15  1  0
 15 16  2  0
 16 17  1  0
 17 18  2  0
 16 19  1  0
 19 20  1  0
 20 21  1  0
 21 22  1  0
 17  3  1  0
 13  8  1  0
 22 15  1  0
  1 23  1  0
  1 24  1  0
  1 25  1  0
  2 26  1  0
  2 27  1  0
  6 28  1  0
  6 29  1  0
  7 30  1  0
  7 31  1  0
  9 32  1  0
  9 33  1  0
 10 34  1  0
 10 35  1  0
 12 36  1  0
 12 37  1  0
 13 38  1  0
 13 39  1  0
 14 40  1  0
 19 41  1  0
 19 42  1  0
 20 43  1  0
 20 44  1  0
 21 45  1  0
 21 46  1  0
 22 47  1  0
 22 48  1  0
M  CHG  1  14   1
M  END
>  <UniqueID>  (19) 
19

>  <SMILES>  (19) 
CCn1c(SCCN2CCOCC2)[nH+]c2c(c1=O)CCCC2

>  <Energy>  (19) 
54.874376930840825

>  <Genealogy>  (19) 
CCn1c(SCCN2CCOCC2)[nH+]c2c(c1=O)CCCC2 (protonated)
CCn1c(SCCN2CCOCC2)[nH+]c2c(c1=O)CCCC2 (3D coordinates assigned)
CCn1c(SCCN2CCOCC2)[nH+]c2c(c1=O)CCCC2 (nonaromatic ring conformer: 54.874376930840825 kcal/mol)

>  <smiles>  (19) 
CCn1c(SCCN2CCOCC2)nc2c(c1=O)CCCC2

>  <score_type>  (19) 
oracle

>  <origin>  (19) 
adg

>  <m_score__min__energy>  (19) 
-5.5499999999999998

>  <m_primary>  (19) 
energy

$$$$
20:0
     RDKit          3D

 32 35  0  0  0  0  0  0  0  0999 V2000
   64.5080   34.1150   51.6200 C   0  0  0  0  0  0  0  0  0  0  0  0
   63.7680   34.5830   50.4980 O   0  0  0  0  0  0  0  0  0  0  0  0
   63.0550   33.7560   49.6190 C   0  0  0  0  0  0  0  0  0  0  0  0
   63.5750   32.5140   49.1560 C   0  0  0  0  0  0  0  0  0  0  0  0
   62.8300   31.7030   48.2820 C   0  0  0  0  0  0  0  0  0  0  0  0
   61.6110   32.1870   47.8250 C   0  0  0  0  0  0  0  0  0  0  0  0
   61.0670   33.3740   48.3140 C   0  0  0  0  0  0  0  0  0  0  0  0
   61.7770   34.1770   49.2000 C   0  0  0  0  0  0  0  0  0  0  0  0
   59.7740   33.6050   47.8090 O   0  0  0  0  0  0  0  0  0  0  0  0
   59.7060   32.7090   46.7120 C   0  0  2  0  0  0  0  0  0  0  0  0
   58.5480   32.0170   46.1130 C   0  0  0  0  0  0  0  0  0  0  0  0
   59.0920   30.8360   45.6250 C   0  0  0  0  0  0  0  0  0  0  0  0
   58.3780   30.0480   44.7320 C   0  0  0  0  0  0  0  0  0  0  0  0
   57.1110   30.5210   44.3290 C   0  0  0  0  0  0  0  0  0  0  0  0
   56.2800   29.7160   43.3830 C   0  0  0  0  0  0  0  0  0  0  0  0
   56.6520   31.7030   44.7690 O   0  0  0  0  0  0  0  0  0  0  0  0
   57.3370   32.4800   45.6140 C   0  0  0  0  0  0  0  0  0  0  0  0
   56.8960   33.6130   45.9370 O   0  0  0  0  0  0  0  0  0  0  0  0
   60.3830   30.6010   46.1310 O   0  0  0  0  0  0  0  0  0  0  0  0
   60.4520   31.4990   47.2260 C   0  0  1  0  0  0  0  0  0  0  0  0
   64.0076   34.4314   52.5471 H   0  0  0  0  0  0  0  0  0  0  0  0
   64.5641   33.0168   51.5901 H   0  0  0  0  0  0  0  0  0  0  0  0
   65.5242   34.5350   51.5901 H   0  0  0  0  0  0  0  0  0  0  0  0
   64.5714   32.1851   49.4860 H   0  0  0  0  0  0  0  0  0  0  0  0
   63.2011   30.7157   47.9698 H   0  0  0  0  0  0  0  0  0  0  0  0
   61.3496   35.1220   49.5665 H   0  0  0  0  0  0  0  0  0  0  0  0
   59.9780   33.4223   45.9200 H   0  0  0  0  0  0  0  0  0  0  0  0
   58.7822   29.0969   44.3553 H   0  0  0  0  0  0  0  0  0  0  0  0
   55.6046   29.0617   43.9538 H   0  0  0  0  0  0  0  0  0  0  0  0
   55.6870   30.3920   42.7495 H   0  0  0  0  0  0  0  0  0  0  0  0
   56.9368   29.1018   42.7495 H   0  0  0  0  0  0  0  0  0  0  0  0
   60.1784   30.7875   48.0191 H   0  0  0  0  0  0  0  0  0  0  0  0
  1  2  1  0
  2  3  1  0
  3  4  2  0
  4  5  1  0
  5  6  2  0
  6  7  1  0
  7  8  2  0
  7  9  1  0
  9 10  1  0
 10 11  1  0
 11 12  2  0
 12 13  1  0
 13 14  2  0
 14 15  1  0
 14 16  1  0
 16 17  1  0
 17 18  2  0
 12 19  1  0
 19 20  1  0
  8  3  1  0
 20 10  1  0
 20  6  1  0
 17 11  1  0
  1 21  1  0
  1 22  1  0
  1 23  1  0
  4 24  1  0
  5 25  1  0
  8 26  1  0
 10 27  1  6
 13 28  1  0
 15 29  1  0
 15 30  1  0
 15 31  1  0
 20 32  1  1
M  END
>  <UniqueID>  (20) 
20

>  <SMILES>  (20) 
COc1ccc2c(c1)O[C@@H]1c3c(cc(C)oc3=O)O[C@@H]21

>  <Energy>  (20) 
141.5347076052534

>  <Genealogy>  (20) 
COc1ccc2c(c1)O[C@@H]1c3c(cc(C)oc3=O)O[C@@H]21 (chirality)
COc1ccc2c(c1)O[C@@H]1c3c(cc(C)oc3=O)O[C@@H]21 (3D coordinates assigned)
COc1ccc2c(c1)O[C@@H]1c3c(cc(C)oc3=O)O[C@@H]21 (nonaromatic ring conformer: 141.5347076052534 kcal/mol)

>  <smiles>  (20) 
COc1ccc2c(c1)OC1c3c(cc(C)oc3=O)OC21

>  <score_type>  (20) 
oracle

>  <origin>  (20) 
adg

>  <m_score__min__energy>  (20) 
-5.6799999999999997

>  <m_primary>  (20) 
energy

$$$$
21:0
     RDKit          3D

 47 49  0  0  0  0  0  0  0  0999 V2000
   57.0200   30.9780   43.0290 C   0  0  0  0  0  0  0  0  0  0  0  0
   56.4780   29.5630   43.2100 C   0  0  0  0  0  0  0  0  0  0  0  0
   57.1240   28.8660   44.4220 C   0  0  0  0  0  0  0  0  0  0  0  0
   58.4610   28.2910   44.0940 N   0  0  1  0  0  0  0  0  0  0  0  0
   59.5870   29.1750   44.5120 C   0  0  0  0  0  0  0  0  0  0  0  0
   60.1700   28.8830   45.9050 C   0  0  0  0  0  0  0  0  0  0  0  0
   59.1200   28.7900   46.9230 N   0  0  0  0  0  0  0  0  0  0  0  0
   58.8020   29.9640   47.6910 C   0  0  0  0  0  0  0  0  0  0  0  0
   58.5580   29.8560   48.9240 O   0  0  0  0  0  0  0  0  0  0  0  0
   58.7450   31.3000   47.0720 C   0  0  0  0  0  0  0  0  0  0  0  0
   59.6640   32.3170   47.2210 C   0  0  0  0  0  0  0  0  0  0  0  0
   59.2680   33.3150   46.4710 O   0  0  0  0  0  0  0  0  0  0  0  0
   58.1640   32.9330   45.8690 C   0  0  0  0  0  0  0  0  0  0  0  0
   57.3870   33.8000   44.9390 C   0  0  0  0  0  0  0  0  0  0  0  0
   57.7900   31.6790   46.2030 N   0  0  0  0  0  0  0  0  0  0  0  0
   58.2310   27.6210   47.0170 C   0  0  0  0  0  0  0  0  0  0  0  0
   58.5460   26.4940   46.0010 C   0  0  2  0  0  0  0  0  0  0  0  0
   58.6460   26.8560   44.4750 C   0  0  1  0  0  0  0  0  0  0  0  0
   57.7370   25.9060   43.6330 C   0  0  0  0  0  0  0  0  0  0  0  0
   56.6700   25.2460   44.5000 C   0  0  0  0  0  0  0  0  0  0  0  0
   57.3350   25.2010   46.1240 S   0  0  0  0  0  0  0  0  0  0  0  0
   56.2710   25.4750   47.1530 O   0  0  0  0  0  0  0  0  0  0  0  0
   57.9910   23.8760   46.3930 O   0  0  0  0  0  0  0  0  0  0  0  0
   57.1942   31.4329   44.0153 H   0  0  0  0  0  0  0  0  0  0  0  0
   57.9670   30.9393   42.4706 H   0  0  0  0  0  0  0  0  0  0  0  0
   56.2895   31.5818   42.4706 H   0  0  0  0  0  0  0  0  0  0  0  0
   55.3899   29.6132   43.3637 H   0  0  0  0  0  0  0  0  0  0  0  0
   56.7176   28.9818   42.3074 H   0  0  0  0  0  0  0  0  0  0  0  0
   57.2433   29.6012   45.2315 H   0  0  0  0  0  0  0  0  0  0  0  0
   56.4659   28.0389   44.7266 H   0  0  0  0  0  0  0  0  0  0  0  0
   58.5380   28.2870   43.0480 H   0  0  0  0  0  0  0  0  0  0  0  0
   60.3964   29.0657   43.7752 H   0  0  0  0  0  0  0  0  0  0  0  0
   59.1719   30.1924   44.5633 H   0  0  0  0  0  0  0  0  0  0  0  0
   60.7177   27.9297   45.8696 H   0  0  0  0  0  0  0  0  0  0  0  0
   60.8395   29.7122   46.1774 H   0  0  0  0  0  0  0  0  0  0  0  0
   60.5639   32.2943   47.8532 H   0  0  0  0  0  0  0  0  0  0  0  0
   56.7638   34.4954   45.5205 H   0  0  0  0  0  0  0  0  0  0  0  0
   58.0806   34.3717   44.3050 H   0  0  0  0  0  0  0  0  0  0  0  0
   56.7429   33.1729   44.3050 H   0  0  0  0  0  0  0  0  0  0  0  0
   58.3172   27.2039   48.0312 H   0  0  0  0  0  0  0  0  0  0  0  0
   57.2168   27.9783   46.7851 H   0  0  0  0  0  0  0  0  0  0  0  0
   59.5639   26.2097   46.3060 H   0  0  0  0  0  0  0  0  0  0  0  0
   59.7057   26.6903   44.2311 H   0  0  0  0  0  0  0  0  0  0  0  0
   57.2445   26.4901   42.8416 H   0  0  0  0  0  0  0  0  0  0  0  0
   58.3684   25.1166   43.1992 H   0  0  0  0  0  0  0  0  0  0  0  0
   55.7423   25.8368   44.4821 H   0  0  0  0  0  0  0  0  0  0  0  0
   56.4191   24.2384   44.1369 H   0  0  0  0  0  0  0  0  0  0  0  0
  1  2  1  0
  2  3  1  0
  3  4  1  0
  4  5  1  0
  5  6  1  0
  6  7  1  0
  7  8  1  0
  8  9  2  0
  8 10  1  0
 10 11  2  0
 11 12  1  0
 12 13  1  0
 13 14  1  0
 13 15  2  0
  7 16  1  0
 16 17  1  0
 17 18  1  0
 18 19  1  0
 19 20  1  0
 20 21  1  0
 21 22  2  0
 21 23  2  0
 18  4  1  0
 15 10  1  0
 21 17  1  0
  1 24  1  0
  1 25  1  0
  1 26  1  0
  2 27  1  0
  2 28  1  0
  3 29  1  0
  3 30  1  0
  4 31  1  6
  5 32  1  0
  5 33  1  0
  6 34  1  0
  6 35  1  0
 11 36  1  0
 14 37  1  0
 14 38  1  0
 14 39  1  0
 16 40  1  0
 16 41  1  0
 17 42  1  1
 18 43  1  6
 19 44  1  0
 19 45  1  0
 20 46  1  0
 20 47  1  0
M  CHG  1   4   1
M  END
>  <UniqueID>  (21) 
21

>  <SMILES>  (21) 
CCC[N@H+]1CCN(C(=O)c2coc(C)n2)C[C@@H]2C1CCS2(=O)=O

>  <Energy>  (21) 
98.31278167487088

>  <Genealogy>  (21) 
CCC[NH+]1CCN(C(=O)c2coc(C)n2)CC2C1CCS2(=O)=O (protonated)
CCC[N@H+]1CCN(C(=O)c2coc(C)n2)C[C@@H]2C1CCS2(=O)=O (chirality)
CCC[N@H+]1CCN(C(=O)c2coc(C)n2)C[C@@H]2C1CCS2(=O)=O (3D coordinates assigned)
CCC[N@H+]1CCN(C(=O)c2coc(C)n2)C[C@@H]2C1CCS2(=O)=O (nonaromatic ring conformer: 98.31278167487088 kcal/mol)

>  <smiles>  (21) 
CCCN1CCN(C(=O)c2coc(C)n2)CC2C1CCS2(=O)=O

>  <score_type>  (21) 
oracle

>  <origin>  (21) 
adg

>  <m_score__min__energy>  (21) 
-3.6200000000000001

>  <m_primary>  (21) 
energy

$$$$
22:0
     RDKit          3D

 47 49  0  0  0  0  0  0  0  0999 V2000
   62.7050   33.4750   46.9490 C   0  0  0  0  0  0  0  0  0  0  0  0
   61.5140   33.9690   47.7840 C   0  0  0  0  0  0  0  0  0  0  0  0
   60.2190   33.9300   47.0630 N   0  0  0  0  0  0  0  0  0  0  0  0
   59.9700   35.1940   46.3310 C   0  0  0  0  0  0  0  0  0  0  0  0
   59.2660   34.9490   45.0000 C   0  0  0  0  0  0  0  0  0  0  0  0
   59.0930   33.5270   47.9460 C   0  0  0  0  0  0  0  0  0  0  0  0
   58.2940   32.3660   47.3360 C   0  0  0  0  0  0  0  0  0  0  0  0
   58.9820   31.7730   46.1860 N   0  0  0  0  0  0  0  0  0  0  0  0
   58.7280   30.4360   45.7240 C   0  0  0  0  0  0  0  0  0  0  0  0
   59.1950   29.3050   46.4350 C   0  0  0  0  0  0  0  0  0  0  0  0
   59.9130   29.4560   47.6390 C   0  0  0  0  0  0  0  0  0  0  0  0
   60.3630   28.3410   48.3420 C   0  0  0  0  0  0  0  0  0  0  0  0
   60.1000   27.0600   47.8670 C   0  0  0  0  0  0  0  0  0  0  0  0
   59.4030   26.8790   46.6730 C   0  0  0  0  0  0  0  0  0  0  0  0
   58.9540   27.9870   45.9160 C   0  0  0  0  0  0  0  0  0  0  0  0
   58.2890   27.8220   44.7090 N   0  0  0  0  0  0  0  0  0  0  0  0
   58.1140   26.4900   44.1020 C   0  0  0  0  0  0  0  0  0  0  0  0
   57.7710   28.9340   44.0980 C   0  0  0  0  0  0  0  0  0  0  0  0
   56.9590   28.9620   43.0200 N   0  0  0  0  0  0  0  0  0  0  0  0
   56.6460   30.2600   42.8220 C   0  0  0  0  0  0  0  0  0  0  0  0
   57.2550   31.0620   43.7740 C   0  0  0  0  0  0  0  0  0  0  0  0
   57.9780   30.2000   44.5750 C   0  0  0  0  0  0  0  0  0  0  0  0
   63.5100   33.1411   47.6202 H   0  0  0  0  0  0  0  0  0  0  0  0
   62.3848   32.6355   46.3144 H   0  0  0  0  0  0  0  0  0  0  0  0
   63.0730   34.2947   46.3144 H   0  0  0  0  0  0  0  0  0  0  0  0
   61.4316   33.3350   48.6791 H   0  0  0  0  0  0  0  0  0  0  0  0
   61.7113   35.0227   48.0304 H   0  0  0  0  0  0  0  0  0  0  0  0
   59.3394   35.8469   46.9524 H   0  0  0  0  0  0  0  0  0  0  0  0
   60.9418   35.6650   46.1220 H   0  0  0  0  0  0  0  0  0  0  0  0
   58.2422   34.5927   45.1868 H   0  0  0  0  0  0  0  0  0  0  0  0
   59.2289   35.8871   44.4267 H   0  0  0  0  0  0  0  0  0  0  0  0
   59.8193   34.1906   44.4267 H   0  0  0  0  0  0  0  0  0  0  0  0
   59.4962   33.2120   48.9198 H   0  0  0  0  0  0  0  0  0  0  0  0
   58.4189   34.3882   48.0643 H   0  0  0  0  0  0  0  0  0  0  0  0
   58.1513   31.5909   48.1033 H   0  0  0  0  0  0  0  0  0  0  0  0
   57.3288   32.7626   46.9881 H   0  0  0  0  0  0  0  0  0  0  0  0
   59.6250   32.3810   45.6300 H   0  0  0  0  0  0  0  0  0  0  0  0
   60.1198   30.4643   48.0269 H   0  0  0  0  0  0  0  0  0  0  0  0
   60.9284   28.4737   49.2762 H   0  0  0  0  0  0  0  0  0  0  0  0
   60.4441   26.1844   48.4370 H   0  0  0  0  0  0  0  0  0  0  0  0
   59.1991   25.8594   46.3141 H   0  0  0  0  0  0  0  0  0  0  0  0
   58.0148   25.7353   44.8961 H   0  0  0  0  0  0  0  0  0  0  0  0
   57.2078   26.4874   43.4785 H   0  0  0  0  0  0  0  0  0  0  0  0
   58.9888   26.2534   43.4785 H   0  0  0  0  0  0  0  0  0  0  0  0
   56.5760   28.1640   42.4670 H   0  0  0  0  0  0  0  0  0  0  0  0
   55.9964   30.6305   42.0153 H   0  0  0  0  0  0  0  0  0  0  0  0
   57.1786   32.1550   43.8712 H   0  0  0  0  0  0  0  0  0  0  0  0
  1  2  1  0
  2  3  1  0
  3  4  1  0
  4  5  1  0
  3  6  1  0
  6  7  1  0
  7  8  1  0
  8  9  1  0
  9 10  2  0
 10 11  1  0
 11 12  2  0
 12 13  1  0
 13 14  2  0
 14 15  1  0
 15 16  2  0
 16 17  1  0
 16 18  1  0
 18 19  1  0
 19 20  1  0
 20 21  2  0
 21 22  1  0
 22  9  1  0
 15 10  1  0
 22 18  2  0
  1 23  1  0
  1 24  1  0
  1 25  1  0
  2 26  1  0
  2 27  1  0
  4 28  1  0
  4 29  1  0
  5 30  1  0
  5 31  1  0
  5 32  1  0
  6 33  1  0
  6 34  1  0
  7 35  1  0
  7 36  1  0
  8 37  1  0
 11 38  1  0
 12 39  1  0
 13 40  1  0
 14 41  1  0
 17 42  1  0
 17 43  1  0
 17 44  1  0
 19 45  1  0
 20 46  1  0
 21 47  1  0
M  CHG  1  16   1
M  END
>  <UniqueID>  (22) 
22

>  <SMILES>  (22) 
CCN(CC)CCNc1c2ccccc2[n+](C)c2[nH]ccc12

>  <Energy>  (22) 
94.072931448651

>  <Genealogy>  (22) 
CCN(CC)CCNc1c2ccccc2[n+](C)c2[nH]ccc12 (3D coordinates assigned)
CCN(CC)CCNc1c2ccccc2[n+](C)c2[nH]ccc12 (optimized conformer: 94.072931448651 kcal/mol)

>  <smiles>  (22) 
CCN(CC)CCNc1c2ccccc2[n+](C)c2[nH]ccc12

>  <score_type>  (22) 
oracle

>  <origin>  (22) 
adg

>  <m_score__min__energy>  (22) 
-5.25

>  <m_primary>  (22) 
energy

$$$$
23:0
     RDKit          3D

 53 55  0  0  0  0  0  0  0  0999 V2000
   63.0410   33.8490   46.3760 C   0  0  0  0  0  0  0  0  0  0  0  0
   63.5020   32.8030   47.2040 O   0  0  0  0  0  0  0  0  0  0  0  0
   63.8670   33.3040   48.4760 C   0  0  0  0  0  0  0  0  0  0  0  0
   62.7590   34.2110   49.0310 C   0  0  0  0  0  0  0  0  0  0  0  0
   61.4770   33.4860   49.1840 N   0  0  0  0  0  0  0  0  0  0  0  0
   61.2830   32.8400   50.5110 C   0  0  0  0  0  0  0  0  0  0  0  0
   61.4640   31.3120   50.5240 C   0  0  0  0  0  0  0  0  0  0  0  0
   61.9990   30.9070   49.2810 O   0  0  0  0  0  0  0  0  0  0  0  0
   61.0290   30.1700   48.5690 C   0  0  0  0  0  0  0  0  0  0  0  0
   60.3300   34.3300   48.7820 C   0  0  0  0  0  0  0  0  0  0  0  0
   59.5840   33.7050   47.6390 C   0  0  0  0  0  0  0  0  0  0  0  0
   59.0930   32.4380   47.6970 N   0  0  0  0  0  0  0  0  0  0  0  0
   58.5680   32.2610   46.4730 C   0  0  0  0  0  0  0  0  0  0  0  0
   57.9490   31.1170   45.9750 C   0  0  0  0  0  0  0  0  0  0  0  0
   57.4950   31.1380   44.6400 C   0  0  0  0  0  0  0  0  0  0  0  0
   56.7030   29.7170   43.9550 S   0  0  0  0  0  0  0  0  0  0  0  0
   55.5170   29.3610   44.8080 O   0  0  0  0  0  0  0  0  0  0  0  0
   56.2040   30.0540   42.5780 O   0  0  0  0  0  0  0  0  0  0  0  0
   57.7680   28.2760   43.8350 C   0  0  0  0  0  0  0  0  0  0  0  0
   59.1290   28.4100   44.4960 C   0  0  0  0  0  0  0  0  0  0  0  0
   58.0460   27.5620   45.1460 C   0  0  0  0  0  0  0  0  0  0  0  0
   57.6890   32.2950   43.8450 C   0  0  0  0  0  0  0  0  0  0  0  0
   58.3210   33.4330   44.3790 C   0  0  0  0  0  0  0  0  0  0  0  0
   58.7420   33.3770   45.7080 C   0  0  0  0  0  0  0  0  0  0  0  0
   59.3720   34.3110   46.4390 N   0  0  0  0  0  0  0  0  0  0  0  0
   59.8540   35.6170   45.9920 C   0  0  0  0  0  0  0  0  0  0  0  0
   62.6759   34.6774   47.0008 H   0  0  0  0  0  0  0  0  0  0  0  0
   63.8658   34.2046   45.7410 H   0  0  0  0  0  0  0  0  0  0  0  0
   62.2221   33.4802   45.7410 H   0  0  0  0  0  0  0  0  0  0  0  0
   64.0256   32.4618   49.1656 H   0  0  0  0  0  0  0  0  0  0  0  0
   64.7925   33.8902   48.3770 H   0  0  0  0  0  0  0  0  0  0  0  0
   63.0712   34.5929   50.0142 H   0  0  0  0  0  0  0  0  0  0  0  0
   62.6025   35.0336   48.3176 H   0  0  0  0  0  0  0  0  0  0  0  0
   62.0103   33.2756   51.2120 H   0  0  0  0  0  0  0  0  0  0  0  0
   60.2367   33.0277   50.7939 H   0  0  0  0  0  0  0  0  0  0  0  0
   62.1528   31.0281   51.3333 H   0  0  0  0  0  0  0  0  0  0  0  0
   60.4935   30.8218   50.6910 H   0  0  0  0  0  0  0  0  0  0  0  0
   60.3603   29.6619   49.2794 H   0  0  0  0  0  0  0  0  0  0  0  0
   60.4419   30.8519   47.9363 H   0  0  0  0  0  0  0  0  0  0  0  0
   61.5286   29.4216   47.9363 H   0  0  0  0  0  0  0  0  0  0  0  0
   59.6487   34.4443   49.6380 H   0  0  0  0  0  0  0  0  0  0  0  0
   60.7093   35.3115   48.4613 H   0  0  0  0  0  0  0  0  0  0  0  0
   57.8182   30.2241   46.6040 H   0  0  0  0  0  0  0  0  0  0  0  0
   57.4137   27.9695   42.8397 H   0  0  0  0  0  0  0  0  0  0  0  0
   60.0092   27.9278   44.0457 H   0  0  0  0  0  0  0  0  0  0  0  0
   59.7570   29.2528   44.8204 H   0  0  0  0  0  0  0  0  0  0  0  0
   58.1430   26.4665   45.1660 H   0  0  0  0  0  0  0  0  0  0  0  0
   57.5662   27.5374   46.1355 H   0  0  0  0  0  0  0  0  0  0  0  0
   57.3424   32.3034   42.8011 H   0  0  0  0  0  0  0  0  0  0  0  0
   58.4777   34.3354   43.7699 H   0  0  0  0  0  0  0  0  0  0  0  0
   60.0847   36.2420   46.8673 H   0  0  0  0  0  0  0  0  0  0  0  0
   60.7626   35.4848   45.3862 H   0  0  0  0  0  0  0  0  0  0  0  0
   59.0774   36.1068   45.3862 H   0  0  0  0  0  0  0  0  0  0  0  0
  1  2  1  0
  2  3  1  0
  3  4  1  0
  4  5  1  0
  5  6  1  0
  6  7  1  0
  7  8  1  0
  8  9  1  0
  5 10  1  0
 10 11  1  0
 11 12  2  0
 12 13  1  0
 13 14  2  0
 14 15  1  0
 15 16  1  0
 16 17  2  0
 16 18  2  0
 16 19  1  0
 19 20  1  0
 20 21  1  0
 15 22  2  0
 22 23  1  0
 23 24  2  0
 24 25  1  0
 25 26  1  0
 25 11  1  0
 24 13  1  0
 21 19  1  0
  1 27  1  0
  1 28  1  0
  1 29  1  0
  3 30  1  0
  3 31  1  0
  4 32  1  0
  4 33  1  0
  6 34  1  0
  6 35  1  0
  7 36  1  0
  7 37  1  0
  9 38  1  0
  9 39  1  0
  9 40  1  0
 10 41  1  0
 10 42  1  0
 14 43  1  0
 19 44  1  0
 20 45  1  0
 20 46  1  0
 21 47  1  0
 21 48  1  0
 22 49  1  0
 23 50  1  0
 26 51  1  0
 26 52  1  0
 26 53  1  0
M  END
>  <UniqueID>  (23) 
23

>  <SMILES>  (23) 
COCCN(CCOC)Cc1nc2cc(S(=O)(=O)C3CC3)ccc2n1C

>  <Energy>  (23) 
357.79768151751523

>  <Genealogy>  (23) 
COCCN(CCOC)Cc1nc2cc(S(=O)(=O)C3CC3)ccc2n1C (3D coordinates assigned)
COCCN(CCOC)Cc1nc2cc(S(=O)(=O)C3CC3)ccc2n1C (nonaromatic ring conformer: 357.79768151751523 kcal/mol)

>  <smiles>  (23) 
COCCN(CCOC)Cc1nc2cc(S(=O)(=O)C3CC3)ccc2n1C

>  <score_type>  (23) 
oracle

>  <origin>  (23) 
adg

>  <m_score__min__energy>  (23) 
-7.6100000000000003

>  <m_primary>  (23) 
energy

$$$$
24:0
     RDKit          3D

 35 37  0  0  0  0  0  0  0  0999 V2000
   58.1240   26.9020   42.8390 C   0  0  0  0  0  0  0  0  0  0  0  0
   58.5630   27.6660   44.0940 C   0  0  0  0  0  0  0  0  0  0  0  0
   58.4250   26.7960   45.3490 C   0  0  0  0  0  0  0  0  0  0  0  0
   57.7980   28.9620   44.2400 C   0  0  0  0  0  0  0  0  0  0  0  0
   58.4420   30.1610   44.5800 C   0  0  0  0  0  0  0  0  0  0  0  0
   57.6780   31.3310   44.6870 C   0  0  0  0  0  0  0  0  0  0  0  0
   58.2850   32.5800   45.0520 N   0  0  0  0  0  0  0  0  0  0  0  0
   58.5340   33.6670   44.1050 C   0  0  0  0  0  0  0  0  0  0  0  0
   59.0310   34.8640   44.9500 C   0  0  0  0  0  0  0  0  0  0  0  0
   59.1060   34.3070   46.3290 C   0  0  0  0  0  0  0  0  0  0  0  0
   59.5810   34.9340   47.4820 C   0  0  0  0  0  0  0  0  0  0  0  0
   59.6280   34.1960   48.6750 C   0  0  0  0  0  0  0  0  0  0  0  0
   59.2210   32.8480   48.6910 C   0  0  0  0  0  0  0  0  0  0  0  0
   58.7520   32.2370   47.5170 C   0  0  0  0  0  0  0  0  0  0  0  0
   58.6780   33.0070   46.3480 C   0  0  0  0  0  0  0  0  0  0  0  0
   56.3330   31.2670   44.5040 N   0  0  0  0  0  0  0  0  0  0  0  0
   55.7210   30.0990   44.1820 C   0  0  0  0  0  0  0  0  0  0  0  0
   56.4510   28.9630   44.0490 N   0  0  0  0  0  0  0  0  0  0  0  0
   57.5962   25.9834   43.1348 H   0  0  0  0  0  0  0  0  0  0  0  0
   57.4517   27.5348   42.2409 H   0  0  0  0  0  0  0  0  0  0  0  0
   59.0092   26.6398   42.2409 H   0  0  0  0  0  0  0  0  0  0  0  0
   59.6275   27.9176   43.9774 H   0  0  0  0  0  0  0  0  0  0  0  0
   58.5250   27.4263   46.2449 H   0  0  0  0  0  0  0  0  0  0  0  0
   57.4385   26.3095   45.3512 H   0  0  0  0  0  0  0  0  0  0  0  0
   59.2126   26.0281   45.3512 H   0  0  0  0  0  0  0  0  0  0  0  0
   59.5271   30.1824   44.7594 H   0  0  0  0  0  0  0  0  0  0  0  0
   59.3014   33.3697   43.3752 H   0  0  0  0  0  0  0  0  0  0  0  0
   57.6266   33.9232   43.5384 H   0  0  0  0  0  0  0  0  0  0  0  0
   60.0201   35.2030   44.6083 H   0  0  0  0  0  0  0  0  0  0  0  0
   58.3733   35.7427   44.8775 H   0  0  0  0  0  0  0  0  0  0  0  0
   59.9111   35.9830   47.4563 H   0  0  0  0  0  0  0  0  0  0  0  0
   59.9839   34.6722   49.6005 H   0  0  0  0  0  0  0  0  0  0  0  0
   59.2707   32.2716   49.6266 H   0  0  0  0  0  0  0  0  0  0  0  0
   58.4499   31.1793   47.5147 H   0  0  0  0  0  0  0  0  0  0  0  0
   54.6320   30.0734   44.0287 H   0  0  0  0  0  0  0  0  0  0  0  0
  1  2  1  0
  2  3  1  0
  2  4  1  0
  4  5  2  0
  5  6  1  0
  6  7  1  0
  7  8  1  0
  8  9  1  0
  9 10  1  0
 10 11  2  0
 11 12  1  0
 12 13  2  0
 13 14  1  0
 14 15  2  0
  6 16  2  0
 16 17  1  0
 17 18  2  0
 18  4  1  0
 15  7  1  0
 15 10  1  0
  1 19  1  0
  1 20  1  0
  1 21  1  0
  2 22  1  0
  3 23  1  0
  3 24  1  0
  3 25  1  0
  5 26  1  0
  8 27  1  0
  8 28  1  0
  9 29  1  0
  9 30  1  0
 11 31  1  0
 12 32  1  0
 13 33  1  0
 14 34  1  0
 17 35  1  0
M  END
>  <UniqueID>  (24) 
24

>  <SMILES>  (24) 
CC(C)c1cc(N2CCc3ccccc32)ncn1

>  <Energy>  (24) 
52.23613782865582

>  <Genealogy>  (24) 
CC(C)c1cc(N2CCc3ccccc32)ncn1 (3D coordinates assigned)
CC(C)c1cc(N2CCc3ccccc32)ncn1 (nonaromatic ring conformer: 52.23613782865582 kcal/mol)

>  <smiles>  (24) 
CC(C)c1cc(N2CCc3ccccc32)ncn1

>  <score_type>  (24) 
oracle

>  <origin>  (24) 
adg

>  <m_score__min__energy>  (24) 
-7.2400000000000002

>  <m_primary>  (24) 
energy

$$$$
