0:0
     RDKit          3D

 55 57  0  0  0  0  0  0  0  0999 V2000
   60.3550   26.7420   47.4960 C   0  0  0  0  0  0  0  0  0  0  0  0
   60.7160   28.1110   47.3540 O   0  0  0  0  0  0  0  0  0  0  0  0
   60.0900   29.1780   48.0210 C   0  0  0  0  0  0  0  0  0  0  0  0
   59.9810   29.2030   49.4270 C   0  0  0  0  0  0  0  0  0  0  0  0
   59.3740   30.2830   50.0710 C   0  0  0  0  0  0  0  0  0  0  0  0
   58.8780   31.3520   49.3280 C   0  0  0  0  0  0  0  0  0  0  0  0
   58.9740   31.3400   47.9360 C   0  0  0  0  0  0  0  0  0  0  0  0
   59.5590   30.2500   47.2660 C   0  0  0  0  0  0  0  0  0  0  0  0
   59.6450   30.2690   45.7540 C   0  0  0  0  0  0  0  0  0  0  0  0
   58.3690   29.8620   45.1390 N   0  0  0  0  0  0  0  0  0  0  0  0
   57.3980   30.8390   44.7020 C   0  0  0  0  0  0  0  0  0  0  0  0
   56.1680   30.5770   44.8150 O   0  0  0  0  0  0  0  0  0  0  0  0
   57.8150   32.1870   44.1700 C   0  0  0  0  0  0  0  0  0  0  0  0
   57.5010   33.3410   45.1340 C   0  0  0  0  0  0  0  0  0  0  0  0
   58.7150   34.2630   45.3410 C   0  0  0  0  0  0  0  0  0  0  0  0
   58.9390   34.6050   46.8210 C   0  0  0  0  0  0  0  0  0  0  0  0
   60.3180   34.2120   47.2890 C   0  0  0  0  0  0  0  0  0  0  0  0
   61.2900   33.8060   46.3600 C   0  0  0  0  0  0  0  0  0  0  0  0
   62.5620   33.4180   46.7930 C   0  0  0  0  0  0  0  0  0  0  0  0
   62.8700   33.4280   48.1560 C   0  0  0  0  0  0  0  0  0  0  0  0
   61.9060   33.8240   49.0880 C   0  0  0  0  0  0  0  0  0  0  0  0
   60.6340   34.2130   48.6580 C   0  0  0  0  0  0  0  0  0  0  0  0
   58.0570   28.4640   44.9830 C   0  0  0  0  0  0  0  0  0  0  0  0
   57.4070   27.7700   46.0180 C   0  0  0  0  0  0  0  0  0  0  0  0
   57.0950   26.4160   45.8730 C   0  0  0  0  0  0  0  0  0  0  0  0
   57.4360   25.7410   44.6970 C   0  0  0  0  0  0  0  0  0  0  0  0
   58.0920   26.4200   43.6660 C   0  0  0  0  0  0  0  0  0  0  0  0
   58.4020   27.7760   43.8060 C   0  0  0  0  0  0  0  0  0  0  0  0
   60.2884   26.4893   48.5645 H   0  0  0  0  0  0  0  0  0  0  0  0
   59.3803   26.5682   47.0166 H   0  0  0  0  0  0  0  0  0  0  0  0
   61.1172   26.1102   47.0166 H   0  0  0  0  0  0  0  0  0  0  0  0
   60.3770   28.3657   50.0204 H   0  0  0  0  0  0  0  0  0  0  0  0
   59.2872   30.2898   51.1676 H   0  0  0  0  0  0  0  0  0  0  0  0
   58.4102   32.2063   49.8392 H   0  0  0  0  0  0  0  0  0  0  0  0
   58.5883   32.1917   47.3565 H   0  0  0  0  0  0  0  0  0  0  0  0
   59.8936   31.2879   45.4222 H   0  0  0  0  0  0  0  0  0  0  0  0
   60.4231   29.5568   45.4419 H   0  0  0  0  0  0  0  0  0  0  0  0
   58.8994   32.1702   43.9861 H   0  0  0  0  0  0  0  0  0  0  0  0
   57.2425   32.3661   43.2479 H   0  0  0  0  0  0  0  0  0  0  0  0
   56.6711   33.9333   44.7211 H   0  0  0  0  0  0  0  0  0  0  0  0
   57.2327   32.9072   46.1086 H   0  0  0  0  0  0  0  0  0  0  0  0
   59.6128   33.7585   44.9544 H   0  0  0  0  0  0  0  0  0  0  0  0
   58.5204   35.2027   44.8033 H   0  0  0  0  0  0  0  0  0  0  0  0
   58.8129   35.6891   46.9581 H   0  0  0  0  0  0  0  0  0  0  0  0
   58.2049   34.0410   47.4151 H   0  0  0  0  0  0  0  0  0  0  0  0
   61.0496   33.7931   45.2867 H   0  0  0  0  0  0  0  0  0  0  0  0
   63.3203   33.1048   46.0603 H   0  0  0  0  0  0  0  0  0  0  0  0
   63.8712   33.1242   48.4957 H   0  0  0  0  0  0  0  0  0  0  0  0
   62.1487   33.8295   50.1609 H   0  0  0  0  0  0  0  0  0  0  0  0
   59.8773   34.5212   49.3945 H   0  0  0  0  0  0  0  0  0  0  0  0
   57.1425   28.2958   46.9473 H   0  0  0  0  0  0  0  0  0  0  0  0
   56.5807   25.8805   46.6846 H   0  0  0  0  0  0  0  0  0  0  0  0
   57.1880   24.6754   44.5830 H   0  0  0  0  0  0  0  0  0  0  0  0
   58.3646   25.8866   42.7434 H   0  0  0  0  0  0  0  0  0  0  0  0
   58.9178   28.3069   42.9923 H   0  0  0  0  0  0  0  0  0  0  0  0
  1  2  1  0
  2  3  1  0
  3  4  2  0
  4  5  1  0
  5  6  2  0
  6  7  1  0
  7  8  2  0
  8  9  1  0
  9 10  1  0
 10 11  1  0
 11 12  2  0
 11 13  1  0
 13 14  1  0
 14 15  1  0
 15 16  1  0
 16 17  1  0
 17 18  2  0
 18 19  1  0
 19 20  2  0
 20 21  1  0
 21 22  2  0
 10 23  1  0
 23 24  2  0
 24 25  1  0
 25 26  2  0
 26 27  1  0
 27 28  2  0
  8  3  1  0
 22 17  1  0
 28 23  1  0
  1 29  1  0
  1 30  1  0
  1 31  1  0
  4 32  1  0
  5 33  1  0
  6 34  1  0
  7 35  1  0
  9 36  1  0
  9 37  1  0
 13 38  1  0
 13 39  1  0
 14 40  1  0
 14 41  1  0
 15 42  1  0
 15 43  1  0
 16 44  1  0
 16 45  1  0
 18 46  1  0
 19 47  1  0
 20 48  1  0
 21 49  1  0
 22 50  1  0
 24 51  1  0
 25 52  1  0
 26 53  1  0
 27 54  1  0
 28 55  1  0
M  END
>  <UniqueID>  (1) 
1

>  <SMILES>  (1) 
COc1ccccc1CN(C(=O)CCCCc1ccccc1)c1ccccc1

>  <Energy>  (1) 
57.23738177755304

>  <Genealogy>  (1) 
COc1ccccc1CN(C(=O)CCCCc1ccccc1)c1ccccc1 (3D coordinates assigned)
COc1ccccc1CN(C(=O)CCCCc1ccccc1)c1ccccc1 (optimized conformer: 57.23738177755304 kcal/mol)

>  <smiles>  (1) 
COc1ccccc1CN(C(=O)CCCCc1ccccc1)c1ccccc1

>  <score_type>  (1) 
oracle

>  <origin>  (1) 
adg

>  <m_score__min__energy>  (1) 
-8.6899999999999995

>  <m_primary>  (1) 
energy

$$$$
1:0
     RDKit          3D

 60 63  0  0  0  0  0  0  0  0999 V2000
   57.0260   24.5680   44.1210 C   0  0  0  0  0  0  0  0  0  0  0  0
   57.4340   25.8190   44.8440 C   0  0  0  0  0  0  0  0  0  0  0  0
   58.1270   26.8350   44.1680 C   0  0  0  0  0  0  0  0  0  0  0  0
   58.4850   28.0100   44.8350 C   0  0  0  0  0  0  0  0  0  0  0  0
   58.1420   28.1940   46.1850 C   0  0  0  0  0  0  0  0  0  0  0  0
   58.5170   29.4470   46.8850 C   0  0  0  0  0  0  0  0  0  0  0  0
   59.1440   29.3860   48.1280 C   0  0  0  0  0  0  0  0  0  0  0  0
   59.4820   30.5240   48.7990 N   0  0  0  0  0  0  0  0  0  0  0  0
   60.0820   30.3940   50.1400 C   0  0  0  0  0  0  0  0  0  0  0  0
   59.4230   31.3440   51.1130 C   0  0  0  0  0  0  0  0  0  0  0  0
   60.1310   32.4550   51.6120 C   0  0  0  0  0  0  0  0  0  0  0  0
   61.4250   32.6670   51.2660 F   0  0  0  0  0  0  0  0  0  0  0  0
   59.5080   33.3530   52.4850 C   0  0  0  0  0  0  0  0  0  0  0  0
   58.1790   33.1570   52.8650 C   0  0  0  0  0  0  0  0  0  0  0  0
   57.4680   32.0600   52.3750 C   0  0  0  0  0  0  0  0  0  0  0  0
   58.0810   31.1570   51.5020 C   0  0  0  0  0  0  0  0  0  0  0  0
   57.3670   30.0970   51.0460 F   0  0  0  0  0  0  0  0  0  0  0  0
   59.2440   31.7510   48.2310 C   0  0  0  0  0  0  0  0  0  0  0  0
   59.5310   32.8000   48.8720 O   0  0  0  0  0  0  0  0  0  0  0  0
   58.6930   31.8460   46.9750 N   0  0  0  0  0  0  0  0  0  0  0  0
   58.5030   33.1740   46.3450 C   0  0  0  0  0  0  0  0  0  0  0  0
   59.8310   33.9050   45.9900 C   0  0  1  0  0  0  0  0  0  0  0  0
   59.6410   35.4040   45.6940 C   0  0  0  0  0  0  0  0  0  0  0  0
   60.9500   33.6170   46.9260 N   0  0  0  0  0  0  0  0  0  0  0  0
   62.3060   33.8480   46.3900 C   0  0  0  0  0  0  0  0  0  0  0  0
   63.3470   33.0680   47.2100 C   0  0  0  0  0  0  0  0  0  0  0  0
   62.9270   32.7480   48.6360 C   0  0  0  0  0  0  0  0  0  0  0  0
   62.9760   31.6450   47.5910 C   0  0  0  0  0  0  0  0  0  0  0  0
   58.2870   30.7090   46.3200 C   0  0  0  0  0  0  0  0  0  0  0  0
   57.7260   30.7900   45.1920 O   0  0  0  0  0  0  0  0  0  0  0  0
   57.4440   27.1780   46.8590 C   0  0  0  0  0  0  0  0  0  0  0  0
   57.0860   26.0020   46.1930 C   0  0  0  0  0  0  0  0  0  0  0  0
   56.4030   25.0400   46.8630 F   0  0  0  0  0  0  0  0  0  0  0  0
   56.7715   23.7877   44.8534 H   0  0  0  0  0  0  0  0  0  0  0  0
   56.1499   24.7784   43.4900 H   0  0  0  0  0  0  0  0  0  0  0  0
   57.8577   24.2214   43.4900 H   0  0  0  0  0  0  0  0  0  0  0  0
   58.3898   26.7060   43.1077 H   0  0  0  0  0  0  0  0  0  0  0  0
   59.0387   28.7954   44.2997 H   0  0  0  0  0  0  0  0  0  0  0  0
   59.3694   28.4061   48.5742 H   0  0  0  0  0  0  0  0  0  0  0  0
   59.9494   29.3619   50.4967 H   0  0  0  0  0  0  0  0  0  0  0  0
   61.1522   30.6399   50.0746 H   0  0  0  0  0  0  0  0  0  0  0  0
   60.0673   34.2168   52.8736 H   0  0  0  0  0  0  0  0  0  0  0  0
   57.6923   33.8666   53.5502 H   0  0  0  0  0  0  0  0  0  0  0  0
   56.4216   31.9058   52.6771 H   0  0  0  0  0  0  0  0  0  0  0  0
   57.9255   33.0375   45.4188 H   0  0  0  0  0  0  0  0  0  0  0  0
   57.9819   33.8030   47.0818 H   0  0  0  0  0  0  0  0  0  0  0  0
   60.1519   33.4601   45.0365 H   0  0  0  0  0  0  0  0  0  0  0  0
   59.5707   35.9588   46.6413 H   0  0  0  0  0  0  0  0  0  0  0  0
   60.4993   35.7750   45.1146 H   0  0  0  0  0  0  0  0  0  0  0  0
   58.7173   35.5491   45.1146 H   0  0  0  0  0  0  0  0  0  0  0  0
   60.8880   32.6060   47.1990 H   0  0  0  0  0  0  0  0  0  0  0  0
   60.8220   34.1700   47.8050 H   0  0  0  0  0  0  0  0  0  0  0  0
   62.3439   33.5124   45.3431 H   0  0  0  0  0  0  0  0  0  0  0  0
   62.5356   34.9220   46.4514 H   0  0  0  0  0  0  0  0  0  0  0  0
   64.2207   33.5349   46.7318 H   0  0  0  0  0  0  0  0  0  0  0  0
   63.6701   32.7712   49.4467 H   0  0  0  0  0  0  0  0  0  0  0  0
   62.1619   33.1322   49.3266 H   0  0  0  0  0  0  0  0  0  0  0  0
   63.7544   30.8697   47.6459 H   0  0  0  0  0  0  0  0  0  0  0  0
   62.2605   30.9001   47.2125 H   0  0  0  0  0  0  0  0  0  0  0  0
   57.1773   27.3087   47.9181 H   0  0  0  0  0  0  0  0  0  0  0  0
  1  2  1  0
  2  3  2  0
  3  4  1  0
  4  5  2  0
  5  6  1  0
  6  7  2  0
  7  8  1  0
  8  9  1  0
  9 10  1  0
 10 11  2  0
 11 12  1  0
 11 13  1  0
 13 14  2  0
 14 15  1  0
 15 16  2  0
 16 17  1  0
  8 18  1  0
 18 19  2  0
 18 20  1  0
 20 21  1  0
 21 22  1  0
 22 23  1  0
 22 24  1  0
 24 25  1  0
 25 26  1  0
 26 27  1  0
 27 28  1  0
 20 29  1  0
 29 30  2  0
  5 31  1  0
 31 32  2  0
 32 33  1  0
 32  2  1  0
 29  6  1  0
 16 10  1  0
 28 26  1  0
  1 34  1  0
  1 35  1  0
  1 36  1  0
  3 37  1  0
  4 38  1  0
  7 39  1  0
  9 40  1  0
  9 41  1  0
 13 42  1  0
 14 43  1  0
 15 44  1  0
 21 45  1  0
 21 46  1  0
 22 47  1  6
 23 48  1  0
 23 49  1  0
 23 50  1  0
 24 51  1  0
 24 52  1  0
 25 53  1  0
 25 54  1  0
 26 55  1  0
 27 56  1  0
 27 57  1  0
 28 58  1  0
 28 59  1  0
 31 60  1  0
M  CHG  1  24   1
M  END
>  <UniqueID>  (2) 
2

>  <SMILES>  (2) 
Cc1ccc(-c2cn(Cc3c(F)cccc3F)c(=O)n(C[C@@H](C)[NH2+]CC3CC3)c2=O)cc1F

>  <Energy>  (2) 
341.0932592757697

>  <Genealogy>  (2) 
Cc1ccc(-c2cn(Cc3c(F)cccc3F)c(=O)n(CC(C)[NH2+]CC3CC3)c2=O)cc1F (protonated)
Cc1ccc(-c2cn(Cc3c(F)cccc3F)c(=O)n(C[C@@H](C)[NH2+]CC3CC3)c2=O)cc1F (chirality)
Cc1ccc(-c2cn(Cc3c(F)cccc3F)c(=O)n(C[C@@H](C)[NH2+]CC3CC3)c2=O)cc1F (3D coordinates assigned)
Cc1ccc(-c2cn(Cc3c(F)cccc3F)c(=O)n(C[C@@H](C)[NH2+]CC3CC3)c2=O)cc1F (nonaromatic ring conformer: 341.0932592757697 kcal/mol)

>  <smiles>  (2) 
Cc1ccc(-c2cn(Cc3c(F)cccc3F)c(=O)n(CC(C)NCC3CC3)c2=O)cc1F

>  <score_type>  (2) 
oracle

>  <origin>  (2) 
adg

>  <m_score__min__energy>  (2) 
-6.6500000000000004

>  <m_primary>  (2) 
energy

$$$$
2:0
     RDKit          3D

 56 58  0  0  0  0  0  0  0  0999 V2000
   56.9010   20.9350   43.0210 C   0  0  0  0  0  0  0  0  0  0  0  0
   55.9000   21.8220   43.5080 O   0  0  0  0  0  0  0  0  0  0  0  0
   56.1630   23.0620   44.1130 C   0  0  0  0  0  0  0  0  0  0  0  0
   57.4210   23.6840   44.0210 C   0  0  0  0  0  0  0  0  0  0  0  0
   57.6460   24.9160   44.6370 C   0  0  0  0  0  0  0  0  0  0  0  0
   56.6180   25.5520   45.3460 C   0  0  0  0  0  0  0  0  0  0  0  0
   56.8760   26.8640   46.0400 C   0  0  0  0  0  0  0  0  0  0  0  0
   57.0860   28.0030   45.0370 C   0  0  0  0  0  0  0  0  0  0  0  0
   57.5120   29.2330   45.7020 N   0  0  0  0  0  0  0  0  0  0  0  0
   57.3200   30.5680   45.2150 C   0  0  0  0  0  0  0  0  0  0  0  0
   56.2760   30.8220   44.5570 O   0  0  0  0  0  0  0  0  0  0  0  0
   58.3760   31.6330   45.3640 C   0  0  0  0  0  0  0  0  0  0  0  0
   57.7860   32.9920   45.4030 N   0  0  0  0  0  0  0  0  0  0  0  0
   58.6300   33.9870   44.6900 C   0  0  0  0  0  0  0  0  0  0  0  0
   59.6000   34.7580   45.6120 C   0  0  0  0  0  0  0  0  0  0  0  0
   59.8360   34.0120   46.8500 N   0  0  0  0  0  0  0  0  0  0  0  0
   61.1590   33.6010   47.2450 C   0  0  0  0  0  0  0  0  0  0  0  0
   62.2620   33.8320   46.4020 C   0  0  0  0  0  0  0  0  0  0  0  0
   63.5390   33.4030   46.7760 C   0  0  0  0  0  0  0  0  0  0  0  0
   63.7270   32.7370   47.9900 C   0  0  0  0  0  0  0  0  0  0  0  0
   62.6370   32.4950   48.8290 C   0  0  0  0  0  0  0  0  0  0  0  0
   61.3580   32.9210   48.4590 C   0  0  0  0  0  0  0  0  0  0  0  0
   58.6730   33.6410   47.6610 C   0  0  0  0  0  0  0  0  0  0  0  0
   57.4330   33.4440   46.7710 C   0  0  0  0  0  0  0  0  0  0  0  0
   55.3660   24.9310   45.4480 C   0  0  0  0  0  0  0  0  0  0  0  0
   55.1310   23.6860   44.8310 C   0  0  0  0  0  0  0  0  0  0  0  0
   53.8880   23.0380   44.9110 O   0  0  0  0  0  0  0  0  0  0  0  0
   52.6550   23.6890   45.1980 C   0  0  0  0  0  0  0  0  0  0  0  0
   57.4244   20.4712   43.8700 H   0  0  0  0  0  0  0  0  0  0  0  0
   56.4304   20.1520   42.4083 H   0  0  0  0  0  0  0  0  0  0  0  0
   57.6217   21.4964   42.4083 H   0  0  0  0  0  0  0  0  0  0  0  0
   58.2323   23.1967   43.4603 H   0  0  0  0  0  0  0  0  0  0  0  0
   58.6358   25.3905   44.5656 H   0  0  0  0  0  0  0  0  0  0  0  0
   56.0133   27.1055   46.6784 H   0  0  0  0  0  0  0  0  0  0  0  0
   57.7927   26.7609   46.6392 H   0  0  0  0  0  0  0  0  0  0  0  0
   57.8575   27.7031   44.3125 H   0  0  0  0  0  0  0  0  0  0  0  0
   56.1283   28.1983   44.5323 H   0  0  0  0  0  0  0  0  0  0  0  0
   58.9287   31.4579   46.2988 H   0  0  0  0  0  0  0  0  0  0  0  0
   59.0446   31.5756   44.4924 H   0  0  0  0  0  0  0  0  0  0  0  0
   59.2222   33.4574   43.9292 H   0  0  0  0  0  0  0  0  0  0  0  0
   57.9474   34.7297   44.2512 H   0  0  0  0  0  0  0  0  0  0  0  0
   60.5569   34.9034   45.0894 H   0  0  0  0  0  0  0  0  0  0  0  0
   59.1526   35.7309   45.8637 H   0  0  0  0  0  0  0  0  0  0  0  0
   62.1186   34.3528   45.4438 H   0  0  0  0  0  0  0  0  0  0  0  0
   64.3971   33.5900   46.1136 H   0  0  0  0  0  0  0  0  0  0  0  0
   64.7330   32.4035   48.2847 H   0  0  0  0  0  0  0  0  0  0  0  0
   62.7853   31.9680   49.7831 H   0  0  0  0  0  0  0  0  0  0  0  0
   60.5026   32.7230   49.1216 H   0  0  0  0  0  0  0  0  0  0  0  0
   58.8882   32.7031   48.1940 H   0  0  0  0  0  0  0  0  0  0  0  0
   58.4693   34.4487   48.3795 H   0  0  0  0  0  0  0  0  0  0  0  0
   56.7810   32.6895   47.2353 H   0  0  0  0  0  0  0  0  0  0  0  0
   56.9250   34.4157   46.6830 H   0  0  0  0  0  0  0  0  0  0  0  0
   54.5596   25.4196   46.0146 H   0  0  0  0  0  0  0  0  0  0  0  0
   52.5223   23.7591   46.2877 H   0  0  0  0  0  0  0  0  0  0  0  0
   52.6643   24.6997   44.7640 H   0  0  0  0  0  0  0  0  0  0  0  0
   51.8256   23.1113   44.7640 H   0  0  0  0  0  0  0  0  0  0  0  0
  1  2  1  0
  2  3  1  0
  3  4  2  0
  4  5  1  0
  5  6  2  0
  6  7  1  0
  7  8  1  0
  8  9  1  0
  9 10  1  0
 10 11  2  0
 10 12  1  0
 12 13  1  0
 13 14  1  0
 14 15  1  0
 15 16  1  0
 16 17  1  0
 17 18  2  0
 18 19  1  0
 19 20  2  0
 20 21  1  0
 21 22  2  0
 16 23  1  0
 23 24  1  0
  6 25  1  0
 25 26  2  0
 26 27  1  0
 27 28  1  0
 26  3  1  0
 24 13  1  0
 22 17  1  0
  1 29  1  0
  1 30  1  0
  1 31  1  0
  4 32  1  0
  5 33  1  0
  7 34  1  0
  7 35  1  0
  8 36  1  0
  8 37  1  0
 12 38  1  0
 12 39  1  0
 14 40  1  0
 14 41  1  0
 15 42  1  0
 15 43  1  0
 18 44  1  0
 19 45  1  0
 20 46  1  0
 21 47  1  0
 22 48  1  0
 23 49  1  0
 23 50  1  0
 24 51  1  0
 24 52  1  0
 25 53  1  0
 28 54  1  0
 28 55  1  0
 28 56  1  0
M  CHG  1   9  -1
M  END
>  <UniqueID>  (3) 
3

>  <SMILES>  (3) 
COc1ccc(CC[N-]C(=O)CN2CCN(c3ccccc3)CC2)cc1OC

>  <Energy>  (3) 
63.93123693574667

>  <Genealogy>  (3) 
COc1ccc(CC[N-]C(=O)CN2CCN(c3ccccc3)CC2)cc1OC (protonated)
COc1ccc(CC[N-]C(=O)CN2CCN(c3ccccc3)CC2)cc1OC (3D coordinates assigned)
COc1ccc(CC[N-]C(=O)CN2CCN(c3ccccc3)CC2)cc1OC (nonaromatic ring conformer: 63.93123693574667 kcal/mol)

>  <smiles>  (3) 
COc1ccc(CCNC(=O)CN2CCN(c3ccccc3)CC2)cc1OC

>  <score_type>  (3) 
oracle

>  <origin>  (3) 
adg

>  <m_score__min__energy>  (3) 
-10.16

>  <m_primary>  (3) 
energy

$$$$
3:0
     RDKit          3D

 44 46  0  0  0  0  0  0  0  0999 V2000
   56.0120   19.8090   44.6400 C   0  0  0  0  0  0  0  0  0  0  0  0
   56.0210   20.8700   43.6910 O   0  0  0  0  0  0  0  0  0  0  0  0
   56.4060   22.1880   43.9800 C   0  0  0  0  0  0  0  0  0  0  0  0
   56.6120   22.5430   45.3180 C   0  0  0  0  0  0  0  0  0  0  0  0
   56.9940   23.8440   45.6570 C   0  0  0  0  0  0  0  0  0  0  0  0
   57.1670   24.8160   44.6590 C   0  0  0  0  0  0  0  0  0  0  0  0
   57.5820   26.1490   44.9990 N   0  0  0  0  0  0  0  0  0  0  0  0
   58.8060   26.6690   44.7740 C   0  0  0  0  0  0  0  0  0  0  0  0
   58.8590   27.9610   45.2640 C   0  0  0  0  0  0  0  0  0  0  0  0
   60.0250   28.9060   45.1470 C   0  0  2  0  0  0  0  0  0  0  0  0
   61.1990   28.1850   44.8800 O   0  0  0  0  0  0  0  0  0  0  0  0
   60.1890   29.6610   46.3930 N   0  0  0  0  0  0  0  0  0  0  0  0
   60.0780   31.0960   46.4800 C   0  0  0  0  0  0  0  0  0  0  0  0
   61.0120   31.8070   47.2490 C   0  0  0  0  0  0  0  0  0  0  0  0
   60.9420   33.1980   47.3440 C   0  0  0  0  0  0  0  0  0  0  0  0
   59.9330   33.8970   46.6800 C   0  0  0  0  0  0  0  0  0  0  0  0
   58.9690   33.2080   45.9270 C   0  0  0  0  0  0  0  0  0  0  0  0
   57.9070   33.9640   45.1680 C   0  0  0  0  0  0  0  0  0  0  0  0
   57.5450   33.2770   44.0220 F   0  0  0  0  0  0  0  0  0  0  0  0
   58.3990   35.2060   44.8120 F   0  0  0  0  0  0  0  0  0  0  0  0
   56.7730   34.1340   45.9440 F   0  0  0  0  0  0  0  0  0  0  0  0
   59.0610   31.8090   45.8120 C   0  0  0  0  0  0  0  0  0  0  0  0
   57.6120   28.2550   45.7860 C   0  0  0  0  0  0  0  0  0  0  0  0
   56.8550   27.1180   45.6020 C   0  0  0  0  0  0  0  0  0  0  0  0
   55.5080   27.0150   45.9430 O   0  0  0  0  0  0  0  0  0  0  0  0
   56.9760   24.4580   43.3160 C   0  0  0  0  0  0  0  0  0  0  0  0
   56.5920   23.1570   42.9760 C   0  0  0  0  0  0  0  0  0  0  0  0
   56.0155   20.2271   45.6574 H   0  0  0  0  0  0  0  0  0  0  0  0
   55.1086   19.1976   44.4979 H   0  0  0  0  0  0  0  0  0  0  0  0
   56.9049   19.1824   44.4979 H   0  0  0  0  0  0  0  0  0  0  0  0
   56.4721   21.7919   46.1094 H   0  0  0  0  0  0  0  0  0  0  0  0
   57.1600   24.1078   46.7119 H   0  0  0  0  0  0  0  0  0  0  0  0
   59.6356   26.1452   44.2766 H   0  0  0  0  0  0  0  0  0  0  0  0
   59.8304   29.6070   44.3220 H   0  0  0  0  0  0  0  0  0  0  0  0
   61.4300   28.3580   43.9300 H   0  0  0  0  0  0  0  0  0  0  0  0
   60.3990   29.1360   47.2720 H   0  0  0  0  0  0  0  0  0  0  0  0
   61.8063   31.2635   47.7816 H   0  0  0  0  0  0  0  0  0  0  0  0
   61.6844   33.7447   47.9440 H   0  0  0  0  0  0  0  0  0  0  0  0
   59.8928   34.9942   46.7470 H   0  0  0  0  0  0  0  0  0  0  0  0
   58.3314   31.2650   45.1941 H   0  0  0  0  0  0  0  0  0  0  0  0
   57.2916   29.1991   46.2508 H   0  0  0  0  0  0  0  0  0  0  0  0
   54.7720   27.0970   45.2550 H   0  0  0  0  0  0  0  0  0  0  0  0
   57.1295   25.2063   42.5245 H   0  0  0  0  0  0  0  0  0  0  0  0
   56.4348   22.8900   41.9205 H   0  0  0  0  0  0  0  0  0  0  0  0
  1  2  1  0
  2  3  1  0
  3  4  2  0
  4  5  1  0
  5  6  2  0
  6  7  1  0
  7  8  1  0
  8  9  2  0
  9 10  1  0
 10 11  1  0
 10 12  1  0
 12 13  1  0
 13 14  2  0
 14 15  1  0
 15 16  2  0
 16 17  1  0
 17 18  1  0
 18 19  1  0
 18 20  1  0
 18 21  1  0
 17 22  2  0
  9 23  1  0
 23 24  2  0
 24 25  1  0
  6 26  1  0
 26 27  2  0
 27  3  1  0
 24  7  1  0
 22 13  1  0
  1 28  1  0
  1 29  1  0
  1 30  1  0
  4 31  1  0
  5 32  1  0
  8 33  1  0
 10 34  1  6
 11 35  1  0
 12 36  1  0
 14 37  1  0
 15 38  1  0
 16 39  1  0
 22 40  1  0
 23 41  1  0
 25 42  1  0
 26 43  1  0
 27 44  1  0
M  END
>  <UniqueID>  (4) 
4

>  <SMILES>  (4) 
COc1ccc(-n2cc([C@H](O)Nc3cccc(C(F)(F)F)c3)cc2O)cc1

>  <Energy>  (4) 
78.32829004184059

>  <Genealogy>  (4) 
COc1ccc(-n2cc([C@H](O)Nc3cccc(C(F)(F)F)c3)cc2O)cc1 (chirality)
COc1ccc(-n2cc([C@H](O)Nc3cccc(C(F)(F)F)c3)cc2O)cc1 (3D coordinates assigned)
COc1ccc(-n2cc([C@H](O)Nc3cccc(C(F)(F)F)c3)cc2O)cc1 (optimized conformer: 78.32829004184059 kcal/mol)

>  <smiles>  (4) 
COc1ccc(-n2cc(C(O)Nc3cccc(C(F)(F)F)c3)cc2O)cc1

>  <score_type>  (4) 
oracle

>  <origin>  (4) 
adg

>  <m_score__min__energy>  (4) 
-7.7000000000000002

>  <m_primary>  (4) 
energy

$$$$
4:0
     RDKit          3D

 52 54  0  0  0  0  0  0  0  0999 V2000
   66.7640   31.8420   50.4930 C   0  0  0  0  0  0  0  0  0  0  0  0
   65.8830   33.0500   50.7960 C   0  0  0  0  0  0  0  0  0  0  0  0
   65.1690   33.4610   49.6300 O   0  0  0  0  0  0  0  0  0  0  0  0
   64.0870   32.7780   49.0500 C   0  0  0  0  0  0  0  0  0  0  0  0
   63.7400   33.0930   47.7310 C   0  0  0  0  0  0  0  0  0  0  0  0
   62.6720   32.4470   47.1010 C   0  0  0  0  0  0  0  0  0  0  0  0
   61.9300   31.4720   47.7860 C   0  0  0  0  0  0  0  0  0  0  0  0
   60.8020   30.7930   47.1180 C   0  0  0  0  0  0  0  0  0  0  0  0
   60.1650   31.2860   46.0330 N   0  0  0  0  0  0  0  0  0  0  0  0
   59.2350   30.3510   45.7600 C   0  0  0  0  0  0  0  0  0  0  0  0
   58.2630   30.4430   44.6150 C   0  0  0  0  0  0  0  0  0  0  0  0
   58.0490   31.8250   44.1300 N   0  0  0  0  0  0  0  0  0  0  0  0
   57.7760   31.9260   42.6880 C   0  0  0  0  0  0  0  0  0  0  0  0
   57.2000   32.6770   44.9970 C   0  0  0  0  0  0  0  0  0  0  0  0
   57.8620   33.9990   45.4390 C   0  0  0  0  0  0  0  0  0  0  0  0
   58.5390   33.8310   46.7740 C   0  0  0  0  0  0  0  0  0  0  0  0
   59.5880   34.6870   47.1500 C   0  0  0  0  0  0  0  0  0  0  0  0
   60.1930   34.5490   48.4020 C   0  0  0  0  0  0  0  0  0  0  0  0
   59.7520   33.5630   49.2900 C   0  0  0  0  0  0  0  0  0  0  0  0
   58.7030   32.7140   48.9260 C   0  0  0  0  0  0  0  0  0  0  0  0
   58.0940   32.8490   47.6740 C   0  0  0  0  0  0  0  0  0  0  0  0
   59.3340   29.3360   46.6930 C   0  0  0  0  0  0  0  0  0  0  0  0
   58.4940   28.1060   46.7990 C   0  0  0  0  0  0  0  0  0  0  0  0
   60.3090   29.6370   47.5120 O   0  0  0  0  0  0  0  0  0  0  0  0
   62.2710   31.1580   49.1110 C   0  0  0  0  0  0  0  0  0  0  0  0
   63.3400   31.8050   49.7400 C   0  0  0  0  0  0  0  0  0  0  0  0
   67.0971   31.3852   51.4366 H   0  0  0  0  0  0  0  0  0  0  0  0
   66.1894   31.1056   49.9120 H   0  0  0  0  0  0  0  0  0  0  0  0
   67.6407   32.1641   49.9120 H   0  0  0  0  0  0  0  0  0  0  0  0
   65.1636   32.7833   51.5842 H   0  0  0  0  0  0  0  0  0  0  0  0
   66.5240   33.8799   51.1281 H   0  0  0  0  0  0  0  0  0  0  0  0
   64.3133   33.8564   47.1847 H   0  0  0  0  0  0  0  0  0  0  0  0
   62.4120   32.7040   46.0636 H   0  0  0  0  0  0  0  0  0  0  0  0
   58.6489   29.8376   43.7816 H   0  0  0  0  0  0  0  0  0  0  0  0
   57.2937   30.0765   44.9840 H   0  0  0  0  0  0  0  0  0  0  0  0
   56.7545   32.3039   42.5338 H   0  0  0  0  0  0  0  0  0  0  0  0
   58.4963   32.6172   42.2260 H   0  0  0  0  0  0  0  0  0  0  0  0
   57.8730   30.9325   42.2260 H   0  0  0  0  0  0  0  0  0  0  0  0
   56.2805   32.9209   44.4447 H   0  0  0  0  0  0  0  0  0  0  0  0
   57.0102   32.0998   45.9140 H   0  0  0  0  0  0  0  0  0  0  0  0
   58.6096   34.2976   44.6893 H   0  0  0  0  0  0  0  0  0  0  0  0
   57.0850   34.7724   45.5296 H   0  0  0  0  0  0  0  0  0  0  0  0
   59.9339   35.4679   46.4568 H   0  0  0  0  0  0  0  0  0  0  0  0
   61.0179   35.2174   48.6896 H   0  0  0  0  0  0  0  0  0  0  0  0
   60.2304   33.4555   50.2747 H   0  0  0  0  0  0  0  0  0  0  0  0
   58.3559   31.9387   49.6250 H   0  0  0  0  0  0  0  0  0  0  0  0
   57.2639   32.1839   47.3935 H   0  0  0  0  0  0  0  0  0  0  0  0
   58.3293   27.8648   47.8595 H   0  0  0  0  0  0  0  0  0  0  0  0
   57.5253   28.2801   46.3078 H   0  0  0  0  0  0  0  0  0  0  0  0
   59.0087   27.2671   46.3078 H   0  0  0  0  0  0  0  0  0  0  0  0
   61.6938   30.3982   49.6583 H   0  0  0  0  0  0  0  0  0  0  0  0
   63.5980   31.5520   50.7790 H   0  0  0  0  0  0  0  0  0  0  0  0
  1  2  1  0
  2  3  1  0
  3  4  1  0
  4  5  2  0
  5  6  1  0
  6  7  2  0
  7  8  1  0
  8  9  2  0
  9 10  1  0
 10 11  1  0
 11 12  1  0
 12 13  1  0
 12 14  1  0
 14 15  1  0
 15 16  1  0
 16 17  2  0
 17 18  1  0
 18 19  2  0
 19 20  1  0
 20 21  2  0
 10 22  2  0
 22 23  1  0
 22 24  1  0
  7 25  1  0
 25 26  2  0
 26  4  1  0
 24  8  1  0
 21 16  1  0
  1 27  1  0
  1 28  1  0
  1 29  1  0
  2 30  1  0
  2 31  1  0
  5 32  1  0
  6 33  1  0
 11 34  1  0
 11 35  1  0
 13 36  1  0
 13 37  1  0
 13 38  1  0
 14 39  1  0
 14 40  1  0
 15 41  1  0
 15 42  1  0
 17 43  1  0
 18 44  1  0
 19 45  1  0
 20 46  1  0
 21 47  1  0
 23 48  1  0
 23 49  1  0
 23 50  1  0
 25 51  1  0
 26 52  1  0
M  END
>  <UniqueID>  (5) 
5

>  <SMILES>  (5) 
CCOc1ccc(-c2nc(CN(C)CCc3ccccc3)c(C)o2)cc1

>  <Energy>  (5) 
83.82840756495857

>  <Genealogy>  (5) 
CCOc1ccc(-c2nc(CN(C)CCc3ccccc3)c(C)o2)cc1 (3D coordinates assigned)
CCOc1ccc(-c2nc(CN(C)CCc3ccccc3)c(C)o2)cc1 (optimized conformer: 83.82840756495857 kcal/mol)

>  <smiles>  (5) 
CCOc1ccc(-c2nc(CN(C)CCc3ccccc3)c(C)o2)cc1

>  <score_type>  (5) 
oracle

>  <origin>  (5) 
adg

>  <m_score__min__energy>  (5) 
-7.8600000000000003

>  <m_primary>  (5) 
energy

$$$$
5:0
     RDKit          3D

 74 77  0  0  0  0  0  0  0  0999 V2000
   60.2670   32.4030   51.6220 C   0  0  0  0  0  0  0  0  0  0  0  0
   60.9200   31.0340   51.8630 C   0  0  0  0  0  0  0  0  0  0  0  0
   61.3860   30.3700   50.6230 N   0  0  0  0  0  0  0  0  0  0  0  0
   60.4500   30.5520   49.4930 C   0  0  0  0  0  0  0  0  0  0  0  0
   61.1270   30.2240   48.1630 C   0  0  0  0  0  0  0  0  0  0  0  0
   61.7870   28.9580   50.8400 C   0  0  0  0  0  0  0  0  0  0  0  0
   62.7940   28.8910   51.9910 C   0  0  0  0  0  0  0  0  0  0  0  0
   64.1860   29.4020   51.5970 C   0  0  0  0  0  0  0  0  0  0  0  0
   64.2110   30.8730   51.5190 N   0  0  0  0  0  0  0  0  0  0  0  0
   64.8290   31.5140   52.7000 C   0  0  0  0  0  0  0  0  0  0  0  0
   66.0360   32.3520   52.3230 C   0  0  0  0  0  0  0  0  0  0  0  0
   67.2140   32.2320   53.0820 C   0  0  0  0  0  0  0  0  0  0  0  0
   68.3630   32.9430   52.7280 C   0  0  0  0  0  0  0  0  0  0  0  0
   68.3570   33.7680   51.6040 C   0  0  0  0  0  0  0  0  0  0  0  0
   67.2020   33.8880   50.8300 C   0  0  0  0  0  0  0  0  0  0  0  0
   66.0350   33.1900   51.1800 C   0  0  0  0  0  0  0  0  0  0  0  0
   64.8430   33.3360   50.3250 C   0  0  0  0  0  0  0  0  0  0  0  0
   63.7510   34.1000   50.7580 C   0  0  0  0  0  0  0  0  0  0  0  0
   62.6110   34.2140   49.9580 C   0  0  0  0  0  0  0  0  0  0  0  0
   62.5490   33.5700   48.7080 C   0  0  0  0  0  0  0  0  0  0  0  0
   61.3300   33.6730   47.8660 C   0  0  0  0  0  0  0  0  0  0  0  0
   61.4350   33.8350   46.4730 C   0  0  0  0  0  0  0  0  0  0  0  0
   60.2890   33.9440   45.6810 C   0  0  0  0  0  0  0  0  0  0  0  0
   59.0110   33.8940   46.2700 C   0  0  0  0  0  0  0  0  0  0  0  0
   57.8280   34.0140   45.5240 O   0  0  0  0  0  0  0  0  0  0  0  0
   57.5950   33.4220   44.2440 C   0  0  0  0  0  0  0  0  0  0  0  0
   57.4870   31.9240   44.3590 C   0  0  0  0  0  0  0  0  0  0  0  0
   57.9290   31.2720   45.5230 C   0  0  0  0  0  0  0  0  0  0  0  0
   57.8360   29.8810   45.6280 C   0  0  0  0  0  0  0  0  0  0  0  0
   57.3120   29.1310   44.5720 C   0  0  0  0  0  0  0  0  0  0  0  0
   56.8830   29.7700   43.4060 C   0  0  0  0  0  0  0  0  0  0  0  0
   56.9740   31.1610   43.2960 C   0  0  0  0  0  0  0  0  0  0  0  0
   58.9060   33.7220   47.6550 C   0  0  0  0  0  0  0  0  0  0  0  0
   60.0520   33.6140   48.4470 C   0  0  0  0  0  0  0  0  0  0  0  0
   63.6570   32.8210   48.2720 C   0  0  0  0  0  0  0  0  0  0  0  0
   64.7970   32.7110   49.0720 C   0  0  0  0  0  0  0  0  0  0  0  0
   60.0410   32.8767   52.5887 H   0  0  0  0  0  0  0  0  0  0  0  0
   60.9568   33.0431   51.0523 H   0  0  0  0  0  0  0  0  0  0  0  0
   59.3355   32.2697   51.0523 H   0  0  0  0  0  0  0  0  0  0  0  0
   61.7849   31.1740   52.5281 H   0  0  0  0  0  0  0  0  0  0  0  0
   60.1508   30.3844   52.3060 H   0  0  0  0  0  0  0  0  0  0  0  0
   59.5858   29.8855   49.6308 H   0  0  0  0  0  0  0  0  0  0  0  0
   60.1264   31.6031   49.4717 H   0  0  0  0  0  0  0  0  0  0  0  0
   62.1018   29.7517   48.3544 H   0  0  0  0  0  0  0  0  0  0  0  0
   60.4917   29.5338   47.5886 H   0  0  0  0  0  0  0  0  0  0  0  0
   61.2749   31.1504   47.5886 H   0  0  0  0  0  0  0  0  0  0  0  0
   60.8999   28.3584   51.0921 H   0  0  0  0  0  0  0  0  0  0  0  0
   62.2468   28.5598   49.9235 H   0  0  0  0  0  0  0  0  0  0  0  0
   62.4175   29.5043   52.8229 H   0  0  0  0  0  0  0  0  0  0  0  0
   62.8991   27.8339   52.2766 H   0  0  0  0  0  0  0  0  0  0  0  0
   64.9164   29.0701   52.3496 H   0  0  0  0  0  0  0  0  0  0  0  0
   64.4385   28.9963   50.6062 H   0  0  0  0  0  0  0  0  0  0  0  0
   63.2300   31.2130   51.3830 H   0  0  0  0  0  0  0  0  0  0  0  0
   64.0833   32.1621   53.1836 H   0  0  0  0  0  0  0  0  0  0  0  0
   65.1658   30.7191   53.3817 H   0  0  0  0  0  0  0  0  0  0  0  0
   67.2306   31.5724   53.9622 H   0  0  0  0  0  0  0  0  0  0  0  0
   69.2744   32.8519   53.3372 H   0  0  0  0  0  0  0  0  0  0  0  0
   69.2641   34.3251   51.3269 H   0  0  0  0  0  0  0  0  0  0  0  0
   67.2059   34.5339   49.9396 H   0  0  0  0  0  0  0  0  0  0  0  0
   63.7913   34.6117   51.7309 H   0  0  0  0  0  0  0  0  0  0  0  0
   61.7560   34.8113   50.3076 H   0  0  0  0  0  0  0  0  0  0  0  0
   62.4285   33.8763   46.0026 H   0  0  0  0  0  0  0  0  0  0  0  0
   60.3857   34.0694   44.5925 H   0  0  0  0  0  0  0  0  0  0  0  0
   56.6579   33.8202   43.8277 H   0  0  0  0  0  0  0  0  0  0  0  0
   58.4409   33.6648   43.5841 H   0  0  0  0  0  0  0  0  0  0  0  0
   58.3493   31.8578   46.3538 H   0  0  0  0  0  0  0  0  0  0  0  0
   58.1761   29.3759   46.5441 H   0  0  0  0  0  0  0  0  0  0  0  0
   57.2372   28.0370   44.6587 H   0  0  0  0  0  0  0  0  0  0  0  0
   56.4734   29.1785   42.5739 H   0  0  0  0  0  0  0  0  0  0  0  0
   56.6426   31.6602   42.3735 H   0  0  0  0  0  0  0  0  0  0  0  0
   57.9124   33.6714   48.1242 H   0  0  0  0  0  0  0  0  0  0  0  0
   59.9529   33.4817   49.5345 H   0  0  0  0  0  0  0  0  0  0  0  0
   63.6256   32.3183   47.2941 H   0  0  0  0  0  0  0  0  0  0  0  0
   65.6618   32.1314   48.7167 H   0  0  0  0  0  0  0  0  0  0  0  0
  1  2  1  0
  2  3  1  0
  3  4  1  0
  4  5  1  0
  3  6  1  0
  6  7  1  0
  7  8  1  0
  8  9  1  0
  9 10  1  0
 10 11  1  0
 11 12  2  0
 12 13  1  0
 13 14  2  0
 14 15  1  0
 15 16  2  0
 16 17  1  0
 17 18  2  0
 18 19  1  0
 19 20  2  0
 20 21  1  0
 21 22  2  0
 22 23  1  0
 23 24  2  0
 24 25  1  0
 25 26  1  0
 26 27  1  0
 27 28  2  0
 28 29  1  0
 29 30  2  0
 30 31  1  0
 31 32  2  0
 24 33  1  0
 33 34  2  0
 20 35  1  0
 35 36  2  0
 16 11  1  0
 36 17  1  0
 34 21  1  0
 32 27  1  0
  1 37  1  0
  1 38  1  0
  1 39  1  0
  2 40  1  0
  2 41  1  0
  4 42  1  0
  4 43  1  0
  5 44  1  0
  5 45  1  0
  5 46  1  0
  6 47  1  0
  6 48  1  0
  7 49  1  0
  7 50  1  0
  8 51  1  0
  8 52  1  0
  9 53  1  0
 10 54  1  0
 10 55  1  0
 12 56  1  0
 13 57  1  0
 14 58  1  0
 15 59  1  0
 18 60  1  0
 19 61  1  0
 22 62  1  0
 23 63  1  0
 26 64  1  0
 26 65  1  0
 28 66  1  0
 29 67  1  0
 30 68  1  0
 31 69  1  0
 32 70  1  0
 33 71  1  0
 34 72  1  0
 35 73  1  0
 36 74  1  0
M  END
>  <UniqueID>  (6) 
6

>  <SMILES>  (6) 
CCN(CC)CCCNCc1ccccc1-c1ccc(-c2ccc(OCc3ccccc3)cc2)cc1

>  <Energy>  (6) 
91.09140919044904

>  <Genealogy>  (6) 
CCN(CC)CCCNCc1ccccc1-c1ccc(-c2ccc(OCc3ccccc3)cc2)cc1 (3D coordinates assigned)
CCN(CC)CCCNCc1ccccc1-c1ccc(-c2ccc(OCc3ccccc3)cc2)cc1 (optimized conformer: 91.09140919044904 kcal/mol)

>  <smiles>  (6) 
CCN(CC)CCCNCc1ccccc1-c1ccc(-c2ccc(OCc3ccccc3)cc2)cc1

>  <score_type>  (6) 
oracle

>  <origin>  (6) 
adg

>  <m_score__min__energy>  (6) 
-9.1400000000000006

>  <m_primary>  (6) 
energy

$$$$
6:0
     RDKit          3D

 59 61  0  0  0  0  0  0  0  0999 V2000
   58.9050   30.8920   49.7890 C   0  0  0  0  0  0  0  0  0  0  0  0
   60.1670   30.8850   49.3480 C   0  0  0  0  0  0  0  0  0  0  0  0
   60.5150   30.4850   47.9380 C   0  0  0  0  0  0  0  0  0  0  0  0
   59.9260   29.1300   47.6280 C   0  0  0  0  0  0  0  0  0  0  0  0
   60.3830   28.0080   48.3450 C   0  0  0  0  0  0  0  0  0  0  0  0
   59.8380   26.7440   48.1050 C   0  0  0  0  0  0  0  0  0  0  0  0
   58.8300   26.5840   47.1530 C   0  0  0  0  0  0  0  0  0  0  0  0
   58.3650   27.6880   46.4360 C   0  0  0  0  0  0  0  0  0  0  0  0
   58.9070   28.9650   46.6640 C   0  0  0  0  0  0  0  0  0  0  0  0
   58.4640   30.0560   45.9110 O   0  0  0  0  0  0  0  0  0  0  0  0
   58.3040   29.9930   44.4950 C   0  0  0  0  0  0  0  0  0  0  0  0
   57.0910   30.8220   44.0470 C   0  0  1  0  0  0  0  0  0  0  0  0
   55.9510   30.4280   44.7620 O   0  0  0  0  0  0  0  0  0  0  0  0
   57.2850   32.3600   44.1290 C   0  0  0  0  0  0  0  0  0  0  0  0
   58.2430   32.8350   45.1630 N   0  0  0  0  0  0  0  0  0  0  0  0
   58.9740   34.0280   44.6500 C   0  0  0  0  0  0  0  0  0  0  0  0
   59.6010   34.8890   45.7650 C   0  0  0  0  0  0  0  0  0  0  0  0
   59.7920   34.0900   46.9780 N   0  0  0  0  0  0  0  0  0  0  0  0
   61.1000   33.8860   47.5510 C   0  0  0  0  0  0  0  0  0  0  0  0
   62.1540   33.3820   46.7650 C   0  0  0  0  0  0  0  0  0  0  0  0
   63.4120   33.1550   47.3320 C   0  0  0  0  0  0  0  0  0  0  0  0
   63.6310   33.4280   48.6840 C   0  0  0  0  0  0  0  0  0  0  0  0
   62.5990   33.9300   49.4840 C   0  0  0  0  0  0  0  0  0  0  0  0
   62.8710   34.1920   50.8350 O   0  0  0  0  0  0  0  0  0  0  0  0
   64.1410   34.0090   51.4480 C   0  0  0  0  0  0  0  0  0  0  0  0
   61.3300   34.1560   48.9110 C   0  0  0  0  0  0  0  0  0  0  0  0
   58.6210   33.4090   47.5430 C   0  0  0  0  0  0  0  0  0  0  0  0
   57.5700   33.1440   46.4470 C   0  0  0  0  0  0  0  0  0  0  0  0
   58.6861   31.1897   50.8251 H   0  0  0  0  0  0  0  0  0  0  0  0
   58.0855   30.6001   49.1158 H   0  0  0  0  0  0  0  0  0  0  0  0
   60.9744   31.1798   50.0344 H   0  0  0  0  0  0  0  0  0  0  0  0
   60.1081   31.2286   47.2370 H   0  0  0  0  0  0  0  0  0  0  0  0
   61.6091   30.4364   47.8349 H   0  0  0  0  0  0  0  0  0  0  0  0
   61.1746   28.1272   49.0994 H   0  0  0  0  0  0  0  0  0  0  0  0
   60.2043   25.8728   48.6678 H   0  0  0  0  0  0  0  0  0  0  0  0
   58.4018   25.5879   46.9676 H   0  0  0  0  0  0  0  0  0  0  0  0
   57.5693   27.5578   45.6877 H   0  0  0  0  0  0  0  0  0  0  0  0
   59.2096   30.3882   44.0116 H   0  0  0  0  0  0  0  0  0  0  0  0
   58.1420   28.9446   44.2042 H   0  0  0  0  0  0  0  0  0  0  0  0
   56.9635   30.6087   42.9754 H   0  0  0  0  0  0  0  0  0  0  0  0
   56.2670   30.0960   45.6440 H   0  0  0  0  0  0  0  0  0  0  0  0
   57.6449   32.7080   43.1495 H   0  0  0  0  0  0  0  0  0  0  0  0
   56.3058   32.7709   44.4161 H   0  0  0  0  0  0  0  0  0  0  0  0
   58.9570   32.0920   45.3340 H   0  0  0  0  0  0  0  0  0  0  0  0
   59.7773   33.6839   43.9819 H   0  0  0  0  0  0  0  0  0  0  0  0
   58.2396   34.6585   44.1274 H   0  0  0  0  0  0  0  0  0  0  0  0
   60.5750   35.2703   45.4246 H   0  0  0  0  0  0  0  0  0  0  0  0
   58.9262   35.7276   45.9916 H   0  0  0  0  0  0  0  0  0  0  0  0
   61.9870   33.1657   45.6995 H   0  0  0  0  0  0  0  0  0  0  0  0
   64.2306   32.7607   46.7120 H   0  0  0  0  0  0  0  0  0  0  0  0
   64.6230   33.2468   49.1234 H   0  0  0  0  0  0  0  0  0  0  0  0
   64.0260   34.0256   52.5418 H   0  0  0  0  0  0  0  0  0  0  0  0
   64.5616   33.0410   51.1382 H   0  0  0  0  0  0  0  0  0  0  0  0
   64.8178   34.8189   51.1382 H   0  0  0  0  0  0  0  0  0  0  0  0
   60.5126   34.5473   49.5345 H   0  0  0  0  0  0  0  0  0  0  0  0
   58.9361   32.4507   47.9817 H   0  0  0  0  0  0  0  0  0  0  0  0
   58.1745   34.0513   48.3163 H   0  0  0  0  0  0  0  0  0  0  0  0
   56.9417   32.2911   46.7434 H   0  0  0  0  0  0  0  0  0  0  0  0
   56.9460   34.0411   46.3208 H   0  0  0  0  0  0  0  0  0  0  0  0
  1  2  2  0
  2  3  1  0
  3  4  1  0
  4  5  2  0
  5  6  1  0
  6  7  2  0
  7  8  1  0
  8  9  2  0
  9 10  1  0
 10 11  1  0
 11 12  1  0
 12 13  1  0
 12 14  1  0
 14 15  1  0
 15 16  1  0
 16 17  1  0
 17 18  1  0
 18 19  1  0
 19 20  2  0
 20 21  1  0
 21 22  2  0
 22 23  1  0
 23 24  1  0
 24 25  1  0
 23 26  2  0
 18 27  1  0
 27 28  1  0
  9  4  1  0
 28 15  1  0
 26 19  1  0
  1 29  1  0
  1 30  1  0
  2 31  1  0
  3 32  1  0
  3 33  1  0
  5 34  1  0
  6 35  1  0
  7 36  1  0
  8 37  1  0
 11 38  1  0
 11 39  1  0
 12 40  1  6
 13 41  1  0
 14 42  1  0
 14 43  1  0
 15 44  1  0
 16 45  1  0
 16 46  1  0
 17 47  1  0
 17 48  1  0
 20 49  1  0
 21 50  1  0
 22 51  1  0
 25 52  1  0
 25 53  1  0
 25 54  1  0
 26 55  1  0
 27 56  1  0
 27 57  1  0
 28 58  1  0
 28 59  1  0
M  CHG  1  15   1
M  END
>  <UniqueID>  (7) 
7

>  <SMILES>  (7) 
C=CCc1ccccc1OC[C@@H](O)C[NH+]1CCN(c2cccc(OC)c2)CC1

>  <Energy>  (7) 
70.55302161802602

>  <Genealogy>  (7) 
C=CCc1ccccc1OCC(O)C[NH+]1CCN(c2cccc(OC)c2)CC1 (protonated)
C=CCc1ccccc1OC[C@@H](O)C[NH+]1CCN(c2cccc(OC)c2)CC1 (chirality)
C=CCc1ccccc1OC[C@@H](O)C[NH+]1CCN(c2cccc(OC)c2)CC1 (3D coordinates assigned)
C=CCc1ccccc1OC[C@@H](O)C[NH+]1CCN(c2cccc(OC)c2)CC1 (nonaromatic ring conformer: 70.55302161802602 kcal/mol)

>  <smiles>  (7) 
C=CCc1ccccc1OCC(O)CN1CCN(c2cccc(OC)c2)CC1

>  <score_type>  (7) 
oracle

>  <origin>  (7) 
adg

>  <m_score__min__energy>  (7) 
-6.0199999999999996

>  <m_primary>  (7) 
energy

$$$$
7:0
     RDKit          3D

 55 56  0  0  0  0  0  0  0  0999 V2000
   60.6210   29.8760   46.0850 C   0  0  0  0  0  0  0  0  0  0  0  0
   60.3970   28.9580   44.8870 C   0  0  0  0  0  0  0  0  0  0  0  0
   59.3480   27.9520   45.1830 N   0  0  0  0  0  0  0  0  0  0  0  0
   58.8900   28.0690   46.5880 C   0  0  0  0  0  0  0  0  0  0  0  0
   59.3170   26.8470   47.3970 C   0  0  0  0  0  0  0  0  0  0  0  0
   58.2090   28.0950   44.2460 C   0  0  0  0  0  0  0  0  0  0  0  0
   56.9020   28.3520   45.0030 C   0  0  0  0  0  0  0  0  0  0  0  0
   56.4780   29.7070   44.8470 O   0  0  0  0  0  0  0  0  0  0  0  0
   57.3460   30.8040   44.8760 C   0  0  0  0  0  0  0  0  0  0  0  0
   57.8000   31.2390   45.9680 O   0  0  0  0  0  0  0  0  0  0  0  0
   57.7090   31.4830   43.5910 C   0  0  0  0  0  0  0  0  0  0  0  0
   58.0510   32.9700   43.7900 C   0  0  0  0  0  0  0  0  0  0  0  0
   57.1810   33.6770   44.8390 C   0  0  0  0  0  0  0  0  0  0  0  0
   57.9440   34.5980   45.6210 O   0  0  0  0  0  0  0  0  0  0  0  0
   59.1000   34.3180   46.3690 C   0  0  0  0  0  0  0  0  0  0  0  0
   60.3850   34.2140   45.8010 C   0  0  0  0  0  0  0  0  0  0  0  0
   61.4970   33.9610   46.6110 C   0  0  0  0  0  0  0  0  0  0  0  0
   61.3470   33.7940   47.9990 C   0  0  0  0  0  0  0  0  0  0  0  0
   62.5300   33.5480   48.8640 C   0  0  0  0  0  0  0  0  0  0  0  0
   63.4830   32.5740   48.5090 C   0  0  0  0  0  0  0  0  0  0  0  0
   64.5950   32.3420   49.3240 C   0  0  0  0  0  0  0  0  0  0  0  0
   64.7670   33.0770   50.4990 C   0  0  0  0  0  0  0  0  0  0  0  0
   63.8280   34.0460   50.8620 C   0  0  0  0  0  0  0  0  0  0  0  0
   62.7140   34.2820   50.0500 C   0  0  0  0  0  0  0  0  0  0  0  0
   60.0590   33.8690   48.5560 C   0  0  0  0  0  0  0  0  0  0  0  0
   58.9510   34.1300   47.7470 C   0  0  0  0  0  0  0  0  0  0  0  0
   60.4818   29.3055   47.0152 H   0  0  0  0  0  0  0  0  0  0  0  0
   61.6439   30.2792   46.0518 H   0  0  0  0  0  0  0  0  0  0  0  0
   59.8988   30.7050   46.0518 H   0  0  0  0  0  0  0  0  0  0  0  0
   60.0834   29.5625   44.0231 H   0  0  0  0  0  0  0  0  0  0  0  0
   61.3373   28.4320   44.6653 H   0  0  0  0  0  0  0  0  0  0  0  0
   59.3298   28.9715   47.0374 H   0  0  0  0  0  0  0  0  0  0  0  0
   57.7920   28.1345   46.5983 H   0  0  0  0  0  0  0  0  0  0  0  0
   59.2383   27.0723   48.4708 H   0  0  0  0  0  0  0  0  0  0  0  0
   58.6624   25.9978   47.1516 H   0  0  0  0  0  0  0  0  0  0  0  0
   60.3581   26.5903   47.1516 H   0  0  0  0  0  0  0  0  0  0  0  0
   58.4044   28.9398   43.5691 H   0  0  0  0  0  0  0  0  0  0  0  0
   58.1052   27.1597   43.6764 H   0  0  0  0  0  0  0  0  0  0  0  0
   56.1216   27.6834   44.6106 H   0  0  0  0  0  0  0  0  0  0  0  0
   57.0727   28.1591   46.0724 H   0  0  0  0  0  0  0  0  0  0  0  0
   58.5826   30.9745   43.1572 H   0  0  0  0  0  0  0  0  0  0  0  0
   56.8368   31.4257   42.9232 H   0  0  0  0  0  0  0  0  0  0  0  0
   59.1020   33.0437   44.1061 H   0  0  0  0  0  0  0  0  0  0  0  0
   57.8608   33.4711   42.8294 H   0  0  0  0  0  0  0  0  0  0  0  0
   56.3772   34.2250   44.3255 H   0  0  0  0  0  0  0  0  0  0  0  0
   56.7669   32.9133   45.5138 H   0  0  0  0  0  0  0  0  0  0  0  0
   60.5145   34.3323   44.7151 H   0  0  0  0  0  0  0  0  0  0  0  0
   62.4972   33.8921   46.1583 H   0  0  0  0  0  0  0  0  0  0  0  0
   63.3517   31.9921   47.5848 H   0  0  0  0  0  0  0  0  0  0  0  0
   65.3353   31.5797   49.0395 H   0  0  0  0  0  0  0  0  0  0  0  0
   65.6424   32.8929   51.1392 H   0  0  0  0  0  0  0  0  0  0  0  0
   63.9652   34.6241   51.7878 H   0  0  0  0  0  0  0  0  0  0  0  0
   61.9776   35.0458   50.3403 H   0  0  0  0  0  0  0  0  0  0  0  0
   59.9225   33.7210   49.6374 H   0  0  0  0  0  0  0  0  0  0  0  0
   57.9497   34.1884   48.1986 H   0  0  0  0  0  0  0  0  0  0  0  0
  1  2  1  0
  2  3  1  0
  3  4  1  0
  4  5  1  0
  3  6  1  0
  6  7  1  0
  7  8  1  0
  8  9  1  0
  9 10  2  0
  9 11  1  0
 11 12  1  0
 12 13  1  0
 13 14  1  0
 14 15  1  0
 15 16  2  0
 16 17  1  0
 17 18  2  0
 18 19  1  0
 19 20  2  0
 20 21  1  0
 21 22  2  0
 22 23  1  0
 23 24  2  0
 18 25  1  0
 25 26  2  0
 26 15  1  0
 24 19  1  0
  1 27  1  0
  1 28  1  0
  1 29  1  0
  2 30  1  0
  2 31  1  0
  4 32  1  0
  4 33  1  0
  5 34  1  0
  5 35  1  0
  5 36  1  0
  6 37  1  0
  6 38  1  0
  7 39  1  0
  7 40  1  0
 11 41  1  0
 11 42  1  0
 12 43  1  0
 12 44  1  0
 13 45  1  0
 13 46  1  0
 16 47  1  0
 17 48  1  0
 20 49  1  0
 21 50  1  0
 22 51  1  0
 23 52  1  0
 24 53  1  0
 25 54  1  0
 26 55  1  0
M  END
>  <UniqueID>  (8) 
8

>  <SMILES>  (8) 
CCN(CC)CCOC(=O)CCCOc1ccc(-c2ccccc2)cc1

>  <Energy>  (8) 
51.93030931285559

>  <Genealogy>  (8) 
CCN(CC)CCOC(=O)CCCOc1ccc(-c2ccccc2)cc1 (3D coordinates assigned)
CCN(CC)CCOC(=O)CCCOc1ccc(-c2ccccc2)cc1 (optimized conformer: 51.93030931285559 kcal/mol)

>  <smiles>  (8) 
CCN(CC)CCOC(=O)CCCOc1ccc(-c2ccccc2)cc1

>  <score_type>  (8) 
oracle

>  <origin>  (8) 
adg

>  <m_score__min__energy>  (8) 
-7.4500000000000002

>  <m_primary>  (8) 
energy

$$$$
8:0
     RDKit          3D

 41 42  0  0  0  0  0  0  0  0999 V2000
   58.0310   25.2030   44.9250 C   0  0  0  0  0  0  0  0  0  0  0  0
   57.7690   25.9990   43.6520 C   0  0  0  0  0  0  0  0  0  0  0  0
   58.4070   27.3980   43.6880 C   0  0  0  0  0  0  0  0  0  0  0  0
   57.7300   28.3000   44.6360 N   0  0  0  0  0  0  0  0  0  0  0  0
   57.9550   28.1100   46.0800 C   0  0  0  0  0  0  0  0  0  0  0  0
   58.8440   29.2120   46.6790 C   0  0  0  0  0  0  0  0  0  0  0  0
   59.9640   29.6410   45.7360 C   0  0  0  0  0  0  0  0  0  0  0  0
   56.5790   29.0540   44.2050 C   0  0  0  0  0  0  0  0  0  0  0  0
   55.5120   29.0060   44.8770 O   0  0  0  0  0  0  0  0  0  0  0  0
   56.6520   29.9920   43.0370 C   0  0  0  0  0  0  0  0  0  0  0  0
   57.3780   31.2340   43.4390 C   0  0  0  0  0  0  0  0  0  0  0  0
   57.8720   32.1400   42.5720 N   0  0  0  0  0  0  0  0  0  0  0  0
   58.4550   33.0750   43.3080 N   0  0  0  0  0  0  0  0  0  0  0  0
   58.2930   32.7040   44.5950 C   0  0  0  0  0  0  0  0  0  0  0  0
   58.8010   33.4640   45.7530 C   0  0  0  0  0  0  0  0  0  0  0  0
   58.7950   32.9020   47.0390 C   0  0  0  0  0  0  0  0  0  0  0  0
   59.2700   33.6400   48.1250 C   0  0  0  0  0  0  0  0  0  0  0  0
   59.7510   34.9350   47.9160 C   0  0  0  0  0  0  0  0  0  0  0  0
   59.7510   35.4680   46.6660 N   0  0  0  0  0  0  0  0  0  0  0  0
   59.2930   34.7700   45.5920 C   0  0  0  0  0  0  0  0  0  0  0  0
   57.6300   31.5740   44.6810 O   0  0  0  0  0  0  0  0  0  0  0  0
   57.8232   25.8343   45.8015 H   0  0  0  0  0  0  0  0  0  0  0  0
   57.3763   24.3193   44.9461 H   0  0  0  0  0  0  0  0  0  0  0  0
   59.0826   24.8809   44.9461 H   0  0  0  0  0  0  0  0  0  0  0  0
   58.1842   25.4442   42.7977 H   0  0  0  0  0  0  0  0  0  0  0  0
   56.6809   26.1311   43.5594 H   0  0  0  0  0  0  0  0  0  0  0  0
   59.4609   27.2980   43.9868 H   0  0  0  0  0  0  0  0  0  0  0  0
   58.3126   27.8355   42.6832 H   0  0  0  0  0  0  0  0  0  0  0  0
   56.9828   28.1205   46.5944 H   0  0  0  0  0  0  0  0  0  0  0  0
   58.4704   27.1481   46.2178 H   0  0  0  0  0  0  0  0  0  0  0  0
   58.2169   30.0877   46.9023 H   0  0  0  0  0  0  0  0  0  0  0  0
   59.3117   28.8050   47.5876 H   0  0  0  0  0  0  0  0  0  0  0  0
   60.8318   29.9734   46.3246 H   0  0  0  0  0  0  0  0  0  0  0  0
   60.2551   28.7907   45.1017 H   0  0  0  0  0  0  0  0  0  0  0  0
   59.6126   30.4682   45.1017 H   0  0  0  0  0  0  0  0  0  0  0  0
   57.1887   29.5054   42.2092 H   0  0  0  0  0  0  0  0  0  0  0  0
   55.6338   30.2520   42.7119 H   0  0  0  0  0  0  0  0  0  0  0  0
   58.4163   31.8806   47.1913 H   0  0  0  0  0  0  0  0  0  0  0  0
   59.2656   33.2059   49.1357 H   0  0  0  0  0  0  0  0  0  0  0  0
   60.1301   35.5238   48.7643 H   0  0  0  0  0  0  0  0  0  0  0  0
   59.3079   35.2302   44.5930 H   0  0  0  0  0  0  0  0  0  0  0  0
  1  2  1  0
  2  3  1  0
  3  4  1  0
  4  5  1  0
  5  6  1  0
  6  7  1  0
  4  8  1  0
  8  9  2  0
  8 10  1  0
 10 11  1  0
 11 12  2  0
 12 13  1  0
 13 14  2  0
 14 15  1  0
 15 16  2  0
 16 17  1  0
 17 18  2  0
 18 19  1  0
 19 20  2  0
 14 21  1  0
 21 11  1  0
 20 15  1  0
  1 22  1  0
  1 23  1  0
  1 24  1  0
  2 25  1  0
  2 26  1  0
  3 27  1  0
  3 28  1  0
  5 29  1  0
  5 30  1  0
  6 31  1  0
  6 32  1  0
  7 33  1  0
  7 34  1  0
  7 35  1  0
 10 36  1  0
 10 37  1  0
 16 38  1  0
 17 39  1  0
 18 40  1  0
 20 41  1  0
M  END
>  <UniqueID>  (9) 
9

>  <SMILES>  (9) 
CCCN(CCC)C(=O)Cc1nnc(-c2cccnc2)o1

>  <Energy>  (9) 
66.31669026930024

>  <Genealogy>  (9) 
CCCN(CCC)C(=O)Cc1nnc(-c2cccnc2)o1 (3D coordinates assigned)
CCCN(CCC)C(=O)Cc1nnc(-c2cccnc2)o1 (optimized conformer: 66.31669026930024 kcal/mol)

>  <smiles>  (9) 
CCCN(CCC)C(=O)Cc1nnc(-c2cccnc2)o1

>  <score_type>  (9) 
oracle

>  <origin>  (9) 
adg

>  <m_score__min__energy>  (9) 
-8.0600000000000005

>  <m_primary>  (9) 
energy

$$$$
9:0
     RDKit          3D

 59 60  0  0  0  0  0  0  0  0999 V2000
   56.2550   29.7510   42.7660 C   0  0  0  0  0  0  0  0  0  0  0  0
   55.8960   30.1540   44.1960 C   0  0  0  0  0  0  0  0  0  0  0  0
   57.0560   30.7870   44.8700 N   0  0  0  0  0  0  0  0  0  0  0  0
   56.9300   32.2670   44.8700 C   0  0  0  0  0  0  0  0  0  0  0  0
   58.0200   32.8870   43.9990 C   0  0  0  0  0  0  0  0  0  0  0  0
   58.3330   30.3620   44.2440 C   0  0  0  0  0  0  0  0  0  0  0  0
   59.1800   29.5820   45.2440 C   0  0  0  0  0  0  0  0  0  0  0  0
   58.4650   29.4660   46.5110 N   0  0  0  0  0  0  0  0  0  0  0  0
   59.0940   29.5850   47.7900 C   0  0  0  0  0  0  0  0  0  0  0  0
   59.4250   30.6060   48.6730 C   0  0  0  0  0  0  0  0  0  0  0  0
   59.2890   32.0280   48.7090 N   0  0  0  0  0  0  0  0  0  0  0  0
   58.3320   32.6960   47.8280 C   0  0  0  0  0  0  0  0  0  0  0  0
   58.9780   33.8800   47.0990 C   0  0  0  0  0  0  0  0  0  0  0  0
   60.0250   34.6060   47.9560 C   0  0  0  0  0  0  0  0  0  0  0  0
   61.2070   33.7380   48.2020 N   0  0  0  0  0  0  0  0  0  0  0  0
   62.0070   33.5790   46.9690 C   0  0  0  0  0  0  0  0  0  0  0  0
   63.0340   32.4510   47.1370 C   0  0  0  0  0  0  0  0  0  0  0  0
   63.6140   32.3920   48.5610 C   0  0  0  0  0  0  0  0  0  0  0  0
   63.5160   33.7510   49.2560 C   0  0  0  0  0  0  0  0  0  0  0  0
   62.0410   34.2360   49.3370 C   0  0  2  0  0  0  0  0  0  0  0  0
   61.4140   33.7810   50.6640 C   0  0  0  0  0  0  0  0  0  0  0  0
   59.9900   29.6730   49.5250 C   0  0  0  0  0  0  0  0  0  0  0  0
   60.5530   29.7200   50.6530 O   0  0  0  0  0  0  0  0  0  0  0  0
   59.6990   28.6720   48.6250 C   0  0  0  0  0  0  0  0  0  0  0  0
   59.8940   27.4290   48.5860 O   0  0  0  0  0  0  0  0  0  0  0  0
   56.9865   28.9298   42.7892 H   0  0  0  0  0  0  0  0  0  0  0  0
   55.3478   29.4192   42.2398 H   0  0  0  0  0  0  0  0  0  0  0  0
   56.6891   30.6140   42.2398 H   0  0  0  0  0  0  0  0  0  0  0  0
   55.0596   30.8679   44.1706 H   0  0  0  0  0  0  0  0  0  0  0  0
   55.6110   29.2514   44.7565 H   0  0  0  0  0  0  0  0  0  0  0  0
   55.9434   32.5480   44.4729 H   0  0  0  0  0  0  0  0  0  0  0  0
   57.0386   32.6373   45.9001 H   0  0  0  0  0  0  0  0  0  0  0  0
   58.7960   33.3284   44.6416 H   0  0  0  0  0  0  0  0  0  0  0  0
   58.4687   32.1090   43.3639 H   0  0  0  0  0  0  0  0  0  0  0  0
   57.5806   33.6703   43.3639 H   0  0  0  0  0  0  0  0  0  0  0  0
   58.1161   29.7224   43.3757 H   0  0  0  0  0  0  0  0  0  0  0  0
   58.8893   31.2556   43.9248 H   0  0  0  0  0  0  0  0  0  0  0  0
   59.3829   28.5770   44.8455 H   0  0  0  0  0  0  0  0  0  0  0  0
   60.1291   30.1130   45.4092 H   0  0  0  0  0  0  0  0  0  0  0  0
   57.4220   29.4990   46.4860 H   0  0  0  0  0  0  0  0  0  0  0  0
   59.8230   32.5820   49.4110 H   0  0  0  0  0  0  0  0  0  0  0  0
   57.9656   31.9737   47.0837 H   0  0  0  0  0  0  0  0  0  0  0  0
   57.5025   33.0771   48.4418 H   0  0  0  0  0  0  0  0  0  0  0  0
   59.4674   33.5069   46.1873 H   0  0  0  0  0  0  0  0  0  0  0  0
   58.1808   34.6017   46.8676 H   0  0  0  0  0  0  0  0  0  0  0  0
   60.3503   35.5166   47.4317 H   0  0  0  0  0  0  0  0  0  0  0  0
   59.5697   34.8608   48.9244 H   0  0  0  0  0  0  0  0  0  0  0  0
   61.3367   33.3366   46.1312 H   0  0  0  0  0  0  0  0  0  0  0  0
   62.5409   34.5194   46.7673 H   0  0  0  0  0  0  0  0  0  0  0  0
   62.5440   31.4914   46.9153 H   0  0  0  0  0  0  0  0  0  0  0  0
   63.8654   32.6490   46.4445 H   0  0  0  0  0  0  0  0  0  0  0  0
   63.0529   31.6486   49.1463 H   0  0  0  0  0  0  0  0  0  0  0  0
   64.6755   32.1118   48.4929 H   0  0  0  0  0  0  0  0  0  0  0  0
   63.9212   33.6630   50.2748 H   0  0  0  0  0  0  0  0  0  0  0  0
   64.0919   34.4835   48.6714 H   0  0  0  0  0  0  0  0  0  0  0  0
   62.0616   35.3341   49.2766 H   0  0  0  0  0  0  0  0  0  0  0  0
   61.9893   34.1985   51.5035 H   0  0  0  0  0  0  0  0  0  0  0  0
   60.3744   34.1363   50.7192 H   0  0  0  0  0  0  0  0  0  0  0  0
   61.4294   32.6825   50.7192 H   0  0  0  0  0  0  0  0  0  0  0  0
  1  2  1  0
  2  3  1  0
  3  4  1  0
  4  5  1  0
  3  6  1  0
  6  7  1  0
  7  8  1  0
  8  9  1  0
  9 10  2  0
 10 11  1  0
 11 12  1  0
 12 13  1  0
 13 14  1  0
 14 15  1  0
 15 16  1  0
 16 17  1  0
 17 18  1  0
 18 19  1  0
 19 20  1  0
 20 21  1  0
 10 22  1  0
 22 23  2  0
 22 24  1  0
 24 25  2  0
 24  9  1  0
 20 15  1  0
  1 26  1  0
  1 27  1  0
  1 28  1  0
  2 29  1  0
  2 30  1  0
  4 31  1  0
  4 32  1  0
  5 33  1  0
  5 34  1  0
  5 35  1  0
  6 36  1  0
  6 37  1  0
  7 38  1  0
  7 39  1  0
  8 40  1  0
 11 41  1  0
 12 42  1  0
 12 43  1  0
 13 44  1  0
 13 45  1  0
 14 46  1  0
 14 47  1  0
 16 48  1  0
 16 49  1  0
 17 50  1  0
 17 51  1  0
 18 52  1  0
 18 53  1  0
 19 54  1  0
 19 55  1  0
 20 56  1  1
 21 57  1  0
 21 58  1  0
 21 59  1  0
M  END
>  <UniqueID>  (10) 
10

>  <SMILES>  (10) 
CCN(CC)CCNc1c(NCCCN2CCCC[C@@H]2C)c(=O)c1=O

>  <Energy>  (10) 
45.792078462399736

>  <Genealogy>  (10) 
CCN(CC)CCNc1c(NCCCN2CCCC[C@@H]2C)c(=O)c1=O (chirality)
CCN(CC)CCNc1c(NCCCN2CCCC[C@@H]2C)c(=O)c1=O (3D coordinates assigned)
CCN(CC)CCNc1c(NCCCN2CCCC[C@@H]2C)c(=O)c1=O (nonaromatic ring conformer: 45.792078462399736 kcal/mol)

>  <smiles>  (10) 
CCN(CC)CCNc1c(NCCCN2CCCCC2C)c(=O)c1=O

>  <score_type>  (10) 
oracle

>  <origin>  (10) 
adg

>  <m_score__min__energy>  (10) 
-7.5199999999999996

>  <m_primary>  (10) 
energy

$$$$
10:0
     RDKit          3D

 57 61  0  0  0  0  0  0  0  0999 V2000
   64.3780   33.8430   50.5540 F   0  0  0  0  0  0  0  0  0  0  0  0
   63.3840   33.8300   49.6310 C   0  0  0  0  0  0  0  0  0  0  0  0
   62.0540   33.9620   50.0370 C   0  0  0  0  0  0  0  0  0  0  0  0
   61.0260   33.9520   49.0890 C   0  0  0  0  0  0  0  0  0  0  0  0
   59.7430   34.1140   49.5040 F   0  0  0  0  0  0  0  0  0  0  0  0
   61.3260   33.8030   47.7210 C   0  0  0  0  0  0  0  0  0  0  0  0
   60.2430   33.7950   46.7130 C   0  0  0  0  0  0  0  0  0  0  0  0
   59.9120   34.9620   45.9920 C   0  0  0  0  0  0  0  0  0  0  0  0
   58.8720   34.9320   45.0370 C   0  0  0  0  0  0  0  0  0  0  0  0
   58.1810   33.7780   44.7990 N   0  0  0  0  0  0  0  0  0  0  0  0
   58.5040   32.6600   45.4940 C   0  0  0  0  0  0  0  0  0  0  0  0
   57.9370   31.4530   45.3490 N   0  0  0  0  0  0  0  0  0  0  0  0
   58.5990   30.6370   46.2080 C   0  0  0  0  0  0  0  0  0  0  0  0
   58.3100   29.1910   46.3670 C   0  0  0  0  0  0  0  0  0  0  0  0
   57.3650   28.5560   45.5420 C   0  0  0  0  0  0  0  0  0  0  0  0
   57.0940   27.1930   45.6900 C   0  0  0  0  0  0  0  0  0  0  0  0
   57.7730   26.4360   46.6550 C   0  0  0  0  0  0  0  0  0  0  0  0
   57.4620   24.9730   46.8320 C   0  0  0  0  0  0  0  0  0  0  0  0
   58.2870   24.1280   45.8340 C   0  0  0  0  0  0  0  0  0  0  0  0
   57.5570   22.9830   45.2330 N   0  0  0  0  0  0  0  0  0  0  0  0
   56.2530   23.3690   44.6190 C   0  0  0  0  0  0  0  0  0  0  0  0
   56.2730   23.3060   43.0840 C   0  0  0  0  0  0  0  0  0  0  0  0
   56.6260   21.8910   42.5950 C   0  0  0  0  0  0  0  0  0  0  0  0
   57.6080   21.1620   43.5300 C   0  0  0  0  0  0  0  0  0  0  0  0
   58.4300   22.1570   44.3570 C   0  0  0  0  0  0  0  0  0  0  0  0
   58.7040   27.0660   47.4920 C   0  0  0  0  0  0  0  0  0  0  0  0
   58.9720   28.4300   47.3490 C   0  0  0  0  0  0  0  0  0  0  0  0
   59.5910   31.3470   46.8950 C   0  0  0  0  0  0  0  0  0  0  0  0
   59.5030   32.6420   46.4250 C   0  0  0  0  0  0  0  0  0  0  0  0
   62.6690   33.6810   47.3210 C   0  0  0  0  0  0  0  0  0  0  0  0
   62.9880   33.5290   46.0110 F   0  0  0  0  0  0  0  0  0  0  0  0
   63.6900   33.6930   48.2750 C   0  0  0  0  0  0  0  0  0  0  0  0
   61.8147   34.0741   51.1048 H   0  0  0  0  0  0  0  0  0  0  0  0
   60.4644   35.8957   46.1739 H   0  0  0  0  0  0  0  0  0  0  0  0
   58.6163   35.8455   44.4802 H   0  0  0  0  0  0  0  0  0  0  0  0
   57.1740   31.2040   44.6840 H   0  0  0  0  0  0  0  0  0  0  0  0
   56.8344   29.1371   44.7734 H   0  0  0  0  0  0  0  0  0  0  0  0
   56.3437   26.7115   45.0457 H   0  0  0  0  0  0  0  0  0  0  0  0
   57.7128   24.6698   47.8592 H   0  0  0  0  0  0  0  0  0  0  0  0
   56.3910   24.8080   46.6430 H   0  0  0  0  0  0  0  0  0  0  0  0
   58.6180   24.7883   45.0188 H   0  0  0  0  0  0  0  0  0  0  0  0
   59.1194   23.6962   46.4090 H   0  0  0  0  0  0  0  0  0  0  0  0
   57.3170   22.3640   46.0460 H   0  0  0  0  0  0  0  0  0  0  0  0
   55.4749   22.6847   44.9883 H   0  0  0  0  0  0  0  0  0  0  0  0
   56.0498   24.4118   44.9040 H   0  0  0  0  0  0  0  0  0  0  0  0
   55.2800   23.5821   42.6997 H   0  0  0  0  0  0  0  0  0  0  0  0
   57.0374   24.0054   42.7145 H   0  0  0  0  0  0  0  0  0  0  0  0
   55.6999   21.3010   42.5296 H   0  0  0  0  0  0  0  0  0  0  0  0
   57.1164   21.9928   41.6156 H   0  0  0  0  0  0  0  0  0  0  0  0
   57.0391   20.5129   44.2118 H   0  0  0  0  0  0  0  0  0  0  0  0
   58.2987   20.5676   42.9139 H   0  0  0  0  0  0  0  0  0  0  0  0
   59.1420   21.5999   44.9836 H   0  0  0  0  0  0  0  0  0  0  0  0
   58.9616   22.8273   43.6655 H   0  0  0  0  0  0  0  0  0  0  0  0
   59.2264   26.4838   48.2654 H   0  0  0  0  0  0  0  0  0  0  0  0
   59.7068   28.9133   48.0096 H   0  0  0  0  0  0  0  0  0  0  0  0
   60.2910   30.9564   47.6483 H   0  0  0  0  0  0  0  0  0  0  0  0
   64.7384   33.5942   47.9570 H   0  0  0  0  0  0  0  0  0  0  0  0
  1  2  1  0
  2  3  2  0
  3  4  1  0
  4  5  1  0
  4  6  2  0
  6  7  1  0
  7  8  2  0
  8  9  1  0
  9 10  2  0
 10 11  1  0
 11 12  1  0
 12 13  1  0
 13 14  1  0
 14 15  2  0
 15 16  1  0
 16 17  2  0
 17 18  1  0
 18 19  1  0
 19 20  1  0
 20 21  1  0
 21 22  1  0
 22 23  1  0
 23 24  1  0
 24 25  1  0
 17 26  1  0
 26 27  2  0
 13 28  2  0
 28 29  1  0
  6 30  1  0
 30 31  1  0
 30 32  2  0
 32  2  1  0
 29  7  1  0
 29 11  2  0
 27 14  1  0
 25 20  1  0
  3 33  1  0
  8 34  1  0
  9 35  1  0
 12 36  1  0
 15 37  1  0
 16 38  1  0
 18 39  1  0
 18 40  1  0
 19 41  1  0
 19 42  1  0
 20 43  1  0
 21 44  1  0
 21 45  1  0
 22 46  1  0
 22 47  1  0
 23 48  1  0
 23 49  1  0
 24 50  1  0
 24 51  1  0
 25 52  1  0
 25 53  1  0
 26 54  1  0
 27 55  1  0
 28 56  1  0
 32 57  1  0
M  CHG  1  20   1
M  END
>  <UniqueID>  (11) 
11

>  <SMILES>  (11) 
Fc1cc(F)c(-c2ccnc3[nH]c(-c4ccc(CC[NH+]5CCCCC5)cc4)cc23)c(F)c1

>  <Energy>  (11) 
115.2819356066727

>  <Genealogy>  (11) 
Fc1cc(F)c(-c2ccnc3[nH]c(-c4ccc(CC[NH+]5CCCCC5)cc4)cc23)c(F)c1 (protonated)
Fc1cc(F)c(-c2ccnc3[nH]c(-c4ccc(CC[NH+]5CCCCC5)cc4)cc23)c(F)c1 (3D coordinates assigned)
Fc1cc(F)c(-c2ccnc3[nH]c(-c4ccc(CC[NH+]5CCCCC5)cc4)cc23)c(F)c1 (nonaromatic ring conformer: 115.2819356066727 kcal/mol)

>  <smiles>  (11) 
Fc1cc(F)c(-c2ccnc3[nH]c(-c4ccc(CCN5CCCCC5)cc4)cc23)c(F)c1

>  <score_type>  (11) 
oracle

>  <origin>  (11) 
adg

>  <m_score__min__energy>  (11) 
-7.3399999999999999

>  <m_primary>  (11) 
energy

$$$$
11:0
     RDKit          3D

 30 31  0  0  0  0  0  0  0  0999 V2000
   55.1890   29.7280   43.7640 C   0  0  0  0  0  0  0  0  0  0  0  0
   55.5300   28.8770   44.8530 O   0  0  0  0  0  0  0  0  0  0  0  0
   56.8350   28.6640   45.3250 C   0  0  0  0  0  0  0  0  0  0  0  0
   57.3670   27.3650   45.4590 C   0  0  0  0  0  0  0  0  0  0  0  0
   58.6850   27.1740   45.8990 C   0  0  0  0  0  0  0  0  0  0  0  0
   59.2540   25.7890   45.9970 C   0  0  0  0  0  0  0  0  0  0  0  0
   59.4890   28.2860   46.1710 C   0  0  0  0  0  0  0  0  0  0  0  0
   58.9710   29.5750   46.0490 C   0  0  0  0  0  0  0  0  0  0  0  0
   57.6440   29.7770   45.6520 C   0  0  0  0  0  0  0  0  0  0  0  0
   57.1820   31.1010   45.5660 O   0  0  0  0  0  0  0  0  0  0  0  0
   57.9930   32.2430   45.5960 C   0  0  0  0  0  0  0  0  0  0  0  0
   58.3740   32.7570   46.8420 C   0  0  0  0  0  0  0  0  0  0  0  0
   59.2000   33.8820   46.9220 C   0  0  0  0  0  0  0  0  0  0  0  0
   59.7340   34.5570   48.6260 Br  0  0  0  0  0  0  0  0  0  0  0  0
   59.6360   34.5110   45.7520 C   0  0  0  0  0  0  0  0  0  0  0  0
   59.2370   34.0250   44.5050 C   0  0  0  0  0  0  0  0  0  0  0  0
   58.4100   32.8980   44.4170 C   0  0  0  0  0  0  0  0  0  0  0  0
   57.8180   32.3420   42.6810 Br  0  0  0  0  0  0  0  0  0  0  0  0
   54.8061   30.6837   44.1514 H   0  0  0  0  0  0  0  0  0  0  0  0
   56.0824   29.9130   43.1495 H   0  0  0  0  0  0  0  0  0  0  0  0
   54.4150   29.2449   43.1495 H   0  0  0  0  0  0  0  0  0  0  0  0
   56.7422   26.4929   45.2161 H   0  0  0  0  0  0  0  0  0  0  0  0
   59.3673   25.5132   47.0558 H   0  0  0  0  0  0  0  0  0  0  0  0
   58.5751   25.0779   45.5035 H   0  0  0  0  0  0  0  0  0  0  0  0
   60.2367   25.7605   45.5035 H   0  0  0  0  0  0  0  0  0  0  0  0
   60.5343   28.1430   46.4824 H   0  0  0  0  0  0  0  0  0  0  0  0
   59.6119   30.4420   46.2670 H   0  0  0  0  0  0  0  0  0  0  0  0
   58.0208   32.2721   47.7640 H   0  0  0  0  0  0  0  0  0  0  0  0
   60.2944   35.3901   45.8137 H   0  0  0  0  0  0  0  0  0  0  0  0
   59.5738   34.5297   43.5875 H   0  0  0  0  0  0  0  0  0  0  0  0
  1  2  1  0
  2  3  1  0
  3  4  2  0
  4  5  1  0
  5  6  1  0
  5  7  2  0
  7  8  1  0
  8  9  2  0
  9 10  1  0
 10 11  1  0
 11 12  2  0
 12 13  1  0
 13 14  1  0
 13 15  2  0
 15 16  1  0
 16 17  2  0
 17 18  1  0
  9  3  1  0
 17 11  1  0
  1 19  1  0
  1 20  1  0
  1 21  1  0
  4 22  1  0
  6 23  1  0
  6 24  1  0
  6 25  1  0
  7 26  1  0
  8 27  1  0
 12 28  1  0
 15 29  1  0
 16 30  1  0
M  END
>  <UniqueID>  (12) 
12

>  <SMILES>  (12) 
COc1cc(C)ccc1Oc1cc(Br)ccc1Br

>  <Energy>  (12) 
38.805188196165844

>  <Genealogy>  (12) 
COc1cc(C)ccc1Oc1cc(Br)ccc1Br (3D coordinates assigned)
COc1cc(C)ccc1Oc1cc(Br)ccc1Br (optimized conformer: 38.805188196165844 kcal/mol)

>  <smiles>  (12) 
COc1cc(C)ccc1Oc1cc(Br)ccc1Br

>  <score_type>  (12) 
oracle

>  <origin>  (12) 
adg

>  <m_score__min__energy>  (12) 
-7.6500000000000004

>  <m_primary>  (12) 
energy

$$$$
12:0
     RDKit          3D

 48 51  0  0  0  0  0  0  0  0999 V2000
   59.6830   34.5900   48.5970 C   0  0  0  0  0  0  0  0  0  0  0  0
   59.2560   34.0500   47.2640 C   0  0  0  0  0  0  0  0  0  0  0  0
   59.6130   34.7200   46.0830 C   0  0  0  0  0  0  0  0  0  0  0  0
   59.2490   34.2000   44.8370 C   0  0  0  0  0  0  0  0  0  0  0  0
   58.5340   32.9940   44.7580 C   0  0  0  0  0  0  0  0  0  0  0  0
   58.1450   32.4290   43.5330 C   0  0  0  0  0  0  0  0  0  0  0  0
   58.4230   32.9940   42.4390 O   0  0  0  0  0  0  0  0  0  0  0  0
   57.4400   31.2250   43.5270 C   0  0  0  0  0  0  0  0  0  0  0  0
   57.1360   30.5970   44.7470 C   0  0  0  0  0  0  0  0  0  0  0  0
   56.3870   29.3150   44.7680 C   0  0  0  0  0  0  0  0  0  0  0  0
   55.1310   29.3370   44.8550 O   0  0  0  0  0  0  0  0  0  0  0  0
   57.0320   28.0360   44.6870 N   0  0  0  0  0  0  0  0  0  0  0  0
   58.4650   27.7920   44.5730 C   0  0  0  0  0  0  0  0  0  0  0  0
   59.0920   27.7810   45.9440 C   0  0  0  0  0  0  0  0  0  0  0  0
   59.8630   28.8800   46.3590 C   0  0  0  0  0  0  0  0  0  0  0  0
   60.4280   28.9050   47.6330 C   0  0  0  0  0  0  0  0  0  0  0  0
   60.2180   27.8300   48.4940 C   0  0  0  0  0  0  0  0  0  0  0  0
   59.4790   26.7660   48.0850 N   0  0  0  0  0  0  0  0  0  0  0  0
   58.9230   26.7000   46.8440 C   0  0  0  0  0  0  0  0  0  0  0  0
   58.1480   25.5390   46.4990 N   0  0  0  0  0  0  0  0  0  0  0  0
   58.6430   24.5750   45.5070 C   0  0  0  0  0  0  0  0  0  0  0  0
   58.3120   23.1160   45.9100 C   0  0  0  0  0  0  0  0  0  0  0  0
   57.4370   22.9990   47.0200 O   0  0  0  0  0  0  0  0  0  0  0  0
   56.3630   23.9040   46.8970 C   0  0  0  0  0  0  0  0  0  0  0  0
   56.8710   25.3140   47.1800 C   0  0  0  0  0  0  0  0  0  0  0  0
   57.5180   31.1640   45.8880 O   0  0  0  0  0  0  0  0  0  0  0  0
   58.1890   32.3110   45.9440 C   0  0  0  0  0  0  0  0  0  0  0  0
   58.5570   32.8370   47.1860 C   0  0  0  0  0  0  0  0  0  0  0  0
   59.2158   33.9992   49.3987 H   0  0  0  0  0  0  0  0  0  0  0  0
   60.7776   34.5263   48.6848 H   0  0  0  0  0  0  0  0  0  0  0  0
   59.3686   35.6405   48.6848 H   0  0  0  0  0  0  0  0  0  0  0  0
   60.1824   35.6595   46.1382 H   0  0  0  0  0  0  0  0  0  0  0  0
   59.5233   34.7368   43.9169 H   0  0  0  0  0  0  0  0  0  0  0  0
   57.1249   30.7713   42.5758 H   0  0  0  0  0  0  0  0  0  0  0  0
   58.6323   26.8194   44.0872 H   0  0  0  0  0  0  0  0  0  0  0  0
   58.9226   28.5908   43.9708 H   0  0  0  0  0  0  0  0  0  0  0  0
   60.0217   29.7260   45.6741 H   0  0  0  0  0  0  0  0  0  0  0  0
   61.0336   29.7648   47.9554 H   0  0  0  0  0  0  0  0  0  0  0  0
   60.6507   27.8428   49.5052 H   0  0  0  0  0  0  0  0  0  0  0  0
   58.1748   24.7913   44.5354 H   0  0  0  0  0  0  0  0  0  0  0  0
   59.7369   24.6746   45.4487 H   0  0  0  0  0  0  0  0  0  0  0  0
   57.8428   22.6190   45.0481 H   0  0  0  0  0  0  0  0  0  0  0  0
   59.2623   22.6495   46.2088 H   0  0  0  0  0  0  0  0  0  0  0  0
   55.9548   23.8563   45.8766 H   0  0  0  0  0  0  0  0  0  0  0  0
   55.5707   23.6422   47.6138 H   0  0  0  0  0  0  0  0  0  0  0  0
   56.1330   26.0452   46.8186 H   0  0  0  0  0  0  0  0  0  0  0  0
   57.0173   25.4314   48.2639 H   0  0  0  0  0  0  0  0  0  0  0  0
   58.2966   32.2959   48.1076 H   0  0  0  0  0  0  0  0  0  0  0  0
  1  2  1  0
  2  3  2  0
  3  4  1  0
  4  5  2  0
  5  6  1  0
  6  7  2  0
  6  8  1  0
  8  9  2  0
  9 10  1  0
 10 11  2  0
 10 12  1  0
 12 13  1  0
 13 14  1  0
 14 15  2  0
 15 16  1  0
 16 17  2  0
 17 18  1  0
 18 19  2  0
 19 20  1  0
 20 21  1  0
 21 22  1  0
 22 23  1  0
 23 24  1  0
 24 25  1  0
  9 26  1  0
 26 27  1  0
 27 28  2  0
 28  2  1  0
 27  5  1  0
 19 14  1  0
 25 20  1  0
  1 29  1  0
  1 30  1  0
  1 31  1  0
  3 32  1  0
  4 33  1  0
  8 34  1  0
 13 35  1  0
 13 36  1  0
 15 37  1  0
 16 38  1  0
 17 39  1  0
 21 40  1  0
 21 41  1  0
 22 42  1  0
 22 43  1  0
 24 44  1  0
 24 45  1  0
 25 46  1  0
 25 47  1  0
 28 48  1  0
M  CHG  1  12  -1
M  END
>  <UniqueID>  (13) 
13

>  <SMILES>  (13) 
Cc1ccc2c(=O)cc(C(=O)[N-]Cc3cccnc3N3CCOCC3)oc2c1

>  <Energy>  (13) 
67.89338322949168

>  <Genealogy>  (13) 
Cc1ccc2c(=O)cc(C(=O)[N-]Cc3cccnc3N3CCOCC3)oc2c1 (protonated)
Cc1ccc2c(=O)cc(C(=O)[N-]Cc3cccnc3N3CCOCC3)oc2c1 (3D coordinates assigned)
Cc1ccc2c(=O)cc(C(=O)[N-]Cc3cccnc3N3CCOCC3)oc2c1 (nonaromatic ring conformer: 67.89338322949168 kcal/mol)

>  <smiles>  (13) 
Cc1ccc2c(=O)cc(C(=O)NCc3cccnc3N3CCOCC3)oc2c1

>  <score_type>  (13) 
oracle

>  <origin>  (13) 
adg

>  <m_score__min__energy>  (13) 
-10.92

>  <m_primary>  (13) 
energy

$$$$
13:0
     RDKit          3D

 32 33  0  0  0  0  0  0  0  0999 V2000
   56.7050   23.9930   43.7320 C   0  0  0  0  0  0  0  0  0  0  0  0
   57.0240   23.4920   45.1400 C   0  0  0  0  0  0  0  0  0  0  0  0
   58.5370   23.4310   45.3580 C   0  0  0  0  0  0  0  0  0  0  0  0
   56.4110   24.3890   46.1150 N   0  0  0  0  0  0  0  0  0  0  0  0
   56.2810   25.8050   45.9320 C   0  0  0  0  0  0  0  0  0  0  0  0
   55.1380   26.3380   45.9740 O   0  0  0  0  0  0  0  0  0  0  0  0
   57.4510   26.6140   45.6920 N   0  0  0  0  0  0  0  0  0  0  0  0
   58.4840   26.7720   46.7310 C   0  0  0  0  0  0  0  0  0  0  0  0
   58.3370   28.0950   47.5110 C   0  0  0  0  0  0  0  0  0  0  0  0
   58.7430   29.3310   46.6880 C   0  0  0  0  0  0  0  0  0  0  0  0
   57.7390   29.6640   45.6170 C   0  0  0  0  0  0  0  0  0  0  0  0
   57.1610   30.8730   45.4840 N   0  0  0  0  0  0  0  0  0  0  0  0
   56.2920   30.8140   44.4840 N   0  0  0  0  0  0  0  0  0  0  0  0
   56.2970   29.5650   43.9770 C   0  0  0  0  0  0  0  0  0  0  0  0
   57.1930   28.7990   44.6880 C   0  0  0  0  0  0  0  0  0  0  0  0
   57.5690   27.3730   44.4420 C   0  0  0  0  0  0  0  0  0  0  0  0
   56.1152   24.9192   43.7972 H   0  0  0  0  0  0  0  0  0  0  0  0
   57.6427   24.1926   43.1926 H   0  0  0  0  0  0  0  0  0  0  0  0
   56.1275   23.2278   43.1926 H   0  0  0  0  0  0  0  0  0  0  0  0
   56.6187   22.4770   45.2648 H   0  0  0  0  0  0  0  0  0  0  0  0
   58.7520   23.4223   46.4368 H   0  0  0  0  0  0  0  0  0  0  0  0
   58.9373   22.5160   44.8970 H   0  0  0  0  0  0  0  0  0  0  0  0
   59.0096   24.3108   44.8970 H   0  0  0  0  0  0  0  0  0  0  0  0
   58.4039   25.9339   47.4389 H   0  0  0  0  0  0  0  0  0  0  0  0
   59.4635   26.7851   46.2305 H   0  0  0  0  0  0  0  0  0  0  0  0
   57.2858   28.2070   47.8150 H   0  0  0  0  0  0  0  0  0  0  0  0
   59.0133   28.0415   48.3769 H   0  0  0  0  0  0  0  0  0  0  0  0
   58.8345   30.1922   47.3662 H   0  0  0  0  0  0  0  0  0  0  0  0
   59.6984   29.1041   46.1924 H   0  0  0  0  0  0  0  0  0  0  0  0
   55.6849   29.2149   43.1327 H   0  0  0  0  0  0  0  0  0  0  0  0
   56.8964   26.9415   43.6861 H   0  0  0  0  0  0  0  0  0  0  0  0
   58.6065   27.3244   44.0798 H   0  0  0  0  0  0  0  0  0  0  0  0
  1  2  1  0
  2  3  1  0
  2  4  1  0
  4  5  1  0
  5  6  2  0
  5  7  1  0
  7  8  1  0
  8  9  1  0
  9 10  1  0
 10 11  1  0
 11 12  1  0
 12 13  1  0
 13 14  2  0
 14 15  1  0
 15 16  1  0
 16  7  1  0
 15 11  2  0
  1 17  1  0
  1 18  1  0
  1 19  1  0
  2 20  1  0
  3 21  1  0
  3 22  1  0
  3 23  1  0
  8 24  1  0
  8 25  1  0
  9 26  1  0
  9 27  1  0
 10 28  1  0
 10 29  1  0
 14 30  1  0
 16 31  1  0
 16 32  1  0
M  CHG  2   4  -1  12  -1
M  END
>  <UniqueID>  (14) 
14

>  <SMILES>  (14) 
CC(C)[N-]C(=O)N1CCCc2[n-]ncc2C1

>  <Energy>  (14) 
55.63587057018768

>  <Genealogy>  (14) 
CC(C)[N-]C(=O)N1CCCc2[n-]ncc2C1 (protonated)
CC(C)[N-]C(=O)N1CCCc2[n-]ncc2C1 (3D coordinates assigned)
CC(C)[N-]C(=O)N1CCCc2[n-]ncc2C1 (nonaromatic ring conformer: 55.63587057018768 kcal/mol)

>  <smiles>  (14) 
CC(C)NC(=O)N1CCCc2[nH]ncc2C1

>  <score_type>  (14) 
oracle

>  <origin>  (14) 
adg

>  <m_score__min__energy>  (14) 
-7.5999999999999996

>  <m_primary>  (14) 
energy

$$$$
14:0
     RDKit          3D

 48 51  0  0  0  0  0  0  0  0999 V2000
   56.9515   33.2487   43.6711 H   0  0  0  0  0  0  0  0  0  0  0  0
   57.6500   32.8170   44.4030 C   0  0  0  0  0  0  0  0  0  0  0  0
   58.4510   33.6600   45.0750 C   0  0  0  0  0  0  0  0  0  0  0  0
   59.1288   34.2977   44.4886 H   0  0  0  0  0  0  0  0  0  0  0  0
   58.4870   33.7950   46.5880 C   0  0  1  0  0  0  0  0  0  0  0  0
   57.4482   33.9921   46.8912 H   0  0  0  0  0  0  0  0  0  0  0  0
   58.9900   32.4950   47.2740 C   0  0  2  0  0  0  0  0  0  0  0  0
   58.4049   31.6311   46.9256 H   0  0  0  0  0  0  0  0  0  0  0  0
   58.8640   32.6890   48.7980 C   0  0  0  0  0  0  0  0  0  0  0  0
   59.2453   31.7965   49.3157 H   0  0  0  0  0  0  0  0  0  0  0  0
   57.8079   32.8399   49.0663 H   0  0  0  0  0  0  0  0  0  0  0  0
   59.6930   33.9290   49.2220 C   0  0  0  0  0  0  0  0  0  0  0  0
   60.4408   33.6238   49.9687 H   0  0  0  0  0  0  0  0  0  0  0  0
   59.0099   34.6796   49.6461 H   0  0  0  0  0  0  0  0  0  0  0  0
   60.3880   34.5270   48.0550 N   0  0  1  0  0  0  0  0  0  0  0  0
   60.9560   35.3470   48.3750 H   0  0  0  0  0  0  0  0  0  0  0  0
   61.2880   33.5220   47.4390 C   0  0  0  0  0  0  0  0  0  0  0  0
   62.0274   33.1948   48.1848 H   0  0  0  0  0  0  0  0  0  0  0  0
   61.7923   33.9819   46.5763 H   0  0  0  0  0  0  0  0  0  0  0  0
   60.4840   32.2920   46.9470 C   0  0  0  0  0  0  0  0  0  0  0  0
   60.8511   31.3868   47.4528 H   0  0  0  0  0  0  0  0  0  0  0  0
   60.6112   32.1795   45.8602 H   0  0  0  0  0  0  0  0  0  0  0  0
   59.3930   34.9810   47.0530 C   0  0  0  0  0  0  0  0  0  0  0  0
   59.9223   35.3929   46.1811 H   0  0  0  0  0  0  0  0  0  0  0  0
   58.7556   35.7496   47.5145 H   0  0  0  0  0  0  0  0  0  0  0  0
   57.6420   31.3550   44.5780 C   0  0  0  0  0  0  0  0  0  0  0  0
   56.4490   30.7090   44.6670 N   0  0  0  0  0  0  0  0  0  0  0  0
   56.3690   29.3620   44.8320 C   0  0  0  0  0  0  0  0  0  0  0  0
   55.3851   28.8750   44.9006 H   0  0  0  0  0  0  0  0  0  0  0  0
   57.5380   28.5920   44.9150 C   0  0  0  0  0  0  0  0  0  0  0  0
   57.4600   27.1240   45.0860 C   0  0  0  0  0  0  0  0  0  0  0  0
   57.0800   26.6100   46.3370 C   0  0  0  0  0  0  0  0  0  0  0  0
   56.8181   27.2994   47.1532 H   0  0  0  0  0  0  0  0  0  0  0  0
   57.0320   25.2310   46.5530 C   0  0  0  0  0  0  0  0  0  0  0  0
   56.7357   24.8393   47.5373 H   0  0  0  0  0  0  0  0  0  0  0  0
   57.3590   24.3500   45.5230 C   0  0  0  0  0  0  0  0  0  0  0  0
   57.3332   23.2646   45.6999 H   0  0  0  0  0  0  0  0  0  0  0  0
   57.7190   24.8430   44.2680 C   0  0  0  0  0  0  0  0  0  0  0  0
   57.9761   24.1420   43.4602 H   0  0  0  0  0  0  0  0  0  0  0  0
   57.7560   26.2270   44.0270 C   0  0  0  0  0  0  0  0  0  0  0  0
   58.1280   26.7150   42.6500 C   0  0  0  0  0  0  0  0  0  0  0  0
   58.7928   27.5871   42.7372 H   0  0  0  0  0  0  0  0  0  0  0  0
   58.6456   25.9125   42.1040 H   0  0  0  0  0  0  0  0  0  0  0  0
   57.2171   27.0015   42.1040 H   0  0  0  0  0  0  0  0  0  0  0  0
   58.7780   29.2450   44.8720 C   0  0  0  0  0  0  0  0  0  0  0  0
   59.7081   28.6650   44.9646 H   0  0  0  0  0  0  0  0  0  0  0  0
   58.8330   30.6290   44.7120 C   0  0  0  0  0  0  0  0  0  0  0  0
   59.8033   31.1467   44.6911 H   0  0  0  0  0  0  0  0  0  0  0  0
  1  2  1  0
  2  3  2  0
  3  4  1  0
  3  5  1  0
  5  6  1  1
  5  7  1  0
  7  8  1  6
  7  9  1  0
  9 10  1  0
  9 11  1  0
  9 12  1  0
 12 13  1  0
 12 14  1  0
 12 15  1  0
 15 16  1  1
 15 17  1  0
 17 18  1  0
 17 19  1  0
 17 20  1  0
 20 21  1  0
 20 22  1  0
 15 23  1  0
 23 24  1  0
 23 25  1  0
  2 26  1  0
 26 27  2  0
 27 28  1  0
 28 29  1  0
 28 30  2  0
 30 31  1  0
 31 32  2  0
 32 33  1  0
 32 34  1  0
 34 35  1  0
 34 36  2  0
 36 37  1  0
 36 38  1  0
 38 39  1  0
 38 40  2  0
 40 41  1  0
 41 42  1  0
 41 43  1  0
 41 44  1  0
 30 45  1  0
 45 46  1  0
 45 47  2  0
 47 48  1  0
 23  5  1  0
 47 26  1  0
 20  7  1  0
 40 31  1  0
M  CHG  1  15   1
M  END
>  <UniqueID>  (15) 
15

>  <SMILES>  (15) 
Cc1ccccc1-c1ccc(/C=C\[C@@H]2C[NH+]3CCC2CC3)nc1

>  <Energy>  (15) 
78.12144074216825

>  <Genealogy>  (15) 
Cc1ccccc1-c1ccc(C=CC2C[NH+]3CCC2CC3)nc1 (protonated)
Cc1ccccc1-c1ccc(C=C[C@@H]2C[NH+]3CCC2CC3)nc1 (chirality)
Cc1ccccc1-c1ccc(/C=C\[C@@H]2C[NH+]3CCC2CC3)nc1 (cis-trans isomerization)
Cc1ccccc1-c1ccc(/C=C\[C@@H]2C[NH+]3CCC2CC3)nc1 (3D coordinates assigned)
Cc1ccccc1-c1ccc(/C=C\[C@@H]2C[NH+]3CCC2CC3)nc1 (nonaromatic ring conformer: 78.12144074216825 kcal/mol)

>  <smiles>  (15) 
Cc1ccccc1-c1ccc(C=CC2CN3CCC2CC3)nc1

>  <score_type>  (15) 
oracle

>  <origin>  (15) 
adg

>  <m_score__min__energy>  (15) 
-7.0700000000000003

>  <m_primary>  (15) 
energy

$$$$
15:0
     RDKit          3D

 49 51  0  0  0  0  0  0  0  0999 V2000
   57.3000   33.4600   47.0920 C   0  0  0  0  0  0  0  0  0  0  0  0
   57.2880   33.7410   45.7860 C   0  0  0  0  0  0  0  0  0  0  0  0
   57.9560   32.8470   44.7810 C   0  0  0  0  0  0  0  0  0  0  0  0
   58.4620   31.6160   45.4300 N   0  0  0  0  0  0  0  0  0  0  0  0
   59.6670   31.5960   46.1070 C   0  0  0  0  0  0  0  0  0  0  0  0
   60.5110   32.8340   46.3650 C   0  0  0  0  0  0  0  0  0  0  0  0
   61.2690   32.7350   47.6370 N   0  0  2  0  0  0  0  0  0  0  0  0
   60.6100   33.5300   48.7160 C   0  0  0  0  0  0  0  0  0  0  0  0
   61.3640   33.5250   50.0620 C   0  0  0  0  0  0  0  0  0  0  0  0
   62.7560   34.1900   49.9880 C   0  0  0  0  0  0  0  0  0  0  0  0
   63.9260   33.2410   49.6690 C   0  0  0  0  0  0  0  0  0  0  0  0
   63.7860   32.5160   48.3260 C   0  0  0  0  0  0  0  0  0  0  0  0
   62.6820   33.0370   47.4300 C   0  0  0  0  0  0  0  0  0  0  0  0
   63.0000   33.7940   46.5230 O   0  0  0  0  0  0  0  0  0  0  0  0
   60.1200   30.4340   46.6490 N   0  0  0  0  0  0  0  0  0  0  0  0
   59.4220   29.2800   46.5680 C   0  0  0  0  0  0  0  0  0  0  0  0
   59.9340   28.1110   47.1430 C   0  0  0  0  0  0  0  0  0  0  0  0
   59.2040   26.9220   47.0760 C   0  0  0  0  0  0  0  0  0  0  0  0
   57.9610   26.8960   46.4330 C   0  0  0  0  0  0  0  0  0  0  0  0
   57.0250   25.3670   46.3530 S   0  0  0  0  0  0  0  0  0  0  0  0
   57.4030   25.0880   44.5950 C   0  0  0  0  0  0  0  0  0  0  0  0
   57.4440   28.0650   45.8620 C   0  0  0  0  0  0  0  0  0  0  0  0
   58.1750   29.2670   45.9250 C   0  0  0  0  0  0  0  0  0  0  0  0
   57.7040   30.4660   45.3640 C   0  0  0  0  0  0  0  0  0  0  0  0
   56.5740   30.4770   44.7970 O   0  0  0  0  0  0  0  0  0  0  0  0
   56.8018   34.1342   47.8042 H   0  0  0  0  0  0  0  0  0  0  0  0
   57.8081   32.5544   47.4551 H   0  0  0  0  0  0  0  0  0  0  0  0
   56.7759   34.6502   45.4380 H   0  0  0  0  0  0  0  0  0  0  0  0
   57.2289   32.5721   44.0027 H   0  0  0  0  0  0  0  0  0  0  0  0
   58.8050   33.3870   44.3366 H   0  0  0  0  0  0  0  0  0  0  0  0
   61.2233   32.9573   45.5359 H   0  0  0  0  0  0  0  0  0  0  0  0
   59.8336   33.6975   46.4395 H   0  0  0  0  0  0  0  0  0  0  0  0
   61.2190   31.7370   47.9500 H   0  0  0  0  0  0  0  0  0  0  0  0
   60.5252   34.5717   48.3730 H   0  0  0  0  0  0  0  0  0  0  0  0
   59.6334   33.0589   48.9013 H   0  0  0  0  0  0  0  0  0  0  0  0
   60.7579   34.0665   50.8032 H   0  0  0  0  0  0  0  0  0  0  0  0
   61.5213   32.4730   50.3421 H   0  0  0  0  0  0  0  0  0  0  0  0
   62.7220   34.9618   49.2050 H   0  0  0  0  0  0  0  0  0  0  0  0
   62.9550   34.5886   50.9938 H   0  0  0  0  0  0  0  0  0  0  0  0
   64.8549   33.8299   49.6500 H   0  0  0  0  0  0  0  0  0  0  0  0
   63.9336   32.4677   50.4512 H   0  0  0  0  0  0  0  0  0  0  0  0
   64.7389   32.6127   47.7850 H   0  0  0  0  0  0  0  0  0  0  0  0
   63.5231   31.4748   48.5644 H   0  0  0  0  0  0  0  0  0  0  0  0
   60.9113   28.1287   47.6476 H   0  0  0  0  0  0  0  0  0  0  0  0
   59.6068   26.0043   47.5294 H   0  0  0  0  0  0  0  0  0  0  0  0
   58.2853   24.4368   44.5085 H   0  0  0  0  0  0  0  0  0  0  0  0
   56.5427   24.6067   44.1069 H   0  0  0  0  0  0  0  0  0  0  0  0
   57.6095   26.0519   44.1069 H   0  0  0  0  0  0  0  0  0  0  0  0
   56.4640   28.0446   45.3627 H   0  0  0  0  0  0  0  0  0  0  0  0
  1  2  2  0
  2  3  1  0
  3  4  1  0
  4  5  1  0
  5  6  1  0
  6  7  1  0
  7  8  1  0
  8  9  1  0
  9 10  1  0
 10 11  1  0
 11 12  1  0
 12 13  1  0
 13 14  2  0
  5 15  2  0
 15 16  1  0
 16 17  2  0
 17 18  1  0
 18 19  2  0
 19 20  1  0
 20 21  1  0
 19 22  1  0
 22 23  2  0
 23 24  1  0
 24 25  2  0
 24  4  1  0
 13  7  1  0
 23 16  1  0
  1 26  1  0
  1 27  1  0
  2 28  1  0
  3 29  1  0
  3 30  1  0
  6 31  1  0
  6 32  1  0
  7 33  1  1
  8 34  1  0
  8 35  1  0
  9 36  1  0
  9 37  1  0
 10 38  1  0
 10 39  1  0
 11 40  1  0
 11 41  1  0
 12 42  1  0
 12 43  1  0
 17 44  1  0
 18 45  1  0
 21 46  1  0
 21 47  1  0
 21 48  1  0
 22 49  1  0
M  CHG  1   7   1
M  END
>  <UniqueID>  (16) 
16

>  <SMILES>  (16) 
C=CCn1c(C[N@@H+]2CCCCCC2=O)nc2ccc(SC)cc2c1=O

>  <Energy>  (16) 
66.32049399075791

>  <Genealogy>  (16) 
C=CCn1c(C[NH+]2CCCCCC2=O)nc2ccc(SC)cc2c1=O (protonated)
C=CCn1c(C[N@@H+]2CCCCCC2=O)nc2ccc(SC)cc2c1=O (chirality)
C=CCn1c(C[N@@H+]2CCCCCC2=O)nc2ccc(SC)cc2c1=O (3D coordinates assigned)
C=CCn1c(C[N@@H+]2CCCCCC2=O)nc2ccc(SC)cc2c1=O (nonaromatic ring conformer: 66.32049399075791 kcal/mol)

>  <smiles>  (16) 
C=CCn1c(CN2CCCCCC2=O)nc2ccc(SC)cc2c1=O

>  <score_type>  (16) 
oracle

>  <origin>  (16) 
adg

>  <m_score__min__energy>  (16) 
-4.8399999999999999

>  <m_primary>  (16) 
energy

$$$$
16:0
     RDKit          3D

 27 28  0  0  0  0  0  0  0  0999 V2000
   56.5170   29.5380   43.0890 O   0  0  0  0  0  0  0  0  0  0  0  0
   56.3180   29.0390   44.2160 N   0  0  0  0  0  0  0  0  0  0  0  0
   55.1520   29.3420   44.8750 O   0  0  0  0  0  0  0  0  0  0  0  0
   57.3880   28.3710   44.9020 C   0  0  0  0  0  0  0  0  0  0  0  0
   57.0940   27.2300   45.6690 C   0  0  0  0  0  0  0  0  0  0  0  0
   58.0990   26.5600   46.3680 C   0  0  0  0  0  0  0  0  0  0  0  0
   57.7990   25.4560   47.0960 F   0  0  0  0  0  0  0  0  0  0  0  0
   59.4100   27.0310   46.3260 C   0  0  0  0  0  0  0  0  0  0  0  0
   59.7200   28.1720   45.5840 C   0  0  0  0  0  0  0  0  0  0  0  0
   58.7250   28.8550   44.8540 C   0  0  0  0  0  0  0  0  0  0  0  0
   59.0800   30.0650   44.1410 N   0  0  0  0  0  0  0  0  0  0  0  0
   58.6230   31.2590   44.8210 C   0  0  0  0  0  0  0  0  0  0  0  0
   58.7700   31.4100   46.2160 C   0  0  0  0  0  0  0  0  0  0  0  0
   58.2720   32.5450   46.8650 C   0  0  0  0  0  0  0  0  0  0  0  0
   57.5990   33.5290   46.1390 C   0  0  0  0  0  0  0  0  0  0  0  0
   57.4110   33.3750   44.7650 C   0  0  0  0  0  0  0  0  0  0  0  0
   57.9060   32.2430   44.1110 C   0  0  0  0  0  0  0  0  0  0  0  0
   56.0590   26.8608   45.7187 H   0  0  0  0  0  0  0  0  0  0  0  0
   60.2014   26.5030   46.8782 H   0  0  0  0  0  0  0  0  0  0  0  0
   60.7551   28.5438   45.5684 H   0  0  0  0  0  0  0  0  0  0  0  0
   60.1160   30.0870   43.9980 H   0  0  0  0  0  0  0  0  0  0  0  0
   58.6550   30.0570   43.1840 H   0  0  0  0  0  0  0  0  0  0  0  0
   59.2805   30.6288   46.7983 H   0  0  0  0  0  0  0  0  0  0  0  0
   58.4111   32.6622   47.9499 H   0  0  0  0  0  0  0  0  0  0  0  0
   57.2171   34.4253   46.6497 H   0  0  0  0  0  0  0  0  0  0  0  0
   56.8720   34.1462   44.1951 H   0  0  0  0  0  0  0  0  0  0  0  0
   57.7342   32.1190   43.0316 H   0  0  0  0  0  0  0  0  0  0  0  0
  1  2  2  0
  2  3  1  0
  2  4  1  0
  4  5  2  0
  5  6  1  0
  6  7  1  0
  6  8  2  0
  8  9  1  0
  9 10  2  0
 10 11  1  0
 11 12  1  0
 12 13  2  0
 13 14  1  0
 14 15  2  0
 15 16  1  0
 16 17  2  0
 10  4  1  0
 17 12  1  0
  5 18  1  0
  8 19  1  0
  9 20  1  0
 11 21  1  0
 11 22  1  0
 13 23  1  0
 14 24  1  0
 15 25  1  0
 16 26  1  0
 17 27  1  0
M  CHG  3   2   1   3  -1  11   1
M  END
>  <UniqueID>  (17) 
17

>  <SMILES>  (17) 
O=[N+]([O-])c1cc(F)ccc1[NH2+]c1ccccc1

>  <Energy>  (17) 
38.717189387073155

>  <Genealogy>  (17) 
O=[N+]([O-])c1cc(F)ccc1[NH2+]c1ccccc1 (protonated)
O=[N+]([O-])c1cc(F)ccc1[NH2+]c1ccccc1 (3D coordinates assigned)
O=[N+]([O-])c1cc(F)ccc1[NH2+]c1ccccc1 (optimized conformer: 38.717189387073155 kcal/mol)

>  <smiles>  (17) 
O=[N+]([O-])c1cc(F)ccc1Nc1ccccc1

>  <score_type>  (17) 
oracle

>  <origin>  (17) 
adg

>  <m_score__min__energy>  (17) 
-5.4299999999999997

>  <m_primary>  (17) 
energy

$$$$
17:0
     RDKit          3D

 31 31  0  0  0  0  0  0  0  0999 V2000
   54.6460   30.6314   43.6584 H   0  0  0  0  0  0  0  0  0  0  0  0
   55.5480   30.0890   43.9780 C   0  0  0  0  0  0  0  0  0  0  0  0
   55.5160   29.0860   44.8950 N   0  0  0  0  0  0  0  0  0  0  0  0
   56.7460   28.5760   45.1310 C   0  0  0  0  0  0  0  0  0  0  0  0
   56.9260   27.5840   45.9550 N   0  0  0  0  0  0  0  0  0  0  0  0
   56.2380   26.3230   46.0160 C   0  0  0  0  0  0  0  0  0  0  0  0
   54.9800   26.3240   45.9590 O   0  0  0  0  0  0  0  0  0  0  0  0
   56.9450   25.0130   46.1960 C   0  0  0  0  0  0  0  0  0  0  0  0
   57.0588   24.8022   47.2696 H   0  0  0  0  0  0  0  0  0  0  0  0
   56.3571   24.2113   45.7252 H   0  0  0  0  0  0  0  0  0  0  0  0
   57.9378   25.0644   45.7252 H   0  0  0  0  0  0  0  0  0  0  0  0
   57.9260   29.3380   44.1880 S   0  0  0  0  0  0  0  0  0  0  0  0
   56.8100   30.3730   43.4780 C   0  0  0  0  0  0  0  0  0  0  0  0
   57.1940   31.6210   42.2500 S   0  0  0  0  0  0  0  0  0  0  0  0
   58.3940   32.5070   43.3040 C   0  0  0  0  0  0  0  0  0  0  0  0
   58.5765   33.5059   42.8811 H   0  0  0  0  0  0  0  0  0  0  0  0
   59.3287   31.9280   43.3368 H   0  0  0  0  0  0  0  0  0  0  0  0
   57.8710   32.6530   44.7000 C   0  0  0  0  0  0  0  0  0  0  0  0
   56.6350   32.8130   44.8870 O   0  0  0  0  0  0  0  0  0  0  0  0
   58.7750   32.6220   45.8130 N   0  0  0  0  0  0  0  0  0  0  0  0
   59.7840   32.4100   45.6370 H   0  0  0  0  0  0  0  0  0  0  0  0
   58.3330   32.8160   47.1930 C   0  0  0  0  0  0  0  0  0  0  0  0
   58.6149   31.9367   47.7907 H   0  0  0  0  0  0  0  0  0  0  0  0
   57.2407   32.9456   47.2026 H   0  0  0  0  0  0  0  0  0  0  0  0
   58.9860   34.0640   47.7930 C   0  0  0  0  0  0  0  0  0  0  0  0
   59.7897   33.7545   48.4773 H   0  0  0  0  0  0  0  0  0  0  0  0
   58.2157   34.6349   48.3321 H   0  0  0  0  0  0  0  0  0  0  0  0
   59.5750   34.9560   46.7050 C   0  0  0  0  0  0  0  0  0  0  0  0
   60.1242   35.7878   47.1703 H   0  0  0  0  0  0  0  0  0  0  0  0
   60.2623   34.3669   46.0800 H   0  0  0  0  0  0  0  0  0  0  0  0
   58.7633   35.3567   46.0800 H   0  0  0  0  0  0  0  0  0  0  0  0
  1  2  1  0
  2  3  1  0
  3  4  1  0
  4  5  2  0
  5  6  1  0
  6  7  2  0
  6  8  1  0
  8  9  1  0
  8 10  1  0
  8 11  1  0
  4 12  1  0
 12 13  1  0
 13 14  1  0
 14 15  1  0
 15 16  1  0
 15 17  1  0
 15 18  1  0
 18 19  2  0
 18 20  1  0
 20 21  1  0
 20 22  1  0
 22 23  1  0
 22 24  1  0
 22 25  1  0
 25 26  1  0
 25 27  1  0
 25 28  1  0
 28 29  1  0
 28 30  1  0
 28 31  1  0
 13  2  2  0
M  CHG  1   3  -1
M  END
>  <UniqueID>  (18) 
18

>  <SMILES>  (18) 
CCCNC(=O)CSc1c[n-]/c(=N/C(C)=O)s1

>  <Energy>  (18) 
50.693116961478665

>  <Genealogy>  (18) 
CCCNC(=O)CSc1c[n-]c(=NC(C)=O)s1 (protonated)
CCCNC(=O)CSc1c[n-]/c(=N/C(C)=O)s1 (cis-trans isomerization)
CCCNC(=O)CSc1c[n-]/c(=N/C(C)=O)s1 (3D coordinates assigned)
CCCNC(=O)CSc1c[n-]/c(=N/C(C)=O)s1 (optimized conformer: 50.693116961478665 kcal/mol)

>  <smiles>  (18) 
CCCNC(=O)CSc1c[nH]c(=NC(C)=O)s1

>  <score_type>  (18) 
oracle

>  <origin>  (18) 
adg

>  <m_score__min__energy>  (18) 
-8.3900000000000006

>  <m_primary>  (18) 
energy

$$$$
18:0
     RDKit          3D

 36 37  0  0  1  0  0  0  0  0999 V2000
   60.0680   27.3590   46.4840 C   0  0  0  0  0  0  0  0  0  0  0  0
   58.6890   27.6200   46.0130 C   0  0  0  0  0  0  0  0  0  0  0  0
   57.7080   26.7770   46.4110 N   0  0  0  0  0  0  0  0  0  0  0  0
   56.4620   27.0020   45.9930 C   0  0  0  0  0  0  0  0  0  0  0  0
   55.5210   26.1950   46.3730 N   0  0  0  0  0  0  0  0  0  0  0  0
   56.1470   28.0280   45.1970 N   0  0  0  0  0  0  0  0  0  0  0  0
   57.0650   28.8870   44.7740 C   0  0  0  0  0  0  0  0  0  0  0  0
   56.7900   29.8750   44.0130 N   0  0  0  0  0  0  0  0  0  0  0  0
   56.5980   31.2170   44.5170 C   0  0  0  0  0  0  0  0  0  0  0  0
   57.5910   32.1910   43.9320 C   0  0  0  0  0  0  0  0  0  0  0  0
   58.1750   33.0760   44.9720 C   0  0  0  0  0  0  0  0  0  0  0  0
   58.9500   34.1760   44.6690 C   0  0  0  0  0  0  0  0  0  0  0  0
   59.4400   34.9260   45.7290 C   0  0  0  0  0  0  0  0  0  0  0  0
   59.1790   34.6090   47.0470 C   0  0  0  0  0  0  0  0  0  0  0  0
   58.4050   33.5100   47.3190 C   0  0  0  0  0  0  0  0  0  0  0  0
   57.8980   32.7360   46.2950 C   0  0  0  0  0  0  0  0  0  0  0  0
   58.3760   28.6770   45.1950 C   0  0  0  0  0  0  0  0  0  0  0  0
   59.4340   29.6060   44.7520 C   0  0  0  0  0  0  0  0  0  0  0  0
   60.0853   27.3557   47.5839 H   0  0  0  0  0  0  0  0  0  0  0  0
   60.4046   26.3812   46.1091 H   0  0  0  0  0  0  0  0  0  0  0  0
   60.7387   28.1462   46.1091 H   0  0  0  0  0  0  0  0  0  0  0  0
   57.8940   25.9650   47.0280 H   0  0  0  0  0  0  0  0  0  0  0  0
   55.5210   25.7970   47.3460 H   0  0  0  0  0  0  0  0  0  0  0  0
   55.1650   28.1640   44.8960 H   0  0  0  0  0  0  0  0  0  0  0  0
   55.5815   31.5500   44.2606 H   0  0  0  0  0  0  0  0  0  0  0  0
   56.7479   31.1941   45.6065 H   0  0  0  0  0  0  0  0  0  0  0  0
   58.4019   31.6258   43.4494 H   0  0  0  0  0  0  0  0  0  0  0  0
   57.0613   32.8229   43.2040 H   0  0  0  0  0  0  0  0  0  0  0  0
   59.1714   34.4485   43.6265 H   0  0  0  0  0  0  0  0  0  0  0  0
   60.0606   35.8075   45.5104 H   0  0  0  0  0  0  0  0  0  0  0  0
   59.5838   35.2257   47.8629 H   0  0  0  0  0  0  0  0  0  0  0  0
   58.1862   33.2429   48.3634 H   0  0  0  0  0  0  0  0  0  0  0  0
   57.2787   31.8556   46.5217 H   0  0  0  0  0  0  0  0  0  0  0  0
   59.9307   30.0422   45.6312 H   0  0  0  0  0  0  0  0  0  0  0  0
   60.1725   29.0592   44.1473 H   0  0  0  0  0  0  0  0  0  0  0  0
   58.9873   30.4090   44.1473 H   0  0  0  0  0  0  0  0  0  0  0  0
  1  2  1  0
  2  3  1  0
  3  4  1  0
  4  5  2  3
  4  6  1  0
  6  7  1  0
  7  8  2  0
  8  9  1  0
  9 10  1  0
 10 11  1  0
 11 12  2  0
 12 13  1  0
 13 14  2  0
 14 15  1  0
 15 16  2  0
  7 17  1  0
 17 18  1  0
 17  2  2  0
 16 11  1  0
  1 19  1  0
  1 20  1  0
  1 21  1  0
  3 22  1  0
  5 23  1  0
  6 24  1  0
  9 25  1  0
  9 26  1  0
 10 27  1  0
 10 28  1  0
 12 29  1  0
 13 30  1  0
 14 31  1  0
 15 32  1  0
 16 33  1  0
 18 34  1  0
 18 35  1  0
 18 36  1  0
M  END
>  <smiles>  (19) 
Cc1[nH]c(=N)[nH]c(=NCCc2ccccc2)c1C

>  <score_type>  (19) 
oracle

>  <origin>  (19) 
adg

>  <m_score__min__energy>  (19) 
-7.6100000000000003

>  <m_primary>  (19) 
energy

$$$$
19:0
     RDKit          3D

 42 44  0  0  0  0  0  0  0  0999 V2000
   64.0320   32.7640   48.6050 C   0  0  0  0  0  0  0  0  0  0  0  0
   62.6820   32.8390   47.9560 C   0  0  0  0  0  0  0  0  0  0  0  0
   62.4720   33.6930   46.8650 C   0  0  0  0  0  0  0  0  0  0  0  0
   61.2120   33.7800   46.2720 C   0  0  0  0  0  0  0  0  0  0  0  0
   60.1360   33.0210   46.7610 C   0  0  0  0  0  0  0  0  0  0  0  0
   58.8620   33.0930   46.0940 N   0  0  0  0  0  0  0  0  0  0  0  0
   58.0760   34.1770   45.9770 C   0  0  0  0  0  0  0  0  0  0  0  0
   56.9560   33.8180   45.2610 C   0  0  0  0  0  0  0  0  0  0  0  0
   57.0350   32.5170   44.9180 N   0  0  0  0  0  0  0  0  0  0  0  0
   58.2110   32.1080   45.4370 C   0  0  0  0  0  0  0  0  0  0  0  0
   58.8310   30.4350   45.2120 S   0  0  0  0  0  0  0  0  0  0  0  0
   57.6030   29.9570   43.9440 C   0  0  0  0  0  0  0  0  0  0  0  0
   56.2810   29.6300   44.5690 C   0  0  0  0  0  0  0  0  0  0  0  0
   55.3310   30.4550   44.4980 O   0  0  0  0  0  0  0  0  0  0  0  0
   56.1150   28.3820   45.2520 N   0  0  0  0  0  0  0  0  0  0  0  0
   57.1650   27.4820   45.6380 C   0  0  0  0  0  0  0  0  0  0  0  0
   57.3780   26.3340   44.8620 C   0  0  0  0  0  0  0  0  0  0  0  0
   58.3700   25.4140   45.2130 C   0  0  0  0  0  0  0  0  0  0  0  0
   59.1790   25.6480   46.3270 C   0  0  0  0  0  0  0  0  0  0  0  0
   59.0090   26.8130   47.0800 C   0  0  0  0  0  0  0  0  0  0  0  0
   58.0170   27.7380   46.7340 C   0  0  0  0  0  0  0  0  0  0  0  0
   57.9430   28.9010   47.4270 F   0  0  0  0  0  0  0  0  0  0  0  0
   60.3340   32.1780   47.8810 C   0  0  0  0  0  0  0  0  0  0  0  0
   59.2090   31.3590   48.4570 C   0  0  0  0  0  0  0  0  0  0  0  0
   61.6050   32.1050   48.4750 C   0  0  0  0  0  0  0  0  0  0  0  0
   63.9140   32.7706   49.6986 H   0  0  0  0  0  0  0  0  0  0  0  0
   64.5363   31.8365   48.2962 H   0  0  0  0  0  0  0  0  0  0  0  0
   64.6359   33.6300   48.2962 H   0  0  0  0  0  0  0  0  0  0  0  0
   63.3040   34.2973   46.4745 H   0  0  0  0  0  0  0  0  0  0  0  0
   61.0598   34.4498   45.4128 H   0  0  0  0  0  0  0  0  0  0  0  0
   58.2902   35.1768   46.3826 H   0  0  0  0  0  0  0  0  0  0  0  0
   56.1234   34.4907   45.0075 H   0  0  0  0  0  0  0  0  0  0  0  0
   57.4707   30.7914   43.2396 H   0  0  0  0  0  0  0  0  0  0  0  0
   57.9721   29.0631   43.4199 H   0  0  0  0  0  0  0  0  0  0  0  0
   56.7596   26.1559   43.9699 H   0  0  0  0  0  0  0  0  0  0  0  0
   58.5136   24.5046   44.6111 H   0  0  0  0  0  0  0  0  0  0  0  0
   59.9493   24.9161   46.6115 H   0  0  0  0  0  0  0  0  0  0  0  0
   59.6573   27.0038   47.9480 H   0  0  0  0  0  0  0  0  0  0  0  0
   59.2558   31.3931   49.5555 H   0  0  0  0  0  0  0  0  0  0  0  0
   58.2462   31.7690   48.1181 H   0  0  0  0  0  0  0  0  0  0  0  0
   59.3034   30.3168   48.1181 H   0  0  0  0  0  0  0  0  0  0  0  0
   61.7574   31.4653   49.3568 H   0  0  0  0  0  0  0  0  0  0  0  0
  1  2  1  0
  2  3  2  0
  3  4  1  0
  4  5  2  0
  5  6  1  0
  6  7  1  0
  7  8  2  0
  8  9  1  0
  9 10  2  0
 10 11  1  0
 11 12  1  0
 12 13  1  0
 13 14  2  0
 13 15  1  0
 15 16  1  0
 16 17  2  0
 17 18  1  0
 18 19  2  0
 19 20  1  0
 20 21  2  0
 21 22  1  0
  5 23  1  0
 23 24  1  0
 23 25  2  0
 25  2  1  0
 10  6  1  0
 21 16  1  0
  1 26  1  0
  1 27  1  0
  1 28  1  0
  3 29  1  0
  4 30  1  0
  7 31  1  0
  8 32  1  0
 12 33  1  0
 12 34  1  0
 17 35  1  0
 18 36  1  0
 19 37  1  0
 20 38  1  0
 24 39  1  0
 24 40  1  0
 24 41  1  0
 25 42  1  0
M  CHG  1  15  -1
M  END
>  <UniqueID>  (20) 
19

>  <SMILES>  (20) 
Cc1ccc(-n2ccnc2SCC(=O)[N-]c2ccccc2F)c(C)c1

>  <Energy>  (20) 
76.57104365975958

>  <Genealogy>  (20) 
Cc1ccc(-n2ccnc2SCC(=O)[N-]c2ccccc2F)c(C)c1 (protonated)
Cc1ccc(-n2ccnc2SCC(=O)[N-]c2ccccc2F)c(C)c1 (3D coordinates assigned)
Cc1ccc(-n2ccnc2SCC(=O)[N-]c2ccccc2F)c(C)c1 (optimized conformer: 76.57104365975958 kcal/mol)

>  <smiles>  (20) 
Cc1ccc(-n2ccnc2SCC(=O)Nc2ccccc2F)c(C)c1

>  <score_type>  (20) 
oracle

>  <origin>  (20) 
adg

>  <m_score__min__energy>  (20) 
-9.9100000000000001

>  <m_primary>  (20) 
energy

$$$$
20:0
     RDKit          3D

 47 50  0  0  0  0  0  0  0  0999 V2000
   57.7130   32.3360   41.5410 C   0  0  0  0  0  0  0  0  0  0  0  0
   57.4010   31.7590   42.8040 O   0  0  0  0  0  0  0  0  0  0  0  0
   57.7220   32.3300   44.0450 C   0  0  0  0  0  0  0  0  0  0  0  0
   57.8480   33.7250   44.2070 C   0  0  0  0  0  0  0  0  0  0  0  0
   58.1250   34.2700   45.4620 C   0  0  0  0  0  0  0  0  0  0  0  0
   58.2750   33.4350   46.5700 C   0  0  0  0  0  0  0  0  0  0  0  0
   58.1640   32.0520   46.4250 C   0  0  0  0  0  0  0  0  0  0  0  0
   57.9070   31.4870   45.1640 C   0  0  0  0  0  0  0  0  0  0  0  0
   57.8240   30.0150   45.0440 C   0  0  0  0  0  0  0  0  0  0  0  0
   57.1050   29.3730   44.1040 N   0  0  0  0  0  0  0  0  0  0  0  0
   57.2710   28.0710   44.2720 N   0  0  0  0  0  0  0  0  0  0  0  0
   58.0800   27.8460   45.2960 N   0  0  0  0  0  0  0  0  0  0  0  0
   58.3820   26.5050   45.7990 C   0  0  0  0  0  0  0  0  0  0  0  0
   57.4770   26.1350   46.9800 C   0  0  0  0  0  0  0  0  0  0  0  0
   56.1110   25.7350   46.5150 C   0  0  0  0  0  0  0  0  0  0  0  0
   55.2210   26.7170   45.9900 N   0  0  0  0  0  0  0  0  0  0  0  0
   55.7590   24.5260   46.5530 O   0  0  0  0  0  0  0  0  0  0  0  0
   58.4410   29.0410   45.8200 C   0  0  0  0  0  0  0  0  0  0  0  0
   59.2480   29.2350   47.0430 C   0  0  0  0  0  0  0  0  0  0  0  0
   58.9520   28.5300   48.2200 C   0  0  0  0  0  0  0  0  0  0  0  0
   59.7120   28.7530   49.3700 C   0  0  0  0  0  0  0  0  0  0  0  0
   60.7690   29.6700   49.3380 C   0  0  0  0  0  0  0  0  0  0  0  0
   61.5540   29.9190   50.4740 C   0  0  0  0  0  0  0  0  0  0  0  0
   62.6050   30.8390   50.4080 C   0  0  0  0  0  0  0  0  0  0  0  0
   62.8770   31.5120   49.2120 C   0  0  0  0  0  0  0  0  0  0  0  0
   62.0990   31.2690   48.0750 C   0  0  0  0  0  0  0  0  0  0  0  0
   61.0460   30.3510   48.1320 C   0  0  0  0  0  0  0  0  0  0  0  0
   60.2850   30.1160   47.0310 N   0  0  0  0  0  0  0  0  0  0  0  0
   58.2312   33.2942   41.6936 H   0  0  0  0  0  0  0  0  0  0  0  0
   58.3645   31.6527   40.9766 H   0  0  0  0  0  0  0  0  0  0  0  0
   56.7845   32.5071   40.9766 H   0  0  0  0  0  0  0  0  0  0  0  0
   57.7271   34.3887   43.3381 H   0  0  0  0  0  0  0  0  0  0  0  0
   58.2252   35.3593   45.5777 H   0  0  0  0  0  0  0  0  0  0  0  0
   58.4812   33.8683   47.5598 H   0  0  0  0  0  0  0  0  0  0  0  0
   58.2783   31.3995   47.3032 H   0  0  0  0  0  0  0  0  0  0  0  0
   56.5200   29.8030   43.3520 H   0  0  0  0  0  0  0  0  0  0  0  0
   58.2300   25.7761   44.9893 H   0  0  0  0  0  0  0  0  0  0  0  0
   59.4262   26.4913   46.1447 H   0  0  0  0  0  0  0  0  0  0  0  0
   57.9289   25.2953   47.5283 H   0  0  0  0  0  0  0  0  0  0  0  0
   57.3778   27.0165   47.6305 H   0  0  0  0  0  0  0  0  0  0  0  0
   55.5430   27.3980   45.2660 H   0  0  0  0  0  0  0  0  0  0  0  0
   58.1249   27.8050   48.2364 H   0  0  0  0  0  0  0  0  0  0  0  0
   59.4808   28.2097   50.2981 H   0  0  0  0  0  0  0  0  0  0  0  0
   61.3429   29.3910   51.4156 H   0  0  0  0  0  0  0  0  0  0  0  0
   63.2197   31.0341   51.2991 H   0  0  0  0  0  0  0  0  0  0  0  0
   63.7052   32.2345   49.1655 H   0  0  0  0  0  0  0  0  0  0  0  0
   62.3157   31.8000   47.1364 H   0  0  0  0  0  0  0  0  0  0  0  0
  1  2  1  0
  2  3  1  0
  3  4  2  0
  4  5  1  0
  5  6  2  0
  6  7  1  0
  7  8  2  0
  8  9  1  0
  9 10  1  0
 10 11  2  0
 11 12  1  0
 12 13  1  0
 13 14  1  0
 14 15  1  0
 15 16  1  0
 15 17  2  0
 12 18  1  0
 18 19  1  0
 19 20  2  0
 20 21  1  0
 21 22  2  0
 22 23  1  0
 23 24  2  0
 24 25  1  0
 25 26  2  0
 26 27  1  0
 27 28  2  0
  8  3  1  0
 18  9  2  0
 28 19  1  0
 27 22  1  0
  1 29  1  0
  1 30  1  0
  1 31  1  0
  4 32  1  0
  5 33  1  0
  6 34  1  0
  7 35  1  0
 10 36  1  0
 13 37  1  0
 13 38  1  0
 14 39  1  0
 14 40  1  0
 16 41  1  0
 20 42  1  0
 21 43  1  0
 23 44  1  0
 24 45  1  0
 25 46  1  0
 26 47  1  0
M  CHG  2  10   1  16  -1
M  END
>  <UniqueID>  (21) 
20

>  <SMILES>  (21) 
COc1ccccc1-c1[nH+]nn(CCC([NH-])=O)c1-c1ccc2ccccc2n1

>  <Energy>  (21) 
92.76687303529238

>  <Genealogy>  (21) 
COc1ccccc1-c1[nH+]nn(CCC([NH-])=O)c1-c1ccc2ccccc2n1 (protonated)
COc1ccccc1-c1[nH+]nn(CCC([NH-])=O)c1-c1ccc2ccccc2n1 (3D coordinates assigned)
COc1ccccc1-c1[nH+]nn(CCC([NH-])=O)c1-c1ccc2ccccc2n1 (optimized conformer: 92.76687303529238 kcal/mol)

>  <smiles>  (21) 
COc1ccccc1-c1nnn(CCC(N)=O)c1-c1ccc2ccccc2n1

>  <score_type>  (21) 
oracle

>  <origin>  (21) 
adg

>  <m_score__min__energy>  (21) 
-10.140000000000001

>  <m_primary>  (21) 
energy

$$$$
21:0
     RDKit          3D

 45 48  0  0  0  0  0  0  0  0999 V2000
   57.8060   32.9720   44.6080 C   0  0  0  0  0  0  0  0  0  0  0  0
   58.2610   31.8690   45.3370 C   0  0  0  0  0  0  0  0  0  0  0  0
   58.8480   32.0520   46.5920 C   0  0  0  0  0  0  0  0  0  0  0  0
   58.9850   33.3440   47.1270 C   0  0  0  0  0  0  0  0  0  0  0  0
   59.5990   33.5330   48.4900 C   0  0  0  0  0  0  0  0  0  0  0  0
   61.0760   33.5230   48.4030 N   0  0  0  0  0  0  0  0  0  0  0  0
   61.5970   33.7140   47.0350 C   0  0  0  0  0  0  0  0  0  0  0  0
   62.9720   33.0790   46.8010 C   0  0  0  0  0  0  0  0  0  0  0  0
   63.9770   33.6610   47.6250 O   0  0  0  0  0  0  0  0  0  0  0  0
   64.0820   33.3860   48.9900 C   0  0  0  0  0  0  0  0  0  0  0  0
   65.2250   32.7230   49.4490 C   0  0  0  0  0  0  0  0  0  0  0  0
   65.3950   32.4530   50.8150 C   0  0  0  0  0  0  0  0  0  0  0  0
   66.6580   31.8050   51.3090 C   0  0  0  0  0  0  0  0  0  0  0  0
   66.4830   30.3210   51.3660 C   0  0  0  0  0  0  0  0  0  0  0  0
   67.4280   29.3760   50.9870 C   0  0  0  0  0  0  0  0  0  0  0  0
   67.0190   28.0610   51.2330 C   0  0  0  0  0  0  0  0  0  0  0  0
   65.7640   27.9670   51.8200 C   0  0  0  0  0  0  0  0  0  0  0  0
   65.1630   29.5240   52.0350 S   0  0  0  0  0  0  0  0  0  0  0  0
   64.4050   32.8560   51.7220 C   0  0  0  0  0  0  0  0  0  0  0  0
   63.2470   33.4880   51.2670 C   0  0  0  0  0  0  0  0  0  0  0  0
   63.0710   33.7570   49.8980 C   0  0  0  0  0  0  0  0  0  0  0  0
   61.7660   34.3480   49.4180 C   0  0  0  0  0  0  0  0  0  0  0  0
   58.5260   34.4480   46.3890 C   0  0  0  0  0  0  0  0  0  0  0  0
   57.9390   34.2600   45.1340 C   0  0  0  0  0  0  0  0  0  0  0  0
   57.3435   32.8260   43.6207 H   0  0  0  0  0  0  0  0  0  0  0  0
   58.1568   30.8556   44.9220 H   0  0  0  0  0  0  0  0  0  0  0  0
   59.2039   31.1817   47.1629 H   0  0  0  0  0  0  0  0  0  0  0  0
   59.2680   34.4965   48.9049 H   0  0  0  0  0  0  0  0  0  0  0  0
   59.2770   32.7069   49.1411 H   0  0  0  0  0  0  0  0  0  0  0  0
   60.8838   33.2668   46.3270 H   0  0  0  0  0  0  0  0  0  0  0  0
   61.7157   34.7974   46.8864 H   0  0  0  0  0  0  0  0  0  0  0  0
   62.9089   32.0037   47.0241 H   0  0  0  0  0  0  0  0  0  0  0  0
   63.2515   33.2525   45.7514 H   0  0  0  0  0  0  0  0  0  0  0  0
   65.9981   32.4103   48.7317 H   0  0  0  0  0  0  0  0  0  0  0  0
   67.4840   32.0484   50.6246 H   0  0  0  0  0  0  0  0  0  0  0  0
   66.8860   32.1807   52.3174 H   0  0  0  0  0  0  0  0  0  0  0  0
   68.3987   29.6352   50.5392 H   0  0  0  0  0  0  0  0  0  0  0  0
   67.6340   27.1835   50.9847 H   0  0  0  0  0  0  0  0  0  0  0  0
   65.2506   27.0344   52.0970 H   0  0  0  0  0  0  0  0  0  0  0  0
   64.5417   32.6731   52.7980 H   0  0  0  0  0  0  0  0  0  0  0  0
   62.4657   33.7781   51.9849 H   0  0  0  0  0  0  0  0  0  0  0  0
   61.0978   34.4632   50.2842 H   0  0  0  0  0  0  0  0  0  0  0  0
   62.0055   35.3098   48.9409 H   0  0  0  0  0  0  0  0  0  0  0  0
   58.6288   35.4632   46.7998 H   0  0  0  0  0  0  0  0  0  0  0  0
   57.5813   35.1273   44.5597 H   0  0  0  0  0  0  0  0  0  0  0  0
  1  2  2  0
  2  3  1  0
  3  4  2  0
  4  5  1  0
  5  6  1  0
  6  7  1  0
  7  8  1  0
  8  9  1  0
  9 10  1  0
 10 11  2  0
 11 12  1  0
 12 13  1  0
 13 14  1  0
 14 15  2  0
 15 16  1  0
 16 17  2  0
 17 18  1  0
 12 19  2  0
 19 20  1  0
 20 21  2  0
 21 22  1  0
  4 23  1  0
 23 24  2  0
 24  1  1  0
 22  6  1  0
 21 10  1  0
 18 14  1  0
  1 25  1  0
  2 26  1  0
  3 27  1  0
  5 28  1  0
  5 29  1  0
  7 30  1  0
  7 31  1  0
  8 32  1  0
  8 33  1  0
 11 34  1  0
 13 35  1  0
 13 36  1  0
 15 37  1  0
 16 38  1  0
 17 39  1  0
 19 40  1  0
 20 41  1  0
 22 42  1  0
 22 43  1  0
 23 44  1  0
 24 45  1  0
M  END
>  <UniqueID>  (22) 
21

>  <SMILES>  (22) 
c1ccc(CN2CCOc3cc(Cc4cccs4)ccc3C2)cc1

>  <Energy>  (22) 
84.3378441138427

>  <Genealogy>  (22) 
c1ccc(CN2CCOc3cc(Cc4cccs4)ccc3C2)cc1 (3D coordinates assigned)
c1ccc(CN2CCOc3cc(Cc4cccs4)ccc3C2)cc1 (nonaromatic ring conformer: 84.3378441138427 kcal/mol)

>  <smiles>  (22) 
c1ccc(CN2CCOc3cc(Cc4cccs4)ccc3C2)cc1

>  <score_type>  (22) 
oracle

>  <origin>  (22) 
adg

>  <m_score__min__energy>  (22) 
-6.1100000000000003

>  <m_primary>  (22) 
energy

$$$$
22:0
     RDKit          3D

 41 42  0  0  0  0  0  0  0  0999 V2000
   54.2060   24.2980   45.2630 C   0  0  0  0  0  0  0  0  0  0  0  0
   55.0780   25.0430   46.0850 O   0  0  0  0  0  0  0  0  0  0  0  0
   56.3120   24.3630   46.2390 C   0  0  0  0  0  0  0  0  0  0  0  0
   57.3430   25.2490   46.8920 C   0  0  0  0  0  0  0  0  0  0  0  0
   57.8570   24.8890   47.9860 O   0  0  0  0  0  0  0  0  0  0  0  0
   57.7540   26.4930   46.2810 N   0  0  0  0  0  0  0  0  0  0  0  0
   57.4180   26.7750   44.8760 C   0  0  0  0  0  0  0  0  0  0  0  0
   58.1530   28.0110   44.3450 C   0  0  0  0  0  0  0  0  0  0  0  0
   58.0370   29.1310   45.2910 N   0  0  0  0  0  0  0  0  0  0  0  0
   57.9850   30.4870   44.7930 C   0  0  0  0  0  0  0  0  0  0  0  0
   57.8880   31.5240   45.6710 N   0  0  0  0  0  0  0  0  0  0  0  0
   57.8380   32.8140   45.2480 C   0  0  0  0  0  0  0  0  0  0  0  0
   57.7450   33.8660   46.1640 O   0  0  0  0  0  0  0  0  0  0  0  0
   58.8860   34.5550   46.6620 C   0  0  0  0  0  0  0  0  0  0  0  0
   57.8810   33.0930   43.8850 C   0  0  0  0  0  0  0  0  0  0  0  0
   57.9690   32.0280   42.9820 C   0  0  0  0  0  0  0  0  0  0  0  0
   58.0630   32.2970   41.5090 C   0  0  0  0  0  0  0  0  0  0  0  0
   58.0340   30.7500   43.4520 N   0  0  0  0  0  0  0  0  0  0  0  0
   58.1560   28.8800   46.7360 C   0  0  0  0  0  0  0  0  0  0  0  0
   58.5910   27.4400   47.0300 C   0  0  0  0  0  0  0  0  0  0  0  0
   53.5201   23.7120   45.8924 H   0  0  0  0  0  0  0  0  0  0  0  0
   53.6257   24.9835   44.6279 H   0  0  0  0  0  0  0  0  0  0  0  0
   54.7925   23.6178   44.6279 H   0  0  0  0  0  0  0  0  0  0  0  0
   56.1555   23.4723   46.8652 H   0  0  0  0  0  0  0  0  0  0  0  0
   56.6791   24.0759   45.2426 H   0  0  0  0  0  0  0  0  0  0  0  0
   57.6973   25.9054   44.2629 H   0  0  0  0  0  0  0  0  0  0  0  0
   56.3374   26.9725   44.8189 H   0  0  0  0  0  0  0  0  0  0  0  0
   59.2161   27.7661   44.2040 H   0  0  0  0  0  0  0  0  0  0  0  0
   57.6996   28.3081   43.3878 H   0  0  0  0  0  0  0  0  0  0  0  0
   58.8693   34.5449   47.7618 H   0  0  0  0  0  0  0  0  0  0  0  0
   59.7997   34.0575   46.3046 H   0  0  0  0  0  0  0  0  0  0  0  0
   58.8711   35.5952   46.3046 H   0  0  0  0  0  0  0  0  0  0  0  0
   57.8464   34.1317   43.5245 H   0  0  0  0  0  0  0  0  0  0  0  0
   58.4219   33.3240   41.3460 H   0  0  0  0  0  0  0  0  0  0  0  0
   58.7659   31.5859   41.0505 H   0  0  0  0  0  0  0  0  0  0  0  0
   57.0702   32.1784   41.0505 H   0  0  0  0  0  0  0  0  0  0  0  0
   58.1390   29.9690   42.7670 H   0  0  0  0  0  0  0  0  0  0  0  0
   58.9019   29.5702   47.1570 H   0  0  0  0  0  0  0  0  0  0  0  0
   57.1681   29.0386   47.1929 H   0  0  0  0  0  0  0  0  0  0  0  0
   59.6419   27.3101   46.7321 H   0  0  0  0  0  0  0  0  0  0  0  0
   58.4783   27.2442   48.1066 H   0  0  0  0  0  0  0  0  0  0  0  0
  1  2  1  0
  2  3  1  0
  3  4  1  0
  4  5  2  0
  4  6  1  0
  6  7  1  0
  7  8  1  0
  8  9  1  0
  9 10  1  0
 10 11  2  0
 11 12  1  0
 12 13  1  0
 13 14  1  0
 12 15  2  0
 15 16  1  0
 16 17  1  0
 16 18  2  0
  9 19  1  0
 19 20  1  0
 20  6  1  0
 18 10  1  0
  1 21  1  0
  1 22  1  0
  1 23  1  0
  3 24  1  0
  3 25  1  0
  7 26  1  0
  7 27  1  0
  8 28  1  0
  8 29  1  0
 14 30  1  0
 14 31  1  0
 14 32  1  0
 15 33  1  0
 17 34  1  0
 17 35  1  0
 17 36  1  0
 18 37  1  0
 19 38  1  0
 19 39  1  0
 20 40  1  0
 20 41  1  0
M  CHG  1  18   1
M  END
>  <UniqueID>  (23) 
22

>  <SMILES>  (23) 
COCC(=O)N1CCN(c2nc(OC)cc(C)[nH+]2)CC1

>  <Energy>  (23) 
40.73773809331403

>  <Genealogy>  (23) 
COCC(=O)N1CCN(c2nc(OC)cc(C)[nH+]2)CC1 (protonated)
COCC(=O)N1CCN(c2nc(OC)cc(C)[nH+]2)CC1 (3D coordinates assigned)
COCC(=O)N1CCN(c2nc(OC)cc(C)[nH+]2)CC1 (nonaromatic ring conformer: 40.73773809331403 kcal/mol)

>  <smiles>  (23) 
COCC(=O)N1CCN(c2nc(C)cc(OC)n2)CC1

>  <score_type>  (23) 
oracle

>  <origin>  (23) 
adg

>  <m_score__min__energy>  (23) 
-4.9800000000000004

>  <m_primary>  (23) 
energy

$$$$
23:0
     RDKit          3D

 40 42  0  0  0  0  0  0  0  0999 V2000
   61.8740   33.8630   47.9410 C   0  0  0  0  0  0  0  0  0  0  0  0
   60.9870   34.2070   49.1350 C   0  0  0  0  0  0  0  0  0  0  0  0
   59.6590   34.6560   48.6900 N   0  0  0  0  0  0  0  0  0  0  0  0
   59.6250   34.8030   47.2280 C   0  0  0  0  0  0  0  0  0  0  0  0
   58.8910   33.6470   46.6000 C   0  0  0  0  0  0  0  0  0  0  0  0
   57.6910   33.8740   45.8780 C   0  0  0  0  0  0  0  0  0  0  0  0
   57.0150   32.8070   45.2560 C   0  0  0  0  0  0  0  0  0  0  0  0
   57.5700   31.5350   45.3640 C   0  0  0  0  0  0  0  0  0  0  0  0
   57.1110   30.4150   44.8640 O   0  0  0  0  0  0  0  0  0  0  0  0
   57.9490   29.4490   45.2020 C   0  0  0  0  0  0  0  0  0  0  0  0
   57.7530   28.0330   44.8100 C   0  0  0  0  0  0  0  0  0  0  0  0
   58.0010   27.5920   43.4960 C   0  0  0  0  0  0  0  0  0  0  0  0
   57.8090   26.2510   43.1500 C   0  0  0  0  0  0  0  0  0  0  0  0
   57.3800   25.3260   44.1120 C   0  0  0  0  0  0  0  0  0  0  0  0
   57.1360   23.8960   43.7300 C   0  0  0  0  0  0  0  0  0  0  0  0
   57.1150   25.7640   45.4170 C   0  0  0  0  0  0  0  0  0  0  0  0
   57.3060   27.1040   45.7650 C   0  0  0  0  0  0  0  0  0  0  0  0
   59.0030   29.9680   45.9590 C   0  0  0  0  0  0  0  0  0  0  0  0
   58.7320   31.3130   46.0490 C   0  0  0  0  0  0  0  0  0  0  0  0
   59.4280   32.3430   46.6770 C   0  0  0  0  0  0  0  0  0  0  0  0
   62.8433   33.4871   48.3005 H   0  0  0  0  0  0  0  0  0  0  0  0
   61.3842   33.0896   47.3311 H   0  0  0  0  0  0  0  0  0  0  0  0
   62.0337   34.7644   47.3311 H   0  0  0  0  0  0  0  0  0  0  0  0
   60.8722   33.3143   49.7674 H   0  0  0  0  0  0  0  0  0  0  0  0
   61.4615   35.0212   49.7023 H   0  0  0  0  0  0  0  0  0  0  0  0
   58.9420   33.9510   48.9820 H   0  0  0  0  0  0  0  0  0  0  0  0
   59.4400   35.5790   49.1350 H   0  0  0  0  0  0  0  0  0  0  0  0
   59.1118   35.7411   46.9701 H   0  0  0  0  0  0  0  0  0  0  0  0
   60.6569   34.8191   46.8473 H   0  0  0  0  0  0  0  0  0  0  0  0
   57.2848   34.8935   45.8034 H   0  0  0  0  0  0  0  0  0  0  0  0
   56.0789   32.9731   44.7028 H   0  0  0  0  0  0  0  0  0  0  0  0
   58.3483   28.3076   42.7362 H   0  0  0  0  0  0  0  0  0  0  0  0
   57.9955   25.9201   42.1177 H   0  0  0  0  0  0  0  0  0  0  0  0
   57.0319   23.2861   44.6395 H   0  0  0  0  0  0  0  0  0  0  0  0
   56.2132   23.8277   43.1352 H   0  0  0  0  0  0  0  0  0  0  0  0
   57.9839   23.5256   43.1352 H   0  0  0  0  0  0  0  0  0  0  0  0
   56.7547   25.0490   46.1713 H   0  0  0  0  0  0  0  0  0  0  0  0
   57.1048   27.4342   46.7948 H   0  0  0  0  0  0  0  0  0  0  0  0
   59.8574   29.4229   46.3867 H   0  0  0  0  0  0  0  0  0  0  0  0
   60.3666   32.1470   47.2161 H   0  0  0  0  0  0  0  0  0  0  0  0
  1  2  1  0
  2  3  1  0
  3  4  1  0
  4  5  1  0
  5  6  2  0
  6  7  1  0
  7  8  2  0
  8  9  1  0
  9 10  1  0
 10 11  1  0
 11 12  2  0
 12 13  1  0
 13 14  2  0
 14 15  1  0
 14 16  1  0
 16 17  2  0
 10 18  2  0
 18 19  1  0
 19 20  2  0
 20  5  1  0
 19  8  1  0
 17 11  1  0
  1 21  1  0
  1 22  1  0
  1 23  1  0
  2 24  1  0
  2 25  1  0
  3 26  1  0
  3 27  1  0
  4 28  1  0
  4 29  1  0
  6 30  1  0
  7 31  1  0
 12 32  1  0
 13 33  1  0
 15 34  1  0
 15 35  1  0
 15 36  1  0
 16 37  1  0
 17 38  1  0
 18 39  1  0
 20 40  1  0
M  CHG  1   3   1
M  END
>  <UniqueID>  (24) 
23

>  <SMILES>  (24) 
CC[NH2+]Cc1ccc2oc(-c3ccc(C)cc3)cc2c1

>  <Energy>  (24) 
71.52048363432885

>  <Genealogy>  (24) 
CC[NH2+]Cc1ccc2oc(-c3ccc(C)cc3)cc2c1 (protonated)
CC[NH2+]Cc1ccc2oc(-c3ccc(C)cc3)cc2c1 (3D coordinates assigned)
CC[NH2+]Cc1ccc2oc(-c3ccc(C)cc3)cc2c1 (optimized conformer: 71.52048363432885 kcal/mol)

>  <smiles>  (24) 
CCNCc1ccc2oc(-c3ccc(C)cc3)cc2c1

>  <score_type>  (24) 
oracle

>  <origin>  (24) 
adg

>  <m_score__min__energy>  (24) 
-6.0300000000000002

>  <m_primary>  (24) 
energy

$$$$
24:0
     RDKit          3D

 55 57  0  0  0  0  0  0  0  0999 V2000
   57.3830   30.3500   44.8160 C   0  0  0  0  0  0  0  0  0  0  0  0
   57.7740   31.1490   45.9280 O   0  0  0  0  0  0  0  0  0  0  0  0
   58.2610   32.4640   45.8320 C   0  0  0  0  0  0  0  0  0  0  0  0
   58.4190   33.1050   44.5880 C   0  0  0  0  0  0  0  0  0  0  0  0
   58.9210   34.4060   44.5200 C   0  0  0  0  0  0  0  0  0  0  0  0
   59.2750   35.0820   45.6860 C   0  0  0  0  0  0  0  0  0  0  0  0
   59.1260   34.4600   46.9270 C   0  0  0  0  0  0  0  0  0  0  0  0
   58.6110   33.1550   47.0140 C   0  0  0  0  0  0  0  0  0  0  0  0
   58.5120   32.4910   48.3680 C   0  0  0  0  0  0  0  0  0  0  0  0
   59.6050   32.9880   49.3260 C   0  0  0  0  0  0  0  0  0  0  0  0
   60.9830   32.8420   48.7260 C   0  0  0  0  0  0  0  0  0  0  0  0
   61.8660   33.9380   48.7410 C   0  0  0  0  0  0  0  0  0  0  0  0
   63.1150   33.8470   48.1280 C   0  0  0  0  0  0  0  0  0  0  0  0
   63.4970   32.6660   47.4930 C   0  0  0  0  0  0  0  0  0  0  0  0
   62.6320   31.5700   47.4680 C   0  0  0  0  0  0  0  0  0  0  0  0
   61.3640   31.6480   48.0770 C   0  0  0  0  0  0  0  0  0  0  0  0
   60.4580   30.5720   48.0590 O   0  0  0  0  0  0  0  0  0  0  0  0
   60.4340   29.4910   48.9910 C   0  0  0  0  0  0  0  0  0  0  0  0
   59.5430   28.3520   48.4670 C   0  0  0  0  0  0  0  0  0  0  0  0
   59.0700   28.5990   47.0800 N   0  0  0  0  0  0  0  0  0  0  0  0
   57.8340   27.8220   46.7550 C   0  0  0  0  0  0  0  0  0  0  0  0
   58.0600   26.6300   45.8020 C   0  0  0  0  0  0  0  0  0  0  0  0
   59.3790   25.9260   46.1080 C   0  0  0  0  0  0  0  0  0  0  0  0
   60.5750   26.8890   46.0130 C   0  0  0  0  0  0  0  0  0  0  0  0
   60.1570   28.3710   46.0990 C   0  0  0  0  0  0  0  0  0  0  0  0
   56.9264   29.4168   45.1775 H   0  0  0  0  0  0  0  0  0  0  0  0
   56.6536   30.9028   44.2058 H   0  0  0  0  0  0  0  0  0  0  0  0
   58.2670   30.1132   44.2058 H   0  0  0  0  0  0  0  0  0  0  0  0
   58.1448   32.5767   43.6630 H   0  0  0  0  0  0  0  0  0  0  0  0
   59.0374   34.8987   43.5434 H   0  0  0  0  0  0  0  0  0  0  0  0
   59.6720   36.1062   45.6286 H   0  0  0  0  0  0  0  0  0  0  0  0
   59.4139   34.9953   47.8438 H   0  0  0  0  0  0  0  0  0  0  0  0
   57.5272   32.7152   48.8038 H   0  0  0  0  0  0  0  0  0  0  0  0
   58.6444   31.4079   48.2292 H   0  0  0  0  0  0  0  0  0  0  0  0
   59.4253   34.0495   49.5518 H   0  0  0  0  0  0  0  0  0  0  0  0
   59.5629   32.3776   50.2401 H   0  0  0  0  0  0  0  0  0  0  0  0
   61.5688   34.8724   49.2396 H   0  0  0  0  0  0  0  0  0  0  0  0
   63.7996   34.7078   48.1454 H   0  0  0  0  0  0  0  0  0  0  0  0
   64.4830   32.5973   47.0101 H   0  0  0  0  0  0  0  0  0  0  0  0
   62.9426   30.6399   46.9696 H   0  0  0  0  0  0  0  0  0  0  0  0
   61.4572   29.1139   49.1353 H   0  0  0  0  0  0  0  0  0  0  0  0
   60.0265   29.8524   49.9467 H   0  0  0  0  0  0  0  0  0  0  0  0
   60.1201   27.4156   48.4826 H   0  0  0  0  0  0  0  0  0  0  0  0
   58.6587   28.2895   49.1182 H   0  0  0  0  0  0  0  0  0  0  0  0
   58.8310   29.6170   47.0050 H   0  0  0  0  0  0  0  0  0  0  0  0
   57.4140   27.4353   47.6953 H   0  0  0  0  0  0  0  0  0  0  0  0
   57.1567   28.5149   46.2343 H   0  0  0  0  0  0  0  0  0  0  0  0
   57.2340   25.9133   45.9206 H   0  0  0  0  0  0  0  0  0  0  0  0
   58.0969   27.0091   44.7701 H   0  0  0  0  0  0  0  0  0  0  0  0
   59.3344   25.5128   47.1265 H   0  0  0  0  0  0  0  0  0  0  0  0
   59.5219   25.1283   45.3642 H   0  0  0  0  0  0  0  0  0  0  0  0
   61.2684   26.6709   46.8386 H   0  0  0  0  0  0  0  0  0  0  0  0
   61.0476   26.7345   45.0318 H   0  0  0  0  0  0  0  0  0  0  0  0
   61.0319   28.9674   46.3972 H   0  0  0  0  0  0  0  0  0  0  0  0
   59.7815   28.6699   45.1092 H   0  0  0  0  0  0  0  0  0  0  0  0
  1  2  1  0
  2  3  1  0
  3  4  2  0
  4  5  1  0
  5  6  2  0
  6  7  1  0
  7  8  2  0
  8  9  1  0
  9 10  1  0
 10 11  1  0
 11 12  2  0
 12 13  1  0
 13 14  2  0
 14 15  1  0
 15 16  2  0
 16 17  1  0
 17 18  1  0
 18 19  1  0
 19 20  1  0
 20 21  1  0
 21 22  1  0
 22 23  1  0
 23 24  1  0
 24 25  1  0
  8  3  1  0
 16 11  1  0
 25 20  1  0
  1 26  1  0
  1 27  1  0
  1 28  1  0
  4 29  1  0
  5 30  1  0
  6 31  1  0
  7 32  1  0
  9 33  1  0
  9 34  1  0
 10 35  1  0
 10 36  1  0
 12 37  1  0
 13 38  1  0
 14 39  1  0
 15 40  1  0
 18 41  1  0
 18 42  1  0
 19 43  1  0
 19 44  1  0
 20 45  1  0
 21 46  1  0
 21 47  1  0
 22 48  1  0
 22 49  1  0
 23 50  1  0
 23 51  1  0
 24 52  1  0
 24 53  1  0
 25 54  1  0
 25 55  1  0
M  CHG  1  20   1
M  END
>  <UniqueID>  (25) 
24

>  <SMILES>  (25) 
COc1ccccc1CCc1ccccc1OCC[NH+]1CCCCC1

>  <Energy>  (25) 
57.32380238851462

>  <Genealogy>  (25) 
COc1ccccc1CCc1ccccc1OCC[NH+]1CCCCC1 (protonated)
COc1ccccc1CCc1ccccc1OCC[NH+]1CCCCC1 (3D coordinates assigned)
COc1ccccc1CCc1ccccc1OCC[NH+]1CCCCC1 (nonaromatic ring conformer: 57.32380238851462 kcal/mol)

>  <smiles>  (25) 
COc1ccccc1CCc1ccccc1OCCN1CCCCC1

>  <score_type>  (25) 
oracle

>  <origin>  (25) 
adg

>  <m_score__min__energy>  (25) 
-5.0800000000000001

>  <m_primary>  (25) 
energy

$$$$
25:0
     RDKit          3D

 46 48  0  0  0  0  0  0  0  0999 V2000
   56.5520   20.8450   45.5810 C   0  0  0  0  0  0  0  0  0  0  0  0
   57.7770   20.9480   44.7660 N   0  0  0  0  0  0  0  0  0  0  0  0
   57.4160   21.1900   43.3590 C   0  0  0  0  0  0  0  0  0  0  0  0
   58.6620   22.0320   45.2530 C   0  0  0  0  0  0  0  0  0  0  0  0
   57.9250   23.3460   45.3870 C   0  0  0  0  0  0  0  0  0  0  0  0
   57.7550   24.1820   44.2730 C   0  0  0  0  0  0  0  0  0  0  0  0
   57.0570   25.3860   44.3980 C   0  0  0  0  0  0  0  0  0  0  0  0
   56.4970   25.7630   45.6230 C   0  0  0  0  0  0  0  0  0  0  0  0
   55.8270   27.0310   45.7040 N   0  0  0  0  0  0  0  0  0  0  0  0
   56.3010   28.3030   45.2430 C   0  0  0  0  0  0  0  0  0  0  0  0
   55.4980   29.2070   44.8900 O   0  0  0  0  0  0  0  0  0  0  0  0
   57.7770   28.5500   45.1680 C   0  0  0  0  0  0  0  0  0  0  0  0
   58.1940   29.7740   45.9970 C   0  0  0  0  0  0  0  0  0  0  0  0
   58.1440   31.0450   45.1870 C   0  0  0  0  0  0  0  0  0  0  0  0
   57.7780   31.0530   43.8380 C   0  0  0  0  0  0  0  0  0  0  0  0
   57.9300   32.6200   43.2290 S   0  0  0  0  0  0  0  0  0  0  0  0
   58.4650   33.2980   44.6650 C   0  0  0  0  0  0  0  0  0  0  0  0
   58.8270   34.6210   44.9040 C   0  0  0  0  0  0  0  0  0  0  0  0
   59.2760   34.9650   46.1870 C   0  0  0  0  0  0  0  0  0  0  0  0
   59.3500   33.9900   47.1980 C   0  0  0  0  0  0  0  0  0  0  0  0
   58.9770   32.6620   46.9350 C   0  0  0  0  0  0  0  0  0  0  0  0
   58.5330   32.3200   45.6490 C   0  0  0  0  0  0  0  0  0  0  0  0
   56.6810   24.9310   46.7440 C   0  0  0  0  0  0  0  0  0  0  0  0
   57.3870   23.7320   46.6240 C   0  0  0  0  0  0  0  0  0  0  0  0
   56.8185   20.8674   46.6480 H   0  0  0  0  0  0  0  0  0  0  0  0
   55.8867   21.6904   45.3514 H   0  0  0  0  0  0  0  0  0  0  0  0
   56.0372   19.9004   45.3514 H   0  0  0  0  0  0  0  0  0  0  0  0
   58.2870   20.0350   44.8120 H   0  0  0  0  0  0  0  0  0  0  0  0
   56.5030   21.8020   43.3148 H   0  0  0  0  0  0  0  0  0  0  0  0
   58.2378   21.7204   42.8556 H   0  0  0  0  0  0  0  0  0  0  0  0
   57.2375   20.2284   42.8556 H   0  0  0  0  0  0  0  0  0  0  0  0
   59.0637   21.7479   46.2368 H   0  0  0  0  0  0  0  0  0  0  0  0
   59.4695   22.1680   44.5185 H   0  0  0  0  0  0  0  0  0  0  0  0
   58.1724   23.8887   43.2985 H   0  0  0  0  0  0  0  0  0  0  0  0
   56.9467   26.0444   43.5237 H   0  0  0  0  0  0  0  0  0  0  0  0
   58.3060   27.6644   45.5500 H   0  0  0  0  0  0  0  0  0  0  0  0
   58.0380   28.7441   44.1172 H   0  0  0  0  0  0  0  0  0  0  0  0
   57.5122   29.8718   46.8546 H   0  0  0  0  0  0  0  0  0  0  0  0
   59.2313   29.6227   46.3304 H   0  0  0  0  0  0  0  0  0  0  0  0
   57.4436   30.1764   43.2638 H   0  0  0  0  0  0  0  0  0  0  0  0
   58.7624   35.3766   44.1072 H   0  0  0  0  0  0  0  0  0  0  0  0
   59.5717   36.0021   46.4038 H   0  0  0  0  0  0  0  0  0  0  0  0
   59.7025   34.2697   48.2017 H   0  0  0  0  0  0  0  0  0  0  0  0
   59.0322   31.9002   47.7266 H   0  0  0  0  0  0  0  0  0  0  0  0
   56.2666   25.2269   47.7191 H   0  0  0  0  0  0  0  0  0  0  0  0
   57.5221   23.0865   47.5044 H   0  0  0  0  0  0  0  0  0  0  0  0
  1  2  1  0
  2  3  1  0
  2  4  1  0
  4  5  1  0
  5  6  2  0
  6  7  1  0
  7  8  2  0
  8  9  1  0
  9 10  1  0
 10 11  2  0
 10 12  1  0
 12 13  1  0
 13 14  1  0
 14 15  2  0
 15 16  1  0
 16 17  1  0
 17 18  2  0
 18 19  1  0
 19 20  2  0
 20 21  1  0
 21 22  2  0
  8 23  1  0
 23 24  2  0
 24  5  1  0
 22 14  1  0
 22 17  1  0
  1 25  1  0
  1 26  1  0
  1 27  1  0
  2 28  1  0
  3 29  1  0
  3 30  1  0
  3 31  1  0
  4 32  1  0
  4 33  1  0
  6 34  1  0
  7 35  1  0
 12 36  1  0
 12 37  1  0
 13 38  1  0
 13 39  1  0
 15 40  1  0
 18 41  1  0
 19 42  1  0
 20 43  1  0
 21 44  1  0
 23 45  1  0
 24 46  1  0
M  CHG  2   2   1   9  -1
M  END
>  <UniqueID>  (26) 
25

>  <SMILES>  (26) 
C[NH+](C)Cc1ccc([N-]C(=O)CCc2csc3ccccc23)cc1

>  <Energy>  (26) 
75.63124179988007

>  <Genealogy>  (26) 
C[NH+](C)Cc1ccc([N-]C(=O)CCc2csc3ccccc23)cc1 (protonated)
C[NH+](C)Cc1ccc([N-]C(=O)CCc2csc3ccccc23)cc1 (3D coordinates assigned)
C[NH+](C)Cc1ccc([N-]C(=O)CCc2csc3ccccc23)cc1 (optimized conformer: 75.63124179988007 kcal/mol)

>  <smiles>  (26) 
CN(C)Cc1ccc(NC(=O)CCc2csc3ccccc23)cc1

>  <score_type>  (26) 
oracle

>  <origin>  (26) 
adg

>  <m_score__min__energy>  (26) 
-9.4299999999999997

>  <m_primary>  (26) 
energy

$$$$
26:0
     RDKit          3D

 52 55  0  0  0  0  0  0  0  0999 V2000
   55.5740   28.9380   45.1010 O   0  0  0  0  0  0  0  0  0  0  0  0
   57.0600   29.1350   45.2190 S   0  0  0  0  0  0  0  0  0  0  0  0
   57.3250   30.0950   46.3460 O   0  0  0  0  0  0  0  0  0  0  0  0
   57.8090   27.5620   45.6130 C   0  0  0  0  0  0  0  0  0  0  0  0
   57.2180   26.3660   45.1630 C   0  0  0  0  0  0  0  0  0  0  0  0
   57.8090   25.1300   45.4270 C   0  0  0  0  0  0  0  0  0  0  0  0
   58.9950   25.0620   46.1530 C   0  0  0  0  0  0  0  0  0  0  0  0
   59.5860   26.2290   46.6320 C   0  0  0  0  0  0  0  0  0  0  0  0
   58.9980   27.4810   46.3860 C   0  0  0  0  0  0  0  0  0  0  0  0
   59.6420   28.6730   46.9760 C   0  0  0  0  0  0  0  0  0  0  0  0
   59.4260   29.0020   48.3230 C   0  0  0  0  0  0  0  0  0  0  0  0
   60.0390   30.1280   48.8790 C   0  0  0  0  0  0  0  0  0  0  0  0
   60.8940   30.9250   48.1020 C   0  0  0  0  0  0  0  0  0  0  0  0
   61.5190   32.1610   48.6870 C   0  0  0  0  0  0  0  0  0  0  0  0
   60.4840   33.1790   48.9070 N   0  0  0  0  0  0  0  0  0  0  0  0
   60.3230   34.0560   47.7380 C   0  0  0  0  0  0  0  0  0  0  0  0
   59.0750   33.7370   46.9650 C   0  0  0  0  0  0  0  0  0  0  0  0
   58.4230   34.5720   46.0800 C   0  0  0  0  0  0  0  0  0  0  0  0
   57.3170   33.8420   45.6860 C   0  0  0  0  0  0  0  0  0  0  0  0
   57.3370   32.6830   46.3050 O   0  0  0  0  0  0  0  0  0  0  0  0
   58.3760   32.5940   47.0790 N   0  0  0  0  0  0  0  0  0  0  0  0
   61.1090   30.5940   46.7550 C   0  0  0  0  0  0  0  0  0  0  0  0
   60.4970   29.4680   46.1990 C   0  0  0  0  0  0  0  0  0  0  0  0
   57.6430   29.9100   43.7600 N   0  0  0  0  0  0  0  0  0  0  0  0
   58.5120   31.0630   44.0140 C   0  0  0  0  0  0  0  0  0  0  0  0
   58.0810   32.1850   43.0760 C   0  0  0  0  0  0  0  0  0  0  0  0
   57.0690   31.5620   42.1350 C   0  0  0  0  0  0  0  0  0  0  0  0
   56.5670   30.3320   42.8640 C   0  0  0  0  0  0  0  0  0  0  0  0
   56.2768   26.4066   44.5951 H   0  0  0  0  0  0  0  0  0  0  0  0
   57.3366   24.2067   45.0605 H   0  0  0  0  0  0  0  0  0  0  0  0
   59.4653   24.0870   46.3483 H   0  0  0  0  0  0  0  0  0  0  0  0
   60.5213   26.1697   47.2079 H   0  0  0  0  0  0  0  0  0  0  0  0
   58.7720   28.3715   48.9432 H   0  0  0  0  0  0  0  0  0  0  0  0
   59.8506   30.3909   49.9304 H   0  0  0  0  0  0  0  0  0  0  0  0
   61.9965   31.9111   49.6459 H   0  0  0  0  0  0  0  0  0  0  0  0
   62.2749   32.5529   47.9906 H   0  0  0  0  0  0  0  0  0  0  0  0
   60.7500   33.7600   49.7370 H   0  0  0  0  0  0  0  0  0  0  0  0
   60.2715   35.0998   48.0811 H   0  0  0  0  0  0  0  0  0  0  0  0
   61.1850   33.8987   47.0730 H   0  0  0  0  0  0  0  0  0  0  0  0
   58.7156   35.5836   45.7620 H   0  0  0  0  0  0  0  0  0  0  0  0
   56.5485   34.1757   44.9733 H   0  0  0  0  0  0  0  0  0  0  0  0
   58.6070   31.7730   47.6820 H   0  0  0  0  0  0  0  0  0  0  0  0
   61.7626   31.2243   46.1341 H   0  0  0  0  0  0  0  0  0  0  0  0
   60.6864   29.2040   45.1481 H   0  0  0  0  0  0  0  0  0  0  0  0
   58.4069   31.3880   45.0596 H   0  0  0  0  0  0  0  0  0  0  0  0
   59.5649   30.7975   43.8382 H   0  0  0  0  0  0  0  0  0  0  0  0
   57.6214   33.0064   43.6453 H   0  0  0  0  0  0  0  0  0  0  0  0
   58.9360   32.6112   42.5307 H   0  0  0  0  0  0  0  0  0  0  0  0
   56.2420   32.2601   41.9383 H   0  0  0  0  0  0  0  0  0  0  0  0
   57.5089   31.3143   41.1577 H   0  0  0  0  0  0  0  0  0  0  0  0
   55.6643   30.5760   43.4433 H   0  0  0  0  0  0  0  0  0  0  0  0
   56.3024   29.5319   42.1570 H   0  0  0  0  0  0  0  0  0  0  0  0
  1  2  2  0
  2  3  2  0
  2  4  1  0
  4  5  2  0
  5  6  1  0
  6  7  2  0
  7  8  1  0
  8  9  2  0
  9 10  1  0
 10 11  2  0
 11 12  1  0
 12 13  2  0
 13 14  1  0
 14 15  1  0
 15 16  1  0
 16 17  1  0
 17 18  1  0
 18 19  2  0
 19 20  1  0
 20 21  1  0
 13 22  1  0
 22 23  2  0
  2 24  1  0
 24 25  1  0
 25 26  1  0
 26 27  1  0
 27 28  1  0
  9  4  1  0
 23 10  1  0
 28 24  1  0
 21 17  2  0
  5 29  1  0
  6 30  1  0
  7 31  1  0
  8 32  1  0
 11 33  1  0
 12 34  1  0
 14 35  1  0
 14 36  1  0
 15 37  1  0
 16 38  1  0
 16 39  1  0
 18 40  1  0
 19 41  1  0
 21 42  1  0
 22 43  1  0
 23 44  1  0
 25 45  1  0
 25 46  1  0
 26 47  1  0
 26 48  1  0
 27 49  1  0
 27 50  1  0
 28 51  1  0
 28 52  1  0
M  CHG  1  21   1
M  END
>  <UniqueID>  (27) 
26

>  <SMILES>  (27) 
O=S(=O)(c1ccccc1-c1ccc(CNCc2cco[nH+]2)cc1)N1CCCC1

>  <Energy>  (27) 
97.03634279047064

>  <Genealogy>  (27) 
O=S(=O)(c1ccccc1-c1ccc(CNCc2cco[nH+]2)cc1)N1CCCC1 (protonated)
O=S(=O)(c1ccccc1-c1ccc(CNCc2cco[nH+]2)cc1)N1CCCC1 (3D coordinates assigned)
O=S(=O)(c1ccccc1-c1ccc(CNCc2cco[nH+]2)cc1)N1CCCC1 (nonaromatic ring conformer: 97.03634279047064 kcal/mol)

>  <smiles>  (27) 
O=S(=O)(c1ccccc1-c1ccc(CNCc2ccon2)cc1)N1CCCC1

>  <score_type>  (27) 
oracle

>  <origin>  (27) 
adg

>  <m_score__min__energy>  (27) 
-8.0700000000000003

>  <m_primary>  (27) 
energy

$$$$
27:0
     RDKit          3D

 31 32  0  0  0  0  0  0  0  0999 V2000
   58.0560   28.2080   46.4670 C   0  0  0  0  0  0  0  0  0  0  0  0
   57.0650   27.4090   45.6270 C   0  0  0  0  0  0  0  0  0  0  0  0
   55.9210   28.2360   45.2600 N   0  0  0  0  0  0  0  0  0  0  0  0
   56.0200   29.4110   44.4510 C   0  0  0  0  0  0  0  0  0  0  0  0
   55.1550   30.3240   44.5410 O   0  0  0  0  0  0  0  0  0  0  0  0
   57.1800   29.5810   43.5250 C   0  0  0  0  0  0  0  0  0  0  0  0
   57.1510   31.2550   42.7990 S   0  0  0  0  0  0  0  0  0  0  0  0
   57.8690   32.0560   44.2320 C   0  0  0  0  0  0  0  0  0  0  0  0
   58.2020   31.4080   45.3690 N   0  0  0  0  0  0  0  0  0  0  0  0
   58.7030   32.2160   46.3030 N   0  0  0  0  0  0  0  0  0  0  0  0
   59.1300   31.7050   47.5740 C   0  0  0  0  0  0  0  0  0  0  0  0
   60.1630   30.7570   47.6350 C   0  0  0  0  0  0  0  0  0  0  0  0
   60.5700   30.2320   48.8650 C   0  0  0  0  0  0  0  0  0  0  0  0
   59.9410   30.6460   50.0440 C   0  0  0  0  0  0  0  0  0  0  0  0
   58.9040   31.5810   49.9910 C   0  0  0  0  0  0  0  0  0  0  0  0
   58.4960   32.1080   48.7610 C   0  0  0  0  0  0  0  0  0  0  0  0
   58.7710   33.5160   45.9080 C   0  0  0  0  0  0  0  0  0  0  0  0
   59.4420   34.7350   46.7750 S   0  0  0  0  0  0  0  0  0  0  0  0
   58.1980   33.7040   44.3370 S   0  0  0  0  0  0  0  0  0  0  0  0
   57.8496   28.0416   47.5346 H   0  0  0  0  0  0  0  0  0  0  0  0
   59.0803   27.8802   46.2361 H   0  0  0  0  0  0  0  0  0  0  0  0
   57.9529   29.2785   46.2361 H   0  0  0  0  0  0  0  0  0  0  0  0
   57.5660   27.0584   44.7127 H   0  0  0  0  0  0  0  0  0  0  0  0
   56.7088   26.5520   46.2175 H   0  0  0  0  0  0  0  0  0  0  0  0
   58.1170   29.4415   44.0840 H   0  0  0  0  0  0  0  0  0  0  0  0
   57.1144   28.8346   42.7197 H   0  0  0  0  0  0  0  0  0  0  0  0
   60.6555   30.4250   46.7091 H   0  0  0  0  0  0  0  0  0  0  0  0
   61.3844   29.4937   48.9058 H   0  0  0  0  0  0  0  0  0  0  0  0
   60.2627   30.2356   51.0125 H   0  0  0  0  0  0  0  0  0  0  0  0
   58.4075   31.9033   50.9182 H   0  0  0  0  0  0  0  0  0  0  0  0
   57.6761   32.8403   48.7232 H   0  0  0  0  0  0  0  0  0  0  0  0
  1  2  1  0
  2  3  1  0
  3  4  1  0
  4  5  2  0
  4  6  1  0
  6  7  1  0
  7  8  1  0
  8  9  2  0
  9 10  1  0
 10 11  1  0
 11 12  2  0
 12 13  1  0
 13 14  2  0
 14 15  1  0
 15 16  2  0
 10 17  1  0
 17 18  2  0
 17 19  1  0
 19  8  1  0
 16 11  1  0
  1 20  1  0
  1 21  1  0
  1 22  1  0
  2 23  1  0
  2 24  1  0
  6 25  1  0
  6 26  1  0
 12 27  1  0
 13 28  1  0
 14 29  1  0
 15 30  1  0
 16 31  1  0
M  CHG  1   3  -1
M  END
>  <UniqueID>  (28) 
27

>  <SMILES>  (28) 
CC[N-]C(=O)CSc1nn(-c2ccccc2)c(=S)s1

>  <Energy>  (28) 
61.11647321033622

>  <Genealogy>  (28) 
CC[N-]C(=O)CSc1nn(-c2ccccc2)c(=S)s1 (protonated)
CC[N-]C(=O)CSc1nn(-c2ccccc2)c(=S)s1 (3D coordinates assigned)
CC[N-]C(=O)CSc1nn(-c2ccccc2)c(=S)s1 (optimized conformer: 61.11647321033622 kcal/mol)

>  <smiles>  (28) 
CCNC(=O)CSc1nn(-c2ccccc2)c(=S)s1

>  <score_type>  (28) 
oracle

>  <origin>  (28) 
adg

>  <m_score__min__energy>  (28) 
-9.0399999999999991

>  <m_primary>  (28) 
energy

$$$$
28:0
     RDKit          3D

 62 67  0  0  0  0  0  0  0  0999 V2000
   60.3050   34.3780   46.5330 C   0  0  0  0  0  0  0  0  0  0  0  0
   61.5930   33.8410   47.0730 C   0  0  0  0  0  0  0  0  0  0  0  0
   62.7860   34.0430   46.4760 N   0  0  0  0  0  0  0  0  0  0  0  0
   63.6700   33.4090   47.2780 C   0  0  0  0  0  0  0  0  0  0  0  0
   63.0060   32.8380   48.3430 C   0  0  0  0  0  0  0  0  0  0  0  0
   61.7010   33.1250   48.2130 N   0  0  0  0  0  0  0  0  0  0  0  0
   60.6470   32.7160   49.0940 C   0  0  0  0  0  0  0  0  0  0  0  0
   60.5700   33.2930   50.3690 C   0  0  0  0  0  0  0  0  0  0  0  0
   59.5920   32.8780   51.2880 C   0  0  0  0  0  0  0  0  0  0  0  0
   59.4930   33.4890   52.6350 C   0  0  0  0  0  0  0  0  0  0  0  0
   59.0130   34.7590   52.7490 N   0  0  0  0  0  0  0  0  0  0  0  0
   58.8930   35.3850   53.9480 C   0  0  0  0  0  0  0  0  0  0  0  0
   59.2630   34.7240   55.1200 C   0  0  0  0  0  0  0  0  0  0  0  0
   59.7430   33.4170   55.0430 C   0  0  0  0  0  0  0  0  0  0  0  0
   59.8580   32.7880   53.8020 C   0  0  0  0  0  0  0  0  0  0  0  0
   60.2720   31.4970   53.7530 F   0  0  0  0  0  0  0  0  0  0  0  0
   58.6780   31.8860   50.9040 C   0  0  0  0  0  0  0  0  0  0  0  0
   58.7400   31.3170   49.6310 C   0  0  0  0  0  0  0  0  0  0  0  0
   59.7020   31.7430   48.6960 C   0  0  0  0  0  0  0  0  0  0  0  0
   59.7490   31.1880   47.3650 N   0  0  0  0  0  0  0  0  0  0  0  0
   58.6590   31.2380   46.4280 C   0  0  0  0  0  0  0  0  0  0  0  0
   57.8830   32.2330   46.4310 O   0  0  0  0  0  0  0  0  0  0  0  0
   58.4650   30.1800   45.4670 N   0  0  0  0  0  0  0  0  0  0  0  0
   59.5530   29.2260   45.1900 C   0  0  0  0  0  0  0  0  0  0  0  0
   59.1410   28.1560   44.1730 C   0  0  0  0  0  0  0  0  0  0  0  0
   57.7440   27.5600   44.4560 C   0  0  0  0  0  0  0  0  0  0  0  0
   57.8250   26.4450   45.4240 N   0  0  0  0  0  0  0  0  0  0  0  0
   57.9730   26.5760   46.7710 C   0  0  0  0  0  0  0  0  0  0  0  0
   58.1240   27.6880   47.3450 O   0  0  0  0  0  0  0  0  0  0  0  0
   57.9300   25.4100   47.4620 N   0  0  0  0  0  0  0  0  0  0  0  0
   57.7340   24.5110   46.4840 C   0  0  0  0  0  0  0  0  0  0  0  0
   57.6030   23.1720   46.6520 N   0  0  0  0  0  0  0  0  0  0  0  0
   57.3970   22.3830   45.5540 C   0  0  0  0  0  0  0  0  0  0  0  0
   57.3230   22.9540   44.2640 C   0  0  0  0  0  0  0  0  0  0  0  0
   57.4610   24.3440   44.1070 C   0  0  0  0  0  0  0  0  0  0  0  0
   57.6630   25.1110   45.2600 C   0  0  0  0  0  0  0  0  0  0  0  0
   56.6680   28.6120   44.8400 C   0  0  0  0  0  0  0  0  0  0  0  0
   57.1850   30.0520   44.7520 C   0  0  0  0  0  0  0  0  0  0  0  0
   59.6439   34.6536   47.3679 H   0  0  0  0  0  0  0  0  0  0  0  0
   60.5077   35.2666   45.9171 H   0  0  0  0  0  0  0  0  0  0  0  0
   59.8165   33.6086   45.9171 H   0  0  0  0  0  0  0  0  0  0  0  0
   64.7553   33.3565   47.1069 H   0  0  0  0  0  0  0  0  0  0  0  0
   63.4636   32.2523   49.1539 H   0  0  0  0  0  0  0  0  0  0  0  0
   61.2838   34.0801   50.6534 H   0  0  0  0  0  0  0  0  0  0  0  0
   58.5042   36.4129   53.9954 H   0  0  0  0  0  0  0  0  0  0  0  0
   59.1770   35.2284   56.0938 H   0  0  0  0  0  0  0  0  0  0  0  0
   60.0309   32.8818   55.9598 H   0  0  0  0  0  0  0  0  0  0  0  0
   57.9052   31.5533   51.6126 H   0  0  0  0  0  0  0  0  0  0  0  0
   58.0279   30.5254   49.3549 H   0  0  0  0  0  0  0  0  0  0  0  0
   60.6410   30.7640   47.0320 H   0  0  0  0  0  0  0  0  0  0  0  0
   60.4163   29.7793   44.7917 H   0  0  0  0  0  0  0  0  0  0  0  0
   59.8034   28.7170   46.1324 H   0  0  0  0  0  0  0  0  0  0  0  0
   59.1320   28.6098   43.1710 H   0  0  0  0  0  0  0  0  0  0  0  0
   59.8697   27.3352   44.2457 H   0  0  0  0  0  0  0  0  0  0  0  0
   57.3897   27.1485   43.4994 H   0  0  0  0  0  0  0  0  0  0  0  0
   57.2881   21.2953   45.6763 H   0  0  0  0  0  0  0  0  0  0  0  0
   57.1580   22.3131   43.3854 H   0  0  0  0  0  0  0  0  0  0  0  0
   57.4119   24.8124   43.1129 H   0  0  0  0  0  0  0  0  0  0  0  0
   55.8120   28.5039   44.1577 H   0  0  0  0  0  0  0  0  0  0  0  0
   56.3830   28.4265   45.8861 H   0  0  0  0  0  0  0  0  0  0  0  0
   57.3311   30.3211   43.6955 H   0  0  0  0  0  0  0  0  0  0  0  0
   56.4482   30.7255   45.2142 H   0  0  0  0  0  0  0  0  0  0  0  0
  1  2  1  0
  2  3  2  0
  3  4  1  0
  4  5  2  0
  5  6  1  0
  6  7  1  0
  7  8  2  0
  8  9  1  0
  9 10  1  0
 10 11  2  0
 11 12  1  0
 12 13  2  0
 13 14  1  0
 14 15  2  0
 15 16  1  0
  9 17  2  0
 17 18  1  0
 18 19  2  0
 19 20  1  0
 20 21  1  0
 21 22  2  0
 21 23  1  0
 23 24  1  0
 24 25  1  0
 25 26  1  0
 26 27  1  0
 27 28  1  0
 28 29  2  0
 28 30  1  0
 30 31  1  0
 31 32  2  0
 32 33  1  0
 33 34  2  0
 34 35  1  0
 35 36  2  0
 26 37  1  0
 37 38  1  0
  6  2  1  0
 19  7  1  0
 38 23  1  0
 15 10  1  0
 36 27  1  0
 36 31  1  0
  1 39  1  0
  1 40  1  0
  1 41  1  0
  4 42  1  0
  5 43  1  0
  8 44  1  0
 12 45  1  0
 13 46  1  0
 14 47  1  0
 17 48  1  0
 18 49  1  0
 20 50  1  0
 24 51  1  0
 24 52  1  0
 25 53  1  0
 25 54  1  0
 26 55  1  0
 33 56  1  0
 34 57  1  0
 35 58  1  0
 37 59  1  0
 37 60  1  0
 38 61  1  0
 38 62  1  0
M  CHG  1  30  -1
M  END
>  <UniqueID>  (29) 
28

>  <SMILES>  (29) 
Cc1nccn1-c1cc(-c2ncccc2F)ccc1NC(=O)N1CCC(n2c(=O)[n-]c3ncccc32)CC1

>  <Energy>  (29) 
161.00382590370313

>  <Genealogy>  (29) 
Cc1nccn1-c1cc(-c2ncccc2F)ccc1NC(=O)N1CCC(n2c(=O)[n-]c3ncccc32)CC1 (protonated)
Cc1nccn1-c1cc(-c2ncccc2F)ccc1NC(=O)N1CCC(n2c(=O)[n-]c3ncccc32)CC1 (3D coordinates assigned)
Cc1nccn1-c1cc(-c2ncccc2F)ccc1NC(=O)N1CCC(n2c(=O)[n-]c3ncccc32)CC1 (nonaromatic ring conformer: 161.00382590370313 kcal/mol)

>  <smiles>  (29) 
Cc1nccn1-c1cc(-c2ncccc2F)ccc1NC(=O)N1CCC(n2c(=O)[nH]c3ncccc32)CC1

>  <score_type>  (29) 
oracle

>  <origin>  (29) 
adg

>  <m_score__min__energy>  (29) 
-10.199999999999999

>  <m_primary>  (29) 
energy

$$$$
29:0
     RDKit          3D

 40 41  0  0  0  0  0  0  0  0999 V2000
   56.6150   29.7170   42.9420 C   0  0  0  0  0  0  0  0  0  0  0  0
   55.9840   30.4120   44.1460 C   0  0  0  0  0  0  0  0  0  0  0  0
   57.0340   31.0210   44.9940 N   0  0  0  0  0  0  0  0  0  0  0  0
   57.0450   32.4960   44.8640 C   0  0  0  0  0  0  0  0  0  0  0  0
   57.4050   33.1400   46.2000 C   0  0  0  0  0  0  0  0  0  0  0  0
   58.3640   30.4520   44.6800 C   0  0  0  0  0  0  0  0  0  0  0  0
   58.7410   29.4070   45.7020 C   0  0  0  0  0  0  0  0  0  0  0  0
   58.5360   28.0450   45.4240 C   0  0  0  0  0  0  0  0  0  0  0  0
   58.8870   27.0700   46.3620 C   0  0  0  0  0  0  0  0  0  0  0  0
   58.6320   25.3730   46.0030 Cl  0  0  0  0  0  0  0  0  0  0  0  0
   59.4500   27.4480   47.5840 C   0  0  0  0  0  0  0  0  0  0  0  0
   59.6560   28.7990   47.8720 C   0  0  0  0  0  0  0  0  0  0  0  0
   59.2910   29.7890   46.9420 C   0  0  0  0  0  0  0  0  0  0  0  0
   59.5120   31.1500   47.2030 O   0  0  0  0  0  0  0  0  0  0  0  0
   60.7520   31.8010   47.1530 C   0  0  0  0  0  0  0  0  0  0  0  0
   60.7940   33.1360   46.7310 C   0  0  0  0  0  0  0  0  0  0  0  0
   62.0080   33.8260   46.6840 C   0  0  0  0  0  0  0  0  0  0  0  0
   63.1910   33.1880   47.0710 C   0  0  0  0  0  0  0  0  0  0  0  0
   63.1570   31.8620   47.5120 C   0  0  0  0  0  0  0  0  0  0  0  0
   61.9430   31.1700   47.5600 C   0  0  0  0  0  0  0  0  0  0  0  0
   57.3163   28.9445   43.2905 H   0  0  0  0  0  0  0  0  0  0  0  0
   55.8267   29.2491   42.3340 H   0  0  0  0  0  0  0  0  0  0  0  0
   57.1566   30.4566   42.3340 H   0  0  0  0  0  0  0  0  0  0  0  0
   55.2999   31.1983   43.7942 H   0  0  0  0  0  0  0  0  0  0  0  0
   55.4300   29.6695   44.7390 H   0  0  0  0  0  0  0  0  0  0  0  0
   57.7881   32.7886   44.1076 H   0  0  0  0  0  0  0  0  0  0  0  0
   56.0446   32.8370   44.5591 H   0  0  0  0  0  0  0  0  0  0  0  0
   57.0485   32.5023   47.0223 H   0  0  0  0  0  0  0  0  0  0  0  0
   58.4969   33.2527   46.2703 H   0  0  0  0  0  0  0  0  0  0  0  0
   56.9290   34.1292   46.2703 H   0  0  0  0  0  0  0  0  0  0  0  0
   58.3346   29.9898   43.6822 H   0  0  0  0  0  0  0  0  0  0  0  0
   59.1120   31.2583   44.6998 H   0  0  0  0  0  0  0  0  0  0  0  0
   58.0963   27.7440   44.4617 H   0  0  0  0  0  0  0  0  0  0  0  0
   59.7313   26.6804   48.3200 H   0  0  0  0  0  0  0  0  0  0  0  0
   60.1065   29.0906   48.8322 H   0  0  0  0  0  0  0  0  0  0  0  0
   59.8648   33.6446   46.4346 H   0  0  0  0  0  0  0  0  0  0  0  0
   62.0334   34.8713   46.3425 H   0  0  0  0  0  0  0  0  0  0  0  0
   64.1476   33.7294   47.0283 H   0  0  0  0  0  0  0  0  0  0  0  0
   64.0867   31.3622   47.8217 H   0  0  0  0  0  0  0  0  0  0  0  0
   61.9184   30.1297   47.9167 H   0  0  0  0  0  0  0  0  0  0  0  0
  1  2  1  0
  2  3  1  0
  3  4  1  0
  4  5  1  0
  3  6  1  0
  6  7  1  0
  7  8  2  0
  8  9  1  0
  9 10  1  0
  9 11  2  0
 11 12  1  0
 12 13  2  0
 13 14  1  0
 14 15  1  0
 15 16  2  0
 16 17  1  0
 17 18  2  0
 18 19  1  0
 19 20  2  0
 13  7  1  0
 20 15  1  0
  1 21  1  0
  1 22  1  0
  1 23  1  0
  2 24  1  0
  2 25  1  0
  4 26  1  0
  4 27  1  0
  5 28  1  0
  5 29  1  0
  5 30  1  0
  6 31  1  0
  6 32  1  0
  8 33  1  0
 11 34  1  0
 12 35  1  0
 16 36  1  0
 17 37  1  0
 18 38  1  0
 19 39  1  0
 20 40  1  0
M  END
>  <UniqueID>  (30) 
29

>  <SMILES>  (30) 
CCN(CC)Cc1cc(Cl)ccc1Oc1ccccc1

>  <Energy>  (30) 
43.389099750465384

>  <Genealogy>  (30) 
CCN(CC)Cc1cc(Cl)ccc1Oc1ccccc1 (3D coordinates assigned)
CCN(CC)Cc1cc(Cl)ccc1Oc1ccccc1 (optimized conformer: 43.389099750465384 kcal/mol)

>  <smiles>  (30) 
CCN(CC)Cc1cc(Cl)ccc1Oc1ccccc1

>  <score_type>  (30) 
oracle

>  <origin>  (30) 
adg

>  <m_score__min__energy>  (30) 
-6.7400000000000002

>  <m_primary>  (30) 
energy

$$$$
30:0
     RDKit          3D

 37 38  0  0  0  0  0  0  0  0999 V2000
   55.8120   25.9660   45.9920 C   0  0  0  0  0  0  0  0  0  0  0  0
   56.1290   27.3250   45.7090 O   0  0  0  0  0  0  0  0  0  0  0  0
   57.4160   27.8800   45.7940 C   0  0  0  0  0  0  0  0  0  0  0  0
   58.2470   27.6490   46.9100 C   0  0  0  0  0  0  0  0  0  0  0  0
   59.5220   28.2170   46.9730 C   0  0  0  0  0  0  0  0  0  0  0  0
   59.9840   29.0180   45.9290 C   0  0  0  0  0  0  0  0  0  0  0  0
   59.1730   29.2550   44.8180 C   0  0  0  0  0  0  0  0  0  0  0  0
   57.8890   28.6890   44.7380 C   0  0  0  0  0  0  0  0  0  0  0  0
   57.0300   28.9850   43.5280 C   0  0  0  0  0  0  0  0  0  0  0  0
   56.0330   30.1310   43.7870 C   0  0  0  0  0  0  0  0  0  0  0  0
   56.4970   31.1020   44.7920 N   0  0  0  0  0  0  0  0  0  0  0  0
   57.3950   32.1140   44.2210 C   0  0  0  0  0  0  0  0  0  0  0  0
   58.0600   32.8770   45.3320 C   0  0  0  0  0  0  0  0  0  0  0  0
   58.6570   34.1230   45.0760 C   0  0  0  0  0  0  0  0  0  0  0  0
   59.3090   34.8150   46.1020 C   0  0  0  0  0  0  0  0  0  0  0  0
   59.3780   34.2650   47.3840 C   0  0  0  0  0  0  0  0  0  0  0  0
   60.0110   34.9370   48.3780 F   0  0  0  0  0  0  0  0  0  0  0  0
   58.8000   33.0190   47.6420 C   0  0  0  0  0  0  0  0  0  0  0  0
   58.1480   32.3230   46.6190 C   0  0  0  0  0  0  0  0  0  0  0  0
   55.7772   25.8168   47.0813 H   0  0  0  0  0  0  0  0  0  0  0  0
   54.8323   25.7197   45.5567 H   0  0  0  0  0  0  0  0  0  0  0  0
   56.5816   25.3116   45.5567 H   0  0  0  0  0  0  0  0  0  0  0  0
   57.8889   27.0174   47.7363 H   0  0  0  0  0  0  0  0  0  0  0  0
   60.1627   28.0320   47.8478 H   0  0  0  0  0  0  0  0  0  0  0  0
   60.9884   29.4634   45.9812 H   0  0  0  0  0  0  0  0  0  0  0  0
   59.5416   29.8897   43.9987 H   0  0  0  0  0  0  0  0  0  0  0  0
   57.6841   29.2674   42.6899 H   0  0  0  0  0  0  0  0  0  0  0  0
   56.4501   28.0794   43.2964 H   0  0  0  0  0  0  0  0  0  0  0  0
   55.8637   30.6649   42.8403 H   0  0  0  0  0  0  0  0  0  0  0  0
   55.1131   29.6745   44.1811 H   0  0  0  0  0  0  0  0  0  0  0  0
   55.6790   31.5760   45.2410 H   0  0  0  0  0  0  0  0  0  0  0  0
   58.1612   31.6193   43.6060 H   0  0  0  0  0  0  0  0  0  0  0  0
   56.8148   32.8081   43.5953 H   0  0  0  0  0  0  0  0  0  0  0  0
   58.6115   34.5556   44.0656 H   0  0  0  0  0  0  0  0  0  0  0  0
   59.7681   35.7938   45.8989 H   0  0  0  0  0  0  0  0  0  0  0  0
   58.8580   32.5851   48.6511 H   0  0  0  0  0  0  0  0  0  0  0  0
   57.7026   31.3382   46.8235 H   0  0  0  0  0  0  0  0  0  0  0  0
  1  2  1  0
  2  3  1  0
  3  4  2  0
  4  5  1  0
  5  6  2  0
  6  7  1  0
  7  8  2  0
  8  9  1  0
  9 10  1  0
 10 11  1  0
 11 12  1  0
 12 13  1  0
 13 14  2  0
 14 15  1  0
 15 16  2  0
 16 17  1  0
 16 18  1  0
 18 19  2  0
  8  3  1  0
 19 13  1  0
  1 20  1  0
  1 21  1  0
  1 22  1  0
  4 23  1  0
  5 24  1  0
  6 25  1  0
  7 26  1  0
  9 27  1  0
  9 28  1  0
 10 29  1  0
 10 30  1  0
 11 31  1  0
 12 32  1  0
 12 33  1  0
 14 34  1  0
 15 35  1  0
 18 36  1  0
 19 37  1  0
M  END
>  <UniqueID>  (31) 
30

>  <SMILES>  (31) 
COc1ccccc1CCNCc1ccc(F)cc1

>  <Energy>  (31) 
34.361275042014725

>  <Genealogy>  (31) 
COc1ccccc1CCNCc1ccc(F)cc1 (3D coordinates assigned)
COc1ccccc1CCNCc1ccc(F)cc1 (optimized conformer: 34.361275042014725 kcal/mol)

>  <smiles>  (31) 
COc1ccccc1CCNCc1ccc(F)cc1

>  <score_type>  (31) 
oracle

>  <origin>  (31) 
adg

>  <m_score__min__energy>  (31) 
-6.9800000000000004

>  <m_primary>  (31) 
energy

$$$$
31:0
     RDKit          3D

 48 51  0  0  0  0  0  0  0  0999 V2000
   57.5100   31.7090   42.5170 C   0  0  0  0  0  0  0  0  0  0  0  0
   56.7440   30.3920   42.5560 C   0  0  0  0  0  0  0  0  0  0  0  0
   55.9220   30.1640   44.1720 S   0  0  0  0  0  0  0  0  0  0  0  0
   57.3830   30.5610   45.1500 C   0  0  0  0  0  0  0  0  0  0  0  0
   57.5540   31.8500   45.5470 N   0  0  0  0  0  0  0  0  0  0  0  0
   58.6500   32.1890   46.2560 C   0  0  0  0  0  0  0  0  0  0  0  0
   59.0100   33.7110   46.8460 S   0  0  0  0  0  0  0  0  0  0  0  0
   60.4530   33.2370   47.5820 C   0  0  0  0  0  0  0  0  0  0  0  0
   60.6830   31.8720   47.3350 C   0  0  0  0  0  0  0  0  0  0  0  0
   59.6250   31.2760   46.6030 C   0  0  0  0  0  0  0  0  0  0  0  0
   59.4300   29.9370   46.2210 C   0  0  0  0  0  0  0  0  0  0  0  0
   60.2550   29.0450   46.5560 O   0  0  0  0  0  0  0  0  0  0  0  0
   58.3100   29.6000   45.4940 N   0  0  0  0  0  0  0  0  0  0  0  0
   58.1110   28.2290   45.1000 C   0  0  0  0  0  0  0  0  0  0  0  0
   57.6770   27.2800   46.0360 C   0  0  0  0  0  0  0  0  0  0  0  0
   57.4830   25.9500   45.6530 C   0  0  0  0  0  0  0  0  0  0  0  0
   57.7280   25.5510   44.3240 C   0  0  0  0  0  0  0  0  0  0  0  0
   57.5480   24.2290   43.8900 O   0  0  0  0  0  0  0  0  0  0  0  0
   56.3450   23.7290   43.3170 C   0  0  0  0  0  0  0  0  0  0  0  0
   58.1680   26.5020   43.3960 C   0  0  0  0  0  0  0  0  0  0  0  0
   58.3610   27.8320   43.7790 C   0  0  0  0  0  0  0  0  0  0  0  0
   61.9150   31.1810   47.8620 C   0  0  0  0  0  0  0  0  0  0  0  0
   63.1810   31.6510   47.1280 C   0  0  0  0  0  0  0  0  0  0  0  0
   63.3270   33.1860   47.0230 C   0  0  0  0  0  0  0  0  0  0  0  0
   62.8570   33.9190   48.2930 C   0  0  0  0  0  0  0  0  0  0  0  0
   61.3320   34.1870   48.3610 C   0  0  0  0  0  0  0  0  0  0  0  0
   57.7076   32.0488   43.5444 H   0  0  0  0  0  0  0  0  0  0  0  0
   58.4640   31.5628   41.9892 H   0  0  0  0  0  0  0  0  0  0  0  0
   56.9112   32.4659   41.9892 H   0  0  0  0  0  0  0  0  0  0  0  0
   55.9829   30.3943   41.7618 H   0  0  0  0  0  0  0  0  0  0  0  0
   57.4553   29.5669   42.4038 H   0  0  0  0  0  0  0  0  0  0  0  0
   57.4883   27.5834   47.0764 H   0  0  0  0  0  0  0  0  0  0  0  0
   57.1377   25.2119   46.3919 H   0  0  0  0  0  0  0  0  0  0  0  0
   55.6495   23.4399   44.1187 H   0  0  0  0  0  0  0  0  0  0  0  0
   55.8831   24.5097   42.6947 H   0  0  0  0  0  0  0  0  0  0  0  0
   56.5726   22.8509   42.6947 H   0  0  0  0  0  0  0  0  0  0  0  0
   58.3635   26.1999   42.3565 H   0  0  0  0  0  0  0  0  0  0  0  0
   58.7102   28.5697   43.0416 H   0  0  0  0  0  0  0  0  0  0  0  0
   62.0194   31.4045   48.9340 H   0  0  0  0  0  0  0  0  0  0  0  0
   61.8016   30.0994   47.6972 H   0  0  0  0  0  0  0  0  0  0  0  0
   64.0562   31.2584   47.6664 H   0  0  0  0  0  0  0  0  0  0  0  0
   63.1048   31.2723   46.0980 H   0  0  0  0  0  0  0  0  0  0  0  0
   64.3862   33.4271   46.8498 H   0  0  0  0  0  0  0  0  0  0  0  0
   62.6902   33.5229   46.1917 H   0  0  0  0  0  0  0  0  0  0  0  0
   63.1364   33.3081   49.1641 H   0  0  0  0  0  0  0  0  0  0  0  0
   63.3448   34.9049   48.2804 H   0  0  0  0  0  0  0  0  0  0  0  0
   61.0288   34.1353   49.4171 H   0  0  0  0  0  0  0  0  0  0  0  0
   61.1851   35.1729   47.8957 H   0  0  0  0  0  0  0  0  0  0  0  0
  1  2  1  0
  2  3  1  0
  3  4  1  0
  4  5  2  0
  5  6  1  0
  6  7  1  0
  7  8  1  0
  8  9  2  0
  9 10  1  0
 10 11  1  0
 11 12  2  0
 11 13  1  0
 13 14  1  0
 14 15  2  0
 15 16  1  0
 16 17  2  0
 17 18  1  0
 18 19  1  0
 17 20  1  0
 20 21  2  0
  9 22  1  0
 22 23  1  0
 23 24  1  0
 24 25  1  0
 25 26  1  0
 13  4  1  0
 21 14  1  0
 10  6  2  0
 26  8  1  0
  1 27  1  0
  1 28  1  0
  1 29  1  0
  2 30  1  0
  2 31  1  0
 15 32  1  0
 16 33  1  0
 19 34  1  0
 19 35  1  0
 19 36  1  0
 20 37  1  0
 21 38  1  0
 22 39  1  0
 22 40  1  0
 23 41  1  0
 23 42  1  0
 24 43  1  0
 24 44  1  0
 25 45  1  0
 25 46  1  0
 26 47  1  0
 26 48  1  0
M  END
>  <UniqueID>  (32) 
31

>  <SMILES>  (32) 
CCSc1nc2sc3c(c2c(=O)n1-c1ccc(OC)cc1)CCCCC3

>  <Energy>  (32) 
95.03157942449245

>  <Genealogy>  (32) 
CCSc1nc2sc3c(c2c(=O)n1-c1ccc(OC)cc1)CCCCC3 (3D coordinates assigned)
CCSc1nc2sc3c(c2c(=O)n1-c1ccc(OC)cc1)CCCCC3 (nonaromatic ring conformer: 95.03157942449245 kcal/mol)

>  <smiles>  (32) 
CCSc1nc2sc3c(c2c(=O)n1-c1ccc(OC)cc1)CCCCC3

>  <score_type>  (32) 
oracle

>  <origin>  (32) 
adg

>  <m_score__min__energy>  (32) 
-6.6799999999999997

>  <m_primary>  (32) 
energy

$$$$
32:0
     RDKit          3D

 45 46  0  0  0  0  0  0  0  0999 V2000
   57.5310   28.8060   44.1040 C   0  0  0  0  0  0  0  0  0  0  0  0
   56.2650   29.6440   43.9600 C   0  0  0  0  0  0  0  0  0  0  0  0
   56.3510   30.8370   44.7380 O   0  0  0  0  0  0  0  0  0  0  0  0
   57.2800   31.8600   44.4990 C   0  0  0  0  0  0  0  0  0  0  0  0
   57.7570   32.0270   43.3440 O   0  0  0  0  0  0  0  0  0  0  0  0
   57.6630   32.7760   45.6110 C   0  0  0  0  0  0  0  0  0  0  0  0
   57.7880   32.3400   46.8840 C   0  0  0  0  0  0  0  0  0  0  0  0
   58.9320   31.5620   47.3970 C   0  0  0  0  0  0  0  0  0  0  0  0
   59.7600   30.8600   46.5120 C   0  0  0  0  0  0  0  0  0  0  0  0
   60.8380   30.1150   46.9940 C   0  0  0  0  0  0  0  0  0  0  0  0
   61.0880   30.0580   48.3680 C   0  0  0  0  0  0  0  0  0  0  0  0
   60.2590   30.7410   49.2620 C   0  0  0  0  0  0  0  0  0  0  0  0
   59.1690   31.4950   48.7850 C   0  0  0  0  0  0  0  0  0  0  0  0
   58.3080   32.1900   49.6510 O   0  0  0  0  0  0  0  0  0  0  0  0
   58.5130   32.3450   51.0500 C   0  0  0  0  0  0  0  0  0  0  0  0
   57.9140   34.2110   45.2950 C   0  0  0  0  0  0  0  0  0  0  0  0
   56.9880   34.8910   44.7710 O   0  0  0  0  0  0  0  0  0  0  0  0
   59.1990   34.8970   45.5600 C   0  0  0  0  0  0  0  0  0  0  0  0
   60.3750   34.2550   45.6260 C   0  0  0  0  0  0  0  0  0  0  0  0
   61.1670   34.0670   46.8700 C   0  0  0  0  0  0  0  0  0  0  0  0
   62.4610   33.5180   46.7580 C   0  0  0  0  0  0  0  0  0  0  0  0
   63.2460   33.3010   47.8950 C   0  0  0  0  0  0  0  0  0  0  0  0
   62.7560   33.6340   49.1600 C   0  0  0  0  0  0  0  0  0  0  0  0
   63.7400   33.3600   50.5850 Cl  0  0  0  0  0  0  0  0  0  0  0  0
   61.4680   34.1660   49.2890 C   0  0  0  0  0  0  0  0  0  0  0  0
   60.6740   34.3760   48.1560 C   0  0  0  0  0  0  0  0  0  0  0  0
   57.7537   28.6586   45.1711 H   0  0  0  0  0  0  0  0  0  0  0  0
   57.3805   27.8286   43.6224 H   0  0  0  0  0  0  0  0  0  0  0  0
   58.3720   29.3264   43.6224 H   0  0  0  0  0  0  0  0  0  0  0  0
   56.1301   29.9133   42.9020 H   0  0  0  0  0  0  0  0  0  0  0  0
   55.4100   29.0522   44.3187 H   0  0  0  0  0  0  0  0  0  0  0  0
   56.9787   32.5825   47.5884 H   0  0  0  0  0  0  0  0  0  0  0  0
   59.5599   30.8958   45.4310 H   0  0  0  0  0  0  0  0  0  0  0  0
   61.4900   29.5733   46.2930 H   0  0  0  0  0  0  0  0  0  0  0  0
   61.9397   29.4739   48.7467 H   0  0  0  0  0  0  0  0  0  0  0  0
   60.4585   30.6896   50.3425 H   0  0  0  0  0  0  0  0  0  0  0  0
   57.7522   31.7698   51.5980 H   0  0  0  0  0  0  0  0  0  0  0  0
   59.5143   31.9761   51.3169 H   0  0  0  0  0  0  0  0  0  0  0  0
   58.4310   33.4090   51.3169 H   0  0  0  0  0  0  0  0  0  0  0  0
   59.1889   35.9867   45.7101 H   0  0  0  0  0  0  0  0  0  0  0  0
   60.7823   33.8379   44.6932 H   0  0  0  0  0  0  0  0  0  0  0  0
   62.8574   33.2576   45.7655 H   0  0  0  0  0  0  0  0  0  0  0  0
   64.2516   32.8671   47.7928 H   0  0  0  0  0  0  0  0  0  0  0  0
   61.0780   34.4202   50.2856 H   0  0  0  0  0  0  0  0  0  0  0  0
   59.6589   34.7846   48.2683 H   0  0  0  0  0  0  0  0  0  0  0  0
  1  2  1  0
  2  3  1  0
  3  4  1  0
  4  5  2  0
  4  6  1  0
  6  7  2  3
  7  8  1  0
  8  9  2  0
  9 10  1  0
 10 11  2  0
 11 12  1  0
 12 13  2  0
 13 14  1  0
 14 15  1  0
  6 16  1  0
 16 17  2  0
 16 18  1  0
 18 19  2  3
 19 20  1  0
 20 21  2  0
 21 22  1  0
 22 23  2  0
 23 24  1  0
 23 25  1  0
 25 26  2  0
 13  8  1  0
 26 20  1  0
  1 27  1  0
  1 28  1  0
  1 29  1  0
  2 30  1  0
  2 31  1  0
  7 32  1  0
  9 33  1  0
 10 34  1  0
 11 35  1  0
 12 36  1  0
 15 37  1  0
 15 38  1  0
 15 39  1  0
 18 40  1  0
 19 41  1  0
 21 42  1  0
 22 43  1  0
 25 44  1  0
 26 45  1  0
M  END
>  <UniqueID>  (33) 
32

>  <SMILES>  (33) 
CCOC(=O)C(=Cc1ccccc1OC)C(=O)C=Cc1ccc(Cl)cc1

>  <Energy>  (33) 
58.177037389150776

>  <Genealogy>  (33) 
CCOC(=O)C(=Cc1ccccc1OC)C(=O)C=Cc1ccc(Cl)cc1 (3D coordinates assigned)
CCOC(=O)C(=Cc1ccccc1OC)C(=O)C=Cc1ccc(Cl)cc1 (optimized conformer: 58.177037389150776 kcal/mol)

>  <smiles>  (33) 
CCOC(=O)C(=Cc1ccccc1OC)C(=O)C=Cc1ccc(Cl)cc1

>  <score_type>  (33) 
oracle

>  <origin>  (33) 
adg

>  <m_score__min__energy>  (33) 
-7.8899999999999997

>  <m_primary>  (33) 
energy

$$$$
33:0
     RDKit          3D

 50 53  0  0  0  0  0  0  0  0999 V2000
   55.3900   29.3440   44.8620 O   0  0  0  0  0  0  0  0  0  0  0  0
   56.6200   29.1060   44.9930 C   0  0  0  0  0  0  0  0  0  0  0  0
   57.1960   27.8760   45.5250 C   0  0  0  0  0  0  0  0  0  0  0  0
   56.5870   26.7270   46.0250 C   0  0  0  0  0  0  0  0  0  0  0  0
   57.4160   25.6760   46.4580 C   0  0  0  0  0  0  0  0  0  0  0  0
   58.8210   25.7920   46.3770 C   0  0  0  0  0  0  0  0  0  0  0  0
   59.4110   26.9600   45.8630 C   0  0  0  0  0  0  0  0  0  0  0  0
   58.5690   27.9900   45.4460 C   0  0  0  0  0  0  0  0  0  0  0  0
   58.8710   29.2930   44.8640 C   0  0  0  0  0  0  0  0  0  0  0  0
   60.0230   29.7260   44.5940 O   0  0  0  0  0  0  0  0  0  0  0  0
   57.6600   30.0080   44.6060 N   0  0  0  0  0  0  0  0  0  0  0  0
   57.5150   31.1730   43.7370 C   0  0  0  0  0  0  0  0  0  0  0  0
   57.2260   32.4280   44.5790 C   0  0  0  0  0  0  0  0  0  0  0  0
   58.4610   33.0160   45.3030 C   0  0  0  0  0  0  0  0  0  0  0  0
   58.6770   32.3970   46.7080 C   0  0  0  0  0  0  0  0  0  0  0  0
   59.2720   33.4010   47.7130 C   0  0  0  0  0  0  0  0  0  0  0  0
   60.2890   34.2800   47.0960 N   0  0  0  0  0  0  0  0  0  0  0  0
   61.5290   33.5470   46.7620 C   0  0  0  0  0  0  0  0  0  0  0  0
   62.4610   33.5320   47.9440 C   0  0  0  0  0  0  0  0  0  0  0  0
   62.1490   34.2480   49.1120 C   0  0  0  0  0  0  0  0  0  0  0  0
   63.0150   34.2170   50.2100 C   0  0  0  0  0  0  0  0  0  0  0  0
   64.1950   33.4710   50.1490 C   0  0  0  0  0  0  0  0  0  0  0  0
   64.5120   32.7550   48.9910 C   0  0  0  0  0  0  0  0  0  0  0  0
   63.6480   32.7830   47.8920 C   0  0  0  0  0  0  0  0  0  0  0  0
   59.7660   35.0860   45.9590 C   0  0  0  0  0  0  0  0  0  0  0  0
   58.4480   34.5530   45.3600 C   0  0  0  0  0  0  0  0  0  0  0  0
   55.4915   26.6441   46.0796 H   0  0  0  0  0  0  0  0  0  0  0  0
   56.9664   24.7572   46.8626 H   0  0  0  0  0  0  0  0  0  0  0  0
   59.4582   24.9629   46.7184 H   0  0  0  0  0  0  0  0  0  0  0  0
   60.5043   27.0583   45.7920 H   0  0  0  0  0  0  0  0  0  0  0  0
   58.4456   31.3218   43.1697 H   0  0  0  0  0  0  0  0  0  0  0  0
   56.6775   31.0035   43.0443 H   0  0  0  0  0  0  0  0  0  0  0  0
   56.8182   33.2021   43.9123 H   0  0  0  0  0  0  0  0  0  0  0  0
   56.5206   32.1206   45.3651 H   0  0  0  0  0  0  0  0  0  0  0  0
   59.3261   32.7306   44.6865 H   0  0  0  0  0  0  0  0  0  0  0  0
   57.7072   32.0473   47.0917 H   0  0  0  0  0  0  0  0  0  0  0  0
   59.3934   31.5692   46.6006 H   0  0  0  0  0  0  0  0  0  0  0  0
   58.4592   34.0262   48.1111 H   0  0  0  0  0  0  0  0  0  0  0  0
   59.7650   32.8255   48.5104 H   0  0  0  0  0  0  0  0  0  0  0  0
   61.2761   32.5126   46.4861 H   0  0  0  0  0  0  0  0  0  0  0  0
   62.0267   34.0504   45.9200 H   0  0  0  0  0  0  0  0  0  0  0  0
   61.2202   34.8351   49.1631 H   0  0  0  0  0  0  0  0  0  0  0  0
   62.7670   34.7801   51.1218 H   0  0  0  0  0  0  0  0  0  0  0  0
   64.8752   33.4471   51.0132 H   0  0  0  0  0  0  0  0  0  0  0  0
   65.4418   32.1691   48.9443 H   0  0  0  0  0  0  0  0  0  0  0  0
   63.8989   32.2163   46.9832 H   0  0  0  0  0  0  0  0  0  0  0  0
   59.5932   36.1125   46.3144 H   0  0  0  0  0  0  0  0  0  0  0  0
   60.5206   35.0331   45.1603 H   0  0  0  0  0  0  0  0  0  0  0  0
   57.6065   34.8843   45.9861 H   0  0  0  0  0  0  0  0  0  0  0  0
   58.3395   34.9446   44.3378 H   0  0  0  0  0  0  0  0  0  0  0  0
  1  2  2  0
  2  3  1  0
  3  4  2  0
  4  5  1  0
  5  6  2  0
  6  7  1  0
  7  8  2  0
  8  9  1  0
  9 10  2  0
  9 11  1  0
 11 12  1  0
 12 13  1  0
 13 14  1  0
 14 15  1  0
 15 16  1  0
 16 17  1  0
 17 18  1  0
 18 19  1  0
 19 20  2  0
 20 21  1  0
 21 22  2  0
 22 23  1  0
 23 24  2  0
 17 25  1  0
 25 26  1  0
 11  2  1  0
 26 14  1  0
  8  3  1  0
 24 19  1  0
  4 27  1  0
  5 28  1  0
  6 29  1  0
  7 30  1  0
 12 31  1  0
 12 32  1  0
 13 33  1  0
 13 34  1  0
 14 35  1  0
 15 36  1  0
 15 37  1  0
 16 38  1  0
 16 39  1  0
 18 40  1  0
 18 41  1  0
 20 42  1  0
 21 43  1  0
 22 44  1  0
 23 45  1  0
 24 46  1  0
 25 47  1  0
 25 48  1  0
 26 49  1  0
 26 50  1  0
M  END
>  <UniqueID>  (34) 
33

>  <SMILES>  (34) 
O=C1c2ccccc2C(=O)N1CCC1CCN(Cc2ccccc2)CC1

>  <Energy>  (34) 
91.75062451985697

>  <Genealogy>  (34) 
O=C1c2ccccc2C(=O)N1CCC1CCN(Cc2ccccc2)CC1 (3D coordinates assigned)
O=C1c2ccccc2C(=O)N1CCC1CCN(Cc2ccccc2)CC1 (nonaromatic ring conformer: 91.75062451985697 kcal/mol)

>  <smiles>  (34) 
O=C1c2ccccc2C(=O)N1CCC1CCN(Cc2ccccc2)CC1

>  <score_type>  (34) 
oracle

>  <origin>  (34) 
adg

>  <m_score__min__energy>  (34) 
-9.4299999999999997

>  <m_primary>  (34) 
energy

$$$$
34:0
     RDKit          3D

 58 60  0  0  0  0  0  0  0  0999 V2000
   64.5188   32.8409   47.5496 H   0  0  0  0  0  0  0  0  0  0  0  0
   63.4330   32.6660   47.5290 C   0  0  0  0  0  0  0  0  0  0  0  0
   62.8820   31.6130   48.2660 C   0  0  0  0  0  0  0  0  0  0  0  0
   63.5345   30.9676   48.8725 H   0  0  0  0  0  0  0  0  0  0  0  0
   61.4970   31.3770   48.2340 C   0  0  0  0  0  0  0  0  0  0  0  0
   60.8910   30.2650   49.0430 C   0  0  0  0  0  0  0  0  0  0  0  0
   60.6498   30.6348   50.0505 H   0  0  0  0  0  0  0  0  0  0  0  0
   61.6085   29.4346   49.1174 H   0  0  0  0  0  0  0  0  0  0  0  0
   59.6690   29.7940   48.3920 N   0  0  0  0  0  0  0  0  0  0  0  0
   58.7890   30.3310   48.5550 H   0  0  0  0  0  0  0  0  0  0  0  0
   59.6440   28.6760   47.4920 C   0  0  0  0  0  0  0  0  0  0  0  0
   60.6610   27.9400   47.3660 O   0  0  0  0  0  0  0  0  0  0  0  0
   58.4420   28.4070   46.6730 C   0  0  0  0  0  0  0  0  0  0  0  0
   57.7570   27.1990   46.8800 C   0  0  0  0  0  0  0  0  0  0  0  0
   58.1600   26.4537   47.5815 H   0  0  0  0  0  0  0  0  0  0  0  0
   56.5650   26.9400   46.1980 C   0  0  0  0  0  0  0  0  0  0  0  0
   55.9310   25.8280   46.4200 N   0  0  0  0  0  0  0  0  0  0  0  0
   54.8050   25.3520   45.6170 C   0  0  0  0  0  0  0  0  0  0  0  0
   54.7195   25.9688   44.7102 H   0  0  0  0  0  0  0  0  0  0  0  0
   53.8832   25.4279   46.2124 H   0  0  0  0  0  0  0  0  0  0  0  0
   55.0200   23.8890   45.2150 C   0  0  0  0  0  0  0  0  0  0  0  0
   54.0636   23.3555   45.3186 H   0  0  0  0  0  0  0  0  0  0  0  0
   55.7987   23.4829   45.8774 H   0  0  0  0  0  0  0  0  0  0  0  0
   55.5250   23.7140   43.7560 C   0  0  0  0  0  0  0  0  0  0  0  0
   55.3076   24.6390   43.2018 H   0  0  0  0  0  0  0  0  0  0  0  0
   55.0030   22.8386   43.3423 H   0  0  0  0  0  0  0  0  0  0  0  0
   56.9760   23.4370   43.6480 N   0  0  0  0  0  0  0  0  0  0  0  0
   57.3380   22.0660   44.0810 C   0  0  0  0  0  0  0  0  0  0  0  0
   56.8191   21.8295   45.0217 H   0  0  0  0  0  0  0  0  0  0  0  0
   58.4252   22.0057   44.2369 H   0  0  0  0  0  0  0  0  0  0  0  0
   56.9230   21.0690   43.0080 C   0  0  0  0  0  0  0  0  0  0  0  0
   56.5421   20.1540   43.4853 H   0  0  0  0  0  0  0  0  0  0  0  0
   56.1343   21.5114   42.3817 H   0  0  0  0  0  0  0  0  0  0  0  0
   57.7927   20.8211   42.3817 H   0  0  0  0  0  0  0  0  0  0  0  0
   57.8110   24.4950   44.2550 C   0  0  0  0  0  0  0  0  0  0  0  0
   57.4413   24.7089   45.2687 H   0  0  0  0  0  0  0  0  0  0  0  0
   58.8525   24.1433   44.2932 H   0  0  0  0  0  0  0  0  0  0  0  0
   57.7570   25.7730   43.4230 C   0  0  0  0  0  0  0  0  0  0  0  0
   57.7202   26.6451   44.0924 H   0  0  0  0  0  0  0  0  0  0  0  0
   58.6533   25.8355   42.7884 H   0  0  0  0  0  0  0  0  0  0  0  0
   56.8586   25.7597   42.7884 H   0  0  0  0  0  0  0  0  0  0  0  0
   56.0740   27.8590   45.3230 N   0  0  0  0  0  0  0  0  0  0  0  0
   56.7140   29.0300   45.0710 C   0  0  0  0  0  0  0  0  0  0  0  0
   56.1710   29.9260   44.1430 C   0  0  0  0  0  0  0  0  0  0  0  0
   55.2188   29.6892   43.6457 H   0  0  0  0  0  0  0  0  0  0  0  0
   56.8320   31.1180   43.8460 C   0  0  0  0  0  0  0  0  0  0  0  0
   56.3984   31.8206   43.1191 H   0  0  0  0  0  0  0  0  0  0  0  0
   58.0440   31.4200   44.4710 C   0  0  0  0  0  0  0  0  0  0  0  0
   58.5680   32.3559   44.2270 H   0  0  0  0  0  0  0  0  0  0  0  0
   58.5940   30.5370   45.4060 C   0  0  0  0  0  0  0  0  0  0  0  0
   59.5521   30.7798   45.8888 H   0  0  0  0  0  0  0  0  0  0  0  0
   57.9290   29.3380   45.7340 C   0  0  0  0  0  0  0  0  0  0  0  0
   60.6710   32.2230   47.4730 C   0  0  0  0  0  0  0  0  0  0  0  0
   59.5840   32.0553   47.4533 H   0  0  0  0  0  0  0  0  0  0  0  0
   61.2270   33.2770   46.7410 C   0  0  0  0  0  0  0  0  0  0  0  0
   60.5770   33.9341   46.1445 H   0  0  0  0  0  0  0  0  0  0  0  0
   62.6070   33.4970   46.7660 C   0  0  0  0  0  0  0  0  0  0  0  0
   63.1440   34.5160   46.0530 F   0  0  0  0  0  0  0  0  0  0  0  0
  1  2  1  0
  2  3  2  0
  3  4  1  0
  3  5  1  0
  5  6  1  0
  6  7  1  0
  6  8  1  0
  6  9  1  0
  9 10  1  0
  9 11  1  0
 11 12  2  0
 11 13  1  0
 13 14  2  0
 14 15  1  0
 14 16  1  0
 16 17  2  0
 17 18  1  0
 18 19  1  0
 18 20  1  0
 18 21  1  0
 21 22  1  0
 21 23  1  0
 21 24  1  0
 24 25  1  0
 24 26  1  0
 24 27  1  0
 27 28  1  0
 28 29  1  0
 28 30  1  0
 28 31  1  0
 31 32  1  0
 31 33  1  0
 31 34  1  0
 27 35  1  0
 35 36  1  0
 35 37  1  0
 35 38  1  0
 38 39  1  0
 38 40  1  0
 38 41  1  0
 16 42  1  0
 42 43  1  0
 43 44  2  0
 44 45  1  0
 44 46  1  0
 46 47  1  0
 46 48  2  0
 48 49  1  0
 48 50  1  0
 50 51  1  0
 50 52  2  0
  5 53  2  0
 53 54  1  0
 53 55  1  0
 55 56  1  0
 55 57  2  0
 57 58  1  0
 57  2  1  0
 52 13  1  0
 52 43  1  0
M  CHG  1  42  -1
M  END
>  <UniqueID>  (35) 
34

>  <SMILES>  (35) 
CCN(CC)CCC/N=c1/cc(C(=O)NCc2ccc(F)cc2)c2ccccc2[n-]1

>  <Energy>  (35) 
67.87403035665388

>  <Genealogy>  (35) 
CCN(CC)CCCN=c1cc(C(=O)NCc2ccc(F)cc2)c2ccccc2[n-]1 (protonated)
CCN(CC)CCC/N=c1/cc(C(=O)NCc2ccc(F)cc2)c2ccccc2[n-]1 (cis-trans isomerization)
CCN(CC)CCC/N=c1/cc(C(=O)NCc2ccc(F)cc2)c2ccccc2[n-]1 (3D coordinates assigned)
CCN(CC)CCC/N=c1/cc(C(=O)NCc2ccc(F)cc2)c2ccccc2[n-]1 (optimized conformer: 67.87403035665388 kcal/mol)

>  <smiles>  (35) 
CCN(CC)CCCN=c1cc(C(=O)NCc2ccc(F)cc2)c2ccccc2[nH]1

>  <score_type>  (35) 
oracle

>  <origin>  (35) 
adg

>  <m_score__min__energy>  (35) 
-10.09

>  <m_primary>  (35) 
energy

$$$$
35:0
     RDKit          3D

 37 39  0  0  0  0  0  0  0  0999 V2000
   59.6580   35.3260   46.2270 C   0  0  0  0  0  0  0  0  0  0  0  0
   58.9850   34.8370   44.9490 C   0  0  0  0  0  0  0  0  0  0  0  0
   57.7050   34.0570   45.2620 C   0  0  0  0  0  0  0  0  0  0  0  0
   58.0300   32.6360   45.6040 C   0  0  0  0  0  0  0  0  0  0  0  0
   57.1650   31.6300   45.2440 N   0  0  0  0  0  0  0  0  0  0  0  0
   57.4190   30.3270   45.5640 C   0  0  0  0  0  0  0  0  0  0  0  0
   56.6260   29.4150   45.2150 O   0  0  0  0  0  0  0  0  0  0  0  0
   58.5730   30.0490   46.2800 C   0  0  0  0  0  0  0  0  0  0  0  0
   59.1600   28.8910   46.7460 C   0  0  0  0  0  0  0  0  0  0  0  0
   60.3140   29.2410   47.3660 N   0  0  0  0  0  0  0  0  0  0  0  0
   60.4660   30.5630   47.3120 N   0  0  0  0  0  0  0  0  0  0  0  0
   61.5830   31.2840   47.8660 C   0  0  0  0  0  0  0  0  0  0  0  0
   62.2550   32.2610   47.1120 C   0  0  0  0  0  0  0  0  0  0  0  0
   63.3350   32.9600   47.6580 C   0  0  0  0  0  0  0  0  0  0  0  0
   63.7610   32.6950   48.9730 C   0  0  0  0  0  0  0  0  0  0  0  0
   64.8390   33.3680   49.5650 O   0  0  0  0  0  0  0  0  0  0  0  0
   65.9770   32.7240   50.1300 C   0  0  0  0  0  0  0  0  0  0  0  0
   63.0870   31.7270   49.7250 C   0  0  0  0  0  0  0  0  0  0  0  0
   62.0050   31.0290   49.1800 C   0  0  0  0  0  0  0  0  0  0  0  0
   59.4050   31.0590   46.6490 C   0  0  0  0  0  0  0  0  0  0  0  0
   59.1630   32.3510   46.3170 N   0  0  0  0  0  0  0  0  0  0  0  0
   59.1167   34.9327   47.1001 H   0  0  0  0  0  0  0  0  0  0  0  0
   60.6993   34.9724   46.2514 H   0  0  0  0  0  0  0  0  0  0  0  0
   59.6435   36.4256   46.2514 H   0  0  0  0  0  0  0  0  0  0  0  0
   58.7324   35.7046   44.3217 H   0  0  0  0  0  0  0  0  0  0  0  0
   59.6812   34.1678   44.4223 H   0  0  0  0  0  0  0  0  0  0  0  0
   57.1935   34.5271   46.1148 H   0  0  0  0  0  0  0  0  0  0  0  0
   57.0533   34.0706   44.3760 H   0  0  0  0  0  0  0  0  0  0  0  0
   58.7644   27.8706   46.6350 H   0  0  0  0  0  0  0  0  0  0  0  0
   60.9730   28.5790   47.8320 H   0  0  0  0  0  0  0  0  0  0  0  0
   61.9285   32.4773   46.0841 H   0  0  0  0  0  0  0  0  0  0  0  0
   63.8546   33.7209   47.0572 H   0  0  0  0  0  0  0  0  0  0  0  0
   65.9119   32.7608   51.2275 H   0  0  0  0  0  0  0  0  0  0  0  0
   66.0066   31.6753   49.7994 H   0  0  0  0  0  0  0  0  0  0  0  0
   66.8913   33.2386   49.7994 H   0  0  0  0  0  0  0  0  0  0  0  0
   63.4111   31.5131   50.7542 H   0  0  0  0  0  0  0  0  0  0  0  0
   61.4809   30.2748   49.7853 H   0  0  0  0  0  0  0  0  0  0  0  0
  1  2  1  0
  2  3  1  0
  3  4  1  0
  4  5  2  0
  5  6  1  0
  6  7  2  0
  6  8  1  0
  8  9  1  0
  9 10  2  0
 10 11  1  0
 11 12  1  0
 12 13  2  0
 13 14  1  0
 14 15  2  0
 15 16  1  0
 16 17  1  0
 15 18  1  0
 18 19  2  0
 11 20  1  0
 20 21  1  0
 21  4  1  0
 20  8  2  0
 19 12  1  0
  1 22  1  0
  1 23  1  0
  1 24  1  0
  2 25  1  0
  2 26  1  0
  3 27  1  0
  3 28  1  0
  9 29  1  0
 10 30  1  0
 13 31  1  0
 14 32  1  0
 17 33  1  0
 17 34  1  0
 17 35  1  0
 18 36  1  0
 19 37  1  0
M  CHG  2  10   1  21  -1
M  END
>  <UniqueID>  (36) 
35

>  <SMILES>  (36) 
CCCc1nc(=O)c2c[nH+]n(-c3ccc(OC)cc3)c2[n-]1

>  <Energy>  (36) 
79.66004784188024

>  <Genealogy>  (36) 
CCCc1nc(=O)c2c[nH+]n(-c3ccc(OC)cc3)c2[n-]1 (protonated)
CCCc1nc(=O)c2c[nH+]n(-c3ccc(OC)cc3)c2[n-]1 (3D coordinates assigned)
CCCc1nc(=O)c2c[nH+]n(-c3ccc(OC)cc3)c2[n-]1 (optimized conformer: 79.66004784188024 kcal/mol)

>  <smiles>  (36) 
CCCc1nc(=O)c2cnn(-c3ccc(OC)cc3)c2[nH]1

>  <score_type>  (36) 
oracle

>  <origin>  (36) 
adg

>  <m_score__min__energy>  (36) 
-6.21

>  <m_primary>  (36) 
energy

$$$$
36:0
     RDKit          3D

 65 67  0  0  0  0  0  0  0  0999 V2000
   65.0290   31.9610   50.3730 C   0  0  0  0  0  0  0  0  0  0  0  0
   64.9040   33.0720   49.3350 C   0  0  0  0  0  0  0  0  0  0  0  0
   63.6090   32.9520   48.6330 N   0  0  0  0  0  0  0  0  0  0  0  0
   63.7710   32.7130   47.1820 C   0  0  0  0  0  0  0  0  0  0  0  0
   63.3240   33.9180   46.3570 C   0  0  0  0  0  0  0  0  0  0  0  0
   62.6130   32.0950   49.3270 C   0  0  0  0  0  0  0  0  0  0  0  0
   61.1240   32.4540   49.1010 C   0  0  0  0  0  0  0  0  0  0  0  0
   60.6410   32.3510   47.6500 C   0  0  0  0  0  0  0  0  0  0  0  0
   59.1860   32.4860   47.5690 N   0  0  0  0  0  0  0  0  0  0  0  0
   58.4330   31.8100   46.5510 C   0  0  0  0  0  0  0  0  0  0  0  0
   57.6720   32.5550   45.6190 C   0  0  0  0  0  0  0  0  0  0  0  0
   57.5580   33.9870   45.7060 N   0  0  0  0  0  0  0  0  0  0  0  0
   58.1190   34.6180   46.6240 O   0  0  0  0  0  0  0  0  0  0  0  0
   56.6920   34.6610   44.8750 O   0  0  0  0  0  0  0  0  0  0  0  0
   57.0400   31.8870   44.5610 C   0  0  0  0  0  0  0  0  0  0  0  0
   57.1380   30.5040   44.4250 C   0  0  0  0  0  0  0  0  0  0  0  0
   56.3550   29.7320   43.0520 Cl  0  0  0  0  0  0  0  0  0  0  0  0
   57.8630   29.7510   45.3600 C   0  0  0  0  0  0  0  0  0  0  0  0
   57.9650   28.3270   45.1860 N   0  0  0  0  0  0  0  0  0  0  0  0
   58.7930   27.7710   44.1160 C   0  0  0  0  0  0  0  0  0  0  0  0
   58.0700   26.6010   43.4500 C   0  0  0  0  0  0  0  0  0  0  0  0
   57.5400   25.6820   44.4690 N   0  0  0  0  0  0  0  0  0  0  0  0
   57.5580   24.2540   44.2660 C   0  0  0  0  0  0  0  0  0  0  0  0
   58.4470   23.4250   44.9750 C   0  0  0  0  0  0  0  0  0  0  0  0
   58.4310   22.0470   44.7490 C   0  0  0  0  0  0  0  0  0  0  0  0
   57.5420   21.5040   43.8230 C   0  0  0  0  0  0  0  0  0  0  0  0
   56.6790   22.3540   43.1270 C   0  0  0  0  0  0  0  0  0  0  0  0
   56.7070   23.6920   43.3610 N   0  0  0  0  0  0  0  0  0  0  0  0
   56.7210   26.2460   45.5510 C   0  0  0  0  0  0  0  0  0  0  0  0
   57.4430   27.4210   46.2120 C   0  0  0  0  0  0  0  0  0  0  0  0
   58.4980   30.3990   46.4460 C   0  0  0  0  0  0  0  0  0  0  0  0
   59.2720   29.5930   47.4610 C   0  0  0  0  0  0  0  0  0  0  0  0
   64.9801   32.3952   51.3825 H   0  0  0  0  0  0  0  0  0  0  0  0
   64.2060   31.2430   50.2425 H   0  0  0  0  0  0  0  0  0  0  0  0
   65.9910   31.4438   50.2425 H   0  0  0  0  0  0  0  0  0  0  0  0
   64.9592   34.0494   49.8366 H   0  0  0  0  0  0  0  0  0  0  0  0
   65.7236   32.9849   48.6065 H   0  0  0  0  0  0  0  0  0  0  0  0
   64.8312   32.5098   46.9705 H   0  0  0  0  0  0  0  0  0  0  0  0
   63.1417   31.8548   46.9038 H   0  0  0  0  0  0  0  0  0  0  0  0
   63.0218   34.7326   47.0317 H   0  0  0  0  0  0  0  0  0  0  0  0
   64.1562   34.2570   45.7225 H   0  0  0  0  0  0  0  0  0  0  0  0
   62.4720   33.6323   45.7225 H   0  0  0  0  0  0  0  0  0  0  0  0
   62.7642   31.0607   48.9845 H   0  0  0  0  0  0  0  0  0  0  0  0
   62.7920   32.2481   50.4015 H   0  0  0  0  0  0  0  0  0  0  0  0
   60.5132   31.7732   49.7121 H   0  0  0  0  0  0  0  0  0  0  0  0
   61.0187   33.5119   49.3835 H   0  0  0  0  0  0  0  0  0  0  0  0
   61.1097   33.1506   47.0576 H   0  0  0  0  0  0  0  0  0  0  0  0
   60.9230   31.3631   47.2568 H   0  0  0  0  0  0  0  0  0  0  0  0
   58.6950   33.1550   48.2020 H   0  0  0  0  0  0  0  0  0  0  0  0
   56.4579   32.4636   43.8270 H   0  0  0  0  0  0  0  0  0  0  0  0
   58.9913   28.5510   43.3662 H   0  0  0  0  0  0  0  0  0  0  0  0
   59.7419   27.4135   44.5424 H   0  0  0  0  0  0  0  0  0  0  0  0
   57.2387   26.9869   42.8418 H   0  0  0  0  0  0  0  0  0  0  0  0
   58.7820   26.0564   42.8125 H   0  0  0  0  0  0  0  0  0  0  0  0
   59.1493   23.8592   45.7018 H   0  0  0  0  0  0  0  0  0  0  0  0
   59.1195   21.3906   45.3014 H   0  0  0  0  0  0  0  0  0  0  0  0
   57.5202   20.4192   43.6424 H   0  0  0  0  0  0  0  0  0  0  0  0
   55.9763   21.9397   42.3890 H   0  0  0  0  0  0  0  0  0  0  0  0
   55.7643   26.5960   45.1361 H   0  0  0  0  0  0  0  0  0  0  0  0
   56.5439   25.4665   46.3067 H   0  0  0  0  0  0  0  0  0  0  0  0
   56.7376   27.9669   46.8558 H   0  0  0  0  0  0  0  0  0  0  0  0
   58.2788   27.0386   46.8163 H   0  0  0  0  0  0  0  0  0  0  0  0
   58.9770   29.9002   48.4752 H   0  0  0  0  0  0  0  0  0  0  0  0
   59.0537   28.5237   47.3237 H   0  0  0  0  0  0  0  0  0  0  0  0
   60.3493   29.7679   47.3237 H   0  0  0  0  0  0  0  0  0  0  0  0
  1  2  1  0
  2  3  1  0
  3  4  1  0
  4  5  1  0
  3  6  1  0
  6  7  1  0
  7  8  1  0
  8  9  1  0
  9 10  1  0
 10 11  2  0
 11 12  1  0
 12 13  2  0
 12 14  1  0
 11 15  1  0
 15 16  2  0
 16 17  1  0
 16 18  1  0
 18 19  1  0
 19 20  1  0
 20 21  1  0
 21 22  1  0
 22 23  1  0
 23 24  2  0
 24 25  1  0
 25 26  2  0
 26 27  1  0
 27 28  2  0
 22 29  1  0
 29 30  1  0
 18 31  2  0
 31 32  1  0
 31 10  1  0
 30 19  1  0
 28 23  1  0
  1 33  1  0
  1 34  1  0
  1 35  1  0
  2 36  1  0
  2 37  1  0
  4 38  1  0
  4 39  1  0
  5 40  1  0
  5 41  1  0
  5 42  1  0
  6 43  1  0
  6 44  1  0
  7 45  1  0
  7 46  1  0
  8 47  1  0
  8 48  1  0
  9 49  1  0
 15 50  1  0
 20 51  1  0
 20 52  1  0
 21 53  1  0
 21 54  1  0
 24 55  1  0
 25 56  1  0
 26 57  1  0
 27 58  1  0
 29 59  1  0
 29 60  1  0
 30 61  1  0
 30 62  1  0
 32 63  1  0
 32 64  1  0
 32 65  1  0
M  CHG  2  12   1  14  -1
M  END
>  <UniqueID>  (37) 
36

>  <SMILES>  (37) 
CCN(CC)CCCNc1c([N+](=O)[O-])cc(Cl)c(N2CCN(c3ccccn3)CC2)c1C

>  <Energy>  (37) 
86.3365993142836

>  <Genealogy>  (37) 
CCN(CC)CCCNc1c([N+](=O)[O-])cc(Cl)c(N2CCN(c3ccccn3)CC2)c1C (3D coordinates assigned)
CCN(CC)CCCNc1c([N+](=O)[O-])cc(Cl)c(N2CCN(c3ccccn3)CC2)c1C (nonaromatic ring conformer: 86.3365993142836 kcal/mol)

>  <smiles>  (37) 
CCN(CC)CCCNc1c([N+](=O)[O-])cc(Cl)c(N2CCN(c3ccccn3)CC2)c1C

>  <score_type>  (37) 
oracle

>  <origin>  (37) 
adg

>  <m_score__min__energy>  (37) 
-8.4600000000000009

>  <m_primary>  (37) 
energy

$$$$
37:0
     RDKit          3D

 40 42  0  0  0  0  0  0  0  0999 V2000
   56.2620   25.8870   45.9950 C   0  0  0  0  0  0  0  0  0  0  0  0
   57.1420   27.0910   46.1550 C   0  0  0  0  0  0  0  0  0  0  0  0
   58.1480   27.1070   47.1310 C   0  0  0  0  0  0  0  0  0  0  0  0
   58.9930   28.2130   47.2550 C   0  0  0  0  0  0  0  0  0  0  0  0
   58.8490   29.3220   46.4020 C   0  0  0  0  0  0  0  0  0  0  0  0
   59.7580   30.4850   46.5470 C   0  0  0  0  0  0  0  0  0  0  0  0
   59.7520   31.3790   45.6560 O   0  0  0  0  0  0  0  0  0  0  0  0
   60.6340   30.6090   47.6820 N   0  0  0  0  0  0  0  0  0  0  0  0
   61.5390   31.7100   47.8660 C   0  0  0  0  0  0  0  0  0  0  0  0
   62.8820   31.6020   47.4600 C   0  0  0  0  0  0  0  0  0  0  0  0
   63.7590   32.6770   47.6210 C   0  0  0  0  0  0  0  0  0  0  0  0
   63.3090   33.8680   48.1920 C   0  0  0  0  0  0  0  0  0  0  0  0
   61.9840   33.9830   48.6170 C   0  0  0  0  0  0  0  0  0  0  0  0
   61.1000   32.9030   48.4810 C   0  0  0  0  0  0  0  0  0  0  0  0
   59.3980   33.1040   49.0380 S   0  0  0  0  0  0  0  0  0  0  0  0
   58.7900   33.5560   47.4090 C   0  0  0  0  0  0  0  0  0  0  0  0
   57.5370   33.1090   46.9700 C   0  0  0  0  0  0  0  0  0  0  0  0
   57.0710   33.4620   45.6990 C   0  0  0  0  0  0  0  0  0  0  0  0
   57.8600   34.2550   44.8600 C   0  0  0  0  0  0  0  0  0  0  0  0
   59.1170   34.6900   45.2890 C   0  0  0  0  0  0  0  0  0  0  0  0
   59.5850   34.3360   46.5580 C   0  0  0  0  0  0  0  0  0  0  0  0
   57.8590   29.2870   45.4030 C   0  0  0  0  0  0  0  0  0  0  0  0
   57.0150   28.1790   45.2800 C   0  0  0  0  0  0  0  0  0  0  0  0
   55.9816   25.5033   46.9871 H   0  0  0  0  0  0  0  0  0  0  0  0
   55.3544   26.1673   45.4403 H   0  0  0  0  0  0  0  0  0  0  0  0
   56.8046   25.1073   45.4403 H   0  0  0  0  0  0  0  0  0  0  0  0
   58.2729   26.2448   47.8025 H   0  0  0  0  0  0  0  0  0  0  0  0
   59.7774   28.2163   48.0262 H   0  0  0  0  0  0  0  0  0  0  0  0
   60.5970   29.8850   48.4290 H   0  0  0  0  0  0  0  0  0  0  0  0
   63.2436   30.6644   47.0127 H   0  0  0  0  0  0  0  0  0  0  0  0
   64.8062   32.5846   47.2971 H   0  0  0  0  0  0  0  0  0  0  0  0
   63.9988   34.7171   48.3074 H   0  0  0  0  0  0  0  0  0  0  0  0
   61.6317   34.9258   49.0609 H   0  0  0  0  0  0  0  0  0  0  0  0
   56.9182   32.4791   47.6260 H   0  0  0  0  0  0  0  0  0  0  0  0
   56.0837   33.1156   45.3596 H   0  0  0  0  0  0  0  0  0  0  0  0
   57.4914   34.5364   43.8625 H   0  0  0  0  0  0  0  0  0  0  0  0
   59.7387   35.3114   44.6277 H   0  0  0  0  0  0  0  0  0  0  0  0
   60.5792   34.6703   46.8893 H   0  0  0  0  0  0  0  0  0  0  0  0
   57.7482   30.1372   44.7139 H   0  0  0  0  0  0  0  0  0  0  0  0
   56.2472   28.1609   44.4925 H   0  0  0  0  0  0  0  0  0  0  0  0
  1  2  1  0
  2  3  2  0
  3  4  1  0
  4  5  2  0
  5  6  1  0
  6  7  2  0
  6  8  1  0
  8  9  1  0
  9 10  2  0
 10 11  1  0
 11 12  2  0
 12 13  1  0
 13 14  2  0
 14 15  1  0
 15 16  1  0
 16 17  2  0
 17 18  1  0
 18 19  2  0
 19 20  1  0
 20 21  2  0
  5 22  1  0
 22 23  2  0
 23  2  1  0
 14  9  1  0
 21 16  1  0
  1 24  1  0
  1 25  1  0
  1 26  1  0
  3 27  1  0
  4 28  1  0
  8 29  1  0
 10 30  1  0
 11 31  1  0
 12 32  1  0
 13 33  1  0
 17 34  1  0
 18 35  1  0
 19 36  1  0
 20 37  1  0
 21 38  1  0
 22 39  1  0
 23 40  1  0
M  END
>  <UniqueID>  (38) 
37

>  <SMILES>  (38) 
Cc1ccc(C(=O)Nc2ccccc2Sc2ccccc2)cc1

>  <Energy>  (38) 
45.51933083775378

>  <Genealogy>  (38) 
Cc1ccc(C(=O)Nc2ccccc2Sc2ccccc2)cc1 (3D coordinates assigned)
Cc1ccc(C(=O)Nc2ccccc2Sc2ccccc2)cc1 (optimized conformer: 45.51933083775378 kcal/mol)

>  <smiles>  (38) 
Cc1ccc(C(=O)Nc2ccccc2Sc2ccccc2)cc1

>  <score_type>  (38) 
oracle

>  <origin>  (38) 
adg

>  <m_score__min__energy>  (38) 
-8.3000000000000007

>  <m_primary>  (38) 
energy

$$$$
38:0
     RDKit          3D

 40 42  0  0  0  0  0  0  0  0999 V2000
   57.9950   26.9890   42.6170 C   0  0  0  0  0  0  0  0  0  0  0  0
   58.5150   27.6960   43.8300 C   0  0  0  0  0  0  0  0  0  0  0  0
   59.4450   27.1300   44.5470 N   0  0  0  0  0  0  0  0  0  0  0  0
   59.9640   27.7450   45.7320 C   0  0  0  0  0  0  0  0  0  0  0  0
   60.7440   27.1080   46.4840 O   0  0  0  0  0  0  0  0  0  0  0  0
   59.5850   29.0860   46.0510 N   0  0  0  0  0  0  0  0  0  0  0  0
   58.8870   29.8720   45.0300 C   0  0  2  0  0  0  0  0  0  0  0  0
   58.3380   31.1620   45.6110 C   0  0  0  0  0  0  0  0  0  0  0  0
   57.5360   31.9970   44.8150 C   0  0  0  0  0  0  0  0  0  0  0  0
   57.0220   33.1780   45.3530 C   0  0  0  0  0  0  0  0  0  0  0  0
   57.3040   33.5190   46.6770 C   0  0  0  0  0  0  0  0  0  0  0  0
   58.0970   32.6670   47.4450 C   0  0  0  0  0  0  0  0  0  0  0  0
   58.5870   31.5210   46.9030 N   0  0  0  0  0  0  0  0  0  0  0  0
   57.8470   28.9770   44.2960 C   0  0  2  0  0  0  0  0  0  0  0  0
   56.6570   28.6090   45.1480 C   0  0  0  0  0  0  0  0  0  0  0  0
   55.6250   29.3320   45.1100 O   0  0  0  0  0  0  0  0  0  0  0  0
   56.7120   27.4640   46.0080 N   0  0  0  0  0  0  0  0  0  0  0  0
   56.5120   26.0960   45.6260 C   0  0  0  0  0  0  0  0  0  0  0  0
   55.2070   25.5890   45.6140 C   0  0  0  0  0  0  0  0  0  0  0  0
   54.9670   24.2560   45.2670 C   0  0  0  0  0  0  0  0  0  0  0  0
   56.0340   23.4010   44.9390 C   0  0  0  0  0  0  0  0  0  0  0  0
   55.7850   22.0300   44.5830 N   0  0  0  0  0  0  0  0  0  0  0  0
   55.4020   21.2070   45.4410 O   0  0  0  0  0  0  0  0  0  0  0  0
   55.9670   21.5990   43.2880 O   0  0  0  0  0  0  0  0  0  0  0  0
   57.3460   23.9070   44.9770 C   0  0  0  0  0  0  0  0  0  0  0  0
   57.5840   25.2410   45.3230 C   0  0  0  0  0  0  0  0  0  0  0  0
   57.3698   26.1390   42.9279 H   0  0  0  0  0  0  0  0  0  0  0  0
   57.3930   27.6864   42.0160 H   0  0  0  0  0  0  0  0  0  0  0  0
   58.8401   26.6221   42.0160 H   0  0  0  0  0  0  0  0  0  0  0  0
   59.8890   29.5100   46.9560 H   0  0  0  0  0  0  0  0  0  0  0  0
   59.5930   30.2053   44.2551 H   0  0  0  0  0  0  0  0  0  0  0  0
   57.3143   31.7215   43.7734 H   0  0  0  0  0  0  0  0  0  0  0  0
   56.3961   33.8386   44.7350 H   0  0  0  0  0  0  0  0  0  0  0  0
   56.9054   34.4487   47.1093 H   0  0  0  0  0  0  0  0  0  0  0  0
   58.3261   32.9226   48.4901 H   0  0  0  0  0  0  0  0  0  0  0  0
   57.4755   29.5723   43.4489 H   0  0  0  0  0  0  0  0  0  0  0  0
   54.3643   26.2442   45.8795 H   0  0  0  0  0  0  0  0  0  0  0  0
   53.9358   23.8733   45.2505 H   0  0  0  0  0  0  0  0  0  0  0  0
   58.1920   23.2478   44.7325 H   0  0  0  0  0  0  0  0  0  0  0  0
   58.6153   25.6221   45.3579 H   0  0  0  0  0  0  0  0  0  0  0  0
  1  2  1  0
  2  3  2  0
  3  4  1  0
  4  5  2  0
  4  6  1  0
  6  7  1  0
  7  8  1  0
  8  9  2  0
  9 10  1  0
 10 11  2  0
 11 12  1  0
 12 13  2  0
  7 14  1  0
 14 15  1  0
 15 16  2  0
 15 17  1  0
 17 18  1  0
 18 19  2  0
 19 20  1  0
 20 21  2  0
 21 22  1  0
 22 23  2  0
 22 24  1  0
 21 25  1  0
 25 26  2  0
 14  2  1  0
 26 18  1  0
 13  8  1  0
  1 27  1  0
  1 28  1  0
  1 29  1  0
  6 30  1  0
  7 31  1  6
  9 32  1  0
 10 33  1  0
 11 34  1  0
 12 35  1  0
 14 36  1  6
 19 37  1  0
 20 38  1  0
 25 39  1  0
 26 40  1  0
M  CHG  3  17  -1  22   1  24  -1
M  END
>  <UniqueID>  (39) 
38

>  <SMILES>  (39) 
CC1=NC(=O)N[C@H](c2ccccn2)[C@@H]1C(=O)[N-]c1ccc([N+](=O)[O-])cc1

>  <Energy>  (39) 
48.682255301836314

>  <Genealogy>  (39) 
CC1=NC(=O)NC(c2ccccn2)C1C(=O)[N-]c1ccc([N+](=O)[O-])cc1 (protonated)
CC1=NC(=O)N[C@H](c2ccccn2)[C@@H]1C(=O)[N-]c1ccc([N+](=O)[O-])cc1 (chirality)
CC1=NC(=O)N[C@H](c2ccccn2)[C@@H]1C(=O)[N-]c1ccc([N+](=O)[O-])cc1 (3D coordinates assigned)
CC1=NC(=O)N[C@H](c2ccccn2)[C@@H]1C(=O)[N-]c1ccc([N+](=O)[O-])cc1 (nonaromatic ring conformer: 48.682255301836314 kcal/mol)

>  <smiles>  (39) 
CC1=NC(=O)NC(c2ccccn2)C1C(=O)Nc1ccc([N+](=O)[O-])cc1

>  <score_type>  (39) 
oracle

>  <origin>  (39) 
adg

>  <m_score__min__energy>  (39) 
-9.3200000000000003

>  <m_primary>  (39) 
energy

$$$$
39:0
     RDKit          3D

 35 39  0  0  0  0  0  0  0  0999 V2000
   59.5140   35.5340   46.9680 O   0  0  0  0  0  0  0  0  0  0  0  0
   59.3260   34.6260   46.1160 C   0  0  0  0  0  0  0  0  0  0  0  0
   58.5460   34.9290   44.8720 C   0  0  0  0  0  0  0  0  0  0  0  0
   57.4810   33.9440   44.7080 N   0  0  0  0  0  0  0  0  0  0  0  0
   57.6430   32.6010   45.1840 C   0  0  0  0  0  0  0  0  0  0  0  0
   56.6460   31.8340   45.2040 O   0  0  0  0  0  0  0  0  0  0  0  0
   58.9300   32.1990   45.8070 C   0  0  0  0  0  0  0  0  0  0  0  0
   59.7540   33.2190   46.3600 C   0  0  0  0  0  0  0  0  0  0  0  0
   60.9090   32.8720   47.1370 C   0  0  0  0  0  0  0  0  0  0  0  0
   61.8170   33.8430   47.6170 C   0  0  0  0  0  0  0  0  0  0  0  0
   62.9070   33.4780   48.4090 C   0  0  0  0  0  0  0  0  0  0  0  0
   63.1310   32.1420   48.7250 C   0  0  0  0  0  0  0  0  0  0  0  0
   62.2850   31.1530   48.2260 C   0  0  0  0  0  0  0  0  0  0  0  0
   61.1850   31.4990   47.4180 C   0  0  0  0  0  0  0  0  0  0  0  0
   60.3700   30.5210   46.8280 C   0  0  0  0  0  0  0  0  0  0  0  0
   60.5350   29.1780   46.8940 N   0  0  0  0  0  0  0  0  0  0  0  0
   59.6130   28.6640   46.0610 C   0  0  0  0  0  0  0  0  0  0  0  0
   59.4580   27.3180   45.7310 C   0  0  0  0  0  0  0  0  0  0  0  0
   58.5190   26.9840   44.7430 C   0  0  0  0  0  0  0  0  0  0  0  0
   57.7880   27.9930   44.0840 C   0  0  0  0  0  0  0  0  0  0  0  0
   57.9700   29.3450   44.4250 C   0  0  0  0  0  0  0  0  0  0  0  0
   58.8600   29.6540   45.4640 C   0  0  0  0  0  0  0  0  0  0  0  0
   59.3160   30.8590   45.9930 C   0  0  0  0  0  0  0  0  0  0  0  0
   58.1058   35.9339   44.9519 H   0  0  0  0  0  0  0  0  0  0  0  0
   59.2174   34.8885   44.0016 H   0  0  0  0  0  0  0  0  0  0  0  0
   56.5780   34.2340   44.2720 H   0  0  0  0  0  0  0  0  0  0  0  0
   61.6624   34.9020   47.3627 H   0  0  0  0  0  0  0  0  0  0  0  0
   63.5928   34.2513   48.7854 H   0  0  0  0  0  0  0  0  0  0  0  0
   63.9778   31.8653   49.3702 H   0  0  0  0  0  0  0  0  0  0  0  0
   62.4777   30.0966   48.4647 H   0  0  0  0  0  0  0  0  0  0  0  0
   61.2570   28.6380   47.4180 H   0  0  0  0  0  0  0  0  0  0  0  0
   60.0545   26.5405   46.2307 H   0  0  0  0  0  0  0  0  0  0  0  0
   58.3525   25.9286   44.4813 H   0  0  0  0  0  0  0  0  0  0  0  0
   57.0695   27.7207   43.2968 H   0  0  0  0  0  0  0  0  0  0  0  0
   57.4285   30.1396   43.8908 H   0  0  0  0  0  0  0  0  0  0  0  0
  1  2  2  0
  2  3  1  0
  3  4  1  0
  4  5  1  0
  5  6  2  0
  5  7  1  0
  7  8  2  0
  8  9  1  0
  9 10  2  0
 10 11  1  0
 11 12  2  0
 12 13  1  0
 13 14  2  0
 14 15  1  0
 15 16  1  0
 16 17  1  0
 17 18  2  0
 18 19  1  0
 19 20  2  0
 20 21  1  0
 21 22  2  0
 22 23  1  0
  8  2  1  0
 14  9  1  0
 23 15  2  0
 23  7  1  0
 22 17  1  0
  3 24  1  0
  3 25  1  0
  4 26  1  0
 10 27  1  0
 11 28  1  0
 12 29  1  0
 13 30  1  0
 16 31  1  0
 18 32  1  0
 19 33  1  0
 20 34  1  0
 21 35  1  0
M  END
>  <UniqueID>  (40) 
39

>  <SMILES>  (40) 
O=C1CNC(=O)c2c1c1ccccc1c1[nH]c3ccccc3c21

>  <Energy>  (40) 
103.01118102311517

>  <Genealogy>  (40) 
O=C1CNC(=O)c2c1c1ccccc1c1[nH]c3ccccc3c21 (3D coordinates assigned)
O=C1CNC(=O)c2c1c1ccccc1c1[nH]c3ccccc3c21 (nonaromatic ring conformer: 103.01118102311517 kcal/mol)

>  <smiles>  (40) 
O=C1CNC(=O)c2c1c1ccccc1c1[nH]c3ccccc3c21

>  <score_type>  (40) 
oracle

>  <origin>  (40) 
adg

>  <m_score__min__energy>  (40) 
-8.3599999999999994

>  <m_primary>  (40) 
energy

$$$$
40:0
     RDKit          3D

 54 57  0  0  0  0  0  0  0  0999 V2000
   56.1900   30.3590   52.6270 C   0  0  0  0  0  0  0  0  0  0  0  0
   57.0970   30.5040   51.4760 N   0  0  0  0  0  0  0  0  0  0  0  0
   57.3840   31.9320   51.1890 C   0  0  0  0  0  0  0  0  0  0  0  0
   58.7780   32.3590   51.6740 C   0  0  0  0  0  0  0  0  0  0  0  0
   59.8580   31.5540   51.0470 N   0  0  0  0  0  0  0  0  0  0  0  0
   60.4100   32.2280   49.8470 C   0  0  0  0  0  0  0  0  0  0  0  0
   59.3430   33.0770   49.1050 C   0  0  2  0  0  0  0  0  0  0  0  0
   58.4170   32.2010   48.2250 C   0  0  0  0  0  0  0  0  0  0  0  0
   58.9850   31.7950   46.8520 C   0  0  0  0  0  0  0  0  0  0  0  0
   59.6410   32.8800   46.0750 N   0  0  0  0  0  0  0  0  0  0  0  0
   61.0650   33.0580   46.4370 C   0  0  0  0  0  0  0  0  0  0  0  0
   61.2610   34.0350   47.6110 C   0  0  0  0  0  0  0  0  0  0  0  0
   59.9420   34.3150   48.3600 C   0  0  1  0  0  0  0  0  0  0  0  0
   58.9250   34.9320   47.3710 C   0  0  0  0  0  0  0  0  0  0  0  0
   58.9310   34.1860   46.0070 C   0  0  2  0  0  0  0  0  0  0  0  0
   57.5260   34.0670   45.3830 C   0  0  0  0  0  0  0  0  0  0  0  0
   57.4320   32.8690   44.5510 N   0  0  0  0  0  0  0  0  0  0  0  0
   58.0830   32.6580   43.3920 C   0  0  0  0  0  0  0  0  0  0  0  0
   57.7670   31.3950   42.9430 C   0  0  0  0  0  0  0  0  0  0  0  0
   56.9100   30.8850   43.9000 C   0  0  0  0  0  0  0  0  0  0  0  0
   56.7240   31.7990   44.8730 N   0  0  0  0  0  0  0  0  0  0  0  0
   59.4490   30.1540   50.7580 C   0  0  0  0  0  0  0  0  0  0  0  0
   58.3120   29.6840   51.6750 C   0  0  0  0  0  0  0  0  0  0  0  0
   56.7646   30.4509   53.5605 H   0  0  0  0  0  0  0  0  0  0  0  0
   55.4221   31.1458   52.5902 H   0  0  0  0  0  0  0  0  0  0  0  0
   55.7057   29.3720   52.5902 H   0  0  0  0  0  0  0  0  0  0  0  0
   57.3235   32.0929   50.1025 H   0  0  0  0  0  0  0  0  0  0  0  0
   56.6413   32.5380   51.7286 H   0  0  0  0  0  0  0  0  0  0  0  0
   58.9326   33.4183   51.4211 H   0  0  0  0  0  0  0  0  0  0  0  0
   58.8227   32.1980   52.7612 H   0  0  0  0  0  0  0  0  0  0  0  0
   61.2328   32.8880   50.1591 H   0  0  0  0  0  0  0  0  0  0  0  0
   60.7608   31.4485   49.1547 H   0  0  0  0  0  0  0  0  0  0  0  0
   58.6969   33.5159   49.8796 H   0  0  0  0  0  0  0  0  0  0  0  0
   58.1930   31.2801   48.7833 H   0  0  0  0  0  0  0  0  0  0  0  0
   57.5336   32.8207   48.0116 H   0  0  0  0  0  0  0  0  0  0  0  0
   59.7283   31.0009   47.0160 H   0  0  0  0  0  0  0  0  0  0  0  0
   58.1183   31.4807   46.2519 H   0  0  0  0  0  0  0  0  0  0  0  0
   61.4814   32.0799   46.7197 H   0  0  0  0  0  0  0  0  0  0  0  0
   61.5802   33.4814   45.5622 H   0  0  0  0  0  0  0  0  0  0  0  0
   61.9843   33.6006   48.3168 H   0  0  0  0  0  0  0  0  0  0  0  0
   61.6262   34.9881   47.2008 H   0  0  0  0  0  0  0  0  0  0  0  0
   60.1720   35.0280   49.1654 H   0  0  0  0  0  0  0  0  0  0  0  0
   57.9177   34.8687   47.8084 H   0  0  0  0  0  0  0  0  0  0  0  0
   59.2097   35.9794   47.1924 H   0  0  0  0  0  0  0  0  0  0  0  0
   59.5126   34.8168   45.3186 H   0  0  0  0  0  0  0  0  0  0  0  0
   56.7773   34.0085   46.1868 H   0  0  0  0  0  0  0  0  0  0  0  0
   57.3414   34.9506   44.7543 H   0  0  0  0  0  0  0  0  0  0  0  0
   58.7525   33.3718   42.8897 H   0  0  0  0  0  0  0  0  0  0  0  0
   58.1190   30.9011   42.0253 H   0  0  0  0  0  0  0  0  0  0  0  0
   56.4502   29.8861   43.8719 H   0  0  0  0  0  0  0  0  0  0  0  0
   59.1108   30.0918   49.7131 H   0  0  0  0  0  0  0  0  0  0  0  0
   60.3182   29.5036   50.9355 H   0  0  0  0  0  0  0  0  0  0  0  0
   58.0780   28.6334   51.4483 H   0  0  0  0  0  0  0  0  0  0  0  0
   58.6385   29.7893   52.7201 H   0  0  0  0  0  0  0  0  0  0  0  0
  1  2  1  0
  2  3  1  0
  3  4  1  0
  4  5  1  0
  5  6  1  0
  6  7  1  0
  7  8  1  0
  8  9  1  0
 10  9  1  0
 10 11  1  0
 11 12  1  0
 12 13  1  0
 13 14  1  0
 14 15  1  0
 15 16  1  0
 16 17  1  0
 17 18  1  0
 18 19  2  0
 19 20  1  0
 20 21  2  0
  5 22  1  0
 22 23  1  0
 23  2  1  0
 13  7  1  0
 21 17  1  0
 15 10  1  0
  1 24  1  0
  1 25  1  0
  1 26  1  0
  3 27  1  0
  3 28  1  0
  4 29  1  0
  4 30  1  0
  6 31  1  0
  6 32  1  0
  7 33  1  1
  8 34  1  0
  8 35  1  0
  9 36  1  0
  9 37  1  0
 11 38  1  0
 11 39  1  0
 12 40  1  0
 12 41  1  0
 13 42  1  1
 14 43  1  0
 14 44  1  0
 15 45  1  6
 16 46  1  0
 16 47  1  0
 18 48  1  0
 19 49  1  0
 20 50  1  0
 22 51  1  0
 22 52  1  0
 23 53  1  0
 23 54  1  0
M  END
>  <UniqueID>  (41) 
40

>  <SMILES>  (41) 
CN1CCN(C[C@@H]2CC[N@]3CCC2CC3Cn2cccn2)CC1

>  <Energy>  (41) 
116.85576712775982

>  <Genealogy>  (41) 
CN1CCN(C[C@@H]2CC[N@]3CCC2CC3Cn2cccn2)CC1 (chirality)
CN1CCN(C[C@@H]2CC[N@]3CCC2CC3Cn2cccn2)CC1 (3D coordinates assigned)
CN1CCN(C[C@@H]2CC[N@]3CCC2CC3Cn2cccn2)CC1 (nonaromatic ring conformer: 116.85576712775982 kcal/mol)

>  <smiles>  (41) 
CN1CCN(CC2CCN3CCC2CC3Cn2cccn2)CC1

>  <score_type>  (41) 
oracle

>  <origin>  (41) 
adg

>  <m_score__min__energy>  (41) 
-6.5

>  <m_primary>  (41) 
energy

$$$$
41:0
     RDKit          3D

 53 55  0  0  0  0  0  0  0  0999 V2000
   56.0830   30.9390   52.2240 C   0  0  0  0  0  0  0  0  0  0  0  0
   57.0370   30.0800   51.6110 O   0  0  0  0  0  0  0  0  0  0  0  0
   58.2450   30.5130   51.0440 C   0  0  0  0  0  0  0  0  0  0  0  0
   59.1210   31.3930   51.7110 C   0  0  0  0  0  0  0  0  0  0  0  0
   60.3140   31.7940   51.1040 C   0  0  0  0  0  0  0  0  0  0  0  0
   60.6490   31.3240   49.8260 C   0  0  0  0  0  0  0  0  0  0  0  0
   62.1620   31.8190   49.0620 S   0  0  0  0  0  0  0  0  0  0  0  0
   62.2910   31.1410   47.7250 O   0  0  0  0  0  0  0  0  0  0  0  0
   63.3150   31.3770   49.9190 O   0  0  0  0  0  0  0  0  0  0  0  0
   62.2280   33.5520   48.8470 N   0  0  0  0  0  0  0  0  0  0  0  0
   62.6040   33.8680   47.4550 C   0  0  0  0  0  0  0  0  0  0  0  0
   61.6070   33.3380   46.4120 C   0  0  0  0  0  0  0  0  0  0  0  0
   60.4260   34.2830   46.1070 C   0  0  0  0  0  0  0  0  0  0  0  0
   59.4550   34.4880   47.2240 N   0  0  1  0  0  0  0  0  0  0  0  0
   58.0700   34.2130   46.7640 C   0  0  0  0  0  0  0  0  0  0  0  0
   57.9720   32.9140   45.9920 C   0  0  0  0  0  0  0  0  0  0  0  0
   57.6140   32.9160   44.6350 C   0  0  0  0  0  0  0  0  0  0  0  0
   57.5070   31.7130   43.9320 C   0  0  0  0  0  0  0  0  0  0  0  0
   57.7440   30.4910   44.5800 C   0  0  0  0  0  0  0  0  0  0  0  0
   57.6710   29.2030   43.8140 C   0  0  0  0  0  0  0  0  0  0  0  0
   58.1130   30.4890   45.9330 C   0  0  0  0  0  0  0  0  0  0  0  0
   58.2190   31.6920   46.6370 C   0  0  0  0  0  0  0  0  0  0  0  0
   59.7560   33.6500   48.4170 C   0  0  0  0  0  0  0  0  0  0  0  0
   60.9540   34.1730   49.2560 C   0  0  0  0  0  0  0  0  0  0  0  0
   59.7770   30.4510   49.1610 C   0  0  0  0  0  0  0  0  0  0  0  0
   58.5850   30.0490   49.7690 C   0  0  0  0  0  0  0  0  0  0  0  0
   56.1692   30.8614   53.3179 H   0  0  0  0  0  0  0  0  0  0  0  0
   56.2720   31.9774   51.9141 H   0  0  0  0  0  0  0  0  0  0  0  0
   55.0701   30.6425   51.9141 H   0  0  0  0  0  0  0  0  0  0  0  0
   58.8644   31.7657   52.7136 H   0  0  0  0  0  0  0  0  0  0  0  0
   60.9929   32.4809   51.6306 H   0  0  0  0  0  0  0  0  0  0  0  0
   62.6669   34.9613   47.3516 H   0  0  0  0  0  0  0  0  0  0  0  0
   63.5669   33.3729   47.2610 H   0  0  0  0  0  0  0  0  0  0  0  0
   62.1544   33.1608   45.4745 H   0  0  0  0  0  0  0  0  0  0  0  0
   61.1695   32.4234   46.8387 H   0  0  0  0  0  0  0  0  0  0  0  0
   60.8404   35.2650   45.8350 H   0  0  0  0  0  0  0  0  0  0  0  0
   59.8564   33.8000   45.2994 H   0  0  0  0  0  0  0  0  0  0  0  0
   59.4720   35.4960   47.5100 H   0  0  0  0  0  0  0  0  0  0  0  0
   57.4100   34.1541   47.6421 H   0  0  0  0  0  0  0  0  0  0  0  0
   57.7687   35.0296   46.0914 H   0  0  0  0  0  0  0  0  0  0  0  0
   57.4167   33.8690   44.1223 H   0  0  0  0  0  0  0  0  0  0  0  0
   57.2358   31.7240   42.8660 H   0  0  0  0  0  0  0  0  0  0  0  0
   57.6232   28.3596   44.5185 H   0  0  0  0  0  0  0  0  0  0  0  0
   56.7714   29.2034   43.1809 H   0  0  0  0  0  0  0  0  0  0  0  0
   58.5648   29.1017   43.1809 H   0  0  0  0  0  0  0  0  0  0  0  0
   58.3200   29.5364   46.4426 H   0  0  0  0  0  0  0  0  0  0  0  0
   58.4972   31.6810   47.7012 H   0  0  0  0  0  0  0  0  0  0  0  0
   58.8641   33.6273   49.0604 H   0  0  0  0  0  0  0  0  0  0  0  0
   60.0309   32.6505   48.0490 H   0  0  0  0  0  0  0  0  0  0  0  0
   61.0314   35.2623   49.1240 H   0  0  0  0  0  0  0  0  0  0  0  0
   60.7713   33.9118   50.3088 H   0  0  0  0  0  0  0  0  0  0  0  0
   60.0320   30.0811   48.1569 H   0  0  0  0  0  0  0  0  0  0  0  0
   57.9081   29.3617   49.2404 H   0  0  0  0  0  0  0  0  0  0  0  0
  1  2  1  0
  2  3  1  0
  3  4  2  0
  4  5  1  0
  5  6  2  0
  6  7  1  0
  7  8  2  0
  7  9  2  0
  7 10  1  0
 10 11  1  0
 11 12  1  0
 12 13  1  0
 13 14  1  0
 14 15  1  0
 15 16  1  0
 16 17  2  0
 17 18  1  0
 18 19  2  0
 19 20  1  0
 19 21  1  0
 21 22  2  0
 14 23  1  0
 23 24  1  0
  6 25  1  0
 25 26  2  0
 26  3  1  0
 24 10  1  0
 22 16  1  0
  1 27  1  0
  1 28  1  0
  1 29  1  0
  4 30  1  0
  5 31  1  0
 11 32  1  0
 11 33  1  0
 12 34  1  0
 12 35  1  0
 13 36  1  0
 13 37  1  0
 14 38  1  1
 15 39  1  0
 15 40  1  0
 17 41  1  0
 18 42  1  0
 20 43  1  0
 20 44  1  0
 20 45  1  0
 21 46  1  0
 22 47  1  0
 23 48  1  0
 23 49  1  0
 24 50  1  0
 24 51  1  0
 25 52  1  0
 26 53  1  0
M  CHG  1  14   1
M  END
>  <UniqueID>  (42) 
41

>  <SMILES>  (42) 
COc1ccc(S(=O)(=O)N2CCC[N@@H+](Cc3ccc(C)cc3)CC2)cc1

>  <Energy>  (42) 
66.95872809049048

>  <Genealogy>  (42) 
COc1ccc(S(=O)(=O)N2CCC[NH+](Cc3ccc(C)cc3)CC2)cc1 (protonated)
COc1ccc(S(=O)(=O)N2CCC[N@@H+](Cc3ccc(C)cc3)CC2)cc1 (chirality)
COc1ccc(S(=O)(=O)N2CCC[N@@H+](Cc3ccc(C)cc3)CC2)cc1 (3D coordinates assigned)
COc1ccc(S(=O)(=O)N2CCC[N@@H+](Cc3ccc(C)cc3)CC2)cc1 (nonaromatic ring conformer: 66.95872809049048 kcal/mol)

>  <smiles>  (42) 
COc1ccc(S(=O)(=O)N2CCCN(Cc3ccc(C)cc3)CC2)cc1

>  <score_type>  (42) 
oracle

>  <origin>  (42) 
adg

>  <m_score__min__energy>  (42) 
-5.0199999999999996

>  <m_primary>  (42) 
energy

$$$$
42:0
     RDKit          3D

 49 51  0  0  0  0  0  0  0  0999 V2000
   58.7700   26.4940   47.3940 C   0  0  0  0  0  0  0  0  0  0  0  0
   59.1580   26.4010   45.9780 N   0  0  0  0  0  0  0  0  0  0  0  0
   60.0830   27.4990   45.6460 C   0  0  0  0  0  0  0  0  0  0  0  0
   57.9650   26.4310   45.1040 C   0  0  0  0  0  0  0  0  0  0  0  0
   56.6800   26.5280   45.9330 C   0  0  0  0  0  0  0  0  0  0  0  0
   55.9530   27.7150   45.6100 O   0  0  0  0  0  0  0  0  0  0  0  0
   56.5080   28.9440   45.2180 C   0  0  0  0  0  0  0  0  0  0  0  0
   57.5710   29.4550   45.9720 C   0  0  0  0  0  0  0  0  0  0  0  0
   58.1670   30.6700   45.6300 C   0  0  0  0  0  0  0  0  0  0  0  0
   57.7290   31.3840   44.5020 C   0  0  0  0  0  0  0  0  0  0  0  0
   58.3880   32.6880   44.1140 C   0  0  0  0  0  0  0  0  0  0  0  0
   57.9630   33.8510   44.9270 N   0  0  0  0  0  0  0  0  0  0  0  0
   58.8660   35.0170   44.9340 C   0  0  0  0  0  0  0  0  0  0  0  0
   60.0060   34.9130   45.9640 C   0  0  0  0  0  0  0  0  0  0  0  0
   59.6520   34.1320   47.2030 C   0  0  0  0  0  0  0  0  0  0  0  0
   60.6020   34.0320   48.2320 C   0  0  0  0  0  0  0  0  0  0  0  0
   60.3270   33.2830   49.3790 C   0  0  0  0  0  0  0  0  0  0  0  0
   59.1010   32.6290   49.5090 C   0  0  0  0  0  0  0  0  0  0  0  0
   58.1510   32.7170   48.4900 C   0  0  0  0  0  0  0  0  0  0  0  0
   58.4250   33.4510   47.3250 C   0  0  0  0  0  0  0  0  0  0  0  0
   57.3810   33.5450   46.2460 C   0  0  0  0  0  0  0  0  0  0  0  0
   56.6490   30.8860   43.7590 C   0  0  0  0  0  0  0  0  0  0  0  0
   56.0510   29.6700   44.1020 C   0  0  0  0  0  0  0  0  0  0  0  0
   59.6440   26.2845   48.0282 H   0  0  0  0  0  0  0  0  0  0  0  0
   58.3973   27.5069   47.6063 H   0  0  0  0  0  0  0  0  0  0  0  0
   57.9786   25.7601   47.6063 H   0  0  0  0  0  0  0  0  0  0  0  0
   60.4637   27.9509   46.5738 H   0  0  0  0  0  0  0  0  0  0  0  0
   60.9248   27.1042   45.0582 H   0  0  0  0  0  0  0  0  0  0  0  0
   59.5510   28.2615   45.0582 H   0  0  0  0  0  0  0  0  0  0  0  0
   58.0295   27.3032   44.4369 H   0  0  0  0  0  0  0  0  0  0  0  0
   57.9354   25.5000   44.5189 H   0  0  0  0  0  0  0  0  0  0  0  0
   56.0494   25.6513   45.7237 H   0  0  0  0  0  0  0  0  0  0  0  0
   56.9510   26.5609   46.9986 H   0  0  0  0  0  0  0  0  0  0  0  0
   57.9403   28.8934   46.8428 H   0  0  0  0  0  0  0  0  0  0  0  0
   58.9845   31.0709   46.2473 H   0  0  0  0  0  0  0  0  0  0  0  0
   59.4762   32.5701   44.2237 H   0  0  0  0  0  0  0  0  0  0  0  0
   58.0832   32.8992   43.0784 H   0  0  0  0  0  0  0  0  0  0  0  0
   59.3109   35.1173   43.9330 H   0  0  0  0  0  0  0  0  0  0  0  0
   58.2594   35.8908   45.2141 H   0  0  0  0  0  0  0  0  0  0  0  0
   60.8636   34.4222   45.4805 H   0  0  0  0  0  0  0  0  0  0  0  0
   60.2298   35.9391   46.2913 H   0  0  0  0  0  0  0  0  0  0  0  0
   61.5692   34.5468   48.1345 H   0  0  0  0  0  0  0  0  0  0  0  0
   61.0773   33.2088   50.1800 H   0  0  0  0  0  0  0  0  0  0  0  0
   58.8832   32.0440   50.4147 H   0  0  0  0  0  0  0  0  0  0  0  0
   57.1820   32.2082   48.6005 H   0  0  0  0  0  0  0  0  0  0  0  0
   56.8499   32.5837   46.1835 H   0  0  0  0  0  0  0  0  0  0  0  0
   56.6982   34.3660   46.5102 H   0  0  0  0  0  0  0  0  0  0  0  0
   56.2692   31.4571   42.8990 H   0  0  0  0  0  0  0  0  0  0  0  0
   55.2197   29.2787   43.4972 H   0  0  0  0  0  0  0  0  0  0  0  0
  1  2  1  0
  2  3  1  0
  2  4  1  0
  4  5  1  0
  5  6  1  0
  6  7  1  0
  7  8  2  0
  8  9  1  0
  9 10  2  0
 10 11  1  0
 11 12  1  0
 12 13  1  0
 13 14  1  0
 14 15  1  0
 15 16  2  0
 16 17  1  0
 17 18  2  0
 18 19  1  0
 19 20  2  0
 20 21  1  0
 10 22  1  0
 22 23  2  0
 23  7  1  0
 21 12  1  0
 20 15  1  0
  1 24  1  0
  1 25  1  0
  1 26  1  0
  3 27  1  0
  3 28  1  0
  3 29  1  0
  4 30  1  0
  4 31  1  0
  5 32  1  0
  5 33  1  0
  8 34  1  0
  9 35  1  0
 11 36  1  0
 11 37  1  0
 13 38  1  0
 13 39  1  0
 14 40  1  0
 14 41  1  0
 16 42  1  0
 17 43  1  0
 18 44  1  0
 19 45  1  0
 21 46  1  0
 21 47  1  0
 22 48  1  0
 23 49  1  0
M  END
>  <UniqueID>  (43) 
42

>  <SMILES>  (43) 
CN(C)CCOc1ccc(CN2CCc3ccccc3C2)cc1

>  <Energy>  (43) 
59.38415154522185

>  <Genealogy>  (43) 
CN(C)CCOc1ccc(CN2CCc3ccccc3C2)cc1 (3D coordinates assigned)
CN(C)CCOc1ccc(CN2CCc3ccccc3C2)cc1 (nonaromatic ring conformer: 59.38415154522185 kcal/mol)

>  <smiles>  (43) 
CN(C)CCOc1ccc(CN2CCc3ccccc3C2)cc1

>  <score_type>  (43) 
oracle

>  <origin>  (43) 
adg

>  <m_score__min__energy>  (43) 
-7.8200000000000003

>  <m_primary>  (43) 
energy

$$$$
43:0
     RDKit          3D

 55 59  0  0  0  0  0  0  0  0999 V2000
   58.2300   25.4910   45.5730 C   0  0  0  0  0  0  0  0  0  0  0  0
   59.3890   26.0090   46.2200 O   0  0  0  0  0  0  0  0  0  0  0  0
   59.7340   27.3680   46.2630 C   0  0  0  0  0  0  0  0  0  0  0  0
   60.4550   27.9890   45.2340 C   0  0  0  0  0  0  0  0  0  0  0  0
   60.7740   29.3410   45.3220 C   0  0  0  0  0  0  0  0  0  0  0  0
   60.3800   30.0980   46.4360 C   0  0  0  0  0  0  0  0  0  0  0  0
   60.7200   31.4510   46.4890 C   0  0  0  0  0  0  0  0  0  0  0  0
   60.3640   32.2490   47.5800 C   0  0  0  0  0  0  0  0  0  0  0  0
   60.7770   33.7080   47.5430 C   0  0  0  0  0  0  0  0  0  0  0  0
   59.6210   34.5520   47.2120 N   0  0  0  0  0  0  0  0  0  0  0  0
   59.3030   34.5160   45.7750 C   0  0  0  0  0  0  0  0  0  0  0  0
   57.8360   34.1280   45.5140 C   0  0  0  0  0  0  0  0  0  0  0  0
   57.5020   32.7370   46.0670 C   0  0  0  0  0  0  0  0  0  0  0  0
   57.3630   31.7610   44.9890 N   0  0  0  0  0  0  0  0  0  0  0  0
   57.7060   31.9500   43.7010 C   0  0  0  0  0  0  0  0  0  0  0  0
   57.3860   30.8100   42.9980 C   0  0  0  0  0  0  0  0  0  0  0  0
   56.8410   29.9570   43.9380 C   0  0  0  0  0  0  0  0  0  0  0  0
   56.8340   30.5590   45.1440 N   0  0  0  0  0  0  0  0  0  0  0  0
   59.6070   31.6860   48.6410 C   0  0  0  0  0  0  0  0  0  0  0  0
   59.1820   32.4800   49.7330 C   0  0  0  0  0  0  0  0  0  0  0  0
   58.4440   31.9270   50.7730 C   0  0  0  0  0  0  0  0  0  0  0  0
   58.1360   30.5690   50.7690 C   0  0  0  0  0  0  0  0  0  0  0  0
   58.5190   29.7640   49.6990 C   0  0  0  0  0  0  0  0  0  0  0  0
   59.2550   30.2980   48.6080 C   0  0  0  0  0  0  0  0  0  0  0  0
   59.6490   29.4970   47.4910 C   0  0  0  0  0  0  0  0  0  0  0  0
   59.3370   28.1170   47.3750 C   0  0  0  0  0  0  0  0  0  0  0  0
   57.4350   30.0270   51.8520 O   0  0  0  0  0  0  0  0  0  0  0  0
   57.2690   30.7610   53.0680 C   0  0  0  0  0  0  0  0  0  0  0  0
   57.0240   32.2430   52.7630 C   0  0  0  0  0  0  0  0  0  0  0  0
   58.0010   32.7220   51.8350 O   0  0  0  0  0  0  0  0  0  0  0  0
   57.5018   25.1655   46.3305 H   0  0  0  0  0  0  0  0  0  0  0  0
   57.7802   26.2738   44.9445 H   0  0  0  0  0  0  0  0  0  0  0  0
   58.5132   24.6338   44.9445 H   0  0  0  0  0  0  0  0  0  0  0  0
   60.7694   27.4068   44.3552 H   0  0  0  0  0  0  0  0  0  0  0  0
   61.3405   29.8208   44.5103 H   0  0  0  0  0  0  0  0  0  0  0  0
   61.2799   31.8985   45.6546 H   0  0  0  0  0  0  0  0  0  0  0  0
   61.1703   33.9998   48.5280 H   0  0  0  0  0  0  0  0  0  0  0  0
   61.5529   33.8430   46.7750 H   0  0  0  0  0  0  0  0  0  0  0  0
   59.7990   35.5400   47.5080 H   0  0  0  0  0  0  0  0  0  0  0  0
   59.4878   35.5120   45.3461 H   0  0  0  0  0  0  0  0  0  0  0  0
   59.9427   33.7536   45.3064 H   0  0  0  0  0  0  0  0  0  0  0  0
   57.1816   34.8686   45.9969 H   0  0  0  0  0  0  0  0  0  0  0  0
   57.6787   34.1074   44.4255 H   0  0  0  0  0  0  0  0  0  0  0  0
   58.3096   32.4151   46.7409 H   0  0  0  0  0  0  0  0  0  0  0  0
   56.5466   32.7970   46.6088 H   0  0  0  0  0  0  0  0  0  0  0  0
   58.1632   32.8586   43.2822 H   0  0  0  0  0  0  0  0  0  0  0  0
   57.5322   30.6204   41.9244 H   0  0  0  0  0  0  0  0  0  0  0  0
   56.4696   28.9420   43.7336 H   0  0  0  0  0  0  0  0  0  0  0  0
   59.4392   33.5492   49.7590 H   0  0  0  0  0  0  0  0  0  0  0  0
   58.2473   28.6981   49.6989 H   0  0  0  0  0  0  0  0  0  0  0  0
   58.7695   27.6253   48.1789 H   0  0  0  0  0  0  0  0  0  0  0  0
   56.4086   30.3570   53.6216 H   0  0  0  0  0  0  0  0  0  0  0  0
   58.1831   30.6655   53.6723 H   0  0  0  0  0  0  0  0  0  0  0  0
   56.0203   32.3641   52.3294 H   0  0  0  0  0  0  0  0  0  0  0  0
   57.1008   32.8200   53.6963 H   0  0  0  0  0  0  0  0  0  0  0  0
  1  2  1  0
  2  3  1  0
  3  4  2  0
  4  5  1  0
  5  6  2  0
  6  7  1  0
  7  8  2  0
  8  9  1  0
  9 10  1  0
 10 11  1  0
 11 12  1  0
 12 13  1  0
 13 14  1  0
 14 15  1  0
 15 16  2  0
 16 17  1  0
 17 18  2  0
  8 19  1  0
 19 20  2  0
 20 21  1  0
 21 22  2  0
 22 23  1  0
 23 24  2  0
 24 25  1  0
 25 26  2  0
 22 27  1  0
 27 28  1  0
 28 29  1  0
 29 30  1  0
 26  3  1  0
 25  6  1  0
 18 14  1  0
 24 19  1  0
 30 21  1  0
  1 31  1  0
  1 32  1  0
  1 33  1  0
  4 34  1  0
  5 35  1  0
  7 36  1  0
  9 37  1  0
  9 38  1  0
 10 39  1  0
 11 40  1  0
 11 41  1  0
 12 42  1  0
 12 43  1  0
 13 44  1  0
 13 45  1  0
 15 46  1  0
 16 47  1  0
 17 48  1  0
 20 49  1  0
 23 50  1  0
 26 51  1  0
 28 52  1  0
 28 53  1  0
 29 54  1  0
 29 55  1  0
M  END
>  <UniqueID>  (44) 
43

>  <SMILES>  (44) 
COc1ccc2cc(CNCCCn3cccn3)c3cc4c(cc3c2c1)OCCO4

>  <Energy>  (44) 
100.35920073713531

>  <Genealogy>  (44) 
COc1ccc2cc(CNCCCn3cccn3)c3cc4c(cc3c2c1)OCCO4 (3D coordinates assigned)
COc1ccc2cc(CNCCCn3cccn3)c3cc4c(cc3c2c1)OCCO4 (nonaromatic ring conformer: 100.35920073713531 kcal/mol)

>  <smiles>  (44) 
COc1ccc2cc(CNCCCn3cccn3)c3cc4c(cc3c2c1)OCCO4

>  <score_type>  (44) 
oracle

>  <origin>  (44) 
adg

>  <m_score__min__energy>  (44) 
-7.71

>  <m_primary>  (44) 
energy

$$$$
44:0
     RDKit          3D

 58 61  0  0  0  0  0  0  0  0999 V2000
   61.6960   29.7350   50.5030 C   0  0  0  0  0  0  0  0  0  0  0  0
   62.1760   31.0120   50.0960 O   0  0  0  0  0  0  0  0  0  0  0  0
   63.4940   31.4630   50.2750 C   0  0  0  0  0  0  0  0  0  0  0  0
   64.4080   30.7780   51.1000 C   0  0  0  0  0  0  0  0  0  0  0  0
   65.7190   31.2400   51.2370 C   0  0  0  0  0  0  0  0  0  0  0  0
   66.1340   32.3850   50.5580 C   0  0  0  0  0  0  0  0  0  0  0  0
   65.2370   33.0750   49.7390 C   0  0  0  0  0  0  0  0  0  0  0  0
   63.9160   32.6250   49.5960 C   0  0  0  0  0  0  0  0  0  0  0  0
   63.0090   33.3530   48.7490 N   0  0  0  0  0  0  0  0  0  0  0  0
   63.4590   33.8590   47.4480 C   0  0  0  0  0  0  0  0  0  0  0  0
   62.3530   33.7470   46.3740 C   0  0  0  0  0  0  0  0  0  0  0  0
   60.9890   33.5540   46.9330 N   0  0  0  0  0  0  0  0  0  0  0  0
   59.9730   33.9260   45.9170 C   0  0  0  0  0  0  0  0  0  0  0  0
   58.5440   33.4650   46.2990 C   0  0  0  0  0  0  0  0  0  0  0  0
   58.5570   32.1770   47.1330 C   0  0  0  0  0  0  0  0  0  0  0  0
   59.0060   31.0370   46.3180 N   0  0  0  0  0  0  0  0  0  0  0  0
   60.2970   30.4460   46.5800 C   0  0  0  0  0  0  0  0  0  0  0  0
   61.0610   30.9310   47.4590 O   0  0  0  0  0  0  0  0  0  0  0  0
   60.7700   29.2800   45.7640 C   0  0  0  0  0  0  0  0  0  0  0  0
   59.5920   28.3830   45.3830 C   0  0  0  0  0  0  0  0  0  0  0  0
   58.4810   29.1890   44.7620 C   0  0  0  0  0  0  0  0  0  0  0  0
   57.6910   28.6280   43.7460 C   0  0  0  0  0  0  0  0  0  0  0  0
   56.6360   29.3550   43.1940 C   0  0  0  0  0  0  0  0  0  0  0  0
   56.3570   30.6420   43.6550 C   0  0  0  0  0  0  0  0  0  0  0  0
   57.1250   31.2050   44.6770 C   0  0  0  0  0  0  0  0  0  0  0  0
   58.1890   30.4810   45.2550 C   0  0  0  0  0  0  0  0  0  0  0  0
   60.8170   34.3350   48.1760 C   0  0  0  0  0  0  0  0  0  0  0  0
   61.7030   33.7520   49.2820 C   0  0  0  0  0  0  0  0  0  0  0  0
   61.6767   29.6836   51.6016 H   0  0  0  0  0  0  0  0  0  0  0  0
   60.6795   29.5833   50.1109 H   0  0  0  0  0  0  0  0  0  0  0  0
   62.3609   28.9513   50.1109 H   0  0  0  0  0  0  0  0  0  0  0  0
   64.0873   29.8744   51.6392 H   0  0  0  0  0  0  0  0  0  0  0  0
   66.4263   30.6988   51.8826 H   0  0  0  0  0  0  0  0  0  0  0  0
   67.1677   32.7449   50.6672 H   0  0  0  0  0  0  0  0  0  0  0  0
   65.5685   33.9766   49.2030 H   0  0  0  0  0  0  0  0  0  0  0  0
   63.7441   34.9159   47.5564 H   0  0  0  0  0  0  0  0  0  0  0  0
   64.3148   33.2497   47.1219 H   0  0  0  0  0  0  0  0  0  0  0  0
   62.3552   34.6707   45.7767 H   0  0  0  0  0  0  0  0  0  0  0  0
   62.5810   32.8549   45.7722 H   0  0  0  0  0  0  0  0  0  0  0  0
   60.8770   32.5340   47.1500 H   0  0  0  0  0  0  0  0  0  0  0  0
   59.9712   35.0204   45.8063 H   0  0  0  0  0  0  0  0  0  0  0  0
   60.2437   33.4209   44.9781 H   0  0  0  0  0  0  0  0  0  0  0  0
   58.0587   34.2609   46.8830 H   0  0  0  0  0  0  0  0  0  0  0  0
   57.9938   33.2608   45.3687 H   0  0  0  0  0  0  0  0  0  0  0  0
   59.2416   32.3045   47.9845 H   0  0  0  0  0  0  0  0  0  0  0  0
   57.5367   31.9765   47.4919 H   0  0  0  0  0  0  0  0  0  0  0  0
   61.2540   29.6509   44.8485 H   0  0  0  0  0  0  0  0  0  0  0  0
   61.4860   28.6947   46.3597 H   0  0  0  0  0  0  0  0  0  0  0  0
   59.9342   27.6261   44.6619 H   0  0  0  0  0  0  0  0  0  0  0  0
   59.2089   27.9003   46.2942 H   0  0  0  0  0  0  0  0  0  0  0  0
   57.9047   27.6115   43.3839 H   0  0  0  0  0  0  0  0  0  0  0  0
   56.0234   28.9131   42.3944 H   0  0  0  0  0  0  0  0  0  0  0  0
   55.5293   31.2154   43.2121 H   0  0  0  0  0  0  0  0  0  0  0  0
   56.8985   32.2206   45.0338 H   0  0  0  0  0  0  0  0  0  0  0  0
   61.1029   35.3812   47.9925 H   0  0  0  0  0  0  0  0  0  0  0  0
   59.7643   34.2884   48.4915 H   0  0  0  0  0  0  0  0  0  0  0  0
   61.8498   34.5115   50.0640 H   0  0  0  0  0  0  0  0  0  0  0  0
   61.2066   32.8632   49.6986 H   0  0  0  0  0  0  0  0  0  0  0  0
  1  2  1  0
  2  3  1  0
  3  4  2  0
  4  5  1  0
  5  6  2  0
  6  7  1  0
  7  8  2  0
  8  9  1  0
  9 10  1  0
 10 11  1  0
 11 12  1  0
 12 13  1  0
 13 14  1  0
 14 15  1  0
 15 16  1  0
 16 17  1  0
 17 18  2  0
 17 19  1  0
 19 20  1  0
 20 21  1  0
 21 22  2  0
 22 23  1  0
 23 24  2  0
 24 25  1  0
 25 26  2  0
 12 27  1  0
 27 28  1  0
  8  3  1  0
 28  9  1  0
 26 16  1  0
 26 21  1  0
  1 29  1  0
  1 30  1  0
  1 31  1  0
  4 32  1  0
  5 33  1  0
  6 34  1  0
  7 35  1  0
 10 36  1  0
 10 37  1  0
 11 38  1  0
 11 39  1  0
 12 40  1  0
 13 41  1  0
 13 42  1  0
 14 43  1  0
 14 44  1  0
 15 45  1  0
 15 46  1  0
 19 47  1  0
 19 48  1  0
 20 49  1  0
 20 50  1  0
 22 51  1  0
 23 52  1  0
 24 53  1  0
 25 54  1  0
 27 55  1  0
 27 56  1  0
 28 57  1  0
 28 58  1  0
M  CHG  1  12   1
M  END
>  <UniqueID>  (45) 
44

>  <SMILES>  (45) 
COc1ccccc1N1CC[NH+](CCCN2C(=O)CCc3ccccc32)CC1

>  <Energy>  (45) 
74.58603640260552

>  <Genealogy>  (45) 
COc1ccccc1N1CC[NH+](CCCN2C(=O)CCc3ccccc32)CC1 (protonated)
COc1ccccc1N1CC[NH+](CCCN2C(=O)CCc3ccccc32)CC1 (3D coordinates assigned)
COc1ccccc1N1CC[NH+](CCCN2C(=O)CCc3ccccc32)CC1 (nonaromatic ring conformer: 74.58603640260552 kcal/mol)

>  <smiles>  (45) 
COc1ccccc1N1CCN(CCCN2C(=O)CCc3ccccc32)CC1

>  <score_type>  (45) 
oracle

>  <origin>  (45) 
adg

>  <m_score__min__energy>  (45) 
-7.0199999999999996

>  <m_primary>  (45) 
energy

$$$$
45:0
     RDKit          3D

 50 53  0  0  0  0  0  0  0  0999 V2000
   59.6460   35.3180   46.1430 C   0  0  0  0  0  0  0  0  0  0  0  0
   59.2150   34.8760   44.8590 O   0  0  0  0  0  0  0  0  0  0  0  0
   58.6100   33.6360   44.6120 C   0  0  0  0  0  0  0  0  0  0  0  0
   58.0900   32.9210   45.6970 C   0  0  0  0  0  0  0  0  0  0  0  0
   57.4760   31.6830   45.5030 C   0  0  0  0  0  0  0  0  0  0  0  0
   57.3750   31.1360   44.2160 C   0  0  0  0  0  0  0  0  0  0  0  0
   56.4850   29.6330   43.9550 S   0  0  0  0  0  0  0  0  0  0  0  0
   55.3040   29.6210   44.8850 O   0  0  0  0  0  0  0  0  0  0  0  0
   55.9520   29.6210   42.5480 O   0  0  0  0  0  0  0  0  0  0  0  0
   57.4320   28.1840   44.2310 N   0  0  0  0  0  0  0  0  0  0  0  0
   58.8850   28.4280   44.1210 C   0  0  0  0  0  0  0  0  0  0  0  0
   59.5000   29.1000   45.3680 C   0  0  0  0  0  0  0  0  0  0  0  0
   58.7100   28.8940   46.6020 N   0  0  0  0  0  0  0  0  0  0  0  0
   59.5760   29.0640   47.7920 C   0  0  0  0  0  0  0  0  0  0  0  0
   60.1820   30.4420   47.8260 C   0  0  0  0  0  0  0  0  0  0  0  0
   59.4340   31.5300   48.3440 C   0  0  0  0  0  0  0  0  0  0  0  0
   59.9890   32.8220   48.3910 C   0  0  0  0  0  0  0  0  0  0  0  0
   61.2860   32.9890   47.9190 C   0  0  0  0  0  0  0  0  0  0  0  0
   62.0050   31.9550   47.4150 C   0  0  0  0  0  0  0  0  0  0  0  0
   61.4920   30.6640   47.3450 C   0  0  0  0  0  0  0  0  0  0  0  0
   63.2480   32.4100   47.0180 O   0  0  0  0  0  0  0  0  0  0  0  0
   63.3130   33.8170   47.2920 C   0  0  0  0  0  0  0  0  0  0  0  0
   62.0390   34.1450   47.8640 O   0  0  0  0  0  0  0  0  0  0  0  0
   58.0830   27.5630   46.5950 C   0  0  0  0  0  0  0  0  0  0  0  0
   57.0370   27.4740   45.4740 C   0  0  0  0  0  0  0  0  0  0  0  0
   57.8940   31.8480   43.1250 C   0  0  0  0  0  0  0  0  0  0  0  0
   58.5140   33.0860   43.3200 C   0  0  0  0  0  0  0  0  0  0  0  0
   59.1044   34.7626   46.9228 H   0  0  0  0  0  0  0  0  0  0  0  0
   60.7262   35.1393   46.2488 H   0  0  0  0  0  0  0  0  0  0  0  0
   59.4402   36.3934   46.2488 H   0  0  0  0  0  0  0  0  0  0  0  0
   58.1660   33.3387   46.7118 H   0  0  0  0  0  0  0  0  0  0  0  0
   57.0690   31.1333   46.3645 H   0  0  0  0  0  0  0  0  0  0  0  0
   57.1840   27.5560   43.4300 H   0  0  0  0  0  0  0  0  0  0  0  0
   59.3879   27.4624   43.9637 H   0  0  0  0  0  0  0  0  0  0  0  0
   59.0308   29.1206   43.2789 H   0  0  0  0  0  0  0  0  0  0  0  0
   60.5064   28.6850   45.5260 H   0  0  0  0  0  0  0  0  0  0  0  0
   59.5196   30.1827   45.1744 H   0  0  0  0  0  0  0  0  0  0  0  0
   58.9734   28.9136   48.6999 H   0  0  0  0  0  0  0  0  0  0  0  0
   60.3890   28.3248   47.7422 H   0  0  0  0  0  0  0  0  0  0  0  0
   58.4111   31.3622   48.7122 H   0  0  0  0  0  0  0  0  0  0  0  0
   59.4154   33.6724   48.7883 H   0  0  0  0  0  0  0  0  0  0  0  0
   62.0888   29.8397   46.9273 H   0  0  0  0  0  0  0  0  0  0  0  0
   64.1234   34.0350   48.0032 H   0  0  0  0  0  0  0  0  0  0  0  0
   63.5217   34.4044   46.3857 H   0  0  0  0  0  0  0  0  0  0  0  0
   58.8564   26.7981   46.4315 H   0  0  0  0  0  0  0  0  0  0  0  0
   57.5868   27.3955   47.5623 H   0  0  0  0  0  0  0  0  0  0  0  0
   56.8769   26.4130   45.2319 H   0  0  0  0  0  0  0  0  0  0  0  0
   56.1243   27.9619   45.8466 H   0  0  0  0  0  0  0  0  0  0  0  0
   57.8129   31.4304   42.1106 H   0  0  0  0  0  0  0  0  0  0  0  0
   58.9285   33.6324   42.4600 H   0  0  0  0  0  0  0  0  0  0  0  0
  1  2  1  0
  2  3  1  0
  3  4  2  0
  4  5  1  0
  5  6  2  0
  6  7  1  0
  7  8  2  0
  7  9  2  0
  7 10  1  0
 10 11  1  0
 11 12  1  0
 12 13  1  0
 13 14  1  0
 14 15  1  0
 15 16  2  0
 16 17  1  0
 17 18  2  0
 18 19  1  0
 19 20  2  0
 19 21  1  0
 21 22  1  0
 22 23  1  0
 13 24  1  0
 24 25  1  0
  6 26  1  0
 26 27  2  0
 27  3  1  0
 25 10  1  0
 20 15  1  0
 23 18  1  0
  1 28  1  0
  1 29  1  0
  1 30  1  0
  4 31  1  0
  5 32  1  0
 10 33  1  0
 11 34  1  0
 11 35  1  0
 12 36  1  0
 12 37  1  0
 14 38  1  0
 14 39  1  0
 16 40  1  0
 17 41  1  0
 20 42  1  0
 22 43  1  0
 22 44  1  0
 24 45  1  0
 24 46  1  0
 25 47  1  0
 25 48  1  0
 26 49  1  0
 27 50  1  0
M  CHG  1  10   1
M  END
>  <UniqueID>  (46) 
45

>  <SMILES>  (46) 
COc1ccc(S(=O)(=O)[NH+]2CCN(Cc3ccc4c(c3)OCO4)CC2)cc1

>  <Energy>  (46) 
87.7691258771916

>  <Genealogy>  (46) 
COc1ccc(S(=O)(=O)[NH+]2CCN(Cc3ccc4c(c3)OCO4)CC2)cc1 (protonated)
COc1ccc(S(=O)(=O)[NH+]2CCN(Cc3ccc4c(c3)OCO4)CC2)cc1 (3D coordinates assigned)
COc1ccc(S(=O)(=O)[NH+]2CCN(Cc3ccc4c(c3)OCO4)CC2)cc1 (nonaromatic ring conformer: 87.7691258771916 kcal/mol)

>  <smiles>  (46) 
COc1ccc(S(=O)(=O)N2CCN(Cc3ccc4c(c3)OCO4)CC2)cc1

>  <score_type>  (46) 
oracle

>  <origin>  (46) 
adg

>  <m_score__min__energy>  (46) 
-7.0199999999999996

>  <m_primary>  (46) 
energy

$$$$
46:0
     RDKit          3D

 46 47  0  0  0  0  0  0  0  0999 V2000
   59.9810   27.4200   48.2480 C   0  0  0  0  0  0  0  0  0  0  0  0
   59.7240   28.5430   47.2880 C   0  0  0  0  0  0  0  0  0  0  0  0
   60.0770   29.8520   47.5510 C   0  0  0  0  0  0  0  0  0  0  0  0
   59.6130   30.5640   46.4700 C   0  0  0  0  0  0  0  0  0  0  0  0
   59.6870   32.0580   46.2980 C   0  0  0  0  0  0  0  0  0  0  0  0
   58.3680   32.7180   46.1700 N   0  0  0  0  0  0  0  0  0  0  0  0
   58.1270   33.8220   47.1140 C   0  0  0  0  0  0  0  0  0  0  0  0
   57.8920   32.9690   44.7920 C   0  0  0  0  0  0  0  0  0  0  0  0
   57.2450   31.7730   44.1340 C   0  0  0  0  0  0  0  0  0  0  0  0
   56.6420   30.7860   44.8320 N   0  0  0  0  0  0  0  0  0  0  0  0
   56.2470   29.9020   43.8940 C   0  0  0  0  0  0  0  0  0  0  0  0
   56.6290   30.3480   42.6500 C   0  0  0  0  0  0  0  0  0  0  0  0
   57.2560   31.5270   42.8040 N   0  0  0  0  0  0  0  0  0  0  0  0
   57.8930   32.3040   41.7440 C   0  0  0  0  0  0  0  0  0  0  0  0
   59.0620   29.7130   45.5860 N   0  0  0  0  0  0  0  0  0  0  0  0
   59.1220   28.4720   46.0640 N   0  0  0  0  0  0  0  0  0  0  0  0
   58.4730   27.3010   45.4080 C   0  0  0  0  0  0  0  0  0  0  0  0
   57.0230   27.1800   45.9100 C   0  0  0  0  0  0  0  0  0  0  0  0
   58.4380   27.4800   43.8700 C   0  0  0  0  0  0  0  0  0  0  0  0
   59.2460   25.9920   45.6950 C   0  0  0  0  0  0  0  0  0  0  0  0
   59.8957   27.7926   49.2795 H   0  0  0  0  0  0  0  0  0  0  0  0
   59.2424   26.6215   48.0844 H   0  0  0  0  0  0  0  0  0  0  0  0
   60.9934   27.0222   48.0844 H   0  0  0  0  0  0  0  0  0  0  0  0
   60.6114   30.2395   48.4309 H   0  0  0  0  0  0  0  0  0  0  0  0
   60.2016   32.4814   47.1732 H   0  0  0  0  0  0  0  0  0  0  0  0
   60.2265   32.2426   45.3573 H   0  0  0  0  0  0  0  0  0  0  0  0
   58.2088   33.4473   48.1450 H   0  0  0  0  0  0  0  0  0  0  0  0
   58.8736   34.6133   46.9511 H   0  0  0  0  0  0  0  0  0  0  0  0
   57.1186   34.2302   46.9511 H   0  0  0  0  0  0  0  0  0  0  0  0
   57.1556   33.7855   44.8246 H   0  0  0  0  0  0  0  0  0  0  0  0
   58.7789   33.2195   44.1914 H   0  0  0  0  0  0  0  0  0  0  0  0
   55.7026   28.9671   44.0929 H   0  0  0  0  0  0  0  0  0  0  0  0
   56.4522   29.8302   41.6957 H   0  0  0  0  0  0  0  0  0  0  0  0
   58.5301   33.0812   42.1913 H   0  0  0  0  0  0  0  0  0  0  0  0
   58.5089   31.6386   41.1212 H   0  0  0  0  0  0  0  0  0  0  0  0
   57.1198   32.7774   41.1212 H   0  0  0  0  0  0  0  0  0  0  0  0
   58.6480   29.9980   44.6740 H   0  0  0  0  0  0  0  0  0  0  0  0
   57.0147   27.1793   47.0100 H   0  0  0  0  0  0  0  0  0  0  0  0
   56.4344   28.0321   45.5394 H   0  0  0  0  0  0  0  0  0  0  0  0
   56.5837   26.2421   45.5394 H   0  0  0  0  0  0  0  0  0  0  0  0
   58.2321   28.5331   43.6280 H   0  0  0  0  0  0  0  0  0  0  0  0
   59.4100   27.1894   43.4448 H   0  0  0  0  0  0  0  0  0  0  0  0
   57.6471   26.8447   43.4448 H   0  0  0  0  0  0  0  0  0  0  0  0
   59.3314   25.8474   46.7821 H   0  0  0  0  0  0  0  0  0  0  0  0
   58.7048   25.1422   45.2535 H   0  0  0  0  0  0  0  0  0  0  0  0
   60.2515   26.0556   45.2535 H   0  0  0  0  0  0  0  0  0  0  0  0
  1  2  1  0
  2  3  2  0
  3  4  1  0
  4  5  1  0
  5  6  1  0
  6  7  1  0
  6  8  1  0
  8  9  1  0
  9 10  2  0
 10 11  1  0
 11 12  2  0
 12 13  1  0
 13 14  1  0
  4 15  2  0
 15 16  1  0
 16 17  1  0
 17 18  1  0
 17 19  1  0
 17 20  1  0
 16  2  1  0
 13  9  1  0
  1 21  1  0
  1 22  1  0
  1 23  1  0
  3 24  1  0
  5 25  1  0
  5 26  1  0
  7 27  1  0
  7 28  1  0
  7 29  1  0
  8 30  1  0
  8 31  1  0
 11 32  1  0
 12 33  1  0
 14 34  1  0
 14 35  1  0
 14 36  1  0
 15 37  1  0
 18 38  1  0
 18 39  1  0
 18 40  1  0
 19 41  1  0
 19 42  1  0
 19 43  1  0
 20 44  1  0
 20 45  1  0
 20 46  1  0
M  CHG  1  15   1
M  END
>  <UniqueID>  (47) 
46

>  <SMILES>  (47) 
Cc1cc(CN(C)Cc2nccn2C)[nH+]n1C(C)(C)C

>  <Energy>  (47) 
109.18107885688484

>  <Genealogy>  (47) 
Cc1cc(CN(C)Cc2nccn2C)[nH+]n1C(C)(C)C (protonated)
Cc1cc(CN(C)Cc2nccn2C)[nH+]n1C(C)(C)C (3D coordinates assigned)
Cc1cc(CN(C)Cc2nccn2C)[nH+]n1C(C)(C)C (optimized conformer: 109.18107885688484 kcal/mol)

>  <smiles>  (47) 
Cc1cc(CN(C)Cc2nccn2C)nn1C(C)(C)C

>  <score_type>  (47) 
oracle

>  <origin>  (47) 
adg

>  <m_score__min__energy>  (47) 
-5.0499999999999998

>  <m_primary>  (47) 
energy

$$$$
47:0
     RDKit          3D

 58 58  0  0  0  0  0  0  0  0999 V2000
   64.1200   32.7090   48.7040 C   0  0  0  0  0  0  0  0  0  0  0  0
   62.8020   32.9600   48.0760 N   0  0  0  0  0  0  0  0  0  0  0  0
   63.0330   33.5630   46.7370 C   0  0  0  0  0  0  0  0  0  0  0  0
   62.0560   33.9210   48.9270 C   0  0  0  0  0  0  0  0  0  0  0  0
   62.0770   31.6540   47.9880 C   0  0  0  0  0  0  0  0  0  0  0  0
   60.9420   31.6000   46.9360 C   0  0  0  0  0  0  0  0  0  0  0  0
   60.1770   30.2720   46.9860 C   0  0  0  0  0  0  0  0  0  0  0  0
   59.9260   29.5940   45.3010 S   0  0  0  0  0  0  0  0  0  0  0  0
   59.8770   27.8260   45.7600 C   0  0  0  0  0  0  0  0  0  0  0  0
   58.7240   27.1070   45.0500 C   0  0  0  0  0  0  0  0  0  0  0  0
   57.8280   28.0910   44.2770 C   0  0  0  0  0  0  0  0  0  0  0  0
   56.6670   28.6090   45.1430 C   0  0  0  0  0  0  0  0  0  0  0  0
   55.9350   29.7620   44.4470 C   0  0  0  0  0  0  0  0  0  0  0  0
   56.6350   30.1540   43.1350 C   0  0  0  0  0  0  0  0  0  0  0  0
   57.9010   30.8770   43.3590 N   0  0  0  0  0  0  0  0  0  0  0  0
   57.7980   32.3460   43.2150 C   0  0  0  0  0  0  0  0  0  0  0  0
   58.1360   33.0850   44.4900 C   0  0  0  0  0  0  0  0  0  0  0  0
   59.1450   34.0660   44.5000 C   0  0  0  0  0  0  0  0  0  0  0  0
   59.4840   34.7210   45.6920 C   0  0  0  0  0  0  0  0  0  0  0  0
   58.8170   34.4060   46.8800 C   0  0  0  0  0  0  0  0  0  0  0  0
   57.8140   33.4310   46.8770 C   0  0  0  0  0  0  0  0  0  0  0  0
   57.4700   32.7730   45.6850 C   0  0  0  0  0  0  0  0  0  0  0  0
   64.0143   32.7291   49.7987 H   0  0  0  0  0  0  0  0  0  0  0  0
   64.4942   31.7235   48.3898 H   0  0  0  0  0  0  0  0  0  0  0  0
   64.8302   33.4880   48.3898 H   0  0  0  0  0  0  0  0  0  0  0  0
   63.4242   34.5841   46.8572 H   0  0  0  0  0  0  0  0  0  0  0  0
   63.7616   32.9543   46.1815 H   0  0  0  0  0  0  0  0  0  0  0  0
   62.0842   33.5969   46.1815 H   0  0  0  0  0  0  0  0  0  0  0  0
   62.2363   33.6888   49.9870 H   0  0  0  0  0  0  0  0  0  0  0  0
   62.3990   34.9439   48.7123 H   0  0  0  0  0  0  0  0  0  0  0  0
   60.9800   33.8424   48.7123 H   0  0  0  0  0  0  0  0  0  0  0  0
   62.8107   30.8736   47.7375 H   0  0  0  0  0  0  0  0  0  0  0  0
   61.5947   31.5059   48.9655 H   0  0  0  0  0  0  0  0  0  0  0  0
   60.2384   32.4230   47.1298 H   0  0  0  0  0  0  0  0  0  0  0  0
   61.3973   31.6932   45.9390 H   0  0  0  0  0  0  0  0  0  0  0  0
   60.7514   29.5483   47.5830 H   0  0  0  0  0  0  0  0  0  0  0  0
   59.1920   30.4520   47.4415 H   0  0  0  0  0  0  0  0  0  0  0  0
   60.8276   27.3530   45.4725 H   0  0  0  0  0  0  0  0  0  0  0  0
   59.7223   27.7496   46.8464 H   0  0  0  0  0  0  0  0  0  0  0  0
   59.1419   26.3751   44.3432 H   0  0  0  0  0  0  0  0  0  0  0  0
   58.1078   26.6105   45.8141 H   0  0  0  0  0  0  0  0  0  0  0  0
   58.4377   28.9464   43.9506 H   0  0  0  0  0  0  0  0  0  0  0  0
   57.3999   27.5582   43.4151 H   0  0  0  0  0  0  0  0  0  0  0  0
   55.9572   27.7879   45.3216 H   0  0  0  0  0  0  0  0  0  0  0  0
   57.0769   28.9777   46.0949 H   0  0  0  0  0  0  0  0  0  0  0  0
   54.9040   29.4499   44.2242 H   0  0  0  0  0  0  0  0  0  0  0  0
   55.9401   30.6334   45.1183 H   0  0  0  0  0  0  0  0  0  0  0  0
   56.8488   29.2389   42.5632 H   0  0  0  0  0  0  0  0  0  0  0  0
   55.9601   30.8279   42.5869 H   0  0  0  0  0  0  0  0  0  0  0  0
   58.2630   30.6640   44.3230 H   0  0  0  0  0  0  0  0  0  0  0  0
   58.6080   30.5230   42.6700 H   0  0  0  0  0  0  0  0  0  0  0  0
   58.4918   32.6713   42.4258 H   0  0  0  0  0  0  0  0  0  0  0  0
   56.7536   32.5815   42.9627 H   0  0  0  0  0  0  0  0  0  0  0  0
   59.6704   34.3201   43.5676 H   0  0  0  0  0  0  0  0  0  0  0  0
   60.2762   35.4842   45.6929 H   0  0  0  0  0  0  0  0  0  0  0  0
   59.0803   34.9235   47.8143 H   0  0  0  0  0  0  0  0  0  0  0  0
   57.2926   33.1787   47.8121 H   0  0  0  0  0  0  0  0  0  0  0  0
   56.6765   32.0112   45.6881 H   0  0  0  0  0  0  0  0  0  0  0  0
  1  2  1  0
  2  3  1  0
  2  4  1  0
  2  5  1  0
  5  6  1  0
  6  7  1  0
  7  8  1  0
  8  9  1  0
  9 10  1  0
 10 11  1  0
 11 12  1  0
 12 13  1  0
 13 14  1  0
 14 15  1  0
 15 16  1  0
 16 17  1  0
 17 18  2  0
 18 19  1  0
 19 20  2  0
 20 21  1  0
 21 22  2  0
 22 17  1  0
  1 23  1  0
  1 24  1  0
  1 25  1  0
  3 26  1  0
  3 27  1  0
  3 28  1  0
  4 29  1  0
  4 30  1  0
  4 31  1  0
  5 32  1  0
  5 33  1  0
  6 34  1  0
  6 35  1  0
  7 36  1  0
  7 37  1  0
  9 38  1  0
  9 39  1  0
 10 40  1  0
 10 41  1  0
 11 42  1  0
 11 43  1  0
 12 44  1  0
 12 45  1  0
 13 46  1  0
 13 47  1  0
 14 48  1  0
 14 49  1  0
 15 50  1  0
 15 51  1  0
 16 52  1  0
 16 53  1  0
 18 54  1  0
 19 55  1  0
 20 56  1  0
 21 57  1  0
 22 58  1  0
M  CHG  2   2   1  15   1
M  END
>  <UniqueID>  (48) 
47

>  <SMILES>  (48) 
C[N+](C)(C)CCCSCCCCCC[NH2+]Cc1ccccc1

>  <Energy>  (48) 
49.4163947395401

>  <Genealogy>  (48) 
C[N+](C)(C)CCCSCCCCCC[NH2+]Cc1ccccc1 (protonated)
C[N+](C)(C)CCCSCCCCCC[NH2+]Cc1ccccc1 (3D coordinates assigned)
C[N+](C)(C)CCCSCCCCCC[NH2+]Cc1ccccc1 (optimized conformer: 49.4163947395401 kcal/mol)

>  <smiles>  (48) 
C[N+](C)(C)CCCSCCCCCCNCc1ccccc1

>  <score_type>  (48) 
oracle

>  <origin>  (48) 
adg

>  <m_score__min__energy>  (48) 
-3.9300000000000002

>  <m_primary>  (48) 
energy

$$$$
48:0
     RDKit          3D

 29 30  0  0  0  0  0  0  0  0999 V2000
   63.6540   33.0580   47.2260 C   0  0  0  0  0  0  0  0  0  0  0  0
   62.4060   33.7940   46.7410 C   0  0  0  0  0  0  0  0  0  0  0  0
   61.3720   34.0110   47.8590 C   0  0  0  0  0  0  0  0  0  0  0  0
   60.0290   34.5720   47.3640 C   0  0  0  0  0  0  0  0  0  0  0  0
   59.2510   33.5470   46.6480 N   0  0  0  0  0  0  0  0  0  0  0  0
   58.8510   32.4470   47.3140 N   0  0  0  0  0  0  0  0  0  0  0  0
   58.1550   31.4760   46.7120 N   0  0  0  0  0  0  0  0  0  0  0  0
   57.8540   31.6160   45.4030 C   0  0  0  0  0  0  0  0  0  0  0  0
   57.1620   30.7740   44.5650 C   0  0  0  0  0  0  0  0  0  0  0  0
   56.5610   29.4740   44.8950 C   0  0  0  0  0  0  0  0  0  0  0  0
   55.1460   29.3000   44.8560 N   0  0  0  0  0  0  0  0  0  0  0  0
   57.2990   28.5060   45.2150 O   0  0  0  0  0  0  0  0  0  0  0  0
   57.1160   31.3440   43.3350 N   0  0  0  0  0  0  0  0  0  0  0  0
   57.7840   32.5180   43.4710 C   0  0  0  0  0  0  0  0  0  0  0  0
   58.2370   32.6900   44.7270 N   0  0  0  0  0  0  0  0  0  0  0  0
   58.9390   33.6810   45.3170 C   0  0  0  0  0  0  0  0  0  0  0  0
   59.2940   34.6950   44.6540 O   0  0  0  0  0  0  0  0  0  0  0  0
   63.6699   33.0486   48.3258 H   0  0  0  0  0  0  0  0  0  0  0  0
   63.6390   32.0241   46.8507 H   0  0  0  0  0  0  0  0  0  0  0  0
   64.5515   33.5714   46.8507 H   0  0  0  0  0  0  0  0  0  0  0  0
   62.7076   34.7751   46.3455 H   0  0  0  0  0  0  0  0  0  0  0  0
   61.9329   33.1712   45.9675 H   0  0  0  0  0  0  0  0  0  0  0  0
   61.1841   33.0445   48.3496 H   0  0  0  0  0  0  0  0  0  0  0  0
   61.7964   34.7576   48.5464 H   0  0  0  0  0  0  0  0  0  0  0  0
   59.4473   34.9239   48.2288 H   0  0  0  0  0  0  0  0  0  0  0  0
   60.2340   35.3998   46.6692 H   0  0  0  0  0  0  0  0  0  0  0  0
   59.0810   32.3340   48.3260 H   0  0  0  0  0  0  0  0  0  0  0  0
   54.5740   29.3540   45.7270 H   0  0  0  0  0  0  0  0  0  0  0  0
   57.9364   33.2400   42.6552 H   0  0  0  0  0  0  0  0  0  0  0  0
  1  2  1  0
  2  3  1  0
  3  4  1  0
  4  5  1  0
  5  6  1  0
  6  7  2  0
  7  8  1  0
  8  9  2  0
  9 10  1  0
 10 11  1  0
 10 12  2  0
  9 13  1  0
 13 14  2  0
 14 15  1  0
 15 16  1  0
 16 17  2  0
 16  5  1  0
 15  8  1  0
  1 18  1  0
  1 19  1  0
  1 20  1  0
  2 21  1  0
  2 22  1  0
  3 23  1  0
  3 24  1  0
  4 25  1  0
  4 26  1  0
  6 27  1  0
 11 28  1  0
 14 29  1  0
M  CHG  2   6   1  11  -1
M  END
>  <UniqueID>  (49) 
48

>  <SMILES>  (49) 
CCCCn1[nH+]nc2c(C([NH-])=O)ncn2c1=O

>  <Energy>  (49) 
62.67555101474073

>  <Genealogy>  (49) 
CCCCn1[nH+]nc2c(C([NH-])=O)ncn2c1=O (protonated)
CCCCn1[nH+]nc2c(C([NH-])=O)ncn2c1=O (3D coordinates assigned)
CCCCn1[nH+]nc2c(C([NH-])=O)ncn2c1=O (optimized conformer: 62.67555101474073 kcal/mol)

>  <smiles>  (49) 
CCCCn1nnc2c(C(N)=O)ncn2c1=O

>  <score_type>  (49) 
oracle

>  <origin>  (49) 
adg

>  <m_score__min__energy>  (49) 
-7.9199999999999999

>  <m_primary>  (49) 
energy

$$$$
49:0
     RDKit          3D

 50 54  0  0  0  0  0  0  0  0999 V2000
   56.2530   25.6610   45.7820 C   0  0  0  0  0  0  0  0  0  0  0  0
   56.0410   27.0570   45.6330 O   0  0  0  0  0  0  0  0  0  0  0  0
   57.0410   27.9480   45.9720 C   0  0  0  0  0  0  0  0  0  0  0  0
   58.1560   27.5550   46.6540 C   0  0  0  0  0  0  0  0  0  0  0  0
   59.1450   28.4520   46.9860 C   0  0  0  0  0  0  0  0  0  0  0  0
   59.0700   29.8090   46.6490 C   0  0  0  0  0  0  0  0  0  0  0  0
   60.1370   30.7140   47.0310 C   0  0  0  0  0  0  0  0  0  0  0  0
   60.9490   30.4850   48.0790 N   0  0  0  0  0  0  0  0  0  0  0  0
   61.8590   31.4630   48.2090 C   0  0  0  0  0  0  0  0  0  0  0  0
   62.9010   31.7450   49.0680 C   0  0  0  0  0  0  0  0  0  0  0  0
   63.6830   32.8740   48.9390 C   0  0  0  0  0  0  0  0  0  0  0  0
   64.7880   33.1740   49.8480 C   0  0  0  0  0  0  0  0  0  0  0  0
   64.6550   33.6180   51.1160 N   0  0  0  0  0  0  0  0  0  0  0  0
   65.8930   33.7880   51.6570 C   0  0  0  0  0  0  0  0  0  0  0  0
   66.3710   34.2050   52.8760 C   0  0  0  0  0  0  0  0  0  0  0  0
   67.7390   34.2570   53.0840 C   0  0  0  0  0  0  0  0  0  0  0  0
   68.6620   33.9100   52.1270 C   0  0  0  0  0  0  0  0  0  0  0  0
   68.1820   33.4890   50.9000 C   0  0  0  0  0  0  0  0  0  0  0  0
   66.8120   33.4350   50.6840 C   0  0  0  0  0  0  0  0  0  0  0  0
   66.1100   33.0660   49.5950 N   0  0  0  0  0  0  0  0  0  0  0  0
   63.4190   33.7690   47.9050 C   0  0  0  0  0  0  0  0  0  0  0  0
   62.3780   33.5030   47.0340 C   0  0  0  0  0  0  0  0  0  0  0  0
   61.6140   32.3610   47.1940 C   0  0  0  0  0  0  0  0  0  0  0  0
   60.5610   31.8680   46.5030 N   0  0  0  0  0  0  0  0  0  0  0  0
   57.9430   30.1870   45.9600 C   0  0  0  0  0  0  0  0  0  0  0  0
   57.7270   31.4900   45.5490 O   0  0  0  0  0  0  0  0  0  0  0  0
   58.1170   31.8380   44.2070 C   0  0  0  0  0  0  0  0  0  0  0  0
   56.9360   29.2740   45.6220 C   0  0  0  0  0  0  0  0  0  0  0  0
   55.8050   29.6680   44.9310 O   0  0  0  0  0  0  0  0  0  0  0  0
   55.8280   29.7200   43.5310 C   0  0  0  0  0  0  0  0  0  0  0  0
   56.2914   25.4081   46.8518 H   0  0  0  0  0  0  0  0  0  0  0  0
   55.4280   25.1118   45.3048 H   0  0  0  0  0  0  0  0  0  0  0  0
   57.2039   25.3815   45.3048 H   0  0  0  0  0  0  0  0  0  0  0  0
   58.2662   26.4997   46.9441 H   0  0  0  0  0  0  0  0  0  0  0  0
   60.0263   28.0901   47.5359 H   0  0  0  0  0  0  0  0  0  0  0  0
   63.1164   31.0429   49.8869 H   0  0  0  0  0  0  0  0  0  0  0  0
   65.6750   34.4941   53.6772 H   0  0  0  0  0  0  0  0  0  0  0  0
   68.1055   34.5932   54.0652 H   0  0  0  0  0  0  0  0  0  0  0  0
   69.7419   33.9650   52.3291 H   0  0  0  0  0  0  0  0  0  0  0  0
   68.8808   33.1992   50.1014 H   0  0  0  0  0  0  0  0  0  0  0  0
   66.5020   32.7350   48.6640 H   0  0  0  0  0  0  0  0  0  0  0  0
   64.0302   34.6753   47.7827 H   0  0  0  0  0  0  0  0  0  0  0  0
   62.1573   34.2007   46.2127 H   0  0  0  0  0  0  0  0  0  0  0  0
   60.1630   32.3560   45.6880 H   0  0  0  0  0  0  0  0  0  0  0  0
   58.9373   32.5700   44.2417 H   0  0  0  0  0  0  0  0  0  0  0  0
   58.4537   30.9348   43.6771 H   0  0  0  0  0  0  0  0  0  0  0  0
   57.2578   32.2750   43.6771 H   0  0  0  0  0  0  0  0  0  0  0  0
   56.2532   30.6813   43.2067 H   0  0  0  0  0  0  0  0  0  0  0  0
   56.4458   28.8965   43.1436 H   0  0  0  0  0  0  0  0  0  0  0  0
   54.8031   29.6231   43.1436 H   0  0  0  0  0  0  0  0  0  0  0  0
  1  2  1  0
  2  3  1  0
  3  4  2  0
  4  5  1  0
  5  6  2  0
  6  7  1  0
  7  8  2  0
  8  9  1  0
  9 10  2  0
 10 11  1  0
 11 12  1  0
 12 13  2  0
 13 14  1  0
 14 15  2  0
 15 16  1  0
 16 17  2  0
 17 18  1  0
 18 19  2  0
 19 20  1  0
 11 21  2  0
 21 22  1  0
 22 23  2  0
 23 24  1  0
  6 25  1  0
 25 26  1  0
 26 27  1  0
 25 28  2  0
 28 29  1  0
 29 30  1  0
 28  3  1  0
 24  7  1  0
 23  9  1  0
 20 12  1  0
 19 14  1  0
  1 31  1  0
  1 32  1  0
  1 33  1  0
  4 34  1  0
  5 35  1  0
 10 36  1  0
 15 37  1  0
 16 38  1  0
 17 39  1  0
 18 40  1  0
 20 41  1  0
 21 42  1  0
 22 43  1  0
 24 44  1  0
 27 45  1  0
 27 46  1  0
 27 47  1  0
 30 48  1  0
 30 49  1  0
 30 50  1  0
M  END
>  <smiles>  (50) 
COc1ccc(-c2nc3cc(-c4nc5ccccc5[nH]4)ccc3[nH]2)c(OC)c1OC

>  <score_type>  (50) 
oracle

>  <origin>  (50) 
adg

>  <m_score__min__energy>  (50) 
-8.0299999999999994

>  <m_primary>  (50) 
energy

$$$$
