0:0
     RDKit          3D

 56 59  0  0  0  0  0  0  0  0999 V2000
   59.7830   35.0530   45.9820 C   0  0  0  0  0  0  0  0  0  0  0  0
   60.6560   34.0060   46.3920 O   0  0  0  0  0  0  0  0  0  0  0  0
   60.2520   32.8350   47.0550 C   0  0  0  0  0  0  0  0  0  0  0  0
   59.8320   31.6990   46.3370 C   0  0  0  0  0  0  0  0  0  0  0  0
   59.4360   30.5290   47.0000 C   0  0  0  0  0  0  0  0  0  0  0  0
   59.4500   30.4960   48.4030 C   0  0  0  0  0  0  0  0  0  0  0  0
   59.8520   31.6250   49.1270 C   0  0  0  0  0  0  0  0  0  0  0  0
   60.2600   32.8000   48.4710 C   0  0  0  0  0  0  0  0  0  0  0  0
   60.6950   33.9920   49.3140 C   0  0  0  0  0  0  0  0  0  0  0  0
   60.2410   33.8580   50.7730 C   0  0  0  0  0  0  0  0  0  0  0  0
   62.2050   34.2450   49.2120 C   0  0  0  0  0  0  0  0  0  0  0  0
   59.0430   29.2370   49.1090 C   0  0  0  0  0  0  0  0  0  0  0  0
   59.6360   28.0410   48.3650 C   0  0  0  0  0  0  0  0  0  0  0  0
   59.1280   27.9470   46.9020 C   0  0  2  0  0  0  0  0  0  0  0  0
   58.8880   29.3530   46.2090 C   0  0  1  0  0  0  0  0  0  0  0  0
   57.3920   29.6350   45.8880 C   0  0  0  0  0  0  0  0  0  0  0  0
   56.6860   28.5150   45.0810 C   0  0  0  0  0  0  0  0  0  0  0  0
   57.2350   27.0890   45.3950 C   0  0  2  0  0  0  0  0  0  0  0  0
   58.2560   26.6850   44.2850 C   0  0  0  0  0  0  0  0  0  0  0  0
   56.1810   25.9550   45.4930 C   0  0  2  0  0  0  0  0  0  0  0  0
   54.9410   26.3950   45.9990 O   0  0  0  0  0  0  0  0  0  0  0  0
   56.8160   24.9010   46.4300 C   0  0  0  0  0  0  0  0  0  0  0  0
   57.9770   25.5910   47.1650 C   0  0  0  0  0  0  0  0  0  0  0  0
   57.8530   27.0700   46.8040 C   0  0  1  0  0  0  0  0  0  0  0  0
   59.3669   35.5521   46.8695 H   0  0  0  0  0  0  0  0  0  0  0  0
   60.3436   35.7831   45.3798 H   0  0  0  0  0  0  0  0  0  0  0  0
   58.9640   34.6328   45.3798 H   0  0  0  0  0  0  0  0  0  0  0  0
   59.8143   31.7301   45.2376 H   0  0  0  0  0  0  0  0  0  0  0  0
   59.8486   31.5923   50.2265 H   0  0  0  0  0  0  0  0  0  0  0  0
   60.1900   34.8764   48.8983 H   0  0  0  0  0  0  0  0  0  0  0  0
   61.0786   34.1052   51.4418 H   0  0  0  0  0  0  0  0  0  0  0  0
   59.4052   34.5478   50.9617 H   0  0  0  0  0  0  0  0  0  0  0  0
   59.9137   32.8249   50.9617 H   0  0  0  0  0  0  0  0  0  0  0  0
   62.6338   34.3168   50.2224 H   0  0  0  0  0  0  0  0  0  0  0  0
   62.6802   33.4140   48.6702 H   0  0  0  0  0  0  0  0  0  0  0  0
   62.3834   35.1856   48.6702 H   0  0  0  0  0  0  0  0  0  0  0  0
   59.4206   29.2539   50.1420 H   0  0  0  0  0  0  0  0  0  0  0  0
   57.9460   29.1579   49.1292 H   0  0  0  0  0  0  0  0  0  0  0  0
   60.7315   28.1393   48.3535 H   0  0  0  0  0  0  0  0  0  0  0  0
   59.3202   27.1276   48.8903 H   0  0  0  0  0  0  0  0  0  0  0  0
   59.9438   27.4652   46.3431 H   0  0  0  0  0  0  0  0  0  0  0  0
   59.4511   29.2671   45.2680 H   0  0  0  0  0  0  0  0  0  0  0  0
   56.8548   29.7641   46.8392 H   0  0  0  0  0  0  0  0  0  0  0  0
   57.3715   30.5359   45.2572 H   0  0  0  0  0  0  0  0  0  0  0  0
   55.6124   28.5363   45.3197 H   0  0  0  0  0  0  0  0  0  0  0  0
   56.8775   28.7107   44.0156 H   0  0  0  0  0  0  0  0  0  0  0  0
   59.1814   26.3188   44.7537 H   0  0  0  0  0  0  0  0  0  0  0  0
   57.8225   25.8906   43.6597 H   0  0  0  0  0  0  0  0  0  0  0  0
   58.4834   27.5609   43.6597 H   0  0  0  0  0  0  0  0  0  0  0  0
   55.9482   25.5548   44.4952 H   0  0  0  0  0  0  0  0  0  0  0  0
   54.3820   26.7080   45.2410 H   0  0  0  0  0  0  0  0  0  0  0  0
   56.0704   24.5424   47.1549 H   0  0  0  0  0  0  0  0  0  0  0  0
   57.1755   24.0335   45.8571 H   0  0  0  0  0  0  0  0  0  0  0  0
   57.8844   25.4496   48.2519 H   0  0  0  0  0  0  0  0  0  0  0  0
   58.9535   25.1762   46.8745 H   0  0  0  0  0  0  0  0  0  0  0  0
   57.2295   27.5550   47.5696 H   0  0  0  0  0  0  0  0  0  0  0  0
  1  2  1  0
  2  3  1  0
  3  4  2  0
  4  5  1  0
  5  6  2  0
  6  7  1  0
  7  8  2  0
  8  9  1  0
  9 10  1  0
  9 11  1  0
  6 12  1  0
 12 13  1  0
 13 14  1  0
 14 15  1  0
 15 16  1  0
 16 17  1  0
 17 18  1  0
 18 19  1  6
 18 20  1  0
 20 21  1  0
 20 22  1  0
 22 23  1  0
 23 24  1  0
  8  3  1  0
 24 14  1  0
 15  5  1  0
 24 18  1  0
  1 25  1  0
  1 26  1  0
  1 27  1  0
  4 28  1  0
  7 29  1  0
  9 30  1  0
 10 31  1  0
 10 32  1  0
 10 33  1  0
 11 34  1  0
 11 35  1  0
 11 36  1  0
 12 37  1  0
 12 38  1  0
 13 39  1  0
 13 40  1  0
 14 41  1  6
 15 42  1  6
 16 43  1  0
 16 44  1  0
 17 45  1  0
 17 46  1  0
 19 47  1  0
 19 48  1  0
 19 49  1  0
 20 50  1  6
 21 51  1  0
 22 52  1  0
 22 53  1  0
 23 54  1  0
 23 55  1  0
 24 56  1  1
M  END
>  <UniqueID>  (1) 
1

>  <SMILES>  (1) 
COc1cc2c(cc1C(C)C)CC[C@H]1C3CCC(O)C3(C)CC[C@@H]21

>  <Energy>  (1) 
78.93549801852093

>  <Genealogy>  (1) 
COc1cc2c(cc1C(C)C)CC[C@H]1C3CCC(O)C3(C)CC[C@@H]21 (chirality)
COc1cc2c(cc1C(C)C)CC[C@H]1C3CCC(O)C3(C)CC[C@@H]21 (3D coordinates assigned)
COc1cc2c(cc1C(C)C)CC[C@H]1C3CCC(O)C3(C)CC[C@@H]21 (nonaromatic ring conformer: 78.93549801852093 kcal/mol)

>  <smiles>  (1) 
COc1cc2c(cc1C(C)C)CCC1C2CCC2(C)C(O)CCC12

>  <score_type>  (1) 
oracle

>  <origin>  (1) 
adg

>  <m_score__min__energy>  (1) 
-8.7300000000000004

>  <m_primary>  (1) 
energy

$$$$
1:0
     RDKit          3D

 78 83  0  0  1  0  0  0  0  0999 V2000
   60.2840   29.2180   48.9470 C   0  0  0  0  0  0  0  0  0  0  0  0
   59.3550   28.4550   48.2110 O   0  0  0  0  0  0  0  0  0  0  0  0
   58.8160   28.9260   47.0190 C   0  0  0  0  0  0  0  0  0  0  0  0
   58.6880   30.2840   46.7400 C   0  0  0  0  0  0  0  0  0  0  0  0
   58.1430   30.6340   45.5440 C   0  0  0  0  0  0  0  0  0  0  0  0
   58.0010   31.9590   45.2220 C   0  0  0  0  0  0  0  0  0  0  0  0
   58.2660   32.8560   46.0190 N   0  0  0  0  0  0  0  0  0  0  0  0
   59.3790   33.2330   46.7150 C   0  0  0  0  0  0  0  0  0  0  0  0
   59.3570   33.2790   48.1310 C   0  0  0  0  0  0  0  0  0  0  0  0
   60.5520   33.5410   48.7900 C   0  0  0  0  0  0  0  0  0  0  0  0
   61.7380   33.7520   48.1270 C   0  0  0  0  0  0  0  0  0  0  0  0
   61.7660   33.7070   46.7240 C   0  0  0  0  0  0  0  0  0  0  0  0
   63.0940   33.9470   46.3460 C   0  0  0  0  0  0  0  0  0  0  0  0
   63.7580   34.1130   47.4850 N   0  0  0  0  0  0  0  0  0  0  0  0
   63.0110   34.0090   48.5560 N   0  0  0  0  0  0  0  0  0  0  0  0
   63.3360   34.1290   49.9630 C   0  0  0  0  0  0  0  0  0  0  0  0
   64.3480   33.1580   50.4190 C   0  0  0  0  0  0  0  0  0  0  0  0
   65.6940   33.4540   50.5050 C   0  0  0  0  0  0  0  0  0  0  0  0
   66.6260   32.5150   50.9600 C   0  0  0  0  0  0  0  0  0  0  0  0
   66.1780   31.2630   51.3270 C   0  0  0  0  0  0  0  0  0  0  0  0
   64.8410   30.9480   51.2480 C   0  0  0  0  0  0  0  0  0  0  0  0
   64.4370   29.5750   51.6660 C   0  0  0  0  0  0  0  0  0  0  0  0
   63.9390   31.8900   50.7970 C   0  0  0  0  0  0  0  0  0  0  0  0
   60.6000   33.4510   46.0370 C   0  0  0  0  0  0  0  0  0  0  0  0
   57.4640   32.3280   44.0120 N   0  0  0  0  0  0  0  0  0  0  0  0
   57.0610   31.4030   43.1160 C   0  0  0  0  0  0  0  0  0  0  0  0
   57.1850   30.1030   43.4090 N   0  0  0  0  0  0  0  0  0  0  0  0
   57.7130   29.7360   44.5940 C   0  0  0  0  0  0  0  0  0  0  0  0
   57.8380   28.3990   44.8650 C   0  0  0  0  0  0  0  0  0  0  0  0
   58.3830   28.0060   46.0620 C   0  0  0  0  0  0  0  0  0  0  0  0
   58.5530   26.7030   46.4220 O   0  0  0  0  0  0  0  0  0  0  0  0
   58.2150   25.9690   47.4980 C   0  0  0  0  0  0  0  0  0  0  0  0
   57.7400   24.5600   47.3090 C   0  0  0  0  0  0  0  0  0  0  0  0
   56.2650   24.3870   47.4600 C   0  0  0  0  0  0  0  0  0  0  0  0
   55.4750   24.5370   46.2780 N   0  0  0  0  0  0  0  0  0  0  0  0
   54.6880   23.3630   45.9810 C   0  0  0  0  0  0  0  0  0  0  0  0
   55.4610   22.2470   45.3330 C   0  0  0  0  0  0  0  0  0  0  0  0
   56.5600   22.7800   44.5290 N   0  0  0  0  0  0  0  0  0  0  0  0
   56.8110   21.8970   43.4080 C   0  0  0  0  0  0  0  0  0  0  0  0
   56.1460   24.0980   44.0080 C   0  0  0  0  0  0  0  0  0  0  0  0
   56.2270   25.0550   45.1840 C   0  0  0  0  0  0  0  0  0  0  0  0
   60.1072   29.0728   50.0229 H   0  0  0  0  0  0  0  0  0  0  0  0
   61.3049   28.8943   48.6962 H   0  0  0  0  0  0  0  0  0  0  0  0
   60.1648   30.2824   48.6962 H   0  0  0  0  0  0  0  0  0  0  0  0
   59.0160   31.0469   47.4614 H   0  0  0  0  0  0  0  0  0  0  0  0
   58.4245   33.1128   48.6903 H   0  0  0  0  0  0  0  0  0  0  0  0
   60.5491   33.5813   49.8893 H   0  0  0  0  0  0  0  0  0  0  0  0
   63.5000   33.9890   45.3245 H   0  0  0  0  0  0  0  0  0  0  0  0
   63.7198   35.1435   50.1462 H   0  0  0  0  0  0  0  0  0  0  0  0
   62.4139   33.9231   50.5263 H   0  0  0  0  0  0  0  0  0  0  0  0
   66.0426   34.4542   50.2080 H   0  0  0  0  0  0  0  0  0  0  0  0
   67.6942   32.7699   51.0238 H   0  0  0  0  0  0  0  0  0  0  0  0
   66.8955   30.5104   51.6857 H   0  0  0  0  0  0  0  0  0  0  0  0
   64.4197   29.5163   52.7643 H   0  0  0  0  0  0  0  0  0  0  0  0
   63.4350   29.3514   51.2710 H   0  0  0  0  0  0  0  0  0  0  0  0
   65.1582   28.8444   51.2710 H   0  0  0  0  0  0  0  0  0  0  0  0
   62.8723   31.6281   50.7364 H   0  0  0  0  0  0  0  0  0  0  0  0
   60.6194   33.4155   44.9377 H   0  0  0  0  0  0  0  0  0  0  0  0
   57.3450   33.3130   43.7420 H   0  0  0  0  0  0  0  0  0  0  0  0
   56.6336   31.7152   42.1517 H   0  0  0  0  0  0  0  0  0  0  0  0
   57.5056   27.6492   44.1320 H   0  0  0  0  0  0  0  0  0  0  0  0
   59.1025   25.9235   48.1462 H   0  0  0  0  0  0  0  0  0  0  0  0
   57.3320   26.4884   47.8988 H   0  0  0  0  0  0  0  0  0  0  0  0
   58.0242   24.2327   46.2980 H   0  0  0  0  0  0  0  0  0  0  0  0
   58.2118   23.9582   48.0997 H   0  0  0  0  0  0  0  0  0  0  0  0
   56.0869   23.3753   47.8533 H   0  0  0  0  0  0  0  0  0  0  0  0
   55.9457   25.2025   48.1256 H   0  0  0  0  0  0  0  0  0  0  0  0
   54.2629   22.9860   46.9229 H   0  0  0  0  0  0  0  0  0  0  0  0
   53.9187   23.6740   45.2588 H   0  0  0  0  0  0  0  0  0  0  0  0
   55.8705   21.5899   46.1144 H   0  0  0  0  0  0  0  0  0  0  0  0
   54.7835   21.6816   44.6763 H   0  0  0  0  0  0  0  0  0  0  0  0
   57.0939   20.9017   43.7814 H   0  0  0  0  0  0  0  0  0  0  0  0
   55.9009   21.8139   42.7958 H   0  0  0  0  0  0  0  0  0  0  0  0
   57.6287   22.3050   42.7958 H   0  0  0  0  0  0  0  0  0  0  0  0
   56.8235   24.4216   43.2041 H   0  0  0  0  0  0  0  0  0  0  0  0
   55.1314   24.0640   43.5843 H   0  0  0  0  0  0  0  0  0  0  0  0
   57.2778   25.1742   45.4866 H   0  0  0  0  0  0  0  0  0  0  0  0
   55.8145   26.0309   44.8883 H   0  0  0  0  0  0  0  0  0  0  0  0
  1  2  1  0
  2  3  1  0
  3  4  2  0
  4  5  1  0
  5  6  1  0
  6  7  2  0
  7  8  1  0
  8  9  2  0
  9 10  1  0
 10 11  2  0
 11 12  1  0
 12 13  1  0
 13 14  2  0
 14 15  1  0
 15 16  1  0
 16 17  1  0
 17 18  2  0
 18 19  1  0
 19 20  2  0
 20 21  1  0
 21 22  1  0
 21 23  2  0
 12 24  2  0
  6 25  1  0
 25 26  1  0
 26 27  2  0
 27 28  1  0
 28 29  1  0
 29 30  2  0
 30 31  1  0
 31 32  1  0
 32 33  1  0
 33 34  1  0
 34 35  1  0
 35 36  1  0
 36 37  1  0
 37 38  1  0
 38 39  1  0
 38 40  1  0
 40 41  1  0
 30  3  1  0
 41 35  1  0
 28  5  2  0
 24  8  1  0
 15 11  1  0
 23 17  1  0
  1 42  1  0
  1 43  1  0
  1 44  1  0
  4 45  1  0
  9 46  1  0
 10 47  1  0
 13 48  1  0
 16 49  1  0
 16 50  1  0
 18 51  1  0
 19 52  1  0
 20 53  1  0
 22 54  1  0
 22 55  1  0
 22 56  1  0
 23 57  1  0
 24 58  1  0
 25 59  1  0
 26 60  1  0
 29 61  1  0
 32 62  1  0
 32 63  1  0
 33 64  1  0
 33 65  1  0
 34 66  1  0
 34 67  1  0
 36 68  1  0
 36 69  1  0
 37 70  1  0
 37 71  1  0
 39 72  1  0
 39 73  1  0
 39 74  1  0
 40 75  1  0
 40 76  1  0
 41 77  1  0
 41 78  1  0
M  END
>  <smiles>  (2) 
COc1cc2c(=Nc3ccc4c(cnn4Cc4cccc(C)c4)c3)[nH]cnc2cc1OCCCN1CCN(C)CC1

>  <score_type>  (2) 
oracle

>  <origin>  (2) 
adg

>  <m_score__min__energy>  (2) 
-9.9399999999999995

>  <m_primary>  (2) 
energy

$$$$
2:0
     RDKit          3D

 42 43  0  0  0  0  0  0  0  0999 V2000
   59.3810   34.7850   46.7760 C   0  0  0  0  0  0  0  0  0  0  0  0
   58.3430   34.1910   46.1800 C   0  0  0  0  0  0  0  0  0  0  0  0
   58.5310   33.2470   45.0110 C   0  0  0  0  0  0  0  0  0  0  0  0
   57.7080   31.9290   45.0880 C   0  0  2  0  0  0  0  0  0  0  0  0
   58.3980   30.7530   45.7810 C   0  0  0  0  0  0  0  0  0  0  0  0
   59.3020   30.9750   46.8390 C   0  0  0  0  0  0  0  0  0  0  0  0
   59.8890   29.9060   47.5190 C   0  0  0  0  0  0  0  0  0  0  0  0
   59.5590   28.5910   47.1940 C   0  0  0  0  0  0  0  0  0  0  0  0
   60.1870   27.5530   47.8990 O   0  0  0  0  0  0  0  0  0  0  0  0
   60.5730   27.6280   49.2670 C   0  0  0  0  0  0  0  0  0  0  0  0
   58.6060   28.3530   46.1890 C   0  0  0  0  0  0  0  0  0  0  0  0
   57.9970   29.4200   45.5060 C   0  0  0  0  0  0  0  0  0  0  0  0
   56.9580   29.0870   44.4600 C   0  0  0  0  0  0  0  0  0  0  0  0
   56.1260   30.2990   44.0230 C   0  0  0  0  0  0  0  0  0  0  0  0
   57.0230   31.5210   43.7420 C   0  0  2  0  0  0  0  0  0  0  0  0
   57.9760   31.2260   42.6350 N   0  0  0  0  0  0  0  0  0  0  0  0
   58.1590   32.3710   41.7250 C   0  0  0  0  0  0  0  0  0  0  0  0
   57.0520   32.4190   40.6730 C   0  0  0  0  0  0  0  0  0  0  0  0
   59.2128   35.4660   47.6233 H   0  0  0  0  0  0  0  0  0  0  0  0
   60.4037   34.5930   46.4193 H   0  0  0  0  0  0  0  0  0  0  0  0
   57.3262   34.3929   46.5479 H   0  0  0  0  0  0  0  0  0  0  0  0
   58.2383   33.7784   44.0934 H   0  0  0  0  0  0  0  0  0  0  0  0
   59.5896   32.9484   45.0256 H   0  0  0  0  0  0  0  0  0  0  0  0
   56.8933   32.2032   45.7743 H   0  0  0  0  0  0  0  0  0  0  0  0
   59.5489   32.0057   47.1335 H   0  0  0  0  0  0  0  0  0  0  0  0
   60.6184   30.1032   48.3184 H   0  0  0  0  0  0  0  0  0  0  0  0
   59.6940   27.4572   49.9059 H   0  0  0  0  0  0  0  0  0  0  0  0
   61.3330   26.8607   49.4761 H   0  0  0  0  0  0  0  0  0  0  0  0
   60.9903   28.6240   49.4761 H   0  0  0  0  0  0  0  0  0  0  0  0
   58.3331   27.3185   45.9335 H   0  0  0  0  0  0  0  0  0  0  0  0
   57.4706   28.6787   43.5765 H   0  0  0  0  0  0  0  0  0  0  0  0
   56.2645   28.3611   44.9096 H   0  0  0  0  0  0  0  0  0  0  0  0
   55.5724   30.0426   43.1077 H   0  0  0  0  0  0  0  0  0  0  0  0
   55.4327   30.5566   44.8373 H   0  0  0  0  0  0  0  0  0  0  0  0
   56.4379   32.3826   43.3880 H   0  0  0  0  0  0  0  0  0  0  0  0
   57.6080   30.4460   42.0410 H   0  0  0  0  0  0  0  0  0  0  0  0
   58.8920   30.8980   43.0130 H   0  0  0  0  0  0  0  0  0  0  0  0
   58.1391   33.3021   42.3104 H   0  0  0  0  0  0  0  0  0  0  0  0
   59.1251   32.2584   41.2112 H   0  0  0  0  0  0  0  0  0  0  0  0
   56.0729   32.4615   41.1727 H   0  0  0  0  0  0  0  0  0  0  0  0
   57.1819   33.3124   40.0445 H   0  0  0  0  0  0  0  0  0  0  0  0
   57.1041   31.5177   40.0445 H   0  0  0  0  0  0  0  0  0  0  0  0
  1  2  2  0
  2  3  1  0
  3  4  1  0
  4  5  1  0
  5  6  2  0
  6  7  1  0
  7  8  2  0
  8  9  1  0
  9 10  1  0
  8 11  1  0
 11 12  2  0
 12 13  1  0
 13 14  1  0
 14 15  1  0
 15 16  1  0
 16 17  1  0
 17 18  1  0
 15  4  1  0
 12  5  1  0
  1 19  1  0
  1 20  1  0
  2 21  1  0
  3 22  1  0
  3 23  1  0
  4 24  1  1
  6 25  1  0
  7 26  1  0
 10 27  1  0
 10 28  1  0
 10 29  1  0
 11 30  1  0
 13 31  1  0
 13 32  1  0
 14 33  1  0
 14 34  1  0
 15 35  1  6
 16 36  1  0
 16 37  1  0
 17 38  1  0
 17 39  1  0
 18 40  1  0
 18 41  1  0
 18 42  1  0
M  CHG  1  16   1
M  END
>  <UniqueID>  (3) 
2

>  <SMILES>  (3) 
C=CC[C@@H]1c2ccc(OC)cc2CC[C@@H]1[NH2+]CC

>  <Energy>  (3) 
48.28708783329507

>  <Genealogy>  (3) 
C=CCC1c2ccc(OC)cc2CCC1[NH2+]CC (protonated)
C=CC[C@@H]1c2ccc(OC)cc2CC[C@@H]1[NH2+]CC (chirality)
C=CC[C@@H]1c2ccc(OC)cc2CC[C@@H]1[NH2+]CC (3D coordinates assigned)
C=CC[C@@H]1c2ccc(OC)cc2CC[C@@H]1[NH2+]CC (nonaromatic ring conformer: 48.28708783329507 kcal/mol)

>  <smiles>  (3) 
C=CCC1c2ccc(OC)cc2CCC1NCC

>  <score_type>  (3) 
oracle

>  <origin>  (3) 
adg

>  <m_score__min__energy>  (3) 
-4.6600000000000001

>  <m_primary>  (3) 
energy

$$$$
3:0
     RDKit          3D

 36 38  0  0  0  0  0  0  0  0999 V2000
   58.2670   32.7730   51.9840 C   0  0  0  0  0  0  0  0  0  0  0  0
   59.3340   33.8470   51.7860 C   0  0  0  0  0  0  0  0  0  0  0  0
   60.2020   33.5220   50.6440 N   0  0  0  0  0  0  0  0  0  0  0  0
   61.6010   33.1410   50.8880 C   0  0  0  0  0  0  0  0  0  0  0  0
   62.3270   32.9640   49.5920 C   0  0  0  0  0  0  0  0  0  0  0  0
   63.1670   33.8970   48.9980 C   0  0  0  0  0  0  0  0  0  0  0  0
   63.7540   33.4320   47.8160 C   0  0  0  0  0  0  0  0  0  0  0  0
   63.3860   32.1350   47.4810 C   0  0  0  0  0  0  0  0  0  0  0  0
   62.3320   31.5640   48.6610 S   0  0  0  0  0  0  0  0  0  0  0  0
   59.6770   33.5930   49.3010 C   0  0  0  0  0  0  0  0  0  0  0  0
   60.0640   34.5330   48.4060 N   0  0  0  0  0  0  0  0  0  0  0  0
   59.4340   34.3800   47.2110 C   0  0  0  0  0  0  0  0  0  0  0  0
   58.5170   33.3380   47.1630 C   0  0  0  0  0  0  0  0  0  0  0  0
   58.5320   32.5370   48.6390 S   0  0  0  0  0  0  0  0  0  0  0  0
   57.7720   32.9240   45.9300 C   0  0  0  0  0  0  0  0  0  0  0  0
   57.7580   34.0610   44.8940 C   0  0  0  0  0  0  0  0  0  0  0  0
   59.1540   34.6920   44.7370 C   0  0  0  0  0  0  0  0  0  0  0  0
   59.6390   35.3180   46.0580 C   0  0  0  0  0  0  0  0  0  0  0  0
   58.1055   32.6105   53.0599 H   0  0  0  0  0  0  0  0  0  0  0  0
   57.3262   33.1004   51.5174 H   0  0  0  0  0  0  0  0  0  0  0  0
   58.6005   31.8344   51.5174 H   0  0  0  0  0  0  0  0  0  0  0  0
   58.8420   34.8132   51.6006 H   0  0  0  0  0  0  0  0  0  0  0  0
   59.9530   33.8982   52.6938 H   0  0  0  0  0  0  0  0  0  0  0  0
   62.0943   33.9297   51.4750 H   0  0  0  0  0  0  0  0  0  0  0  0
   61.6206   32.1901   51.4407 H   0  0  0  0  0  0  0  0  0  0  0  0
   63.3518   34.8984   49.4139 H   0  0  0  0  0  0  0  0  0  0  0  0
   64.4429   34.0373   47.2085 H   0  0  0  0  0  0  0  0  0  0  0  0
   63.7256   31.5771   46.5959 H   0  0  0  0  0  0  0  0  0  0  0  0
   58.2620   32.0422   45.4914 H   0  0  0  0  0  0  0  0  0  0  0  0
   56.7344   32.6864   46.2075 H   0  0  0  0  0  0  0  0  0  0  0  0
   57.4361   33.6570   43.9229 H   0  0  0  0  0  0  0  0  0  0  0  0
   57.0624   34.8390   45.2416 H   0  0  0  0  0  0  0  0  0  0  0  0
   59.8662   33.9130   44.4273 H   0  0  0  0  0  0  0  0  0  0  0  0
   59.0916   35.4870   43.9793 H   0  0  0  0  0  0  0  0  0  0  0  0
   60.7104   35.5519   45.9720 H   0  0  0  0  0  0  0  0  0  0  0  0
   59.0560   36.2319   46.2448 H   0  0  0  0  0  0  0  0  0  0  0  0
  1  2  1  0
  2  3  1  0
  3  4  1  0
  4  5  1  0
  5  6  2  0
  6  7  1  0
  7  8  2  0
  8  9  1  0
  3 10  1  0
 10 11  2  0
 11 12  1  0
 12 13  2  0
 13 14  1  0
 13 15  1  0
 15 16  1  0
 16 17  1  0
 17 18  1  0
  9  5  1  0
 14 10  1  0
 18 12  1  0
  1 19  1  0
  1 20  1  0
  1 21  1  0
  2 22  1  0
  2 23  1  0
  4 24  1  0
  4 25  1  0
  6 26  1  0
  7 27  1  0
  8 28  1  0
 15 29  1  0
 15 30  1  0
 16 31  1  0
 16 32  1  0
 17 33  1  0
 17 34  1  0
 18 35  1  0
 18 36  1  0
M  END
>  <UniqueID>  (4) 
3

>  <SMILES>  (4) 
CCN(Cc1cccs1)c1nc2c(s1)CCCC2

>  <Energy>  (4) 
85.17059918887543

>  <Genealogy>  (4) 
CCN(Cc1cccs1)c1nc2c(s1)CCCC2 (3D coordinates assigned)
CCN(Cc1cccs1)c1nc2c(s1)CCCC2 (nonaromatic ring conformer: 85.17059918887543 kcal/mol)

>  <smiles>  (4) 
CCN(Cc1cccs1)c1nc2c(s1)CCCC2

>  <score_type>  (4) 
oracle

>  <origin>  (4) 
adg

>  <m_score__min__energy>  (4) 
-6.6799999999999997

>  <m_primary>  (4) 
energy

$$$$
4:0
     RDKit          3D

 32 34  0  0  0  0  0  0  0  0999 V2000
   57.3600   32.5490   52.2650 C   0  0  0  0  0  0  0  0  0  0  0  0
   57.7950   31.2510   51.8760 O   0  0  0  0  0  0  0  0  0  0  0  0
   57.6310   30.0940   52.6530 C   0  0  0  0  0  0  0  0  0  0  0  0
   58.6990   29.5050   53.3570 C   0  0  0  0  0  0  0  0  0  0  0  0
   58.4940   28.3520   54.1180 C   0  0  0  0  0  0  0  0  0  0  0  0
   57.2280   27.7700   54.1890 C   0  0  0  0  0  0  0  0  0  0  0  0
   56.1480   28.3420   53.4940 C   0  0  0  0  0  0  0  0  0  0  0  0
   54.8590   27.7880   53.5280 C   0  0  0  0  0  0  0  0  0  0  0  0
   54.6290   26.7400   54.1930 O   0  0  0  0  0  0  0  0  0  0  0  0
   53.8230   28.4020   52.8080 C   0  0  0  0  0  0  0  0  0  0  0  0
   52.5430   27.8450   52.7840 O   0  0  0  0  0  0  0  0  0  0  0  0
   54.1050   29.5790   52.0840 C   0  0  0  0  0  0  0  0  0  0  0  0
   53.0640   30.2970   51.3150 C   0  0  0  0  0  0  0  0  0  0  0  0
   52.5490   29.7770   50.1130 C   0  0  0  0  0  0  0  0  0  0  0  0
   51.5480   30.4630   49.4180 C   0  0  0  0  0  0  0  0  0  0  0  0
   51.0420   31.6650   49.9190 C   0  0  0  0  0  0  0  0  0  0  0  0
   50.0490   32.3410   49.2220 O   0  0  0  0  0  0  0  0  0  0  0  0
   51.5320   32.1800   51.1250 C   0  0  0  0  0  0  0  0  0  0  0  0
   51.0270   33.3720   51.6320 O   0  0  0  0  0  0  0  0  0  0  0  0
   52.5340   31.4950   51.8220 C   0  0  0  0  0  0  0  0  0  0  0  0
   55.3440   30.0640   52.0660 O   0  0  0  0  0  0  0  0  0  0  0  0
   56.3560   29.5090   52.7250 C   0  0  0  0  0  0  0  0  0  0  0  0
   57.3380   32.6146   53.3628 H   0  0  0  0  0  0  0  0  0  0  0  0
   58.0545   33.3032   51.8664 H   0  0  0  0  0  0  0  0  0  0  0  0
   56.3513   32.7324   51.8664 H   0  0  0  0  0  0  0  0  0  0  0  0
   59.7011   29.9559   53.3072 H   0  0  0  0  0  0  0  0  0  0  0  0
   59.3352   27.9003   54.6643 H   0  0  0  0  0  0  0  0  0  0  0  0
   57.0745   26.8616   54.7901 H   0  0  0  0  0  0  0  0  0  0  0  0
   52.1540   27.4180   51.9510 H   0  0  0  0  0  0  0  0  0  0  0  0
   52.9358   28.8260   49.7181 H   0  0  0  0  0  0  0  0  0  0  0  0
   51.1578   30.0549   48.4739 H   0  0  0  0  0  0  0  0  0  0  0  0
   52.9094   31.8979   52.7742 H   0  0  0  0  0  0  0  0  0  0  0  0
  1  2  1  0
  2  3  1  0
  3  4  2  0
  4  5  1  0
  5  6  2  0
  6  7  1  0
  7  8  1  0
  8  9  2  0
  8 10  1  0
 10 11  1  0
 10 12  2  0
 12 13  1  0
 13 14  2  0
 14 15  1  0
 15 16  2  0
 16 17  1  0
 16 18  1  0
 18 19  1  0
 18 20  2  0
 12 21  1  0
 21 22  1  0
 22  3  1  0
 22  7  2  0
 20 13  1  0
  1 23  1  0
  1 24  1  0
  1 25  1  0
  4 26  1  0
  5 27  1  0
  6 28  1  0
 11 29  1  0
 14 30  1  0
 15 31  1  0
 20 32  1  0
M  CHG  2  17  -1  19  -1
M  END
>  <UniqueID>  (5) 
4

>  <SMILES>  (5) 
COc1cccc2c(=O)c(O)c(-c3ccc([O-])c([O-])c3)oc12

>  <Energy>  (5) 
45.722274453558775

>  <Genealogy>  (5) 
COc1cccc2c(=O)c(O)c(-c3ccc([O-])c([O-])c3)oc12 (protonated)
COc1cccc2c(=O)c(O)c(-c3ccc([O-])c([O-])c3)oc12 (3D coordinates assigned)
COc1cccc2c(=O)c(O)c(-c3ccc([O-])c([O-])c3)oc12 (optimized conformer: 45.722274453558775 kcal/mol)

>  <smiles>  (5) 
COc1cccc2c(=O)c(O)c(-c3ccc(O)c(O)c3)oc12

>  <score_type>  (5) 
oracle

>  <origin>  (5) 
adg

>  <m_score__min__energy>  (5) 
-14.699999999999999

>  <m_primary>  (5) 
energy

$$$$
5:0
     RDKit          3D

 39 42  0  0  0  0  0  0  0  0999 V2000
   56.6590   30.4870   42.6720 C   0  0  0  0  0  0  0  0  0  0  0  0
   55.6890   30.0360   43.7580 C   0  0  0  0  0  0  0  0  0  0  0  0
   56.3690   29.8600   45.0020 O   0  0  0  0  0  0  0  0  0  0  0  0
   57.5620   29.1390   45.1940 C   0  0  0  0  0  0  0  0  0  0  0  0
   57.7190   27.8120   44.7420 C   0  0  0  0  0  0  0  0  0  0  0  0
   58.9200   27.1310   44.9550 C   0  0  0  0  0  0  0  0  0  0  0  0
   59.9770   27.7620   45.6070 C   0  0  0  0  0  0  0  0  0  0  0  0
   59.8380   29.0770   46.0550 C   0  0  0  0  0  0  0  0  0  0  0  0
   58.6330   29.7690   45.8620 C   0  0  0  0  0  0  0  0  0  0  0  0
   58.4980   31.1660   46.3230 C   0  0  0  0  0  0  0  0  0  0  0  0
   57.4190   31.9420   46.0830 N   0  0  0  0  0  0  0  0  0  0  0  0
   57.7350   33.1970   46.3910 N   0  0  0  0  0  0  0  0  0  0  0  0
   58.9780   33.1350   46.9080 C   0  0  0  0  0  0  0  0  0  0  0  0
   59.4620   31.9080   46.8920 N   0  0  0  0  0  0  0  0  0  0  0  0
   60.8400   31.8910   46.7350 N   0  0  0  0  0  0  0  0  0  0  0  0
   61.3340   33.2700   46.7320 C   0  0  2  0  0  0  0  0  0  0  0  0
   62.2550   33.4980   47.8960 C   0  0  0  0  0  0  0  0  0  0  0  0
   61.9390   34.2030   49.0490 C   0  0  0  0  0  0  0  0  0  0  0  0
   62.9650   34.1910   50.0020 C   0  0  0  0  0  0  0  0  0  0  0  0
   64.0820   33.4660   49.6100 C   0  0  0  0  0  0  0  0  0  0  0  0
   63.7930   32.8360   48.0780 S   0  0  0  0  0  0  0  0  0  0  0  0
   60.0520   34.1630   46.8250 C   0  0  0  0  0  0  0  0  0  0  0  0
   57.5623   30.9070   43.1386 H   0  0  0  0  0  0  0  0  0  0  0  0
   56.9360   29.6253   42.0469 H   0  0  0  0  0  0  0  0  0  0  0  0
   56.1787   31.2542   42.0469 H   0  0  0  0  0  0  0  0  0  0  0  0
   54.9044   30.7973   43.8800 H   0  0  0  0  0  0  0  0  0  0  0  0
   55.2455   29.0749   43.4587 H   0  0  0  0  0  0  0  0  0  0  0  0
   56.8913   27.3107   44.2190 H   0  0  0  0  0  0  0  0  0  0  0  0
   59.0313   26.0935   44.6069 H   0  0  0  0  0  0  0  0  0  0  0  0
   60.9224   27.2235   45.7691 H   0  0  0  0  0  0  0  0  0  0  0  0
   60.6783   29.5734   46.5623 H   0  0  0  0  0  0  0  0  0  0  0  0
   56.5330   31.6570   45.6110 H   0  0  0  0  0  0  0  0  0  0  0  0
   61.4210   31.0280   46.6460 H   0  0  0  0  0  0  0  0  0  0  0  0
   61.9190   33.5059   45.8308 H   0  0  0  0  0  0  0  0  0  0  0  0
   60.9793   34.7192   49.1991 H   0  0  0  0  0  0  0  0  0  0  0  0
   62.8926   34.7076   50.9704 H   0  0  0  0  0  0  0  0  0  0  0  0
   64.9995   33.3273   50.2007 H   0  0  0  0  0  0  0  0  0  0  0  0
   60.0696   34.7987   47.7225 H   0  0  0  0  0  0  0  0  0  0  0  0
   59.9347   34.8669   45.9879 H   0  0  0  0  0  0  0  0  0  0  0  0
  1  2  1  0
  2  3  1  0
  3  4  1  0
  4  5  2  0
  5  6  1  0
  6  7  2  0
  7  8  1  0
  8  9  2  0
  9 10  1  0
 10 11  2  0
 11 12  1  0
 12 13  2  0
 13 14  1  0
 14 15  1  0
 15 16  1  0
 16 17  1  0
 17 18  2  0
 18 19  1  0
 19 20  2  0
 20 21  1  0
 16 22  1  0
  9  4  1  0
 14 10  1  0
 21 17  1  0
 22 13  1  0
  1 23  1  0
  1 24  1  0
  1 25  1  0
  2 26  1  0
  2 27  1  0
  5 28  1  0
  6 29  1  0
  7 30  1  0
  8 31  1  0
 11 32  1  0
 15 33  1  0
 16 34  1  6
 18 35  1  0
 19 36  1  0
 20 37  1  0
 22 38  1  0
 22 39  1  0
M  CHG  1  11   1
M  END
>  <UniqueID>  (6) 
5

>  <SMILES>  (6) 
CCOc1ccccc1-c1[nH+]nc2n1N[C@H](c1cccs1)C2

>  <Energy>  (6) 
140.84041636453267

>  <Genealogy>  (6) 
CCOc1ccccc1-c1[nH+]nc2n1NC(c1cccs1)C2 (protonated)
CCOc1ccccc1-c1[nH+]nc2n1N[C@H](c1cccs1)C2 (chirality)
CCOc1ccccc1-c1[nH+]nc2n1N[C@H](c1cccs1)C2 (3D coordinates assigned)
CCOc1ccccc1-c1[nH+]nc2n1N[C@H](c1cccs1)C2 (nonaromatic ring conformer: 140.84041636453267 kcal/mol)

>  <smiles>  (6) 
CCOc1ccccc1-c1nnc2n1NC(c1cccs1)C2

>  <score_type>  (6) 
oracle

>  <origin>  (6) 
adg

>  <m_score__min__energy>  (6) 
-6.0999999999999996

>  <m_primary>  (6) 
energy

$$$$
6:0
     RDKit          3D

 49 50  0  0  0  0  0  0  0  0999 V2000
   58.3547   35.4791   47.4975 H   0  0  0  0  0  0  0  0  0  0  0  0
   59.0010   34.6600   47.1490 C   0  0  0  0  0  0  0  0  0  0  0  0
   58.8640   34.1920   45.9460 N   0  0  0  0  0  0  0  0  0  0  0  0
   57.7900   33.3490   45.5030 C   0  0  0  0  0  0  0  0  0  0  0  0
   56.7230   33.3390   46.1730 O   0  0  0  0  0  0  0  0  0  0  0  0
   57.9220   32.4720   44.2780 C   0  0  0  0  0  0  0  0  0  0  0  0
   57.1202   32.7298   43.5705 H   0  0  0  0  0  0  0  0  0  0  0  0
   58.9159   32.6509   43.8420 H   0  0  0  0  0  0  0  0  0  0  0  0
   57.8220   31.0060   44.6100 C   0  0  0  0  0  0  0  0  0  0  0  0
   58.8940   30.3430   45.2260 C   0  0  0  0  0  0  0  0  0  0  0  0
   59.8232   30.8901   45.4435 H   0  0  0  0  0  0  0  0  0  0  0  0
   58.7880   28.9910   45.5650 C   0  0  0  0  0  0  0  0  0  0  0  0
   59.6347   28.4817   46.0485 H   0  0  0  0  0  0  0  0  0  0  0  0
   57.6080   28.2770   45.2930 C   0  0  0  0  0  0  0  0  0  0  0  0
   57.4980   26.8860   45.6570 N   0  0  0  0  0  0  0  0  0  0  0  0
   56.3120   26.2090   46.0400 C   0  0  0  0  0  0  0  0  0  0  0  0
   55.1680   26.7310   45.9970 O   0  0  0  0  0  0  0  0  0  0  0  0
   56.5470   24.7990   46.4130 C   0  0  0  0  0  0  0  0  0  0  0  0
   56.0516   24.1167   45.7066 H   0  0  0  0  0  0  0  0  0  0  0  0
   56.1444   24.5430   47.4042 H   0  0  0  0  0  0  0  0  0  0  0  0
   58.0730   24.6620   46.3310 C   0  0  0  0  0  0  0  0  0  0  0  0
   58.3412   23.7817   45.7284 H   0  0  0  0  0  0  0  0  0  0  0  0
   58.5094   24.5319   47.3323 H   0  0  0  0  0  0  0  0  0  0  0  0
   58.6060   25.9430   45.6620 C   0  0  0  0  0  0  0  0  0  0  0  0
   58.9305   25.7297   44.6328 H   0  0  0  0  0  0  0  0  0  0  0  0
   59.4752   26.3468   46.2019 H   0  0  0  0  0  0  0  0  0  0  0  0
   56.5260   28.9530   44.7010 C   0  0  0  0  0  0  0  0  0  0  0  0
   55.5884   28.4134   44.5017 H   0  0  0  0  0  0  0  0  0  0  0  0
   56.6330   30.3050   44.3640 C   0  0  0  0  0  0  0  0  0  0  0  0
   55.7789   30.8225   43.9028 H   0  0  0  0  0  0  0  0  0  0  0  0
   60.0420   34.0830   48.0650 C   0  0  0  0  0  0  0  0  0  0  0  0
   59.5342   33.6533   48.9411 H   0  0  0  0  0  0  0  0  0  0  0  0
   60.7229   34.9035   48.3355 H   0  0  0  0  0  0  0  0  0  0  0  0
   60.8690   33.0220   47.4350 N   0  0  0  0  0  0  0  0  0  0  0  0
   60.7020   33.1480   46.4070 H   0  0  0  0  0  0  0  0  0  0  0  0
   62.3240   33.2430   47.6440 C   0  0  0  0  0  0  0  0  0  0  0  0
   62.7934   32.2825   47.9031 H   0  0  0  0  0  0  0  0  0  0  0  0
   62.4382   33.9793   48.4533 H   0  0  0  0  0  0  0  0  0  0  0  0
   63.0150   33.8080   46.3980 C   0  0  0  0  0  0  0  0  0  0  0  0
   63.8330   34.4768   46.7039 H   0  0  0  0  0  0  0  0  0  0  0  0
   63.4225   32.9810   45.7979 H   0  0  0  0  0  0  0  0  0  0  0  0
   62.2854   34.3716   45.7979 H   0  0  0  0  0  0  0  0  0  0  0  0
   60.3880   31.6430   47.7440 C   0  0  0  0  0  0  0  0  0  0  0  0
   60.2780   31.1024   46.7924 H   0  0  0  0  0  0  0  0  0  0  0  0
   61.1389   31.2082   48.4201 H   0  0  0  0  0  0  0  0  0  0  0  0
   59.0490   31.5560   48.4940 C   0  0  0  0  0  0  0  0  0  0  0  0
   59.2345   31.5681   49.5782 H   0  0  0  0  0  0  0  0  0  0  0  0
   58.4189   32.4151   48.2203 H   0  0  0  0  0  0  0  0  0  0  0  0
   58.5354   30.6226   48.2203 H   0  0  0  0  0  0  0  0  0  0  0  0
  1  2  1  0
  2  3  2  0
  3  4  1  0
  4  5  2  0
  4  6  1  0
  6  7  1  0
  6  8  1  0
  6  9  1  0
  9 10  2  0
 10 11  1  0
 10 12  1  0
 12 13  1  0
 12 14  2  0
 14 15  1  0
 15 16  1  0
 16 17  2  0
 16 18  1  0
 18 19  1  0
 18 20  1  0
 18 21  1  0
 21 22  1  0
 21 23  1  0
 21 24  1  0
 24 25  1  0
 24 26  1  0
 14 27  1  0
 27 28  1  0
 27 29  2  0
 29 30  1  0
  2 31  1  0
 31 32  1  0
 31 33  1  0
 31 34  1  0
 34 35  1  0
 34 36  1  0
 36 37  1  0
 36 38  1  0
 36 39  1  0
 39 40  1  0
 39 41  1  0
 39 42  1  0
 34 43  1  0
 43 44  1  0
 43 45  1  0
 43 46  1  0
 46 47  1  0
 46 48  1  0
 46 49  1  0
 29  9  1  0
 24 15  1  0
M  CHG  1  34   1
M  END
>  <UniqueID>  (7) 
6

>  <SMILES>  (7) 
CC[NH+](CC)C/C=N/C(=O)Cc1ccc(N2CCCC2=O)cc1

>  <Energy>  (7) 
62.99326127153138

>  <Genealogy>  (7) 
CC[NH+](CC)CC=NC(=O)Cc1ccc(N2CCCC2=O)cc1 (protonated)
CC[NH+](CC)C/C=N/C(=O)Cc1ccc(N2CCCC2=O)cc1 (cis-trans isomerization)
CC[NH+](CC)C/C=N/C(=O)Cc1ccc(N2CCCC2=O)cc1 (3D coordinates assigned)
CC[NH+](CC)C/C=N/C(=O)Cc1ccc(N2CCCC2=O)cc1 (nonaromatic ring conformer: 62.99326127153138 kcal/mol)

>  <smiles>  (7) 
CCN(CC)CC=NC(=O)Cc1ccc(N2CCCC2=O)cc1

>  <score_type>  (7) 
oracle

>  <origin>  (7) 
adg

>  <m_score__min__energy>  (7) 
-5.7599999999999998

>  <m_primary>  (7) 
energy

$$$$
7:0
     RDKit          3D

 46 47  0  0  0  0  0  0  0  0999 V2000
   59.6480   29.7610   48.9960 C   0  0  0  0  0  0  0  0  0  0  0  0
   59.4160   31.1160   49.3690 O   0  0  0  0  0  0  0  0  0  0  0  0
   58.7500   31.5190   50.5400 C   0  0  0  0  0  0  0  0  0  0  0  0
   57.9200   30.6340   51.2590 C   0  0  0  0  0  0  0  0  0  0  0  0
   57.2500   31.0650   52.4050 C   0  0  0  0  0  0  0  0  0  0  0  0
   57.3930   32.3800   52.8470 C   0  0  0  0  0  0  0  0  0  0  0  0
   58.2140   33.2670   52.1480 C   0  0  0  0  0  0  0  0  0  0  0  0
   58.9160   32.8440   51.0040 C   0  0  0  0  0  0  0  0  0  0  0  0
   59.7750   33.8340   50.2370 C   0  0  2  0  0  0  0  0  0  0  0  0
   59.2780   34.0070   48.9340 O   0  0  0  0  0  0  0  0  0  0  0  0
   61.2270   33.3310   50.1770 C   0  0  0  0  0  0  0  0  0  0  0  0
   61.4230   32.4020   49.0510 N   0  0  0  0  0  0  0  0  0  0  0  0
   62.5190   32.8250   48.1610 C   0  0  0  0  0  0  0  0  0  0  0  0
   62.0140   33.2940   46.7870 C   0  0  0  0  0  0  0  0  0  0  0  0
   60.6050   33.5220   46.8200 O   0  0  0  0  0  0  0  0  0  0  0  0
   59.6350   32.7780   46.1230 C   0  0  0  0  0  0  0  0  0  0  0  0
   59.5050   31.3820   46.2770 C   0  0  0  0  0  0  0  0  0  0  0  0
   58.5280   30.6810   45.5670 C   0  0  0  0  0  0  0  0  0  0  0  0
   57.6680   31.3570   44.7010 C   0  0  0  0  0  0  0  0  0  0  0  0
   56.4420   30.4710   43.8120 Cl  0  0  0  0  0  0  0  0  0  0  0  0
   57.7830   32.7400   44.5410 C   0  0  0  0  0  0  0  0  0  0  0  0
   58.7630   33.4570   45.2490 C   0  0  0  0  0  0  0  0  0  0  0  0
   58.8820   34.9450   45.0700 C   0  0  0  0  0  0  0  0  0  0  0  0
   59.7535   29.1445   49.9009 H   0  0  0  0  0  0  0  0  0  0  0  0
   58.7995   29.3945   48.3995 H   0  0  0  0  0  0  0  0  0  0  0  0
   60.5701   29.6976   48.3995 H   0  0  0  0  0  0  0  0  0  0  0  0
   57.7998   29.5964   50.9140 H   0  0  0  0  0  0  0  0  0  0  0  0
   56.6078   30.3660   52.9608 H   0  0  0  0  0  0  0  0  0  0  0  0
   56.8586   32.7186   53.7469 H   0  0  0  0  0  0  0  0  0  0  0  0
   58.3130   34.3062   52.4947 H   0  0  0  0  0  0  0  0  0  0  0  0
   59.7469   34.8020   50.7586 H   0  0  0  0  0  0  0  0  0  0  0  0
   59.2910   33.1140   48.5010 H   0  0  0  0  0  0  0  0  0  0  0  0
   61.9001   34.1921   50.0530 H   0  0  0  0  0  0  0  0  0  0  0  0
   61.4492   32.7963   51.1123 H   0  0  0  0  0  0  0  0  0  0  0  0
   60.5360   32.3120   48.5020 H   0  0  0  0  0  0  0  0  0  0  0  0
   61.6690   31.4560   49.4290 H   0  0  0  0  0  0  0  0  0  0  0  0
   63.0617   33.6538   48.6391 H   0  0  0  0  0  0  0  0  0  0  0  0
   63.1718   31.9548   47.9979 H   0  0  0  0  0  0  0  0  0  0  0  0
   62.5251   34.2290   46.5140 H   0  0  0  0  0  0  0  0  0  0  0  0
   62.2291   32.5116   46.0444 H   0  0  0  0  0  0  0  0  0  0  0  0
   60.1771   30.8423   46.9604 H   0  0  0  0  0  0  0  0  0  0  0  0
   58.4361   29.5919   45.6909 H   0  0  0  0  0  0  0  0  0  0  0  0
   57.1034   33.2704   43.8577 H   0  0  0  0  0  0  0  0  0  0  0  0
   58.9209   35.4310   46.0561 H   0  0  0  0  0  0  0  0  0  0  0  0
   59.8014   35.1748   44.5115 H   0  0  0  0  0  0  0  0  0  0  0  0
   58.0108   35.3180   44.5115 H   0  0  0  0  0  0  0  0  0  0  0  0
  1  2  1  0
  2  3  1  0
  3  4  2  0
  4  5  1  0
  5  6  2  0
  6  7  1  0
  7  8  2  0
  8  9  1  0
  9 10  1  0
  9 11  1  0
 11 12  1  0
 12 13  1  0
 13 14  1  0
 14 15  1  0
 15 16  1  0
 16 17  2  0
 17 18  1  0
 18 19  2  0
 19 20  1  0
 19 21  1  0
 21 22  2  0
 22 23  1  0
  8  3  1  0
 22 16  1  0
  1 24  1  0
  1 25  1  0
  1 26  1  0
  4 27  1  0
  5 28  1  0
  6 29  1  0
  7 30  1  0
  9 31  1  1
 10 32  1  0
 11 33  1  0
 11 34  1  0
 12 35  1  0
 12 36  1  0
 13 37  1  0
 13 38  1  0
 14 39  1  0
 14 40  1  0
 17 41  1  0
 18 42  1  0
 21 43  1  0
 23 44  1  0
 23 45  1  0
 23 46  1  0
M  CHG  1  12   1
M  END
>  <UniqueID>  (8) 
7

>  <SMILES>  (8) 
COc1ccccc1[C@H](O)C[NH2+]CCOc1ccc(Cl)cc1C

>  <Energy>  (8) 
44.140976590048034

>  <Genealogy>  (8) 
COc1ccccc1C(O)C[NH2+]CCOc1ccc(Cl)cc1C (protonated)
COc1ccccc1[C@H](O)C[NH2+]CCOc1ccc(Cl)cc1C (chirality)
COc1ccccc1[C@H](O)C[NH2+]CCOc1ccc(Cl)cc1C (3D coordinates assigned)
COc1ccccc1[C@H](O)C[NH2+]CCOc1ccc(Cl)cc1C (optimized conformer: 44.140976590048034 kcal/mol)

>  <smiles>  (8) 
COc1ccccc1C(O)CNCCOc1ccc(Cl)cc1C

>  <score_type>  (8) 
oracle

>  <origin>  (8) 
adg

>  <m_score__min__energy>  (8) 
-5.6399999999999997

>  <m_primary>  (8) 
energy

$$$$
8:0
     RDKit          3D

 50 53  0  0  0  0  0  0  0  0999 V2000
   63.7310   33.0920   46.8370 C   0  0  0  0  0  0  0  0  0  0  0  0
   63.6820   32.6370   48.3030 C   0  0  0  0  0  0  0  0  0  0  0  0
   62.3090   32.5240   48.8460 N   0  0  0  0  0  0  0  0  0  0  0  0
   62.1290   31.3200   49.6870 C   0  0  0  0  0  0  0  0  0  0  0  0
   60.6520   31.0860   49.9990 C   0  0  0  0  0  0  0  0  0  0  0  0
   61.8400   33.7720   49.4950 C   0  0  0  0  0  0  0  0  0  0  0  0
   60.5040   34.1950   48.8760 C   0  0  0  0  0  0  0  0  0  0  0  0
   60.5840   34.3210   47.3480 C   0  0  0  0  0  0  0  0  0  0  0  0
   60.5530   33.0050   46.7060 N   0  0  0  0  0  0  0  0  0  0  0  0
   59.3520   32.4680   46.1330 C   0  0  0  0  0  0  0  0  0  0  0  0
   58.3450   33.3710   45.6860 C   0  0  0  0  0  0  0  0  0  0  0  0
   57.1780   32.9050   45.0380 C   0  0  0  0  0  0  0  0  0  0  0  0
   57.0430   31.5310   44.8710 C   0  0  0  0  0  0  0  0  0  0  0  0
   56.0300   30.8330   44.3140 N   0  0  0  0  0  0  0  0  0  0  0  0
   56.4240   29.5340   44.4740 C   0  0  0  0  0  0  0  0  0  0  0  0
   57.6220   29.4290   45.1050 N   0  0  0  0  0  0  0  0  0  0  0  0
   58.3800   28.3750   45.5130 C   0  0  0  0  0  0  0  0  0  0  0  0
   58.0020   27.0450   45.2680 C   0  0  0  0  0  0  0  0  0  0  0  0
   58.8070   25.9970   45.7180 C   0  0  0  0  0  0  0  0  0  0  0  0
   59.9880   26.2620   46.4160 C   0  0  0  0  0  0  0  0  0  0  0  0
   60.3780   27.5800   46.6720 C   0  0  0  0  0  0  0  0  0  0  0  0
   59.5880   28.6550   46.2240 C   0  0  0  0  0  0  0  0  0  0  0  0
   59.9580   30.0120   46.4790 C   0  0  0  0  0  0  0  0  0  0  0  0
   60.9850   30.2640   47.1660 O   0  0  0  0  0  0  0  0  0  0  0  0
   59.1440   31.0640   45.9880 C   0  0  0  0  0  0  0  0  0  0  0  0
   57.9850   30.6840   45.3330 C   0  0  0  0  0  0  0  0  0  0  0  0
   63.8487   34.1849   46.7960 H   0  0  0  0  0  0  0  0  0  0  0  0
   64.5827   32.6123   46.3325 H   0  0  0  0  0  0  0  0  0  0  0  0
   62.7967   32.8047   46.3325 H   0  0  0  0  0  0  0  0  0  0  0  0
   64.1669   31.6525   48.3774 H   0  0  0  0  0  0  0  0  0  0  0  0
   64.1996   33.4058   48.8955 H   0  0  0  0  0  0  0  0  0  0  0  0
   62.5267   30.4449   49.1522 H   0  0  0  0  0  0  0  0  0  0  0  0
   62.6677   31.4704   50.6342 H   0  0  0  0  0  0  0  0  0  0  0  0
   60.5067   31.0630   51.0891 H   0  0  0  0  0  0  0  0  0  0  0  0
   60.0523   31.9003   49.5663 H   0  0  0  0  0  0  0  0  0  0  0  0
   60.3334   30.1262   49.5663 H   0  0  0  0  0  0  0  0  0  0  0  0
   61.7065   33.5976   50.5728 H   0  0  0  0  0  0  0  0  0  0  0  0
   62.5842   34.5677   49.3432 H   0  0  0  0  0  0  0  0  0  0  0  0
   59.7426   33.4427   49.1296 H   0  0  0  0  0  0  0  0  0  0  0  0
   60.2428   35.1834   49.2820 H   0  0  0  0  0  0  0  0  0  0  0  0
   59.7291   34.9144   46.9916 H   0  0  0  0  0  0  0  0  0  0  0  0
   61.5328   34.8132   47.0882 H   0  0  0  0  0  0  0  0  0  0  0  0
   61.3170   32.3350   46.9500 H   0  0  0  0  0  0  0  0  0  0  0  0
   58.4778   34.4509   45.8480 H   0  0  0  0  0  0  0  0  0  0  0  0
   56.4065   33.6024   44.6797 H   0  0  0  0  0  0  0  0  0  0  0  0
   55.8363   28.6701   44.1301 H   0  0  0  0  0  0  0  0  0  0  0  0
   57.0720   26.8290   44.7217 H   0  0  0  0  0  0  0  0  0  0  0  0
   58.5097   24.9563   45.5219 H   0  0  0  0  0  0  0  0  0  0  0  0
   60.6147   25.4286   46.7662 H   0  0  0  0  0  0  0  0  0  0  0  0
   61.3072   27.7777   47.2265 H   0  0  0  0  0  0  0  0  0  0  0  0
  1  2  1  0
  2  3  1  0
  3  4  1  0
  4  5  1  0
  3  6  1  0
  6  7  1  0
  7  8  1  0
  8  9  1  0
  9 10  1  0
 10 11  2  0
 11 12  1  0
 12 13  2  0
 13 14  1  0
 14 15  2  0
 15 16  1  0
 16 17  1  0
 17 18  2  0
 18 19  1  0
 19 20  2  0
 20 21  1  0
 21 22  2  0
 22 23  1  0
 23 24  2  0
 23 25  1  0
 25 26  2  0
 25 10  1  0
 26 13  1  0
 26 16  1  0
 22 17  1  0
  1 27  1  0
  1 28  1  0
  1 29  1  0
  2 30  1  0
  2 31  1  0
  4 32  1  0
  4 33  1  0
  5 34  1  0
  5 35  1  0
  5 36  1  0
  6 37  1  0
  6 38  1  0
  7 39  1  0
  7 40  1  0
  8 41  1  0
  8 42  1  0
  9 43  1  0
 11 44  1  0
 12 45  1  0
 15 46  1  0
 18 47  1  0
 19 48  1  0
 20 49  1  0
 21 50  1  0
M  END
>  <UniqueID>  (9) 
8

>  <SMILES>  (9) 
CCN(CC)CCCNc1ccc2ncn3c4ccccc4c(=O)c1c23

>  <Energy>  (9) 
111.67426589882143

>  <Genealogy>  (9) 
CCN(CC)CCCNc1ccc2ncn3c4ccccc4c(=O)c1c23 (3D coordinates assigned)
CCN(CC)CCCNc1ccc2ncn3c4ccccc4c(=O)c1c23 (optimized conformer: 111.67426589882143 kcal/mol)

>  <smiles>  (9) 
CCN(CC)CCCNc1ccc2ncn3c4ccccc4c(=O)c1c23

>  <score_type>  (9) 
oracle

>  <origin>  (9) 
adg

>  <m_score__min__energy>  (9) 
-7.2400000000000002

>  <m_primary>  (9) 
energy

$$$$
9:0
     RDKit          3D

 66 70  0  0  0  0  0  0  0  0999 V2000
   60.9904   25.6796   49.1716 H   0  0  0  0  0  0  0  0  0  0  0  0
   60.7420   26.7210   49.4240 C   0  0  0  0  0  0  0  0  0  0  0  0
   60.9400   27.1880   50.7280 C   0  0  0  0  0  0  0  0  0  0  0  0
   61.3630   26.5170   51.4901 H   0  0  0  0  0  0  0  0  0  0  0  0
   60.6020   28.5090   51.0710 C   0  0  0  0  0  0  0  0  0  0  0  0
   60.6710   28.9620   52.5110 C   0  0  0  0  0  0  0  0  0  0  0  0
   60.2451   28.1675   53.1414 H   0  0  0  0  0  0  0  0  0  0  0  0
   61.7316   29.1605   52.7249 H   0  0  0  0  0  0  0  0  0  0  0  0
   59.9080   30.2790   52.8110 C   0  0  0  0  0  0  0  0  0  0  0  0
   60.0721   30.5255   53.8704 H   0  0  0  0  0  0  0  0  0  0  0  0
   60.3114   31.0154   52.1004 H   0  0  0  0  0  0  0  0  0  0  0  0
   58.4420   30.2690   52.5730 N   0  0  0  0  0  0  0  0  0  0  0  0
   58.3160   29.6840   51.7100 H   0  0  0  0  0  0  0  0  0  0  0  0
   57.6680   29.6220   53.6550 C   0  0  0  0  0  0  0  0  0  0  0  0
   58.1142   28.6423   53.8809 H   0  0  0  0  0  0  0  0  0  0  0  0
   57.6955   30.2703   54.5432 H   0  0  0  0  0  0  0  0  0  0  0  0
   56.1930   29.4220   53.2340 C   0  0  0  0  0  0  0  0  0  0  0  0
   56.0171   28.3518   53.0503 H   0  0  0  0  0  0  0  0  0  0  0  0
   55.5519   29.7941   54.0467 H   0  0  0  0  0  0  0  0  0  0  0  0
   55.8650   30.1790   52.0060 N   0  0  0  0  0  0  0  0  0  0  0  0
   54.4150   30.1620   51.7660 C   0  0  0  0  0  0  0  0  0  0  0  0
   53.8840   30.1558   52.7293 H   0  0  0  0  0  0  0  0  0  0  0  0
   54.1274   31.0568   51.1945 H   0  0  0  0  0  0  0  0  0  0  0  0
   54.1485   29.2607   51.1945 H   0  0  0  0  0  0  0  0  0  0  0  0
   56.3550   31.5680   52.0980 C   0  0  0  0  0  0  0  0  0  0  0  0
   56.0842   32.1062   51.1777 H   0  0  0  0  0  0  0  0  0  0  0  0
   55.8922   32.0444   52.9748 H   0  0  0  0  0  0  0  0  0  0  0  0
   57.8920   31.6060   52.2720 C   0  0  0  0  0  0  0  0  0  0  0  0
   58.3468   31.9771   51.3417 H   0  0  0  0  0  0  0  0  0  0  0  0
   58.1245   32.2702   53.1175 H   0  0  0  0  0  0  0  0  0  0  0  0
   60.0750   29.3550   50.0810 C   0  0  0  0  0  0  0  0  0  0  0  0
   59.8083   30.3916   50.3345 H   0  0  0  0  0  0  0  0  0  0  0  0
   59.8870   28.8900   48.7770 C   0  0  0  0  0  0  0  0  0  0  0  0
   59.4683   29.5618   48.0132 H   0  0  0  0  0  0  0  0  0  0  0  0
   60.2270   27.5770   48.4350 C   0  0  0  0  0  0  0  0  0  0  0  0
   59.8240   27.0680   47.1540 N   0  0  0  0  0  0  0  0  0  0  0  0
   58.6730   27.1120   46.5260 C   0  0  0  0  0  0  0  0  0  0  0  0
   58.3120   28.3380   45.9130 C   0  0  0  0  0  0  0  0  0  0  0  0
   59.2170   29.4170   45.8110 C   0  0  0  0  0  0  0  0  0  0  0  0
   60.2487   29.2990   46.1739 H   0  0  0  0  0  0  0  0  0  0  0  0
   58.8140   30.6340   45.2530 C   0  0  0  0  0  0  0  0  0  0  0  0
   59.5332   31.4623   45.1711 H   0  0  0  0  0  0  0  0  0  0  0  0
   57.4960   30.8060   44.7960 C   0  0  0  0  0  0  0  0  0  0  0  0
   57.0450   32.0110   44.2360 O   0  0  0  0  0  0  0  0  0  0  0  0
   57.7610   33.2400   44.2890 C   0  0  0  0  0  0  0  0  0  0  0  0
   57.9260   33.5232   45.3390 H   0  0  0  0  0  0  0  0  0  0  0  0
   58.7312   33.1212   43.7845 H   0  0  0  0  0  0  0  0  0  0  0  0
   57.1791   34.0254   43.7845 H   0  0  0  0  0  0  0  0  0  0  0  0
   56.5940   29.7440   44.9020 C   0  0  0  0  0  0  0  0  0  0  0  0
   55.5600   29.8722   44.5494 H   0  0  0  0  0  0  0  0  0  0  0  0
   56.9900   28.5200   45.4510 C   0  0  0  0  0  0  0  0  0  0  0  0
   56.0920   27.5130   45.5470 N   0  0  0  0  0  0  0  0  0  0  0  0
   56.4240   26.2900   46.0270 C   0  0  0  0  0  0  0  0  0  0  0  0
   55.4610   25.2760   46.0120 C   0  0  0  0  0  0  0  0  0  0  0  0
   54.4238   25.5094   45.7296 H   0  0  0  0  0  0  0  0  0  0  0  0
   55.8100   23.9730   46.3530 C   0  0  0  0  0  0  0  0  0  0  0  0
   55.0396   23.1881   46.3727 H   0  0  0  0  0  0  0  0  0  0  0  0
   57.1310   23.6560   46.6700 C   0  0  0  0  0  0  0  0  0  0  0  0
   57.4450   22.3090   46.9100 O   0  0  0  0  0  0  0  0  0  0  0  0
   57.5800   21.3230   45.8940 C   0  0  0  0  0  0  0  0  0  0  0  0
   57.7153   20.3348   46.3578 H   0  0  0  0  0  0  0  0  0  0  0  0
   56.6747   21.3140   45.2692 H   0  0  0  0  0  0  0  0  0  0  0  0
   58.4544   21.5576   45.2692 H   0  0  0  0  0  0  0  0  0  0  0  0
   58.0980   24.6800   46.7210 C   0  0  0  0  0  0  0  0  0  0  0  0
   59.1430   24.4282   46.9545 H   0  0  0  0  0  0  0  0  0  0  0  0
   57.7430   26.0270   46.4760 C   0  0  0  0  0  0  0  0  0  0  0  0
  1  2  1  0
  2  3  2  0
  3  4  1  0
  3  5  1  0
  5  6  1  0
  6  7  1  0
  6  8  1  0
  6  9  1  0
  9 10  1  0
  9 11  1  0
  9 12  1  0
 12 13  1  0
 12 14  1  0
 14 15  1  0
 14 16  1  0
 14 17  1  0
 17 18  1  0
 17 19  1  0
 17 20  1  0
 20 21  1  0
 21 22  1  0
 21 23  1  0
 21 24  1  0
 20 25  1  0
 25 26  1  0
 25 27  1  0
 25 28  1  0
 28 29  1  0
 28 30  1  0
  5 31  2  0
 31 32  1  0
 31 33  1  0
 33 34  1  0
 33 35  2  0
 35 36  1  0
 36 37  2  0
 37 38  1  0
 38 39  2  0
 39 40  1  0
 39 41  1  0
 41 42  1  0
 41 43  2  0
 43 44  1  0
 44 45  1  0
 45 46  1  0
 45 47  1  0
 45 48  1  0
 43 49  1  0
 49 50  1  0
 49 51  2  0
 51 52  1  0
 52 53  1  0
 53 54  2  0
 54 55  1  0
 54 56  1  0
 56 57  1  0
 56 58  2  0
 58 59  1  0
 59 60  1  0
 60 61  1  0
 60 62  1  0
 60 63  1  0
 58 64  1  0
 64 65  1  0
 64 66  2  0
 35  2  1  0
 66 37  1  0
 28 12  1  0
 51 38  1  0
 66 53  1  0
M  CHG  2  12   1  52  -1
M  END
>  <UniqueID>  (10) 
9

>  <SMILES>  (10) 
COc1ccc2/c(=N/c3ccc(CC[NH+]4CCN(C)CC4)cc3)c3cc(OC)ccc3[n-]c2c1

>  <Energy>  (10) 
110.30968489110998

>  <Genealogy>  (10) 
COc1ccc2c(=Nc3ccc(CC[NH+]4CCN(C)CC4)cc3)c3cc(OC)ccc3[n-]c2c1 (protonated)
COc1ccc2/c(=N/c3ccc(CC[NH+]4CCN(C)CC4)cc3)c3cc(OC)ccc3[n-]c2c1 (cis-trans isomerization)
COc1ccc2/c(=N/c3ccc(CC[NH+]4CCN(C)CC4)cc3)c3cc(OC)ccc3[n-]c2c1 (3D coordinates assigned)
COc1ccc2/c(=N/c3ccc(CC[NH+]4CCN(C)CC4)cc3)c3cc(OC)ccc3[n-]c2c1 (nonaromatic ring conformer: 110.30968489110998 kcal/mol)

>  <smiles>  (10) 
COc1ccc2c(=Nc3ccc(CCN4CCN(C)CC4)cc3)c3cc(OC)ccc3[nH]c2c1

>  <score_type>  (10) 
oracle

>  <origin>  (10) 
adg

>  <m_score__min__energy>  (10) 
-8.6099999999999994

>  <m_primary>  (10) 
energy

$$$$
10:0
     RDKit          3D

 44 46  0  0  0  0  0  0  0  0999 V2000
   55.1720   24.8070   45.5170 C   0  0  0  0  0  0  0  0  0  0  0  0
   55.9460   24.9150   46.7650 N   0  0  0  0  0  0  0  0  0  0  0  0
   55.7050   23.7220   47.5940 C   0  0  0  0  0  0  0  0  0  0  0  0
   57.3880   25.0760   46.4660 C   0  0  0  0  0  0  0  0  0  0  0  0
   57.6500   26.3670   45.6600 C   0  0  2  0  0  0  0  0  0  0  0  0
   57.7520   26.0760   44.1520 C   0  0  0  0  0  0  0  0  0  0  0  0
   58.0390   27.3470   43.3150 C   0  0  0  0  0  0  0  0  0  0  0  0
   58.6750   28.4560   44.0810 N   0  0  1  0  0  0  0  0  0  0  0  0
   57.7230   29.3860   44.6790 C   0  0  0  0  0  0  0  0  0  0  0  0
   56.5190   29.0490   44.8560 O   0  0  0  0  0  0  0  0  0  0  0  0
   58.1230   30.7330   45.1480 C   0  0  0  0  0  0  0  0  0  0  0  0
   58.5200   31.0440   46.7640 S   0  0  0  0  0  0  0  0  0  0  0  0
   58.8520   32.6690   46.5420 C   0  0  0  0  0  0  0  0  0  0  0  0
   59.2580   33.5990   47.4950 C   0  0  0  0  0  0  0  0  0  0  0  0
   59.4680   34.9230   47.0820 C   0  0  0  0  0  0  0  0  0  0  0  0
   59.2680   35.2870   45.7370 C   0  0  0  0  0  0  0  0  0  0  0  0
   58.8550   34.3300   44.7940 C   0  0  0  0  0  0  0  0  0  0  0  0
   58.6510   33.0080   45.2120 C   0  0  0  0  0  0  0  0  0  0  0  0
   58.2340   31.9280   44.4130 C   0  0  0  0  0  0  0  0  0  0  0  0
   57.7700   32.1420   42.5640 Br  0  0  0  0  0  0  0  0  0  0  0  0
   59.6240   27.9200   45.0830 C   0  0  0  0  0  0  0  0  0  0  0  0
   58.9260   27.0770   46.1700 C   0  0  0  0  0  0  0  0  0  0  0  0
   54.1087   24.6586   45.7567 H   0  0  0  0  0  0  0  0  0  0  0  0
   55.2904   25.7304   44.9310 H   0  0  0  0  0  0  0  0  0  0  0  0
   55.5387   23.9513   44.9310 H   0  0  0  0  0  0  0  0  0  0  0  0
   55.7606   23.9972   48.6576 H   0  0  0  0  0  0  0  0  0  0  0  0
   54.7068   23.3167   47.3718 H   0  0  0  0  0  0  0  0  0  0  0  0
   56.4676   22.9610   47.3718 H   0  0  0  0  0  0  0  0  0  0  0  0
   57.9475   25.1237   47.4119 H   0  0  0  0  0  0  0  0  0  0  0  0
   57.7172   24.2163   45.8638 H   0  0  0  0  0  0  0  0  0  0  0  0
   56.7928   27.0394   45.8122 H   0  0  0  0  0  0  0  0  0  0  0  0
   58.5663   25.3551   43.9872 H   0  0  0  0  0  0  0  0  0  0  0  0
   56.7811   25.6756   43.8249 H   0  0  0  0  0  0  0  0  0  0  0  0
   58.7098   27.0706   42.4882 H   0  0  0  0  0  0  0  0  0  0  0  0
   57.0648   27.7222   42.9685 H   0  0  0  0  0  0  0  0  0  0  0  0
   59.2280   29.0000   43.3820 H   0  0  0  0  0  0  0  0  0  0  0  0
   59.4100   33.3036   48.5436 H   0  0  0  0  0  0  0  0  0  0  0  0
   59.7903   35.6799   47.8122 H   0  0  0  0  0  0  0  0  0  0  0  0
   59.4361   36.3274   45.4218 H   0  0  0  0  0  0  0  0  0  0  0  0
   58.6943   34.6145   43.7436 H   0  0  0  0  0  0  0  0  0  0  0  0
   60.3617   27.2881   44.5668 H   0  0  0  0  0  0  0  0  0  0  0  0
   60.1013   28.7767   45.5813 H   0  0  0  0  0  0  0  0  0  0  0  0
   59.6322   26.3135   46.5283 H   0  0  0  0  0  0  0  0  0  0  0  0
   58.6207   27.7642   46.9728 H   0  0  0  0  0  0  0  0  0  0  0  0
  1  2  1  0
  2  3  1  0
  2  4  1  0
  4  5  1  0
  5  6  1  0
  6  7  1  0
  7  8  1  0
  8  9  1  0
  9 10  2  0
  9 11  1  0
 11 12  1  0
 12 13  1  0
 13 14  2  0
 14 15  1  0
 15 16  2  0
 16 17  1  0
 17 18  2  0
 18 19  1  0
 19 20  1  0
  8 21  1  0
 21 22  1  0
 22  5  1  0
 19 11  2  0
 18 13  1  0
  1 23  1  0
  1 24  1  0
  1 25  1  0
  3 26  1  0
  3 27  1  0
  3 28  1  0
  4 29  1  0
  4 30  1  0
  5 31  1  6
  6 32  1  0
  6 33  1  0
  7 34  1  0
  7 35  1  0
  8 36  1  6
 14 37  1  0
 15 38  1  0
 16 39  1  0
 17 40  1  0
 21 41  1  0
 21 42  1  0
 22 43  1  0
 22 44  1  0
M  CHG  1   8   1
M  END
>  <UniqueID>  (11) 
10

>  <SMILES>  (11) 
CN(C)CC1CC[NH+](C(=O)c2sc3ccccc3c2Br)CC1

>  <Energy>  (11) 
93.41413906011367

>  <Genealogy>  (11) 
CN(C)CC1CC[NH+](C(=O)c2sc3ccccc3c2Br)CC1 (protonated)
CN(C)CC1CC[NH+](C(=O)c2sc3ccccc3c2Br)CC1 (3D coordinates assigned)
CN(C)CC1CC[NH+](C(=O)c2sc3ccccc3c2Br)CC1 (nonaromatic ring conformer: 93.41413906011367 kcal/mol)

>  <smiles>  (11) 
CN(C)CC1CCN(C(=O)c2sc3ccccc3c2Br)CC1

>  <score_type>  (11) 
oracle

>  <origin>  (11) 
adg

>  <m_score__min__energy>  (11) 
-7.3899999999999997

>  <m_primary>  (11) 
energy

$$$$
11:0
     RDKit          3D

 36 38  0  0  0  0  0  0  0  0999 V2000
   55.2475   31.1293   43.7126 H   0  0  0  0  0  0  0  0  0  0  0  0
   55.9070   30.3590   44.1390 C   0  0  0  0  0  0  0  0  0  0  0  0
   55.3650   29.2830   44.7700 N   0  0  0  0  0  0  0  0  0  0  0  0
   56.1750   28.3080   45.2420 C   0  0  0  0  0  0  0  0  0  0  0  0
   55.7530   27.2030   45.8110 O   0  0  0  0  0  0  0  0  0  0  0  0
   56.8170   26.4670   46.0220 C   0  0  0  0  0  0  0  0  0  0  0  0
   56.8330   25.1800   46.5530 C   0  0  0  0  0  0  0  0  0  0  0  0
   55.9152   24.7184   46.9461 H   0  0  0  0  0  0  0  0  0  0  0  0
   58.0540   24.4890   46.5720 C   0  0  0  0  0  0  0  0  0  0  0  0
   58.1085   23.4840   47.0158 H   0  0  0  0  0  0  0  0  0  0  0  0
   59.2110   25.0790   46.0240 C   0  0  0  0  0  0  0  0  0  0  0  0
   60.1560   24.5162   46.0101 H   0  0  0  0  0  0  0  0  0  0  0  0
   59.1670   26.3810   45.4950 C   0  0  0  0  0  0  0  0  0  0  0  0
   60.0566   26.8262   45.0255 H   0  0  0  0  0  0  0  0  0  0  0  0
   57.9670   27.1000   45.5780 C   0  0  0  0  0  0  0  0  0  0  0  0
   57.5580   28.3570   45.1180 C   0  0  0  0  0  0  0  0  0  0  0  0
   58.1690   29.5310   44.5910 C   0  0  0  0  0  0  0  0  0  0  0  0
   59.4200   29.8720   44.7340 N   0  0  0  0  0  0  0  0  0  0  0  0
   60.3560   29.6540   45.8280 C   0  0  0  0  0  0  0  0  0  0  0  0
   61.3491   29.4129   45.4210 H   0  0  0  0  0  0  0  0  0  0  0  0
   60.0087   28.8178   46.4527 H   0  0  0  0  0  0  0  0  0  0  0  0
   60.4430   30.9280   46.6720 C   0  0  0  0  0  0  0  0  0  0  0  0
   61.4539   31.3523   46.5821 H   0  0  0  0  0  0  0  0  0  0  0  0
   60.2278   30.6731   47.7202 H   0  0  0  0  0  0  0  0  0  0  0  0
   59.4580   31.9240   46.2150 N   0  0  0  0  0  0  0  0  0  0  0  0
   59.5270   32.0150   45.1740 H   0  0  0  0  0  0  0  0  0  0  0  0
   58.4890   31.6030   46.4510 H   0  0  0  0  0  0  0  0  0  0  0  0
   59.7010   33.2560   46.8000 C   0  0  0  0  0  0  0  0  0  0  0  0
   60.7557   33.5245   46.6404 H   0  0  0  0  0  0  0  0  0  0  0  0
   59.4558   33.2009   47.8709 H   0  0  0  0  0  0  0  0  0  0  0  0
   58.8180   34.3400   46.1750 C   0  0  0  0  0  0  0  0  0  0  0  0
   58.3393   34.9277   46.9722 H   0  0  0  0  0  0  0  0  0  0  0  0
   59.4366   35.0027   45.5520 H   0  0  0  0  0  0  0  0  0  0  0  0
   58.0439   33.8682   45.5520 H   0  0  0  0  0  0  0  0  0  0  0  0
   57.3030   30.4970   44.0260 C   0  0  0  0  0  0  0  0  0  0  0  0
   57.9930   32.0950   43.2170 Br  0  0  0  0  0  0  0  0  0  0  0  0
  1  2  1  0
  2  3  1  0
  3  4  1  0
  4  5  1  0
  5  6  1  0
  6  7  2  0
  7  8  1  0
  7  9  1  0
  9 10  1  0
  9 11  2  0
 11 12  1  0
 11 13  1  0
 13 14  1  0
 13 15  2  0
 15 16  1  0
 16 17  1  0
 17 18  2  0
 18 19  1  0
 19 20  1  0
 19 21  1  0
 19 22  1  0
 22 23  1  0
 22 24  1  0
 22 25  1  0
 25 26  1  0
 25 27  1  0
 25 28  1  0
 28 29  1  0
 28 30  1  0
 28 31  1  0
 31 32  1  0
 31 33  1  0
 31 34  1  0
 17 35  1  0
 35 36  1  0
 35  2  2  0
 16  4  2  0
 15  6  1  0
M  CHG  2   3  -1  25   1
M  END
>  <UniqueID>  (12) 
11

>  <SMILES>  (12) 
CC[NH2+]CC/N=c1\c(Br)c[n-]c2oc3ccccc3c12

>  <Energy>  (12) 
96.60680069576125

>  <Genealogy>  (12) 
CC[NH2+]CCN=c1c(Br)c[n-]c2oc3ccccc3c12 (protonated)
CC[NH2+]CC/N=c1\c(Br)c[n-]c2oc3ccccc3c12 (cis-trans isomerization)
CC[NH2+]CC/N=c1\c(Br)c[n-]c2oc3ccccc3c12 (3D coordinates assigned)
CC[NH2+]CC/N=c1\c(Br)c[n-]c2oc3ccccc3c12 (optimized conformer: 96.60680069576125 kcal/mol)

>  <smiles>  (12) 
CCNCCN=c1c(Br)c[nH]c2oc3ccccc3c12

>  <score_type>  (12) 
oracle

>  <origin>  (12) 
adg

>  <m_score__min__energy>  (12) 
-7.1799999999999997

>  <m_primary>  (12) 
energy

$$$$
12:0
     RDKit          3D

 52 54  0  0  0  0  0  0  0  0999 V2000
   58.2900   31.1240   50.2670 C   0  0  0  0  0  0  0  0  0  0  0  0
   58.5380   31.2390   48.8630 O   0  0  0  0  0  0  0  0  0  0  0  0
   59.7860   31.5690   48.3060 C   0  0  0  0  0  0  0  0  0  0  0  0
   60.2540   32.8560   48.3210 N   0  0  0  0  0  0  0  0  0  0  0  0
   61.4670   33.1800   47.7960 C   0  0  0  0  0  0  0  0  0  0  0  0
   62.2630   32.2000   47.2040 C   0  0  0  0  0  0  0  0  0  0  0  0
   61.8160   30.8810   47.1770 C   0  0  0  0  0  0  0  0  0  0  0  0
   60.5740   30.5460   47.7340 C   0  0  0  0  0  0  0  0  0  0  0  0
   60.1220   29.1060   47.7250 C   0  0  0  0  0  0  0  0  0  0  0  0
   58.8450   28.9900   46.9960 N   0  0  0  0  0  0  0  0  0  0  0  0
   58.9640   28.6850   45.5510 C   0  0  1  0  0  0  0  0  0  0  0  0
   59.1760   27.1820   45.2310 C   0  0  0  0  0  0  0  0  0  0  0  0
   57.8990   26.3810   45.3040 C   0  0  0  0  0  0  0  0  0  0  0  0
   57.6900   25.2810   44.4540 C   0  0  0  0  0  0  0  0  0  0  0  0
   56.5340   24.5080   44.5800 C   0  0  0  0  0  0  0  0  0  0  0  0
   55.5930   24.8340   45.5590 C   0  0  0  0  0  0  0  0  0  0  0  0
   55.8100   25.8940   46.3840 N   0  0  0  0  0  0  0  0  0  0  0  0
   56.9280   26.6660   46.2790 C   0  0  0  0  0  0  0  0  0  0  0  0
   57.7890   29.2430   44.7700 C   0  0  0  0  0  0  0  0  0  0  0  0
   57.5020   28.7710   43.6410 O   0  0  0  0  0  0  0  0  0  0  0  0
   57.0090   30.3410   45.2630 N   0  0  0  0  0  0  0  0  0  0  0  0
   56.6840   31.5500   44.5140 C   0  0  0  0  0  0  0  0  0  0  0  0
   57.5300   32.6870   45.0110 C   0  0  0  0  0  0  0  0  0  0  0  0
   57.3770   33.1810   46.3180 C   0  0  0  0  0  0  0  0  0  0  0  0
   58.1740   34.2400   46.7680 C   0  0  0  0  0  0  0  0  0  0  0  0
   59.1250   34.8120   45.9170 C   0  0  0  0  0  0  0  0  0  0  0  0
   59.2750   34.3330   44.6120 C   0  0  0  0  0  0  0  0  0  0  0  0
   58.4810   33.2750   44.1580 C   0  0  0  0  0  0  0  0  0  0  0  0
   59.1499   31.5228   50.8251 H   0  0  0  0  0  0  0  0  0  0  0  0
   57.3868   31.6952   50.5278 H   0  0  0  0  0  0  0  0  0  0  0  0
   58.1425   30.0656   50.5278 H   0  0  0  0  0  0  0  0  0  0  0  0
   59.6890   33.6260   48.7450 H   0  0  0  0  0  0  0  0  0  0  0  0
   61.8214   34.2205   47.8389 H   0  0  0  0  0  0  0  0  0  0  0  0
   63.2347   32.4660   46.7625 H   0  0  0  0  0  0  0  0  0  0  0  0
   62.4394   30.1000   46.7173 H   0  0  0  0  0  0  0  0  0  0  0  0
   60.8838   28.4868   47.2288 H   0  0  0  0  0  0  0  0  0  0  0  0
   59.9828   28.7615   48.7604 H   0  0  0  0  0  0  0  0  0  0  0  0
   58.3320   29.9000   47.0990 H   0  0  0  0  0  0  0  0  0  0  0  0
   59.8844   29.1916   45.2251 H   0  0  0  0  0  0  0  0  0  0  0  0
   59.5881   27.0941   44.2149 H   0  0  0  0  0  0  0  0  0  0  0  0
   59.8639   26.7769   45.9877 H   0  0  0  0  0  0  0  0  0  0  0  0
   58.4384   25.0288   43.6883 H   0  0  0  0  0  0  0  0  0  0  0  0
   56.3659   23.6492   43.9135 H   0  0  0  0  0  0  0  0  0  0  0  0
   54.6768   24.2342   45.6631 H   0  0  0  0  0  0  0  0  0  0  0  0
   57.0712   27.5169   46.9612 H   0  0  0  0  0  0  0  0  0  0  0  0
   56.8833   31.3842   43.4450 H   0  0  0  0  0  0  0  0  0  0  0  0
   55.6207   31.7945   44.6541 H   0  0  0  0  0  0  0  0  0  0  0  0
   56.6288   32.7341   46.9891 H   0  0  0  0  0  0  0  0  0  0  0  0
   58.0522   34.6227   47.7921 H   0  0  0  0  0  0  0  0  0  0  0  0
   59.7555   35.6394   46.2746 H   0  0  0  0  0  0  0  0  0  0  0  0
   60.0184   34.7889   43.9416 H   0  0  0  0  0  0  0  0  0  0  0  0
   58.6007   32.9015   43.1303 H   0  0  0  0  0  0  0  0  0  0  0  0
  1  2  1  0
  2  3  1  0
  3  4  2  0
  4  5  1  0
  5  6  2  0
  6  7  1  0
  7  8  2  0
  8  9  1  0
  9 10  1  0
 10 11  1  0
 11 12  1  0
 12 13  1  0
 13 14  2  0
 14 15  1  0
 15 16  2  0
 16 17  1  0
 17 18  2  0
 11 19  1  0
 19 20  2  0
 19 21  1  0
 21 22  1  0
 22 23  1  0
 23 24  2  0
 24 25  1  0
 25 26  2  0
 26 27  1  0
 27 28  2  0
  8  3  1  0
 18 13  1  0
 28 23  1  0
  1 29  1  0
  1 30  1  0
  1 31  1  0
  4 32  1  0
  5 33  1  0
  6 34  1  0
  7 35  1  0
  9 36  1  0
  9 37  1  0
 10 38  1  0
 11 39  1  6
 12 40  1  0
 12 41  1  0
 14 42  1  0
 15 43  1  0
 16 44  1  0
 18 45  1  0
 22 46  1  0
 22 47  1  0
 24 48  1  0
 25 49  1  0
 26 50  1  0
 27 51  1  0
 28 52  1  0
M  CHG  2   4   1  21  -1
M  END
>  <UniqueID>  (13) 
12

>  <SMILES>  (13) 
COc1[nH+]cccc1CN[C@@H](Cc1cccnc1)C(=O)[N-]Cc1ccccc1

>  <Energy>  (13) 
55.70665595890618

>  <Genealogy>  (13) 
COc1[nH+]cccc1CNC(Cc1cccnc1)C(=O)[N-]Cc1ccccc1 (protonated)
COc1[nH+]cccc1CN[C@@H](Cc1cccnc1)C(=O)[N-]Cc1ccccc1 (chirality)
COc1[nH+]cccc1CN[C@@H](Cc1cccnc1)C(=O)[N-]Cc1ccccc1 (3D coordinates assigned)
COc1[nH+]cccc1CN[C@@H](Cc1cccnc1)C(=O)[N-]Cc1ccccc1 (optimized conformer: 55.70665595890618 kcal/mol)

>  <smiles>  (13) 
COc1ncccc1CNC(Cc1cccnc1)C(=O)NCc1ccccc1

>  <score_type>  (13) 
oracle

>  <origin>  (13) 
adg

>  <m_score__min__energy>  (13) 
-8.2599999999999998

>  <m_primary>  (13) 
energy

$$$$
13:0
     RDKit          3D

 30 32  0  0  0  0  0  0  0  0999 V2000
   63.3020   33.6530   46.4310 C   0  0  0  0  0  0  0  0  0  0  0  0
   62.8140   33.7820   47.8500 C   0  0  0  0  0  0  0  0  0  0  0  0
   63.7670   33.8420   48.8820 C   0  0  0  0  0  0  0  0  0  0  0  0
   63.3680   33.9110   50.2170 C   0  0  0  0  0  0  0  0  0  0  0  0
   62.0130   33.9240   50.5420 C   0  0  0  0  0  0  0  0  0  0  0  0
   61.0520   33.8870   49.5300 C   0  0  0  0  0  0  0  0  0  0  0  0
   61.4330   33.8400   48.1780 C   0  0  0  0  0  0  0  0  0  0  0  0
   60.3660   33.8390   47.1530 C   0  0  0  0  0  0  0  0  0  0  0  0
   59.9630   32.7280   46.5000 N   0  0  0  0  0  0  0  0  0  0  0  0
   58.9550   33.2060   45.7350 C   0  0  0  0  0  0  0  0  0  0  0  0
   58.1600   32.3860   44.8010 C   0  0  0  0  0  0  0  0  0  0  0  0
   58.1580   32.6560   43.4250 C   0  0  0  0  0  0  0  0  0  0  0  0
   57.3980   31.8680   42.5580 C   0  0  0  0  0  0  0  0  0  0  0  0
   56.6450   30.8130   43.0750 C   0  0  0  0  0  0  0  0  0  0  0  0
   56.6550   30.5620   44.4110 N   0  0  0  0  0  0  0  0  0  0  0  0
   57.3870   31.3140   45.2760 C   0  0  0  0  0  0  0  0  0  0  0  0
   58.7690   34.4900   45.9330 O   0  0  0  0  0  0  0  0  0  0  0  0
   59.6250   34.9090   46.8100 N   0  0  0  0  0  0  0  0  0  0  0  0
   64.3655   33.3719   46.4331 H   0  0  0  0  0  0  0  0  0  0  0  0
   62.7189   32.8781   45.9117 H   0  0  0  0  0  0  0  0  0  0  0  0
   63.1780   34.6148   45.9117 H   0  0  0  0  0  0  0  0  0  0  0  0
   64.8387   33.8345   48.6341 H   0  0  0  0  0  0  0  0  0  0  0  0
   64.1243   33.9552   51.0145 H   0  0  0  0  0  0  0  0  0  0  0  0
   61.7006   33.9634   51.5960 H   0  0  0  0  0  0  0  0  0  0  0  0
   59.9841   33.8947   49.7939 H   0  0  0  0  0  0  0  0  0  0  0  0
   58.7559   33.4896   43.0280 H   0  0  0  0  0  0  0  0  0  0  0  0
   57.3930   32.0769   41.4780 H   0  0  0  0  0  0  0  0  0  0  0  0
   56.0435   30.1847   42.4017 H   0  0  0  0  0  0  0  0  0  0  0  0
   57.3736   31.0818   46.3511 H   0  0  0  0  0  0  0  0  0  0  0  0
   59.6730   35.8810   47.1880 H   0  0  0  0  0  0  0  0  0  0  0  0
  1  2  1  0
  2  3  2  0
  3  4  1  0
  4  5  2  0
  5  6  1  0
  6  7  2  0
  7  8  1  0
  8  9  1  0
  9 10  2  0
 10 11  1  0
 11 12  2  0
 12 13  1  0
 13 14  2  0
 14 15  1  0
 15 16  2  0
 10 17  1  0
 17 18  1  0
  7  2  1  0
 18  8  2  0
 16 11  1  0
  1 19  1  0
  1 20  1  0
  1 21  1  0
  3 22  1  0
  4 23  1  0
  5 24  1  0
  6 25  1  0
 12 26  1  0
 13 27  1  0
 14 28  1  0
 16 29  1  0
 18 30  1  0
M  CHG  1  18   1
M  END
>  <UniqueID>  (14) 
13

>  <SMILES>  (14) 
Cc1ccccc1-c1nc(-c2cccnc2)o[nH+]1

>  <Energy>  (14) 
73.2441466538198

>  <Genealogy>  (14) 
Cc1ccccc1-c1nc(-c2cccnc2)o[nH+]1 (protonated)
Cc1ccccc1-c1nc(-c2cccnc2)o[nH+]1 (3D coordinates assigned)
Cc1ccccc1-c1nc(-c2cccnc2)o[nH+]1 (optimized conformer: 73.2441466538198 kcal/mol)

>  <smiles>  (14) 
Cc1ccccc1-c1noc(-c2cccnc2)n1

>  <score_type>  (14) 
oracle

>  <origin>  (14) 
adg

>  <m_score__min__energy>  (14) 
-5.6600000000000001

>  <m_primary>  (14) 
energy

$$$$
14:0
     RDKit          3D

 35 38  0  0  0  0  0  0  0  0999 V2000
   57.0930   25.2870   45.0000 C   0  0  0  0  0  0  0  0  0  0  0  0
   56.7700   26.2560   45.9930 O   0  0  0  0  0  0  0  0  0  0  0  0
   57.4960   27.4360   46.2240 C   0  0  0  0  0  0  0  0  0  0  0  0
   58.6310   27.4590   47.0340 C   0  0  0  0  0  0  0  0  0  0  0  0
   59.3210   28.6500   47.2370 C   0  0  0  0  0  0  0  0  0  0  0  0
   60.4280   28.6590   48.0290 N   0  0  0  0  0  0  0  0  0  0  0  0
   61.1310   29.7960   48.2510 C   0  0  0  0  0  0  0  0  0  0  0  0
   60.7330   30.9940   47.6720 C   0  0  0  0  0  0  0  0  0  0  0  0
   59.5880   31.0460   46.8420 C   0  0  0  0  0  0  0  0  0  0  0  0
   59.1400   32.2460   46.2290 C   0  0  0  0  0  0  0  0  0  0  0  0
   59.7950   33.4940   46.4000 C   0  0  0  0  0  0  0  0  0  0  0  0
   59.3310   34.6530   45.7660 C   0  0  0  0  0  0  0  0  0  0  0  0
   60.0200   35.9670   45.9930 C   0  0  0  0  0  0  0  0  0  0  0  0
   58.1830   34.5920   44.9750 C   0  0  0  0  0  0  0  0  0  0  0  0
   57.5220   33.3830   44.7930 C   0  0  0  0  0  0  0  0  0  0  0  0
   57.9870   32.2020   45.4090 C   0  0  0  0  0  0  0  0  0  0  0  0
   57.3050   30.9850   45.2150 C   0  0  0  0  0  0  0  0  0  0  0  0
   56.2780   30.9860   44.4750 O   0  0  0  0  0  0  0  0  0  0  0  0
   57.7380   29.8180   45.8140 N   0  0  0  0  0  0  0  0  0  0  0  0
   57.0630   28.6230   45.6210 C   0  0  0  0  0  0  0  0  0  0  0  0
   56.0310   28.5610   44.8970 O   0  0  0  0  0  0  0  0  0  0  0  0
   58.8640   29.8420   46.6170 C   0  0  0  0  0  0  0  0  0  0  0  0
   57.4047   24.3518   45.4880 H   0  0  0  0  0  0  0  0  0  0  0  0
   56.2098   25.0965   44.3726 H   0  0  0  0  0  0  0  0  0  0  0  0
   57.9139   25.6645   44.3726 H   0  0  0  0  0  0  0  0  0  0  0  0
   58.9816   26.5332   47.5136 H   0  0  0  0  0  0  0  0  0  0  0  0
   60.7620   27.7780   48.4830 H   0  0  0  0  0  0  0  0  0  0  0  0
   62.0230   29.7699   48.8942 H   0  0  0  0  0  0  0  0  0  0  0  0
   61.3125   31.9099   47.8601 H   0  0  0  0  0  0  0  0  0  0  0  0
   60.6851   33.5516   47.0437 H   0  0  0  0  0  0  0  0  0  0  0  0
   60.1155   36.1491   47.0736 H   0  0  0  0  0  0  0  0  0  0  0  0
   61.0202   35.9404   45.5359 H   0  0  0  0  0  0  0  0  0  0  0  0
   59.4293   36.7745   45.5359 H   0  0  0  0  0  0  0  0  0  0  0  0
   57.7999   35.5040   44.4938 H   0  0  0  0  0  0  0  0  0  0  0  0
   56.6234   33.3464   44.1596 H   0  0  0  0  0  0  0  0  0  0  0  0
  1  2  1  0
  2  3  1  0
  3  4  2  0
  4  5  1  0
  5  6  2  0
  6  7  1  0
  7  8  2  0
  8  9  1  0
  9 10  1  0
 10 11  2  0
 11 12  1  0
 12 13  1  0
 12 14  2  0
 14 15  1  0
 15 16  2  0
 16 17  1  0
 17 18  2  0
 17 19  1  0
 19 20  1  0
 20 21  2  0
 19 22  1  0
 20  3  1  0
 22  5  1  0
 22  9  2  0
 16 10  1  0
  1 23  1  0
  1 24  1  0
  1 25  1  0
  4 26  1  0
  6 27  1  0
  7 28  1  0
  8 29  1  0
 11 30  1  0
 13 31  1  0
 13 32  1  0
 13 33  1  0
 14 34  1  0
 15 35  1  0
M  CHG  1   6   1
M  END
>  <UniqueID>  (15) 
14

>  <SMILES>  (15) 
COc1cc2[nH+]ccc3c4cc(C)ccc4c(=O)n(c1=O)c23

>  <Energy>  (15) 
63.319960221998564

>  <Genealogy>  (15) 
COc1cc2[nH+]ccc3c4cc(C)ccc4c(=O)n(c1=O)c23 (protonated)
COc1cc2[nH+]ccc3c4cc(C)ccc4c(=O)n(c1=O)c23 (3D coordinates assigned)
COc1cc2[nH+]ccc3c4cc(C)ccc4c(=O)n(c1=O)c23 (optimized conformer: 63.319960221998564 kcal/mol)

>  <smiles>  (15) 
COc1cc2nccc3c4cc(C)ccc4c(=O)n(c1=O)c23

>  <score_type>  (15) 
oracle

>  <origin>  (15) 
adg

>  <m_score__min__energy>  (15) 
-5.9800000000000004

>  <m_primary>  (15) 
energy

$$$$
15:0
     RDKit          3D

 32 34  0  0  0  0  0  0  0  0999 V2000
   60.1825   35.6628   45.7640 H   0  0  0  0  0  0  0  0  0  0  0  0
   59.6360   34.7110   45.6910 C   0  0  0  0  0  0  0  0  0  0  0  0
   60.0690   33.6000   46.4170 C   0  0  0  0  0  0  0  0  0  0  0  0
   60.9575   33.6771   47.0609 H   0  0  0  0  0  0  0  0  0  0  0  0
   59.3750   32.3890   46.3270 C   0  0  0  0  0  0  0  0  0  0  0  0
   59.7208   31.5170   46.9015 H   0  0  0  0  0  0  0  0  0  0  0  0
   58.2370   32.2790   45.5060 C   0  0  0  0  0  0  0  0  0  0  0  0
   57.4950   31.0020   45.4010 C   0  0  0  0  0  0  0  0  0  0  0  0
   56.2920   30.8840   44.7880 N   0  0  0  0  0  0  0  0  0  0  0  0
   55.7970   29.6470   44.8100 N   0  0  0  0  0  0  0  0  0  0  0  0
   56.6020   28.7620   45.4310 C   0  0  0  0  0  0  0  0  0  0  0  0
   56.2680   27.5150   45.5900 N   0  0  0  0  0  0  0  0  0  0  0  0
   57.1610   26.3930   45.6500 C   0  0  0  0  0  0  0  0  0  0  0  0
   56.8240   25.2210   44.9620 C   0  0  0  0  0  0  0  0  0  0  0  0
   55.8720   25.1639   44.4138 H   0  0  0  0  0  0  0  0  0  0  0  0
   57.6890   24.1230   44.9670 C   0  0  0  0  0  0  0  0  0  0  0  0
   57.4035   23.2012   44.4391 H   0  0  0  0  0  0  0  0  0  0  0  0
   58.9150   24.1870   45.6380 C   0  0  0  0  0  0  0  0  0  0  0  0
   59.7460   23.0570   45.6160 O   0  0  0  0  0  0  0  0  0  0  0  0
   59.6370   21.9990   44.6700 C   0  0  0  0  0  0  0  0  0  0  0  0
   59.5383   21.0409   45.2012 H   0  0  0  0  0  0  0  0  0  0  0  0
   58.7508   22.1613   44.0389 H   0  0  0  0  0  0  0  0  0  0  0  0
   60.5377   21.9772   44.0389 H   0  0  0  0  0  0  0  0  0  0  0  0
   59.2720   25.3750   46.3030 C   0  0  0  0  0  0  0  0  0  0  0  0
   60.2364   25.4401   46.8281 H   0  0  0  0  0  0  0  0  0  0  0  0
   58.4060   26.4730   46.2990 C   0  0  0  0  0  0  0  0  0  0  0  0
   58.7001   27.4038   46.8060 H   0  0  0  0  0  0  0  0  0  0  0  0
   57.9980   29.5110   46.0180 S   0  0  0  0  0  0  0  0  0  0  0  0
   57.8120   33.4060   44.7780 C   0  0  0  0  0  0  0  0  0  0  0  0
   56.9254   33.3358   44.1307 H   0  0  0  0  0  0  0  0  0  0  0  0
   58.5090   34.6140   44.8720 C   0  0  0  0  0  0  0  0  0  0  0  0
   58.1692   35.4898   44.2998 H   0  0  0  0  0  0  0  0  0  0  0  0
  1  2  1  0
  2  3  2  0
  3  4  1  0
  3  5  1  0
  5  6  1  0
  5  7  2  0
  7  8  1  0
  8  9  2  0
  9 10  1  0
 10 11  1  0
 11 12  2  0
 12 13  1  0
 13 14  2  0
 14 15  1  0
 14 16  1  0
 16 17  1  0
 16 18  2  0
 18 19  1  0
 19 20  1  0
 20 21  1  0
 20 22  1  0
 20 23  1  0
 18 24  1  0
 24 25  1  0
 24 26  2  0
 26 27  1  0
 11 28  1  0
  7 29  1  0
 29 30  1  0
 29 31  2  0
 31 32  1  0
 31  2  1  0
 28  8  1  0
 26 13  1  0
M  CHG  1  10  -1
M  END
>  <UniqueID>  (16) 
15

>  <SMILES>  (16) 
COc1ccc(/N=c2/[n-]nc(-c3ccccc3)s2)cc1

>  <Energy>  (16) 
76.63236814235184

>  <Genealogy>  (16) 
COc1ccc(N=c2[n-]nc(-c3ccccc3)s2)cc1 (protonated)
COc1ccc(/N=c2/[n-]nc(-c3ccccc3)s2)cc1 (cis-trans isomerization)
COc1ccc(/N=c2/[n-]nc(-c3ccccc3)s2)cc1 (3D coordinates assigned)
COc1ccc(/N=c2/[n-]nc(-c3ccccc3)s2)cc1 (optimized conformer: 76.63236814235184 kcal/mol)

>  <smiles>  (16) 
COc1ccc(N=c2[nH]nc(-c3ccccc3)s2)cc1

>  <score_type>  (16) 
oracle

>  <origin>  (16) 
adg

>  <m_score__min__energy>  (16) 
-9.1999999999999993

>  <m_primary>  (16) 
energy

$$$$
16:0
     RDKit          3D

 37 38  0  0  0  0  0  0  0  0999 V2000
   59.6360   35.1100   45.9640 C   0  0  0  0  0  0  0  0  0  0  0  0
   58.3860   34.4620   45.7640 O   0  0  0  0  0  0  0  0  0  0  0  0
   58.1990   33.4650   44.8020 C   0  0  0  0  0  0  0  0  0  0  0  0
   58.8510   33.4860   43.7220 O   0  0  0  0  0  0  0  0  0  0  0  0
   57.2210   32.3600   45.0590 C   0  0  0  0  0  0  0  0  0  0  0  0
   57.7670   30.9940   44.5800 C   0  0  2  0  0  0  0  0  0  0  0  0
   56.7320   29.9110   44.5500 C   0  0  0  0  0  0  0  0  0  0  0  0
   55.5020   30.1860   44.5110 O   0  0  0  0  0  0  0  0  0  0  0  0
   57.1570   28.5480   44.4810 N   0  0  0  0  0  0  0  0  0  0  0  0
   58.5610   28.1390   44.5660 C   0  0  0  0  0  0  0  0  0  0  0  0
   59.5560   29.3190   44.7080 C   0  0  0  0  0  0  0  0  0  0  0  0
   58.9700   30.5340   45.3120 N   0  0  0  0  0  0  0  0  0  0  0  0
   58.9650   30.5580   46.8000 C   0  0  0  0  0  0  0  0  0  0  0  0
   59.7810   31.6680   47.4260 C   0  0  0  0  0  0  0  0  0  0  0  0
   59.1930   32.5280   48.3710 C   0  0  0  0  0  0  0  0  0  0  0  0
   59.9470   33.5440   48.9660 C   0  0  0  0  0  0  0  0  0  0  0  0
   61.2960   33.7010   48.6380 C   0  0  0  0  0  0  0  0  0  0  0  0
   62.0210   34.6880   49.2170 F   0  0  0  0  0  0  0  0  0  0  0  0
   61.8960   32.8320   47.7230 C   0  0  0  0  0  0  0  0  0  0  0  0
   63.2090   32.9720   47.4160 F   0  0  0  0  0  0  0  0  0  0  0  0
   61.1460   31.8120   47.1270 C   0  0  0  0  0  0  0  0  0  0  0  0
   59.8288   35.2099   47.0424 H   0  0  0  0  0  0  0  0  0  0  0  0
   60.4364   34.5133   45.5022 H   0  0  0  0  0  0  0  0  0  0  0  0
   59.6097   36.1080   45.5022 H   0  0  0  0  0  0  0  0  0  0  0  0
   57.0198   32.3053   46.1391 H   0  0  0  0  0  0  0  0  0  0  0  0
   56.2999   32.5782   44.4986 H   0  0  0  0  0  0  0  0  0  0  0  0
   58.0736   31.1931   43.5425 H   0  0  0  0  0  0  0  0  0  0  0  0
   56.4310   27.8000   44.4000 H   0  0  0  0  0  0  0  0  0  0  0  0
   58.6771   27.4820   45.4405 H   0  0  0  0  0  0  0  0  0  0  0  0
   58.8020   27.6328   43.6196 H   0  0  0  0  0  0  0  0  0  0  0  0
   60.3945   28.9896   45.3392 H   0  0  0  0  0  0  0  0  0  0  0  0
   59.8715   29.5917   43.6901 H   0  0  0  0  0  0  0  0  0  0  0  0
   57.9234   30.6696   47.1357 H   0  0  0  0  0  0  0  0  0  0  0  0
   59.4304   29.6153   47.1235 H   0  0  0  0  0  0  0  0  0  0  0  0
   58.1349   32.4006   48.6432 H   0  0  0  0  0  0  0  0  0  0  0  0
   59.4770   34.2214   49.6941 H   0  0  0  0  0  0  0  0  0  0  0  0
   61.6276   31.1196   46.4209 H   0  0  0  0  0  0  0  0  0  0  0  0
  1  2  1  0
  2  3  1  0
  3  4  2  0
  3  5  1  0
  5  6  1  0
  6  7  1  0
  7  8  2  0
  7  9  1  0
  9 10  1  0
 10 11  1  0
 11 12  1  0
 12 13  1  0
 13 14  1  0
 14 15  2  0
 15 16  1  0
 16 17  2  0
 17 18  1  0
 17 19  1  0
 19 20  1  0
 19 21  2  0
 12  6  1  0
 21 14  1  0
  1 22  1  0
  1 23  1  0
  1 24  1  0
  5 25  1  0
  5 26  1  0
  6 27  1  6
  9 28  1  0
 10 29  1  0
 10 30  1  0
 11 31  1  0
 11 32  1  0
 13 33  1  0
 13 34  1  0
 15 35  1  0
 16 36  1  0
 21 37  1  0
M  END
>  <UniqueID>  (17) 
16

>  <SMILES>  (17) 
COC(=O)C[C@@H]1C(=O)NCCN1Cc1ccc(F)c(F)c1

>  <Energy>  (17) 
46.51499017323697

>  <Genealogy>  (17) 
COC(=O)C[C@@H]1C(=O)NCCN1Cc1ccc(F)c(F)c1 (chirality)
COC(=O)C[C@@H]1C(=O)NCCN1Cc1ccc(F)c(F)c1 (3D coordinates assigned)
COC(=O)C[C@@H]1C(=O)NCCN1Cc1ccc(F)c(F)c1 (nonaromatic ring conformer: 46.51499017323697 kcal/mol)

>  <smiles>  (17) 
COC(=O)CC1C(=O)NCCN1Cc1ccc(F)c(F)c1

>  <score_type>  (17) 
oracle

>  <origin>  (17) 
adg

>  <m_score__min__energy>  (17) 
-6.2800000000000002

>  <m_primary>  (17) 
energy

$$$$
17:0
     RDKit          3D

 55 57  0  0  0  0  0  0  0  0999 V2000
   59.6630   35.6030   46.3880 F   0  0  0  0  0  0  0  0  0  0  0  0
   58.9550   34.5660   45.8760 C   0  0  0  0  0  0  0  0  0  0  0  0
   58.1120   33.8210   46.7040 C   0  0  0  0  0  0  0  0  0  0  0  0
   57.3820   32.7500   46.1790 C   0  0  0  0  0  0  0  0  0  0  0  0
   57.4820   32.4240   44.8150 C   0  0  0  0  0  0  0  0  0  0  0  0
   56.7220   31.2520   44.2570 C   0  0  0  0  0  0  0  0  0  0  0  0
   56.6870   30.1730   45.2490 N   0  0  0  0  0  0  0  0  0  0  0  0
   57.0570   28.8920   44.6350 C   0  0  0  0  0  0  0  0  0  0  0  0
   58.5660   28.6590   44.7600 C   0  0  0  0  0  0  0  0  0  0  0  0
   59.0910   29.1810   46.0730 C   0  0  0  0  0  0  0  0  0  0  0  0
   58.7640   28.5330   47.2730 C   0  0  0  0  0  0  0  0  0  0  0  0
   59.2910   28.9860   48.4860 C   0  0  0  0  0  0  0  0  0  0  0  0
   60.1560   30.0850   48.5200 C   0  0  0  0  0  0  0  0  0  0  0  0
   60.6580   30.4940   49.7670 O   0  0  0  0  0  0  0  0  0  0  0  0
   61.9360   30.1410   50.2990 C   0  0  0  0  0  0  0  0  0  0  0  0
   62.9400   31.2970   50.1010 C   0  0  0  0  0  0  0  0  0  0  0  0
   62.6200   32.1920   48.9680 N   0  0  0  0  0  0  0  0  0  0  0  0
   62.0440   33.4860   49.3770 C   0  0  0  0  0  0  0  0  0  0  0  0
   61.3740   34.1740   48.1730 C   0  0  0  0  0  0  0  0  0  0  0  0
   61.9960   33.7530   46.8310 C   0  0  0  0  0  0  0  0  0  0  0  0
   63.4910   33.4600   46.9810 C   0  0  0  0  0  0  0  0  0  0  0  0
   63.7480   32.3480   48.0210 C   0  0  0  0  0  0  0  0  0  0  0  0
   60.4950   30.7290   47.3130 C   0  0  0  0  0  0  0  0  0  0  0  0
   59.9670   30.2780   46.1010 C   0  0  0  0  0  0  0  0  0  0  0  0
   58.3440   33.1710   43.9910 C   0  0  0  0  0  0  0  0  0  0  0  0
   58.4820   32.8600   42.6770 F   0  0  0  0  0  0  0  0  0  0  0  0
   59.0730   34.2400   44.5220 C   0  0  0  0  0  0  0  0  0  0  0  0
   58.0223   34.0770   47.7700 H   0  0  0  0  0  0  0  0  0  0  0  0
   56.7265   32.1598   46.8363 H   0  0  0  0  0  0  0  0  0  0  0  0
   55.6944   31.5625   44.0170 H   0  0  0  0  0  0  0  0  0  0  0  0
   57.2204   30.8938   43.3441 H   0  0  0  0  0  0  0  0  0  0  0  0
   55.7040   30.0900   45.6020 H   0  0  0  0  0  0  0  0  0  0  0  0
   56.5206   28.0774   45.1436 H   0  0  0  0  0  0  0  0  0  0  0  0
   56.7853   28.9141   43.5693 H   0  0  0  0  0  0  0  0  0  0  0  0
   58.7690   27.5798   44.6959 H   0  0  0  0  0  0  0  0  0  0  0  0
   59.0705   29.1975   43.9442 H   0  0  0  0  0  0  0  0  0  0  0  0
   58.0896   27.6641   47.2597 H   0  0  0  0  0  0  0  0  0  0  0  0
   59.0232   28.4738   49.4219 H   0  0  0  0  0  0  0  0  0  0  0  0
   61.8351   29.9288   51.3736 H   0  0  0  0  0  0  0  0  0  0  0  0
   62.3085   29.2508   49.7710 H   0  0  0  0  0  0  0  0  0  0  0  0
   62.9584   31.8991   51.0214 H   0  0  0  0  0  0  0  0  0  0  0  0
   63.9121   30.8352   49.8736 H   0  0  0  0  0  0  0  0  0  0  0  0
   61.2934   33.3174   50.1632 H   0  0  0  0  0  0  0  0  0  0  0  0
   62.8482   34.1325   49.7582 H   0  0  0  0  0  0  0  0  0  0  0  0
   60.3063   33.9094   48.1651 H   0  0  0  0  0  0  0  0  0  0  0  0
   61.5220   35.2584   48.2836 H   0  0  0  0  0  0  0  0  0  0  0  0
   61.4876   32.8475   46.4683 H   0  0  0  0  0  0  0  0  0  0  0  0
   61.8733   34.5797   46.1158 H   0  0  0  0  0  0  0  0  0  0  0  0
   63.8917   33.1391   46.0081 H   0  0  0  0  0  0  0  0  0  0  0  0
   63.9896   34.3776   47.3264 H   0  0  0  0  0  0  0  0  0  0  0  0
   63.8990   31.3960   47.4909 H   0  0  0  0  0  0  0  0  0  0  0  0
   64.6384   32.6301   48.6020 H   0  0  0  0  0  0  0  0  0  0  0  0
   61.1785   31.5908   47.3255 H   0  0  0  0  0  0  0  0  0  0  0  0
   60.2389   30.7850   45.1634 H   0  0  0  0  0  0  0  0  0  0  0  0
   59.7406   34.8254   43.8727 H   0  0  0  0  0  0  0  0  0  0  0  0
  1  2  1  0
  2  3  2  0
  3  4  1  0
  4  5  2  0
  5  6  1  0
  6  7  1  0
  7  8  1  0
  8  9  1  0
  9 10  1  0
 10 11  2  0
 11 12  1  0
 12 13  2  0
 13 14  1  0
 14 15  1  0
 15 16  1  0
 16 17  1  0
 17 18  1  0
 18 19  1  0
 19 20  1  0
 20 21  1  0
 21 22  1  0
 13 23  1  0
 23 24  2  0
  5 25  1  0
 25 26  1  0
 25 27  2  0
 27  2  1  0
 24 10  1  0
 22 17  1  0
  3 28  1  0
  4 29  1  0
  6 30  1  0
  6 31  1  0
  7 32  1  0
  8 33  1  0
  8 34  1  0
  9 35  1  0
  9 36  1  0
 11 37  1  0
 12 38  1  0
 15 39  1  0
 15 40  1  0
 16 41  1  0
 16 42  1  0
 18 43  1  0
 18 44  1  0
 19 45  1  0
 19 46  1  0
 20 47  1  0
 20 48  1  0
 21 49  1  0
 21 50  1  0
 22 51  1  0
 22 52  1  0
 23 53  1  0
 24 54  1  0
 27 55  1  0
M  END
>  <UniqueID>  (18) 
17

>  <SMILES>  (18) 
Fc1ccc(CNCCc2ccc(OCCN3CCCCC3)cc2)c(F)c1

>  <Energy>  (18) 
57.73576583315353

>  <Genealogy>  (18) 
Fc1ccc(CNCCc2ccc(OCCN3CCCCC3)cc2)c(F)c1 (3D coordinates assigned)
Fc1ccc(CNCCc2ccc(OCCN3CCCCC3)cc2)c(F)c1 (nonaromatic ring conformer: 57.73576583315353 kcal/mol)

>  <smiles>  (18) 
Fc1ccc(CNCCc2ccc(OCCN3CCCCC3)cc2)c(F)c1

>  <score_type>  (18) 
oracle

>  <origin>  (18) 
adg

>  <m_score__min__energy>  (18) 
-8.1899999999999995

>  <m_primary>  (18) 
energy

$$$$
18:0
     RDKit          3D

 49 51  0  0  0  0  0  0  0  0999 V2000
   62.7550   31.9750   47.9300 C   0  0  0  0  0  0  0  0  0  0  0  0
   62.0510   30.9020   48.5480 O   0  0  0  0  0  0  0  0  0  0  0  0
   60.9880   30.2030   47.9540 C   0  0  0  0  0  0  0  0  0  0  0  0
   60.8560   30.0920   46.5570 C   0  0  0  0  0  0  0  0  0  0  0  0
   59.7810   29.3950   45.9920 C   0  0  0  0  0  0  0  0  0  0  0  0
   58.8100   28.8170   46.8330 C   0  0  0  0  0  0  0  0  0  0  0  0
   58.9530   28.9090   48.2230 C   0  0  0  0  0  0  0  0  0  0  0  0
   60.0340   29.6070   48.7910 C   0  0  0  0  0  0  0  0  0  0  0  0
   60.1930   29.7330   50.1790 O   0  0  0  0  0  0  0  0  0  0  0  0
   61.2550   29.1490   50.9260 C   0  0  0  0  0  0  0  0  0  0  0  0
   57.6400   28.0530   46.2510 C   0  0  0  0  0  0  0  0  0  0  0  0
   57.3240   28.4660   44.8660 N   0  0  1  0  0  0  0  0  0  0  0  0
   56.6900   29.7700   44.7850 C   0  0  0  0  0  0  0  0  0  0  0  0
   55.4310   29.8510   44.7970 O   0  0  0  0  0  0  0  0  0  0  0  0
   57.4770   30.9650   44.6680 N   0  0  0  0  0  0  0  0  0  0  0  0
   57.2310   32.1970   45.4110 C   0  0  0  0  0  0  0  0  0  0  0  0
   58.1310   32.2050   46.6700 C   0  0  0  0  0  0  0  0  0  0  0  0
   58.6070   33.6150   47.0380 C   0  0  0  0  0  0  0  0  0  0  0  0
   59.4200   34.2540   45.8970 C   0  0  0  0  0  0  0  0  0  0  0  0
   58.9430   33.8310   44.4930 C   0  0  0  0  0  0  0  0  0  0  0  0
   57.4680   33.4240   44.4980 C   0  0  0  0  0  0  0  0  0  0  0  0
   58.5330   28.4070   44.0200 C   0  0  0  0  0  0  0  0  0  0  0  0
   59.6240   29.3800   44.4940 C   0  0  0  0  0  0  0  0  0  0  0  0
   63.1831   32.6274   48.7053 H   0  0  0  0  0  0  0  0  0  0  0  0
   63.5637   31.5704   47.3037 H   0  0  0  0  0  0  0  0  0  0  0  0
   62.0619   32.5558   47.3037 H   0  0  0  0  0  0  0  0  0  0  0  0
   61.6062   30.5583   45.9014 H   0  0  0  0  0  0  0  0  0  0  0  0
   58.2110   28.4296   48.8785 H   0  0  0  0  0  0  0  0  0  0  0  0
   61.0517   29.2608   52.0013 H   0  0  0  0  0  0  0  0  0  0  0  0
   61.3341   28.0805   50.6770 H   0  0  0  0  0  0  0  0  0  0  0  0
   62.1997   29.6545   50.6770 H   0  0  0  0  0  0  0  0  0  0  0  0
   57.8840   26.9804   46.2519 H   0  0  0  0  0  0  0  0  0  0  0  0
   56.7585   28.2688   46.8726 H   0  0  0  0  0  0  0  0  0  0  0  0
   56.6390   27.7700   44.4880 H   0  0  0  0  0  0  0  0  0  0  0  0
   56.1834   32.2505   45.7421 H   0  0  0  0  0  0  0  0  0  0  0  0
   57.5601   31.7929   47.5151 H   0  0  0  0  0  0  0  0  0  0  0  0
   59.0209   31.5968   46.4505 H   0  0  0  0  0  0  0  0  0  0  0  0
   57.7297   34.2447   47.2475 H   0  0  0  0  0  0  0  0  0  0  0  0
   59.2562   33.5393   47.9228 H   0  0  0  0  0  0  0  0  0  0  0  0
   59.3356   35.3477   45.9790 H   0  0  0  0  0  0  0  0  0  0  0  0
   60.4584   33.9075   46.0050 H   0  0  0  0  0  0  0  0  0  0  0  0
   59.0780   34.6751   43.8008 H   0  0  0  0  0  0  0  0  0  0  0  0
   59.5384   32.9626   44.1745 H   0  0  0  0  0  0  0  0  0  0  0  0
   56.8641   34.2669   44.8652 H   0  0  0  0  0  0  0  0  0  0  0  0
   57.1760   33.1570   43.4716 H   0  0  0  0  0  0  0  0  0  0  0  0
   58.9351   27.3835   44.0483 H   0  0  0  0  0  0  0  0  0  0  0  0
   58.2440   28.6967   42.9990 H   0  0  0  0  0  0  0  0  0  0  0  0
   60.5818   29.0811   44.0431 H   0  0  0  0  0  0  0  0  0  0  0  0
   59.3245   30.3914   44.1819 H   0  0  0  0  0  0  0  0  0  0  0  0
  1  2  1  0
  2  3  1  0
  3  4  2  0
  4  5  1  0
  5  6  2  0
  6  7  1  0
  7  8  2  0
  8  9  1  0
  9 10  1  0
  6 11  1  0
 11 12  1  0
 12 13  1  0
 13 14  2  0
 13 15  1  0
 15 16  1  0
 16 17  1  0
 17 18  1  0
 18 19  1  0
 19 20  1  0
 20 21  1  0
 12 22  1  0
 22 23  1  0
  8  3  1  0
 21 16  1  0
 23  5  1  0
  1 24  1  0
  1 25  1  0
  1 26  1  0
  4 27  1  0
  7 28  1  0
 10 29  1  0
 10 30  1  0
 10 31  1  0
 11 32  1  0
 11 33  1  0
 12 34  1  6
 16 35  1  0
 17 36  1  0
 17 37  1  0
 18 38  1  0
 18 39  1  0
 19 40  1  0
 19 41  1  0
 20 42  1  0
 20 43  1  0
 21 44  1  0
 21 45  1  0
 22 46  1  0
 22 47  1  0
 23 48  1  0
 23 49  1  0
M  CHG  2  12   1  15  -1
M  END
>  <UniqueID>  (19) 
18

>  <SMILES>  (19) 
COc1cc2c(cc1OC)C[N@@H+](C(=O)[N-]C1CCCCC1)CC2

>  <Energy>  (19) 
53.0720780339582

>  <Genealogy>  (19) 
COc1cc2c(cc1OC)C[NH+](C(=O)[N-]C1CCCCC1)CC2 (protonated)
COc1cc2c(cc1OC)C[N@@H+](C(=O)[N-]C1CCCCC1)CC2 (chirality)
COc1cc2c(cc1OC)C[N@@H+](C(=O)[N-]C1CCCCC1)CC2 (3D coordinates assigned)
COc1cc2c(cc1OC)C[N@@H+](C(=O)[N-]C1CCCCC1)CC2 (nonaromatic ring conformer: 53.0720780339582 kcal/mol)

>  <smiles>  (19) 
COc1cc2c(cc1OC)CN(C(=O)NC1CCCCC1)CC2

>  <score_type>  (19) 
oracle

>  <origin>  (19) 
adg

>  <m_score__min__energy>  (19) 
-7.9000000000000004

>  <m_primary>  (19) 
energy

$$$$
19:0
     RDKit          3D

 44 46  0  0  0  0  0  0  0  0999 V2000
   56.6250   23.3040   43.0270 C   0  0  0  0  0  0  0  0  0  0  0  0
   56.5660   23.9070   44.3160 O   0  0  0  0  0  0  0  0  0  0  0  0
   56.9810   25.2170   44.5970 C   0  0  0  0  0  0  0  0  0  0  0  0
   56.6350   25.8790   45.7910 C   0  0  0  0  0  0  0  0  0  0  0  0
   57.0750   27.1850   46.0260 C   0  0  0  0  0  0  0  0  0  0  0  0
   57.8670   27.8460   45.0760 C   0  0  0  0  0  0  0  0  0  0  0  0
   58.3260   29.1900   45.3200 N   0  0  0  0  0  0  0  0  0  0  0  0
   59.6100   29.4330   45.7540 C   0  0  0  0  0  0  0  0  0  0  0  0
   60.6130   28.3150   45.9820 C   0  0  0  0  0  0  0  0  0  0  0  0
   60.5430   27.7150   47.3980 C   0  0  0  0  0  0  0  0  0  0  0  0
   59.3450   28.2020   48.2360 C   0  0  0  0  0  0  0  0  0  0  0  0
   59.6830   29.3730   49.1650 C   0  0  0  0  0  0  0  0  0  0  0  0
   58.9300   30.5020   48.8180 O   0  0  0  0  0  0  0  0  0  0  0  0
   59.9920   30.7050   46.0480 N   0  0  0  0  0  0  0  0  0  0  0  0
   59.1610   31.7590   45.8810 C   0  0  0  0  0  0  0  0  0  0  0  0
   59.6030   33.0540   46.1800 C   0  0  0  0  0  0  0  0  0  0  0  0
   58.7460   34.1430   46.0020 C   0  0  0  0  0  0  0  0  0  0  0  0
   57.4470   33.9440   45.5270 C   0  0  0  0  0  0  0  0  0  0  0  0
   56.9980   32.6530   45.2290 C   0  0  0  0  0  0  0  0  0  0  0  0
   57.8550   31.5500   45.4050 C   0  0  0  0  0  0  0  0  0  0  0  0
   57.4520   30.2320   45.1320 C   0  0  0  0  0  0  0  0  0  0  0  0
   56.2760   30.0100   44.7250 O   0  0  0  0  0  0  0  0  0  0  0  0
   58.2040   27.1900   43.8840 C   0  0  0  0  0  0  0  0  0  0  0  0
   57.7660   25.8850   43.6490 C   0  0  0  0  0  0  0  0  0  0  0  0
   56.7316   22.2146   43.1363 H   0  0  0  0  0  0  0  0  0  0  0  0
   55.7006   23.5284   42.4746 H   0  0  0  0  0  0  0  0  0  0  0  0
   57.4884   23.7033   42.4746 H   0  0  0  0  0  0  0  0  0  0  0  0
   56.0159   25.3662   46.5419 H   0  0  0  0  0  0  0  0  0  0  0  0
   56.7988   27.6963   46.9600 H   0  0  0  0  0  0  0  0  0  0  0  0
   60.4158   27.5148   45.2534 H   0  0  0  0  0  0  0  0  0  0  0  0
   61.6170   28.7476   45.8602 H   0  0  0  0  0  0  0  0  0  0  0  0
   60.4763   26.6209   47.3054 H   0  0  0  0  0  0  0  0  0  0  0  0
   61.4503   28.0456   47.9248 H   0  0  0  0  0  0  0  0  0  0  0  0
   58.5471   28.5216   47.5495 H   0  0  0  0  0  0  0  0  0  0  0  0
   59.0349   27.3619   48.8749 H   0  0  0  0  0  0  0  0  0  0  0  0
   59.4551   29.0899   50.2032 H   0  0  0  0  0  0  0  0  0  0  0  0
   60.7522   29.6116   49.0654 H   0  0  0  0  0  0  0  0  0  0  0  0
   59.4430   30.9690   48.1090 H   0  0  0  0  0  0  0  0  0  0  0  0
   60.6247   33.2136   46.5549 H   0  0  0  0  0  0  0  0  0  0  0  0
   59.0947   35.1596   46.2364 H   0  0  0  0  0  0  0  0  0  0  0  0
   56.7760   34.8043   45.3871 H   0  0  0  0  0  0  0  0  0  0  0  0
   55.9743   32.4995   44.8568 H   0  0  0  0  0  0  0  0  0  0  0  0
   58.8166   27.7058   43.1299 H   0  0  0  0  0  0  0  0  0  0  0  0
   58.0397   25.3778   42.7120 H   0  0  0  0  0  0  0  0  0  0  0  0
  1  2  1  0
  2  3  1  0
  3  4  2  0
  4  5  1  0
  5  6  2  0
  6  7  1  0
  7  8  1  0
  8  9  1  0
  9 10  1  0
 10 11  1  0
 11 12  1  0
 12 13  1  0
  8 14  2  0
 14 15  1  0
 15 16  2  0
 16 17  1  0
 17 18  2  0
 18 19  1  0
 19 20  2  0
 20 21  1  0
 21 22  2  0
  6 23  1  0
 23 24  2  0
 24  3  1  0
 21  7  1  0
 20 15  1  0
  1 25  1  0
  1 26  1  0
  1 27  1  0
  4 28  1  0
  5 29  1  0
  9 30  1  0
  9 31  1  0
 10 32  1  0
 10 33  1  0
 11 34  1  0
 11 35  1  0
 12 36  1  0
 12 37  1  0
 13 38  1  0
 16 39  1  0
 17 40  1  0
 18 41  1  0
 19 42  1  0
 23 43  1  0
 24 44  1  0
M  END
>  <UniqueID>  (20) 
19

>  <SMILES>  (20) 
COc1ccc(-n2c(CCCCO)nc3ccccc3c2=O)cc1

>  <Energy>  (20) 
55.71626971953481

>  <Genealogy>  (20) 
COc1ccc(-n2c(CCCCO)nc3ccccc3c2=O)cc1 (3D coordinates assigned)
COc1ccc(-n2c(CCCCO)nc3ccccc3c2=O)cc1 (optimized conformer: 55.71626971953481 kcal/mol)

>  <smiles>  (20) 
COc1ccc(-n2c(CCCCO)nc3ccccc3c2=O)cc1

>  <score_type>  (20) 
oracle

>  <origin>  (20) 
adg

>  <m_score__min__energy>  (20) 
-7.1900000000000004

>  <m_primary>  (20) 
energy

$$$$
20:0
     RDKit          3D

 52 53  0  0  0  0  0  0  0  0999 V2000
   64.7300   32.6810   49.8780 C   0  0  0  0  0  0  0  0  0  0  0  0
   63.6620   32.5780   48.8200 C   0  0  0  0  0  0  0  0  0  0  0  0
   63.6920   33.4700   47.7360 C   0  0  0  0  0  0  0  0  0  0  0  0
   62.7220   33.4070   46.7380 C   0  0  0  0  0  0  0  0  0  0  0  0
   61.7110   32.4520   46.8050 C   0  0  0  0  0  0  0  0  0  0  0  0
   61.6600   31.5410   47.8680 C   0  0  0  0  0  0  0  0  0  0  0  0
   60.6010   30.5640   47.8830 N   0  0  0  0  0  0  0  0  0  0  0  0
   60.7350   29.3750   47.0240 C   0  0  0  0  0  0  0  0  0  0  0  0
   60.1910   29.6360   45.6160 C   0  0  0  0  0  0  0  0  0  0  0  0
   58.7620   29.9710   45.6440 C   0  0  0  0  0  0  0  0  0  0  0  0
   57.6370   30.2370   45.6660 N   0  0  0  0  0  0  0  0  0  0  0  0
   59.5090   30.6730   48.8250 C   0  0  0  0  0  0  0  0  0  0  0  0
   58.4230   31.2040   48.4690 O   0  0  0  0  0  0  0  0  0  0  0  0
   59.6340   30.1880   50.2450 C   0  0  0  0  0  0  0  0  0  0  0  0
   59.1850   31.1870   51.1570 O   0  0  0  0  0  0  0  0  0  0  0  0
   60.0030   32.2200   51.6300 C   0  0  0  0  0  0  0  0  0  0  0  0
   60.8620   32.0010   52.5270 O   0  0  0  0  0  0  0  0  0  0  0  0
   59.9090   33.5750   51.0000 C   0  0  0  0  0  0  0  0  0  0  0  0
   59.2560   33.5010   49.6950 N   0  0  0  0  0  0  0  0  0  0  0  0
   59.7160   34.2560   48.5610 C   0  0  0  0  0  0  0  0  0  0  0  0
   60.7550   34.9630   48.6660 O   0  0  0  0  0  0  0  0  0  0  0  0
   59.0020   34.2070   47.2630 C   0  0  0  0  0  0  0  0  0  0  0  0
   57.7720   33.5350   47.1300 C   0  0  0  0  0  0  0  0  0  0  0  0
   57.1110   33.5040   45.8980 C   0  0  0  0  0  0  0  0  0  0  0  0
   57.6650   34.1460   44.7890 C   0  0  0  0  0  0  0  0  0  0  0  0
   58.8780   34.8250   44.9100 C   0  0  0  0  0  0  0  0  0  0  0  0
   59.5420   34.8610   46.1400 C   0  0  0  0  0  0  0  0  0  0  0  0
   62.6460   31.5890   48.8870 C   0  0  0  0  0  0  0  0  0  0  0  0
   62.5960   30.6400   50.0610 C   0  0  0  0  0  0  0  0  0  0  0  0
   64.2651   32.6362   50.8739 H   0  0  0  0  0  0  0  0  0  0  0  0
   65.4385   31.8470   49.7662 H   0  0  0  0  0  0  0  0  0  0  0  0
   65.2661   33.6350   49.7662 H   0  0  0  0  0  0  0  0  0  0  0  0
   64.4889   34.2257   47.6742 H   0  0  0  0  0  0  0  0  0  0  0  0
   62.7549   34.1132   45.8953 H   0  0  0  0  0  0  0  0  0  0  0  0
   60.9454   32.4125   46.0161 H   0  0  0  0  0  0  0  0  0  0  0  0
   61.7987   29.1042   46.9518 H   0  0  0  0  0  0  0  0  0  0  0  0
   60.1525   28.5571   47.4731 H   0  0  0  0  0  0  0  0  0  0  0  0
   60.7457   30.4738   45.1683 H   0  0  0  0  0  0  0  0  0  0  0  0
   60.3186   28.7192   45.0217 H   0  0  0  0  0  0  0  0  0  0  0  0
   59.0241   29.2815   50.3725 H   0  0  0  0  0  0  0  0  0  0  0  0
   60.6914   29.9672   50.4528 H   0  0  0  0  0  0  0  0  0  0  0  0
   59.3263   34.2376   51.6569 H   0  0  0  0  0  0  0  0  0  0  0  0
   60.9268   33.9685   50.8610 H   0  0  0  0  0  0  0  0  0  0  0  0
   58.4770   32.8150   49.5840 H   0  0  0  0  0  0  0  0  0  0  0  0
   57.3279   33.0309   48.0010 H   0  0  0  0  0  0  0  0  0  0  0  0
   56.1526   32.9727   45.8026 H   0  0  0  0  0  0  0  0  0  0  0  0
   57.1454   34.1166   43.8199 H   0  0  0  0  0  0  0  0  0  0  0  0
   59.3126   35.3328   44.0363 H   0  0  0  0  0  0  0  0  0  0  0  0
   60.4939   35.4048   46.2306 H   0  0  0  0  0  0  0  0  0  0  0  0
   62.6263   31.2146   50.9985 H   0  0  0  0  0  0  0  0  0  0  0  0
   61.6658   30.0544   50.0197 H   0  0  0  0  0  0  0  0  0  0  0  0
   63.4596   29.9599   50.0197 H   0  0  0  0  0  0  0  0  0  0  0  0
  1  2  1  0
  2  3  2  0
  3  4  1  0
  4  5  2  0
  5  6  1  0
  6  7  1  0
  7  8  1  0
  8  9  1  0
  9 10  1  0
 10 11  3  0
  7 12  1  0
 12 13  2  0
 12 14  1  0
 14 15  1  0
 15 16  1  0
 16 17  2  0
 16 18  1  0
 18 19  1  0
 19 20  1  0
 20 21  2  0
 20 22  1  0
 22 23  2  0
 23 24  1  0
 24 25  2  0
 25 26  1  0
 26 27  2  0
  6 28  2  0
 28 29  1  0
 28  2  1  0
 27 22  1  0
  1 30  1  0
  1 31  1  0
  1 32  1  0
  3 33  1  0
  4 34  1  0
  5 35  1  0
  8 36  1  0
  8 37  1  0
  9 38  1  0
  9 39  1  0
 14 40  1  0
 14 41  1  0
 18 42  1  0
 18 43  1  0
 19 44  1  0
 23 45  1  0
 24 46  1  0
 25 47  1  0
 26 48  1  0
 27 49  1  0
 29 50  1  0
 29 51  1  0
 29 52  1  0
M  END
>  <UniqueID>  (21) 
20

>  <SMILES>  (21) 
Cc1cccc(N(CCC#N)C(=O)COC(=O)CNC(=O)c2ccccc2)c1C

>  <Energy>  (21) 
52.21030995296286

>  <Genealogy>  (21) 
Cc1cccc(N(CCC#N)C(=O)COC(=O)CNC(=O)c2ccccc2)c1C (3D coordinates assigned)
Cc1cccc(N(CCC#N)C(=O)COC(=O)CNC(=O)c2ccccc2)c1C (optimized conformer: 52.21030995296286 kcal/mol)

>  <smiles>  (21) 
Cc1cccc(N(CCC#N)C(=O)COC(=O)CNC(=O)c2ccccc2)c1C

>  <score_type>  (21) 
oracle

>  <origin>  (21) 
adg

>  <m_score__min__energy>  (21) 
-7.9199999999999999

>  <m_primary>  (21) 
energy

$$$$
21:0
     RDKit          3D

 31 31  0  0  0  0  0  0  0  0999 V2000
   58.0480   28.0170   44.0730 C   0  0  0  0  0  0  0  0  0  0  0  0
   57.0200   28.2570   45.1810 C   0  0  0  0  0  0  0  0  0  0  0  0
   56.1180   29.3830   44.8730 N   0  0  0  0  0  0  0  0  0  0  0  0
   56.4290   30.0500   43.5980 C   0  0  0  0  0  0  0  0  0  0  0  0
   57.3370   31.2350   43.7830 C   0  0  0  0  0  0  0  0  0  0  0  0
   57.7740   32.1350   42.8230 C   0  0  0  0  0  0  0  0  0  0  0  0
   57.4240   32.1390   41.3690 C   0  0  0  0  0  0  0  0  0  0  0  0
   58.5000   33.0960   43.4260 N   0  0  0  0  0  0  0  0  0  0  0  0
   58.5590   32.8460   44.7260 N   0  0  0  0  0  0  0  0  0  0  0  0
   59.3060   33.6870   45.6580 C   0  0  0  0  0  0  0  0  0  0  0  0
   57.8480   31.7150   44.9760 C   0  0  0  0  0  0  0  0  0  0  0  0
   57.6220   31.0960   46.2170 O   0  0  0  0  0  0  0  0  0  0  0  0
   58.6160   30.5710   47.0850 C   0  0  0  0  0  0  0  0  0  0  0  0
   59.0255   27.7888   44.5229 H   0  0  0  0  0  0  0  0  0  0  0  0
   57.7245   27.1702   43.4498 H   0  0  0  0  0  0  0  0  0  0  0  0
   58.1329   28.9195   43.4498 H   0  0  0  0  0  0  0  0  0  0  0  0
   56.4175   27.3455   45.3081 H   0  0  0  0  0  0  0  0  0  0  0  0
   57.5687   28.5071   46.1010 H   0  0  0  0  0  0  0  0  0  0  0  0
   56.0920   30.0830   45.6510 H   0  0  0  0  0  0  0  0  0  0  0  0
   56.9215   29.3271   42.9310 H   0  0  0  0  0  0  0  0  0  0  0  0
   55.4840   30.4128   43.1675 H   0  0  0  0  0  0  0  0  0  0  0  0
   56.3300   32.1515   41.2552 H   0  0  0  0  0  0  0  0  0  0  0  0
   57.8526   33.0323   40.8912 H   0  0  0  0  0  0  0  0  0  0  0  0
   57.8320   31.2361   40.8912 H   0  0  0  0  0  0  0  0  0  0  0  0
   58.9450   33.9150   42.9530 H   0  0  0  0  0  0  0  0  0  0  0  0
   59.0541   33.4034   46.6905 H   0  0  0  0  0  0  0  0  0  0  0  0
   60.3847   33.5490   45.4926 H   0  0  0  0  0  0  0  0  0  0  0  0
   59.0417   34.7419   45.4926 H   0  0  0  0  0  0  0  0  0  0  0  0
   58.3122   30.7315   48.1300 H   0  0  0  0  0  0  0  0  0  0  0  0
   58.7334   29.4933   46.8987 H   0  0  0  0  0  0  0  0  0  0  0  0
   59.5723   31.0816   46.8987 H   0  0  0  0  0  0  0  0  0  0  0  0
  1  2  1  0
  2  3  1  0
  3  4  1  0
  4  5  1  0
  5  6  1  0
  6  7  1  0
  6  8  2  0
  8  9  1  0
  9 10  1  0
  9 11  1  0
 11 12  1  0
 12 13  1  0
 11  5  2  0
  1 14  1  0
  1 15  1  0
  1 16  1  0
  2 17  1  0
  2 18  1  0
  3 19  1  0
  4 20  1  0
  4 21  1  0
  7 22  1  0
  7 23  1  0
  7 24  1  0
  8 25  1  0
 10 26  1  0
 10 27  1  0
 10 28  1  0
 13 29  1  0
 13 30  1  0
 13 31  1  0
M  CHG  1   8   1
M  END
>  <UniqueID>  (22) 
21

>  <SMILES>  (22) 
CCNCc1c(C)[nH+]n(C)c1OC

>  <Energy>  (22) 
58.722262266804336

>  <Genealogy>  (22) 
CCNCc1c(C)[nH+]n(C)c1OC (protonated)
CCNCc1c(C)[nH+]n(C)c1OC (3D coordinates assigned)
CCNCc1c(C)[nH+]n(C)c1OC (optimized conformer: 58.722262266804336 kcal/mol)

>  <smiles>  (22) 
CCNCc1c(C)nn(C)c1OC

>  <score_type>  (22) 
oracle

>  <origin>  (22) 
adg

>  <m_score__min__energy>  (22) 
-3.3999999999999999

>  <m_primary>  (22) 
energy

$$$$
22:0
     RDKit          3D

 44 45  0  0  0  0  0  0  0  0999 V2000
   59.6280   35.1560   46.0610 C   0  0  0  0  0  0  0  0  0  0  0  0
   59.5830   34.1250   44.9370 C   0  0  0  0  0  0  0  0  0  0  0  0
   58.4230   33.2210   45.1210 N   0  0  0  0  0  0  0  0  0  0  0  0
   57.4600   33.7960   46.0900 C   0  0  0  0  0  0  0  0  0  0  0  0
   57.6120   33.1410   47.4610 C   0  0  0  0  0  0  0  0  0  0  0  0
   57.7640   32.9200   43.8280 C   0  0  0  0  0  0  0  0  0  0  0  0
   57.5660   31.4100   43.6460 C   0  0  0  0  0  0  0  0  0  0  0  0
   57.0220   30.8120   44.8800 N   0  0  0  0  0  0  0  0  0  0  0  0
   57.6640   29.5370   45.2230 C   0  0  0  0  0  0  0  0  0  0  0  0
   58.9560   29.7790   45.9410 C   0  0  0  0  0  0  0  0  0  0  0  0
   59.7560   28.8280   46.5360 C   0  0  0  0  0  0  0  0  0  0  0  0
   60.7520   29.4570   47.1170 O   0  0  0  0  0  0  0  0  0  0  0  0
   60.5870   30.7460   46.9070 C   0  0  0  0  0  0  0  0  0  0  0  0
   61.5090   31.7810   47.4330 C   0  0  0  0  0  0  0  0  0  0  0  0
   62.8880   31.6750   47.1780 C   0  0  0  0  0  0  0  0  0  0  0  0
   63.7760   32.6350   47.6720 C   0  0  0  0  0  0  0  0  0  0  0  0
   63.3000   33.7070   48.4270 C   0  0  0  0  0  0  0  0  0  0  0  0
   61.9340   33.8220   48.6920 C   0  0  0  0  0  0  0  0  0  0  0  0
   61.4730   34.8620   49.4300 F   0  0  0  0  0  0  0  0  0  0  0  0
   61.0400   32.8650   48.2000 C   0  0  0  0  0  0  0  0  0  0  0  0
   59.4790   30.9930   46.1760 N   0  0  0  0  0  0  0  0  0  0  0  0
   59.6055   34.6405   47.0325 H   0  0  0  0  0  0  0  0  0  0  0  0
   60.5528   35.7462   45.9804 H   0  0  0  0  0  0  0  0  0  0  0  0
   58.7582   35.8245   45.9804 H   0  0  0  0  0  0  0  0  0  0  0  0
   59.4906   34.6435   43.9713 H   0  0  0  0  0  0  0  0  0  0  0  0
   60.5087   33.5311   44.9560 H   0  0  0  0  0  0  0  0  0  0  0  0
   57.6450   34.8762   46.1842 H   0  0  0  0  0  0  0  0  0  0  0  0
   56.4393   33.6123   45.7232 H   0  0  0  0  0  0  0  0  0  0  0  0
   57.4380   33.8908   48.2469 H   0  0  0  0  0  0  0  0  0  0  0  0
   56.8788   32.3272   47.5619 H   0  0  0  0  0  0  0  0  0  0  0  0
   58.6286   32.7332   47.5619 H   0  0  0  0  0  0  0  0  0  0  0  0
   56.7828   33.4166   43.8009 H   0  0  0  0  0  0  0  0  0  0  0  0
   58.4069   33.2880   43.0148 H   0  0  0  0  0  0  0  0  0  0  0  0
   56.8644   31.2334   42.8174 H   0  0  0  0  0  0  0  0  0  0  0  0
   58.5381   30.9463   43.4223 H   0  0  0  0  0  0  0  0  0  0  0  0
   57.1990   31.4750   45.6720 H   0  0  0  0  0  0  0  0  0  0  0  0
   56.9921   28.9560   45.8719 H   0  0  0  0  0  0  0  0  0  0  0  0
   57.8696   28.9807   44.2966 H   0  0  0  0  0  0  0  0  0  0  0  0
   59.5907   27.7405   46.5262 H   0  0  0  0  0  0  0  0  0  0  0  0
   63.2705   30.8307   46.5857 H   0  0  0  0  0  0  0  0  0  0  0  0
   64.8526   32.5448   47.4649 H   0  0  0  0  0  0  0  0  0  0  0  0
   64.0008   34.4617   48.8135 H   0  0  0  0  0  0  0  0  0  0  0  0
   59.9651   32.9597   48.4134 H   0  0  0  0  0  0  0  0  0  0  0  0
   59.0870   31.9090   45.8660 H   0  0  0  0  0  0  0  0  0  0  0  0
  1  2  1  0
  2  3  1  0
  3  4  1  0
  4  5  1  0
  3  6  1  0
  6  7  1  0
  7  8  1  0
  8  9  1  0
  9 10  1  0
 10 11  2  0
 11 12  1  0
 12 13  1  0
 13 14  1  0
 14 15  2  0
 15 16  1  0
 16 17  2  0
 17 18  1  0
 18 19  1  0
 18 20  2  0
 13 21  2  0
 21 10  1  0
 20 14  1  0
  1 22  1  0
  1 23  1  0
  1 24  1  0
  2 25  1  0
  2 26  1  0
  4 27  1  0
  4 28  1  0
  5 29  1  0
  5 30  1  0
  5 31  1  0
  6 32  1  0
  6 33  1  0
  7 34  1  0
  7 35  1  0
  8 36  1  0
  9 37  1  0
  9 38  1  0
 11 39  1  0
 15 40  1  0
 16 41  1  0
 17 42  1  0
 20 43  1  0
 21 44  1  0
M  CHG  1  21   1
M  END
>  <UniqueID>  (23) 
22

>  <SMILES>  (23) 
CCN(CC)CCNCc1coc(-c2cccc(F)c2)[nH+]1

>  <Energy>  (23) 
70.35546493591917

>  <Genealogy>  (23) 
CCN(CC)CCNCc1coc(-c2cccc(F)c2)[nH+]1 (protonated)
CCN(CC)CCNCc1coc(-c2cccc(F)c2)[nH+]1 (3D coordinates assigned)
CCN(CC)CCNCc1coc(-c2cccc(F)c2)[nH+]1 (optimized conformer: 70.35546493591917 kcal/mol)

>  <smiles>  (23) 
CCN(CC)CCNCc1coc(-c2cccc(F)c2)n1

>  <score_type>  (23) 
oracle

>  <origin>  (23) 
adg

>  <m_score__min__energy>  (23) 
-4.7199999999999998

>  <m_primary>  (23) 
energy

$$$$
23:0
     RDKit          3D

 42 46  0  0  0  0  0  0  0  0999 V2000
   61.0730   29.4660   47.8600 O   0  0  0  0  0  0  0  0  0  0  0  0
   60.4110   30.3520   47.2510 C   0  0  0  0  0  0  0  0  0  0  0  0
   60.7010   31.7060   47.4480 C   0  0  0  0  0  0  0  0  0  0  0  0
   61.6980   32.2950   48.2520 C   0  0  0  0  0  0  0  0  0  0  0  0
   61.6210   33.6900   48.2470 C   0  0  0  0  0  0  0  0  0  0  0  0
   60.3870   34.2030   47.2140 S   0  0  0  0  0  0  0  0  0  0  0  0
   59.9150   32.6420   46.8100 C   0  0  0  0  0  0  0  0  0  0  0  0
   58.9060   32.2940   45.9840 N   0  0  0  0  0  0  0  0  0  0  0  0
   58.6440   30.9730   45.7530 C   0  0  0  0  0  0  0  0  0  0  0  0
   57.5570   30.6430   44.7980 C   0  0  0  0  0  0  0  0  0  0  0  0
   57.5310   30.9050   43.4400 C   0  0  0  0  0  0  0  0  0  0  0  0
   56.3100   30.4470   42.9950 C   0  0  0  0  0  0  0  0  0  0  0  0
   55.6620   29.9450   44.1040 C   0  0  0  0  0  0  0  0  0  0  0  0
   56.4280   30.0820   45.1610 O   0  0  0  0  0  0  0  0  0  0  0  0
   59.3810   29.9970   46.4060 N   0  0  0  0  0  0  0  0  0  0  0  0
   59.0430   28.6000   46.2840 C   0  0  0  0  0  0  0  0  0  0  0  0
   59.1610   27.9520   45.0420 C   0  0  0  0  0  0  0  0  0  0  0  0
   58.8320   26.6000   44.9200 C   0  0  0  0  0  0  0  0  0  0  0  0
   58.3920   25.8820   46.0360 C   0  0  0  0  0  0  0  0  0  0  0  0
   58.2840   26.5160   47.2770 C   0  0  0  0  0  0  0  0  0  0  0  0
   58.6120   27.8690   47.4050 C   0  0  0  0  0  0  0  0  0  0  0  0
   58.5150   28.4690   48.6190 F   0  0  0  0  0  0  0  0  0  0  0  0
   62.5740   34.5900   48.9740 C   0  0  0  0  0  0  0  0  0  0  0  0
   63.2860   33.8290   50.1010 C   0  0  0  0  0  0  0  0  0  0  0  0
   63.8270   32.4810   49.6000 C   0  0  0  0  0  0  0  0  0  0  0  0
   62.6920   31.5580   49.1170 C   0  0  0  0  0  0  0  0  0  0  0  0
   58.3480   33.0410   45.5120 H   0  0  0  0  0  0  0  0  0  0  0  0
   58.3210   31.3803   42.8400 H   0  0  0  0  0  0  0  0  0  0  0  0
   55.9291   30.4759   41.9635 H   0  0  0  0  0  0  0  0  0  0  0  0
   54.6569   29.4981   44.1029 H   0  0  0  0  0  0  0  0  0  0  0  0
   59.5137   28.5117   44.1632 H   0  0  0  0  0  0  0  0  0  0  0  0
   58.9192   26.0994   43.9444 H   0  0  0  0  0  0  0  0  0  0  0  0
   58.1308   24.8180   45.9374 H   0  0  0  0  0  0  0  0  0  0  0  0
   57.9402   25.9492   48.1548 H   0  0  0  0  0  0  0  0  0  0  0  0
   63.3241   34.9700   48.2648 H   0  0  0  0  0  0  0  0  0  0  0  0
   62.0074   35.4242   49.4134 H   0  0  0  0  0  0  0  0  0  0  0  0
   64.1240   34.4373   50.4720 H   0  0  0  0  0  0  0  0  0  0  0  0
   62.5617   33.6380   50.9065 H   0  0  0  0  0  0  0  0  0  0  0  0
   64.5193   32.6625   48.7647 H   0  0  0  0  0  0  0  0  0  0  0  0
   64.3414   31.9848   50.4361 H   0  0  0  0  0  0  0  0  0  0  0  0
   63.1278   30.7331   48.5343 H   0  0  0  0  0  0  0  0  0  0  0  0
   62.1597   31.1796   50.0021 H   0  0  0  0  0  0  0  0  0  0  0  0
  1  2  2  0
  2  3  1  0
  3  4  1  0
  4  5  2  0
  5  6  1  0
  6  7  1  0
  7  8  1  0
  8  9  2  0
  9 10  1  0
 10 11  2  0
 11 12  1  0
 12 13  2  0
 13 14  1  0
  9 15  1  0
 15 16  1  0
 16 17  2  0
 17 18  1  0
 18 19  2  0
 19 20  1  0
 20 21  2  0
 21 22  1  0
  5 23  1  0
 23 24  1  0
 24 25  1  0
 25 26  1  0
 15  2  1  0
 21 16  1  0
  7  3  2  0
 14 10  1  0
 26  4  1  0
  8 27  1  0
 11 28  1  0
 12 29  1  0
 13 30  1  0
 17 31  1  0
 18 32  1  0
 19 33  1  0
 20 34  1  0
 23 35  1  0
 23 36  1  0
 24 37  1  0
 24 38  1  0
 25 39  1  0
 25 40  1  0
 26 41  1  0
 26 42  1  0
M  CHG  1   8   1
M  END
>  <UniqueID>  (24) 
23

>  <SMILES>  (24) 
O=c1c2c3c(sc2[nH+]c(-c2ccco2)n1-c1ccccc1F)CCCC3

>  <Energy>  (24) 
120.52090737755454

>  <Genealogy>  (24) 
O=c1c2c3c(sc2[nH+]c(-c2ccco2)n1-c1ccccc1F)CCCC3 (protonated)
O=c1c2c3c(sc2[nH+]c(-c2ccco2)n1-c1ccccc1F)CCCC3 (3D coordinates assigned)
O=c1c2c3c(sc2[nH+]c(-c2ccco2)n1-c1ccccc1F)CCCC3 (nonaromatic ring conformer: 120.52090737755454 kcal/mol)

>  <smiles>  (24) 
O=c1c2c3c(sc2nc(-c2ccco2)n1-c1ccccc1F)CCCC3

>  <score_type>  (24) 
oracle

>  <origin>  (24) 
adg

>  <m_score__min__energy>  (24) 
-6.4699999999999998

>  <m_primary>  (24) 
energy

$$$$
24:0
     RDKit          3D

 38 40  0  0  0  0  0  0  0  0999 V2000
   57.3770   27.0800   46.8010 C   0  0  0  0  0  0  0  0  0  0  0  0
   56.7980   25.9020   46.0740 C   0  0  0  0  0  0  0  0  0  0  0  0
   55.8930   25.1180   46.7230 N   0  0  0  0  0  0  0  0  0  0  0  0
   55.3230   24.0330   46.1390 C   0  0  0  0  0  0  0  0  0  0  0  0
   55.6610   23.6860   44.8320 C   0  0  0  0  0  0  0  0  0  0  0  0
   56.5810   24.4680   44.1340 C   0  0  0  0  0  0  0  0  0  0  0  0
   57.1510   25.6000   44.7370 C   0  0  0  0  0  0  0  0  0  0  0  0
   58.1680   26.4150   43.9720 C   0  0  0  0  0  0  0  0  0  0  0  0
   57.5730   27.6600   43.4850 N   0  0  0  0  0  0  0  0  0  0  0  0
   57.8470   28.9660   44.0360 C   0  0  0  0  0  0  0  0  0  0  0  0
   58.9980   29.1350   44.8200 C   0  0  0  0  0  0  0  0  0  0  0  0
   59.3110   30.3760   45.3810 C   0  0  0  0  0  0  0  0  0  0  0  0
   58.4780   31.4850   45.1640 C   0  0  0  0  0  0  0  0  0  0  0  0
   58.8090   32.8060   45.7590 C   0  0  0  0  0  0  0  0  0  0  0  0
   58.9610   32.9520   47.1490 C   0  0  0  0  0  0  0  0  0  0  0  0
   59.2720   34.1990   47.6940 C   0  0  0  0  0  0  0  0  0  0  0  0
   59.4300   35.2960   46.8450 C   0  0  0  0  0  0  0  0  0  0  0  0
   59.2840   35.1440   45.5030 N   0  0  0  0  0  0  0  0  0  0  0  0
   58.9790   33.9410   44.9470 C   0  0  0  0  0  0  0  0  0  0  0  0
   57.3270   31.3250   44.3740 C   0  0  0  0  0  0  0  0  0  0  0  0
   57.0100   30.0840   43.8120 C   0  0  0  0  0  0  0  0  0  0  0  0
   55.8930   29.9990   43.0480 F   0  0  0  0  0  0  0  0  0  0  0  0
   57.2968   26.9169   47.8859 H   0  0  0  0  0  0  0  0  0  0  0  0
   58.4354   27.1972   46.5250 H   0  0  0  0  0  0  0  0  0  0  0  0
   56.8233   27.9895   46.5250 H   0  0  0  0  0  0  0  0  0  0  0  0
   54.5941   23.4274   46.6975 H   0  0  0  0  0  0  0  0  0  0  0  0
   55.2068   22.8045   44.3560 H   0  0  0  0  0  0  0  0  0  0  0  0
   56.8613   24.1962   43.1056 H   0  0  0  0  0  0  0  0  0  0  0  0
   59.0123   26.6537   44.6355 H   0  0  0  0  0  0  0  0  0  0  0  0
   58.5148   25.8277   43.1090 H   0  0  0  0  0  0  0  0  0  0  0  0
   56.9460   27.6120   42.6480 H   0  0  0  0  0  0  0  0  0  0  0  0
   59.6643   28.2776   44.9958 H   0  0  0  0  0  0  0  0  0  0  0  0
   60.2161   30.4846   45.9967 H   0  0  0  0  0  0  0  0  0  0  0  0
   58.8345   32.0811   47.8090 H   0  0  0  0  0  0  0  0  0  0  0  0
   59.3913   34.3161   48.7812 H   0  0  0  0  0  0  0  0  0  0  0  0
   59.6729   36.2841   47.2630 H   0  0  0  0  0  0  0  0  0  0  0  0
   58.8647   33.8555   43.8563 H   0  0  0  0  0  0  0  0  0  0  0  0
   56.6669   32.1866   44.1953 H   0  0  0  0  0  0  0  0  0  0  0  0
  1  2  1  0
  2  3  2  0
  3  4  1  0
  4  5  2  0
  5  6  1  0
  6  7  2  0
  7  8  1  0
  8  9  1  0
  9 10  1  0
 10 11  2  0
 11 12  1  0
 12 13  2  0
 13 14  1  0
 14 15  2  0
 15 16  1  0
 16 17  2  0
 17 18  1  0
 18 19  2  0
 13 20  1  0
 20 21  2  0
 21 22  1  0
  7  2  1  0
 21 10  1  0
 19 14  1  0
  1 23  1  0
  1 24  1  0
  1 25  1  0
  4 26  1  0
  5 27  1  0
  6 28  1  0
  8 29  1  0
  8 30  1  0
  9 31  1  0
 11 32  1  0
 12 33  1  0
 15 34  1  0
 16 35  1  0
 17 36  1  0
 19 37  1  0
 20 38  1  0
M  END
>  <UniqueID>  (25) 
24

>  <SMILES>  (25) 
Cc1ncccc1CNc1ccc(-c2cccnc2)cc1F

>  <Energy>  (25) 
49.160872439650404

>  <Genealogy>  (25) 
Cc1ncccc1CNc1ccc(-c2cccnc2)cc1F (3D coordinates assigned)
Cc1ncccc1CNc1ccc(-c2cccnc2)cc1F (optimized conformer: 49.160872439650404 kcal/mol)

>  <smiles>  (25) 
Cc1ncccc1CNc1ccc(-c2cccnc2)cc1F

>  <score_type>  (25) 
oracle

>  <origin>  (25) 
adg

>  <m_score__min__energy>  (25) 
-7.5199999999999996

>  <m_primary>  (25) 
energy

$$$$
25:0
     RDKit          3D

 34 37  0  0  0  0  0  0  0  0999 V2000
   56.2720   21.8150   42.6260 N   0  0  0  0  0  0  0  0  0  0  0  0
   56.5200   22.2740   43.6590 C   0  0  0  0  0  0  0  0  0  0  0  0
   56.8280   22.8450   44.9440 C   0  0  0  0  0  0  0  0  0  0  0  0
   56.7380   22.0670   46.1020 C   0  0  0  0  0  0  0  0  0  0  0  0
   57.0270   22.6130   47.3120 N   0  0  0  0  0  0  0  0  0  0  0  0
   57.4030   23.9130   47.4410 C   0  0  0  0  0  0  0  0  0  0  0  0
   57.5090   24.7390   46.3080 C   0  0  0  0  0  0  0  0  0  0  0  0
   57.9210   26.1590   46.4370 C   0  0  0  0  0  0  0  0  0  0  0  0
   58.8920   26.5390   47.3750 C   0  0  0  0  0  0  0  0  0  0  0  0
   59.2770   27.8750   47.4960 C   0  0  0  0  0  0  0  0  0  0  0  0
   58.7030   28.8740   46.6840 C   0  0  0  0  0  0  0  0  0  0  0  0
   57.7270   28.4910   45.7420 C   0  0  0  0  0  0  0  0  0  0  0  0
   57.3450   27.1480   45.6230 C   0  0  0  0  0  0  0  0  0  0  0  0
   56.9760   29.6670   44.6890 S   0  0  0  0  0  0  0  0  0  0  0  0
   57.3090   29.3460   43.2590 O   0  0  0  0  0  0  0  0  0  0  0  0
   55.4880   29.6440   44.8930 O   0  0  0  0  0  0  0  0  0  0  0  0
   57.5860   31.2520   45.0830 C   0  0  0  0  0  0  0  0  0  0  0  0
   57.0920   32.3240   44.4050 N   0  0  0  0  0  0  0  0  0  0  0  0
   57.5170   33.5890   44.6490 C   0  0  0  0  0  0  0  0  0  0  0  0
   58.4890   33.8210   45.6190 C   0  0  0  0  0  0  0  0  0  0  0  0
   59.0140   32.7420   46.3300 C   0  0  0  0  0  0  0  0  0  0  0  0
   58.5690   31.4300   46.0740 C   0  0  0  0  0  0  0  0  0  0  0  0
   59.1430   30.2910   46.8470 C   0  0  0  0  0  0  0  0  0  0  0  0
   60.0500   30.5410   47.6890 O   0  0  0  0  0  0  0  0  0  0  0  0
   57.2150   24.1850   45.0500 C   0  0  0  0  0  0  0  0  0  0  0  0
   56.4331   21.0123   46.0334 H   0  0  0  0  0  0  0  0  0  0  0  0
   57.6257   24.3213   48.4379 H   0  0  0  0  0  0  0  0  0  0  0  0
   59.3540   25.7777   48.0207 H   0  0  0  0  0  0  0  0  0  0  0  0
   60.0409   28.1529   48.2371 H   0  0  0  0  0  0  0  0  0  0  0  0
   56.5834   26.8644   44.8817 H   0  0  0  0  0  0  0  0  0  0  0  0
   57.0942   34.4309   44.0811 H   0  0  0  0  0  0  0  0  0  0  0  0
   58.8388   34.8439   45.8222 H   0  0  0  0  0  0  0  0  0  0  0  0
   59.7824   32.9170   47.0975 H   0  0  0  0  0  0  0  0  0  0  0  0
   57.2895   24.8073   44.1460 H   0  0  0  0  0  0  0  0  0  0  0  0
  1  2  3  0
  2  3  1  0
  3  4  2  0
  4  5  1  0
  5  6  2  0
  6  7  1  0
  7  8  1  0
  8  9  2  0
  9 10  1  0
 10 11  2  0
 11 12  1  0
 12 13  2  0
 12 14  1  0
 14 15  2  0
 14 16  2  0
 14 17  1  0
 17 18  2  0
 18 19  1  0
 19 20  2  0
 20 21  1  0
 21 22  2  0
 22 23  1  0
 23 24  2  0
  7 25  2  0
 25  3  1  0
 13  8  1  0
 22 17  1  0
 23 11  1  0
  4 26  1  0
  6 27  1  0
  9 28  1  0
 10 29  1  0
 13 30  1  0
 19 31  1  0
 20 32  1  0
 21 33  1  0
 25 34  1  0
M  END
>  <UniqueID>  (26) 
25

>  <SMILES>  (26) 
N#Cc1cncc(-c2ccc3c(c2)S(=O)(=O)c2ncccc2C3=O)c1

>  <Energy>  (26) 
53.37174876556277

>  <Genealogy>  (26) 
N#Cc1cncc(-c2ccc3c(c2)S(=O)(=O)c2ncccc2C3=O)c1 (3D coordinates assigned)
N#Cc1cncc(-c2ccc3c(c2)S(=O)(=O)c2ncccc2C3=O)c1 (nonaromatic ring conformer: 53.37174876556277 kcal/mol)

>  <smiles>  (26) 
N#Cc1cncc(-c2ccc3c(c2)S(=O)(=O)c2ncccc2C3=O)c1

>  <score_type>  (26) 
oracle

>  <origin>  (26) 
adg

>  <m_score__min__energy>  (26) 
-9.0299999999999994

>  <m_primary>  (26) 
energy

$$$$
26:0
     RDKit          3D

 47 48  0  0  0  0  0  0  0  0999 V2000
   56.1648   31.1419   42.0500 H   0  0  0  0  0  0  0  0  0  0  0  0
   56.6550   30.7560   42.9560 C   0  0  0  0  0  0  0  0  0  0  0  0
   56.0560   29.7280   43.6900 C   0  0  0  0  0  0  0  0  0  0  0  0
   55.0942   29.3067   43.3621 H   0  0  0  0  0  0  0  0  0  0  0  0
   56.6790   29.2350   44.8410 C   0  0  0  0  0  0  0  0  0  0  0  0
   56.2073   28.4232   45.4141 H   0  0  0  0  0  0  0  0  0  0  0  0
   57.9040   29.7720   45.2680 C   0  0  0  0  0  0  0  0  0  0  0  0
   58.5900   29.2080   46.4820 C   0  0  0  0  0  0  0  0  0  0  0  0
   58.7766   28.1350   46.3273 H   0  0  0  0  0  0  0  0  0  0  0  0
   57.9427   29.3563   47.3590 H   0  0  0  0  0  0  0  0  0  0  0  0
   59.8640   29.8910   46.7110 N   0  0  0  0  0  0  0  0  0  0  0  0
   60.7380   29.4310   46.3700 H   0  0  0  0  0  0  0  0  0  0  0  0
   59.9600   31.1590   47.3800 C   0  0  0  0  0  0  0  0  0  0  0  0
   58.8810   31.7100   47.8640 N   0  0  0  0  0  0  0  0  0  0  0  0
   58.1590   32.8820   47.3650 C   0  0  0  0  0  0  0  0  0  0  0  0
   57.7310   33.4350   48.2141 H   0  0  0  0  0  0  0  0  0  0  0  0
   57.3544   32.5510   46.6919 H   0  0  0  0  0  0  0  0  0  0  0  0
   59.0830   33.7660   46.6200 N   0  0  0  0  0  0  0  0  0  0  0  0
   59.4810   34.9500   47.4240 C   0  0  0  0  0  0  0  0  0  0  0  0
   58.6788   35.7017   47.3875 H   0  0  0  0  0  0  0  0  0  0  0  0
   60.4077   35.3735   47.0094 H   0  0  0  0  0  0  0  0  0  0  0  0
   59.7220   34.5390   48.8710 C   0  0  0  0  0  0  0  0  0  0  0  0
   59.2817   35.2898   49.5436 H   0  0  0  0  0  0  0  0  0  0  0  0
   59.2544   33.5609   49.0571 H   0  0  0  0  0  0  0  0  0  0  0  0
   60.8039   34.4695   49.0571 H   0  0  0  0  0  0  0  0  0  0  0  0
   58.5020   34.1640   45.3170 C   0  0  0  0  0  0  0  0  0  0  0  0
   58.7011   35.2317   45.1429 H   0  0  0  0  0  0  0  0  0  0  0  0
   58.9619   33.5580   44.5225 H   0  0  0  0  0  0  0  0  0  0  0  0
   56.9920   33.9260   45.3090 C   0  0  0  0  0  0  0  0  0  0  0  0
   56.6245   33.8681   46.3442 H   0  0  0  0  0  0  0  0  0  0  0  0
   56.4927   34.7565   44.7885 H   0  0  0  0  0  0  0  0  0  0  0  0
   56.7723   32.9821   44.7885 H   0  0  0  0  0  0  0  0  0  0  0  0
   61.2840   31.8070   47.4680 C   0  0  0  0  0  0  0  0  0  0  0  0
   62.2220   31.3470   48.4030 C   0  0  0  0  0  0  0  0  0  0  0  0
   61.9795   30.4991   49.0604 H   0  0  0  0  0  0  0  0  0  0  0  0
   63.4650   31.9730   48.4930 C   0  0  0  0  0  0  0  0  0  0  0  0
   64.2132   31.6122   49.2141 H   0  0  0  0  0  0  0  0  0  0  0  0
   63.7570   33.0580   47.6660 C   0  0  0  0  0  0  0  0  0  0  0  0
   64.7375   33.5532   47.7243 H   0  0  0  0  0  0  0  0  0  0  0  0
   62.7910   33.5090   46.7630 C   0  0  0  0  0  0  0  0  0  0  0  0
   63.0074   34.3692   46.1125 H   0  0  0  0  0  0  0  0  0  0  0  0
   61.5830   32.8870   46.6860 N   0  0  0  0  0  0  0  0  0  0  0  0
   60.8700   33.2600   46.0190 H   0  0  0  0  0  0  0  0  0  0  0  0
   58.5000   30.8050   44.5240 C   0  0  0  0  0  0  0  0  0  0  0  0
   59.4609   31.2304   44.8492 H   0  0  0  0  0  0  0  0  0  0  0  0
   57.8760   31.2940   43.3720 C   0  0  0  0  0  0  0  0  0  0  0  0
   58.3463   32.1024   42.7930 H   0  0  0  0  0  0  0  0  0  0  0  0
  1  2  1  0
  2  3  2  0
  3  4  1  0
  3  5  1  0
  5  6  1  0
  5  7  2  0
  7  8  1  0
  8  9  1  0
  8 10  1  0
  8 11  1  0
 11 12  1  0
 11 13  1  0
 13 14  2  0
 14 15  1  0
 15 16  1  0
 15 17  1  0
 15 18  1  0
 18 19  1  0
 19 20  1  0
 19 21  1  0
 19 22  1  0
 22 23  1  0
 22 24  1  0
 22 25  1  0
 18 26  1  0
 26 27  1  0
 26 28  1  0
 26 29  1  0
 29 30  1  0
 29 31  1  0
 29 32  1  0
 13 33  1  0
 33 34  2  0
 34 35  1  0
 34 36  1  0
 36 37  1  0
 36 38  2  0
 38 39  1  0
 38 40  1  0
 40 41  1  0
 40 42  2  0
 42 43  1  0
  7 44  1  0
 44 45  1  0
 44 46  2  0
 46 47  1  0
 46  2  1  0
 42 33  1  0
M  CHG  1  42   1
M  END
>  <UniqueID>  (27) 
26

>  <SMILES>  (27) 
CCN(CC)C/N=C(/NCc1ccccc1)c1cccc[nH+]1

>  <Energy>  (27) 
48.80845057796207

>  <Genealogy>  (27) 
CCN(CC)CN=C(NCc1ccccc1)c1cccc[nH+]1 (protonated)
CCN(CC)C/N=C(/NCc1ccccc1)c1cccc[nH+]1 (cis-trans isomerization)
CCN(CC)C/N=C(/NCc1ccccc1)c1cccc[nH+]1 (3D coordinates assigned)
CCN(CC)C/N=C(/NCc1ccccc1)c1cccc[nH+]1 (optimized conformer: 48.80845057796207 kcal/mol)

>  <smiles>  (27) 
CCN(CC)CN=C(NCc1ccccc1)c1ccccn1

>  <score_type>  (27) 
oracle

>  <origin>  (27) 
adg

>  <m_score__min__energy>  (27) 
-4.8600000000000003

>  <m_primary>  (27) 
energy

$$$$
27:0
     RDKit          3D

 74 78  0  0  0  0  0  0  0  0999 V2000
   62.9961   27.9318   51.5327 H   0  0  0  0  0  0  0  0  0  0  0  0
   63.4940   28.8990   51.6960 C   0  0  0  0  0  0  0  0  0  0  0  0
   64.8840   28.9810   51.6340 C   0  0  0  0  0  0  0  0  0  0  0  0
   65.4756   28.0776   51.4247 H   0  0  0  0  0  0  0  0  0  0  0  0
   65.5350   30.2100   51.8370 C   0  0  0  0  0  0  0  0  0  0  0  0
   67.0150   30.2940   51.7940 C   0  0  0  0  0  0  0  0  0  0  0  0
   67.7060   29.2410   51.7940 O   0  0  0  0  0  0  0  0  0  0  0  0
   67.6830   31.5640   51.7550 N   0  0  0  0  0  0  0  0  0  0  0  0
   68.4260   32.0250   52.9320 C   0  0  0  0  0  0  0  0  0  0  0  0
   69.0807   31.2158   53.2877 H   0  0  0  0  0  0  0  0  0  0  0  0
   67.7108   32.3049   53.7195 H   0  0  0  0  0  0  0  0  0  0  0  0
   69.2800   33.2470   52.5770 C   0  0  0  0  0  0  0  0  0  0  0  0
   69.7602   33.0665   51.6040 H   0  0  0  0  0  0  0  0  0  0  0  0
   70.0155   33.3762   53.3847 H   0  0  0  0  0  0  0  0  0  0  0  0
   68.4980   34.5040   52.4900 N   0  0  0  0  0  0  0  0  0  0  0  0
   69.3190   35.6430   52.9330 C   0  0  0  0  0  0  0  0  0  0  0  0
   69.3410   35.6735   54.0324 H   0  0  0  0  0  0  0  0  0  0  0  0
   70.3433   35.5281   52.5488 H   0  0  0  0  0  0  0  0  0  0  0  0
   68.8861   36.5784   52.5488 H   0  0  0  0  0  0  0  0  0  0  0  0
   67.8450   34.7880   51.1860 C   0  0  0  0  0  0  0  0  0  0  0  0
   68.6339   34.9723   50.4419 H   0  0  0  0  0  0  0  0  0  0  0  0
   67.1907   35.6565   51.3517 H   0  0  0  0  0  0  0  0  0  0  0  0
   66.9430   33.6650   50.6560 C   0  0  0  0  0  0  0  0  0  0  0  0
   66.5503   33.9597   49.6716 H   0  0  0  0  0  0  0  0  0  0  0  0
   66.1289   33.5129   51.3799 H   0  0  0  0  0  0  0  0  0  0  0  0
   67.7020   32.3380   50.5100 C   0  0  0  0  0  0  0  0  0  0  0  0
   68.7464   32.5523   50.2391 H   0  0  0  0  0  0  0  0  0  0  0  0
   67.2068   31.7433   49.7283 H   0  0  0  0  0  0  0  0  0  0  0  0
   64.7580   31.3640   52.0550 C   0  0  0  0  0  0  0  0  0  0  0  0
   65.2535   32.3385   52.1767 H   0  0  0  0  0  0  0  0  0  0  0  0
   63.3520   31.2840   52.1190 C   0  0  0  0  0  0  0  0  0  0  0  0
   62.5440   32.4140   52.3270 O   0  0  0  0  0  0  0  0  0  0  0  0
   62.4590   33.5210   51.4360 C   0  0  0  0  0  0  0  0  0  0  0  0
   62.3874   34.4533   52.0153 H   0  0  0  0  0  0  0  0  0  0  0  0
   63.3575   33.5513   50.8021 H   0  0  0  0  0  0  0  0  0  0  0  0
   61.5664   33.4138   50.8021 H   0  0  0  0  0  0  0  0  0  0  0  0
   62.7290   30.0360   51.9640 C   0  0  0  0  0  0  0  0  0  0  0  0
   61.3040   29.9180   52.0350 N   0  0  0  0  0  0  0  0  0  0  0  0
   60.4860   30.5360   51.2350 C   0  0  0  0  0  0  0  0  0  0  0  0
   60.9150   31.0200   50.0250 N   0  0  0  0  0  0  0  0  0  0  0  0
   60.0500   31.7120   49.2410 C   0  0  0  0  0  0  0  0  0  0  0  0
   58.7650   31.9280   49.6410 C   0  0  0  0  0  0  0  0  0  0  0  0
   58.3100   31.4320   50.8560 C   0  0  0  0  0  0  0  0  0  0  0  0
   57.2709   31.5897   51.1808 H   0  0  0  0  0  0  0  0  0  0  0  0
   59.1940   30.7430   51.6330 N   0  0  0  0  0  0  0  0  0  0  0  0
   58.1480   32.6940   48.6890 C   0  0  0  0  0  0  0  0  0  0  0  0
   57.1074   33.0507   48.6866 H   0  0  0  0  0  0  0  0  0  0  0  0
   59.1260   32.9230   47.7240 C   0  0  0  0  0  0  0  0  0  0  0  0
   58.8900   33.7450   46.5150 C   0  0  0  0  0  0  0  0  0  0  0  0
   59.4600   34.8660   46.4050 O   0  0  0  0  0  0  0  0  0  0  0  0
   57.9670   33.3230   45.4930 N   0  0  0  0  0  0  0  0  0  0  0  0
   57.1260   34.3210   44.8380 C   0  0  0  0  0  0  0  0  0  0  0  0
   56.6151   34.9273   45.6004 H   0  0  0  0  0  0  0  0  0  0  0  0
   57.7515   34.9725   44.2101 H   0  0  0  0  0  0  0  0  0  0  0  0
   56.3779   33.8150   44.2101 H   0  0  0  0  0  0  0  0  0  0  0  0
   57.7740   31.9010   45.1880 C   0  0  0  0  0  0  0  0  0  0  0  0
   57.6968   31.3320   46.1262 H   0  0  0  0  0  0  0  0  0  0  0  0
   56.8503   31.7732   44.6046 H   0  0  0  0  0  0  0  0  0  0  0  0
   58.6302   31.5316   44.6046 H   0  0  0  0  0  0  0  0  0  0  0  0
   60.3100   32.3220   48.0560 N   0  0  0  0  0  0  0  0  0  0  0  0
   61.5220   32.2880   47.1950 C   0  0  0  0  0  0  0  0  0  0  0  0
   61.1129   32.0421   46.2040 H   0  0  0  0  0  0  0  0  0  0  0  0
   62.3120   33.5970   47.1100 C   0  0  0  0  0  0  0  0  0  0  0  0
   62.8113   33.6787   46.1333 H   0  0  0  0  0  0  0  0  0  0  0  0
   61.6530   34.4715   47.2150 H   0  0  0  0  0  0  0  0  0  0  0  0
   63.3450   33.5410   48.2290 C   0  0  0  0  0  0  0  0  0  0  0  0
   64.3005   33.9630   47.8840 H   0  0  0  0  0  0  0  0  0  0  0  0
   63.0157   34.1262   49.1003 H   0  0  0  0  0  0  0  0  0  0  0  0
   63.5210   32.0700   48.5920 C   0  0  0  0  0  0  0  0  0  0  0  0
   64.5505   31.7485   48.3759 H   0  0  0  0  0  0  0  0  0  0  0  0
   63.3330   31.9055   49.6633 H   0  0  0  0  0  0  0  0  0  0  0  0
   62.5360   31.2780   47.7400 C   0  0  0  0  0  0  0  0  0  0  0  0
   63.0630   30.7834   46.9107 H   0  0  0  0  0  0  0  0  0  0  0  0
   62.0388   30.4949   48.3313 H   0  0  0  0  0  0  0  0  0  0  0  0
  1  2  1  0
  2  3  2  0
  3  4  1  0
  3  5  1  0
  5  6  1  0
  6  7  2  0
  6  8  1  0
  8  9  1  0
  9 10  1  0
  9 11  1  0
  9 12  1  0
 12 13  1  0
 12 14  1  0
 12 15  1  0
 15 16  1  0
 16 17  1  0
 16 18  1  0
 16 19  1  0
 15 20  1  0
 20 21  1  0
 20 22  1  0
 20 23  1  0
 23 24  1  0
 23 25  1  0
 23 26  1  0
 26 27  1  0
 26 28  1  0
  5 29  2  0
 29 30  1  0
 29 31  1  0
 31 32  1  0
 32 33  1  0
 33 34  1  0
 33 35  1  0
 33 36  1  0
 31 37  2  0
 37 38  1  0
 38 39  2  0
 39 40  1  0
 40 41  2  0
 41 42  1  0
 42 43  2  0
 43 44  1  0
 43 45  1  0
 42 46  1  0
 46 47  1  0
 46 48  2  0
 48 49  1  0
 49 50  2  0
 49 51  1  0
 51 52  1  0
 52 53  1  0
 52 54  1  0
 52 55  1  0
 51 56  1  0
 56 57  1  0
 56 58  1  0
 56 59  1  0
 48 60  1  0
 60 61  1  0
 61 62  1  0
 61 63  1  0
 63 64  1  0
 63 65  1  0
 63 66  1  0
 66 67  1  0
 66 68  1  0
 66 69  1  0
 69 70  1  0
 69 71  1  0
 69 72  1  0
 72 73  1  0
 72 74  1  0
 37  2  1  0
 45 39  1  0
 72 61  1  0
 26  8  1  0
 60 41  1  0
M  CHG  1  45  -1
M  END
>  <UniqueID>  (28) 
27

>  <SMILES>  (28) 
COc1cc(C(=O)N2CCCN(C)CC2)ccc1/N=c1\nc2c(c[n-]1)cc(C(=O)N(C)C)n2C1CCCC1

>  <Energy>  (28) 
142.59064672867302

>  <Genealogy>  (28) 
COc1cc(C(=O)N2CCCN(C)CC2)ccc1N=c1nc2c(c[n-]1)cc(C(=O)N(C)C)n2C1CCCC1 (protonated)
COc1cc(C(=O)N2CCCN(C)CC2)ccc1/N=c1\nc2c(c[n-]1)cc(C(=O)N(C)C)n2C1CCCC1 (cis-trans isomerization)
COc1cc(C(=O)N2CCCN(C)CC2)ccc1/N=c1\nc2c(c[n-]1)cc(C(=O)N(C)C)n2C1CCCC1 (3D coordinates assigned)
COc1cc(C(=O)N2CCCN(C)CC2)ccc1/N=c1\nc2c(c[n-]1)cc(C(=O)N(C)C)n2C1CCCC1 (nonaromatic ring conformer: 142.59064672867302 kcal/mol)

>  <smiles>  (28) 
COc1cc(C(=O)N2CCCN(C)CC2)ccc1N=c1nc2c(c[nH]1)cc(C(=O)N(C)C)n2C1CCCC1

>  <score_type>  (28) 
oracle

>  <origin>  (28) 
adg

>  <m_score__min__energy>  (28) 
-8.3300000000000001

>  <m_primary>  (28) 
energy

$$$$
28:0
     RDKit          3D

 42 43  0  0  0  0  0  0  0  0999 V2000
   59.9940   35.8800   45.9970 C   0  0  0  0  0  0  0  0  0  0  0  0
   59.3130   34.5680   46.2320 C   0  0  0  0  0  0  0  0  0  0  0  0
   58.7980   33.8590   45.1900 N   0  0  0  0  0  0  0  0  0  0  0  0
   58.2280   32.6990   45.5860 C   0  0  0  0  0  0  0  0  0  0  0  0
   57.5920   31.7400   44.6670 C   0  0  0  0  0  0  0  0  0  0  0  0
   57.6330   31.9330   43.2770 C   0  0  0  0  0  0  0  0  0  0  0  0
   57.0190   31.0020   42.4360 C   0  0  0  0  0  0  0  0  0  0  0  0
   56.3720   29.8920   42.9830 C   0  0  0  0  0  0  0  0  0  0  0  0
   56.3490   29.7300   44.3690 C   0  0  0  0  0  0  0  0  0  0  0  0
   56.9530   30.6480   45.1720 N   0  0  0  0  0  0  0  0  0  0  0  0
   58.3430   32.5030   47.2520 S   0  0  0  0  0  0  0  0  0  0  0  0
   59.1700   33.9530   47.4850 C   0  0  0  0  0  0  0  0  0  0  0  0
   59.6260   34.4650   48.8340 C   0  0  0  0  0  0  0  0  0  0  0  0
   60.8680   33.8260   49.3290 N   0  0  0  0  0  0  0  0  0  0  0  0
   60.7740   32.3540   49.3260 C   0  0  0  0  0  0  0  0  0  0  0  0
   62.0670   34.3170   48.6130 C   0  0  0  0  0  0  0  0  0  0  0  0
   63.2630   33.3610   48.7750 C   0  0  0  0  0  0  0  0  0  0  0  0
   63.7550   32.8880   47.4610 N   0  0  0  0  0  0  0  0  0  0  0  0
   63.4000   33.8500   46.4050 C   0  0  0  0  0  0  0  0  0  0  0  0
   63.1940   31.5670   47.1280 C   0  0  0  0  0  0  0  0  0  0  0  0
   60.2358   36.3459   46.9637 H   0  0  0  0  0  0  0  0  0  0  0  0
   60.9205   35.7154   45.4273 H   0  0  0  0  0  0  0  0  0  0  0  0
   59.3262   36.5429   45.4273 H   0  0  0  0  0  0  0  0  0  0  0  0
   58.1444   32.8101   42.8537 H   0  0  0  0  0  0  0  0  0  0  0  0
   57.0451   31.1429   41.3454 H   0  0  0  0  0  0  0  0  0  0  0  0
   55.8858   29.1534   42.3287 H   0  0  0  0  0  0  0  0  0  0  0  0
   55.8425   28.8601   44.8126 H   0  0  0  0  0  0  0  0  0  0  0  0
   59.8021   35.5477   48.7523 H   0  0  0  0  0  0  0  0  0  0  0  0
   58.8314   34.2202   49.5542 H   0  0  0  0  0  0  0  0  0  0  0  0
   60.7505   31.9860   50.3623 H   0  0  0  0  0  0  0  0  0  0  0  0
   59.8544   32.0464   48.8067 H   0  0  0  0  0  0  0  0  0  0  0  0
   61.6470   31.9319   48.8067 H   0  0  0  0  0  0  0  0  0  0  0  0
   61.8290   34.4109   47.5432 H   0  0  0  0  0  0  0  0  0  0  0  0
   62.3470   35.2898   49.0434 H   0  0  0  0  0  0  0  0  0  0  0  0
   64.0767   33.8895   49.2933 H   0  0  0  0  0  0  0  0  0  0  0  0
   62.9334   32.4879   49.3573 H   0  0  0  0  0  0  0  0  0  0  0  0
   63.0540   34.7877   46.8644 H   0  0  0  0  0  0  0  0  0  0  0  0
   64.2830   34.0516   45.7807 H   0  0  0  0  0  0  0  0  0  0  0  0
   62.5978   33.4297   45.7807 H   0  0  0  0  0  0  0  0  0  0  0  0
   62.9628   31.0225   48.0554 H   0  0  0  0  0  0  0  0  0  0  0  0
   62.2735   31.6972   46.5400 H   0  0  0  0  0  0  0  0  0  0  0  0
   63.9269   30.9950   46.5400 H   0  0  0  0  0  0  0  0  0  0  0  0
  1  2  1  0
  2  3  1  0
  3  4  2  0
  4  5  1  0
  5  6  2  0
  6  7  1  0
  7  8  2  0
  8  9  1  0
  9 10  2  0
  4 11  1  0
 11 12  1  0
 12 13  1  0
 13 14  1  0
 14 15  1  0
 14 16  1  0
 16 17  1  0
 17 18  1  0
 18 19  1  0
 18 20  1  0
 12  2  2  0
 10  5  1  0
  1 21  1  0
  1 22  1  0
  1 23  1  0
  6 24  1  0
  7 25  1  0
  8 26  1  0
  9 27  1  0
 13 28  1  0
 13 29  1  0
 15 30  1  0
 15 31  1  0
 15 32  1  0
 16 33  1  0
 16 34  1  0
 17 35  1  0
 17 36  1  0
 19 37  1  0
 19 38  1  0
 19 39  1  0
 20 40  1  0
 20 41  1  0
 20 42  1  0
M  END
>  <UniqueID>  (29) 
28

>  <SMILES>  (29) 
Cc1nc(-c2ccccn2)sc1CN(C)CCN(C)C

>  <Energy>  (29) 
74.27981705597004

>  <Genealogy>  (29) 
Cc1nc(-c2ccccn2)sc1CN(C)CCN(C)C (3D coordinates assigned)
Cc1nc(-c2ccccn2)sc1CN(C)CCN(C)C (optimized conformer: 74.27981705597004 kcal/mol)

>  <smiles>  (29) 
Cc1nc(-c2ccccn2)sc1CN(C)CCN(C)C

>  <score_type>  (29) 
oracle

>  <origin>  (29) 
adg

>  <m_score__min__energy>  (29) 
-6.8099999999999996

>  <m_primary>  (29) 
energy

$$$$
29:0
     RDKit          3D

 38 40  0  0  0  0  0  0  0  0999 V2000
   66.3110   32.7360   49.7340 F   0  0  0  0  0  0  0  0  0  0  0  0
   65.0030   32.7200   50.1820 C   0  0  0  0  0  0  0  0  0  0  0  0
   64.3940   31.5590   49.7480 F   0  0  0  0  0  0  0  0  0  0  0  0
   64.2960   33.8420   49.6580 O   0  0  0  0  0  0  0  0  0  0  0  0
   63.1440   33.7600   48.8620 C   0  0  0  0  0  0  0  0  0  0  0  0
   61.8510   33.6600   49.4080 C   0  0  0  0  0  0  0  0  0  0  0  0
   60.7340   33.5810   48.5700 C   0  0  0  0  0  0  0  0  0  0  0  0
   60.8870   33.6000   47.1720 C   0  0  0  0  0  0  0  0  0  0  0  0
   59.7040   33.5180   46.2790 C   0  0  0  0  0  0  0  0  0  0  0  0
   59.1110   32.2780   45.9950 C   0  0  0  0  0  0  0  0  0  0  0  0
   57.9970   32.2340   45.1470 C   0  0  0  0  0  0  0  0  0  0  0  0
   57.3640   30.9840   44.8120 N   0  0  0  0  0  0  0  0  0  0  0  0
   56.6510   30.8180   43.5360 C   0  0  0  0  0  0  0  0  0  0  0  0
   55.5230   29.7640   43.6470 C   0  0  0  0  0  0  0  0  0  0  0  0
   55.5180   29.0580   44.8760 O   0  0  0  0  0  0  0  0  0  0  0  0
   56.8200   28.6090   45.1810 C   0  0  0  0  0  0  0  0  0  0  0  0
   57.6730   29.7980   45.6220 C   0  0  0  0  0  0  0  0  0  0  0  0
   57.5370   33.3900   44.5980 N   0  0  0  0  0  0  0  0  0  0  0  0
   58.1190   34.5840   44.8750 C   0  0  0  0  0  0  0  0  0  0  0  0
   59.1880   34.6470   45.7110 N   0  0  0  0  0  0  0  0  0  0  0  0
   62.1810   33.7010   46.6320 C   0  0  0  0  0  0  0  0  0  0  0  0
   63.2950   33.7790   47.4710 C   0  0  0  0  0  0  0  0  0  0  0  0
   64.9930   32.7662   51.2810 H   0  0  0  0  0  0  0  0  0  0  0  0
   61.7180   33.6439   50.4998 H   0  0  0  0  0  0  0  0  0  0  0  0
   59.7279   33.5034   49.0078 H   0  0  0  0  0  0  0  0  0  0  0  0
   59.5156   31.3533   46.4324 H   0  0  0  0  0  0  0  0  0  0  0  0
   56.2106   31.7830   43.2449 H   0  0  0  0  0  0  0  0  0  0  0  0
   57.3724   30.4720   42.7811 H   0  0  0  0  0  0  0  0  0  0  0  0
   54.5565   30.2778   43.5384 H   0  0  0  0  0  0  0  0  0  0  0  0
   55.6979   29.0231   42.8529 H   0  0  0  0  0  0  0  0  0  0  0  0
   56.7727   27.8690   45.9935 H   0  0  0  0  0  0  0  0  0  0  0  0
   57.2679   28.1439   44.2904 H   0  0  0  0  0  0  0  0  0  0  0  0
   57.4665   30.0186   46.6797 H   0  0  0  0  0  0  0  0  0  0  0  0
   58.7344   29.5428   45.4870 H   0  0  0  0  0  0  0  0  0  0  0  0
   57.7237   35.5046   44.4209 H   0  0  0  0  0  0  0  0  0  0  0  0
   59.5990   35.5840   45.9220 H   0  0  0  0  0  0  0  0  0  0  0  0
   62.3172   33.7187   45.5406 H   0  0  0  0  0  0  0  0  0  0  0  0
   64.3014   33.8562   47.0337 H   0  0  0  0  0  0  0  0  0  0  0  0
  1  2  1  0
  2  3  1  0
  2  4  1  0
  4  5  1  0
  5  6  2  0
  6  7  1  0
  7  8  2  0
  8  9  1  0
  9 10  2  0
 10 11  1  0
 11 12  1  0
 12 13  1  0
 13 14  1  0
 14 15  1  0
 15 16  1  0
 16 17  1  0
 11 18  2  0
 18 19  1  0
 19 20  2  0
  8 21  1  0
 21 22  2  0
 22  5  1  0
 20  9  1  0
 17 12  1  0
  2 23  1  0
  6 24  1  0
  7 25  1  0
 10 26  1  0
 13 27  1  0
 13 28  1  0
 14 29  1  0
 14 30  1  0
 16 31  1  0
 16 32  1  0
 17 33  1  0
 17 34  1  0
 19 35  1  0
 20 36  1  0
 21 37  1  0
 22 38  1  0
M  CHG  1  20   1
M  END
>  <UniqueID>  (30) 
29

>  <SMILES>  (30) 
FC(F)Oc1ccc(-c2cc(N3CCOCC3)nc[nH+]2)cc1

>  <Energy>  (30) 
54.06027963358876

>  <Genealogy>  (30) 
FC(F)Oc1ccc(-c2cc(N3CCOCC3)nc[nH+]2)cc1 (protonated)
FC(F)Oc1ccc(-c2cc(N3CCOCC3)nc[nH+]2)cc1 (3D coordinates assigned)
FC(F)Oc1ccc(-c2cc(N3CCOCC3)nc[nH+]2)cc1 (nonaromatic ring conformer: 54.06027963358876 kcal/mol)

>  <smiles>  (30) 
FC(F)Oc1ccc(-c2cc(N3CCOCC3)ncn2)cc1

>  <score_type>  (30) 
oracle

>  <origin>  (30) 
adg

>  <m_score__min__energy>  (30) 
-5.7400000000000002

>  <m_primary>  (30) 
energy

$$$$
30:0
     RDKit          3D

 47 49  0  0  0  0  0  0  0  0999 V2000
   59.6020   22.7970   45.2410 C   0  0  0  0  0  0  0  0  0  0  0  0
   58.4220   22.5730   44.3320 C   0  0  0  0  0  0  0  0  0  0  0  0
   58.1960   21.3230   43.8280 N   0  0  0  0  0  0  0  0  0  0  0  0
   57.1490   21.0590   43.0000 C   0  0  0  0  0  0  0  0  0  0  0  0
   56.2700   22.0740   42.6370 C   0  0  0  0  0  0  0  0  0  0  0  0
   56.4710   23.3620   43.1280 C   0  0  0  0  0  0  0  0  0  0  0  0
   57.5500   23.6350   43.9820 C   0  0  0  0  0  0  0  0  0  0  0  0
   57.7560   25.0450   44.4870 C   0  0  0  0  0  0  0  0  0  0  0  0
   57.3240   25.1560   45.8980 N   0  0  0  0  0  0  0  0  0  0  0  0
   58.4590   25.4100   46.8260 C   0  0  0  0  0  0  0  0  0  0  0  0
   58.5720   26.8770   47.2840 C   0  0  0  0  0  0  0  0  0  0  0  0
   58.0610   27.7750   46.2440 N   0  0  0  0  0  0  0  0  0  0  0  0
   58.9640   28.6330   45.5200 C   0  0  0  0  0  0  0  0  0  0  0  0
   60.1580   28.2690   45.3380 O   0  0  0  0  0  0  0  0  0  0  0  0
   58.5300   29.9270   44.9640 C   0  0  0  0  0  0  0  0  0  0  0  0
   58.5280   31.1500   45.6150 C   0  0  0  0  0  0  0  0  0  0  0  0
   58.0810   32.0410   44.6600 C   0  0  0  0  0  0  0  0  0  0  0  0
   57.9550   33.5210   44.8340 C   0  0  0  0  0  0  0  0  0  0  0  0
   57.8590   31.3700   43.5120 N   0  0  0  0  0  0  0  0  0  0  0  0
   57.4090   31.9370   42.2450 C   0  0  0  0  0  0  0  0  0  0  0  0
   58.1320   30.0870   43.6850 N   0  0  0  0  0  0  0  0  0  0  0  0
   56.6880   27.5650   45.7670 C   0  0  0  0  0  0  0  0  0  0  0  0
   56.2240   26.1290   46.0640 C   0  0  0  0  0  0  0  0  0  0  0  0
   59.2744   22.7348   46.2892 H   0  0  0  0  0  0  0  0  0  0  0  0
   60.3642   22.0275   45.0488 H   0  0  0  0  0  0  0  0  0  0  0  0
   60.0292   23.7923   45.0488 H   0  0  0  0  0  0  0  0  0  0  0  0
   58.8350   20.5330   44.0770 H   0  0  0  0  0  0  0  0  0  0  0  0
   56.9972   20.0393   42.6164 H   0  0  0  0  0  0  0  0  0  0  0  0
   55.4232   21.8614   41.9678 H   0  0  0  0  0  0  0  0  0  0  0  0
   55.7799   24.1695   42.8445 H   0  0  0  0  0  0  0  0  0  0  0  0
   58.8224   25.3043   44.4130 H   0  0  0  0  0  0  0  0  0  0  0  0
   57.1560   25.7344   43.8749 H   0  0  0  0  0  0  0  0  0  0  0  0
   58.3269   24.7779   47.7165 H   0  0  0  0  0  0  0  0  0  0  0  0
   59.3817   25.1745   46.2754 H   0  0  0  0  0  0  0  0  0  0  0  0
   57.9854   27.0162   48.2041 H   0  0  0  0  0  0  0  0  0  0  0  0
   59.6298   27.1128   47.4725 H   0  0  0  0  0  0  0  0  0  0  0  0
   58.8166   31.3624   46.6550 H   0  0  0  0  0  0  0  0  0  0  0  0
   57.9343   33.7636   45.9067 H   0  0  0  0  0  0  0  0  0  0  0  0
   58.8139   34.0202   44.3616 H   0  0  0  0  0  0  0  0  0  0  0  0
   57.0241   33.8678   44.3616 H   0  0  0  0  0  0  0  0  0  0  0  0
   56.7361   32.7848   42.4411 H   0  0  0  0  0  0  0  0  0  0  0  0
   58.2793   32.2851   41.6694 H   0  0  0  0  0  0  0  0  0  0  0  0
   56.8723   31.1685   41.6694 H   0  0  0  0  0  0  0  0  0  0  0  0
   56.0169   28.2737   46.2743 H   0  0  0  0  0  0  0  0  0  0  0  0
   56.6623   27.7276   44.6794 H   0  0  0  0  0  0  0  0  0  0  0  0
   55.8571   26.0795   47.0998 H   0  0  0  0  0  0  0  0  0  0  0  0
   55.4264   25.8711   45.3517 H   0  0  0  0  0  0  0  0  0  0  0  0
  1  2  1  0
  2  3  2  0
  3  4  1  0
  4  5  2  0
  5  6  1  0
  6  7  2  0
  7  8  1  0
  8  9  1  0
  9 10  1  0
 10 11  1  0
 11 12  1  0
 12 13  1  0
 13 14  2  0
 13 15  1  0
 15 16  1  0
 16 17  2  0
 17 18  1  0
 17 19  1  0
 19 20  1  0
 19 21  1  0
 12 22  1  0
 22 23  1  0
  7  2  1  0
 23  9  1  0
 21 15  2  0
  1 24  1  0
  1 25  1  0
  1 26  1  0
  3 27  1  0
  4 28  1  0
  5 29  1  0
  6 30  1  0
  8 31  1  0
  8 32  1  0
 10 33  1  0
 10 34  1  0
 11 35  1  0
 11 36  1  0
 16 37  1  0
 18 38  1  0
 18 39  1  0
 18 40  1  0
 20 41  1  0
 20 42  1  0
 20 43  1  0
 22 44  1  0
 22 45  1  0
 23 46  1  0
 23 47  1  0
M  CHG  1   3   1
M  END
>  <UniqueID>  (31) 
30

>  <SMILES>  (31) 
Cc1[nH+]cccc1CN1CCN(C(=O)c2cc(C)n(C)n2)CC1

>  <Energy>  (31) 
87.53149959608619

>  <Genealogy>  (31) 
Cc1[nH+]cccc1CN1CCN(C(=O)c2cc(C)n(C)n2)CC1 (protonated)
Cc1[nH+]cccc1CN1CCN(C(=O)c2cc(C)n(C)n2)CC1 (3D coordinates assigned)
Cc1[nH+]cccc1CN1CCN(C(=O)c2cc(C)n(C)n2)CC1 (nonaromatic ring conformer: 87.53149959608619 kcal/mol)

>  <smiles>  (31) 
Cc1ncccc1CN1CCN(C(=O)c2cc(C)n(C)n2)CC1

>  <score_type>  (31) 
oracle

>  <origin>  (31) 
adg

>  <m_score__min__energy>  (31) 
-6.2800000000000002

>  <m_primary>  (31) 
energy

$$$$
31:0
     RDKit          3D

 33 35  0  0  0  0  0  0  0  0999 V2000
   57.0310   33.8960   44.9290 C   0  0  0  0  0  0  0  0  0  0  0  0
   58.3320   33.4190   45.5200 C   0  0  0  0  0  0  0  0  0  0  0  0
   59.3300   34.3610   45.8230 C   0  0  0  0  0  0  0  0  0  0  0  0
   60.5430   33.9540   46.3820 C   0  0  0  0  0  0  0  0  0  0  0  0
   60.7800   32.6040   46.6350 C   0  0  0  0  0  0  0  0  0  0  0  0
   59.8060   31.6530   46.3270 C   0  0  0  0  0  0  0  0  0  0  0  0
   58.5740   32.0450   45.7720 C   0  0  0  0  0  0  0  0  0  0  0  0
   57.5740   31.0070   45.4310 C   0  0  0  0  0  0  0  0  0  0  0  0
   56.5760   31.2170   44.5950 O   0  0  0  0  0  0  0  0  0  0  0  0
   55.8970   30.1010   44.4690 C   0  0  0  0  0  0  0  0  0  0  0  0
   54.7720   29.9550   43.6660 O   0  0  0  0  0  0  0  0  0  0  0  0
   56.4560   29.1190   45.2460 C   0  0  0  0  0  0  0  0  0  0  0  0
   55.9880   27.8170   45.3880 O   0  0  0  0  0  0  0  0  0  0  0  0
   57.5420   29.6850   45.8820 C   0  0  0  0  0  0  0  0  0  0  0  0
   58.4100   29.0340   46.8890 C   0  0  0  0  0  0  0  0  0  0  0  0
   58.5410   29.5780   48.1780 C   0  0  0  0  0  0  0  0  0  0  0  0
   59.3610   28.9570   49.1260 C   0  0  0  0  0  0  0  0  0  0  0  0
   60.0500   27.7870   48.7960 C   0  0  0  0  0  0  0  0  0  0  0  0
   59.9190   27.2350   47.5200 C   0  0  0  0  0  0  0  0  0  0  0  0
   59.0990   27.8520   46.5700 C   0  0  0  0  0  0  0  0  0  0  0  0
   56.3323   34.1522   45.7391 H   0  0  0  0  0  0  0  0  0  0  0  0
   57.2145   34.7853   44.3082 H   0  0  0  0  0  0  0  0  0  0  0  0
   56.5962   33.0988   44.3082 H   0  0  0  0  0  0  0  0  0  0  0  0
   59.1541   35.4273   45.6181 H   0  0  0  0  0  0  0  0  0  0  0  0
   61.3137   34.7008   46.6234 H   0  0  0  0  0  0  0  0  0  0  0  0
   61.7359   32.2877   47.0780 H   0  0  0  0  0  0  0  0  0  0  0  0
   60.0032   30.5881   46.5198 H   0  0  0  0  0  0  0  0  0  0  0  0
   54.7690   29.2900   42.9030 H   0  0  0  0  0  0  0  0  0  0  0  0
   57.9963   30.4963   48.4427 H   0  0  0  0  0  0  0  0  0  0  0  0
   59.4635   29.3900   50.1320 H   0  0  0  0  0  0  0  0  0  0  0  0
   60.6959   27.3005   49.5417 H   0  0  0  0  0  0  0  0  0  0  0  0
   60.4616   26.3136   47.2618 H   0  0  0  0  0  0  0  0  0  0  0  0
   58.9930   27.4098   45.5684 H   0  0  0  0  0  0  0  0  0  0  0  0
  1  2  1  0
  2  3  2  0
  3  4  1  0
  4  5  2  0
  5  6  1  0
  6  7  2  0
  7  8  1  0
  8  9  1  0
  9 10  1  0
 10 11  1  0
 10 12  2  0
 12 13  1  0
 12 14  1  0
 14 15  1  0
 15 16  2  0
 16 17  1  0
 17 18  2  0
 18 19  1  0
 19 20  2  0
  7  2  1  0
 14  8  2  0
 20 15  1  0
  1 21  1  0
  1 22  1  0
  1 23  1  0
  3 24  1  0
  4 25  1  0
  5 26  1  0
  6 27  1  0
 11 28  1  0
 16 29  1  0
 17 30  1  0
 18 31  1  0
 19 32  1  0
 20 33  1  0
M  CHG  1  13  -1
M  END
>  <UniqueID>  (32) 
31

>  <SMILES>  (32) 
Cc1ccccc1-c1oc(O)c([O-])c1-c1ccccc1

>  <Energy>  (32) 
73.70105104594506

>  <Genealogy>  (32) 
Cc1ccccc1-c1oc(O)c([O-])c1-c1ccccc1 (protonated)
Cc1ccccc1-c1oc(O)c([O-])c1-c1ccccc1 (3D coordinates assigned)
Cc1ccccc1-c1oc(O)c([O-])c1-c1ccccc1 (optimized conformer: 73.70105104594506 kcal/mol)

>  <smiles>  (32) 
Cc1ccccc1-c1oc(O)c(O)c1-c1ccccc1

>  <score_type>  (32) 
oracle

>  <origin>  (32) 
adg

>  <m_score__min__energy>  (32) 
-9.4499999999999993

>  <m_primary>  (32) 
energy

$$$$
32:0
     RDKit          3D

 48 48  0  0  0  0  0  0  0  0999 V2000
   57.7580   32.0400   42.5660 C   0  0  0  0  0  0  0  0  0  0  0  0
   58.2030   32.8920   43.4940 C   0  0  0  0  0  0  0  0  0  0  0  0
   57.3690   33.2650   44.6880 C   0  0  0  0  0  0  0  0  0  0  0  0
   58.2390   33.4820   45.9010 C   0  0  0  0  0  0  0  0  0  0  0  0
   58.6870   34.7790   46.2080 C   0  0  0  0  0  0  0  0  0  0  0  0
   59.5320   34.9950   47.2970 C   0  0  0  0  0  0  0  0  0  0  0  0
   59.9490   33.9210   48.0830 C   0  0  0  0  0  0  0  0  0  0  0  0
   59.5190   32.6260   47.7850 C   0  0  0  0  0  0  0  0  0  0  0  0
   58.6540   32.3920   46.6970 C   0  0  0  0  0  0  0  0  0  0  0  0
   58.1880   31.1060   46.3730 O   0  0  0  0  0  0  0  0  0  0  0  0
   58.8140   30.1880   45.4770 C   0  0  0  0  0  0  0  0  0  0  0  0
   57.7920   29.4240   44.6130 C   0  0  2  0  0  0  0  0  0  0  0  0
   56.5570   29.4570   45.2800 O   0  0  0  0  0  0  0  0  0  0  0  0
   58.1880   27.9420   44.3810 C   0  0  0  0  0  0  0  0  0  0  0  0
   57.1160   26.9570   44.6460 N   0  0  0  0  0  0  0  0  0  0  0  0
   57.4030   26.0020   45.7430 C   0  0  1  0  0  0  0  0  0  0  0  0
   58.3910   26.6170   46.7430 C   0  0  0  0  0  0  0  0  0  0  0  0
   56.1490   25.5900   46.4750 C   0  0  0  0  0  0  0  0  0  0  0  0
   56.2390   24.8870   47.5180 O   0  0  0  0  0  0  0  0  0  0  0  0
   54.8670   25.9950   45.9830 N   0  0  0  0  0  0  0  0  0  0  0  0
   53.8100   25.0590   45.6180 C   0  0  0  0  0  0  0  0  0  0  0  0
   54.4020   23.8030   44.9890 C   0  0  0  0  0  0  0  0  0  0  0  0
   58.3915   31.7863   41.7032 H   0  0  0  0  0  0  0  0  0  0  0  0
   56.7581   31.5922   42.6647 H   0  0  0  0  0  0  0  0  0  0  0  0
   59.2050   33.3317   43.3816 H   0  0  0  0  0  0  0  0  0  0  0  0
   56.8185   34.1917   44.4683 H   0  0  0  0  0  0  0  0  0  0  0  0
   56.6675   32.4444   44.8989 H   0  0  0  0  0  0  0  0  0  0  0  0
   58.3693   35.6286   45.5857 H   0  0  0  0  0  0  0  0  0  0  0  0
   59.8699   36.0141   47.5361 H   0  0  0  0  0  0  0  0  0  0  0  0
   60.6177   34.0941   48.9391 H   0  0  0  0  0  0  0  0  0  0  0  0
   59.8580   31.7823   48.4041 H   0  0  0  0  0  0  0  0  0  0  0  0
   59.4903   30.7469   44.8135 H   0  0  0  0  0  0  0  0  0  0  0  0
   59.3624   29.4499   46.0807 H   0  0  0  0  0  0  0  0  0  0  0  0
   57.7488   29.9092   43.6267 H   0  0  0  0  0  0  0  0  0  0  0  0
   56.6430   30.1140   46.0210 H   0  0  0  0  0  0  0  0  0  0  0  0
   58.4994   27.8327   43.3317 H   0  0  0  0  0  0  0  0  0  0  0  0
   58.9902   27.7229   45.1011 H   0  0  0  0  0  0  0  0  0  0  0  0
   56.2230   27.4620   44.8430 H   0  0  0  0  0  0  0  0  0  0  0  0
   56.9620   26.4180   43.7620 H   0  0  0  0  0  0  0  0  0  0  0  0
   57.8447   25.1060   45.2825 H   0  0  0  0  0  0  0  0  0  0  0  0
   58.0533   26.4068   47.7686 H   0  0  0  0  0  0  0  0  0  0  0  0
   59.3886   26.1801   46.5887 H   0  0  0  0  0  0  0  0  0  0  0  0
   58.4394   27.7050   46.5887 H   0  0  0  0  0  0  0  0  0  0  0  0
   53.2459   24.7804   46.5203 H   0  0  0  0  0  0  0  0  0  0  0  0
   53.1439   25.5421   44.8880 H   0  0  0  0  0  0  0  0  0  0  0  0
   54.7269   23.1138   45.7824 H   0  0  0  0  0  0  0  0  0  0  0  0
   53.6407   23.3115   44.3654 H   0  0  0  0  0  0  0  0  0  0  0  0
   55.2656   24.0774   44.3654 H   0  0  0  0  0  0  0  0  0  0  0  0
  1  2  2  0
  2  3  1  0
  3  4  1  0
  4  5  2  0
  5  6  1  0
  6  7  2  0
  7  8  1  0
  8  9  2  0
  9 10  1  0
 10 11  1  0
 11 12  1  0
 12 13  1  0
 12 14  1  0
 14 15  1  0
 15 16  1  0
 16 17  1  0
 16 18  1  0
 18 19  2  0
 18 20  1  0
 20 21  1  0
 21 22  1  0
  9  4  1  0
  1 23  1  0
  1 24  1  0
  2 25  1  0
  3 26  1  0
  3 27  1  0
  5 28  1  0
  6 29  1  0
  7 30  1  0
  8 31  1  0
 11 32  1  0
 11 33  1  0
 12 34  1  6
 13 35  1  0
 14 36  1  0
 14 37  1  0
 15 38  1  0
 15 39  1  0
 16 40  1  6
 17 41  1  0
 17 42  1  0
 17 43  1  0
 21 44  1  0
 21 45  1  0
 22 46  1  0
 22 47  1  0
 22 48  1  0
M  CHG  2  15   1  20  -1
M  END
>  <UniqueID>  (33) 
32

>  <SMILES>  (33) 
C=CCc1ccccc1OC[C@H](O)C[NH2+][C@@H](C)C(=O)[N-]CC

>  <Energy>  (33) 
35.08258400730293

>  <Genealogy>  (33) 
C=CCc1ccccc1OCC(O)C[NH2+]C(C)C(=O)[N-]CC (protonated)
C=CCc1ccccc1OC[C@H](O)C[NH2+][C@@H](C)C(=O)[N-]CC (chirality)
C=CCc1ccccc1OC[C@H](O)C[NH2+][C@@H](C)C(=O)[N-]CC (3D coordinates assigned)
C=CCc1ccccc1OC[C@H](O)C[NH2+][C@@H](C)C(=O)[N-]CC (optimized conformer: 35.08258400730293 kcal/mol)

>  <smiles>  (33) 
C=CCc1ccccc1OCC(O)CNC(C)C(=O)NCC

>  <score_type>  (33) 
oracle

>  <origin>  (33) 
adg

>  <m_score__min__energy>  (33) 
-8.0999999999999996

>  <m_primary>  (33) 
energy

$$$$
33:0
     RDKit          3D

 47 49  0  0  0  0  0  0  0  0999 V2000
   57.7620   32.0980   42.5580 C   0  0  0  0  0  0  0  0  0  0  0  0
   57.5490   30.9270   43.4710 C   0  0  0  0  0  0  0  0  0  0  0  0
   56.2520   30.4600   43.7320 C   0  0  0  0  0  0  0  0  0  0  0  0
   56.0530   29.3960   44.6150 C   0  0  0  0  0  0  0  0  0  0  0  0
   57.1420   28.8010   45.2560 C   0  0  0  0  0  0  0  0  0  0  0  0
   58.4450   29.2670   45.0170 C   0  0  0  0  0  0  0  0  0  0  0  0
   59.6130   28.6590   45.7500 C   0  0  0  0  0  0  0  0  0  0  0  0
   59.7290   29.2370   47.1040 N   0  0  0  0  0  0  0  0  0  0  0  0
   58.9440   28.7690   48.1280 C   0  0  0  0  0  0  0  0  0  0  0  0
   58.1440   27.8120   47.9450 O   0  0  0  0  0  0  0  0  0  0  0  0
   59.0170   29.3470   49.3900 C   0  0  0  0  0  0  0  0  0  0  0  0
   59.8920   30.4040   49.5950 C   0  0  0  0  0  0  0  0  0  0  0  0
   60.6770   30.8580   48.5780 N   0  0  0  0  0  0  0  0  0  0  0  0
   61.5620   32.0100   48.8190 C   0  0  0  0  0  0  0  0  0  0  0  0
   60.7260   33.2670   49.1020 C   0  0  0  0  0  0  0  0  0  0  0  0
   60.7520   34.2620   47.9330 C   0  0  0  0  0  0  0  0  0  0  0  0
   59.5760   34.0720   47.0080 C   0  0  0  0  0  0  0  0  0  0  0  0
   59.5420   34.7290   45.7660 C   0  0  0  0  0  0  0  0  0  0  0  0
   58.4400   34.5780   44.9200 C   0  0  0  0  0  0  0  0  0  0  0  0
   57.3630   33.7750   45.3070 C   0  0  0  0  0  0  0  0  0  0  0  0
   57.3870   33.1230   46.5430 C   0  0  0  0  0  0  0  0  0  0  0  0
   58.4880   33.2720   47.3930 C   0  0  0  0  0  0  0  0  0  0  0  0
   60.5900   30.2850   47.3340 C   0  0  0  0  0  0  0  0  0  0  0  0
   61.3060   30.7290   46.3910 O   0  0  0  0  0  0  0  0  0  0  0  0
   58.6410   30.3370   44.1280 C   0  0  0  0  0  0  0  0  0  0  0  0
   57.9270   33.0053   43.1577 H   0  0  0  0  0  0  0  0  0  0  0  0
   58.6412   31.9130   41.9234 H   0  0  0  0  0  0  0  0  0  0  0  0
   56.8739   32.2345   41.9234 H   0  0  0  0  0  0  0  0  0  0  0  0
   55.3894   30.9330   43.2399 H   0  0  0  0  0  0  0  0  0  0  0  0
   55.0351   29.0255   44.8062 H   0  0  0  0  0  0  0  0  0  0  0  0
   56.9784   27.9641   45.9508 H   0  0  0  0  0  0  0  0  0  0  0  0
   59.4637   27.5722   45.8315 H   0  0  0  0  0  0  0  0  0  0  0  0
   60.5356   28.8731   45.1906 H   0  0  0  0  0  0  0  0  0  0  0  0
   58.3909   28.9723   50.2132 H   0  0  0  0  0  0  0  0  0  0  0  0
   59.9524   30.8788   50.5854 H   0  0  0  0  0  0  0  0  0  0  0  0
   62.2064   31.7989   49.6851 H   0  0  0  0  0  0  0  0  0  0  0  0
   62.1805   32.1822   47.9258 H   0  0  0  0  0  0  0  0  0  0  0  0
   59.6844   32.9647   49.2856 H   0  0  0  0  0  0  0  0  0  0  0  0
   61.1605   33.7685   49.9793 H   0  0  0  0  0  0  0  0  0  0  0  0
   60.7261   35.2852   48.3360 H   0  0  0  0  0  0  0  0  0  0  0  0
   61.6720   34.0869   47.3560 H   0  0  0  0  0  0  0  0  0  0  0  0
   60.3858   35.3643   45.4588 H   0  0  0  0  0  0  0  0  0  0  0  0
   58.4199   35.0920   43.9477 H   0  0  0  0  0  0  0  0  0  0  0  0
   56.4971   33.6564   44.6390 H   0  0  0  0  0  0  0  0  0  0  0  0
   56.5391   32.4919   46.8478 H   0  0  0  0  0  0  0  0  0  0  0  0
   58.5015   32.7605   48.3668 H   0  0  0  0  0  0  0  0  0  0  0  0
   59.6575   30.7155   43.9451 H   0  0  0  0  0  0  0  0  0  0  0  0
  1  2  1  0
  2  3  2  0
  3  4  1  0
  4  5  2  0
  5  6  1  0
  6  7  1  0
  7  8  1  0
  8  9  1  0
  9 10  2  0
  9 11  1  0
 11 12  2  0
 12 13  1  0
 13 14  1  0
 14 15  1  0
 15 16  1  0
 16 17  1  0
 17 18  2  0
 18 19  1  0
 19 20  2  0
 20 21  1  0
 21 22  2  0
 13 23  1  0
 23 24  2  0
  6 25  2  0
 25  2  1  0
 23  8  1  0
 22 17  1  0
  1 26  1  0
  1 27  1  0
  1 28  1  0
  3 29  1  0
  4 30  1  0
  5 31  1  0
  7 32  1  0
  7 33  1  0
 11 34  1  0
 12 35  1  0
 14 36  1  0
 14 37  1  0
 15 38  1  0
 15 39  1  0
 16 40  1  0
 16 41  1  0
 18 42  1  0
 19 43  1  0
 20 44  1  0
 21 45  1  0
 22 46  1  0
 25 47  1  0
M  END
>  <UniqueID>  (34) 
33

>  <SMILES>  (34) 
Cc1cccc(Cn2c(=O)ccn(CCCc3ccccc3)c2=O)c1

>  <Energy>  (34) 
48.73218714946372

>  <Genealogy>  (34) 
Cc1cccc(Cn2c(=O)ccn(CCCc3ccccc3)c2=O)c1 (3D coordinates assigned)
Cc1cccc(Cn2c(=O)ccn(CCCc3ccccc3)c2=O)c1 (optimized conformer: 48.73218714946372 kcal/mol)

>  <smiles>  (34) 
Cc1cccc(Cn2c(=O)ccn(CCCc3ccccc3)c2=O)c1

>  <score_type>  (34) 
oracle

>  <origin>  (34) 
adg

>  <m_score__min__energy>  (34) 
-7.6799999999999997

>  <m_primary>  (34) 
energy

$$$$
34:0
     RDKit          3D

 34 36  0  0  0  0  0  0  0  0999 V2000
   57.0170   34.3930   44.8740 C   0  0  0  0  0  0  0  0  0  0  0  0
   57.5560   33.0750   44.8760 O   0  0  0  0  0  0  0  0  0  0  0  0
   58.1100   32.4410   45.9990 C   0  0  0  0  0  0  0  0  0  0  0  0
   58.5370   33.1710   47.1270 C   0  0  0  0  0  0  0  0  0  0  0  0
   59.0900   32.5120   48.2280 C   0  0  0  0  0  0  0  0  0  0  0  0
   59.6670   33.5150   49.7480 Br  0  0  0  0  0  0  0  0  0  0  0  0
   59.2250   31.1240   48.2180 C   0  0  0  0  0  0  0  0  0  0  0  0
   58.8060   30.3880   47.1080 C   0  0  0  0  0  0  0  0  0  0  0  0
   58.2400   31.0350   45.9950 C   0  0  0  0  0  0  0  0  0  0  0  0
   57.8260   30.2200   44.7930 C   0  0  0  0  0  0  0  0  0  0  0  0
   57.6490   28.7690   45.1690 C   0  0  0  0  0  0  0  0  0  0  0  0
   58.7960   27.9460   45.3280 C   0  0  0  0  0  0  0  0  0  0  0  0
   58.6670   26.5840   45.6560 C   0  0  0  0  0  0  0  0  0  0  0  0
   57.3820   26.0760   45.8140 C   0  0  0  0  0  0  0  0  0  0  0  0
   57.0300   24.8220   46.1290 N   0  0  0  0  0  0  0  0  0  0  0  0
   55.6740   24.8940   46.1480 C   0  0  0  0  0  0  0  0  0  0  0  0
   54.8100   23.7320   46.5080 C   0  0  0  0  0  0  0  0  0  0  0  0
   55.1680   26.1270   45.8820 N   0  0  0  0  0  0  0  0  0  0  0  0
   56.2750   26.8540   45.6670 C   0  0  0  0  0  0  0  0  0  0  0  0
   56.3590   28.2070   45.3470 C   0  0  0  0  0  0  0  0  0  0  0  0
   55.2030   28.9680   45.2160 O   0  0  0  0  0  0  0  0  0  0  0  0
   56.8777   34.7337   45.9106 H   0  0  0  0  0  0  0  0  0  0  0  0
   57.7098   35.0717   44.3549 H   0  0  0  0  0  0  0  0  0  0  0  0
   56.0472   34.3917   44.3549 H   0  0  0  0  0  0  0  0  0  0  0  0
   58.4342   34.2661   47.1404 H   0  0  0  0  0  0  0  0  0  0  0  0
   59.6622   30.6084   49.0858 H   0  0  0  0  0  0  0  0  0  0  0  0
   58.9195   29.2939   47.1040 H   0  0  0  0  0  0  0  0  0  0  0  0
   56.8749   30.6105   44.4019 H   0  0  0  0  0  0  0  0  0  0  0  0
   58.6121   30.2940   44.0271 H   0  0  0  0  0  0  0  0  0  0  0  0
   59.7980   28.3793   45.1929 H   0  0  0  0  0  0  0  0  0  0  0  0
   59.5519   25.9430   45.7831 H   0  0  0  0  0  0  0  0  0  0  0  0
   54.7470   23.6473   47.6029 H   0  0  0  0  0  0  0  0  0  0  0  0
   53.8023   23.8820   46.0932 H   0  0  0  0  0  0  0  0  0  0  0  0
   55.2438   22.8101   46.0932 H   0  0  0  0  0  0  0  0  0  0  0  0
  1  2  1  0
  2  3  1  0
  3  4  2  0
  4  5  1  0
  5  6  1  0
  5  7  2  0
  7  8  1  0
  8  9  2  0
  9 10  1  0
 10 11  1  0
 11 12  2  0
 12 13  1  0
 13 14  2  0
 14 15  1  0
 15 16  2  0
 16 17  1  0
 16 18  1  0
 18 19  1  0
 19 20  2  0
 20 21  1  0
  9  3  1  0
 20 11  1  0
 19 14  1  0
  1 22  1  0
  1 23  1  0
  1 24  1  0
  4 25  1  0
  7 26  1  0
  8 27  1  0
 10 28  1  0
 10 29  1  0
 12 30  1  0
 13 31  1  0
 17 32  1  0
 17 33  1  0
 17 34  1  0
M  CHG  2  18  -1  21  -1
M  END
>  <UniqueID>  (35) 
34

>  <SMILES>  (35) 
COc1cc(Br)ccc1Cc1ccc2nc(C)[n-]c2c1[O-]

>  <Energy>  (35) 
68.77215336423441

>  <Genealogy>  (35) 
COc1cc(Br)ccc1Cc1ccc2nc(C)[n-]c2c1[O-] (protonated)
COc1cc(Br)ccc1Cc1ccc2nc(C)[n-]c2c1[O-] (3D coordinates assigned)
COc1cc(Br)ccc1Cc1ccc2nc(C)[n-]c2c1[O-] (optimized conformer: 68.77215336423441 kcal/mol)

>  <smiles>  (35) 
COc1cc(Br)ccc1Cc1ccc2nc(C)[nH]c2c1O

>  <score_type>  (35) 
oracle

>  <origin>  (35) 
adg

>  <m_score__min__energy>  (35) 
-13.050000000000001

>  <m_primary>  (35) 
energy

$$$$
35:0
     RDKit          3D

 51 53  0  0  0  0  0  0  0  0999 V2000
   56.1353   32.3159   43.7782 H   0  0  0  0  0  0  0  0  0  0  0  0
   56.6450   31.4900   44.2960 C   0  0  0  0  0  0  0  0  0  0  0  0
   57.9430   31.6740   44.7990 C   0  0  0  0  0  0  0  0  0  0  0  0
   58.6340   32.8890   44.6670 O   0  0  0  0  0  0  0  0  0  0  0  0
   58.0550   34.1710   44.8830 C   0  0  0  0  0  0  0  0  0  0  0  0
   57.9706   34.3578   45.9637 H   0  0  0  0  0  0  0  0  0  0  0  0
   58.6920   34.9427   44.4261 H   0  0  0  0  0  0  0  0  0  0  0  0
   57.0549   34.2033   44.4261 H   0  0  0  0  0  0  0  0  0  0  0  0
   58.5810   30.6170   45.4580 C   0  0  0  0  0  0  0  0  0  0  0  0
   59.5993   30.7601   45.8487 H   0  0  0  0  0  0  0  0  0  0  0  0
   57.9390   29.3660   45.6310 C   0  0  0  0  0  0  0  0  0  0  0  0
   58.5760   28.2790   46.2930 C   0  0  0  0  0  0  0  0  0  0  0  0
   59.8150   28.4900   46.6740 N   0  0  0  0  0  0  0  0  0  0  0  0
   60.4930   28.8560   47.9170 C   0  0  0  0  0  0  0  0  0  0  0  0
   61.5226   28.4699   47.8882 H   0  0  0  0  0  0  0  0  0  0  0  0
   59.9307   28.4188   48.7553 H   0  0  0  0  0  0  0  0  0  0  0  0
   60.5380   30.3800   48.1140 C   0  0  0  0  0  0  0  0  0  0  0  0
   60.8822   30.5963   49.1361 H   0  0  0  0  0  0  0  0  0  0  0  0
   59.5257   30.7754   47.9440 H   0  0  0  0  0  0  0  0  0  0  0  0
   61.4870   31.0590   47.1170 C   0  0  0  0  0  0  0  0  0  0  0  0
   60.9999   31.1190   46.1326 H   0  0  0  0  0  0  0  0  0  0  0  0
   62.4123   30.4694   47.0384 H   0  0  0  0  0  0  0  0  0  0  0  0
   61.8170   32.4250   47.5860 N   0  0  0  0  0  0  0  0  0  0  0  0
   63.2540   32.7250   47.3930 C   0  0  0  0  0  0  0  0  0  0  0  0
   63.7582   31.8377   46.9826 H   0  0  0  0  0  0  0  0  0  0  0  0
   63.6970   32.9947   48.3631 H   0  0  0  0  0  0  0  0  0  0  0  0
   63.4250   33.8930   46.4270 C   0  0  0  0  0  0  0  0  0  0  0  0
   63.5612   34.8236   46.9974 H   0  0  0  0  0  0  0  0  0  0  0  0
   64.3072   33.7187   45.7935 H   0  0  0  0  0  0  0  0  0  0  0  0
   62.5299   33.9789   45.7935 H   0  0  0  0  0  0  0  0  0  0  0  0
   60.9630   33.4430   46.9310 C   0  0  0  0  0  0  0  0  0  0  0  0
   61.5957   34.2610   46.5560 H   0  0  0  0  0  0  0  0  0  0  0  0
   60.4215   32.9736   46.0965 H   0  0  0  0  0  0  0  0  0  0  0  0
   59.9520   34.0040   47.9270 C   0  0  0  0  0  0  0  0  0  0  0  0
   60.3009   33.8104   48.9521 H   0  0  0  0  0  0  0  0  0  0  0  0
   59.8489   35.0883   47.7734 H   0  0  0  0  0  0  0  0  0  0  0  0
   58.9774   33.5177   47.7734 H   0  0  0  0  0  0  0  0  0  0  0  0
   57.8340   27.0530   46.4640 C   0  0  0  0  0  0  0  0  0  0  0  0
   58.2780   25.9190   47.1920 C   0  0  0  0  0  0  0  0  0  0  0  0
   59.2537   25.9538   47.6987 H   0  0  0  0  0  0  0  0  0  0  0  0
   57.5040   24.7590   47.2800 C   0  0  0  0  0  0  0  0  0  0  0  0
   57.8850   23.8896   47.8358 H   0  0  0  0  0  0  0  0  0  0  0  0
   56.2550   24.6950   46.6700 C   0  0  0  0  0  0  0  0  0  0  0  0
   55.2880   23.2340   46.7870 Cl  0  0  0  0  0  0  0  0  0  0  0  0
   55.7680   25.8000   45.9820 C   0  0  0  0  0  0  0  0  0  0  0  0
   54.7755   25.7557   45.5097 H   0  0  0  0  0  0  0  0  0  0  0  0
   56.5320   26.9690   45.8860 C   0  0  0  0  0  0  0  0  0  0  0  0
   55.9910   28.0290   45.2430 N   0  0  0  0  0  0  0  0  0  0  0  0
   56.6370   29.2080   45.1120 C   0  0  0  0  0  0  0  0  0  0  0  0
   56.0000   30.2630   44.4510 C   0  0  0  0  0  0  0  0  0  0  0  0
   54.9847   30.1244   44.0511 H   0  0  0  0  0  0  0  0  0  0  0  0
  1  2  1  0
  2  3  2  0
  3  4  1  0
  4  5  1  0
  5  6  1  0
  5  7  1  0
  5  8  1  0
  3  9  1  0
  9 10  1  0
  9 11  2  0
 11 12  1  0
 12 13  2  0
 13 14  1  0
 14 15  1  0
 14 16  1  0
 14 17  1  0
 17 18  1  0
 17 19  1  0
 17 20  1  0
 20 21  1  0
 20 22  1  0
 20 23  1  0
 23 24  1  0
 24 25  1  0
 24 26  1  0
 24 27  1  0
 27 28  1  0
 27 29  1  0
 27 30  1  0
 23 31  1  0
 31 32  1  0
 31 33  1  0
 31 34  1  0
 34 35  1  0
 34 36  1  0
 34 37  1  0
 12 38  1  0
 38 39  2  0
 39 40  1  0
 39 41  1  0
 41 42  1  0
 41 43  2  0
 43 44  1  0
 43 45  1  0
 45 46  1  0
 45 47  2  0
 47 48  1  0
 48 49  1  0
 49 50  2  0
 50 51  1  0
 50  2  1  0
 49 11  1  0
 47 38  1  0
M  CHG  1  48  -1
M  END
>  <UniqueID>  (36) 
35

>  <SMILES>  (36) 
CCN(CC)CCC/N=c1\c2ccc(Cl)cc2[n-]c2ccc(OC)cc12

>  <Energy>  (36) 
73.72219557877719

>  <Genealogy>  (36) 
CCN(CC)CCCN=c1c2ccc(Cl)cc2[n-]c2ccc(OC)cc12 (protonated)
CCN(CC)CCC/N=c1\c2ccc(Cl)cc2[n-]c2ccc(OC)cc12 (cis-trans isomerization)
CCN(CC)CCC/N=c1\c2ccc(Cl)cc2[n-]c2ccc(OC)cc12 (3D coordinates assigned)
CCN(CC)CCC/N=c1\c2ccc(Cl)cc2[n-]c2ccc(OC)cc12 (optimized conformer: 73.72219557877719 kcal/mol)

>  <smiles>  (36) 
CCN(CC)CCCN=c1c2ccc(Cl)cc2[nH]c2ccc(OC)cc12

>  <score_type>  (36) 
oracle

>  <origin>  (36) 
adg

>  <m_score__min__energy>  (36) 
-8.5

>  <m_primary>  (36) 
energy

$$$$
36:0
     RDKit          3D

 47 48  0  0  0  0  0  0  0  0999 V2000
   54.3490   24.9810   45.6200 C   0  0  0  0  0  0  0  0  0  0  0  0
   54.9690   26.2500   46.0130 N   0  0  0  0  0  0  0  0  0  0  0  0
   56.3020   26.0440   46.6020 C   0  0  0  0  0  0  0  0  0  0  0  0
   57.0840   24.9400   45.8560 C   0  0  2  0  0  0  0  0  0  0  0  0
   58.4250   24.6570   46.5490 C   0  0  0  0  0  0  0  0  0  0  0  0
   57.2710   25.2700   44.3760 C   0  0  0  0  0  0  0  0  0  0  0  0
   57.2810   24.2160   43.3830 S   0  0  0  0  0  0  0  0  0  0  0  0
   57.4070   26.6510   43.9650 N   0  0  0  0  0  0  0  0  0  0  0  0
   58.7880   27.1100   44.1710 C   0  0  0  0  0  0  0  0  0  0  0  0
   58.8030   28.5380   44.6520 C   0  0  0  0  0  0  0  0  0  0  0  0
   59.7830   28.9700   45.5570 C   0  0  0  0  0  0  0  0  0  0  0  0
   59.7730   30.2840   46.0330 C   0  0  0  0  0  0  0  0  0  0  0  0
   58.7760   31.1830   45.6220 C   0  0  0  0  0  0  0  0  0  0  0  0
   58.7750   32.5370   46.1140 N   0  0  0  0  0  0  0  0  0  0  0  0
   58.5700   33.6590   45.1920 C   0  0  0  0  0  0  0  0  0  0  0  0
   59.2580   34.9110   45.7440 C   0  0  0  0  0  0  0  0  0  0  0  0
   58.8480   35.1630   47.0750 O   0  0  0  0  0  0  0  0  0  0  0  0
   59.2860   34.1140   47.9180 C   0  0  0  0  0  0  0  0  0  0  0  0
   58.6010   32.7950   47.5460 C   0  0  0  0  0  0  0  0  0  0  0  0
   57.7900   30.7440   44.7220 C   0  0  0  0  0  0  0  0  0  0  0  0
   57.7980   29.4300   44.2480 C   0  0  0  0  0  0  0  0  0  0  0  0
   54.0719   24.4138   46.5208 H   0  0  0  0  0  0  0  0  0  0  0  0
   53.4480   25.1828   45.0221 H   0  0  0  0  0  0  0  0  0  0  0  0
   55.0619   24.3942   45.0221 H   0  0  0  0  0  0  0  0  0  0  0  0
   54.3590   26.6760   46.7480 H   0  0  0  0  0  0  0  0  0  0  0  0
   56.8683   26.9852   46.5437 H   0  0  0  0  0  0  0  0  0  0  0  0
   56.1731   25.7299   47.6483 H   0  0  0  0  0  0  0  0  0  0  0  0
   56.4812   24.0208   45.8986 H   0  0  0  0  0  0  0  0  0  0  0  0
   58.2873   24.6861   47.6400 H   0  0  0  0  0  0  0  0  0  0  0  0
   58.7887   23.6623   46.2517 H   0  0  0  0  0  0  0  0  0  0  0  0
   59.1596   25.4199   46.2517 H   0  0  0  0  0  0  0  0  0  0  0  0
   56.7460   27.2660   44.4970 H   0  0  0  0  0  0  0  0  0  0  0  0
   57.1610   26.7310   42.9500 H   0  0  0  0  0  0  0  0  0  0  0  0
   59.2741   26.4699   44.9220 H   0  0  0  0  0  0  0  0  0  0  0  0
   59.3290   27.0507   43.2151 H   0  0  0  0  0  0  0  0  0  0  0  0
   60.5632   28.2716   45.8938 H   0  0  0  0  0  0  0  0  0  0  0  0
   60.5521   30.6163   46.7349 H   0  0  0  0  0  0  0  0  0  0  0  0
   58.9984   33.4088   44.2102 H   0  0  0  0  0  0  0  0  0  0  0  0
   57.4922   33.8517   45.0857 H   0  0  0  0  0  0  0  0  0  0  0  0
   60.3477   34.7623   45.7241 H   0  0  0  0  0  0  0  0  0  0  0  0
   58.9781   35.7721   45.1193 H   0  0  0  0  0  0  0  0  0  0  0  0
   60.3747   33.9973   47.8125 H   0  0  0  0  0  0  0  0  0  0  0  0
   59.0267   34.3651   48.9571 H   0  0  0  0  0  0  0  0  0  0  0  0
   59.0506   31.9736   48.1232 H   0  0  0  0  0  0  0  0  0  0  0  0
   57.5277   32.8632   47.7769 H   0  0  0  0  0  0  0  0  0  0  0  0
   57.0063   31.4401   44.3884 H   0  0  0  0  0  0  0  0  0  0  0  0
   57.0130   29.0931   43.5550 H   0  0  0  0  0  0  0  0  0  0  0  0
  1  2  1  0
  2  3  1  0
  3  4  1  0
  4  5  1  0
  4  6  1  0
  6  7  2  0
  6  8  1  0
  8  9  1  0
  9 10  1  0
 10 11  2  0
 11 12  1  0
 12 13  2  0
 13 14  1  0
 14 15  1  0
 15 16  1  0
 16 17  1  0
 17 18  1  0
 18 19  1  0
 13 20  1  0
 20 21  2  0
 21 10  1  0
 19 14  1  0
  1 22  1  0
  1 23  1  0
  1 24  1  0
  2 25  1  0
  3 26  1  0
  3 27  1  0
  4 28  1  6
  5 29  1  0
  5 30  1  0
  5 31  1  0
  8 32  1  0
  8 33  1  0
  9 34  1  0
  9 35  1  0
 11 36  1  0
 12 37  1  0
 15 38  1  0
 15 39  1  0
 16 40  1  0
 16 41  1  0
 18 42  1  0
 18 43  1  0
 19 44  1  0
 19 45  1  0
 20 46  1  0
 21 47  1  0
M  CHG  1   8   1
M  END
>  <UniqueID>  (37) 
36

>  <SMILES>  (37) 
CNC[C@H](C)C(=S)[NH2+]Cc1ccc(N2CCOCC2)cc1

>  <Energy>  (37) 
47.12868919058007

>  <Genealogy>  (37) 
CNCC(C)C(=S)[NH2+]Cc1ccc(N2CCOCC2)cc1 (protonated)
CNC[C@H](C)C(=S)[NH2+]Cc1ccc(N2CCOCC2)cc1 (chirality)
CNC[C@H](C)C(=S)[NH2+]Cc1ccc(N2CCOCC2)cc1 (3D coordinates assigned)
CNC[C@H](C)C(=S)[NH2+]Cc1ccc(N2CCOCC2)cc1 (nonaromatic ring conformer: 47.12868919058007 kcal/mol)

>  <smiles>  (37) 
CNCC(C)C(=S)NCc1ccc(N2CCOCC2)cc1

>  <score_type>  (37) 
oracle

>  <origin>  (37) 
adg

>  <m_score__min__energy>  (37) 
-5.79

>  <m_primary>  (37) 
energy

$$$$
37:0
     RDKit          3D

 37 38  0  0  0  0  0  0  0  0999 V2000
   62.5320   33.8260   46.7710 C   0  0  0  0  0  0  0  0  0  0  0  0
   61.7930   34.0350   48.0210 N   0  0  0  0  0  0  0  0  0  0  0  0
   62.5180   34.2260   49.2800 C   0  0  0  0  0  0  0  0  0  0  0  0
   60.3630   34.2120   48.0040 C   0  0  0  0  0  0  0  0  0  0  0  0
   59.8180   34.9590   48.8620 O   0  0  0  0  0  0  0  0  0  0  0  0
   59.5080   33.5470   46.9950 C   0  0  0  0  0  0  0  0  0  0  0  0
   58.9380   32.2960   47.2730 C   0  0  0  0  0  0  0  0  0  0  0  0
   58.1430   31.6530   46.3210 C   0  0  0  0  0  0  0  0  0  0  0  0
   57.9200   32.2430   45.0620 C   0  0  0  0  0  0  0  0  0  0  0  0
   57.1140   31.6060   44.0550 N   0  0  0  0  0  0  0  0  0  0  0  0
   56.6780   29.9260   44.0770 S   0  0  0  0  0  0  0  0  0  0  0  0
   56.4670   29.4490   42.6680 O   0  0  0  0  0  0  0  0  0  0  0  0
   55.3940   29.7630   44.8440 O   0  0  0  0  0  0  0  0  0  0  0  0
   57.9670   28.9770   44.8100 C   0  0  0  0  0  0  0  0  0  0  0  0
   59.3050   29.2580   44.5000 C   0  0  0  0  0  0  0  0  0  0  0  0
   60.3330   28.5130   45.0870 C   0  0  0  0  0  0  0  0  0  0  0  0
   60.0280   27.4830   45.9820 C   0  0  0  0  0  0  0  0  0  0  0  0
   58.6940   27.1960   46.2890 C   0  0  0  0  0  0  0  0  0  0  0  0
   57.6650   27.9390   45.7040 C   0  0  0  0  0  0  0  0  0  0  0  0
   58.5050   33.4870   44.7840 C   0  0  0  0  0  0  0  0  0  0  0  0
   59.2990   34.1300   45.7380 C   0  0  0  0  0  0  0  0  0  0  0  0
   63.5670   33.5333   47.0015 H   0  0  0  0  0  0  0  0  0  0  0  0
   62.0471   33.0298   46.1871 H   0  0  0  0  0  0  0  0  0  0  0  0
   62.5360   34.7582   46.1871 H   0  0  0  0  0  0  0  0  0  0  0  0
   61.8378   34.0468   50.1257 H   0  0  0  0  0  0  0  0  0  0  0  0
   63.3591   33.5188   49.3297 H   0  0  0  0  0  0  0  0  0  0  0  0
   62.9014   35.2558   49.3297 H   0  0  0  0  0  0  0  0  0  0  0  0
   59.1181   31.8179   48.2472 H   0  0  0  0  0  0  0  0  0  0  0  0
   57.6883   30.6795   46.5564 H   0  0  0  0  0  0  0  0  0  0  0  0
   56.8210   32.1580   43.2170 H   0  0  0  0  0  0  0  0  0  0  0  0
   59.5469   30.0659   43.7938 H   0  0  0  0  0  0  0  0  0  0  0  0
   61.3821   28.7376   44.8444 H   0  0  0  0  0  0  0  0  0  0  0  0
   60.8370   26.8985   46.4445 H   0  0  0  0  0  0  0  0  0  0  0  0
   58.4544   26.3844   46.9918 H   0  0  0  0  0  0  0  0  0  0  0  0
   56.6165   27.7095   45.9450 H   0  0  0  0  0  0  0  0  0  0  0  0
   58.3374   33.9613   43.8058 H   0  0  0  0  0  0  0  0  0  0  0  0
   59.7623   35.0990   45.5007 H   0  0  0  0  0  0  0  0  0  0  0  0
  1  2  1  0
  2  3  1  0
  2  4  1  0
  4  5  2  0
  4  6  1  0
  6  7  2  0
  7  8  1  0
  8  9  2  0
  9 10  1  0
 10 11  1  0
 11 12  2  0
 11 13  2  0
 11 14  1  0
 14 15  2  0
 15 16  1  0
 16 17  2  0
 17 18  1  0
 18 19  2  0
  9 20  1  0
 20 21  2  0
 21  6  1  0
 19 14  1  0
  1 22  1  0
  1 23  1  0
  1 24  1  0
  3 25  1  0
  3 26  1  0
  3 27  1  0
  7 28  1  0
  8 29  1  0
 10 30  1  0
 15 31  1  0
 16 32  1  0
 17 33  1  0
 18 34  1  0
 19 35  1  0
 20 36  1  0
 21 37  1  0
M  END
>  <UniqueID>  (38) 
37

>  <SMILES>  (38) 
CN(C)C(=O)c1ccc(NS(=O)(=O)c2ccccc2)cc1

>  <Energy>  (38) 
43.03794854381666

>  <Genealogy>  (38) 
CN(C)C(=O)c1ccc(NS(=O)(=O)c2ccccc2)cc1 (3D coordinates assigned)
CN(C)C(=O)c1ccc(NS(=O)(=O)c2ccccc2)cc1 (optimized conformer: 43.03794854381666 kcal/mol)

>  <smiles>  (38) 
CN(C)C(=O)c1ccc(NS(=O)(=O)c2ccccc2)cc1

>  <score_type>  (38) 
oracle

>  <origin>  (38) 
adg

>  <m_score__min__energy>  (38) 
-7.9000000000000004

>  <m_primary>  (38) 
energy

$$$$
38:0
     RDKit          3D

 64 67  0  0  0  0  0  0  0  0999 V2000
   57.7550   32.3190   42.5410 C   0  0  0  0  0  0  0  0  0  0  0  0
   57.4460   33.3380   43.4860 O   0  0  0  0  0  0  0  0  0  0  0  0
   58.0770   33.4780   44.7310 C   0  0  0  0  0  0  0  0  0  0  0  0
   59.3320   34.0930   44.8740 C   0  0  0  0  0  0  0  0  0  0  0  0
   59.9290   34.1950   46.1340 C   0  0  0  0  0  0  0  0  0  0  0  0
   59.2870   33.6830   47.2690 C   0  0  0  0  0  0  0  0  0  0  0  0
   59.9330   33.7640   48.5920 C   0  0  0  0  0  0  0  0  0  0  0  0
   61.2710   33.8380   48.7670 N   0  0  0  0  0  0  0  0  0  0  0  0
   61.4160   33.8410   50.1040 C   0  0  0  0  0  0  0  0  0  0  0  0
   62.7310   33.9640   50.8110 C   0  0  0  0  0  0  0  0  0  0  0  0
   63.8130   32.5870   50.4470 S   0  0  0  0  0  0  0  0  0  0  0  0
   65.0870   33.0870   49.4710 O   0  0  0  0  0  0  0  0  0  0  0  0
   62.9940   31.1720   49.7100 C   0  0  0  0  0  0  0  0  0  0  0  0
   62.5650   31.4060   48.2840 C   0  0  0  0  0  0  0  0  0  0  0  0
   63.3630   31.9640   47.4840 O   0  0  0  0  0  0  0  0  0  0  0  0
   61.2620   30.9760   47.8190 N   0  0  0  0  0  0  0  0  0  0  0  0
   60.9430   30.9880   46.3810 C   0  0  0  0  0  0  0  0  0  0  0  0
   60.2290   29.6890   45.9870 C   0  0  0  0  0  0  0  0  0  0  0  0
   59.1880   29.3340   46.9570 N   0  0  0  0  0  0  0  0  0  0  0  0
   58.5460   28.0550   46.8630 C   0  0  0  0  0  0  0  0  0  0  0  0
   59.1260   26.9430   47.4910 C   0  0  0  0  0  0  0  0  0  0  0  0
   58.5150   25.6910   47.4130 C   0  0  0  0  0  0  0  0  0  0  0  0
   57.3180   25.5440   46.7130 C   0  0  0  0  0  0  0  0  0  0  0  0
   56.7300   26.6450   46.0860 C   0  0  0  0  0  0  0  0  0  0  0  0
   57.3370   27.9140   46.1590 C   0  0  0  0  0  0  0  0  0  0  0  0
   56.7620   29.0470   45.5620 O   0  0  0  0  0  0  0  0  0  0  0  0
   57.0260   29.4830   44.2330 C   0  0  0  0  0  0  0  0  0  0  0  0
   58.9120   30.2040   48.1030 C   0  0  0  0  0  0  0  0  0  0  0  0
   60.2280   30.5770   48.7920 C   0  0  0  0  0  0  0  0  0  0  0  0
   60.1640   33.8060   50.6860 C   0  0  0  0  0  0  0  0  0  0  0  0
   59.8420   33.7980   52.1430 C   0  0  0  0  0  0  0  0  0  0  0  0
   59.2730   33.7520   49.7290 O   0  0  0  0  0  0  0  0  0  0  0  0
   58.0330   33.0750   47.1270 C   0  0  0  0  0  0  0  0  0  0  0  0
   57.4300   32.9800   45.8680 C   0  0  0  0  0  0  0  0  0  0  0  0
   58.0343   31.3978   43.0733 H   0  0  0  0  0  0  0  0  0  0  0  0
   56.8752   32.1253   41.9098 H   0  0  0  0  0  0  0  0  0  0  0  0
   58.5942   32.6466   41.9098 H   0  0  0  0  0  0  0  0  0  0  0  0
   59.8476   34.4964   43.9900 H   0  0  0  0  0  0  0  0  0  0  0  0
   60.9106   34.6811   46.2350 H   0  0  0  0  0  0  0  0  0  0  0  0
   63.2209   34.8957   50.4918 H   0  0  0  0  0  0  0  0  0  0  0  0
   62.5375   33.9695   51.8938 H   0  0  0  0  0  0  0  0  0  0  0  0
   64.9710   32.5950   48.6200 H   0  0  0  0  0  0  0  0  0  0  0  0
   63.6871   30.3181   49.7302 H   0  0  0  0  0  0  0  0  0  0  0  0
   62.0832   30.9813   50.2966 H   0  0  0  0  0  0  0  0  0  0  0  0
   60.2880   31.8439   46.1611 H   0  0  0  0  0  0  0  0  0  0  0  0
   61.8771   31.0731   45.8064 H   0  0  0  0  0  0  0  0  0  0  0  0
   59.7662   29.8211   44.9979 H   0  0  0  0  0  0  0  0  0  0  0  0
   60.9725   28.8786   45.9656 H   0  0  0  0  0  0  0  0  0  0  0  0
   60.0675   27.0585   48.0479 H   0  0  0  0  0  0  0  0  0  0  0  0
   58.9769   24.8212   47.9030 H   0  0  0  0  0  0  0  0  0  0  0  0
   56.8351   24.5574   46.6544 H   0  0  0  0  0  0  0  0  0  0  0  0
   55.7878   26.5204   45.5322 H   0  0  0  0  0  0  0  0  0  0  0  0
   57.5956   30.4236   44.2620 H   0  0  0  0  0  0  0  0  0  0  0  0
   57.6115   28.7160   43.7050 H   0  0  0  0  0  0  0  0  0  0  0  0
   56.0750   29.6464   43.7050 H   0  0  0  0  0  0  0  0  0  0  0  0
   58.4083   31.1182   47.7559 H   0  0  0  0  0  0  0  0  0  0  0  0
   58.2629   29.6748   48.8161 H   0  0  0  0  0  0  0  0  0  0  0  0
   60.0444   31.4152   49.4803 H   0  0  0  0  0  0  0  0  0  0  0  0
   60.5925   29.6923   49.3346 H   0  0  0  0  0  0  0  0  0  0  0  0
   60.7752   33.8212   52.7249 H   0  0  0  0  0  0  0  0  0  0  0  0
   59.2344   34.6813   52.3891 H   0  0  0  0  0  0  0  0  0  0  0  0
   59.2790   32.8856   52.3891 H   0  0  0  0  0  0  0  0  0  0  0  0
   57.5190   32.6696   48.0110 H   0  0  0  0  0  0  0  0  0  0  0  0
   56.4400   32.5104   45.7710 H   0  0  0  0  0  0  0  0  0  0  0  0
  1  2  1  0
  2  3  1  0
  3  4  2  0
  4  5  1  0
  5  6  2  0
  6  7  1  0
  7  8  2  0
  8  9  1  0
  9 10  1  0
 10 11  1  0
 11 12  1  6
 11 13  1  0
 13 14  1  0
 14 15  2  0
 14 16  1  0
 16 17  1  0
 17 18  1  0
 18 19  1  0
 19 20  1  0
 20 21  2  0
 21 22  1  0
 22 23  2  0
 23 24  1  0
 24 25  2  0
 25 26  1  0
 26 27  1  0
 19 28  1  0
 28 29  1  0
  9 30  2  0
 30 31  1  0
 30 32  1  0
  6 33  1  0
 33 34  2  0
 34  3  1  0
 32  7  1  0
 29 16  1  0
 25 20  1  0
  1 35  1  0
  1 36  1  0
  1 37  1  0
  4 38  1  0
  5 39  1  0
 10 40  1  0
 10 41  1  0
 12 42  1  0
 13 43  1  0
 13 44  1  0
 17 45  1  0
 17 46  1  0
 18 47  1  0
 18 48  1  0
 21 49  1  0
 22 50  1  0
 23 51  1  0
 24 52  1  0
 27 53  1  0
 27 54  1  0
 27 55  1  0
 28 56  1  0
 28 57  1  0
 29 58  1  0
 29 59  1  0
 31 60  1  0
 31 61  1  0
 31 62  1  0
 33 63  1  0
 34 64  1  0
M  CHG  1  11   1
M  END
>  <UniqueID>  (39) 
38

>  <SMILES>  (39) 
COc1ccc(-c2nc(C[S@+](O)CC(=O)N3CCN(c4ccccc4OC)CC3)c(C)o2)cc1

>  <Energy>  (39) 
94.25845170996854

>  <Genealogy>  (39) 
COc1ccc(-c2nc(C[S+](O)CC(=O)N3CCN(c4ccccc4OC)CC3)c(C)o2)cc1 (protonated)
COc1ccc(-c2nc(C[S@+](O)CC(=O)N3CCN(c4ccccc4OC)CC3)c(C)o2)cc1 (chirality)
COc1ccc(-c2nc(C[S@+](O)CC(=O)N3CCN(c4ccccc4OC)CC3)c(C)o2)cc1 (3D coordinates assigned)
COc1ccc(-c2nc(C[S@+](O)CC(=O)N3CCN(c4ccccc4OC)CC3)c(C)o2)cc1 (nonaromatic ring conformer: 94.25845170996854 kcal/mol)

>  <smiles>  (39) 
COc1ccc(-c2nc(C[S+]([O-])CC(=O)N3CCN(c4ccccc4OC)CC3)c(C)o2)cc1

>  <score_type>  (39) 
oracle

>  <origin>  (39) 
adg

>  <m_score__min__energy>  (39) 
-6.5999999999999996

>  <m_primary>  (39) 
energy

$$$$
39:0
     RDKit          3D

 49 52  0  0  0  0  0  0  0  0999 V2000
   55.1810   29.7160   43.6890 C   0  0  0  0  0  0  0  0  0  0  0  0
   56.3070   30.1130   44.5490 N   0  0  0  0  0  0  0  0  0  0  0  0
   57.1760   28.9480   44.7930 C   0  0  0  0  0  0  0  0  0  0  0  0
   57.0650   31.2110   43.9140 C   0  0  0  0  0  0  0  0  0  0  0  0
   57.7240   32.0740   44.9580 C   0  0  0  0  0  0  0  0  0  0  0  0
   57.8620   33.4540   44.7420 C   0  0  0  0  0  0  0  0  0  0  0  0
   58.4580   34.2630   45.7130 C   0  0  0  0  0  0  0  0  0  0  0  0
   58.9120   33.7070   46.9190 C   0  0  0  0  0  0  0  0  0  0  0  0
   59.5920   34.5710   47.9460 C   0  0  0  0  0  0  0  0  0  0  0  0
   60.9800   34.1330   48.1330 N   0  0  0  0  0  0  0  0  0  0  0  0
   61.7230   33.7500   47.0300 C   0  0  0  0  0  0  0  0  0  0  0  0
   63.0700   33.3520   47.1510 C   0  0  0  0  0  0  0  0  0  0  0  0
   63.6120   33.3740   48.4230 C   0  0  0  0  0  0  0  0  0  0  0  0
   64.8430   33.0600   48.8390 N   0  0  0  0  0  0  0  0  0  0  0  0
   64.8140   33.2730   50.1880 C   0  0  0  0  0  0  0  0  0  0  0  0
   65.9730   33.0490   51.0900 C   0  0  0  0  0  0  0  0  0  0  0  0
   67.2890   33.3560   50.6860 C   0  0  0  0  0  0  0  0  0  0  0  0
   68.3640   33.1390   51.5530 C   0  0  0  0  0  0  0  0  0  0  0  0
   68.1430   32.6160   52.8300 C   0  0  0  0  0  0  0  0  0  0  0  0
   66.8460   32.3110   53.2430 C   0  0  0  0  0  0  0  0  0  0  0  0
   65.7660   32.5270   52.3800 C   0  0  0  0  0  0  0  0  0  0  0  0
   63.6060   33.7100   50.6500 N   0  0  0  0  0  0  0  0  0  0  0  0
   62.8510   33.7740   49.5420 C   0  0  0  0  0  0  0  0  0  0  0  0
   61.5290   34.1590   49.3940 C   0  0  0  0  0  0  0  0  0  0  0  0
   58.7820   32.3250   47.1310 C   0  0  0  0  0  0  0  0  0  0  0  0
   58.1860   31.5150   46.1600 C   0  0  0  0  0  0  0  0  0  0  0  0
   54.3288   29.4155   44.3162 H   0  0  0  0  0  0  0  0  0  0  0  0
   54.8876   30.5649   43.0539 H   0  0  0  0  0  0  0  0  0  0  0  0
   55.4849   28.8708   43.0539 H   0  0  0  0  0  0  0  0  0  0  0  0
   57.2895   28.7958   45.8765 H   0  0  0  0  0  0  0  0  0  0  0  0
   56.7236   28.0523   44.3423 H   0  0  0  0  0  0  0  0  0  0  0  0
   58.1635   29.1263   44.3423 H   0  0  0  0  0  0  0  0  0  0  0  0
   57.8377   30.7843   43.2575 H   0  0  0  0  0  0  0  0  0  0  0  0
   56.3688   31.8307   43.3298 H   0  0  0  0  0  0  0  0  0  0  0  0
   57.4994   33.9005   43.8044 H   0  0  0  0  0  0  0  0  0  0  0  0
   58.5720   35.3418   45.5311 H   0  0  0  0  0  0  0  0  0  0  0  0
   59.5831   35.6168   47.6052 H   0  0  0  0  0  0  0  0  0  0  0  0
   59.0550   34.4847   48.9021 H   0  0  0  0  0  0  0  0  0  0  0  0
   61.2517   33.7563   46.0361 H   0  0  0  0  0  0  0  0  0  0  0  0
   63.6605   33.0395   46.2771 H   0  0  0  0  0  0  0  0  0  0  0  0
   65.6290   32.7180   48.2440 H   0  0  0  0  0  0  0  0  0  0  0  0
   67.4706   33.7687   49.6826 H   0  0  0  0  0  0  0  0  0  0  0  0
   69.3871   33.3807   51.2290 H   0  0  0  0  0  0  0  0  0  0  0  0
   68.9913   32.4450   53.5090 H   0  0  0  0  0  0  0  0  0  0  0  0
   66.6720   31.9001   54.2484 H   0  0  0  0  0  0  0  0  0  0  0  0
   64.7457   32.2865   52.7132 H   0  0  0  0  0  0  0  0  0  0  0  0
   60.9334   34.4773   50.2623 H   0  0  0  0  0  0  0  0  0  0  0  0
   59.1510   31.8776   48.0657 H   0  0  0  0  0  0  0  0  0  0  0  0
   58.0786   30.4349   46.3386 H   0  0  0  0  0  0  0  0  0  0  0  0
  1  2  1  0
  2  3  1  0
  2  4  1  0
  4  5  1  0
  5  6  2  0
  6  7  1  0
  7  8  2  0
  8  9  1  0
  9 10  1  0
 10 11  1  0
 11 12  2  0
 12 13  1  0
 13 14  2  0
 14 15  1  0
 15 16  1  0
 16 17  2  0
 17 18  1  0
 18 19  2  0
 19 20  1  0
 20 21  2  0
 15 22  2  0
 22 23  1  0
 23 24  2  0
  8 25  1  0
 25 26  2  0
 26  5  1  0
 24 10  1  0
 23 13  1  0
 21 16  1  0
  1 27  1  0
  1 28  1  0
  1 29  1  0
  3 30  1  0
  3 31  1  0
  3 32  1  0
  4 33  1  0
  4 34  1  0
  6 35  1  0
  7 36  1  0
  9 37  1  0
  9 38  1  0
 11 39  1  0
 12 40  1  0
 14 41  1  0
 17 42  1  0
 18 43  1  0
 19 44  1  0
 20 45  1  0
 21 46  1  0
 24 47  1  0
 25 48  1  0
 26 49  1  0
M  CHG  1  14   1
M  END
>  <UniqueID>  (40) 
39

>  <SMILES>  (40) 
CN(C)Cc1ccc(Cn2ccc3[nH+]c(-c4ccccc4)nc-3c2)cc1

>  <Energy>  (40) 
92.40225961961075

>  <Genealogy>  (40) 
CN(C)Cc1ccc(Cn2ccc3[nH+]c(-c4ccccc4)nc-3c2)cc1 (protonated)
CN(C)Cc1ccc(Cn2ccc3[nH+]c(-c4ccccc4)nc-3c2)cc1 (3D coordinates assigned)
CN(C)Cc1ccc(Cn2ccc3[nH+]c(-c4ccccc4)nc-3c2)cc1 (optimized conformer: 92.40225961961075 kcal/mol)

>  <smiles>  (40) 
CN(C)Cc1ccc(Cn2ccc3nc(-c4ccccc4)nc-3c2)cc1

>  <score_type>  (40) 
oracle

>  <origin>  (40) 
adg

>  <m_score__min__energy>  (40) 
-7.3600000000000003

>  <m_primary>  (40) 
energy

$$$$
40:0
     RDKit          3D

 60 60  0  0  0  0  0  0  0  0999 V2000
   60.4180   27.8730   49.0200 C   0  0  0  0  0  0  0  0  0  0  0  0
   60.5520   29.0590   49.9700 C   0  0  0  0  0  0  0  0  0  0  0  0
   60.3270   30.3150   49.2440 N   0  0  0  0  0  0  0  0  0  0  0  0
   59.1910   30.1750   48.3240 C   0  0  0  0  0  0  0  0  0  0  0  0
   59.6140   30.5620   46.9010 C   0  0  0  0  0  0  0  0  0  0  0  0
   61.1440   30.7050   46.8020 C   0  0  0  0  0  0  0  0  0  0  0  0
   61.6830   31.6990   47.7490 N   0  0  0  0  0  0  0  0  0  0  0  0
   62.5620   32.6830   47.0910 C   0  0  0  0  0  0  0  0  0  0  0  0
   63.7310   33.1160   47.9990 C   0  0  0  0  0  0  0  0  0  0  0  0
   63.3350   33.5590   49.4230 C   0  0  0  0  0  0  0  0  0  0  0  0
   63.3440   32.4440   50.4800 C   0  0  0  0  0  0  0  0  0  0  0  0
   62.0420   31.7670   50.5540 N   0  0  0  0  0  0  0  0  0  0  0  0
   61.3620   32.0830   51.8190 C   0  0  0  0  0  0  0  0  0  0  0  0
   60.6450   33.4380   51.7360 C   0  0  0  0  0  0  0  0  0  0  0  0
   59.2830   33.3770   51.0250 C   0  0  0  0  0  0  0  0  0  0  0  0
   59.4620   33.0550   49.6000 N   0  0  0  0  0  0  0  0  0  0  0  0
   59.8590   34.2370   48.8260 C   0  0  0  0  0  0  0  0  0  0  0  0
   59.2200   34.2120   47.4630 C   0  0  0  0  0  0  0  0  0  0  0  0
   58.0400   33.4830   47.2360 C   0  0  0  0  0  0  0  0  0  0  0  0
   57.4470   33.4780   45.9650 C   0  0  0  0  0  0  0  0  0  0  0  0
   58.0360   34.1910   44.9180 C   0  0  0  0  0  0  0  0  0  0  0  0
   59.2140   34.9110   45.1350 C   0  0  0  0  0  0  0  0  0  0  0  0
   59.8050   34.9220   46.4020 C   0  0  0  0  0  0  0  0  0  0  0  0
   60.3133   26.9462   49.6031 H   0  0  0  0  0  0  0  0  0  0  0  0
   59.5296   28.0096   48.3859 H   0  0  0  0  0  0  0  0  0  0  0  0
   61.3145   27.8080   48.3859 H   0  0  0  0  0  0  0  0  0  0  0  0
   59.8084   28.9660   50.7752 H   0  0  0  0  0  0  0  0  0  0  0  0
   61.5661   29.0662   50.3960 H   0  0  0  0  0  0  0  0  0  0  0  0
   60.0800   31.0500   49.9500 H   0  0  0  0  0  0  0  0  0  0  0  0
   58.8450   29.1308   48.3294 H   0  0  0  0  0  0  0  0  0  0  0  0
   58.3785   30.8403   48.6515 H   0  0  0  0  0  0  0  0  0  0  0  0
   59.2792   29.7822   46.2012 H   0  0  0  0  0  0  0  0  0  0  0  0
   59.1537   31.5286   46.6483 H   0  0  0  0  0  0  0  0  0  0  0  0
   61.6037   29.7289   47.0162 H   0  0  0  0  0  0  0  0  0  0  0  0
   61.3813   31.0507   45.7851 H   0  0  0  0  0  0  0  0  0  0  0  0
   62.2300   31.1710   48.4650 H   0  0  0  0  0  0  0  0  0  0  0  0
   60.8990   32.1910   48.2350 H   0  0  0  0  0  0  0  0  0  0  0  0
   62.9724   32.2346   46.1742 H   0  0  0  0  0  0  0  0  0  0  0  0
   61.9607   33.5758   46.8644 H   0  0  0  0  0  0  0  0  0  0  0  0
   64.4238   32.2663   48.0884 H   0  0  0  0  0  0  0  0  0  0  0  0
   64.1753   34.0006   47.5193 H   0  0  0  0  0  0  0  0  0  0  0  0
   64.0401   34.3394   49.7453 H   0  0  0  0  0  0  0  0  0  0  0  0
   62.2941   33.9085   49.3561 H   0  0  0  0  0  0  0  0  0  0  0  0
   64.1166   31.7067   50.2163 H   0  0  0  0  0  0  0  0  0  0  0  0
   63.5558   32.8967   51.4599 H   0  0  0  0  0  0  0  0  0  0  0  0
   61.4410   32.1520   49.7910 H   0  0  0  0  0  0  0  0  0  0  0  0
   60.6228   31.2978   52.0357 H   0  0  0  0  0  0  0  0  0  0  0  0
   62.1160   32.1344   52.6183 H   0  0  0  0  0  0  0  0  0  0  0  0
   60.4858   33.8093   52.7591 H   0  0  0  0  0  0  0  0  0  0  0  0
   61.2872   34.1043   51.1414 H   0  0  0  0  0  0  0  0  0  0  0  0
   58.6623   32.6010   51.4967 H   0  0  0  0  0  0  0  0  0  0  0  0
   58.7918   34.3575   51.1103 H   0  0  0  0  0  0  0  0  0  0  0  0
   60.2360   32.3550   49.5170 H   0  0  0  0  0  0  0  0  0  0  0  0
   59.5386   35.1439   49.3597 H   0  0  0  0  0  0  0  0  0  0  0  0
   60.9525   34.2343   48.7070 H   0  0  0  0  0  0  0  0  0  0  0  0
   57.5801   32.9146   48.0578 H   0  0  0  0  0  0  0  0  0  0  0  0
   56.5189   32.9132   45.7928 H   0  0  0  0  0  0  0  0  0  0  0  0
   57.5717   34.1857   43.9208 H   0  0  0  0  0  0  0  0  0  0  0  0
   59.6767   35.4696   44.3081 H   0  0  0  0  0  0  0  0  0  0  0  0
   60.7325   35.4894   46.5685 H   0  0  0  0  0  0  0  0  0  0  0  0
  1  2  1  0
  2  3  1  0
  3  4  1  0
  4  5  1  0
  5  6  1  0
  6  7  1  0
  7  8  1  0
  8  9  1  0
  9 10  1  0
 10 11  1  0
 11 12  1  0
 12 13  1  0
 13 14  1  0
 14 15  1  0
 15 16  1  0
 16 17  1  0
 17 18  1  0
 18 19  2  0
 19 20  1  0
 20 21  2  0
 21 22  1  0
 22 23  2  0
 23 18  1  0
  1 24  1  0
  1 25  1  0
  1 26  1  0
  2 27  1  0
  2 28  1  0
  3 29  1  0
  4 30  1  0
  4 31  1  0
  5 32  1  0
  5 33  1  0
  6 34  1  0
  6 35  1  0
  7 36  1  0
  7 37  1  0
  8 38  1  0
  8 39  1  0
  9 40  1  0
  9 41  1  0
 10 42  1  0
 10 43  1  0
 11 44  1  0
 11 45  1  0
 12 46  1  0
 13 47  1  0
 13 48  1  0
 14 49  1  0
 14 50  1  0
 15 51  1  0
 15 52  1  0
 16 53  1  0
 17 54  1  0
 17 55  1  0
 19 56  1  0
 20 57  1  0
 21 58  1  0
 22 59  1  0
 23 60  1  0
M  CHG  1   7   1
M  END
>  <UniqueID>  (41) 
40

>  <SMILES>  (41) 
CCNCCC[NH2+]CCCCNCCCNCc1ccccc1

>  <Energy>  (41) 
42.67114064965057

>  <Genealogy>  (41) 
CCNCCC[NH2+]CCCCNCCCNCc1ccccc1 (protonated)
CCNCCC[NH2+]CCCCNCCCNCc1ccccc1 (3D coordinates assigned)
CCNCCC[NH2+]CCCCNCCCNCc1ccccc1 (optimized conformer: 42.67114064965057 kcal/mol)

>  <smiles>  (41) 
CCNCCCNCCCCNCCCNCc1ccccc1

>  <score_type>  (41) 
oracle

>  <origin>  (41) 
adg

>  <m_score__min__energy>  (41) 
-2.5699999999999998

>  <m_primary>  (41) 
energy

$$$$
41:0
     RDKit          3D

 44 47  0  0  0  0  0  0  0  0999 V2000
   55.9640   30.0900   45.6040 H   0  0  0  0  0  0  0  0  0  0  0  0
   55.6660   30.5870   44.7980 O   0  0  0  0  0  0  0  0  0  0  0  0
   56.7110   30.5230   43.8600 C   0  0  2  0  0  0  0  0  0  0  0  0
   56.4546   30.9721   42.8891 H   0  0  0  0  0  0  0  0  0  0  0  0
   57.0120   29.0300   43.5470 C   0  0  0  0  0  0  0  0  0  0  0  0
   56.0550   28.5084   43.3984 H   0  0  0  0  0  0  0  0  0  0  0  0
   57.6473   29.0158   42.6491 H   0  0  0  0  0  0  0  0  0  0  0  0
   57.7780   28.3150   44.6340 C   0  0  0  0  0  0  0  0  0  0  0  0
   57.0930   27.5960   45.6290 C   0  0  0  0  0  0  0  0  0  0  0  0
   55.9935   27.5626   45.6209 H   0  0  0  0  0  0  0  0  0  0  0  0
   57.8020   26.9230   46.6290 C   0  0  0  0  0  0  0  0  0  0  0  0
   57.2592   26.3764   47.4142 H   0  0  0  0  0  0  0  0  0  0  0  0
   59.1980   26.9440   46.6320 C   0  0  0  0  0  0  0  0  0  0  0  0
   59.7540   26.4193   47.4229 H   0  0  0  0  0  0  0  0  0  0  0  0
   59.8890   27.6310   45.6310 C   0  0  0  0  0  0  0  0  0  0  0  0
   60.9890   27.6405   45.6298 H   0  0  0  0  0  0  0  0  0  0  0  0
   59.1830   28.3070   44.6300 C   0  0  0  0  0  0  0  0  0  0  0  0
   59.7308   28.8350   43.8356 H   0  0  0  0  0  0  0  0  0  0  0  0
   57.9050   31.3560   44.4130 C   0  0  1  0  0  0  0  0  0  0  0  0
   58.7621   30.6923   44.2262 H   0  0  0  0  0  0  0  0  0  0  0  0
   58.0980   32.6960   43.7240 C   0  0  0  0  0  0  0  0  0  0  0  0
   57.4754   32.7471   42.8186 H   0  0  0  0  0  0  0  0  0  0  0  0
   59.1474   32.8324   43.4238 H   0  0  0  0  0  0  0  0  0  0  0  0
   57.7070   33.6920   44.6330 O   0  0  0  0  0  0  0  0  0  0  0  0
   57.6610   33.0890   45.9130 C   0  0  2  0  0  0  0  0  0  0  0  0
   56.7580   33.5339   46.3564 H   0  0  0  0  0  0  0  0  0  0  0  0
   58.9410   33.2220   46.6270 C   0  0  0  0  0  0  0  0  0  0  0  0
   59.6440   34.2350   47.1340 C   0  0  0  0  0  0  0  0  0  0  0  0
   59.1622   35.2215   47.2027 H   0  0  0  0  0  0  0  0  0  0  0  0
   61.0360   34.1010   47.6080 C   0  0  0  0  0  0  0  0  0  0  0  0
   62.0440   33.7850   46.6840 C   0  0  0  0  0  0  0  0  0  0  0  0
   61.7911   33.6570   45.6211 H   0  0  0  0  0  0  0  0  0  0  0  0
   63.3680   33.6320   47.1070 C   0  0  0  0  0  0  0  0  0  0  0  0
   64.1550   33.3988   46.3747 H   0  0  0  0  0  0  0  0  0  0  0  0
   63.6930   33.7750   48.4590 C   0  0  0  0  0  0  0  0  0  0  0  0
   64.7362   33.6626   48.7893 H   0  0  0  0  0  0  0  0  0  0  0  0
   62.6910   34.0610   49.3910 C   0  0  0  0  0  0  0  0  0  0  0  0
   62.9451   34.1643   50.4563 H   0  0  0  0  0  0  0  0  0  0  0  0
   61.3660   34.2160   48.9710 C   0  0  0  0  0  0  0  0  0  0  0  0
   60.5787   34.4287   49.7092 H   0  0  0  0  0  0  0  0  0  0  0  0
   59.0230   31.6920   46.5330 C   0  0  0  0  0  0  0  0  0  0  0  0
   59.8300   30.8080   46.9250 O   0  0  0  0  0  0  0  0  0  0  0  0
   57.7610   31.6840   45.8300 N   0  0  2  0  0  0  0  0  0  0  0  0
   57.0300   31.1650   46.3710 H   0  0  0  0  0  0  0  0  0  0  0  0
  1  2  1  0
  2  3  1  0
  3  4  1  6
  3  5  1  0
  5  6  1  0
  5  7  1  0
  5  8  1  0
  8  9  2  0
  9 10  1  0
  9 11  1  0
 11 12  1  0
 11 13  2  0
 13 14  1  0
 13 15  1  0
 15 16  1  0
 15 17  2  0
 17 18  1  0
  3 19  1  0
 19 20  1  1
 19 21  1  0
 21 22  1  0
 21 23  1  0
 21 24  1  0
 24 25  1  0
 25 26  1  1
 25 27  1  0
 27 28  2  0
 28 29  1  0
 28 30  1  0
 30 31  2  0
 31 32  1  0
 31 33  1  0
 33 34  1  0
 33 35  2  0
 35 36  1  0
 35 37  1  0
 37 38  1  0
 37 39  2  0
 39 40  1  0
 27 41  1  0
 41 42  2  0
 41 43  1  0
 43 44  1  1
 17  8  1  0
 43 19  1  0
 43 25  1  0
 39 30  1  0
M  CHG  1  43   1
M  END
>  <UniqueID>  (42) 
41

>  <SMILES>  (42) 
O=C1/C(=C\c2ccccc2)[C@H]2OC[C@H](C(O)Cc3ccccc3)[NH+]12

>  <Energy>  (42) 
83.22026178274453

>  <Genealogy>  (42) 
O=C1C(=Cc2ccccc2)C2OCC(C(O)Cc3ccccc3)[NH+]12 (protonated)
O=C1C(=Cc2ccccc2)[C@H]2OC[C@H](C(O)Cc3ccccc3)[NH+]12 (chirality)
O=C1/C(=C\c2ccccc2)[C@H]2OC[C@H](C(O)Cc3ccccc3)[NH+]12 (cis-trans isomerization)
O=C1/C(=C\c2ccccc2)[C@H]2OC[C@H](C(O)Cc3ccccc3)[NH+]12 (3D coordinates assigned)
O=C1/C(=C\c2ccccc2)[C@H]2OC[C@H](C(O)Cc3ccccc3)[NH+]12 (nonaromatic ring conformer: 83.22026178274453 kcal/mol)

>  <smiles>  (42) 
O=C1C(=Cc2ccccc2)C2OCC(C([O-])Cc3ccccc3)N12

>  <score_type>  (42) 
oracle

>  <origin>  (42) 
adg

>  <m_score__min__energy>  (42) 
-7.5199999999999996

>  <m_primary>  (42) 
energy

$$$$
42:0
     RDKit          3D

 39 41  0  0  0  0  0  0  0  0999 V2000
   59.5360   34.6140   46.8970 C   0  0  0  0  0  0  0  0  0  0  0  0
   58.8830   33.5370   46.1300 N   0  0  0  0  0  0  0  0  0  0  0  0
   58.2560   32.5060   46.7900 C   0  0  0  0  0  0  0  0  0  0  0  0
   58.3230   32.3410   48.5850 S   0  0  0  0  0  0  0  0  0  0  0  0
   60.0910   31.8770   48.6550 C   0  0  0  0  0  0  0  0  0  0  0  0
   60.2970   30.4170   48.3960 C   0  0  0  0  0  0  0  0  0  0  0  0
   61.4700   29.9570   48.3300 O   0  0  0  0  0  0  0  0  0  0  0  0
   59.1650   29.5630   48.1970 N   0  0  0  0  0  0  0  0  0  0  0  0
   58.8680   28.8310   46.9990 C   0  0  0  0  0  0  0  0  0  0  0  0
   59.6200   29.0890   45.8480 C   0  0  0  0  0  0  0  0  0  0  0  0
   59.3440   28.4130   44.6580 C   0  0  0  0  0  0  0  0  0  0  0  0
   58.3020   27.4850   44.6030 C   0  0  0  0  0  0  0  0  0  0  0  0
   57.5140   27.2310   45.7390 C   0  0  0  0  0  0  0  0  0  0  0  0
   56.4190   26.2970   45.6800 N   0  0  0  0  0  0  0  0  0  0  0  0
   56.6090   25.1150   45.3280 O   0  0  0  0  0  0  0  0  0  0  0  0
   55.1430   26.6950   46.0060 O   0  0  0  0  0  0  0  0  0  0  0  0
   57.8030   27.9110   46.9350 C   0  0  0  0  0  0  0  0  0  0  0  0
   57.5710   31.5640   46.0940 N   0  0  0  0  0  0  0  0  0  0  0  0
   57.4930   31.5930   44.7430 C   0  0  0  0  0  0  0  0  0  0  0  0
   56.7870   30.5960   44.0600 C   0  0  0  0  0  0  0  0  0  0  0  0
   56.7080   30.6250   42.6670 C   0  0  0  0  0  0  0  0  0  0  0  0
   57.3330   31.6500   41.9500 C   0  0  0  0  0  0  0  0  0  0  0  0
   58.0410   32.6490   42.6250 C   0  0  0  0  0  0  0  0  0  0  0  0
   58.1260   32.6270   44.0310 C   0  0  0  0  0  0  0  0  0  0  0  0
   58.8160   33.6110   44.7590 C   0  0  0  0  0  0  0  0  0  0  0  0
   59.3660   34.5670   44.1430 O   0  0  0  0  0  0  0  0  0  0  0  0
   59.4187   34.4205   47.9735 H   0  0  0  0  0  0  0  0  0  0  0  0
   60.6062   34.6468   46.6448 H   0  0  0  0  0  0  0  0  0  0  0  0
   59.0702   35.5781   46.6448 H   0  0  0  0  0  0  0  0  0  0  0  0
   60.6400   32.4535   47.8959 H   0  0  0  0  0  0  0  0  0  0  0  0
   60.4612   32.0987   49.6668 H   0  0  0  0  0  0  0  0  0  0  0  0
   60.4335   29.8287   45.8807 H   0  0  0  0  0  0  0  0  0  0  0  0
   59.9491   28.6120   43.7612 H   0  0  0  0  0  0  0  0  0  0  0  0
   58.0965   26.9492   43.6645 H   0  0  0  0  0  0  0  0  0  0  0  0
   57.1915   27.7229   47.8298 H   0  0  0  0  0  0  0  0  0  0  0  0
   56.2940   29.7889   44.6217 H   0  0  0  0  0  0  0  0  0  0  0  0
   56.1531   29.8402   42.1321 H   0  0  0  0  0  0  0  0  0  0  0  0
   57.2675   31.6704   40.8521 H   0  0  0  0  0  0  0  0  0  0  0  0
   58.5322   33.4531   42.0575 H   0  0  0  0  0  0  0  0  0  0  0  0
  1  2  1  0
  2  3  1  0
  3  4  1  0
  4  5  1  0
  5  6  1  0
  6  7  2  0
  6  8  1  0
  8  9  1  0
  9 10  2  0
 10 11  1  0
 11 12  2  0
 12 13  1  0
 13 14  1  0
 14 15  2  0
 14 16  1  0
 13 17  2  0
  3 18  2  0
 18 19  1  0
 19 20  2  0
 20 21  1  0
 21 22  2  0
 22 23  1  0
 23 24  2  0
 24 25  1  0
 25 26  2  0
 25  2  1  0
 17  9  1  0
 24 19  1  0
  1 27  1  0
  1 28  1  0
  1 29  1  0
  5 30  1  0
  5 31  1  0
 10 32  1  0
 11 33  1  0
 12 34  1  0
 17 35  1  0
 20 36  1  0
 21 37  1  0
 22 38  1  0
 23 39  1  0
M  CHG  3   8  -1  14   1  16  -1
M  END
>  <UniqueID>  (43) 
42

>  <SMILES>  (43) 
Cn1c(SCC(=O)[N-]c2cccc([N+](=O)[O-])c2)nc2ccccc2c1=O

>  <Energy>  (43) 
48.80449261832983

>  <Genealogy>  (43) 
Cn1c(SCC(=O)[N-]c2cccc([N+](=O)[O-])c2)nc2ccccc2c1=O (protonated)
Cn1c(SCC(=O)[N-]c2cccc([N+](=O)[O-])c2)nc2ccccc2c1=O (3D coordinates assigned)
Cn1c(SCC(=O)[N-]c2cccc([N+](=O)[O-])c2)nc2ccccc2c1=O (optimized conformer: 48.80449261832983 kcal/mol)

>  <smiles>  (43) 
Cn1c(SCC(=O)Nc2cccc([N+](=O)[O-])c2)nc2ccccc2c1=O

>  <score_type>  (43) 
oracle

>  <origin>  (43) 
adg

>  <m_score__min__energy>  (43) 
-10.390000000000001

>  <m_primary>  (43) 
energy

$$$$
43:0
     RDKit          3D

 35 37  0  0  0  0  0  0  0  0999 V2000
   59.8370   29.6250   45.1420 C   0  0  0  0  0  0  0  0  0  0  0  0
   59.9650   29.2250   46.5630 C   0  0  0  0  0  0  0  0  0  0  0  0
   59.4960   27.9860   46.9590 C   0  0  0  0  0  0  0  0  0  0  0  0
   59.6190   27.6210   48.2650 C   0  0  0  0  0  0  0  0  0  0  0  0
   60.1950   28.4440   49.2130 C   0  0  0  0  0  0  0  0  0  0  0  0
   60.6740   29.6910   48.8420 C   0  0  0  0  0  0  0  0  0  0  0  0
   60.5410   30.0420   47.5190 C   0  0  0  0  0  0  0  0  0  0  0  0
   61.0530   31.3330   47.1360 N   0  0  0  0  0  0  0  0  0  0  0  0
   60.2950   32.4530   47.5840 C   0  0  0  0  0  0  0  0  0  0  0  0
   59.2460   32.2100   48.2730 O   0  0  0  0  0  0  0  0  0  0  0  0
   60.6130   33.8530   47.3270 C   0  0  0  0  0  0  0  0  0  0  0  0
   59.2730   34.7220   46.4430 S   0  0  0  0  0  0  0  0  0  0  0  0
   58.5070   33.4950   45.3700 C   0  0  0  0  0  0  0  0  0  0  0  0
   58.5420   33.4010   44.0360 N   0  0  0  0  0  0  0  0  0  0  0  0
   57.8040   32.2970   43.7090 C   0  0  0  0  0  0  0  0  0  0  0  0
   57.4610   31.6790   42.5270 C   0  0  0  0  0  0  0  0  0  0  0  0
   56.6660   30.5380   42.5080 C   0  0  0  0  0  0  0  0  0  0  0  0
   56.2240   30.0310   43.7160 C   0  0  0  0  0  0  0  0  0  0  0  0
   56.5500   30.6170   44.8770 N   0  0  0  0  0  0  0  0  0  0  0  0
   57.3200   31.7220   44.8750 C   0  0  0  0  0  0  0  0  0  0  0  0
   57.7670   32.4810   45.8960 N   0  0  0  0  0  0  0  0  0  0  0  0
   59.5022   30.6712   45.0843 H   0  0  0  0  0  0  0  0  0  0  0  0
   60.8123   29.5241   44.6434 H   0  0  0  0  0  0  0  0  0  0  0  0
   59.1015   28.9766   44.6434 H   0  0  0  0  0  0  0  0  0  0  0  0
   59.0308   27.3058   46.2303 H   0  0  0  0  0  0  0  0  0  0  0  0
   59.2459   26.6343   48.5766 H   0  0  0  0  0  0  0  0  0  0  0  0
   60.2734   28.1112   50.2585 H   0  0  0  0  0  0  0  0  0  0  0  0
   61.1393   30.3689   49.5727 H   0  0  0  0  0  0  0  0  0  0  0  0
   61.9060   31.4750   46.5790 H   0  0  0  0  0  0  0  0  0  0  0  0
   60.7867   34.3578   48.2888 H   0  0  0  0  0  0  0  0  0  0  0  0
   61.5083   33.8811   46.6886 H   0  0  0  0  0  0  0  0  0  0  0  0
   57.8240   32.0972   41.5766 H   0  0  0  0  0  0  0  0  0  0  0  0
   56.3964   30.0525   41.5585 H   0  0  0  0  0  0  0  0  0  0  0  0
   55.5931   29.1300   43.7247 H   0  0  0  0  0  0  0  0  0  0  0  0
   57.5750   32.3050   46.9210 H   0  0  0  0  0  0  0  0  0  0  0  0
  1  2  1  0
  2  3  2  0
  3  4  1  0
  4  5  2  0
  5  6  1  0
  6  7  2  0
  7  8  1  0
  8  9  1  0
  9 10  2  0
  9 11  1  0
 11 12  1  0
 12 13  1  0
 13 14  2  0
 14 15  1  0
 15 16  2  0
 16 17  1  0
 17 18  2  0
 18 19  1  0
 19 20  2  0
 20 21  1  0
  7  2  1  0
 21 13  1  0
 20 15  1  0
  1 22  1  0
  1 23  1  0
  1 24  1  0
  3 25  1  0
  4 26  1  0
  5 27  1  0
  6 28  1  0
  8 29  1  0
 11 30  1  0
 11 31  1  0
 16 32  1  0
 17 33  1  0
 18 34  1  0
 21 35  1  0
M  END
>  <smiles>  (44) 
Cc1ccccc1NC(=O)CSc1nc2cccnc2[nH]1

>  <score_type>  (44) 
oracle

>  <origin>  (44) 
adg

>  <m_score__min__energy>  (44) 
-7.71

>  <m_primary>  (44) 
energy

$$$$
