0:0
     RDKit          3D

 43 44  0  0  0  0  0  0  0  0999 V2000
   56.9330   30.7100   43.0420 C   0  0  0  0  0  0  0  0  0  0  0  0
   56.2890   30.8740   44.4200 C   0  0  0  0  0  0  0  0  0  0  0  0
   55.9420   29.5710   45.0120 N   0  0  0  0  0  0  0  0  0  0  0  0
   57.0630   28.6120   45.0170 C   0  0  0  0  0  0  0  0  0  0  0  0
   58.1890   28.9970   46.0280 C   0  0  0  0  0  0  0  0  0  0  0  0
   59.4460   29.5470   45.3030 C   0  0  0  0  0  0  0  0  0  0  0  0
   60.7360   29.4220   46.1390 C   0  0  0  0  0  0  0  0  0  0  0  0
   60.4340   29.3310   47.5750 N   0  0  0  0  0  0  0  0  0  0  0  0
   61.0580   30.1990   48.5410 C   0  0  0  0  0  0  0  0  0  0  0  0
   61.3040   29.7620   49.6980 O   0  0  0  0  0  0  0  0  0  0  0  0
   61.4030   31.6310   48.2220 C   0  0  0  0  0  0  0  0  0  0  0  0
   60.3150   32.2970   47.4150 C   0  0  0  0  0  0  0  0  0  0  0  0
   58.9610   32.0560   47.7100 C   0  0  0  0  0  0  0  0  0  0  0  0
   57.9550   32.6620   46.9540 C   0  0  0  0  0  0  0  0  0  0  0  0
   58.2890   33.5250   45.9040 C   0  0  0  0  0  0  0  0  0  0  0  0
   57.0250   34.2580   44.9370 Cl  0  0  0  0  0  0  0  0  0  0  0  0
   59.6340   33.7800   45.6120 C   0  0  0  0  0  0  0  0  0  0  0  0
   60.6430   33.1740   46.3670 C   0  0  0  0  0  0  0  0  0  0  0  0
   59.5270   28.2740   48.0460 C   0  0  0  0  0  0  0  0  0  0  0  0
   58.5740   27.8090   46.9320 C   0  0  0  0  0  0  0  0  0  0  0  0
   57.9926   30.4402   43.1622 H   0  0  0  0  0  0  0  0  0  0  0  0
   56.4131   29.9156   42.4865 H   0  0  0  0  0  0  0  0  0  0  0  0
   56.8564   31.6563   42.4865 H   0  0  0  0  0  0  0  0  0  0  0  0
   56.9953   31.3921   45.0853 H   0  0  0  0  0  0  0  0  0  0  0  0
   55.3636   31.4567   44.3014 H   0  0  0  0  0  0  0  0  0  0  0  0
   55.6230   29.7230   45.9980 H   0  0  0  0  0  0  0  0  0  0  0  0
   56.6740   27.6190   45.2866 H   0  0  0  0  0  0  0  0  0  0  0  0
   57.5071   28.6189   44.0107 H   0  0  0  0  0  0  0  0  0  0  0  0
   57.7809   29.7958   46.6647 H   0  0  0  0  0  0  0  0  0  0  0  0
   59.5816   28.9870   44.3660 H   0  0  0  0  0  0  0  0  0  0  0  0
   59.2761   30.6190   45.1244 H   0  0  0  0  0  0  0  0  0  0  0  0
   61.2781   28.5166   45.8286 H   0  0  0  0  0  0  0  0  0  0  0  0
   61.3489   30.3194   45.9688 H   0  0  0  0  0  0  0  0  0  0  0  0
   61.5388   32.1839   49.1632 H   0  0  0  0  0  0  0  0  0  0  0  0
   62.3275   31.6381   47.6259 H   0  0  0  0  0  0  0  0  0  0  0  0
   58.6929   31.3866   48.5407 H   0  0  0  0  0  0  0  0  0  0  0  0
   56.8984   32.4606   47.1842 H   0  0  0  0  0  0  0  0  0  0  0  0
   59.8977   34.4583   44.7872 H   0  0  0  0  0  0  0  0  0  0  0  0
   61.6984   33.3847   46.1396 H   0  0  0  0  0  0  0  0  0  0  0  0
   60.1250   27.4155   48.3858 H   0  0  0  0  0  0  0  0  0  0  0  0
   58.9217   28.6812   48.8693 H   0  0  0  0  0  0  0  0  0  0  0  0
   59.0727   27.0383   46.3259 H   0  0  0  0  0  0  0  0  0  0  0  0
   57.6625   27.3968   47.3893 H   0  0  0  0  0  0  0  0  0  0  0  0
  1  2  1  0
  2  3  1  0
  3  4  1  0
  4  5  1  0
  5  6  1  0
  6  7  1  0
  7  8  1  0
  8  9  1  0
  9 10  2  0
  9 11  1  0
 11 12  1  0
 12 13  2  0
 13 14  1  0
 14 15  2  0
 15 16  1  0
 15 17  1  0
 17 18  2  0
  8 19  1  0
 19 20  1  0
 20  5  1  0
 18 12  1  0
  1 21  1  0
  1 22  1  0
  1 23  1  0
  2 24  1  0
  2 25  1  0
  3 26  1  0
  4 27  1  0
  4 28  1  0
  5 29  1  0
  6 30  1  0
  6 31  1  0
  7 32  1  0
  7 33  1  0
 11 34  1  0
 11 35  1  0
 13 36  1  0
 14 37  1  0
 17 38  1  0
 18 39  1  0
 19 40  1  0
 19 41  1  0
 20 42  1  0
 20 43  1  0
M  END
>  <UniqueID>  (1) 
1

>  <SMILES>  (1) 
CCNCC1CCN(C(=O)Cc2ccc(Cl)cc2)CC1

>  <Energy>  (1) 
43.05959783002049

>  <Genealogy>  (1) 
CCNCC1CCN(C(=O)Cc2ccc(Cl)cc2)CC1 (3D coordinates assigned)
CCNCC1CCN(C(=O)Cc2ccc(Cl)cc2)CC1 (nonaromatic ring conformer: 43.05959783002049 kcal/mol)

>  <smiles>  (1) 
CCNCC1CCN(C(=O)Cc2ccc(Cl)cc2)CC1

>  <score_type>  (1) 
oracle

>  <origin>  (1) 
adg

>  <m_score__min__energy>  (1) 
-7.0199999999999996

>  <m_primary>  (1) 
energy

$$$$
1:0
     RDKit          3D

 51 52  0  0  0  0  0  0  0  0999 V2000
   64.9060   32.7190   49.6150 C   0  0  0  0  0  0  0  0  0  0  0  0
   63.4660   32.4880   49.1640 C   0  0  0  0  0  0  0  0  0  0  0  0
   63.4400   31.9340   47.7900 N   0  0  0  0  0  0  0  0  0  0  0  0
   63.7510   32.9780   46.7870 C   0  0  0  0  0  0  0  0  0  0  0  0
   62.5200   33.8400   46.5210 C   0  0  0  0  0  0  0  0  0  0  0  0
   62.1420   31.2810   47.5000 C   0  0  0  0  0  0  0  0  0  0  0  0
   61.3470   31.0920   48.7950 C   0  0  0  0  0  0  0  0  0  0  0  0
   59.9900   31.4920   48.6130 O   0  0  0  0  0  0  0  0  0  0  0  0
   59.6100   32.7770   48.2060 C   0  0  0  0  0  0  0  0  0  0  0  0
   59.8200   33.7680   48.9610 O   0  0  0  0  0  0  0  0  0  0  0  0
   58.9580   32.9720   46.8930 C   0  0  0  0  0  0  0  0  0  0  0  0
   59.2010   34.1300   46.1340 C   0  0  0  0  0  0  0  0  0  0  0  0
   58.5740   34.3110   44.9000 C   0  0  0  0  0  0  0  0  0  0  0  0
   57.7060   33.3360   44.4020 C   0  0  0  0  0  0  0  0  0  0  0  0
   57.4690   32.1610   45.1360 C   0  0  0  0  0  0  0  0  0  0  0  0
   56.5670   31.1450   44.6730 N   0  0  0  0  0  0  0  0  0  0  0  0
   56.6550   29.7380   44.9380 C   0  0  0  0  0  0  0  0  0  0  0  0
   55.6230   29.0150   44.8640 O   0  0  0  0  0  0  0  0  0  0  0  0
   57.9680   29.1220   45.2470 C   0  0  0  0  0  0  0  0  0  0  0  0
   59.0960   29.4080   44.4580 C   0  0  0  0  0  0  0  0  0  0  0  0
   60.3300   28.8200   44.7460 C   0  0  0  0  0  0  0  0  0  0  0  0
   60.4570   27.9460   45.8270 C   0  0  0  0  0  0  0  0  0  0  0  0
   59.3480   27.6620   46.6380 C   0  0  0  0  0  0  0  0  0  0  0  0
   59.4750   26.6930   47.7760 C   0  0  0  0  0  0  0  0  0  0  0  0
   58.1040   28.2400   46.3360 C   0  0  0  0  0  0  0  0  0  0  0  0
   58.0820   31.9960   46.3850 C   0  0  0  0  0  0  0  0  0  0  0  0
   64.9493   32.7260   50.7141 H   0  0  0  0  0  0  0  0  0  0  0  0
   65.5454   31.9119   49.2279 H   0  0  0  0  0  0  0  0  0  0  0  0
   65.2609   33.6856   49.2279 H   0  0  0  0  0  0  0  0  0  0  0  0
   62.9801   31.7789   49.8504 H   0  0  0  0  0  0  0  0  0  0  0  0
   62.9299   33.4485   49.1727 H   0  0  0  0  0  0  0  0  0  0  0  0
   64.5646   33.6142   47.1656 H   0  0  0  0  0  0  0  0  0  0  0  0
   64.0578   32.4928   45.8487 H   0  0  0  0  0  0  0  0  0  0  0  0
   62.0762   34.1508   47.4783 H   0  0  0  0  0  0  0  0  0  0  0  0
   62.8135   34.7310   45.9465 H   0  0  0  0  0  0  0  0  0  0  0  0
   61.7831   33.2596   45.9465 H   0  0  0  0  0  0  0  0  0  0  0  0
   61.5646   31.9109   46.8073 H   0  0  0  0  0  0  0  0  0  0  0  0
   62.3278   30.2970   47.0448 H   0  0  0  0  0  0  0  0  0  0  0  0
   61.3756   30.0314   49.0854 H   0  0  0  0  0  0  0  0  0  0  0  0
   61.7979   31.7140   49.5823 H   0  0  0  0  0  0  0  0  0  0  0  0
   59.8897   34.8985   46.5149 H   0  0  0  0  0  0  0  0  0  0  0  0
   58.7640   35.2246   44.3176 H   0  0  0  0  0  0  0  0  0  0  0  0
   57.2071   33.4882   43.4335 H   0  0  0  0  0  0  0  0  0  0  0  0
   59.0062   30.0999   43.6076 H   0  0  0  0  0  0  0  0  0  0  0  0
   61.2047   29.0465   44.1187 H   0  0  0  0  0  0  0  0  0  0  0  0
   61.4290   27.4788   46.0435 H   0  0  0  0  0  0  0  0  0  0  0  0
   59.4038   27.2363   48.7298 H   0  0  0  0  0  0  0  0  0  0  0  0
   58.6666   25.9494   47.7163 H   0  0  0  0  0  0  0  0  0  0  0  0
   60.4477   26.1828   47.7163 H   0  0  0  0  0  0  0  0  0  0  0  0
   57.2275   28.0013   46.9563 H   0  0  0  0  0  0  0  0  0  0  0  0
   57.8755   31.0915   46.9759 H   0  0  0  0  0  0  0  0  0  0  0  0
  1  2  1  0
  2  3  1  0
  3  4  1  0
  4  5  1  0
  3  6  1  0
  6  7  1  0
  7  8  1  0
  8  9  1  0
  9 10  2  0
  9 11  1  0
 11 12  2  0
 12 13  1  0
 13 14  2  0
 14 15  1  0
 15 16  1  0
 16 17  1  0
 17 18  2  0
 17 19  1  0
 19 20  2  0
 20 21  1  0
 21 22  2  0
 22 23  1  0
 23 24  1  0
 23 25  2  0
 15 26  2  0
 26 11  1  0
 25 19  1  0
  1 27  1  0
  1 28  1  0
  1 29  1  0
  2 30  1  0
  2 31  1  0
  4 32  1  0
  4 33  1  0
  5 34  1  0
  5 35  1  0
  5 36  1  0
  6 37  1  0
  6 38  1  0
  7 39  1  0
  7 40  1  0
 12 41  1  0
 13 42  1  0
 14 43  1  0
 20 44  1  0
 21 45  1  0
 22 46  1  0
 24 47  1  0
 24 48  1  0
 24 49  1  0
 25 50  1  0
 26 51  1  0
M  CHG  1  16  -1
M  END
>  <UniqueID>  (2) 
2

>  <SMILES>  (2) 
CCN(CC)CCOC(=O)c1cccc([N-]C(=O)c2cccc(C)c2)c1

>  <Energy>  (2) 
50.86606457924663

>  <Genealogy>  (2) 
CCN(CC)CCOC(=O)c1cccc([N-]C(=O)c2cccc(C)c2)c1 (protonated)
CCN(CC)CCOC(=O)c1cccc([N-]C(=O)c2cccc(C)c2)c1 (3D coordinates assigned)
CCN(CC)CCOC(=O)c1cccc([N-]C(=O)c2cccc(C)c2)c1 (optimized conformer: 50.86606457924663 kcal/mol)

>  <smiles>  (2) 
CCN(CC)CCOC(=O)c1cccc(NC(=O)c2cccc(C)c2)c1

>  <score_type>  (2) 
oracle

>  <origin>  (2) 
adg

>  <m_score__min__energy>  (2) 
-9.7400000000000002

>  <m_primary>  (2) 
energy

$$$$
2:0
     RDKit          3D

 52 54  0  0  0  0  0  0  0  0999 V2000
   56.5300   30.4390   42.9050 C   0  0  0  0  0  0  0  0  0  0  0  0
   57.3490   30.0570   44.1050 C   0  0  0  0  0  0  0  0  0  0  0  0
   56.9810   28.9510   44.8880 C   0  0  0  0  0  0  0  0  0  0  0  0
   57.7300   28.6050   46.0190 C   0  0  0  0  0  0  0  0  0  0  0  0
   58.8550   29.3640   46.3840 C   0  0  0  0  0  0  0  0  0  0  0  0
   59.6660   28.9850   47.5980 C   0  0  0  0  0  0  0  0  0  0  0  0
   60.5790   30.0810   47.9700 N   0  0  0  0  0  0  0  0  0  0  0  0
   60.8220   30.1670   49.4220 C   0  0  0  0  0  0  0  0  0  0  0  0
   61.7570   31.3290   49.8000 C   0  0  0  0  0  0  0  0  0  0  0  0
   62.4780   31.9490   48.5740 C   0  0  2  0  0  0  0  0  0  0  0  0
   63.5920   32.9270   48.9290 C   0  0  0  0  0  0  0  0  0  0  0  0
   63.7610   33.7680   47.6720 C   0  0  0  0  0  0  0  0  0  0  0  0
   62.5520   33.4430   46.7870 C   0  0  0  0  0  0  0  0  0  0  0  0
   61.6110   32.6350   47.5860 N   0  0  2  0  0  0  0  0  0  0  0  0
   60.4410   33.4170   48.0890 C   0  0  0  0  0  0  0  0  0  0  0  0
   59.3400   33.7190   47.0830 C   0  0  0  0  0  0  0  0  0  0  0  0
   59.6240   34.3650   45.8630 C   0  0  0  0  0  0  0  0  0  0  0  0
   58.6070   34.5960   44.9290 C   0  0  0  0  0  0  0  0  0  0  0  0
   57.3090   34.1510   45.1780 C   0  0  0  0  0  0  0  0  0  0  0  0
   57.0260   33.4550   46.3540 C   0  0  0  0  0  0  0  0  0  0  0  0
   58.0390   33.2210   47.2910 C   0  0  0  0  0  0  0  0  0  0  0  0
   59.1970   30.4950   45.6230 C   0  0  0  0  0  0  0  0  0  0  0  0
   58.4500   30.8390   44.4910 C   0  0  0  0  0  0  0  0  0  0  0  0
   55.5793   30.8824   43.2360 H   0  0  0  0  0  0  0  0  0  0  0  0
   57.0851   31.1711   42.3002 H   0  0  0  0  0  0  0  0  0  0  0  0
   56.3258   29.5432   42.3002 H   0  0  0  0  0  0  0  0  0  0  0  0
   56.0998   28.3535   44.6113 H   0  0  0  0  0  0  0  0  0  0  0  0
   57.4366   27.7350   46.6248 H   0  0  0  0  0  0  0  0  0  0  0  0
   58.9862   28.7790   48.4379 H   0  0  0  0  0  0  0  0  0  0  0  0
   60.2607   28.0897   47.3640 H   0  0  0  0  0  0  0  0  0  0  0  0
   61.5030   29.8900   47.5180 H   0  0  0  0  0  0  0  0  0  0  0  0
   59.8581   30.3107   49.9322 H   0  0  0  0  0  0  0  0  0  0  0  0
   61.3115   29.2322   49.7328 H   0  0  0  0  0  0  0  0  0  0  0  0
   61.1614   32.1132   50.2902 H   0  0  0  0  0  0  0  0  0  0  0  0
   62.5317   30.9246   50.4681 H   0  0  0  0  0  0  0  0  0  0  0  0
   62.8895   31.0388   48.1133 H   0  0  0  0  0  0  0  0  0  0  0  0
   63.3021   33.5559   49.7837 H   0  0  0  0  0  0  0  0  0  0  0  0
   64.5215   32.4191   49.2256 H   0  0  0  0  0  0  0  0  0  0  0  0
   63.7734   34.8382   47.9259 H   0  0  0  0  0  0  0  0  0  0  0  0
   64.7090   33.5457   47.1603 H   0  0  0  0  0  0  0  0  0  0  0  0
   62.0641   34.3743   46.4636 H   0  0  0  0  0  0  0  0  0  0  0  0
   62.8698   32.8884   45.8918 H   0  0  0  0  0  0  0  0  0  0  0  0
   61.2090   31.9010   46.9540 H   0  0  0  0  0  0  0  0  0  0  0  0
   59.9906   32.8488   48.9162 H   0  0  0  0  0  0  0  0  0  0  0  0
   60.8491   34.3975   48.3754 H   0  0  0  0  0  0  0  0  0  0  0  0
   60.6517   34.6899   45.6432 H   0  0  0  0  0  0  0  0  0  0  0  0
   58.8327   35.1308   43.9947 H   0  0  0  0  0  0  0  0  0  0  0  0
   56.5096   34.3483   44.4486 H   0  0  0  0  0  0  0  0  0  0  0  0
   56.0060   33.0900   46.5447 H   0  0  0  0  0  0  0  0  0  0  0  0
   57.8167   32.6420   48.1995 H   0  0  0  0  0  0  0  0  0  0  0  0
   60.0571   31.1135   45.9191 H   0  0  0  0  0  0  0  0  0  0  0  0
   58.7261   31.7254   43.9010 H   0  0  0  0  0  0  0  0  0  0  0  0
  1  2  1  0
  2  3  2  0
  3  4  1  0
  4  5  2  0
  5  6  1  0
  6  7  1  0
  7  8  1  0
  8  9  1  0
  9 10  1  0
 10 11  1  0
 11 12  1  0
 12 13  1  0
 13 14  1  0
 14 15  1  0
 15 16  1  0
 16 17  2  0
 17 18  1  0
 18 19  2  0
 19 20  1  0
 20 21  2  0
  5 22  1  0
 22 23  2  0
 23  2  1  0
 14 10  1  0
 21 16  1  0
  1 24  1  0
  1 25  1  0
  1 26  1  0
  3 27  1  0
  4 28  1  0
  6 29  1  0
  6 30  1  0
  7 31  1  0
  8 32  1  0
  8 33  1  0
  9 34  1  0
  9 35  1  0
 10 36  1  6
 11 37  1  0
 11 38  1  0
 12 39  1  0
 12 40  1  0
 13 41  1  0
 13 42  1  0
 14 43  1  6
 15 44  1  0
 15 45  1  0
 17 46  1  0
 18 47  1  0
 19 48  1  0
 20 49  1  0
 21 50  1  0
 22 51  1  0
 23 52  1  0
M  CHG  1  14   1
M  END
>  <UniqueID>  (3) 
3

>  <SMILES>  (3) 
Cc1ccc(CNCC[C@@H]2CCC[N@@H+]2Cc2ccccc2)cc1

>  <Energy>  (3) 
63.58849568783159

>  <Genealogy>  (3) 
Cc1ccc(CNCCC2CCC[NH+]2Cc2ccccc2)cc1 (protonated)
Cc1ccc(CNCC[C@@H]2CCC[N@@H+]2Cc2ccccc2)cc1 (chirality)
Cc1ccc(CNCC[C@@H]2CCC[N@@H+]2Cc2ccccc2)cc1 (3D coordinates assigned)
Cc1ccc(CNCC[C@@H]2CCC[N@@H+]2Cc2ccccc2)cc1 (nonaromatic ring conformer: 63.58849568783159 kcal/mol)

>  <smiles>  (3) 
Cc1ccc(CNCCC2CCCN2Cc2ccccc2)cc1

>  <score_type>  (3) 
oracle

>  <origin>  (3) 
adg

>  <m_score__min__energy>  (3) 
-6.1299999999999999

>  <m_primary>  (3) 
energy

$$$$
3:0
     RDKit          3D

 66 69  0  0  0  0  0  0  0  0999 V2000
   61.9370   30.9060   47.0440 C   0  0  0  0  0  0  0  0  0  0  0  0
   63.2580   31.5780   47.4210 C   0  0  0  0  0  0  0  0  0  0  0  0
   63.0350   32.9570   47.9150 N   0  0  0  0  0  0  0  0  0  0  0  0
   62.9110   33.8880   46.7680 C   0  0  0  0  0  0  0  0  0  0  0  0
   61.4550   34.0090   46.3230 C   0  0  0  0  0  0  0  0  0  0  0  0
   64.1190   33.3790   48.8290 C   0  0  0  0  0  0  0  0  0  0  0  0
   63.9250   32.7720   50.2230 C   0  0  0  0  0  0  0  0  0  0  0  0
   62.8280   33.4720   51.0500 C   0  0  0  0  0  0  0  0  0  0  0  0
   61.7170   32.5530   51.3620 N   0  0  0  0  0  0  0  0  0  0  0  0
   60.6410   32.6290   50.3910 C   0  0  0  0  0  0  0  0  0  0  0  0
   60.3070   33.9090   49.8320 C   0  0  0  0  0  0  0  0  0  0  0  0
   59.4270   34.0510   48.7430 C   0  0  0  0  0  0  0  0  0  0  0  0
   58.9040   32.8910   48.1910 C   0  0  0  0  0  0  0  0  0  0  0  0
   59.2150   31.6790   48.7090 C   0  0  0  0  0  0  0  0  0  0  0  0
   58.7660   30.7580   47.8120 C   0  0  0  0  0  0  0  0  0  0  0  0
   58.1920   31.3940   46.7650 N   0  0  0  0  0  0  0  0  0  0  0  0
   58.2640   32.7030   47.0130 N   0  0  0  0  0  0  0  0  0  0  0  0
   57.8090   33.7210   46.0660 C   0  0  0  0  0  0  0  0  0  0  0  0
   57.5650   33.1220   44.6780 C   0  0  0  0  0  0  0  0  0  0  0  0
   56.7230   31.9150   44.7000 N   0  0  0  0  0  0  0  0  0  0  0  0
   57.0320   30.9290   43.6480 C   0  0  0  0  0  0  0  0  0  0  0  0
   56.7610   29.4780   44.0710 C   0  0  0  0  0  0  0  0  0  0  0  0
   56.1420   29.4630   45.3310 O   0  0  0  0  0  0  0  0  0  0  0  0
   59.1730   29.3540   47.9040 C   0  0  0  0  0  0  0  0  0  0  0  0
   58.8420   28.4180   46.9180 C   0  0  0  0  0  0  0  0  0  0  0  0
   59.3070   27.1080   47.0310 C   0  0  0  0  0  0  0  0  0  0  0  0
   60.1040   26.7310   48.1170 C   0  0  0  0  0  0  0  0  0  0  0  0
   60.4460   27.6630   49.1040 C   0  0  0  0  0  0  0  0  0  0  0  0
   59.9870   28.9850   49.0080 C   0  0  0  0  0  0  0  0  0  0  0  0
   60.3610   30.0100   50.0430 C   0  0  0  0  0  0  0  0  0  0  0  0
   60.8510   29.6230   51.1380 O   0  0  0  0  0  0  0  0  0  0  0  0
   60.0690   31.4590   49.7780 C   0  0  0  0  0  0  0  0  0  0  0  0
   61.3924   30.6290   47.9587 H   0  0  0  0  0  0  0  0  0  0  0  0
   61.3270   31.6034   46.4511 H   0  0  0  0  0  0  0  0  0  0  0  0
   62.1414   30.0023   46.4511 H   0  0  0  0  0  0  0  0  0  0  0  0
   63.7480   30.9889   48.2102 H   0  0  0  0  0  0  0  0  0  0  0  0
   63.8925   31.6274   46.5238 H   0  0  0  0  0  0  0  0  0  0  0  0
   63.2804   34.8800   47.0671 H   0  0  0  0  0  0  0  0  0  0  0  0
   63.5047   33.4954   45.9293 H   0  0  0  0  0  0  0  0  0  0  0  0
   60.8043   34.0631   47.2083 H   0  0  0  0  0  0  0  0  0  0  0  0
   61.3304   34.9206   45.7201 H   0  0  0  0  0  0  0  0  0  0  0  0
   61.1816   33.1305   45.7201 H   0  0  0  0  0  0  0  0  0  0  0  0
   65.0845   33.0446   48.4216 H   0  0  0  0  0  0  0  0  0  0  0  0
   64.0985   34.4753   48.9166 H   0  0  0  0  0  0  0  0  0  0  0  0
   63.6513   31.7129   50.1068 H   0  0  0  0  0  0  0  0  0  0  0  0
   64.8724   32.9002   50.7670 H   0  0  0  0  0  0  0  0  0  0  0  0
   63.2667   33.8349   51.9912 H   0  0  0  0  0  0  0  0  0  0  0  0
   62.4285   34.3075   50.4564 H   0  0  0  0  0  0  0  0  0  0  0  0
   62.0590   31.5660   51.3780 H   0  0  0  0  0  0  0  0  0  0  0  0
   61.3830   32.7780   52.3130 H   0  0  0  0  0  0  0  0  0  0  0  0
   60.7557   34.8121   50.2714 H   0  0  0  0  0  0  0  0  0  0  0  0
   59.1644   35.0424   48.3454 H   0  0  0  0  0  0  0  0  0  0  0  0
   56.8711   34.1608   46.4362 H   0  0  0  0  0  0  0  0  0  0  0  0
   58.5920   34.4887   45.9795 H   0  0  0  0  0  0  0  0  0  0  0  0
   57.0704   33.8804   44.0534 H   0  0  0  0  0  0  0  0  0  0  0  0
   58.5452   32.8258   44.2762 H   0  0  0  0  0  0  0  0  0  0  0  0
   56.6440   31.5000   45.6630 H   0  0  0  0  0  0  0  0  0  0  0  0
   56.4150   31.1557   42.7660 H   0  0  0  0  0  0  0  0  0  0  0  0
   58.1083   31.0088   43.4353 H   0  0  0  0  0  0  0  0  0  0  0  0
   56.1010   28.9987   43.3330 H   0  0  0  0  0  0  0  0  0  0  0  0
   57.7128   28.9291   44.1248 H   0  0  0  0  0  0  0  0  0  0  0  0
   56.6280   30.1070   45.9090 H   0  0  0  0  0  0  0  0  0  0  0  0
   58.2198   28.7131   46.0603 H   0  0  0  0  0  0  0  0  0  0  0  0
   59.0454   26.3668   46.2615 H   0  0  0  0  0  0  0  0  0  0  0  0
   60.4646   25.6948   48.1960 H   0  0  0  0  0  0  0  0  0  0  0  0
   61.0742   27.3588   49.9542 H   0  0  0  0  0  0  0  0  0  0  0  0
  1  2  1  0
  2  3  1  0
  3  4  1  0
  4  5  1  0
  3  6  1  0
  6  7  1  0
  7  8  1  0
  8  9  1  0
  9 10  1  0
 10 11  2  0
 11 12  1  0
 12 13  2  0
 13 14  1  0
 14 15  1  0
 15 16  2  0
 16 17  1  0
 17 18  1  0
 18 19  1  0
 19 20  1  0
 20 21  1  0
 21 22  1  0
 22 23  1  0
 15 24  1  0
 24 25  2  0
 25 26  1  0
 26 27  2  0
 27 28  1  0
 28 29  2  0
 29 30  1  0
 30 31  2  0
 30 32  1  0
 32 10  1  0
 17 13  1  0
 29 24  1  0
 32 14  2  0
  1 33  1  0
  1 34  1  0
  1 35  1  0
  2 36  1  0
  2 37  1  0
  4 38  1  0
  4 39  1  0
  5 40  1  0
  5 41  1  0
  5 42  1  0
  6 43  1  0
  6 44  1  0
  7 45  1  0
  7 46  1  0
  8 47  1  0
  8 48  1  0
  9 49  1  0
  9 50  1  0
 11 51  1  0
 12 52  1  0
 18 53  1  0
 18 54  1  0
 19 55  1  0
 19 56  1  0
 20 57  1  0
 21 58  1  0
 21 59  1  0
 22 60  1  0
 22 61  1  0
 23 62  1  0
 25 63  1  0
 26 64  1  0
 27 65  1  0
 28 66  1  0
M  CHG  1   9   1
M  END
>  <UniqueID>  (4) 
4

>  <SMILES>  (4) 
CCN(CC)CCC[NH2+]c1ccc2c3c(nn2CCNCCO)-c2ccccc2C(=O)c13

>  <Energy>  (4) 
130.1574172314838

>  <Genealogy>  (4) 
CCN(CC)CCC[NH2+]c1ccc2c3c(nn2CCNCCO)-c2ccccc2C(=O)c13 (protonated)
CCN(CC)CCC[NH2+]c1ccc2c3c(nn2CCNCCO)-c2ccccc2C(=O)c13 (3D coordinates assigned)
CCN(CC)CCC[NH2+]c1ccc2c3c(nn2CCNCCO)-c2ccccc2C(=O)c13 (nonaromatic ring conformer: 130.1574172314838 kcal/mol)

>  <smiles>  (4) 
CCN(CC)CCCNc1ccc2c3c(nn2CCNCCO)-c2ccccc2C(=O)c13

>  <score_type>  (4) 
oracle

>  <origin>  (4) 
adg

>  <m_score__min__energy>  (4) 
-6.2599999999999998

>  <m_primary>  (4) 
energy

$$$$
4:0
     RDKit          3D

 64 68  0  0  0  0  0  0  0  0999 V2000
   56.1826   23.7263   44.6492 H   0  0  0  0  0  0  0  0  0  0  0  0
   56.5550   24.7440   44.8380 C   0  0  0  0  0  0  0  0  0  0  0  0
   57.4080   25.3580   43.9170 C   0  0  0  0  0  0  0  0  0  0  0  0
   57.7126   24.8195   43.0075 H   0  0  0  0  0  0  0  0  0  0  0  0
   57.8750   26.6550   44.1490 C   0  0  0  0  0  0  0  0  0  0  0  0
   58.5541   27.1299   43.4256 H   0  0  0  0  0  0  0  0  0  0  0  0
   57.4810   27.3550   45.3020 C   0  0  0  0  0  0  0  0  0  0  0  0
   57.9800   28.7290   45.5620 C   0  0  0  0  0  0  0  0  0  0  0  0
   59.0740   28.8960   46.4380 C   0  0  0  0  0  0  0  0  0  0  0  0
   59.5280   28.0155   46.9161 H   0  0  0  0  0  0  0  0  0  0  0  0
   59.5920   30.1830   46.7070 C   0  0  0  0  0  0  0  0  0  0  0  0
   60.6040   30.3730   47.5100 N   0  0  0  0  0  0  0  0  0  0  0  0
   61.9180   30.9190   47.1660 C   0  0  0  0  0  0  0  0  0  0  0  0
   61.7915   31.7377   46.4423 H   0  0  0  0  0  0  0  0  0  0  0  0
   62.5326   30.1180   46.7294 H   0  0  0  0  0  0  0  0  0  0  0  0
   62.6270   31.4610   48.4280 C   0  0  0  0  0  0  0  0  0  0  0  0
   63.2742   30.6660   48.8269 H   0  0  0  0  0  0  0  0  0  0  0  0
   61.8338   31.7611   49.1286 H   0  0  0  0  0  0  0  0  0  0  0  0
   63.4620   32.6650   48.1940 N   0  0  0  0  0  0  0  0  0  0  0  0
   63.5290   33.0400   46.7720 C   0  0  0  0  0  0  0  0  0  0  0  0
   63.7219   34.1196   46.6862 H   0  0  0  0  0  0  0  0  0  0  0  0
   64.3417   32.4824   46.2836 H   0  0  0  0  0  0  0  0  0  0  0  0
   62.5734   32.7983   46.2836 H   0  0  0  0  0  0  0  0  0  0  0  0
   63.0910   33.8110   49.0540 C   0  0  0  0  0  0  0  0  0  0  0  0
   63.3025   34.7491   48.5198 H   0  0  0  0  0  0  0  0  0  0  0  0
   62.0192   33.7470   49.2929 H   0  0  0  0  0  0  0  0  0  0  0  0
   63.9010   33.7790   50.3670 C   0  0  0  0  0  0  0  0  0  0  0  0
   64.2697   34.7935   50.5786 H   0  0  0  0  0  0  0  0  0  0  0  0
   63.2332   33.4167   51.1624 H   0  0  0  0  0  0  0  0  0  0  0  0
   65.0600   32.8570   50.2980 N   0  0  0  0  0  0  0  0  0  0  0  0
   65.2430   32.6340   49.2890 H   0  0  0  0  0  0  0  0  0  0  0  0
   66.2610   33.5270   50.8390 C   0  0  0  0  0  0  0  0  0  0  0  0
   66.4792   34.4170   50.2305 H   0  0  0  0  0  0  0  0  0  0  0  0
   66.0602   33.8084   51.8833 H   0  0  0  0  0  0  0  0  0  0  0  0
   67.4880   32.5880   50.8150 C   0  0  0  0  0  0  0  0  0  0  0  0
   68.2123   32.9720   50.0815 H   0  0  0  0  0  0  0  0  0  0  0  0
   67.9138   32.5667   51.8290 H   0  0  0  0  0  0  0  0  0  0  0  0
   67.1450   31.2600   50.4630 O   0  0  0  0  0  0  0  0  0  0  0  0
   66.1010   30.8060   51.2960 C   0  0  0  0  0  0  0  0  0  0  0  0
   65.9226   29.7384   51.0999 H   0  0  0  0  0  0  0  0  0  0  0  0
   66.3962   30.9608   52.3443 H   0  0  0  0  0  0  0  0  0  0  0  0
   64.8010   31.5920   51.0300 C   0  0  0  0  0  0  0  0  0  0  0  0
   64.1233   30.9664   50.4305 H   0  0  0  0  0  0  0  0  0  0  0  0
   64.3508   31.8456   52.0011 H   0  0  0  0  0  0  0  0  0  0  0  0
   58.9900   31.2450   46.0950 N   0  0  0  0  0  0  0  0  0  0  0  0
   57.9310   31.1200   45.2580 C   0  0  0  0  0  0  0  0  0  0  0  0
   57.4770   32.3020   44.7640 N   0  0  0  0  0  0  0  0  0  0  0  0
   58.3100   33.1970   45.3330 C   0  0  0  0  0  0  0  0  0  0  0  0
   58.2960   34.5790   45.1690 C   0  0  0  0  0  0  0  0  0  0  0  0
   57.5536   35.0656   44.5194 H   0  0  0  0  0  0  0  0  0  0  0  0
   59.2610   35.3340   45.8600 C   0  0  0  0  0  0  0  0  0  0  0  0
   59.2783   36.4287   45.7534 H   0  0  0  0  0  0  0  0  0  0  0  0
   60.2080   34.6940   46.6900 C   0  0  0  0  0  0  0  0  0  0  0  0
   60.9577   35.2950   47.2255 H   0  0  0  0  0  0  0  0  0  0  0  0
   60.2010   33.2950   46.8380 C   0  0  0  0  0  0  0  0  0  0  0  0
   60.9346   32.7873   47.4815 H   0  0  0  0  0  0  0  0  0  0  0  0
   59.2280   32.5710   46.1380 C   0  0  0  0  0  0  0  0  0  0  0  0
   57.3880   29.8670   44.9630 C   0  0  0  0  0  0  0  0  0  0  0  0
   56.2240   29.7690   44.1120 C   0  0  0  0  0  0  0  0  0  0  0  0
   55.2910   29.6910   43.4310 N   0  0  0  0  0  0  0  0  0  0  0  0
   56.6360   26.7220   46.2320 C   0  0  0  0  0  0  0  0  0  0  0  0
   56.3363   27.2524   47.1479 H   0  0  0  0  0  0  0  0  0  0  0  0
   56.1750   25.4230   45.9990 C   0  0  0  0  0  0  0  0  0  0  0  0
   55.5130   24.9351   46.7296 H   0  0  0  0  0  0  0  0  0  0  0  0
  1  2  1  0
  2  3  2  0
  3  4  1  0
  3  5  1  0
  5  6  1  0
  5  7  2  0
  7  8  1  0
  8  9  2  0
  9 10  1  0
  9 11  1  0
 11 12  2  0
 12 13  1  0
 13 14  1  0
 13 15  1  0
 13 16  1  0
 16 17  1  0
 16 18  1  0
 16 19  1  0
 19 20  1  0
 20 21  1  0
 20 22  1  0
 20 23  1  0
 19 24  1  0
 24 25  1  0
 24 26  1  0
 24 27  1  0
 27 28  1  0
 27 29  1  0
 27 30  1  0
 30 31  1  0
 30 32  1  0
 32 33  1  0
 32 34  1  0
 32 35  1  0
 35 36  1  0
 35 37  1  0
 35 38  1  0
 38 39  1  0
 39 40  1  0
 39 41  1  0
 39 42  1  0
 42 43  1  0
 42 44  1  0
 11 45  1  0
 45 46  1  0
 46 47  1  0
 47 48  1  0
 48 49  2  0
 49 50  1  0
 49 51  1  0
 51 52  1  0
 51 53  2  0
 53 54  1  0
 53 55  1  0
 55 56  1  0
 55 57  2  0
 46 58  2  0
 58 59  1  0
 59 60  3  0
  7 61  1  0
 61 62  1  0
 61 63  2  0
 63 64  1  0
 63  2  1  0
 58  8  1  0
 42 30  1  0
 57 45  1  0
 57 48  1  0
M  CHG  2  30   1  47  -1
M  END
>  <UniqueID>  (5) 
5

>  <SMILES>  (5) 
CN(CC/N=c1\cc(-c2ccccc2)c(C#N)c2[n-]c3ccccc3n12)CC[NH+]1CCOCC1

>  <Energy>  (5) 
131.64047956257295

>  <Genealogy>  (5) 
CN(CCN=c1cc(-c2ccccc2)c(C#N)c2[n-]c3ccccc3n12)CC[NH+]1CCOCC1 (protonated)
CN(CC/N=c1\cc(-c2ccccc2)c(C#N)c2[n-]c3ccccc3n12)CC[NH+]1CCOCC1 (cis-trans isomerization)
CN(CC/N=c1\cc(-c2ccccc2)c(C#N)c2[n-]c3ccccc3n12)CC[NH+]1CCOCC1 (3D coordinates assigned)
CN(CC/N=c1\cc(-c2ccccc2)c(C#N)c2[n-]c3ccccc3n12)CC[NH+]1CCOCC1 (nonaromatic ring conformer: 131.64047956257295 kcal/mol)

>  <smiles>  (5) 
CN(CCN=c1cc(-c2ccccc2)c(C#N)c2[nH]c3ccccc3n12)CCN1CCOCC1

>  <score_type>  (5) 
oracle

>  <origin>  (5) 
adg

>  <m_score__min__energy>  (5) 
-8.7300000000000004

>  <m_primary>  (5) 
energy

$$$$
5:0
     RDKit          3D

 71 74  0  0  0  0  0  0  0  0999 V2000
   56.8380   26.6590   54.1460 C   0  0  0  0  0  0  0  0  0  0  0  0
   57.4870   27.9500   54.4060 N   0  0  0  0  0  0  0  0  0  0  0  0
   58.7710   27.7960   55.1230 C   0  0  0  0  0  0  0  0  0  0  0  0
   59.9940   27.9630   54.2070 C   0  0  0  0  0  0  0  0  0  0  0  0
   59.6040   27.8510   52.7970 N   0  0  0  0  0  0  0  0  0  0  0  0
   60.6180   28.4480   51.9190 C   0  0  0  0  0  0  0  0  0  0  0  0
   59.9850   28.9280   50.6080 C   0  0  0  0  0  0  0  0  0  0  0  0
   58.8970   29.8780   50.8620 N   0  0  0  0  0  0  0  0  0  0  0  0
   57.7970   29.5320   51.5140 N   0  0  0  0  0  0  0  0  0  0  0  0
   56.9860   30.6040   51.5650 C   0  0  0  0  0  0  0  0  0  0  0  0
   55.6470   30.6050   52.2080 C   0  0  0  0  0  0  0  0  0  0  0  0
   54.4980   30.8200   51.4230 C   0  0  0  0  0  0  0  0  0  0  0  0
   53.2270   30.8200   52.0050 C   0  0  0  0  0  0  0  0  0  0  0  0
   51.8070   31.0800   51.0080 Cl  0  0  0  0  0  0  0  0  0  0  0  0
   53.0900   30.6070   53.3760 C   0  0  0  0  0  0  0  0  0  0  0  0
   54.2170   30.3910   54.1700 C   0  0  0  0  0  0  0  0  0  0  0  0
   55.5080   30.3940   53.6000 C   0  0  0  0  0  0  0  0  0  0  0  0
   56.6590   30.2190   54.3870 O   0  0  0  0  0  0  0  0  0  0  0  0
   57.5520   31.2580   54.7780 C   0  0  0  0  0  0  0  0  0  0  0  0
   58.8530   30.7900   54.7860 F   0  0  0  0  0  0  0  0  0  0  0  0
   57.4530   32.2970   53.8740 F   0  0  0  0  0  0  0  0  0  0  0  0
   57.5900   31.6690   50.9210 C   0  0  0  0  0  0  0  0  0  0  0  0
   58.8120   31.1790   50.4880 C   0  0  0  0  0  0  0  0  0  0  0  0
   59.8810   31.9420   49.7200 C   0  0  0  0  0  0  0  0  0  0  0  0
   60.4680   31.0880   48.5670 C   0  0  0  0  0  0  0  0  0  0  0  0
   60.4560   31.8170   47.2180 C   0  0  0  0  0  0  0  0  0  0  0  0
   59.1260   32.3770   46.9120 N   0  0  0  0  0  0  0  0  0  0  0  0
   58.1290   31.3180   46.6430 C   0  0  0  0  0  0  0  0  0  0  0  0
   57.7610   31.2850   45.1810 C   0  0  0  0  0  0  0  0  0  0  0  0
   57.0610   30.1890   44.6470 C   0  0  0  0  0  0  0  0  0  0  0  0
   56.7180   30.1650   43.2920 C   0  0  0  0  0  0  0  0  0  0  0  0
   57.0750   31.2300   42.4610 C   0  0  0  0  0  0  0  0  0  0  0  0
   57.7760   32.3210   42.9840 C   0  0  0  0  0  0  0  0  0  0  0  0
   58.1220   32.3490   44.3380 C   0  0  0  0  0  0  0  0  0  0  0  0
   58.6590   33.3650   47.9190 C   0  0  0  0  0  0  0  0  0  0  0  0
   59.4350   33.3490   49.2560 C   0  0  0  0  0  0  0  0  0  0  0  0
   56.5934   26.1725   55.1018 H   0  0  0  0  0  0  0  0  0  0  0  0
   55.9147   26.8220   53.5707 H   0  0  0  0  0  0  0  0  0  0  0  0
   57.5196   26.0152   53.5707 H   0  0  0  0  0  0  0  0  0  0  0  0
   56.8350   28.5160   55.0020 H   0  0  0  0  0  0  0  0  0  0  0  0
   57.6140   28.4640   53.5020 H   0  0  0  0  0  0  0  0  0  0  0  0
   58.8220   28.5549   55.9177 H   0  0  0  0  0  0  0  0  0  0  0  0
   58.8008   26.7740   55.5288 H   0  0  0  0  0  0  0  0  0  0  0  0
   60.4427   28.9523   54.3802 H   0  0  0  0  0  0  0  0  0  0  0  0
   60.7200   27.1694   54.4376 H   0  0  0  0  0  0  0  0  0  0  0  0
   58.7170   28.3930   52.6690 H   0  0  0  0  0  0  0  0  0  0  0  0
   61.0803   29.3045   52.4315 H   0  0  0  0  0  0  0  0  0  0  0  0
   61.3773   27.6867   51.6870 H   0  0  0  0  0  0  0  0  0  0  0  0
   60.7556   29.4200   49.9963 H   0  0  0  0  0  0  0  0  0  0  0  0
   59.5705   28.0559   50.0811 H   0  0  0  0  0  0  0  0  0  0  0  0
   54.6015   30.9896   50.3411 H   0  0  0  0  0  0  0  0  0  0  0  0
   52.0897   30.6092   53.8335 H   0  0  0  0  0  0  0  0  0  0  0  0
   54.0981   30.2169   55.2496 H   0  0  0  0  0  0  0  0  0  0  0  0
   57.2867   31.6029   55.7883 H   0  0  0  0  0  0  0  0  0  0  0  0
   57.1880   32.6835   50.7827 H   0  0  0  0  0  0  0  0  0  0  0  0
   60.6943   32.1320   50.4358 H   0  0  0  0  0  0  0  0  0  0  0  0
   61.5075   30.8287   48.8165 H   0  0  0  0  0  0  0  0  0  0  0  0
   59.8361   30.1935   48.4642 H   0  0  0  0  0  0  0  0  0  0  0  0
   61.1892   32.6364   47.2491 H   0  0  0  0  0  0  0  0  0  0  0  0
   60.7106   31.0897   46.4330 H   0  0  0  0  0  0  0  0  0  0  0  0
   58.5517   30.3439   46.9302 H   0  0  0  0  0  0  0  0  0  0  0  0
   57.2228   31.5311   47.2290 H   0  0  0  0  0  0  0  0  0  0  0  0
   56.7821   29.3472   45.2978 H   0  0  0  0  0  0  0  0  0  0  0  0
   56.1667   29.3071   42.8797 H   0  0  0  0  0  0  0  0  0  0  0  0
   56.8045   31.2102   41.3950 H   0  0  0  0  0  0  0  0  0  0  0  0
   58.0557   33.1589   42.3286 H   0  0  0  0  0  0  0  0  0  0  0  0
   58.6784   33.2065   44.7444 H   0  0  0  0  0  0  0  0  0  0  0  0
   58.7535   34.3697   47.4812 H   0  0  0  0  0  0  0  0  0  0  0  0
   57.6216   33.0912   48.1614 H   0  0  0  0  0  0  0  0  0  0  0  0
   60.3330   33.9736   49.1399 H   0  0  0  0  0  0  0  0  0  0  0  0
   58.7447   33.7284   50.0239 H   0  0  0  0  0  0  0  0  0  0  0  0
  1  2  1  0
  2  3  1  0
  3  4  1  0
  4  5  1  0
  5  6  1  0
  6  7  1  0
  7  8  1  0
  8  9  1  0
  9 10  2  0
 10 11  1  0
 11 12  2  0
 12 13  1  0
 13 14  1  0
 13 15  2  0
 15 16  1  0
 16 17  2  0
 17 18  1  0
 18 19  1  0
 19 20  1  0
 19 21  1  0
 10 22  1  0
 22 23  2  0
 23 24  1  0
 24 25  1  0
 25 26  1  0
 26 27  1  0
 27 28  1  0
 28 29  1  0
 29 30  2  0
 30 31  1  0
 31 32  2  0
 32 33  1  0
 33 34  2  0
 27 35  1  0
 35 36  1  0
 23  8  1  0
 36 24  1  0
 17 11  1  0
 34 29  1  0
  1 37  1  0
  1 38  1  0
  1 39  1  0
  2 40  1  0
  2 41  1  0
  3 42  1  0
  3 43  1  0
  4 44  1  0
  4 45  1  0
  5 46  1  0
  6 47  1  0
  6 48  1  0
  7 49  1  0
  7 50  1  0
 12 51  1  0
 15 52  1  0
 16 53  1  0
 19 54  1  0
 22 55  1  0
 24 56  1  0
 25 57  1  0
 25 58  1  0
 26 59  1  0
 26 60  1  0
 28 61  1  0
 28 62  1  0
 30 63  1  0
 31 64  1  0
 32 65  1  0
 33 66  1  0
 34 67  1  0
 35 68  1  0
 35 69  1  0
 36 70  1  0
 36 71  1  0
M  CHG  1   2   1
M  END
>  <UniqueID>  (6) 
6

>  <SMILES>  (6) 
C[NH2+]CCNCCn1nc(-c2cc(Cl)ccc2OC(F)F)cc1C1CCN(Cc2ccccc2)CC1

>  <Energy>  (6) 
111.19610952578846

>  <Genealogy>  (6) 
C[NH2+]CCNCCn1nc(-c2cc(Cl)ccc2OC(F)F)cc1C1CCN(Cc2ccccc2)CC1 (protonated)
C[NH2+]CCNCCn1nc(-c2cc(Cl)ccc2OC(F)F)cc1C1CCN(Cc2ccccc2)CC1 (3D coordinates assigned)
C[NH2+]CCNCCn1nc(-c2cc(Cl)ccc2OC(F)F)cc1C1CCN(Cc2ccccc2)CC1 (nonaromatic ring conformer: 111.19610952578846 kcal/mol)

>  <smiles>  (6) 
CNCCNCCn1nc(-c2cc(Cl)ccc2OC(F)F)cc1C1CCN(Cc2ccccc2)CC1

>  <score_type>  (6) 
oracle

>  <origin>  (6) 
adg

>  <m_score__min__energy>  (6) 
-6.9699999999999998

>  <m_primary>  (6) 
energy

$$$$
6:0
     RDKit          3D

 47 50  0  0  0  0  0  0  0  0999 V2000
   55.8100   30.8290   52.6370 C   0  0  0  0  0  0  0  0  0  0  0  0
   56.6680   32.0610   52.3710 C   0  0  0  0  0  0  0  0  0  0  0  0
   57.3590   31.9270   51.0820 N   0  0  0  0  0  0  0  0  0  0  0  0
   58.0160   30.6180   50.9620 C   0  0  0  0  0  0  0  0  0  0  0  0
   59.5270   30.7530   51.1550 C   0  0  0  0  0  0  0  0  0  0  0  0
   59.9560   32.1450   51.0200 N   0  0  0  0  0  0  0  0  0  0  0  0
   60.7030   32.5680   49.8710 C   0  0  0  0  0  0  0  0  0  0  0  0
   62.1170   32.5160   49.8330 C   0  0  0  0  0  0  0  0  0  0  0  0
   62.8550   32.0530   50.9410 C   0  0  0  0  0  0  0  0  0  0  0  0
   64.2430   31.9600   50.8820 C   0  0  0  0  0  0  0  0  0  0  0  0
   64.9200   32.3170   49.7200 C   0  0  0  0  0  0  0  0  0  0  0  0
   64.2210   32.8030   48.6160 C   0  0  0  0  0  0  0  0  0  0  0  0
   62.8120   32.9500   48.6520 C   0  0  0  0  0  0  0  0  0  0  0  0
   62.1090   33.4790   47.5790 N   0  0  0  0  0  0  0  0  0  0  0  0
   62.7870   34.1820   46.4780 C   0  0  0  0  0  0  0  0  0  0  0  0
   60.7410   33.3960   47.6030 C   0  0  0  0  0  0  0  0  0  0  0  0
   60.0450   32.9900   48.7220 C   0  0  0  0  0  0  0  0  0  0  0  0
   58.7110   32.9990   48.5080 N   0  0  0  0  0  0  0  0  0  0  0  0
   58.5610   33.3990   47.2310 C   0  0  0  0  0  0  0  0  0  0  0  0
   57.3580   33.5020   46.5340 C   0  0  0  0  0  0  0  0  0  0  0  0
   57.4070   33.8530   45.1760 C   0  0  0  0  0  0  0  0  0  0  0  0
   58.6450   34.0690   44.5400 C   0  0  0  0  0  0  0  0  0  0  0  0
   59.8490   33.9510   45.2570 C   0  0  0  0  0  0  0  0  0  0  0  0
   59.7790   33.6440   46.6230 C   0  0  0  0  0  0  0  0  0  0  0  0
   55.7071   30.6812   53.7222 H   0  0  0  0  0  0  0  0  0  0  0  0
   54.8149   30.9718   52.1904 H   0  0  0  0  0  0  0  0  0  0  0  0
   56.2890   29.9452   52.1904 H   0  0  0  0  0  0  0  0  0  0  0  0
   56.0255   32.9536   52.3482 H   0  0  0  0  0  0  0  0  0  0  0  0
   57.4160   32.1581   53.1717 H   0  0  0  0  0  0  0  0  0  0  0  0
   56.6380   31.9930   50.3210 H   0  0  0  0  0  0  0  0  0  0  0  0
   57.6130   29.9399   51.7287 H   0  0  0  0  0  0  0  0  0  0  0  0
   57.8220   30.2153   49.9569 H   0  0  0  0  0  0  0  0  0  0  0  0
   59.7941   30.3911   52.1588 H   0  0  0  0  0  0  0  0  0  0  0  0
   60.0314   30.1567   50.3804 H   0  0  0  0  0  0  0  0  0  0  0  0
   59.4650   32.8720   51.5920 H   0  0  0  0  0  0  0  0  0  0  0  0
   62.3288   31.7620   51.8621 H   0  0  0  0  0  0  0  0  0  0  0  0
   64.8062   31.6031   51.7569 H   0  0  0  0  0  0  0  0  0  0  0  0
   66.0142   32.2151   49.6721 H   0  0  0  0  0  0  0  0  0  0  0  0
   64.7713   33.0764   47.7036 H   0  0  0  0  0  0  0  0  0  0  0  0
   63.4945   34.9156   46.8919 H   0  0  0  0  0  0  0  0  0  0  0  0
   63.3331   33.4544   45.8596 H   0  0  0  0  0  0  0  0  0  0  0  0
   62.0401   34.7014   45.8596 H   0  0  0  0  0  0  0  0  0  0  0  0
   57.9550   32.7080   49.1640 H   0  0  0  0  0  0  0  0  0  0  0  0
   56.3969   33.3134   47.0346 H   0  0  0  0  0  0  0  0  0  0  0  0
   56.4730   33.9600   44.6049 H   0  0  0  0  0  0  0  0  0  0  0  0
   58.6703   34.3325   43.4723 H   0  0  0  0  0  0  0  0  0  0  0  0
   60.8193   34.0957   44.7595 H   0  0  0  0  0  0  0  0  0  0  0  0
  1  2  1  0
  2  3  1  0
  3  4  1  0
  4  5  1  0
  5  6  1  0
  6  7  1  0
  7  8  2  0
  8  9  1  0
  9 10  2  0
 10 11  1  0
 11 12  2  0
 12 13  1  0
 13 14  2  0
 14 15  1  0
 14 16  1  0
 16 17  2  0
 17 18  1  0
 18 19  1  0
 19 20  2  0
 20 21  1  0
 21 22  2  0
 22 23  1  0
 23 24  2  0
 17  7  1  0
 24 19  1  0
 13  8  1  0
 24 16  1  0
  1 25  1  0
  1 26  1  0
  1 27  1  0
  2 28  1  0
  2 29  1  0
  3 30  1  0
  4 31  1  0
  4 32  1  0
  5 33  1  0
  5 34  1  0
  6 35  1  0
  9 36  1  0
 10 37  1  0
 11 38  1  0
 12 39  1  0
 15 40  1  0
 15 41  1  0
 15 42  1  0
 18 43  1  0
 20 44  1  0
 21 45  1  0
 22 46  1  0
 23 47  1  0
M  CHG  1  14   1
M  END
>  <UniqueID>  (7) 
7

>  <SMILES>  (7) 
CCNCCNc1c2ccccc2[n+](C)c2c1[nH]c1ccccc12

>  <Energy>  (7) 
106.4483061046619

>  <Genealogy>  (7) 
CCNCCNc1c2ccccc2[n+](C)c2c1[nH]c1ccccc12 (3D coordinates assigned)
CCNCCNc1c2ccccc2[n+](C)c2c1[nH]c1ccccc12 (optimized conformer: 106.4483061046619 kcal/mol)

>  <smiles>  (7) 
CCNCCNc1c2ccccc2[n+](C)c2c1[nH]c1ccccc12

>  <score_type>  (7) 
oracle

>  <origin>  (7) 
adg

>  <m_score__min__energy>  (7) 
-6.3600000000000003

>  <m_primary>  (7) 
energy

$$$$
7:0
     RDKit          3D

 39 40  0  0  0  0  0  0  0  0999 V2000
   58.0730   32.3040   42.0640 C   0  0  0  0  0  0  0  0  0  0  0  0
   57.4040   31.6370   43.2670 C   0  0  0  0  0  0  0  0  0  0  0  0
   56.6280   30.3680   42.8840 C   0  0  0  0  0  0  0  0  0  0  0  0
   55.7930   29.8120   44.0490 C   0  0  0  0  0  0  0  0  0  0  0  0
   56.6160   29.7070   45.2620 N   0  0  0  0  0  0  0  0  0  0  0  0
   57.2530   28.3870   45.3680 C   0  0  0  0  0  0  0  0  0  0  0  0
   58.5200   28.4760   46.2150 C   0  0  0  0  0  0  0  0  0  0  0  0
   58.4880   29.6610   47.0090 O   0  0  0  0  0  0  0  0  0  0  0  0
   59.4470   30.6860   46.9570 C   0  0  0  0  0  0  0  0  0  0  0  0
   60.8080   30.4410   47.2290 C   0  0  0  0  0  0  0  0  0  0  0  0
   61.7420   31.4770   47.1700 C   0  0  0  0  0  0  0  0  0  0  0  0
   61.3390   32.7710   46.8390 C   0  0  0  0  0  0  0  0  0  0  0  0
   59.9910   33.0380   46.5660 C   0  0  0  0  0  0  0  0  0  0  0  0
   59.5700   34.3310   46.2350 C   0  0  0  0  0  0  0  0  0  0  0  0
   58.2230   34.5760   45.9690 C   0  0  0  0  0  0  0  0  0  0  0  0
   57.3080   33.5250   46.0360 C   0  0  0  0  0  0  0  0  0  0  0  0
   57.7210   32.2690   46.3570 N   0  0  0  0  0  0  0  0  0  0  0  0
   59.0350   31.9930   46.6240 C   0  0  0  0  0  0  0  0  0  0  0  0
   58.8110   33.0398   42.4161 H   0  0  0  0  0  0  0  0  0  0  0  0
   58.5787   31.5399   41.4554 H   0  0  0  0  0  0  0  0  0  0  0  0
   57.3104   32.8120   41.4554 H   0  0  0  0  0  0  0  0  0  0  0  0
   58.1810   31.3676   43.9975 H   0  0  0  0  0  0  0  0  0  0  0  0
   56.6830   32.3540   43.6867 H   0  0  0  0  0  0  0  0  0  0  0  0
   55.9529   30.6063   42.0489 H   0  0  0  0  0  0  0  0  0  0  0  0
   57.3634   29.5992   42.6042 H   0  0  0  0  0  0  0  0  0  0  0  0
   54.9459   30.4865   44.2425 H   0  0  0  0  0  0  0  0  0  0  0  0
   55.4241   28.8114   43.7792 H   0  0  0  0  0  0  0  0  0  0  0  0
   57.3780   30.4220   45.1900 H   0  0  0  0  0  0  0  0  0  0  0  0
   56.5512   27.6822   45.8379 H   0  0  0  0  0  0  0  0  0  0  0  0
   57.5205   28.0371   44.3600 H   0  0  0  0  0  0  0  0  0  0  0  0
   58.5818   27.5969   46.8733 H   0  0  0  0  0  0  0  0  0  0  0  0
   59.3981   28.5057   45.5532 H   0  0  0  0  0  0  0  0  0  0  0  0
   61.1373   29.4244   47.4901 H   0  0  0  0  0  0  0  0  0  0  0  0
   62.8010   31.2720   47.3856 H   0  0  0  0  0  0  0  0  0  0  0  0
   62.0803   33.5824   46.7923 H   0  0  0  0  0  0  0  0  0  0  0  0
   60.3000   35.1524   46.1847 H   0  0  0  0  0  0  0  0  0  0  0  0
   57.8848   35.5898   45.7085 H   0  0  0  0  0  0  0  0  0  0  0  0
   56.2444   33.7132   45.8277 H   0  0  0  0  0  0  0  0  0  0  0  0
   57.0000   31.5140   46.3940 H   0  0  0  0  0  0  0  0  0  0  0  0
  1  2  1  0
  2  3  1  0
  3  4  1  0
  4  5  1  0
  5  6  1  0
  6  7  1  0
  7  8  1  0
  8  9  1  0
  9 10  2  0
 10 11  1  0
 11 12  2  0
 12 13  1  0
 13 14  2  0
 14 15  1  0
 15 16  2  0
 16 17  1  0
 17 18  2  0
 18  9  1  0
 18 13  1  0
  1 19  1  0
  1 20  1  0
  1 21  1  0
  2 22  1  0
  2 23  1  0
  3 24  1  0
  3 25  1  0
  4 26  1  0
  4 27  1  0
  5 28  1  0
  6 29  1  0
  6 30  1  0
  7 31  1  0
  7 32  1  0
 10 33  1  0
 11 34  1  0
 12 35  1  0
 14 36  1  0
 15 37  1  0
 16 38  1  0
 17 39  1  0
M  CHG  1  17   1
M  END
>  <UniqueID>  (8) 
8

>  <SMILES>  (8) 
CCCCNCCOc1cccc2ccc[nH+]c12

>  <Energy>  (8) 
33.6038808911021

>  <Genealogy>  (8) 
CCCCNCCOc1cccc2ccc[nH+]c12 (protonated)
CCCCNCCOc1cccc2ccc[nH+]c12 (3D coordinates assigned)
CCCCNCCOc1cccc2ccc[nH+]c12 (optimized conformer: 33.6038808911021 kcal/mol)

>  <smiles>  (8) 
CCCCNCCOc1cccc2cccnc12

>  <score_type>  (8) 
oracle

>  <origin>  (8) 
adg

>  <m_score__min__energy>  (8) 
-5.1100000000000003

>  <m_primary>  (8) 
energy

$$$$
8:0
     RDKit          3D

 42 42  0  0  0  0  0  0  0  0999 V2000
   63.9000   33.1560   49.6430 C   0  0  0  0  0  0  0  0  0  0  0  0
   62.6170   33.9770   49.7510 C   0  0  0  0  0  0  0  0  0  0  0  0
   62.0290   34.1880   48.4070 N   0  0  0  0  0  0  0  0  0  0  0  0
   62.5110   33.1690   47.4470 C   0  0  0  0  0  0  0  0  0  0  0  0
   63.3460   33.8280   46.3520 C   0  0  0  0  0  0  0  0  0  0  0  0
   60.5490   34.2080   48.4690 C   0  0  0  0  0  0  0  0  0  0  0  0
   59.9710   33.1970   47.4770 C   0  0  0  0  0  0  0  0  0  0  0  0
   58.1740   33.4440   47.2220 S   0  0  0  0  0  0  0  0  0  0  0  0
   58.2800   33.7030   45.4430 C   0  0  0  0  0  0  0  0  0  0  0  0
   59.1830   34.9510   44.8900 S   0  0  0  0  0  0  0  0  0  0  0  0
   57.7140   32.7770   44.5010 N   0  0  0  0  0  0  0  0  0  0  0  0
   57.4990   31.3890   44.7950 C   0  0  0  0  0  0  0  0  0  0  0  0
   58.4120   30.7100   45.6140 C   0  0  0  0  0  0  0  0  0  0  0  0
   58.2380   29.3520   45.8950 C   0  0  0  0  0  0  0  0  0  0  0  0
   57.1580   28.6510   45.3410 C   0  0  0  0  0  0  0  0  0  0  0  0
   56.9260   26.9440   45.7030 S   0  0  0  0  0  0  0  0  0  0  0  0
   57.4380   25.9970   44.3510 N   0  0  0  0  0  0  0  0  0  0  0  0
   57.7280   26.5690   46.9180 O   0  0  0  0  0  0  0  0  0  0  0  0
   55.4740   26.6740   45.9820 O   0  0  0  0  0  0  0  0  0  0  0  0
   56.2540   29.3210   44.5070 C   0  0  0  0  0  0  0  0  0  0  0  0
   56.4290   30.6800   44.2270 C   0  0  0  0  0  0  0  0  0  0  0  0
   64.2699   32.9193   50.6516 H   0  0  0  0  0  0  0  0  0  0  0  0
   63.6931   32.2221   49.0998 H   0  0  0  0  0  0  0  0  0  0  0  0
   64.6613   33.7351   49.0998 H   0  0  0  0  0  0  0  0  0  0  0  0
   61.8945   33.4403   50.3834 H   0  0  0  0  0  0  0  0  0  0  0  0
   62.8532   34.9546   50.1967 H   0  0  0  0  0  0  0  0  0  0  0  0
   63.1285   32.4311   47.9801 H   0  0  0  0  0  0  0  0  0  0  0  0
   61.6444   32.6718   46.9867 H   0  0  0  0  0  0  0  0  0  0  0  0
   64.1305   34.4471   46.8116 H   0  0  0  0  0  0  0  0  0  0  0  0
   63.8110   33.0508   45.7277 H   0  0  0  0  0  0  0  0  0  0  0  0
   62.6982   34.4609   45.7277 H   0  0  0  0  0  0  0  0  0  0  0  0
   60.2233   33.9470   49.4868 H   0  0  0  0  0  0  0  0  0  0  0  0
   60.1899   35.2148   48.2095 H   0  0  0  0  0  0  0  0  0  0  0  0
   60.4864   33.3107   46.5119 H   0  0  0  0  0  0  0  0  0  0  0  0
   60.1220   32.1887   47.8898 H   0  0  0  0  0  0  0  0  0  0  0  0
   57.7740   33.0340   43.4890 H   0  0  0  0  0  0  0  0  0  0  0  0
   59.2713   31.2498   46.0384 H   0  0  0  0  0  0  0  0  0  0  0  0
   58.9503   28.8321   46.5525 H   0  0  0  0  0  0  0  0  0  0  0  0
   56.8570   26.2920   43.5340 H   0  0  0  0  0  0  0  0  0  0  0  0
   58.4220   26.2750   44.1380 H   0  0  0  0  0  0  0  0  0  0  0  0
   55.4036   28.7765   44.0708 H   0  0  0  0  0  0  0  0  0  0  0  0
   55.7244   31.1960   43.5582 H   0  0  0  0  0  0  0  0  0  0  0  0
  1  2  1  0
  2  3  1  0
  3  4  1  0
  4  5  1  0
  3  6  1  0
  6  7  1  0
  7  8  1  0
  8  9  1  0
  9 10  2  0
  9 11  1  0
 11 12  1  0
 12 13  2  0
 13 14  1  0
 14 15  2  0
 15 16  1  0
 16 17  1  0
 16 18  2  0
 16 19  2  0
 15 20  1  0
 20 21  2  0
 21 12  1  0
  1 22  1  0
  1 23  1  0
  1 24  1  0
  2 25  1  0
  2 26  1  0
  4 27  1  0
  4 28  1  0
  5 29  1  0
  5 30  1  0
  5 31  1  0
  6 32  1  0
  6 33  1  0
  7 34  1  0
  7 35  1  0
 11 36  1  0
 13 37  1  0
 14 38  1  0
 17 39  1  0
 17 40  1  0
 20 41  1  0
 21 42  1  0
M  END
>  <UniqueID>  (9) 
9

>  <SMILES>  (9) 
CCN(CC)CCSC(=S)Nc1ccc(S(N)(=O)=O)cc1

>  <Energy>  (9) 
38.63214226785353

>  <Genealogy>  (9) 
CCN(CC)CCSC(=S)Nc1ccc(S(N)(=O)=O)cc1 (3D coordinates assigned)
CCN(CC)CCSC(=S)Nc1ccc(S(N)(=O)=O)cc1 (optimized conformer: 38.63214226785353 kcal/mol)

>  <smiles>  (9) 
CCN(CC)CCSC(=S)Nc1ccc(S(N)(=O)=O)cc1

>  <score_type>  (9) 
oracle

>  <origin>  (9) 
adg

>  <m_score__min__energy>  (9) 
-7.21

>  <m_primary>  (9) 
energy

$$$$
9:0
     RDKit          3D

 31 33  0  0  0  0  0  0  0  0999 V2000
   63.3890   33.8520   46.3280 C   0  0  0  0  0  0  0  0  0  0  0  0
   63.6420   32.8490   47.3070 O   0  0  0  0  0  0  0  0  0  0  0  0
   63.7360   33.0850   48.6890 C   0  0  0  0  0  0  0  0  0  0  0  0
   64.9280   32.8250   49.3970 C   0  0  0  0  0  0  0  0  0  0  0  0
   65.0050   33.0640   50.7690 C   0  0  0  0  0  0  0  0  0  0  0  0
   63.9010   33.5650   51.4550 C   0  0  0  0  0  0  0  0  0  0  0  0
   62.7130   33.8290   50.7710 C   0  0  0  0  0  0  0  0  0  0  0  0
   62.6150   33.5940   49.3880 C   0  0  0  0  0  0  0  0  0  0  0  0
   61.3310   33.8900   48.7050 C   0  0  0  0  0  0  0  0  0  0  0  0
   60.5290   34.9390   48.9860 N   0  0  0  0  0  0  0  0  0  0  0  0
   59.5020   34.8360   48.1600 N   0  0  0  0  0  0  0  0  0  0  0  0
   59.7020   33.7410   47.4060 C   0  0  0  0  0  0  0  0  0  0  0  0
   58.7950   33.2580   46.3560 C   0  0  0  0  0  0  0  0  0  0  0  0
   58.2340   34.0200   45.3350 C   0  0  0  0  0  0  0  0  0  0  0  0
   57.4070   33.2790   44.4810 C   0  0  0  0  0  0  0  0  0  0  0  0
   57.3250   31.9390   44.8400 C   0  0  0  0  0  0  0  0  0  0  0  0
   56.5580   30.9450   44.1550 N   0  0  0  0  0  0  0  0  0  0  0  0
   55.7920   30.1930   44.7920 O   0  0  0  0  0  0  0  0  0  0  0  0
   56.6560   30.8090   42.7900 O   0  0  0  0  0  0  0  0  0  0  0  0
   58.2690   31.6650   46.2060 S   0  0  0  0  0  0  0  0  0  0  0  0
   60.8260   33.1540   47.7380 O   0  0  0  0  0  0  0  0  0  0  0  0
   63.1495   34.8014   46.8292 H   0  0  0  0  0  0  0  0  0  0  0  0
   64.2819   33.9843   45.6993 H   0  0  0  0  0  0  0  0  0  0  0  0
   62.5402   33.5449   45.6993 H   0  0  0  0  0  0  0  0  0  0  0  0
   65.8046   32.4303   48.8624 H   0  0  0  0  0  0  0  0  0  0  0  0
   65.9397   32.8564   51.3106 H   0  0  0  0  0  0  0  0  0  0  0  0
   63.9654   33.7528   52.5369 H   0  0  0  0  0  0  0  0  0  0  0  0
   61.8452   34.2246   51.3191 H   0  0  0  0  0  0  0  0  0  0  0  0
   58.6990   35.5010   48.1250 H   0  0  0  0  0  0  0  0  0  0  0  0
   58.4214   35.0968   45.2111 H   0  0  0  0  0  0  0  0  0  0  0  0
   56.8789   33.7116   43.6184 H   0  0  0  0  0  0  0  0  0  0  0  0
  1  2  1  0
  2  3  1  0
  3  4  2  0
  4  5  1  0
  5  6  2  0
  6  7  1  0
  7  8  2  0
  8  9  1  0
  9 10  2  0
 10 11  1  0
 11 12  2  0
 12 13  1  0
 13 14  2  0
 14 15  1  0
 15 16  2  0
 16 17  1  0
 17 18  2  0
 17 19  1  0
 16 20  1  0
 12 21  1  0
  8  3  1  0
 21  9  1  0
 20 13  1  0
  1 22  1  0
  1 23  1  0
  1 24  1  0
  4 25  1  0
  5 26  1  0
  6 27  1  0
  7 28  1  0
 11 29  1  0
 14 30  1  0
 15 31  1  0
M  CHG  3  11   1  17   1  19  -1
M  END
>  <UniqueID>  (10) 
10

>  <SMILES>  (10) 
COc1ccccc1-c1n[nH+]c(-c2ccc([N+](=O)[O-])s2)o1

>  <Energy>  (10) 
95.77905288334962

>  <Genealogy>  (10) 
COc1ccccc1-c1n[nH+]c(-c2ccc([N+](=O)[O-])s2)o1 (protonated)
COc1ccccc1-c1n[nH+]c(-c2ccc([N+](=O)[O-])s2)o1 (3D coordinates assigned)
COc1ccccc1-c1n[nH+]c(-c2ccc([N+](=O)[O-])s2)o1 (optimized conformer: 95.77905288334962 kcal/mol)

>  <smiles>  (10) 
COc1ccccc1-c1nnc(-c2ccc([N+](=O)[O-])s2)o1

>  <score_type>  (10) 
oracle

>  <origin>  (10) 
adg

>  <m_score__min__energy>  (10) 
-5.6200000000000001

>  <m_primary>  (10) 
energy

$$$$
10:0
     RDKit          3D

 42 44  0  0  0  0  0  0  0  0999 V2000
   64.8900   32.8930   49.7750 C   0  0  0  0  0  0  0  0  0  0  0  0
   63.6870   33.1940   48.9320 C   0  0  0  0  0  0  0  0  0  0  0  0
   62.4360   33.3970   49.5310 C   0  0  0  0  0  0  0  0  0  0  0  0
   61.3060   33.6420   48.7440 C   0  0  0  0  0  0  0  0  0  0  0  0
   61.4100   33.6720   47.3420 C   0  0  0  0  0  0  0  0  0  0  0  0
   60.2220   33.9300   46.5040 C   0  0  0  0  0  0  0  0  0  0  0  0
   59.2410   33.0240   46.2930 N   0  0  0  0  0  0  0  0  0  0  0  0
   58.3890   33.6820   45.4850 C   0  0  0  0  0  0  0  0  0  0  0  0
   57.0980   33.1110   44.9860 C   0  0  0  0  0  0  0  0  0  0  0  0
   57.0790   31.6540   45.1640 N   0  0  0  0  0  0  0  0  0  0  0  0
   56.9170   30.9640   43.8770 C   0  0  0  0  0  0  0  0  0  0  0  0
   56.3650   29.5520   44.1090 C   0  0  0  0  0  0  0  0  0  0  0  0
   57.4800   28.5250   44.3400 C   0  0  0  0  0  0  0  0  0  0  0  0
   58.4930   29.0470   45.2520 N   0  0  0  0  0  0  0  0  0  0  0  0
   59.7890   29.2590   44.9610 C   0  0  0  0  0  0  0  0  0  0  0  0
   60.4010   29.7950   46.0740 C   0  0  0  0  0  0  0  0  0  0  0  0
   59.3960   29.8840   47.0190 C   0  0  0  0  0  0  0  0  0  0  0  0
   58.2420   29.4270   46.4950 N   0  0  0  0  0  0  0  0  0  0  0  0
   58.8660   34.9500   45.2410 C   0  0  0  0  0  0  0  0  0  0  0  0
   60.0010   35.0690   45.8830 O   0  0  0  0  0  0  0  0  0  0  0  0
   62.6620   33.4500   46.7440 C   0  0  0  0  0  0  0  0  0  0  0  0
   63.7900   33.2070   47.5330 C   0  0  0  0  0  0  0  0  0  0  0  0
   64.6186   32.9609   50.8388 H   0  0  0  0  0  0  0  0  0  0  0  0
   65.2490   31.8774   49.5523 H   0  0  0  0  0  0  0  0  0  0  0  0
   65.6850   33.6199   49.5523 H   0  0  0  0  0  0  0  0  0  0  0  0
   62.3425   33.3634   50.6265 H   0  0  0  0  0  0  0  0  0  0  0  0
   60.3311   33.8121   49.2242 H   0  0  0  0  0  0  0  0  0  0  0  0
   56.2638   33.5556   45.5485 H   0  0  0  0  0  0  0  0  0  0  0  0
   56.9972   33.3405   43.9149 H   0  0  0  0  0  0  0  0  0  0  0  0
   58.0070   31.3740   45.5590 H   0  0  0  0  0  0  0  0  0  0  0  0
   56.2171   31.5302   43.2449 H   0  0  0  0  0  0  0  0  0  0  0  0
   57.8946   30.8937   43.3776 H   0  0  0  0  0  0  0  0  0  0  0  0
   55.7099   29.5685   44.9925 H   0  0  0  0  0  0  0  0  0  0  0  0
   55.8121   29.2530   43.2063 H   0  0  0  0  0  0  0  0  0  0  0  0
   57.0440   27.6120   44.7716 H   0  0  0  0  0  0  0  0  0  0  0  0
   57.9586   28.3050   43.3743 H   0  0  0  0  0  0  0  0  0  0  0  0
   60.2771   29.0418   43.9994 H   0  0  0  0  0  0  0  0  0  0  0  0
   61.4556   30.0872   46.1854 H   0  0  0  0  0  0  0  0  0  0  0  0
   59.5196   30.2689   48.0420 H   0  0  0  0  0  0  0  0  0  0  0  0
   58.3833   35.7203   44.6216 H   0  0  0  0  0  0  0  0  0  0  0  0
   62.7551   33.4675   45.6481 H   0  0  0  0  0  0  0  0  0  0  0  0
   64.7636   33.0250   47.0544 H   0  0  0  0  0  0  0  0  0  0  0  0
  1  2  1  0
  2  3  2  0
  3  4  1  0
  4  5  2  0
  5  6  1  0
  6  7  2  0
  7  8  1  0
  8  9  1  0
  9 10  1  0
 10 11  1  0
 11 12  1  0
 12 13  1  0
 13 14  1  0
 14 15  1  0
 15 16  2  0
 16 17  1  0
 17 18  2  0
  8 19  2  0
 19 20  1  0
  5 21  1  0
 21 22  2  0
 22  2  1  0
 20  6  1  0
 18 14  1  0
  1 23  1  0
  1 24  1  0
  1 25  1  0
  3 26  1  0
  4 27  1  0
  9 28  1  0
  9 29  1  0
 10 30  1  0
 11 31  1  0
 11 32  1  0
 12 33  1  0
 12 34  1  0
 13 35  1  0
 13 36  1  0
 15 37  1  0
 16 38  1  0
 17 39  1  0
 19 40  1  0
 21 41  1  0
 22 42  1  0
M  END
>  <UniqueID>  (11) 
11

>  <SMILES>  (11) 
Cc1ccc(-c2nc(CNCCCn3cccn3)co2)cc1

>  <Energy>  (11) 
94.90893591785041

>  <Genealogy>  (11) 
Cc1ccc(-c2nc(CNCCCn3cccn3)co2)cc1 (3D coordinates assigned)
Cc1ccc(-c2nc(CNCCCn3cccn3)co2)cc1 (optimized conformer: 94.90893591785041 kcal/mol)

>  <smiles>  (11) 
Cc1ccc(-c2nc(CNCCCn3cccn3)co2)cc1

>  <score_type>  (11) 
oracle

>  <origin>  (11) 
adg

>  <m_score__min__energy>  (11) 
-6.4900000000000002

>  <m_primary>  (11) 
energy

$$$$
11:0
     RDKit          3D

 51 53  0  0  0  0  0  0  0  0999 V2000
   56.7450   21.3730   42.8300 C   0  0  0  0  0  0  0  0  0  0  0  0
   56.6650   22.8240   43.2940 C   0  0  0  0  0  0  0  0  0  0  0  0
   56.9530   22.9250   44.7440 N   0  0  0  0  0  0  0  0  0  0  0  0
   57.9880   21.9430   45.1460 C   0  0  0  0  0  0  0  0  0  0  0  0
   59.3790   22.5070   44.8740 C   0  0  0  0  0  0  0  0  0  0  0  0
   55.7160   22.7590   45.5450 C   0  0  0  0  0  0  0  0  0  0  0  0
   55.1780   24.1140   46.0360 C   0  0  0  0  0  0  0  0  0  0  0  0
   56.2900   25.1270   46.3600 C   0  0  0  0  0  0  0  0  0  0  0  0
   56.1150   26.3810   45.6220 N   0  0  0  0  0  0  0  0  0  0  0  0
   56.9810   27.5270   45.7370 C   0  0  0  0  0  0  0  0  0  0  0  0
   58.3150   27.4010   46.2060 C   0  0  0  0  0  0  0  0  0  0  0  0
   59.1650   28.5160   46.3040 C   0  0  0  0  0  0  0  0  0  0  0  0
   60.4890   28.3060   46.6870 O   0  0  0  0  0  0  0  0  0  0  0  0
   58.6410   29.7780   45.9680 C   0  0  0  0  0  0  0  0  0  0  0  0
   57.3510   29.8990   45.4780 C   0  0  0  0  0  0  0  0  0  0  0  0
   57.0380   31.1790   45.1950 N   0  0  0  0  0  0  0  0  0  0  0  0
   58.1330   31.8940   45.5280 C   0  0  0  0  0  0  0  0  0  0  0  0
   58.2800   33.2860   45.4520 C   0  0  0  0  0  0  0  0  0  0  0  0
   57.1820   34.1590   44.9180 C   0  0  0  0  0  0  0  0  0  0  0  0
   59.4910   33.8410   45.9150 C   0  0  0  0  0  0  0  0  0  0  0  0
   60.5010   33.0170   46.4450 C   0  0  0  0  0  0  0  0  0  0  0  0
   60.3290   31.6240   46.5140 C   0  0  0  0  0  0  0  0  0  0  0  0
   59.1380   31.0780   46.0210 C   0  0  0  0  0  0  0  0  0  0  0  0
   56.5050   28.7980   45.3510 C   0  0  0  0  0  0  0  0  0  0  0  0
   55.2100   28.9640   44.8690 O   0  0  0  0  0  0  0  0  0  0  0  0
   56.7816   20.7093   43.7064 H   0  0  0  0  0  0  0  0  0  0  0  0
   55.8588   21.1323   42.2245 H   0  0  0  0  0  0  0  0  0  0  0  0
   57.6523   21.2312   42.2245 H   0  0  0  0  0  0  0  0  0  0  0  0
   57.4006   23.4227   42.7368 H   0  0  0  0  0  0  0  0  0  0  0  0
   55.6483   23.2002   43.1076 H   0  0  0  0  0  0  0  0  0  0  0  0
   57.8867   21.7265   46.2197 H   0  0  0  0  0  0  0  0  0  0  0  0
   57.8537   21.0194   44.5638 H   0  0  0  0  0  0  0  0  0  0  0  0
   59.8847   22.7121   45.8291 H   0  0  0  0  0  0  0  0  0  0  0  0
   59.9651   21.7755   44.2984 H   0  0  0  0  0  0  0  0  0  0  0  0
   59.2902   23.4402   44.2984 H   0  0  0  0  0  0  0  0  0  0  0  0
   54.9494   22.2739   44.9229 H   0  0  0  0  0  0  0  0  0  0  0  0
   55.9536   22.1422   46.4242 H   0  0  0  0  0  0  0  0  0  0  0  0
   54.5351   24.5398   45.2515 H   0  0  0  0  0  0  0  0  0  0  0  0
   54.6245   23.9273   46.9681 H   0  0  0  0  0  0  0  0  0  0  0  0
   56.2719   25.3429   47.4384 H   0  0  0  0  0  0  0  0  0  0  0  0
   57.2524   24.6858   46.0615 H   0  0  0  0  0  0  0  0  0  0  0  0
   55.2860   26.4390   44.9890 H   0  0  0  0  0  0  0  0  0  0  0  0
   58.6913   26.4097   46.4989 H   0  0  0  0  0  0  0  0  0  0  0  0
   60.9670   28.8850   47.3590 H   0  0  0  0  0  0  0  0  0  0  0  0
   56.1300   31.5400   44.8250 H   0  0  0  0  0  0  0  0  0  0  0  0
   56.6250   34.6019   45.7568 H   0  0  0  0  0  0  0  0  0  0  0  0
   57.6171   34.9605   44.3029 H   0  0  0  0  0  0  0  0  0  0  0  0
   56.4992   33.5544   44.3029 H   0  0  0  0  0  0  0  0  0  0  0  0
   59.6475   34.9285   45.8613 H   0  0  0  0  0  0  0  0  0  0  0  0
   61.4356   33.4683   46.8094 H   0  0  0  0  0  0  0  0  0  0  0  0
   61.1098   30.9795   46.9441 H   0  0  0  0  0  0  0  0  0  0  0  0
  1  2  1  0
  2  3  1  0
  3  4  1  0
  4  5  1  0
  3  6  1  0
  6  7  1  0
  7  8  1  0
  8  9  1  0
  9 10  1  0
 10 11  2  0
 11 12  1  0
 12 13  1  0
 12 14  2  0
 14 15  1  0
 15 16  1  0
 16 17  1  0
 17 18  2  0
 18 19  1  0
 18 20  1  0
 20 21  2  0
 21 22  1  0
 22 23  2  0
 15 24  2  0
 24 25  1  0
 24 10  1  0
 23 14  1  0
 23 17  1  0
  1 26  1  0
  1 27  1  0
  1 28  1  0
  2 29  1  0
  2 30  1  0
  4 31  1  0
  4 32  1  0
  5 33  1  0
  5 34  1  0
  5 35  1  0
  6 36  1  0
  6 37  1  0
  7 38  1  0
  7 39  1  0
  8 40  1  0
  8 41  1  0
  9 42  1  0
 11 43  1  0
 13 44  1  0
 16 45  1  0
 19 46  1  0
 19 47  1  0
 19 48  1  0
 20 49  1  0
 21 50  1  0
 22 51  1  0
M  CHG  1  25  -1
M  END
>  <UniqueID>  (12) 
12

>  <SMILES>  (12) 
CCN(CC)CCCNc1cc(O)c2c([nH]c3c(C)cccc32)c1[O-]

>  <Energy>  (12) 
91.76621441653191

>  <Genealogy>  (12) 
CCN(CC)CCCNc1cc(O)c2c([nH]c3c(C)cccc32)c1[O-] (protonated)
CCN(CC)CCCNc1cc(O)c2c([nH]c3c(C)cccc32)c1[O-] (3D coordinates assigned)
CCN(CC)CCCNc1cc(O)c2c([nH]c3c(C)cccc32)c1[O-] (optimized conformer: 91.76621441653191 kcal/mol)

>  <smiles>  (12) 
CCN(CC)CCCNc1cc(O)c2c([nH]c3c(C)cccc32)c1O

>  <score_type>  (12) 
oracle

>  <origin>  (12) 
adg

>  <m_score__min__energy>  (12) 
-9.8399999999999999

>  <m_primary>  (12) 
energy

$$$$
12:0
     RDKit          3D

 52 55  0  0  0  0  0  0  0  0999 V2000
   60.8350   33.5600   50.7910 C   0  0  0  0  0  0  0  0  0  0  0  0
   59.8940   34.2880   50.0120 O   0  0  0  0  0  0  0  0  0  0  0  0
   59.6720   34.0980   48.6390 C   0  0  0  0  0  0  0  0  0  0  0  0
   60.2370   34.9500   47.6730 C   0  0  0  0  0  0  0  0  0  0  0  0
   59.9720   34.7600   46.3170 C   0  0  0  0  0  0  0  0  0  0  0  0
   59.1450   33.7110   45.8960 C   0  0  0  0  0  0  0  0  0  0  0  0
   58.8840   33.5290   44.5280 C   0  0  0  0  0  0  0  0  0  0  0  0
   58.0700   32.4720   44.1020 C   0  0  0  0  0  0  0  0  0  0  0  0
   57.7920   32.2640   42.7470 C   0  0  0  0  0  0  0  0  0  0  0  0
   56.9850   31.1930   42.3700 C   0  0  0  0  0  0  0  0  0  0  0  0
   56.4730   30.3490   43.3610 C   0  0  0  0  0  0  0  0  0  0  0  0
   55.7460   29.3740   43.0400 O   0  0  0  0  0  0  0  0  0  0  0  0
   56.7510   30.5720   44.6440 O   0  0  0  0  0  0  0  0  0  0  0  0
   57.5160   31.5840   45.0460 C   0  0  0  0  0  0  0  0  0  0  0  0
   57.7690   31.7660   46.4090 C   0  0  0  0  0  0  0  0  0  0  0  0
   58.5760   32.8330   46.8540 C   0  0  0  0  0  0  0  0  0  0  0  0
   58.8440   33.0340   48.2290 C   0  0  0  0  0  0  0  0  0  0  0  0
   58.2430   32.1900   49.2210 N   0  0  0  0  0  0  0  0  0  0  0  0
   58.9410   31.0010   49.7130 C   0  0  0  0  0  0  0  0  0  0  0  0
   58.8860   29.8490   48.6960 C   0  0  0  0  0  0  0  0  0  0  0  0
   60.2470   29.4280   48.2750 N   0  0  0  0  0  0  0  0  0  0  0  0
   60.3560   27.9780   47.9980 C   0  0  0  0  0  0  0  0  0  0  0  0
   59.5830   27.5580   46.7260 C   0  0  0  0  0  0  0  0  0  0  0  0
   59.2900   28.7120   45.8480 N   0  0  0  0  0  0  0  0  0  0  0  0
   58.8920   28.2500   44.5110 C   0  0  0  0  0  0  0  0  0  0  0  0
   60.4590   29.6030   45.7590 C   0  0  0  0  0  0  0  0  0  0  0  0
   60.7730   30.2250   47.1380 C   0  0  0  0  0  0  0  0  0  0  0  0
   60.6283   33.7199   51.8595 H   0  0  0  0  0  0  0  0  0  0  0  0
   60.7527   32.4881   50.5580 H   0  0  0  0  0  0  0  0  0  0  0  0
   61.8519   33.9089   50.5580 H   0  0  0  0  0  0  0  0  0  0  0  0
   60.8938   35.7736   47.9899 H   0  0  0  0  0  0  0  0  0  0  0  0
   60.4154   35.4384   45.5733 H   0  0  0  0  0  0  0  0  0  0  0  0
   59.3199   34.2181   43.7897 H   0  0  0  0  0  0  0  0  0  0  0  0
   58.2072   32.9405   41.9855 H   0  0  0  0  0  0  0  0  0  0  0  0
   56.7540   31.0138   41.3096 H   0  0  0  0  0  0  0  0  0  0  0  0
   57.3341   31.0699   47.1413 H   0  0  0  0  0  0  0  0  0  0  0  0
   57.2110   32.2720   49.3750 H   0  0  0  0  0  0  0  0  0  0  0  0
   59.9933   31.2585   49.9037 H   0  0  0  0  0  0  0  0  0  0  0  0
   58.4437   30.6682   50.6360 H   0  0  0  0  0  0  0  0  0  0  0  0
   58.3727   28.9913   49.1551 H   0  0  0  0  0  0  0  0  0  0  0  0
   58.3431   30.2003   47.8062 H   0  0  0  0  0  0  0  0  0  0  0  0
   61.4178   27.7230   47.8658 H   0  0  0  0  0  0  0  0  0  0  0  0
   59.9140   27.4409   48.8502 H   0  0  0  0  0  0  0  0  0  0  0  0
   60.1894   26.8309   46.1660 H   0  0  0  0  0  0  0  0  0  0  0  0
   58.6247   27.1191   47.0407 H   0  0  0  0  0  0  0  0  0  0  0  0
   58.1768   27.4198   44.6078 H   0  0  0  0  0  0  0  0  0  0  0  0
   58.4202   29.0784   43.9622 H   0  0  0  0  0  0  0  0  0  0  0  0
   59.7811   27.9060   43.9622 H   0  0  0  0  0  0  0  0  0  0  0  0
   61.3296   29.0245   45.4164 H   0  0  0  0  0  0  0  0  0  0  0  0
   60.2362   30.4114   45.0471 H   0  0  0  0  0  0  0  0  0  0  0  0
   61.8649   30.3062   47.2440 H   0  0  0  0  0  0  0  0  0  0  0  0
   60.2792   31.2073   47.1725 H   0  0  0  0  0  0  0  0  0  0  0  0
  1  2  1  0
  2  3  1  0
  3  4  2  0
  4  5  1  0
  5  6  2  0
  6  7  1  0
  7  8  2  0
  8  9  1  0
  9 10  2  0
 10 11  1  0
 11 12  2  0
 11 13  1  0
 13 14  1  0
 14 15  2  0
 15 16  1  0
 16 17  2  0
 17 18  1  0
 18 19  1  0
 19 20  1  0
 20 21  1  0
 21 22  1  0
 22 23  1  0
 23 24  1  0
 24 25  1  0
 24 26  1  0
 26 27  1  0
 17  3  1  0
 27 21  1  0
 16  6  1  0
 14  8  1  0
  1 28  1  0
  1 29  1  0
  1 30  1  0
  4 31  1  0
  5 32  1  0
  7 33  1  0
  9 34  1  0
 10 35  1  0
 15 36  1  0
 18 37  1  0
 19 38  1  0
 19 39  1  0
 20 40  1  0
 20 41  1  0
 22 42  1  0
 22 43  1  0
 23 44  1  0
 23 45  1  0
 25 46  1  0
 25 47  1  0
 25 48  1  0
 26 49  1  0
 26 50  1  0
 27 51  1  0
 27 52  1  0
M  END
>  <UniqueID>  (13) 
13

>  <SMILES>  (13) 
COc1ccc2cc3ccc(=O)oc3cc2c1NCCN1CCN(C)CC1

>  <Energy>  (13) 
78.54757792652121

>  <Genealogy>  (13) 
COc1ccc2cc3ccc(=O)oc3cc2c1NCCN1CCN(C)CC1 (3D coordinates assigned)
COc1ccc2cc3ccc(=O)oc3cc2c1NCCN1CCN(C)CC1 (nonaromatic ring conformer: 78.54757792652121 kcal/mol)

>  <smiles>  (13) 
COc1ccc2cc3ccc(=O)oc3cc2c1NCCN1CCN(C)CC1

>  <score_type>  (13) 
oracle

>  <origin>  (13) 
adg

>  <m_score__min__energy>  (13) 
-7.7300000000000004

>  <m_primary>  (13) 
energy

$$$$
13:0
     RDKit          3D

 35 37  0  0  0  0  0  0  0  0999 V2000
   58.3194   25.7734   45.9591 H   0  0  0  0  0  0  0  0  0  0  0  0
   58.6630   26.8110   46.0830 C   0  0  0  0  0  0  0  0  0  0  0  0
   59.9130   27.0670   46.6440 C   0  0  0  0  0  0  0  0  0  0  0  0
   60.5540   26.2324   46.9641 H   0  0  0  0  0  0  0  0  0  0  0  0
   60.3500   28.3810   46.7990 C   0  0  0  0  0  0  0  0  0  0  0  0
   61.3376   28.5791   47.2411 H   0  0  0  0  0  0  0  0  0  0  0  0
   59.5390   29.4550   46.3950 C   0  0  0  0  0  0  0  0  0  0  0  0
   58.2700   29.2120   45.8280 C   0  0  0  0  0  0  0  0  0  0  0  0
   57.8460   27.8680   45.6780 C   0  0  0  0  0  0  0  0  0  0  0  0
   56.8610   27.6551   45.2370 H   0  0  0  0  0  0  0  0  0  0  0  0
   57.4500   30.3020   45.4320 C   0  0  0  0  0  0  0  0  0  0  0  0
   56.2940   29.9860   44.8930 N   0  0  0  0  0  0  0  0  0  0  0  0
   55.8040   29.7390   43.5380 C   0  0  0  0  0  0  0  0  0  0  0  0
   54.7568   30.0680   43.4663 H   0  0  0  0  0  0  0  0  0  0  0  0
   55.8792   28.6627   43.3235 H   0  0  0  0  0  0  0  0  0  0  0  0
   56.6420   30.5050   42.5180 C   0  0  0  0  0  0  0  0  0  0  0  0
   57.3549   31.1566   43.0444 H   0  0  0  0  0  0  0  0  0  0  0  0
   57.1935   29.7923   41.8872 H   0  0  0  0  0  0  0  0  0  0  0  0
   55.9816   31.1181   41.8872 H   0  0  0  0  0  0  0  0  0  0  0  0
   57.9400   31.6410   45.6280 C   0  0  0  0  0  0  0  0  0  0  0  0
   59.2530   31.8070   46.1600 C   0  0  0  0  0  0  0  0  0  0  0  0
   59.9840   30.7270   46.5460 N   0  0  0  0  0  0  0  0  0  0  0  0
   60.9280   30.8850   46.9680 H   0  0  0  0  0  0  0  0  0  0  0  0
   59.8640   33.1710   46.3950 C   0  0  0  0  0  0  0  0  0  0  0  0
   59.7184   33.4445   47.4505 H   0  0  0  0  0  0  0  0  0  0  0  0
   60.9307   33.1062   46.1345 H   0  0  0  0  0  0  0  0  0  0  0  0
   59.2430   34.2520   45.5220 C   0  0  0  0  0  0  0  0  0  0  0  0
   59.6187   35.2381   45.8327 H   0  0  0  0  0  0  0  0  0  0  0  0
   59.5109   34.0791   44.4692 H   0  0  0  0  0  0  0  0  0  0  0  0
   57.7350   34.2090   45.6810 C   0  0  0  0  0  0  0  0  0  0  0  0
   57.4798   34.3194   46.7453 H   0  0  0  0  0  0  0  0  0  0  0  0
   57.2919   35.0299   45.0981 H   0  0  0  0  0  0  0  0  0  0  0  0
   57.1800   32.8790   45.1650 C   0  0  0  0  0  0  0  0  0  0  0  0
   56.1386   32.7880   45.5072 H   0  0  0  0  0  0  0  0  0  0  0  0
   57.2786   32.9088   44.0698 H   0  0  0  0  0  0  0  0  0  0  0  0
  1  2  1  0
  2  3  2  0
  3  4  1  0
  3  5  1  0
  5  6  1  0
  5  7  2  0
  7  8  1  0
  8  9  2  0
  9 10  1  0
  8 11  1  0
 11 12  2  0
 12 13  1  0
 13 14  1  0
 13 15  1  0
 13 16  1  0
 16 17  1  0
 16 18  1  0
 16 19  1  0
 11 20  1  0
 20 21  2  0
 21 22  1  0
 22 23  1  0
 21 24  1  0
 24 25  1  0
 24 26  1  0
 24 27  1  0
 27 28  1  0
 27 29  1  0
 27 30  1  0
 30 31  1  0
 30 32  1  0
 30 33  1  0
 33 34  1  0
 33 35  1  0
  9  2  1  0
 33 20  1  0
 22  7  1  0
M  END
>  <UniqueID>  (14) 
14

>  <SMILES>  (14) 
CC/N=c1\c2c([nH]c3ccccc13)CCCC2

>  <Energy>  (14) 
55.604674052823945

>  <Genealogy>  (14) 
CC/N=c1\c2c([nH]c3ccccc13)CCCC2 (cis-trans isomerization)
CC/N=c1\c2c([nH]c3ccccc13)CCCC2 (3D coordinates assigned)
CC/N=c1\c2c([nH]c3ccccc13)CCCC2 (nonaromatic ring conformer: 55.604674052823945 kcal/mol)

>  <smiles>  (14) 
CCN=c1c2c([nH]c3ccccc13)CCCC2

>  <score_type>  (14) 
oracle

>  <origin>  (14) 
adg

>  <m_score__min__energy>  (14) 
-6.7400000000000002

>  <m_primary>  (14) 
energy

$$$$
14:0
     RDKit          3D

 38 40  0  0  0  0  0  0  0  0999 V2000
   55.5100   29.2300   44.8770 O   0  0  0  0  0  0  0  0  0  0  0  0
   56.6430   29.4820   43.9210 S   0  0  0  0  0  0  0  0  0  0  0  0
   56.1070   29.4240   42.5180 O   0  0  0  0  0  0  0  0  0  0  0  0
   57.8930   28.2280   44.1310 C   0  0  0  0  0  0  0  0  0  0  0  0
   58.9420   28.7120   45.0760 C   0  0  0  0  0  0  0  0  0  0  0  0
   60.2450   28.8500   44.7540 N   0  0  0  0  0  0  0  0  0  0  0  0
   60.8370   29.2500   45.8670 N   0  0  0  0  0  0  0  0  0  0  0  0
   59.8940   29.3350   46.8200 C   0  0  0  0  0  0  0  0  0  0  0  0
   60.1460   29.7490   48.2340 C   0  0  0  0  0  0  0  0  0  0  0  0
   61.4770   30.2430   48.3800 O   0  0  0  0  0  0  0  0  0  0  0  0
   61.9690   31.4300   47.8140 C   0  0  0  0  0  0  0  0  0  0  0  0
   63.3390   31.6390   47.5530 C   0  0  0  0  0  0  0  0  0  0  0  0
   63.7720   32.8450   46.9920 C   0  0  0  0  0  0  0  0  0  0  0  0
   62.8490   33.8470   46.6830 C   0  0  0  0  0  0  0  0  0  0  0  0
   61.4900   33.6450   46.9350 C   0  0  0  0  0  0  0  0  0  0  0  0
   61.0530   32.4410   47.4970 C   0  0  0  0  0  0  0  0  0  0  0  0
   58.7200   29.0040   46.3380 O   0  0  0  0  0  0  0  0  0  0  0  0
   57.3390   31.0710   44.2240 C   0  0  0  0  0  0  0  0  0  0  0  0
   57.8260   31.8400   43.1580 C   0  0  0  0  0  0  0  0  0  0  0  0
   58.4180   33.0840   43.4010 C   0  0  0  0  0  0  0  0  0  0  0  0
   58.5320   33.5610   44.7110 C   0  0  0  0  0  0  0  0  0  0  0  0
   59.2810   35.1170   45.0160 Cl  0  0  0  0  0  0  0  0  0  0  0  0
   58.0540   32.7940   45.7780 C   0  0  0  0  0  0  0  0  0  0  0  0
   57.4600   31.5510   45.5360 C   0  0  0  0  0  0  0  0  0  0  0  0
   57.4304   27.3155   44.5353 H   0  0  0  0  0  0  0  0  0  0  0  0
   58.3550   28.0095   43.1569 H   0  0  0  0  0  0  0  0  0  0  0  0
   61.8570   29.4510   45.9640 H   0  0  0  0  0  0  0  0  0  0  0  0
   59.4337   30.5398   48.5122 H   0  0  0  0  0  0  0  0  0  0  0  0
   60.0168   28.8750   48.8893 H   0  0  0  0  0  0  0  0  0  0  0  0
   64.0691   30.8515   47.7912 H   0  0  0  0  0  0  0  0  0  0  0  0
   64.8421   33.0048   46.7936 H   0  0  0  0  0  0  0  0  0  0  0  0
   63.1921   34.7943   46.2416 H   0  0  0  0  0  0  0  0  0  0  0  0
   60.7628   34.4335   46.6912 H   0  0  0  0  0  0  0  0  0  0  0  0
   59.9814   32.2869   47.6916 H   0  0  0  0  0  0  0  0  0  0  0  0
   57.7424   31.4643   42.1275 H   0  0  0  0  0  0  0  0  0  0  0  0
   58.7940   33.6873   42.5616 H   0  0  0  0  0  0  0  0  0  0  0  0
   58.1452   33.1684   46.8083 H   0  0  0  0  0  0  0  0  0  0  0  0
   57.0868   30.9484   46.3771 H   0  0  0  0  0  0  0  0  0  0  0  0
  1  2  2  0
  2  3  2  0
  2  4  1  0
  4  5  1  0
  5  6  2  0
  6  7  1  0
  7  8  2  0
  8  9  1  0
  9 10  1  0
 10 11  1  0
 11 12  2  0
 12 13  1  0
 13 14  2  0
 14 15  1  0
 15 16  2  0
  8 17  1  0
  2 18  1  0
 18 19  2  0
 19 20  1  0
 20 21  2  0
 21 22  1  0
 21 23  1  0
 23 24  2  0
 17  5  1  0
 24 18  1  0
 16 11  1  0
  4 25  1  0
  4 26  1  0
  7 27  1  0
  9 28  1  0
  9 29  1  0
 12 30  1  0
 13 31  1  0
 14 32  1  0
 15 33  1  0
 16 34  1  0
 19 35  1  0
 20 36  1  0
 23 37  1  0
 24 38  1  0
M  CHG  1   7   1
M  END
>  <UniqueID>  (15) 
15

>  <SMILES>  (15) 
O=S(=O)(Cc1n[nH+]c(COc2ccccc2)o1)c1ccc(Cl)cc1

>  <Energy>  (15) 
69.44125532773161

>  <Genealogy>  (15) 
O=S(=O)(Cc1n[nH+]c(COc2ccccc2)o1)c1ccc(Cl)cc1 (protonated)
O=S(=O)(Cc1n[nH+]c(COc2ccccc2)o1)c1ccc(Cl)cc1 (3D coordinates assigned)
O=S(=O)(Cc1n[nH+]c(COc2ccccc2)o1)c1ccc(Cl)cc1 (optimized conformer: 69.44125532773161 kcal/mol)

>  <smiles>  (15) 
O=S(=O)(Cc1nnc(COc2ccccc2)o1)c1ccc(Cl)cc1

>  <score_type>  (15) 
oracle

>  <origin>  (15) 
adg

>  <m_score__min__energy>  (15) 
-7.4699999999999998

>  <m_primary>  (15) 
energy

$$$$
15:0
     RDKit          3D

 41 42  0  0  0  0  0  0  0  0999 V2000
   54.6262   25.1592   45.9256 H   0  0  0  0  0  0  0  0  0  0  0  0
   55.5550   25.7480   45.9500 C   0  0  0  0  0  0  0  0  0  0  0  0
   55.5310   27.0680   45.6280 N   0  0  0  0  0  0  0  0  0  0  0  0
   56.6440   27.8540   45.6370 C   0  0  0  0  0  0  0  0  0  0  0  0
   56.4780   29.1110   45.3230 N   0  0  0  0  0  0  0  0  0  0  0  0
   55.7250   29.7110   44.2240 C   0  0  0  0  0  0  0  0  0  0  0  0
   55.3823   30.7139   44.5185 H   0  0  0  0  0  0  0  0  0  0  0  0
   54.8544   29.0812   43.9884 H   0  0  0  0  0  0  0  0  0  0  0  0
   56.6190   29.8200   42.9990 C   0  0  0  0  0  0  0  0  0  0  0  0
   57.6640   29.9474   43.3179 H   0  0  0  0  0  0  0  0  0  0  0  0
   56.5286   28.9042   42.3964 H   0  0  0  0  0  0  0  0  0  0  0  0
   56.3112   30.6873   42.3964 H   0  0  0  0  0  0  0  0  0  0  0  0
   57.8940   27.2610   45.9920 C   0  0  0  0  0  0  0  0  0  0  0  0
   59.1800   27.9720   46.0170 C   0  0  0  0  0  0  0  0  0  0  0  0
   60.2530   27.3080   46.0070 O   0  0  0  0  0  0  0  0  0  0  0  0
   59.2080   29.4020   46.1210 N   0  0  0  0  0  0  0  0  0  0  0  0
   58.3030   29.9170   46.2050 H   0  0  0  0  0  0  0  0  0  0  0  0
   60.4530   30.1640   46.2010 C   0  0  0  0  0  0  0  0  0  0  0  0
   61.1502   29.6475   46.8771 H   0  0  0  0  0  0  0  0  0  0  0  0
   60.8872   30.2410   45.1932 H   0  0  0  0  0  0  0  0  0  0  0  0
   60.1870   31.5790   46.7350 C   0  0  0  0  0  0  0  0  0  0  0  0
   60.3795   31.5944   47.8179 H   0  0  0  0  0  0  0  0  0  0  0  0
   60.8541   32.2775   46.2086 H   0  0  0  0  0  0  0  0  0  0  0  0
   58.7880   31.9980   46.4890 N   0  0  0  0  0  0  0  0  0  0  0  0
   58.4380   33.2030   47.2800 C   0  0  0  0  0  0  0  0  0  0  0  0
   57.4139   33.0905   47.6655 H   0  0  0  0  0  0  0  0  0  0  0  0
   59.1629   33.2940   48.1023 H   0  0  0  0  0  0  0  0  0  0  0  0
   58.5130   34.4860   46.4330 C   0  0  0  0  0  0  0  0  0  0  0  0
   58.2424   35.3398   47.0716 H   0  0  0  0  0  0  0  0  0  0  0  0
   59.5414   34.5577   46.0491 H   0  0  0  0  0  0  0  0  0  0  0  0
   57.6480   34.4780   45.3040 O   0  0  0  0  0  0  0  0  0  0  0  0
   57.3730   33.1770   44.8050 C   0  0  0  0  0  0  0  0  0  0  0  0
   56.4681   32.7975   45.3021 H   0  0  0  0  0  0  0  0  0  0  0  0
   57.2438   33.2687   43.7165 H   0  0  0  0  0  0  0  0  0  0  0  0
   58.5150   32.1750   45.0420 C   0  0  0  0  0  0  0  0  0  0  0  0
   58.2342   31.2034   44.6093 H   0  0  0  0  0  0  0  0  0  0  0  0
   59.4245   32.5672   44.5635 H   0  0  0  0  0  0  0  0  0  0  0  0
   57.9200   25.9000   46.3310 C   0  0  0  0  0  0  0  0  0  0  0  0
   58.8715   25.4273   46.6160 H   0  0  0  0  0  0  0  0  0  0  0  0
   56.7520   25.1420   46.3100 C   0  0  0  0  0  0  0  0  0  0  0  0
   56.7770   24.0748   46.5756 H   0  0  0  0  0  0  0  0  0  0  0  0
  1  2  1  0
  2  3  1  0
  3  4  1  0
  4  5  2  0
  5  6  1  0
  6  7  1  0
  6  8  1  0
  6  9  1  0
  9 10  1  0
  9 11  1  0
  9 12  1  0
  4 13  1  0
 13 14  1  0
 14 15  2  0
 14 16  1  0
 16 17  1  0
 16 18  1  0
 18 19  1  0
 18 20  1  0
 18 21  1  0
 21 22  1  0
 21 23  1  0
 21 24  1  0
 24 25  1  0
 25 26  1  0
 25 27  1  0
 25 28  1  0
 28 29  1  0
 28 30  1  0
 28 31  1  0
 31 32  1  0
 32 33  1  0
 32 34  1  0
 32 35  1  0
 35 36  1  0
 35 37  1  0
 13 38  2  0
 38 39  1  0
 38 40  1  0
 40 41  1  0
 40  2  2  0
 35 24  1  0
M  CHG  1   3  -1
M  END
>  <UniqueID>  (16) 
16

>  <SMILES>  (16) 
CC/N=c1/[n-]cccc1C(=O)NCCN1CCOCC1

>  <Energy>  (16) 
62.18231513357611

>  <Genealogy>  (16) 
CCN=c1[n-]cccc1C(=O)NCCN1CCOCC1 (protonated)
CC/N=c1/[n-]cccc1C(=O)NCCN1CCOCC1 (cis-trans isomerization)
CC/N=c1/[n-]cccc1C(=O)NCCN1CCOCC1 (3D coordinates assigned)
CC/N=c1/[n-]cccc1C(=O)NCCN1CCOCC1 (nonaromatic ring conformer: 62.18231513357611 kcal/mol)

>  <smiles>  (16) 
CCN=c1[nH]cccc1C(=O)NCCN1CCOCC1

>  <score_type>  (16) 
oracle

>  <origin>  (16) 
adg

>  <m_score__min__energy>  (16) 
-7.4000000000000004

>  <m_primary>  (16) 
energy

$$$$
16:0
     RDKit          3D

 45 46  0  0  0  0  0  0  0  0999 V2000
   61.2500   28.1900   45.1270 C   0  0  0  0  0  0  0  0  0  0  0  0
   60.4900   27.2290   46.0500 C   0  0  0  0  0  0  0  0  0  0  0  0
   59.5210   27.9180   46.9420 N   0  0  0  0  0  0  0  0  0  0  0  0
   60.1690   28.6470   48.0710 C   0  0  0  0  0  0  0  0  0  0  0  0
   59.3210   29.7670   48.7060 C   0  0  0  0  0  0  0  0  0  0  0  0
   58.3570   27.0870   47.3640 C   0  0  0  0  0  0  0  0  0  0  0  0
   57.1160   27.1440   46.4590 C   0  0  0  0  0  0  0  0  0  0  0  0
   57.4220   27.6950   45.1810 O   0  0  0  0  0  0  0  0  0  0  0  0
   56.8330   28.8800   44.7220 C   0  0  0  0  0  0  0  0  0  0  0  0
   55.6920   29.2210   45.1380 O   0  0  0  0  0  0  0  0  0  0  0  0
   57.5740   29.8000   43.7860 C   0  0  0  0  0  0  0  0  0  0  0  0
   56.8780   31.1560   43.6710 C   0  0  0  0  0  0  0  0  0  0  0  0
   56.7270   31.7930   44.9330 O   0  0  0  0  0  0  0  0  0  0  0  0
   57.7760   32.4050   45.6230 C   0  0  0  0  0  0  0  0  0  0  0  0
   57.5490   33.6800   46.1570 C   0  0  0  0  0  0  0  0  0  0  0  0
   58.5470   34.3360   46.8790 C   0  0  0  0  0  0  0  0  0  0  0  0
   59.7780   33.7140   47.0900 C   0  0  0  0  0  0  0  0  0  0  0  0
   60.0070   32.4340   46.5820 C   0  0  0  0  0  0  0  0  0  0  0  0
   59.0170   31.7690   45.8460 C   0  0  0  0  0  0  0  0  0  0  0  0
   59.2810   30.4580   45.4380 O   0  0  0  0  0  0  0  0  0  0  0  0
   59.0600   29.9530   44.1270 C   0  0  0  0  0  0  0  0  0  0  0  0
   61.8187   28.9092   45.7347 H   0  0  0  0  0  0  0  0  0  0  0  0
   61.9426   27.6179   44.4922 H   0  0  0  0  0  0  0  0  0  0  0  0
   60.5337   28.7321   44.4922 H   0  0  0  0  0  0  0  0  0  0  0  0
   59.9404   26.5076   45.4275 H   0  0  0  0  0  0  0  0  0  0  0  0
   61.2340   26.7367   46.6935 H   0  0  0  0  0  0  0  0  0  0  0  0
   59.0970   28.6750   46.3560 H   0  0  0  0  0  0  0  0  0  0  0  0
   60.4071   27.9144   48.8563 H   0  0  0  0  0  0  0  0  0  0  0  0
   61.0549   29.1409   47.6452 H   0  0  0  0  0  0  0  0  0  0  0  0
   59.3772   29.6928   49.8021 H   0  0  0  0  0  0  0  0  0  0  0  0
   59.7064   30.7458   48.3845 H   0  0  0  0  0  0  0  0  0  0  0  0
   58.2743   29.6615   48.3845 H   0  0  0  0  0  0  0  0  0  0  0  0
   58.6913   26.0400   47.4088 H   0  0  0  0  0  0  0  0  0  0  0  0
   58.0348   27.5026   48.3302 H   0  0  0  0  0  0  0  0  0  0  0  0
   56.7260   26.1244   46.3238 H   0  0  0  0  0  0  0  0  0  0  0  0
   56.3683   27.7905   46.9417 H   0  0  0  0  0  0  0  0  0  0  0  0
   57.5447   29.3161   42.7986 H   0  0  0  0  0  0  0  0  0  0  0  0
   57.4761   31.8063   43.0157 H   0  0  0  0  0  0  0  0  0  0  0  0
   55.8731   30.9848   43.2577 H   0  0  0  0  0  0  0  0  0  0  0  0
   56.5751   34.1686   46.0058 H   0  0  0  0  0  0  0  0  0  0  0  0
   58.3632   35.3430   47.2816 H   0  0  0  0  0  0  0  0  0  0  0  0
   60.5668   34.2314   47.6557 H   0  0  0  0  0  0  0  0  0  0  0  0
   60.9745   31.9423   46.7613 H   0  0  0  0  0  0  0  0  0  0  0  0
   59.5161   30.6448   43.4035 H   0  0  0  0  0  0  0  0  0  0  0  0
   59.5128   28.9516   44.0799 H   0  0  0  0  0  0  0  0  0  0  0  0
  1  2  1  0
  2  3  1  0
  3  4  1  0
  4  5  1  0
  3  6  1  0
  6  7  1  0
  7  8  1  0
  8  9  1  0
  9 10  2  0
  9 11  1  0
 11 12  1  0
 12 13  1  0
 13 14  1  0
 14 15  2  0
 15 16  1  0
 16 17  2  0
 17 18  1  0
 18 19  2  0
 19 20  1  0
 20 21  1  0
 21 11  1  0
 19 14  1  0
  1 22  1  0
  1 23  1  0
  1 24  1  0
  2 25  1  0
  2 26  1  0
  3 27  1  0
  4 28  1  0
  4 29  1  0
  5 30  1  0
  5 31  1  0
  5 32  1  0
  6 33  1  0
  6 34  1  0
  7 35  1  0
  7 36  1  0
 11 37  1  0
 12 38  1  0
 12 39  1  0
 15 40  1  0
 16 41  1  0
 17 42  1  0
 18 43  1  0
 21 44  1  0
 21 45  1  0
M  CHG  1   3   1
M  END
>  <UniqueID>  (17) 
17

>  <SMILES>  (17) 
CC[NH+](CC)CCOC(=O)C1COc2ccccc2OC1

>  <Energy>  (17) 
57.24180682663569

>  <Genealogy>  (17) 
CC[NH+](CC)CCOC(=O)C1COc2ccccc2OC1 (protonated)
CC[NH+](CC)CCOC(=O)C1COc2ccccc2OC1 (3D coordinates assigned)
CC[NH+](CC)CCOC(=O)C1COc2ccccc2OC1 (nonaromatic ring conformer: 57.24180682663569 kcal/mol)

>  <smiles>  (17) 
CCN(CC)CCOC(=O)C1COc2ccccc2OC1

>  <score_type>  (17) 
oracle

>  <origin>  (17) 
adg

>  <m_score__min__energy>  (17) 
-1.9399999999999999

>  <m_primary>  (17) 
energy

$$$$
17:0
     RDKit          3D

 44 45  0  0  0  0  0  0  0  0999 V2000
   64.7950   33.0920   49.1770 C   0  0  0  0  0  0  0  0  0  0  0  0
   64.0380   32.8480   47.9540 N   0  0  0  0  0  0  0  0  0  0  0  0
   62.6000   32.8080   47.9040 C   0  0  0  0  0  0  0  0  0  0  0  0
   61.8680   33.9550   48.2500 C   0  0  0  0  0  0  0  0  0  0  0  0
   60.4710   33.9380   48.2300 C   0  0  0  0  0  0  0  0  0  0  0  0
   59.7880   32.7700   47.8770 C   0  0  0  0  0  0  0  0  0  0  0  0
   57.9930   32.7270   47.9120 S   0  0  0  0  0  0  0  0  0  0  0  0
   57.7630   33.7590   46.4130 C   0  0  0  0  0  0  0  0  0  0  0  0
   58.5000   33.1840   45.1720 C   0  0  2  0  0  0  0  0  0  0  0  0
   59.3930   34.2400   44.5020 C   0  0  0  0  0  0  0  0  0  0  0  0
   57.5320   32.5290   44.1490 C   0  0  0  0  0  0  0  0  0  0  0  0
   58.0270   31.2350   43.5810 N   0  0  0  0  0  0  0  0  0  0  0  0
   56.9680   30.5230   42.8320 C   0  0  0  0  0  0  0  0  0  0  0  0
   55.8640   29.9820   43.7720 C   0  0  0  0  0  0  0  0  0  0  0  0
   56.2150   30.0820   45.1400 O   0  0  0  0  0  0  0  0  0  0  0  0
   57.4960   29.5240   45.3490 C   0  0  0  0  0  0  0  0  0  0  0  0
   58.5890   30.3450   44.6280 C   0  0  0  0  0  0  0  0  0  0  0  0
   60.5070   31.6310   47.4990 C   0  0  0  0  0  0  0  0  0  0  0  0
   61.9040   31.6450   47.5190 C   0  0  0  0  0  0  0  0  0  0  0  0
   64.1578   32.8866   50.0498 H   0  0  0  0  0  0  0  0  0  0  0  0
   65.6745   32.4318   49.2017 H   0  0  0  0  0  0  0  0  0  0  0  0
   65.1235   34.1415   49.2017 H   0  0  0  0  0  0  0  0  0  0  0  0
   64.5780   32.7100   47.0690 H   0  0  0  0  0  0  0  0  0  0  0  0
   62.3985   34.8743   48.5391 H   0  0  0  0  0  0  0  0  0  0  0  0
   59.9073   34.8454   48.4925 H   0  0  0  0  0  0  0  0  0  0  0  0
   56.6879   33.8184   46.1879 H   0  0  0  0  0  0  0  0  0  0  0  0
   58.1893   34.7510   46.6232 H   0  0  0  0  0  0  0  0  0  0  0  0
   59.1524   32.3811   45.5458 H   0  0  0  0  0  0  0  0  0  0  0  0
   59.8980   34.8372   45.2755 H   0  0  0  0  0  0  0  0  0  0  0  0
   60.1459   33.7394   43.8755 H   0  0  0  0  0  0  0  0  0  0  0  0
   58.7743   34.8993   43.8755 H   0  0  0  0  0  0  0  0  0  0  0  0
   56.5726   32.3405   44.6530 H   0  0  0  0  0  0  0  0  0  0  0  0
   57.4388   33.2302   43.3066 H   0  0  0  0  0  0  0  0  0  0  0  0
   58.7970   31.4170   42.8970 H   0  0  0  0  0  0  0  0  0  0  0  0
   56.5128   31.2182   42.1113 H   0  0  0  0  0  0  0  0  0  0  0  0
   57.4293   29.6668   42.3181 H   0  0  0  0  0  0  0  0  0  0  0  0
   54.9429   30.5587   43.6018 H   0  0  0  0  0  0  0  0  0  0  0  0
   55.7241   28.9155   43.5416 H   0  0  0  0  0  0  0  0  0  0  0  0
   57.7100   29.5116   46.4279 H   0  0  0  0  0  0  0  0  0  0  0  0
   57.5015   28.5029   44.9401 H   0  0  0  0  0  0  0  0  0  0  0  0
   59.1159   30.9618   45.3710 H   0  0  0  0  0  0  0  0  0  0  0  0
   59.2722   29.6368   44.1363 H   0  0  0  0  0  0  0  0  0  0  0  0
   59.9715   30.7227   47.1855 H   0  0  0  0  0  0  0  0  0  0  0  0
   62.4639   30.7426   47.2324 H   0  0  0  0  0  0  0  0  0  0  0  0
  1  2  1  0
  2  3  1  0
  3  4  2  0
  4  5  1  0
  5  6  2  0
  6  7  1  0
  7  8  1  0
  8  9  1  0
  9 10  1  0
  9 11  1  0
 11 12  1  0
 12 13  1  0
 13 14  1  0
 14 15  1  0
 15 16  1  0
 16 17  1  0
  6 18  1  0
 18 19  2  0
 19  3  1  0
 17 12  1  0
  1 20  1  0
  1 21  1  0
  1 22  1  0
  2 23  1  0
  4 24  1  0
  5 25  1  0
  8 26  1  0
  8 27  1  0
  9 28  1  1
 10 29  1  0
 10 30  1  0
 10 31  1  0
 11 32  1  0
 11 33  1  0
 12 34  1  0
 13 35  1  0
 13 36  1  0
 14 37  1  0
 14 38  1  0
 16 39  1  0
 16 40  1  0
 17 41  1  0
 17 42  1  0
 18 43  1  0
 19 44  1  0
M  CHG  1  12   1
M  END
>  <UniqueID>  (18) 
18

>  <SMILES>  (18) 
CNc1ccc(SC[C@H](C)C[NH+]2CCOCC2)cc1

>  <Energy>  (18) 
50.900473257577254

>  <Genealogy>  (18) 
CNc1ccc(SCC(C)C[NH+]2CCOCC2)cc1 (protonated)
CNc1ccc(SC[C@H](C)C[NH+]2CCOCC2)cc1 (chirality)
CNc1ccc(SC[C@H](C)C[NH+]2CCOCC2)cc1 (3D coordinates assigned)
CNc1ccc(SC[C@H](C)C[NH+]2CCOCC2)cc1 (nonaromatic ring conformer: 50.900473257577254 kcal/mol)

>  <smiles>  (18) 
CNc1ccc(SCC(C)CN2CCOCC2)cc1

>  <score_type>  (18) 
oracle

>  <origin>  (18) 
adg

>  <m_score__min__energy>  (18) 
-5.9800000000000004

>  <m_primary>  (18) 
energy

$$$$
18:0
     RDKit          3D

 61 64  0  0  0  0  0  0  0  0999 V2000
   59.6440   35.1830   46.2840 C   0  0  0  0  0  0  0  0  0  0  0  0
   59.6490   34.3030   45.0230 C   0  0  0  0  0  0  0  0  0  0  0  0
   58.6180   33.2370   45.0180 N   0  0  0  0  0  0  0  0  0  0  0  0
   57.5150   33.4730   45.9770 C   0  0  0  0  0  0  0  0  0  0  0  0
   57.7880   32.7510   47.2920 C   0  0  0  0  0  0  0  0  0  0  0  0
   58.1440   32.8950   43.6550 C   0  0  0  0  0  0  0  0  0  0  0  0
   57.3170   31.6040   43.6870 C   0  0  0  0  0  0  0  0  0  0  0  0
   58.1680   30.4180   43.7990 N   0  0  0  0  0  0  0  0  0  0  0  0
   58.6580   29.8720   45.0400 C   0  0  0  0  0  0  0  0  0  0  0  0
   57.7400   29.5440   46.0500 C   0  0  0  0  0  0  0  0  0  0  0  0
   58.1770   29.0140   47.2660 C   0  0  0  0  0  0  0  0  0  0  0  0
   59.5450   28.8050   47.4970 C   0  0  0  0  0  0  0  0  0  0  0  0
   60.0170   28.1940   48.7870 C   0  0  0  0  0  0  0  0  0  0  0  0
   60.8710   29.1350   49.5090 N   0  0  0  0  0  0  0  0  0  0  0  0
   60.4740   30.5090   49.6360 C   0  0  0  0  0  0  0  0  0  0  0  0
   61.2000   31.5380   48.9950 C   0  0  0  0  0  0  0  0  0  0  0  0
   62.2870   31.2280   48.1500 C   0  0  0  0  0  0  0  0  0  0  0  0
   63.0140   32.2390   47.5270 C   0  0  0  0  0  0  0  0  0  0  0  0
   62.6680   33.5710   47.7240 C   0  0  0  0  0  0  0  0  0  0  0  0
   61.5840   33.9050   48.5370 C   0  0  0  0  0  0  0  0  0  0  0  0
   60.8230   32.9000   49.1800 C   0  0  0  0  0  0  0  0  0  0  0  0
   59.6970   33.2110   49.9910 C   0  0  0  0  0  0  0  0  0  0  0  0
   59.2720   34.5280   50.2170 O   0  0  0  0  0  0  0  0  0  0  0  0
   58.9650   32.1700   50.5950 C   0  0  0  0  0  0  0  0  0  0  0  0
   57.8380   32.4390   51.3950 C   0  0  0  0  0  0  0  0  0  0  0  0
   57.1340   31.3930   51.9910 C   0  0  0  0  0  0  0  0  0  0  0  0
   57.5570   30.0820   51.7900 C   0  0  0  0  0  0  0  0  0  0  0  0
   58.6460   29.8300   51.0180 N   0  0  0  0  0  0  0  0  0  0  0  0
   59.3550   30.8260   50.4160 C   0  0  0  0  0  0  0  0  0  0  0  0
   60.4670   29.1180   46.4870 C   0  0  0  0  0  0  0  0  0  0  0  0
   60.0310   29.6550   45.2720 C   0  0  0  0  0  0  0  0  0  0  0  0
   59.6476   34.5424   47.1782 H   0  0  0  0  0  0  0  0  0  0  0  0
   60.5385   35.8232   46.2879 H   0  0  0  0  0  0  0  0  0  0  0  0
   58.7423   35.8130   46.2879 H   0  0  0  0  0  0  0  0  0  0  0  0
   59.4789   34.9507   44.1503 H   0  0  0  0  0  0  0  0  0  0  0  0
   60.6253   33.7968   44.9963 H   0  0  0  0  0  0  0  0  0  0  0  0
   57.4262   34.5526   46.1683 H   0  0  0  0  0  0  0  0  0  0  0  0
   56.5797   33.0864   45.5461 H   0  0  0  0  0  0  0  0  0  0  0  0
   57.5373   33.4140   48.1332 H   0  0  0  0  0  0  0  0  0  0  0  0
   57.1717   31.8414   47.3457 H   0  0  0  0  0  0  0  0  0  0  0  0
   58.8519   32.4767   47.3457 H   0  0  0  0  0  0  0  0  0  0  0  0
   57.5205   33.7159   43.2711 H   0  0  0  0  0  0  0  0  0  0  0  0
   59.0153   32.7455   43.0004 H   0  0  0  0  0  0  0  0  0  0  0  0
   56.6370   31.6376   44.5510 H   0  0  0  0  0  0  0  0  0  0  0  0
   56.7541   31.5341   42.7446 H   0  0  0  0  0  0  0  0  0  0  0  0
   58.4220   29.9320   42.9080 H   0  0  0  0  0  0  0  0  0  0  0  0
   56.6651   29.7061   45.8819 H   0  0  0  0  0  0  0  0  0  0  0  0
   57.4450   28.7592   48.0465 H   0  0  0  0  0  0  0  0  0  0  0  0
   59.1460   27.9424   49.4099 H   0  0  0  0  0  0  0  0  0  0  0  0
   60.5942   27.2847   48.5632 H   0  0  0  0  0  0  0  0  0  0  0  0
   61.8950   28.9310   49.5430 H   0  0  0  0  0  0  0  0  0  0  0  0
   62.5628   30.1765   47.9818 H   0  0  0  0  0  0  0  0  0  0  0  0
   63.8641   31.9832   46.8774 H   0  0  0  0  0  0  0  0  0  0  0  0
   63.2517   34.3658   47.2365 H   0  0  0  0  0  0  0  0  0  0  0  0
   61.3178   34.9627   48.6798 H   0  0  0  0  0  0  0  0  0  0  0  0
   58.8930   34.8790   51.0840 H   0  0  0  0  0  0  0  0  0  0  0  0
   57.5117   33.4779   51.5505 H   0  0  0  0  0  0  0  0  0  0  0  0
   56.2522   31.6020   52.6145 H   0  0  0  0  0  0  0  0  0  0  0  0
   57.0092   29.2499   52.2565 H   0  0  0  0  0  0  0  0  0  0  0  0
   61.5398   28.9398   46.6521 H   0  0  0  0  0  0  0  0  0  0  0  0
   60.7641   29.9097   44.4924 H   0  0  0  0  0  0  0  0  0  0  0  0
  1  2  1  0
  2  3  1  0
  3  4  1  0
  4  5  1  0
  3  6  1  0
  6  7  1  0
  7  8  1  0
  8  9  1  0
  9 10  2  0
 10 11  1  0
 11 12  2  0
 12 13  1  0
 13 14  1  0
 14 15  1  0
 15 16  1  0
 16 17  2  0
 17 18  1  0
 18 19  2  0
 19 20  1  0
 20 21  2  0
 21 22  1  0
 22 23  1  0
 22 24  2  0
 24 25  1  0
 25 26  2  0
 26 27  1  0
 27 28  2  0
 28 29  1  0
 12 30  1  0
 30 31  2  0
 31  9  1  0
 29 15  2  0
 21 16  1  0
 29 24  1  0
  1 32  1  0
  1 33  1  0
  1 34  1  0
  2 35  1  0
  2 36  1  0
  4 37  1  0
  4 38  1  0
  5 39  1  0
  5 40  1  0
  5 41  1  0
  6 42  1  0
  6 43  1  0
  7 44  1  0
  7 45  1  0
  8 46  1  0
 10 47  1  0
 11 48  1  0
 13 49  1  0
 13 50  1  0
 14 51  1  0
 17 52  1  0
 18 53  1  0
 19 54  1  0
 20 55  1  0
 23 56  1  0
 25 57  1  0
 26 58  1  0
 27 59  1  0
 30 60  1  0
 31 61  1  0
M  END
>  <UniqueID>  (19) 
19

>  <SMILES>  (19) 
CCN(CC)CCNc1ccc(CNc2c3ccccc3c(O)c3cccnc23)cc1

>  <Energy>  (19) 
82.04654873272476

>  <Genealogy>  (19) 
CCN(CC)CCNc1ccc(CNc2c3ccccc3c(O)c3cccnc23)cc1 (3D coordinates assigned)
CCN(CC)CCNc1ccc(CNc2c3ccccc3c(O)c3cccnc23)cc1 (optimized conformer: 82.04654873272476 kcal/mol)

>  <smiles>  (19) 
CCN(CC)CCNc1ccc(CNc2c3ccccc3c(O)c3cccnc23)cc1

>  <score_type>  (19) 
oracle

>  <origin>  (19) 
adg

>  <m_score__min__energy>  (19) 
-7.7999999999999998

>  <m_primary>  (19) 
energy

$$$$
19:0
     RDKit          3D

 61 64  0  0  0  0  0  0  0  0999 V2000
   59.0370   32.4110   50.4050 C   0  0  0  0  0  0  0  0  0  0  0  0
   59.6710   31.8740   49.2490 O   0  0  0  0  0  0  0  0  0  0  0  0
   60.9770   32.1850   48.8410 C   0  0  0  0  0  0  0  0  0  0  0  0
   61.6540   33.3270   49.3170 C   0  0  0  0  0  0  0  0  0  0  0  0
   62.9410   33.6260   48.8640 C   0  0  0  0  0  0  0  0  0  0  0  0
   63.5680   32.7950   47.9360 C   0  0  0  0  0  0  0  0  0  0  0  0
   62.9120   31.6580   47.4610 C   0  0  0  0  0  0  0  0  0  0  0  0
   61.6210   31.3400   47.9130 C   0  0  0  0  0  0  0  0  0  0  0  0
   60.9660   30.1560   47.4260 N   0  0  0  0  0  0  0  0  0  0  0  0
   60.1790   29.3310   48.3480 C   0  0  0  0  0  0  0  0  0  0  0  0
   60.2620   27.8490   47.9470 C   0  0  0  0  0  0  0  0  0  0  0  0
   60.2040   27.6320   46.4810 N   0  0  0  0  0  0  0  0  0  0  0  0
   59.5500   26.3690   46.0650 C   0  0  0  0  0  0  0  0  0  0  0  0
   58.0320   26.2610   46.3710 C   0  0  1  0  0  0  0  0  0  0  0  0
   57.7640   26.9500   47.5640 O   0  0  0  0  0  0  0  0  0  0  0  0
   57.1580   26.8420   45.2480 C   0  0  0  0  0  0  0  0  0  0  0  0
   56.7360   28.1700   45.5650 O   0  0  0  0  0  0  0  0  0  0  0  0
   56.9430   29.3160   44.7780 C   0  0  0  0  0  0  0  0  0  0  0  0
   56.6350   29.3700   43.4050 C   0  0  0  0  0  0  0  0  0  0  0  0
   56.8590   30.5430   42.6800 C   0  0  0  0  0  0  0  0  0  0  0  0
   57.3870   31.6710   43.3110 C   0  0  0  0  0  0  0  0  0  0  0  0
   57.6980   31.6390   44.6810 C   0  0  0  0  0  0  0  0  0  0  0  0
   58.2600   32.8380   45.3540 C   0  0  0  0  0  0  0  0  0  0  0  0
   58.1830   32.9750   46.7540 C   0  0  0  0  0  0  0  0  0  0  0  0
   58.7120   34.1050   47.3850 C   0  0  0  0  0  0  0  0  0  0  0  0
   59.3200   35.1090   46.6300 C   0  0  0  0  0  0  0  0  0  0  0  0
   59.4010   34.9870   45.2410 C   0  0  0  0  0  0  0  0  0  0  0  0
   58.8760   33.8580   44.6040 C   0  0  0  0  0  0  0  0  0  0  0  0
   57.4690   30.4530   45.4040 C   0  0  0  0  0  0  0  0  0  0  0  0
   59.8720   28.8140   45.6650 C   0  0  0  0  0  0  0  0  0  0  0  0
   60.8560   29.9440   45.9770 C   0  0  0  0  0  0  0  0  0  0  0  0
   59.5163   32.0050   51.3080 H   0  0  0  0  0  0  0  0  0  0  0  0
   59.1329   33.5068   50.4001 H   0  0  0  0  0  0  0  0  0  0  0  0
   57.9719   32.1361   50.4001 H   0  0  0  0  0  0  0  0  0  0  0  0
   61.1655   33.9863   50.0495 H   0  0  0  0  0  0  0  0  0  0  0  0
   63.4613   34.5192   49.2402 H   0  0  0  0  0  0  0  0  0  0  0  0
   64.5800   33.0356   47.5782 H   0  0  0  0  0  0  0  0  0  0  0  0
   63.4098   31.0066   46.7276 H   0  0  0  0  0  0  0  0  0  0  0  0
   60.5717   29.4527   49.3683 H   0  0  0  0  0  0  0  0  0  0  0  0
   59.1281   29.6532   48.3060 H   0  0  0  0  0  0  0  0  0  0  0  0
   61.2107   27.4385   48.3231 H   0  0  0  0  0  0  0  0  0  0  0  0
   59.3883   27.3443   48.3851 H   0  0  0  0  0  0  0  0  0  0  0  0
   59.6836   26.2619   44.9784 H   0  0  0  0  0  0  0  0  0  0  0  0
   60.0308   25.5753   46.6556 H   0  0  0  0  0  0  0  0  0  0  0  0
   57.7836   25.1931   46.4594 H   0  0  0  0  0  0  0  0  0  0  0  0
   57.9370   27.9130   47.3900 H   0  0  0  0  0  0  0  0  0  0  0  0
   57.7384   26.8620   44.3138 H   0  0  0  0  0  0  0  0  0  0  0  0
   56.2664   26.2081   45.1332 H   0  0  0  0  0  0  0  0  0  0  0  0
   56.2167   28.4858   42.9017 H   0  0  0  0  0  0  0  0  0  0  0  0
   56.6183   30.5780   41.6072 H   0  0  0  0  0  0  0  0  0  0  0  0
   57.5606   32.5902   42.7323 H   0  0  0  0  0  0  0  0  0  0  0  0
   57.7036   32.1879   47.3546 H   0  0  0  0  0  0  0  0  0  0  0  0
   58.6488   34.2029   48.4788 H   0  0  0  0  0  0  0  0  0  0  0  0
   59.7356   35.9968   47.1291 H   0  0  0  0  0  0  0  0  0  0  0  0
   59.8785   35.7802   44.6471 H   0  0  0  0  0  0  0  0  0  0  0  0
   58.9448   33.7663   43.5100 H   0  0  0  0  0  0  0  0  0  0  0  0
   57.7069   30.4188   46.4774 H   0  0  0  0  0  0  0  0  0  0  0  0
   59.9394   28.5536   44.5984 H   0  0  0  0  0  0  0  0  0  0  0  0
   58.8491   29.1445   45.8986 H   0  0  0  0  0  0  0  0  0  0  0  0
   61.8457   29.6814   45.5750 H   0  0  0  0  0  0  0  0  0  0  0  0
   60.4870   30.8704   45.5126 H   0  0  0  0  0  0  0  0  0  0  0  0
  1  2  1  0
  2  3  1  0
  3  4  2  0
  4  5  1  0
  5  6  2  0
  6  7  1  0
  7  8  2  0
  8  9  1  0
  9 10  1  0
 10 11  1  0
 11 12  1  0
 12 13  1  0
 13 14  1  0
 14 15  1  0
 14 16  1  0
 16 17  1  0
 17 18  1  0
 18 19  2  0
 19 20  1  0
 20 21  2  0
 21 22  1  0
 22 23  1  0
 23 24  2  0
 24 25  1  0
 25 26  2  0
 26 27  1  0
 27 28  2  0
 22 29  2  0
 12 30  1  0
 30 31  1  0
  8  3  1  0
 31  9  1  0
 29 18  1  0
 28 23  1  0
  1 32  1  0
  1 33  1  0
  1 34  1  0
  4 35  1  0
  5 36  1  0
  6 37  1  0
  7 38  1  0
 10 39  1  0
 10 40  1  0
 11 41  1  0
 11 42  1  0
 13 43  1  0
 13 44  1  0
 14 45  1  1
 15 46  1  0
 16 47  1  0
 16 48  1  0
 19 49  1  0
 20 50  1  0
 21 51  1  0
 24 52  1  0
 25 53  1  0
 26 54  1  0
 27 55  1  0
 28 56  1  0
 29 57  1  0
 30 58  1  0
 30 59  1  0
 31 60  1  0
 31 61  1  0
M  END
>  <UniqueID>  (20) 
20

>  <SMILES>  (20) 
COc1ccccc1N1CCN(C[C@@H](O)COc2cccc(-c3ccccc3)c2)CC1

>  <Energy>  (20) 
84.80494277258941

>  <Genealogy>  (20) 
COc1ccccc1N1CCN(C[C@@H](O)COc2cccc(-c3ccccc3)c2)CC1 (chirality)
COc1ccccc1N1CCN(C[C@@H](O)COc2cccc(-c3ccccc3)c2)CC1 (3D coordinates assigned)
COc1ccccc1N1CCN(C[C@@H](O)COc2cccc(-c3ccccc3)c2)CC1 (nonaromatic ring conformer: 84.80494277258941 kcal/mol)

>  <smiles>  (20) 
COc1ccccc1N1CCN(CC(O)COc2cccc(-c3ccccc3)c2)CC1

>  <score_type>  (20) 
oracle

>  <origin>  (20) 
adg

>  <m_score__min__energy>  (20) 
-9.7699999999999996

>  <m_primary>  (20) 
energy

$$$$
20:0
     RDKit          3D

 31 33  0  0  0  0  0  0  0  0999 V2000
   59.5610   35.3470   44.7190 O   0  0  0  0  0  0  0  0  0  0  0  0
   59.0680   34.3650   45.3330 C   0  0  0  0  0  0  0  0  0  0  0  0
   58.3950   33.2280   44.7140 C   0  0  0  0  0  0  0  0  0  0  0  0
   58.1180   32.9520   43.3800 C   0  0  0  0  0  0  0  0  0  0  0  0
   57.4600   31.7490   43.0740 C   0  0  0  0  0  0  0  0  0  0  0  0
   57.0930   30.8370   44.1020 C   0  0  0  0  0  0  0  0  0  0  0  0
   56.4220   29.6060   43.7800 N   0  0  0  0  0  0  0  0  0  0  0  0
   56.6440   29.0240   42.6970 O   0  0  0  0  0  0  0  0  0  0  0  0
   55.5250   29.0480   44.6610 O   0  0  0  0  0  0  0  0  0  0  0  0
   57.3970   31.1500   45.4460 C   0  0  0  0  0  0  0  0  0  0  0  0
   58.0440   32.3530   45.7180 C   0  0  0  0  0  0  0  0  0  0  0  0
   58.4930   32.9280   46.9810 C   0  0  0  0  0  0  0  0  0  0  0  0
   58.3760   32.3900   48.1140 O   0  0  0  0  0  0  0  0  0  0  0  0
   59.1110   34.1980   46.7530 N   0  0  0  0  0  0  0  0  0  0  0  0
   59.9780   34.9170   47.6820 C   0  0  0  0  0  0  0  0  0  0  0  0
   61.2830   34.1870   47.8450 C   0  0  0  0  0  0  0  0  0  0  0  0
   62.0460   33.8400   46.7170 C   0  0  0  0  0  0  0  0  0  0  0  0
   63.2780   33.1970   46.8720 C   0  0  0  0  0  0  0  0  0  0  0  0
   63.7600   32.9040   48.1500 C   0  0  0  0  0  0  0  0  0  0  0  0
   63.0120   33.2570   49.2770 C   0  0  0  0  0  0  0  0  0  0  0  0
   61.7790   33.9000   49.1270 C   0  0  0  0  0  0  0  0  0  0  0  0
   58.4061   33.6563   42.5857 H   0  0  0  0  0  0  0  0  0  0  0  0
   57.2257   31.5094   42.0263 H   0  0  0  0  0  0  0  0  0  0  0  0
   57.1288   30.4592   46.2589 H   0  0  0  0  0  0  0  0  0  0  0  0
   60.1727   35.9263   47.2903 H   0  0  0  0  0  0  0  0  0  0  0  0
   59.4793   34.9836   48.6602 H   0  0  0  0  0  0  0  0  0  0  0  0
   61.6730   34.0749   45.7092 H   0  0  0  0  0  0  0  0  0  0  0  0
   63.8687   32.9214   45.9860 H   0  0  0  0  0  0  0  0  0  0  0  0
   64.7281   32.3955   48.2695 H   0  0  0  0  0  0  0  0  0  0  0  0
   63.3936   33.0288   50.2831 H   0  0  0  0  0  0  0  0  0  0  0  0
   61.1959   34.1818   50.0162 H   0  0  0  0  0  0  0  0  0  0  0  0
  1  2  2  0
  2  3  1  0
  3  4  2  0
  4  5  1  0
  5  6  2  0
  6  7  1  0
  7  8  2  0
  7  9  1  0
  6 10  1  0
 10 11  2  0
 11 12  1  0
 12 13  2  0
 12 14  1  0
 14 15  1  0
 15 16  1  0
 16 17  2  0
 17 18  1  0
 18 19  2  0
 19 20  1  0
 20 21  2  0
 14  2  1  0
 21 16  1  0
 11  3  1  0
  4 22  1  0
  5 23  1  0
 10 24  1  0
 15 25  1  0
 15 26  1  0
 17 27  1  0
 18 28  1  0
 19 29  1  0
 20 30  1  0
 21 31  1  0
M  CHG  2   7   1   9  -1
M  END
>  <UniqueID>  (21) 
21

>  <SMILES>  (21) 
O=C1c2ccc([N+](=O)[O-])cc2C(=O)N1Cc1ccccc1

>  <Energy>  (21) 
64.93233680023708

>  <Genealogy>  (21) 
O=C1c2ccc([N+](=O)[O-])cc2C(=O)N1Cc1ccccc1 (3D coordinates assigned)
O=C1c2ccc([N+](=O)[O-])cc2C(=O)N1Cc1ccccc1 (nonaromatic ring conformer: 64.93233680023708 kcal/mol)

>  <smiles>  (21) 
O=C1c2ccc([N+](=O)[O-])cc2C(=O)N1Cc1ccccc1

>  <score_type>  (21) 
oracle

>  <origin>  (21) 
adg

>  <m_score__min__energy>  (21) 
-7.96

>  <m_primary>  (21) 
energy

$$$$
21:0
     RDKit          3D

 35 37  0  0  0  0  0  0  0  0999 V2000
   57.1713   29.9562   42.7123 H   0  0  0  0  0  0  0  0  0  0  0  0
   57.5020   30.7760   43.3670 C   0  0  0  0  0  0  0  0  0  0  0  0
   57.6940   30.5440   44.7290 C   0  0  0  0  0  0  0  0  0  0  0  0
   57.5144   29.5401   45.1413 H   0  0  0  0  0  0  0  0  0  0  0  0
   58.1160   31.5840   45.5820 C   0  0  0  0  0  0  0  0  0  0  0  0
   58.3420   31.3570   46.9500 O   0  0  0  0  0  0  0  0  0  0  0  0
   59.5760   30.9160   47.5080 C   0  0  0  0  0  0  0  0  0  0  0  0
   59.5111   30.9392   48.6058 H   0  0  0  0  0  0  0  0  0  0  0  0
   59.7827   29.8883   47.1746 H   0  0  0  0  0  0  0  0  0  0  0  0
   60.3872   31.5799   47.1746 H   0  0  0  0  0  0  0  0  0  0  0  0
   58.3310   32.8780   45.0450 C   0  0  0  0  0  0  0  0  0  0  0  0
   58.7650   34.0150   45.8970 C   0  0  0  0  0  0  0  0  0  0  0  0
   57.9390   34.5670   46.6740 O   0  0  0  0  0  0  0  0  0  0  0  0
   60.1400   34.4140   45.9360 N   0  0  0  0  0  0  0  0  0  0  0  0
   61.0500   34.1510   46.8350 C   0  0  0  0  0  0  0  0  0  0  0  0
   62.6440   33.8260   46.3850 S   0  0  0  0  0  0  0  0  0  0  0  0
   63.1130   33.5020   47.9570 C   0  0  0  0  0  0  0  0  0  0  0  0
   64.3690   33.1100   48.4100 C   0  0  0  0  0  0  0  0  0  0  0  0
   65.2087   32.9891   47.7098 H   0  0  0  0  0  0  0  0  0  0  0  0
   64.5370   32.8730   49.7820 C   0  0  0  0  0  0  0  0  0  0  0  0
   66.2400   32.3300   50.4530 Br  0  0  0  0  0  0  0  0  0  0  0  0
   63.4510   33.0260   50.6640 C   0  0  0  0  0  0  0  0  0  0  0  0
   63.5895   32.8313   51.7377 H   0  0  0  0  0  0  0  0  0  0  0  0
   62.1920   33.4250   50.1860 C   0  0  0  0  0  0  0  0  0  0  0  0
   61.3447   33.5421   50.8777 H   0  0  0  0  0  0  0  0  0  0  0  0
   62.0290   33.6730   48.8100 C   0  0  0  0  0  0  0  0  0  0  0  0
   60.8720   34.0820   48.1960 N   0  0  0  0  0  0  0  0  0  0  0  0
   59.6890   34.5350   48.9420 C   0  0  0  0  0  0  0  0  0  0  0  0
   59.8854   34.4598   50.0217 H   0  0  0  0  0  0  0  0  0  0  0  0
   59.4694   35.5808   48.6812 H   0  0  0  0  0  0  0  0  0  0  0  0
   58.8270   33.9033   48.6812 H   0  0  0  0  0  0  0  0  0  0  0  0
   58.1410   33.0880   43.6660 C   0  0  0  0  0  0  0  0  0  0  0  0
   58.3197   34.0857   43.2387 H   0  0  0  0  0  0  0  0  0  0  0  0
   57.7280   32.0440   42.8330 C   0  0  0  0  0  0  0  0  0  0  0  0
   57.4890   32.3290   41.1200 Cl  0  0  0  0  0  0  0  0  0  0  0  0
  1  2  1  0
  2  3  2  0
  3  4  1  0
  3  5  1  0
  5  6  1  0
  6  7  1  0
  7  8  1  0
  7  9  1  0
  7 10  1  0
  5 11  2  0
 11 12  1  0
 12 13  2  0
 12 14  1  0
 14 15  2  0
 15 16  1  0
 16 17  1  0
 17 18  2  0
 18 19  1  0
 18 20  1  0
 20 21  1  0
 20 22  2  0
 22 23  1  0
 22 24  1  0
 24 25  1  0
 24 26  2  0
 26 27  1  0
 27 28  1  0
 28 29  1  0
 28 30  1  0
 28 31  1  0
 11 32  1  0
 32 33  1  0
 32 34  2  0
 34 35  1  0
 34  2  1  0
 27 15  1  0
 26 17  1  0
M  END
>  <UniqueID>  (22) 
22

>  <SMILES>  (22) 
COc1ccc(Cl)cc1C(=O)/N=c1/sc2cc(Br)ccc2n1C

>  <Energy>  (22) 
90.05877298789373

>  <Genealogy>  (22) 
COc1ccc(Cl)cc1C(=O)/N=c1/sc2cc(Br)ccc2n1C (cis-trans isomerization)
COc1ccc(Cl)cc1C(=O)/N=c1/sc2cc(Br)ccc2n1C (3D coordinates assigned)
COc1ccc(Cl)cc1C(=O)/N=c1/sc2cc(Br)ccc2n1C (optimized conformer: 90.05877298789373 kcal/mol)

>  <smiles>  (22) 
COc1ccc(Cl)cc1C(=O)N=c1sc2cc(Br)ccc2n1C

>  <score_type>  (22) 
oracle

>  <origin>  (22) 
adg

>  <m_score__min__energy>  (22) 
-7.9199999999999999

>  <m_primary>  (22) 
energy

$$$$
22:0
     RDKit          3D

 39 41  0  0  0  0  0  0  0  0999 V2000
   62.9820   33.3200   47.1290 C   0  0  0  0  0  0  0  0  0  0  0  0
   61.7130   33.8150   46.4370 C   0  0  0  0  0  0  0  0  0  0  0  0
   60.6970   34.3780   47.4370 C   0  0  0  0  0  0  0  0  0  0  0  0
   59.6820   35.1830   46.7460 N   0  0  0  0  0  0  0  0  0  0  0  0
   59.3250   34.5650   45.4640 C   0  0  0  0  0  0  0  0  0  0  0  0
   58.1540   33.6400   45.6550 C   0  0  0  0  0  0  0  0  0  0  0  0
   58.2290   32.3600   46.0770 C   0  0  0  0  0  0  0  0  0  0  0  0
   57.8680   31.2500   45.1610 C   0  0  0  0  0  0  0  0  0  0  0  0
   56.6780   31.2730   44.4140 C   0  0  0  0  0  0  0  0  0  0  0  0
   56.2840   30.1440   43.6880 C   0  0  0  0  0  0  0  0  0  0  0  0
   57.0630   28.9840   43.7150 C   0  0  0  0  0  0  0  0  0  0  0  0
   58.2480   28.9510   44.4550 C   0  0  0  0  0  0  0  0  0  0  0  0
   58.6610   30.0850   45.1640 C   0  0  0  0  0  0  0  0  0  0  0  0
   60.2500   30.0930   46.0090 S   0  0  0  0  0  0  0  0  0  0  0  0
   59.5680   30.8190   47.5080 C   0  0  0  0  0  0  0  0  0  0  0  0
   59.8850   30.2700   48.7550 C   0  0  0  0  0  0  0  0  0  0  0  0
   59.3770   30.8470   49.9220 C   0  0  0  0  0  0  0  0  0  0  0  0
   58.5310   31.9560   49.8440 C   0  0  0  0  0  0  0  0  0  0  0  0
   58.1880   32.4910   48.5990 C   0  0  0  0  0  0  0  0  0  0  0  0
   58.7290   31.9490   47.4190 C   0  0  0  0  0  0  0  0  0  0  0  0
   62.8489   33.3719   48.2197 H   0  0  0  0  0  0  0  0  0  0  0  0
   63.1790   32.2791   46.8328 H   0  0  0  0  0  0  0  0  0  0  0  0
   63.8317   33.9526   46.8328 H   0  0  0  0  0  0  0  0  0  0  0  0
   61.9836   34.6060   45.7221 H   0  0  0  0  0  0  0  0  0  0  0  0
   61.2485   32.9590   45.9256 H   0  0  0  0  0  0  0  0  0  0  0  0
   60.2036   33.5447   47.9587 H   0  0  0  0  0  0  0  0  0  0  0  0
   61.2267   35.0184   48.1576 H   0  0  0  0  0  0  0  0  0  0  0  0
   58.8250   35.2040   47.3480 H   0  0  0  0  0  0  0  0  0  0  0  0
   59.0566   35.3502   44.7419 H   0  0  0  0  0  0  0  0  0  0  0  0
   60.1837   33.9917   45.0846 H   0  0  0  0  0  0  0  0  0  0  0  0
   57.1538   34.0399   45.4323 H   0  0  0  0  0  0  0  0  0  0  0  0
   56.0555   32.1798   44.4001 H   0  0  0  0  0  0  0  0  0  0  0  0
   55.3584   30.1693   43.0942 H   0  0  0  0  0  0  0  0  0  0  0  0
   56.7426   28.0947   43.1524 H   0  0  0  0  0  0  0  0  0  0  0  0
   58.8558   28.0345   44.4803 H   0  0  0  0  0  0  0  0  0  0  0  0
   60.5341   29.3841   48.8170 H   0  0  0  0  0  0  0  0  0  0  0  0
   59.6436   30.4274   50.9033 H   0  0  0  0  0  0  0  0  0  0  0  0
   58.1339   32.4092   50.7643 H   0  0  0  0  0  0  0  0  0  0  0  0
   57.4913   33.3403   48.5417 H   0  0  0  0  0  0  0  0  0  0  0  0
  1  2  1  0
  2  3  1  0
  3  4  1  0
  4  5  1  0
  5  6  1  0
  6  7  2  3
  7  8  1  0
  8  9  2  0
  9 10  1  0
 10 11  2  0
 11 12  1  0
 12 13  2  0
 13 14  1  0
 14 15  1  0
 15 16  2  0
 16 17  1  0
 17 18  2  0
 18 19  1  0
 19 20  2  0
 20  7  1  0
 13  8  1  0
 20 15  1  0
  1 21  1  0
  1 22  1  0
  1 23  1  0
  2 24  1  0
  2 25  1  0
  3 26  1  0
  3 27  1  0
  4 28  1  0
  5 29  1  0
  5 30  1  0
  6 31  1  0
  9 32  1  0
 10 33  1  0
 11 34  1  0
 12 35  1  0
 16 36  1  0
 17 37  1  0
 18 38  1  0
 19 39  1  0
M  END
>  <UniqueID>  (23) 
23

>  <SMILES>  (23) 
CCCNCC=C1c2ccccc2Sc2ccccc21

>  <Energy>  (23) 
56.61309441056182

>  <Genealogy>  (23) 
CCCNCC=C1c2ccccc2Sc2ccccc21 (3D coordinates assigned)
CCCNCC=C1c2ccccc2Sc2ccccc21 (nonaromatic ring conformer: 56.61309441056182 kcal/mol)

>  <smiles>  (23) 
CCCNCC=C1c2ccccc2Sc2ccccc21

>  <score_type>  (23) 
oracle

>  <origin>  (23) 
adg

>  <m_score__min__energy>  (23) 
-7.3499999999999996

>  <m_primary>  (23) 
energy

$$$$
23:0
     RDKit          3D

 40 42  0  0  0  0  0  0  0  0999 V2000
   57.4580   33.4570   45.9140 C   0  0  0  0  0  0  0  0  0  0  0  0
   57.7740   33.1040   44.4650 C   0  0  0  0  0  0  0  0  0  0  0  0
   57.1240   31.8890   44.0870 O   0  0  0  0  0  0  0  0  0  0  0  0
   57.4430   30.6070   44.5640 C   0  0  0  0  0  0  0  0  0  0  0  0
   58.7920   30.2930   44.7520 C   0  0  0  0  0  0  0  0  0  0  0  0
   59.1760   29.0330   45.2180 C   0  0  0  0  0  0  0  0  0  0  0  0
   58.2080   28.0460   45.5000 C   0  0  0  0  0  0  0  0  0  0  0  0
   58.5430   26.7440   45.9610 C   0  0  0  0  0  0  0  0  0  0  0  0
   60.0100   26.3440   46.1590 C   0  0  0  0  0  0  0  0  0  0  0  0
   60.7660   27.1420   47.1420 N   0  0  0  0  0  0  0  0  0  0  0  0
   59.9550   27.4790   48.3250 C   0  0  0  0  0  0  0  0  0  0  0  0
   59.8170   28.9640   48.4580 C   0  0  0  0  0  0  0  0  0  0  0  0
   58.9400   29.6190   49.2990 C   0  0  0  0  0  0  0  0  0  0  0  0
   59.1370   30.9630   49.0630 C   0  0  0  0  0  0  0  0  0  0  0  0
   60.1150   31.0420   48.0920 C   0  0  0  0  0  0  0  0  0  0  0  0
   60.4980   29.8340   47.7490 O   0  0  0  0  0  0  0  0  0  0  0  0
   57.4820   25.8730   46.2840 C   0  0  0  0  0  0  0  0  0  0  0  0
   56.1620   26.2800   46.0830 C   0  0  0  0  0  0  0  0  0  0  0  0
   55.2150   25.4930   46.3500 O   0  0  0  0  0  0  0  0  0  0  0  0
   55.8930   27.4900   45.6140 O   0  0  0  0  0  0  0  0  0  0  0  0
   56.8410   28.3730   45.3250 C   0  0  0  0  0  0  0  0  0  0  0  0
   56.4680   29.6370   44.8530 C   0  0  0  0  0  0  0  0  0  0  0  0
   58.0395   32.8075   46.5848 H   0  0  0  0  0  0  0  0  0  0  0  0
   57.7225   34.5082   46.1014 H   0  0  0  0  0  0  0  0  0  0  0  0
   56.3841   33.3101   46.1014 H   0  0  0  0  0  0  0  0  0  0  0  0
   57.4266   33.9176   43.8113 H   0  0  0  0  0  0  0  0  0  0  0  0
   58.8610   32.9696   44.3631 H   0  0  0  0  0  0  0  0  0  0  0  0
   59.5611   31.0475   44.5302 H   0  0  0  0  0  0  0  0  0  0  0  0
   60.2426   28.8085   45.3663 H   0  0  0  0  0  0  0  0  0  0  0  0
   60.0322   25.2945   46.4877 H   0  0  0  0  0  0  0  0  0  0  0  0
   60.5009   26.5201   45.1905 H   0  0  0  0  0  0  0  0  0  0  0  0
   61.5710   26.5550   47.4660 H   0  0  0  0  0  0  0  0  0  0  0  0
   61.1810   27.9910   46.6970 H   0  0  0  0  0  0  0  0  0  0  0  0
   58.9563   27.0303   48.2194 H   0  0  0  0  0  0  0  0  0  0  0  0
   60.4535   27.0853   49.2231 H   0  0  0  0  0  0  0  0  0  0  0  0
   58.2327   29.1643   50.0083 H   0  0  0  0  0  0  0  0  0  0  0  0
   58.6195   31.8026   49.5500 H   0  0  0  0  0  0  0  0  0  0  0  0
   60.5133   31.9762   47.6694 H   0  0  0  0  0  0  0  0  0  0  0  0
   57.6943   24.8745   46.6937 H   0  0  0  0  0  0  0  0  0  0  0  0
   55.4035   29.8728   44.7072 H   0  0  0  0  0  0  0  0  0  0  0  0
  1  2  1  0
  2  3  1  0
  3  4  1  0
  4  5  2  0
  5  6  1  0
  6  7  2  0
  7  8  1  0
  8  9  1  0
  9 10  1  0
 10 11  1  0
 11 12  1  0
 12 13  2  0
 13 14  1  0
 14 15  2  0
 15 16  1  0
  8 17  2  0
 17 18  1  0
 18 19  2  0
 18 20  1  0
 20 21  1  0
 21 22  2  0
 22  4  1  0
 21  7  1  0
 16 12  1  0
  1 23  1  0
  1 24  1  0
  1 25  1  0
  2 26  1  0
  2 27  1  0
  5 28  1  0
  6 29  1  0
  9 30  1  0
  9 31  1  0
 10 32  1  0
 10 33  1  0
 11 34  1  0
 11 35  1  0
 13 36  1  0
 14 37  1  0
 15 38  1  0
 17 39  1  0
 22 40  1  0
M  CHG  1  10   1
M  END
>  <UniqueID>  (24) 
24

>  <SMILES>  (24) 
CCOc1ccc2c(C[NH2+]Cc3ccco3)cc(=O)oc2c1

>  <Energy>  (24) 
75.88073831417026

>  <Genealogy>  (24) 
CCOc1ccc2c(C[NH2+]Cc3ccco3)cc(=O)oc2c1 (protonated)
CCOc1ccc2c(C[NH2+]Cc3ccco3)cc(=O)oc2c1 (3D coordinates assigned)
CCOc1ccc2c(C[NH2+]Cc3ccco3)cc(=O)oc2c1 (optimized conformer: 75.88073831417026 kcal/mol)

>  <smiles>  (24) 
CCOc1ccc2c(CNCc3ccco3)cc(=O)oc2c1

>  <score_type>  (24) 
oracle

>  <origin>  (24) 
adg

>  <m_score__min__energy>  (24) 
-5.0199999999999996

>  <m_primary>  (24) 
energy

$$$$
24:0
     RDKit          3D

 51 53  0  0  0  0  0  0  0  0999 V2000
   62.2550   31.2550   48.0330 C   0  0  0  0  0  0  0  0  0  0  0  0
   61.0080   30.5020   47.6930 C   0  0  0  0  0  0  0  0  0  0  0  0
   60.2610   30.8230   46.6010 N   0  0  0  0  0  0  0  0  0  0  0  0
   59.1770   30.0240   46.4620 C   0  0  0  0  0  0  0  0  0  0  0  0
   58.1990   30.1610   45.3580 C   0  0  0  0  0  0  0  0  0  0  0  0
   58.4360   31.0770   44.3150 C   0  0  0  0  0  0  0  0  0  0  0  0
   57.5200   31.2090   43.2670 C   0  0  0  0  0  0  0  0  0  0  0  0
   56.3600   30.4320   43.2470 C   0  0  0  0  0  0  0  0  0  0  0  0
   56.1130   29.5220   44.2770 C   0  0  0  0  0  0  0  0  0  0  0  0
   57.0260   29.3850   45.3280 C   0  0  0  0  0  0  0  0  0  0  0  0
   59.1110   28.8810   47.7010 S   0  0  0  0  0  0  0  0  0  0  0  0
   60.5280   29.4170   48.4300 C   0  0  0  0  0  0  0  0  0  0  0  0
   61.0930   28.8680   49.7070 C   0  0  0  0  0  0  0  0  0  0  0  0
   60.1370   29.1420   50.8800 C   0  0  0  0  0  0  0  0  0  0  0  0
   59.9680   30.5820   51.1420 N   0  0  0  0  0  0  0  0  0  0  0  0
   58.5510   30.9800   51.2020 C   0  0  0  0  0  0  0  0  0  0  0  0
   58.2450   32.0590   50.1450 C   0  0  0  0  0  0  0  0  0  0  0  0
   59.3820   32.2930   49.2380 N   0  0  0  0  0  0  0  0  0  0  0  0
   59.5150   33.7040   48.8470 C   0  0  0  0  0  0  0  0  0  0  0  0
   58.9770   33.9160   47.4580 C   0  0  0  0  0  0  0  0  0  0  0  0
   57.6940   33.4640   47.1090 C   0  0  0  0  0  0  0  0  0  0  0  0
   57.1950   33.6830   45.8210 C   0  0  0  0  0  0  0  0  0  0  0  0
   57.9720   34.3570   44.8740 C   0  0  0  0  0  0  0  0  0  0  0  0
   59.2490   34.8130   45.2150 C   0  0  0  0  0  0  0  0  0  0  0  0
   59.7500   34.5970   46.5020 C   0  0  0  0  0  0  0  0  0  0  0  0
   62.3589   31.3177   49.1263 H   0  0  0  0  0  0  0  0  0  0  0  0
   63.1258   30.7317   47.6114 H   0  0  0  0  0  0  0  0  0  0  0  0
   62.1973   32.2693   47.6114 H   0  0  0  0  0  0  0  0  0  0  0  0
   59.3476   31.6926   44.3249 H   0  0  0  0  0  0  0  0  0  0  0  0
   57.7136   31.9267   42.4562 H   0  0  0  0  0  0  0  0  0  0  0  0
   55.6415   30.5366   42.4207 H   0  0  0  0  0  0  0  0  0  0  0  0
   55.1982   28.9113   44.2619 H   0  0  0  0  0  0  0  0  0  0  0  0
   56.8255   28.6660   46.1360 H   0  0  0  0  0  0  0  0  0  0  0  0
   61.2360   27.7824   49.6024 H   0  0  0  0  0  0  0  0  0  0  0  0
   62.0560   29.3592   49.9104 H   0  0  0  0  0  0  0  0  0  0  0  0
   59.1542   28.7082   50.6435 H   0  0  0  0  0  0  0  0  0  0  0  0
   60.5725   28.6859   51.7813 H   0  0  0  0  0  0  0  0  0  0  0  0
   60.4480   30.8410   52.0370 H   0  0  0  0  0  0  0  0  0  0  0  0
   60.4320   31.1030   50.3610 H   0  0  0  0  0  0  0  0  0  0  0  0
   57.9199   30.0992   51.0126 H   0  0  0  0  0  0  0  0  0  0  0  0
   58.3404   31.3917   52.2001 H   0  0  0  0  0  0  0  0  0  0  0  0
   57.3787   31.7350   49.5496 H   0  0  0  0  0  0  0  0  0  0  0  0
   58.0391   33.0003   50.6756 H   0  0  0  0  0  0  0  0  0  0  0  0
   59.2740   31.7090   48.3760 H   0  0  0  0  0  0  0  0  0  0  0  0
   58.9512   34.3307   49.5537 H   0  0  0  0  0  0  0  0  0  0  0  0
   60.5797   33.9801   48.8634 H   0  0  0  0  0  0  0  0  0  0  0  0
   57.0788   32.9354   47.8520 H   0  0  0  0  0  0  0  0  0  0  0  0
   56.1902   33.3246   45.5527 H   0  0  0  0  0  0  0  0  0  0  0  0
   57.5788   34.5285   43.8611 H   0  0  0  0  0  0  0  0  0  0  0  0
   59.8603   35.3425   44.4694 H   0  0  0  0  0  0  0  0  0  0  0  0
   60.7533   34.9615   46.7676 H   0  0  0  0  0  0  0  0  0  0  0  0
  1  2  1  0
  2  3  1  0
  3  4  2  0
  4  5  1  0
  5  6  2  0
  6  7  1  0
  7  8  2  0
  8  9  1  0
  9 10  2  0
  4 11  1  0
 11 12  1  0
 12 13  1  0
 13 14  1  0
 14 15  1  0
 15 16  1  0
 16 17  1  0
 17 18  1  0
 18 19  1  0
 19 20  1  0
 20 21  2  0
 21 22  1  0
 22 23  2  0
 23 24  1  0
 24 25  2  0
 12  2  2  0
 25 20  1  0
 10  5  1  0
  1 26  1  0
  1 27  1  0
  1 28  1  0
  6 29  1  0
  7 30  1  0
  8 31  1  0
  9 32  1  0
 10 33  1  0
 13 34  1  0
 13 35  1  0
 14 36  1  0
 14 37  1  0
 15 38  1  0
 15 39  1  0
 16 40  1  0
 16 41  1  0
 17 42  1  0
 17 43  1  0
 18 44  1  0
 19 45  1  0
 19 46  1  0
 21 47  1  0
 22 48  1  0
 23 49  1  0
 24 50  1  0
 25 51  1  0
M  CHG  1  15   1
M  END
>  <UniqueID>  (25) 
25

>  <SMILES>  (25) 
Cc1nc(-c2ccccc2)sc1CC[NH2+]CCNCc1ccccc1

>  <Energy>  (25) 
78.70929245738945

>  <Genealogy>  (25) 
Cc1nc(-c2ccccc2)sc1CC[NH2+]CCNCc1ccccc1 (protonated)
Cc1nc(-c2ccccc2)sc1CC[NH2+]CCNCc1ccccc1 (3D coordinates assigned)
Cc1nc(-c2ccccc2)sc1CC[NH2+]CCNCc1ccccc1 (optimized conformer: 78.70929245738945 kcal/mol)

>  <smiles>  (25) 
Cc1nc(-c2ccccc2)sc1CCNCCNCc1ccccc1

>  <score_type>  (25) 
oracle

>  <origin>  (25) 
adg

>  <m_score__min__energy>  (25) 
-7.04

>  <m_primary>  (25) 
energy

$$$$
25:0
     RDKit          3D

 35 36  0  0  0  0  0  0  0  0999 V2000
   55.6570   29.7970   44.8700 N   0  0  0  0  0  0  0  0  0  0  0  0
   56.5700   30.0860   43.7680 C   0  0  0  0  0  0  0  0  0  0  0  0
   58.0300   29.8010   44.1650 C   0  0  0  0  0  0  0  0  0  0  0  0
   58.5590   30.7440   45.2770 C   0  0  2  0  0  0  0  0  0  0  0  0
   59.1400   29.9970   46.4910 C   0  0  0  0  0  0  0  0  0  0  0  0
   58.6170   28.7460   46.8860 C   0  0  0  0  0  0  0  0  0  0  0  0
   59.1180   28.0750   48.0020 C   0  0  0  0  0  0  0  0  0  0  0  0
   60.1620   28.6250   48.7410 C   0  0  0  0  0  0  0  0  0  0  0  0
   60.7890   27.7780   50.1430 Cl  0  0  0  0  0  0  0  0  0  0  0  0
   60.7180   29.8440   48.3540 C   0  0  0  0  0  0  0  0  0  0  0  0
   60.2270   30.5300   47.2360 C   0  0  0  0  0  0  0  0  0  0  0  0
   61.0500   32.0280   46.8020 Cl  0  0  0  0  0  0  0  0  0  0  0  0
   57.5480   31.7860   45.6260 N   0  0  0  0  0  0  0  0  0  0  0  0
   57.7560   32.5100   46.8880 C   0  0  0  0  0  0  0  0  0  0  0  0
   58.2960   33.8980   46.5590 C   0  0  0  0  0  0  0  0  0  0  0  0
   58.1570   34.0500   45.0560 C   0  0  0  0  0  0  0  0  0  0  0  0
   57.3910   32.8210   44.5960 C   0  0  0  0  0  0  0  0  0  0  0  0
   54.8390   30.4420   44.7820 H   0  0  0  0  0  0  0  0  0  0  0  0
   56.1370   30.0440   45.7660 H   0  0  0  0  0  0  0  0  0  0  0  0
   56.3030   29.4564   42.9064 H   0  0  0  0  0  0  0  0  0  0  0  0
   56.4805   31.1521   43.5120 H   0  0  0  0  0  0  0  0  0  0  0  0
   58.0977   28.7639   44.5254 H   0  0  0  0  0  0  0  0  0  0  0  0
   58.6494   29.9709   43.2720 H   0  0  0  0  0  0  0  0  0  0  0  0
   59.4264   31.2794   44.8635 H   0  0  0  0  0  0  0  0  0  0  0  0
   57.8009   28.2930   46.3040 H   0  0  0  0  0  0  0  0  0  0  0  0
   58.6865   27.1078   48.2991 H   0  0  0  0  0  0  0  0  0  0  0  0
   61.5504   30.2710   48.9326 H   0  0  0  0  0  0  0  0  0  0  0  0
   56.8014   32.6002   47.4270 H   0  0  0  0  0  0  0  0  0  0  0  0
   58.4696   31.9662   47.5244 H   0  0  0  0  0  0  0  0  0  0  0  0
   57.7092   34.6702   47.0780 H   0  0  0  0  0  0  0  0  0  0  0  0
   59.3410   34.0130   46.8826 H   0  0  0  0  0  0  0  0  0  0  0  0
   57.5984   34.9656   44.8117 H   0  0  0  0  0  0  0  0  0  0  0  0
   59.1357   34.1316   44.5605 H   0  0  0  0  0  0  0  0  0  0  0  0
   56.3262   33.0678   44.4720 H   0  0  0  0  0  0  0  0  0  0  0  0
   57.7779   32.4650   43.6298 H   0  0  0  0  0  0  0  0  0  0  0  0
  1  2  1  0
  2  3  1  0
  3  4  1  0
  4  5  1  0
  5  6  2  0
  6  7  1  0
  7  8  2  0
  8  9  1  0
  8 10  1  0
 10 11  2  0
 11 12  1  0
  4 13  1  0
 13 14  1  0
 14 15  1  0
 15 16  1  0
 16 17  1  0
 11  5  1  0
 17 13  1  0
  1 18  1  0
  1 19  1  0
  2 20  1  0
  2 21  1  0
  3 22  1  0
  3 23  1  0
  4 24  1  6
  6 25  1  0
  7 26  1  0
 10 27  1  0
 14 28  1  0
 14 29  1  0
 15 30  1  0
 15 31  1  0
 16 32  1  0
 16 33  1  0
 17 34  1  0
 17 35  1  0
M  END
>  <UniqueID>  (26) 
26

>  <SMILES>  (26) 
NCC[C@H](c1ccc(Cl)cc1Cl)N1CCCC1

>  <Energy>  (26) 
42.66360677792717

>  <Genealogy>  (26) 
NCC[C@H](c1ccc(Cl)cc1Cl)N1CCCC1 (chirality)
NCC[C@H](c1ccc(Cl)cc1Cl)N1CCCC1 (3D coordinates assigned)
NCC[C@H](c1ccc(Cl)cc1Cl)N1CCCC1 (nonaromatic ring conformer: 42.66360677792717 kcal/mol)

>  <smiles>  (26) 
NCCC(c1ccc(Cl)cc1Cl)N1CCCC1

>  <score_type>  (26) 
oracle

>  <origin>  (26) 
adg

>  <m_score__min__energy>  (26) 
-6.8700000000000001

>  <m_primary>  (26) 
energy

$$$$
26:0
     RDKit          3D

 46 47  0  0  0  0  0  0  0  0999 V2000
   63.5220   32.9290   47.1080 C   0  0  0  0  0  0  0  0  0  0  0  0
   62.1800   33.6510   47.1800 C   0  0  0  0  0  0  0  0  0  0  0  0
   61.6170   33.6370   48.6050 C   0  0  0  0  0  0  0  0  0  0  0  0
   60.2070   33.2190   48.5900 N   0  0  0  0  0  0  0  0  0  0  0  0
   59.7060   32.2690   49.5890 C   0  0  0  0  0  0  0  0  0  0  0  0
   59.2840   33.8610   47.6850 C   0  0  0  0  0  0  0  0  0  0  0  0
   58.9590   35.0640   47.8730 O   0  0  0  0  0  0  0  0  0  0  0  0
   58.7280   33.1440   46.5180 C   0  0  0  0  0  0  0  0  0  0  0  0
   58.2740   31.8380   46.5460 C   0  0  0  0  0  0  0  0  0  0  0  0
   57.9230   31.5160   45.2490 C   0  0  0  0  0  0  0  0  0  0  0  0
   57.3900   30.2080   44.8220 C   0  0  0  0  0  0  0  0  0  0  0  0
   56.2540   29.8450   45.2290 O   0  0  0  0  0  0  0  0  0  0  0  0
   58.1260   29.3710   43.9190 N   0  0  0  0  0  0  0  0  0  0  0  0
   57.7240   27.9890   43.6650 C   0  0  0  0  0  0  0  0  0  0  0  0
   57.6160   27.2280   44.9490 C   0  0  0  0  0  0  0  0  0  0  0  0
   58.6430   26.5430   45.5680 C   0  0  0  0  0  0  0  0  0  0  0  0
   58.0840   25.9780   46.6930 C   0  0  0  0  0  0  0  0  0  0  0  0
   56.7540   26.3500   46.6890 C   0  0  0  0  0  0  0  0  0  0  0  0
   56.5050   27.0920   45.6350 O   0  0  0  0  0  0  0  0  0  0  0  0
   58.2160   32.6280   44.4670 C   0  0  0  0  0  0  0  0  0  0  0  0
   58.0990   32.7170   42.9710 C   0  0  0  0  0  0  0  0  0  0  0  0
   58.6780   33.6280   45.2560 N   0  0  0  0  0  0  0  0  0  0  0  0
   59.1000   34.9610   44.8150 C   0  0  0  0  0  0  0  0  0  0  0  0
   63.8876   32.7323   48.1266 H   0  0  0  0  0  0  0  0  0  0  0  0
   63.3975   31.9761   46.5727 H   0  0  0  0  0  0  0  0  0  0  0  0
   64.2485   33.5580   46.5727 H   0  0  0  0  0  0  0  0  0  0  0  0
   62.3165   34.6941   46.8587 H   0  0  0  0  0  0  0  0  0  0  0  0
   61.4697   33.1309   46.5205 H   0  0  0  0  0  0  0  0  0  0  0  0
   62.1982   32.9328   49.2184 H   0  0  0  0  0  0  0  0  0  0  0  0
   61.6866   34.6499   49.0284 H   0  0  0  0  0  0  0  0  0  0  0  0
   59.9103   32.6563   50.5981 H   0  0  0  0  0  0  0  0  0  0  0  0
   58.6216   32.1381   49.4590 H   0  0  0  0  0  0  0  0  0  0  0  0
   60.2105   31.3002   49.4590 H   0  0  0  0  0  0  0  0  0  0  0  0
   58.2057   31.1839   47.4278 H   0  0  0  0  0  0  0  0  0  0  0  0
   58.9380   29.7770   43.4010 H   0  0  0  0  0  0  0  0  0  0  0  0
   56.7477   27.9837   43.1583 H   0  0  0  0  0  0  0  0  0  0  0  0
   58.4841   27.5092   43.0309 H   0  0  0  0  0  0  0  0  0  0  0  0
   59.6879   26.4650   45.2330 H   0  0  0  0  0  0  0  0  0  0  0  0
   58.5941   25.3560   47.4433 H   0  0  0  0  0  0  0  0  0  0  0  0
   56.0151   26.0674   47.4533 H   0  0  0  0  0  0  0  0  0  0  0  0
   57.2490   33.3636   42.7075 H   0  0  0  0  0  0  0  0  0  0  0  0
   59.0250   33.1411   42.5554 H   0  0  0  0  0  0  0  0  0  0  0  0
   57.9374   31.7114   42.5554 H   0  0  0  0  0  0  0  0  0  0  0  0
   59.2997   35.5918   45.6938 H   0  0  0  0  0  0  0  0  0  0  0  0
   60.0147   34.8746   44.2102 H   0  0  0  0  0  0  0  0  0  0  0  0
   58.3022   35.4167   44.2102 H   0  0  0  0  0  0  0  0  0  0  0  0
  1  2  1  0
  2  3  1  0
  3  4  1  0
  4  5  1  0
  4  6  1  0
  6  7  2  0
  6  8  1  0
  8  9  2  0
  9 10  1  0
 10 11  1  0
 11 12  2  0
 11 13  1  0
 13 14  1  0
 14 15  1  0
 15 16  2  0
 16 17  1  0
 17 18  2  0
 18 19  1  0
 10 20  2  0
 20 21  1  0
 20 22  1  0
 22 23  1  0
 22  8  1  0
 19 15  1  0
  1 24  1  0
  1 25  1  0
  1 26  1  0
  2 27  1  0
  2 28  1  0
  3 29  1  0
  3 30  1  0
  5 31  1  0
  5 32  1  0
  5 33  1  0
  9 34  1  0
 13 35  1  0
 14 36  1  0
 14 37  1  0
 16 38  1  0
 17 39  1  0
 18 40  1  0
 21 41  1  0
 21 42  1  0
 21 43  1  0
 23 44  1  0
 23 45  1  0
 23 46  1  0
M  END
>  <UniqueID>  (27) 
27

>  <SMILES>  (27) 
CCCN(C)C(=O)c1cc(C(=O)NCc2ccco2)c(C)n1C

>  <Energy>  (27) 
94.79419742424474

>  <Genealogy>  (27) 
CCCN(C)C(=O)c1cc(C(=O)NCc2ccco2)c(C)n1C (3D coordinates assigned)
CCCN(C)C(=O)c1cc(C(=O)NCc2ccco2)c(C)n1C (optimized conformer: 94.79419742424474 kcal/mol)

>  <smiles>  (27) 
CCCN(C)C(=O)c1cc(C(=O)NCc2ccco2)c(C)n1C

>  <score_type>  (27) 
oracle

>  <origin>  (27) 
adg

>  <m_score__min__energy>  (27) 
-7.0499999999999998

>  <m_primary>  (27) 
energy

$$$$
27:0
     RDKit          3D

 41 42  0  0  0  0  0  0  0  0999 V2000
   56.9990   30.8580   43.0290 C   0  0  0  0  0  0  0  0  0  0  0  0
   55.9720   30.4300   44.0700 C   0  0  0  0  0  0  0  0  0  0  0  0
   56.6480   30.0670   45.3220 N   0  0  0  0  0  0  0  0  0  0  0  0
   57.6100   28.9730   45.1160 C   0  0  0  0  0  0  0  0  0  0  0  0
   58.0210   28.3640   46.4600 C   0  0  0  0  0  0  0  0  0  0  0  0
   58.7870   29.3780   47.3170 C   0  0  0  0  0  0  0  0  0  0  0  0
   59.9840   29.8460   46.6150 N   0  0  0  0  0  0  0  0  0  0  0  0
   60.5210   31.1740   46.7640 C   0  0  0  0  0  0  0  0  0  0  0  0
   61.8260   31.3480   47.2600 C   0  0  0  0  0  0  0  0  0  0  0  0
   62.3970   32.6180   47.3710 C   0  0  0  0  0  0  0  0  0  0  0  0
   63.7050   32.7160   47.8700 O   0  0  0  0  0  0  0  0  0  0  0  0
   64.0370   32.8050   49.2520 C   0  0  0  0  0  0  0  0  0  0  0  0
   61.6550   33.7450   46.9800 C   0  0  0  0  0  0  0  0  0  0  0  0
   60.3500   33.5990   46.4920 C   0  0  0  0  0  0  0  0  0  0  0  0
   59.6050   34.7220   46.1140 C   0  0  0  0  0  0  0  0  0  0  0  0
   58.3000   34.5680   45.6530 C   0  0  0  0  0  0  0  0  0  0  0  0
   57.7450   33.2920   45.5820 C   0  0  0  0  0  0  0  0  0  0  0  0
   58.4730   32.2010   45.9480 N   0  0  0  0  0  0  0  0  0  0  0  0
   59.7660   32.3120   46.3870 C   0  0  0  0  0  0  0  0  0  0  0  0
   57.9002   31.2336   43.5358 H   0  0  0  0  0  0  0  0  0  0  0  0
   57.2646   29.9957   42.3998 H   0  0  0  0  0  0  0  0  0  0  0  0
   56.5736   31.6537   42.3998 H   0  0  0  0  0  0  0  0  0  0  0  0
   55.2767   31.2611   44.2591 H   0  0  0  0  0  0  0  0  0  0  0  0
   55.4172   29.5582   43.6930 H   0  0  0  0  0  0  0  0  0  0  0  0
   55.9150   29.7230   45.9870 H   0  0  0  0  0  0  0  0  0  0  0  0
   57.1460   28.1949   44.4921 H   0  0  0  0  0  0  0  0  0  0  0  0
   58.5047   29.3735   44.6170 H   0  0  0  0  0  0  0  0  0  0  0  0
   57.1176   28.0466   47.0013 H   0  0  0  0  0  0  0  0  0  0  0  0
   58.6792   27.5042   46.2661 H   0  0  0  0  0  0  0  0  0  0  0  0
   58.1341   30.2371   47.5307 H   0  0  0  0  0  0  0  0  0  0  0  0
   59.0933   28.8906   48.2543 H   0  0  0  0  0  0  0  0  0  0  0  0
   60.4560   29.1750   45.9700 H   0  0  0  0  0  0  0  0  0  0  0  0
   62.4082   30.4665   47.5665 H   0  0  0  0  0  0  0  0  0  0  0  0
   63.1504   32.5673   49.8581 H   0  0  0  0  0  0  0  0  0  0  0  0
   64.8411   32.0907   49.4827 H   0  0  0  0  0  0  0  0  0  0  0  0
   64.3760   33.8257   49.4827 H   0  0  0  0  0  0  0  0  0  0  0  0
   62.1011   34.7475   47.0574 H   0  0  0  0  0  0  0  0  0  0  0  0
   60.0501   35.7257   46.1810 H   0  0  0  0  0  0  0  0  0  0  0  0
   57.7124   35.4463   45.3475 H   0  0  0  0  0  0  0  0  0  0  0  0
   56.7114   33.1650   45.2278 H   0  0  0  0  0  0  0  0  0  0  0  0
   57.9920   31.2770   45.9010 H   0  0  0  0  0  0  0  0  0  0  0  0
  1  2  1  0
  2  3  1  0
  3  4  1  0
  4  5  1  0
  5  6  1  0
  6  7  1  0
  7  8  1  0
  8  9  2  0
  9 10  1  0
 10 11  1  0
 11 12  1  0
 10 13  2  0
 13 14  1  0
 14 15  2  0
 15 16  1  0
 16 17  2  0
 17 18  1  0
 18 19  2  0
 19  8  1  0
 19 14  1  0
  1 20  1  0
  1 21  1  0
  1 22  1  0
  2 23  1  0
  2 24  1  0
  3 25  1  0
  4 26  1  0
  4 27  1  0
  5 28  1  0
  5 29  1  0
  6 30  1  0
  6 31  1  0
  7 32  1  0
  9 33  1  0
 12 34  1  0
 12 35  1  0
 12 36  1  0
 13 37  1  0
 15 38  1  0
 16 39  1  0
 17 40  1  0
 18 41  1  0
M  CHG  1  18   1
M  END
>  <UniqueID>  (28) 
28

>  <SMILES>  (28) 
CCNCCCNc1cc(OC)cc2ccc[nH+]c12

>  <Energy>  (28) 
39.21663831859559

>  <Genealogy>  (28) 
CCNCCCNc1cc(OC)cc2ccc[nH+]c12 (protonated)
CCNCCCNc1cc(OC)cc2ccc[nH+]c12 (3D coordinates assigned)
CCNCCCNc1cc(OC)cc2ccc[nH+]c12 (optimized conformer: 39.21663831859559 kcal/mol)

>  <smiles>  (28) 
CCNCCCNc1cc(OC)cc2cccnc12

>  <score_type>  (28) 
oracle

>  <origin>  (28) 
adg

>  <m_score__min__energy>  (28) 
-4.71

>  <m_primary>  (28) 
energy

$$$$
28:0
     RDKit          3D

 51 54  0  0  0  0  0  0  0  0999 V2000
   57.7940   32.3500   41.2780 C   0  0  0  0  0  0  0  0  0  0  0  0
   57.0320   31.4320   42.2290 C   0  0  0  0  0  0  0  0  0  0  0  0
   57.5800   31.5390   43.6250 C   0  0  0  0  0  0  0  0  0  0  0  0
   57.5520   30.4150   44.4890 C   0  0  0  0  0  0  0  0  0  0  0  0
   58.0910   30.4940   45.7850 C   0  0  0  0  0  0  0  0  0  0  0  0
   58.6590   31.7000   46.1840 C   0  0  0  0  0  0  0  0  0  0  0  0
   59.2140   31.9770   47.3370 O   0  0  0  0  0  0  0  0  0  0  0  0
   59.6370   33.2280   47.3000 C   0  0  0  0  0  0  0  0  0  0  0  0
   60.3260   33.8480   48.4530 C   0  0  0  0  0  0  0  0  0  0  0  0
   59.6640   34.6400   49.1780 O   0  0  0  0  0  0  0  0  0  0  0  0
   61.6740   33.4790   48.8370 N   0  0  0  0  0  0  0  0  0  0  0  0
   61.6740   32.1920   49.5830 C   0  0  0  0  0  0  0  0  0  0  0  0
   63.0500   31.4910   49.5770 C   0  0  0  0  0  0  0  0  0  0  0  0
   64.1230   32.4420   49.2630 N   0  0  0  0  0  0  0  0  0  0  0  0
   65.2980   32.5360   50.0900 C   0  0  0  0  0  0  0  0  0  0  0  0
   65.9830   31.3740   50.4900 C   0  0  0  0  0  0  0  0  0  0  0  0
   67.1140   31.4650   51.3060 C   0  0  0  0  0  0  0  0  0  0  0  0
   67.5710   32.7140   51.7330 C   0  0  0  0  0  0  0  0  0  0  0  0
   66.8940   33.8740   51.3490 C   0  0  0  0  0  0  0  0  0  0  0  0
   65.7600   33.7880   50.5350 C   0  0  0  0  0  0  0  0  0  0  0  0
   64.0070   33.2610   48.0490 C   0  0  0  0  0  0  0  0  0  0  0  0
   62.5340   33.4110   47.6360 C   0  0  0  0  0  0  0  0  0  0  0  0
   59.3180   33.8010   46.0590 C   0  0  0  0  0  0  0  0  0  0  0  0
   59.5380   35.2050   45.5830 C   0  0  0  0  0  0  0  0  0  0  0  0
   58.7010   32.7870   45.3530 C   0  0  0  0  0  0  0  0  0  0  0  0
   58.1740   32.7450   44.0620 C   0  0  0  0  0  0  0  0  0  0  0  0
   58.3900   33.0680   41.8604 H   0  0  0  0  0  0  0  0  0  0  0  0
   58.4618   31.7483   40.6440 H   0  0  0  0  0  0  0  0  0  0  0  0
   57.0796   32.8956   40.6440 H   0  0  0  0  0  0  0  0  0  0  0  0
   55.9703   31.7196   42.2350 H   0  0  0  0  0  0  0  0  0  0  0  0
   57.1446   30.3937   41.8838 H   0  0  0  0  0  0  0  0  0  0  0  0
   57.1042   29.4721   44.1418 H   0  0  0  0  0  0  0  0  0  0  0  0
   58.0645   29.6284   46.4633 H   0  0  0  0  0  0  0  0  0  0  0  0
   62.0700   34.2200   49.4580 H   0  0  0  0  0  0  0  0  0  0  0  0
   61.3867   32.3914   50.6259 H   0  0  0  0  0  0  0  0  0  0  0  0
   60.9608   31.5211   49.0817 H   0  0  0  0  0  0  0  0  0  0  0  0
   63.2355   31.0540   50.5693 H   0  0  0  0  0  0  0  0  0  0  0  0
   63.0404   30.7062   48.8062 H   0  0  0  0  0  0  0  0  0  0  0  0
   65.6262   30.3877   50.1584 H   0  0  0  0  0  0  0  0  0  0  0  0
   67.6451   30.5517   51.6124 H   0  0  0  0  0  0  0  0  0  0  0  0
   68.4639   32.7841   52.3716 H   0  0  0  0  0  0  0  0  0  0  0  0
   67.2535   34.8569   51.6875 H   0  0  0  0  0  0  0  0  0  0  0  0
   65.2266   34.7041   50.2412 H   0  0  0  0  0  0  0  0  0  0  0  0
   64.4312   34.2572   48.2431 H   0  0  0  0  0  0  0  0  0  0  0  0
   64.5552   32.7661   47.2338 H   0  0  0  0  0  0  0  0  0  0  0  0
   62.4128   34.3334   47.0490 H   0  0  0  0  0  0  0  0  0  0  0  0
   62.2393   32.5409   47.0309 H   0  0  0  0  0  0  0  0  0  0  0  0
   59.6428   35.8739   46.4499 H   0  0  0  0  0  0  0  0  0  0  0  0
   60.4536   35.2468   44.9748 H   0  0  0  0  0  0  0  0  0  0  0  0
   58.6790   35.5248   44.9748 H   0  0  0  0  0  0  0  0  0  0  0  0
   58.2194   33.6248   43.4033 H   0  0  0  0  0  0  0  0  0  0  0  0
  1  2  1  0
  2  3  1  0
  3  4  2  0
  4  5  1  0
  5  6  2  0
  6  7  1  0
  7  8  1  0
  8  9  1  0
  9 10  2  0
  9 11  1  0
 11 12  1  0
 12 13  1  0
 13 14  1  0
 14 15  1  0
 15 16  2  0
 16 17  1  0
 17 18  2  0
 18 19  1  0
 19 20  2  0
 14 21  1  0
 21 22  1  0
  8 23  2  0
 23 24  1  0
 23 25  1  0
 25 26  2  0
 26  3  1  0
 25  6  1  0
 22 11  1  0
 20 15  1  0
  1 27  1  0
  1 28  1  0
  1 29  1  0
  2 30  1  0
  2 31  1  0
  4 32  1  0
  5 33  1  0
 11 34  1  0
 12 35  1  0
 12 36  1  0
 13 37  1  0
 13 38  1  0
 16 39  1  0
 17 40  1  0
 18 41  1  0
 19 42  1  0
 20 43  1  0
 21 44  1  0
 21 45  1  0
 22 46  1  0
 22 47  1  0
 24 48  1  0
 24 49  1  0
 24 50  1  0
 26 51  1  0
M  CHG  1  11   1
M  END
>  <UniqueID>  (29) 
29

>  <SMILES>  (29) 
CCc1ccc2oc(C(=O)[NH+]3CCN(c4ccccc4)CC3)c(C)c2c1

>  <Energy>  (29) 
99.47216292045306

>  <Genealogy>  (29) 
CCc1ccc2oc(C(=O)[NH+]3CCN(c4ccccc4)CC3)c(C)c2c1 (protonated)
CCc1ccc2oc(C(=O)[NH+]3CCN(c4ccccc4)CC3)c(C)c2c1 (3D coordinates assigned)
CCc1ccc2oc(C(=O)[NH+]3CCN(c4ccccc4)CC3)c(C)c2c1 (nonaromatic ring conformer: 99.47216292045306 kcal/mol)

>  <smiles>  (29) 
CCc1ccc2oc(C(=O)N3CCN(c4ccccc4)CC3)c(C)c2c1

>  <score_type>  (29) 
oracle

>  <origin>  (29) 
adg

>  <m_score__min__energy>  (29) 
-6.6600000000000001

>  <m_primary>  (29) 
energy

$$$$
29:0
     RDKit          3D

 39 41  0  0  0  0  0  0  0  0999 V2000
   57.3400   22.9290   45.5410 C   0  0  0  0  0  0  0  0  0  0  0  0
   57.3070   24.4240   45.4250 C   0  0  0  0  0  0  0  0  0  0  0  0
   56.9020   25.2090   46.5150 C   0  0  0  0  0  0  0  0  0  0  0  0
   56.9050   26.6030   46.4200 C   0  0  0  0  0  0  0  0  0  0  0  0
   57.3320   27.2340   45.2410 C   0  0  0  0  0  0  0  0  0  0  0  0
   57.3240   28.6690   45.1440 N   0  0  0  0  0  0  0  0  0  0  0  0
   56.2710   29.4440   44.8180 C   0  0  0  0  0  0  0  0  0  0  0  0
   55.0060   28.9660   44.4990 O   0  0  0  0  0  0  0  0  0  0  0  0
   56.6460   30.7660   44.8250 C   0  0  0  0  0  0  0  0  0  0  0  0
   57.9510   30.8290   45.1730 N   0  0  0  0  0  0  0  0  0  0  0  0
   58.7700   32.0500   45.2650 C   0  0  0  0  0  0  0  0  0  0  0  0
   58.1460   33.1860   44.4200 C   0  0  0  0  0  0  0  0  0  0  0  0
   58.5150   34.5970   44.9250 C   0  0  0  0  0  0  0  0  0  0  0  0
   59.8810   34.6160   45.6180 C   0  0  0  0  0  0  0  0  0  0  0  0
   59.9130   33.6850   46.8480 C   0  0  0  0  0  0  0  0  0  0  0  0
   58.9580   32.4790   46.7320 C   0  0  0  0  0  0  0  0  0  0  0  0
   58.3410   29.5400   45.3510 C   0  0  0  0  0  0  0  0  0  0  0  0
   59.8460   29.0930   45.8460 S   0  0  0  0  0  0  0  0  0  0  0  0
   57.7440   26.4470   44.1540 C   0  0  0  0  0  0  0  0  0  0  0  0
   57.7400   25.0520   44.2480 C   0  0  0  0  0  0  0  0  0  0  0  0
   57.3463   22.6437   46.6033 H   0  0  0  0  0  0  0  0  0  0  0  0
   56.4510   22.5036   45.0524 H   0  0  0  0  0  0  0  0  0  0  0  0
   58.2469   22.5432   45.0524 H   0  0  0  0  0  0  0  0  0  0  0  0
   56.5806   24.7247   47.4489 H   0  0  0  0  0  0  0  0  0  0  0  0
   56.5707   27.2098   47.2744 H   0  0  0  0  0  0  0  0  0  0  0  0
   55.9980   31.6229   44.5888 H   0  0  0  0  0  0  0  0  0  0  0  0
   59.7671   31.8309   44.8553 H   0  0  0  0  0  0  0  0  0  0  0  0
   58.4981   33.0833   43.3830 H   0  0  0  0  0  0  0  0  0  0  0  0
   57.0532   33.0876   44.4988 H   0  0  0  0  0  0  0  0  0  0  0  0
   58.5413   35.2860   44.0679 H   0  0  0  0  0  0  0  0  0  0  0  0
   57.7559   34.9060   45.6587 H   0  0  0  0  0  0  0  0  0  0  0  0
   60.6481   34.2862   44.9019 H   0  0  0  0  0  0  0  0  0  0  0  0
   60.0757   35.6427   45.9614 H   0  0  0  0  0  0  0  0  0  0  0  0
   60.9384   33.3065   46.9716 H   0  0  0  0  0  0  0  0  0  0  0  0
   59.5806   34.2790   47.7121 H   0  0  0  0  0  0  0  0  0  0  0  0
   59.3762   31.6354   47.3008 H   0  0  0  0  0  0  0  0  0  0  0  0
   57.9777   32.7738   47.1348 H   0  0  0  0  0  0  0  0  0  0  0  0
   58.0721   26.9310   43.2223 H   0  0  0  0  0  0  0  0  0  0  0  0
   58.0778   24.4446   43.3954 H   0  0  0  0  0  0  0  0  0  0  0  0
  1  2  1  0
  2  3  2  0
  3  4  1  0
  4  5  2  0
  5  6  1  0
  6  7  1  0
  7  8  1  0
  7  9  2  0
  9 10  1  0
 10 11  1  0
 11 12  1  0
 12 13  1  0
 13 14  1  0
 14 15  1  0
 15 16  1  0
 10 17  1  0
 17 18  2  0
  5 19  1  0
 19 20  2  0
 20  2  1  0
 17  6  1  0
 16 11  1  0
  1 21  1  0
  1 22  1  0
  1 23  1  0
  3 24  1  0
  4 25  1  0
  9 26  1  0
 11 27  1  0
 12 28  1  0
 12 29  1  0
 13 30  1  0
 13 31  1  0
 14 32  1  0
 14 33  1  0
 15 34  1  0
 15 35  1  0
 16 36  1  0
 16 37  1  0
 19 38  1  0
 20 39  1  0
M  CHG  1   8  -1
M  END
>  <UniqueID>  (30) 
30

>  <SMILES>  (30) 
Cc1ccc(-n2c([O-])cn(C3CCCCC3)c2=S)cc1

>  <Energy>  (30) 
82.21891473213043

>  <Genealogy>  (30) 
Cc1ccc(-n2c([O-])cn(C3CCCCC3)c2=S)cc1 (protonated)
Cc1ccc(-n2c([O-])cn(C3CCCCC3)c2=S)cc1 (3D coordinates assigned)
Cc1ccc(-n2c([O-])cn(C3CCCCC3)c2=S)cc1 (nonaromatic ring conformer: 82.21891473213043 kcal/mol)

>  <smiles>  (30) 
Cc1ccc(-n2c(O)cn(C3CCCCC3)c2=S)cc1

>  <score_type>  (30) 
oracle

>  <origin>  (30) 
adg

>  <m_score__min__energy>  (30) 
-10.380000000000001

>  <m_primary>  (30) 
energy

$$$$
30:0
     RDKit          3D

 54 57  0  0  0  0  0  0  0  0999 V2000
   63.0700   32.1530   47.6570 C   0  0  0  0  0  0  0  0  0  0  0  0
   61.7250   32.6910   47.2640 C   0  0  0  0  0  0  0  0  0  0  0  0
   61.6360   33.8300   46.4510 C   0  0  0  0  0  0  0  0  0  0  0  0
   60.3860   34.3580   46.1100 C   0  0  0  0  0  0  0  0  0  0  0  0
   59.2070   33.7550   46.5880 C   0  0  0  0  0  0  0  0  0  0  0  0
   57.9300   34.2440   46.2740 O   0  0  0  0  0  0  0  0  0  0  0  0
   57.3560   34.2170   44.9710 C   0  0  0  0  0  0  0  0  0  0  0  0
   57.5910   32.8750   44.3610 C   0  0  0  0  0  0  0  0  0  0  0  0
   57.1880   31.6580   44.8680 C   0  0  0  0  0  0  0  0  0  0  0  0
   57.5280   30.7350   43.9520 N   0  0  0  0  0  0  0  0  0  0  0  0
   57.2300   29.2960   44.0450 C   0  0  2  0  0  0  0  0  0  0  0  0
   56.3630   28.9250   45.2470 C   0  0  0  0  0  0  0  0  0  0  0  0
   57.5720   28.2580   45.9320 C   0  0  1  0  0  0  0  0  0  0  0  0
   57.3820   26.8650   46.4190 N   0  0  0  0  0  0  0  0  0  0  0  0
   56.2990   26.1660   45.9540 C   0  0  0  0  0  0  0  0  0  0  0  0
   56.0650   24.8430   46.3450 C   0  0  0  0  0  0  0  0  0  0  0  0
   54.8300   24.1130   45.8960 C   0  0  0  0  0  0  0  0  0  0  0  0
   57.0170   24.2230   47.1570 C   0  0  0  0  0  0  0  0  0  0  0  0
   56.8540   23.0360   47.5510 O   0  0  0  0  0  0  0  0  0  0  0  0
   58.1430   24.8910   47.4950 N   0  0  0  0  0  0  0  0  0  0  0  0
   58.3550   26.1750   47.1100 C   0  0  0  0  0  0  0  0  0  0  0  0
   59.4720   26.6990   47.3660 O   0  0  0  0  0  0  0  0  0  0  0  0
   58.3840   28.4360   44.6100 C   0  0  0  0  0  0  0  0  0  0  0  0
   59.7330   29.1560   44.8080 C   0  0  0  0  0  0  0  0  0  0  0  0
   58.5530   27.1750   43.7290 C   0  0  0  0  0  0  0  0  0  0  0  0
   58.0890   31.3700   42.9320 N   0  0  0  0  0  0  0  0  0  0  0  0
   58.1370   32.6760   43.1460 N   0  0  0  0  0  0  0  0  0  0  0  0
   59.3020   32.6270   47.4110 C   0  0  0  0  0  0  0  0  0  0  0  0
   60.5520   32.1000   47.7540 C   0  0  0  0  0  0  0  0  0  0  0  0
   63.1464   32.1224   48.7539 H   0  0  0  0  0  0  0  0  0  0  0  0
   63.1911   31.1372   47.2526 H   0  0  0  0  0  0  0  0  0  0  0  0
   63.8582   32.8051   47.2526 H   0  0  0  0  0  0  0  0  0  0  0  0
   62.5531   34.3106   46.0796 H   0  0  0  0  0  0  0  0  0  0  0  0
   60.3242   35.2476   45.4660 H   0  0  0  0  0  0  0  0  0  0  0  0
   56.2745   34.4054   45.0410 H   0  0  0  0  0  0  0  0  0  0  0  0
   57.8196   34.9944   44.3458 H   0  0  0  0  0  0  0  0  0  0  0  0
   56.6876   31.4781   45.8309 H   0  0  0  0  0  0  0  0  0  0  0  0
   56.8708   29.1281   43.0190 H   0  0  0  0  0  0  0  0  0  0  0  0
   55.9618   29.7915   45.7931 H   0  0  0  0  0  0  0  0  0  0  0  0
   55.4304   28.3602   45.1014 H   0  0  0  0  0  0  0  0  0  0  0  0
   57.9603   28.6437   46.8862 H   0  0  0  0  0  0  0  0  0  0  0  0
   55.5997   26.6546   45.2596 H   0  0  0  0  0  0  0  0  0  0  0  0
   54.2621   23.7773   46.7762 H   0  0  0  0  0  0  0  0  0  0  0  0
   54.2051   24.7869   45.2916 H   0  0  0  0  0  0  0  0  0  0  0  0
   55.1191   23.2406   45.2916 H   0  0  0  0  0  0  0  0  0  0  0  0
   59.9363   29.2645   45.8836 H   0  0  0  0  0  0  0  0  0  0  0  0
   60.5354   28.5662   44.3408 H   0  0  0  0  0  0  0  0  0  0  0  0
   59.6896   30.1509   44.3408 H   0  0  0  0  0  0  0  0  0  0  0  0
   58.6715   26.2910   44.3729 H   0  0  0  0  0  0  0  0  0  0  0  0
   57.6636   27.0495   43.0939 H   0  0  0  0  0  0  0  0  0  0  0  0
   59.4440   27.2881   43.0939 H   0  0  0  0  0  0  0  0  0  0  0  0
   58.4170   30.9220   42.0470 H   0  0  0  0  0  0  0  0  0  0  0  0
   58.3863   32.1507   47.7914 H   0  0  0  0  0  0  0  0  0  0  0  0
   60.6145   31.2193   48.4101 H   0  0  0  0  0  0  0  0  0  0  0  0
  1  2  1  0
  2  3  2  0
  3  4  1  0
  4  5  2  0
  5  6  1  0
  6  7  1  0
  7  8  1  0
  8  9  2  0
  9 10  1  0
 10 11  1  0
 11 12  1  0
 12 13  1  0
 13 14  1  0
 14 15  1  0
 15 16  2  0
 16 17  1  0
 16 18  1  0
 18 19  2  0
 18 20  1  0
 20 21  1  0
 21 22  2  0
 13 23  1  0
 23 24  1  0
 23 25  1  0
 10 26  1  0
 26 27  2  0
  5 28  1  0
 28 29  2  0
 29  2  1  0
 27  8  1  0
 23 11  1  0
 21 14  1  0
  1 30  1  0
  1 31  1  0
  1 32  1  0
  3 33  1  0
  4 34  1  0
  7 35  1  0
  7 36  1  0
  9 37  1  0
 11 38  1  6
 12 39  1  0
 12 40  1  0
 13 41  1  1
 15 42  1  0
 17 43  1  0
 17 44  1  0
 17 45  1  0
 24 46  1  0
 24 47  1  0
 24 48  1  0
 25 49  1  0
 25 50  1  0
 25 51  1  0
 26 52  1  0
 28 53  1  0
 29 54  1  0
M  CHG  2  20  -1  26   1
M  END
>  <UniqueID>  (31) 
31

>  <SMILES>  (31) 
Cc1ccc(OCc2cn([C@@H]3C[C@@H](n4cc(C)c(=O)[n-]c4=O)C3(C)C)[nH+]n2)cc1

>  <Energy>  (31) 
167.1341675348485

>  <Genealogy>  (31) 
Cc1ccc(OCc2cn(C3CC(n4cc(C)c(=O)[n-]c4=O)C3(C)C)[nH+]n2)cc1 (protonated)
Cc1ccc(OCc2cn([C@@H]3C[C@@H](n4cc(C)c(=O)[n-]c4=O)C3(C)C)[nH+]n2)cc1 (chirality)
Cc1ccc(OCc2cn([C@@H]3C[C@@H](n4cc(C)c(=O)[n-]c4=O)C3(C)C)[nH+]n2)cc1 (3D coordinates assigned)
Cc1ccc(OCc2cn([C@@H]3C[C@@H](n4cc(C)c(=O)[n-]c4=O)C3(C)C)[nH+]n2)cc1 (nonaromatic ring conformer: 167.1341675348485 kcal/mol)

>  <smiles>  (31) 
Cc1ccc(OCc2cn(C3CC(n4cc(C)c(=O)[nH]c4=O)C3(C)C)nn2)cc1

>  <score_type>  (31) 
oracle

>  <origin>  (31) 
adg

>  <m_score__min__energy>  (31) 
-10.220000000000001

>  <m_primary>  (31) 
energy

$$$$
31:0
     RDKit          3D

 35 37  0  0  0  0  0  0  0  0999 V2000
   62.9970   33.7390   46.3760 C   0  0  0  0  0  0  0  0  0  0  0  0
   62.5820   33.8190   47.8090 C   0  0  0  0  0  0  0  0  0  0  0  0
   63.3810   34.2250   48.7680 O   0  0  0  0  0  0  0  0  0  0  0  0
   62.7170   34.2260   49.9030 C   0  0  0  0  0  0  0  0  0  0  0  0
   61.4220   33.8000   49.6890 C   0  0  0  0  0  0  0  0  0  0  0  0
   61.3390   33.5120   48.3430 C   0  0  0  0  0  0  0  0  0  0  0  0
   60.1250   33.0600   47.6410 C   0  0  0  0  0  0  0  0  0  0  0  0
   59.5910   31.8360   47.8000 N   0  0  0  0  0  0  0  0  0  0  0  0
   58.5240   31.7440   47.0230 N   0  0  0  0  0  0  0  0  0  0  0  0
   58.4330   32.9230   46.3750 C   0  0  0  0  0  0  0  0  0  0  0  0
   57.1460   33.2940   45.1790 S   0  0  0  0  0  0  0  0  0  0  0  0
   57.6210   31.9620   44.0210 C   0  0  0  0  0  0  0  0  0  0  0  0
   57.0600   30.6390   44.4520 C   0  0  0  0  0  0  0  0  0  0  0  0
   55.8090   30.4950   44.5090 O   0  0  0  0  0  0  0  0  0  0  0  0
   57.9340   29.5160   44.8400 C   0  0  0  0  0  0  0  0  0  0  0  0
   59.3210   29.4670   44.7450 C   0  0  0  0  0  0  0  0  0  0  0  0
   59.8650   28.2660   45.2170 C   0  0  0  0  0  0  0  0  0  0  0  0
   58.9160   27.3670   45.6840 C   0  0  0  0  0  0  0  0  0  0  0  0
   57.3990   28.0700   45.5110 S   0  0  0  0  0  0  0  0  0  0  0  0
   59.4260   33.7690   46.7280 N   0  0  0  0  0  0  0  0  0  0  0  0
   59.6550   35.1310   46.2510 C   0  0  0  0  0  0  0  0  0  0  0  0
   64.0756   33.5311   46.3177 H   0  0  0  0  0  0  0  0  0  0  0  0
   62.4405   32.9316   45.8776 H   0  0  0  0  0  0  0  0  0  0  0  0
   62.7805   34.6954   45.8776 H   0  0  0  0  0  0  0  0  0  0  0  0
   63.1319   34.5222   50.8777 H   0  0  0  0  0  0  0  0  0  0  0  0
   60.6212   33.7089   50.4376 H   0  0  0  0  0  0  0  0  0  0  0  0
   59.9310   31.0780   48.4320 H   0  0  0  0  0  0  0  0  0  0  0  0
   57.2373   32.2046   43.0190 H   0  0  0  0  0  0  0  0  0  0  0  0
   58.7184   31.8867   44.0099 H   0  0  0  0  0  0  0  0  0  0  0  0
   59.9293   30.2890   44.3398 H   0  0  0  0  0  0  0  0  0  0  0  0
   60.9445   28.0546   45.2176 H   0  0  0  0  0  0  0  0  0  0  0  0
   59.1211   26.3678   46.0958 H   0  0  0  0  0  0  0  0  0  0  0  0
   59.7686   35.8067   47.1116 H   0  0  0  0  0  0  0  0  0  0  0  0
   60.5701   35.1569   45.6412 H   0  0  0  0  0  0  0  0  0  0  0  0
   58.7987   35.4548   45.6412 H   0  0  0  0  0  0  0  0  0  0  0  0
  1  2  1  0
  2  3  1  0
  3  4  1  0
  4  5  2  0
  5  6  1  0
  6  7  1  0
  7  8  2  0
  8  9  1  0
  9 10  2  0
 10 11  1  0
 11 12  1  0
 12 13  1  0
 13 14  2  0
 13 15  1  0
 15 16  2  0
 16 17  1  0
 17 18  2  0
 18 19  1  0
 10 20  1  0
 20 21  1  0
  6  2  2  0
 20  7  1  0
 19 15  1  0
  1 22  1  0
  1 23  1  0
  1 24  1  0
  4 25  1  0
  5 26  1  0
  8 27  1  0
 12 28  1  0
 12 29  1  0
 16 30  1  0
 17 31  1  0
 18 32  1  0
 21 33  1  0
 21 34  1  0
 21 35  1  0
M  CHG  1   8   1
M  END
>  <UniqueID>  (32) 
32

>  <SMILES>  (32) 
Cc1occc1-c1[nH+]nc(SCC(=O)c2cccs2)n1C

>  <Energy>  (32) 
122.76445988194871

>  <Genealogy>  (32) 
Cc1occc1-c1[nH+]nc(SCC(=O)c2cccs2)n1C (protonated)
Cc1occc1-c1[nH+]nc(SCC(=O)c2cccs2)n1C (3D coordinates assigned)
Cc1occc1-c1[nH+]nc(SCC(=O)c2cccs2)n1C (optimized conformer: 122.76445988194871 kcal/mol)

>  <smiles>  (32) 
Cc1occc1-c1nnc(SCC(=O)c2cccs2)n1C

>  <score_type>  (32) 
oracle

>  <origin>  (32) 
adg

>  <m_score__min__energy>  (32) 
-5.9800000000000004

>  <m_primary>  (32) 
energy

$$$$
32:0
     RDKit          3D

 43 44  0  0  0  0  0  0  0  0999 V2000
   58.3600   32.2800   49.5830 C   0  0  0  0  0  0  0  0  0  0  0  0
   59.1390   33.0990   48.7180 O   0  0  0  0  0  0  0  0  0  0  0  0
   58.7350   33.5180   47.4390 C   0  0  0  0  0  0  0  0  0  0  0  0
   57.3980   33.3930   47.0100 C   0  0  0  0  0  0  0  0  0  0  0  0
   57.0190   33.8180   45.7350 C   0  0  0  0  0  0  0  0  0  0  0  0
   57.9630   34.3860   44.8770 C   0  0  0  0  0  0  0  0  0  0  0  0
   59.2930   34.5120   45.2840 C   0  0  0  0  0  0  0  0  0  0  0  0
   59.6940   34.0720   46.5590 C   0  0  0  0  0  0  0  0  0  0  0  0
   61.1540   34.1860   46.9520 C   0  0  0  0  0  0  0  0  0  0  0  0
   61.5320   33.1780   47.9620 N   0  0  0  0  0  0  0  0  0  0  0  0
   62.4860   32.1690   47.4460 C   0  0  0  0  0  0  0  0  0  0  0  0
   61.8020   30.8320   47.1290 C   0  0  0  0  0  0  0  0  0  0  0  0
   60.3440   30.9860   47.1440 N   0  0  0  0  0  0  0  0  0  0  0  0
   59.6930   29.7090   46.8370 C   0  0  0  0  0  0  0  0  0  0  0  0
   58.6510   29.9100   45.7670 C   0  0  0  0  0  0  0  0  0  0  0  0
   57.4980   29.1050   45.7540 C   0  0  0  0  0  0  0  0  0  0  0  0
   56.5090   29.3100   44.7910 C   0  0  0  0  0  0  0  0  0  0  0  0
   56.6600   30.3220   43.8360 C   0  0  0  0  0  0  0  0  0  0  0  0
   57.8010   31.1260   43.8460 C   0  0  0  0  0  0  0  0  0  0  0  0
   57.9430   32.1080   42.9270 F   0  0  0  0  0  0  0  0  0  0  0  0
   58.7920   30.9300   44.8130 C   0  0  0  0  0  0  0  0  0  0  0  0
   58.5937   32.5257   50.6294 H   0  0  0  0  0  0  0  0  0  0  0  0
   57.2913   32.4597   49.3940 H   0  0  0  0  0  0  0  0  0  0  0  0
   58.5929   31.2217   49.3940 H   0  0  0  0  0  0  0  0  0  0  0  0
   56.6470   32.9570   47.6853 H   0  0  0  0  0  0  0  0  0  0  0  0
   55.9754   33.7052   45.4061 H   0  0  0  0  0  0  0  0  0  0  0  0
   57.6586   34.7347   43.8791 H   0  0  0  0  0  0  0  0  0  0  0  0
   60.0325   34.9585   44.6029 H   0  0  0  0  0  0  0  0  0  0  0  0
   61.7758   34.0424   46.0560 H   0  0  0  0  0  0  0  0  0  0  0  0
   61.3128   35.1829   47.3890 H   0  0  0  0  0  0  0  0  0  0  0  0
   60.6570   32.6800   48.2490 H   0  0  0  0  0  0  0  0  0  0  0  0
   61.8910   33.6560   48.8200 H   0  0  0  0  0  0  0  0  0  0  0  0
   62.9487   32.5568   46.5265 H   0  0  0  0  0  0  0  0  0  0  0  0
   63.2387   31.9860   48.2270 H   0  0  0  0  0  0  0  0  0  0  0  0
   62.1198   30.4897   46.1331 H   0  0  0  0  0  0  0  0  0  0  0  0
   62.0902   30.0946   47.8927 H   0  0  0  0  0  0  0  0  0  0  0  0
   60.0700   31.2660   48.1130 H   0  0  0  0  0  0  0  0  0  0  0  0
   60.4470   28.9911   46.4819 H   0  0  0  0  0  0  0  0  0  0  0  0
   59.2096   29.3207   47.7456 H   0  0  0  0  0  0  0  0  0  0  0  0
   57.3753   28.3111   46.5054 H   0  0  0  0  0  0  0  0  0  0  0  0
   55.6102   28.6759   44.7825 H   0  0  0  0  0  0  0  0  0  0  0  0
   55.8797   30.4837   43.0777 H   0  0  0  0  0  0  0  0  0  0  0  0
   59.6826   31.5755   44.8261 H   0  0  0  0  0  0  0  0  0  0  0  0
  1  2  1  0
  2  3  1  0
  3  4  2  0
  4  5  1  0
  5  6  2  0
  6  7  1  0
  7  8  2  0
  8  9  1  0
  9 10  1  0
 10 11  1  0
 11 12  1  0
 12 13  1  0
 13 14  1  0
 14 15  1  0
 15 16  2  0
 16 17  1  0
 17 18  2  0
 18 19  1  0
 19 20  1  0
 19 21  2  0
  8  3  1  0
 21 15  1  0
  1 22  1  0
  1 23  1  0
  1 24  1  0
  4 25  1  0
  5 26  1  0
  6 27  1  0
  7 28  1  0
  9 29  1  0
  9 30  1  0
 10 31  1  0
 10 32  1  0
 11 33  1  0
 11 34  1  0
 12 35  1  0
 12 36  1  0
 13 37  1  0
 14 38  1  0
 14 39  1  0
 16 40  1  0
 17 41  1  0
 18 42  1  0
 21 43  1  0
M  CHG  1  10   1
M  END
>  <UniqueID>  (33) 
33

>  <SMILES>  (33) 
COc1ccccc1C[NH2+]CCNCc1cccc(F)c1

>  <Energy>  (33) 
38.30067638056174

>  <Genealogy>  (33) 
COc1ccccc1C[NH2+]CCNCc1cccc(F)c1 (protonated)
COc1ccccc1C[NH2+]CCNCc1cccc(F)c1 (3D coordinates assigned)
COc1ccccc1C[NH2+]CCNCc1cccc(F)c1 (optimized conformer: 38.30067638056174 kcal/mol)

>  <smiles>  (33) 
COc1ccccc1CNCCNCc1cccc(F)c1

>  <score_type>  (33) 
oracle

>  <origin>  (33) 
adg

>  <m_score__min__energy>  (33) 
-4.4000000000000004

>  <m_primary>  (33) 
energy

$$$$
33:0
     RDKit          3D

 50 52  0  0  0  0  0  0  0  0999 V2000
   57.4120   31.1900   43.3930 C   0  0  0  0  0  0  0  0  0  0  0  0
   56.4700   30.1690   44.0220 C   0  0  0  0  0  0  0  0  0  0  0  0
   56.9850   29.7090   45.2720 O   0  0  0  0  0  0  0  0  0  0  0  0
   57.6280   28.4790   45.5000 C   0  0  0  0  0  0  0  0  0  0  0  0
   57.4140   27.3630   44.6640 C   0  0  0  0  0  0  0  0  0  0  0  0
   58.0570   26.1520   44.9170 C   0  0  0  0  0  0  0  0  0  0  0  0
   58.9240   26.0340   46.0000 C   0  0  0  0  0  0  0  0  0  0  0  0
   59.1540   27.1280   46.8350 C   0  0  0  0  0  0  0  0  0  0  0  0
   58.5120   28.3590   46.6000 C   0  0  0  0  0  0  0  0  0  0  0  0
   58.7720   29.5160   47.4940 C   0  0  0  0  0  0  0  0  0  0  0  0
   58.5740   30.8090   47.1570 N   0  0  0  0  0  0  0  0  0  0  0  0
   58.9350   31.5010   48.2510 C   0  0  0  0  0  0  0  0  0  0  0  0
   58.8400   32.9890   48.3920 C   0  0  0  0  0  0  0  0  0  0  0  0
   59.0530   33.6320   47.0800 N   0  0  0  0  0  0  0  0  0  0  0  0
   57.7820   34.0620   46.4450 C   0  0  0  0  0  0  0  0  0  0  0  0
   57.8540   34.2050   44.9170 C   0  0  0  0  0  0  0  0  0  0  0  0
   60.0740   34.7010   47.1490 C   0  0  0  0  0  0  0  0  0  0  0  0
   61.3980   34.1460   47.6020 C   0  0  0  0  0  0  0  0  0  0  0  0
   62.2650   33.5250   46.6870 C   0  0  0  0  0  0  0  0  0  0  0  0
   63.4840   32.9950   47.1210 C   0  0  0  0  0  0  0  0  0  0  0  0
   63.8440   33.0780   48.4690 C   0  0  0  0  0  0  0  0  0  0  0  0
   62.9840   33.6890   49.3860 C   0  0  0  0  0  0  0  0  0  0  0  0
   61.7640   34.2200   48.9550 C   0  0  0  0  0  0  0  0  0  0  0  0
   59.3320   30.6130   49.2260 C   0  0  0  0  0  0  0  0  0  0  0  0
   59.2250   29.4030   48.7260 O   0  0  0  0  0  0  0  0  0  0  0  0
   57.9286   31.7499   44.1865 H   0  0  0  0  0  0  0  0  0  0  0  0
   58.1536   30.6693   42.7694 H   0  0  0  0  0  0  0  0  0  0  0  0
   56.8334   31.8873   42.7694 H   0  0  0  0  0  0  0  0  0  0  0  0
   55.4882   30.6370   44.1864 H   0  0  0  0  0  0  0  0  0  0  0  0
   56.3746   29.3100   43.3415 H   0  0  0  0  0  0  0  0  0  0  0  0
   56.7333   27.4491   43.8042 H   0  0  0  0  0  0  0  0  0  0  0  0
   57.8790   25.2881   44.2597 H   0  0  0  0  0  0  0  0  0  0  0  0
   59.4285   25.0767   46.1977 H   0  0  0  0  0  0  0  0  0  0  0  0
   59.8441   27.0277   47.6857 H   0  0  0  0  0  0  0  0  0  0  0  0
   58.2320   31.2030   46.2530 H   0  0  0  0  0  0  0  0  0  0  0  0
   57.8430   33.2566   48.7719 H   0  0  0  0  0  0  0  0  0  0  0  0
   59.6111   33.3364   49.0954 H   0  0  0  0  0  0  0  0  0  0  0  0
   57.0082   33.3179   46.6851 H   0  0  0  0  0  0  0  0  0  0  0  0
   57.5535   35.0613   46.8440 H   0  0  0  0  0  0  0  0  0  0  0  0
   58.3350   35.1604   44.6604 H   0  0  0  0  0  0  0  0  0  0  0  0
   58.4415   33.3746   44.4983 H   0  0  0  0  0  0  0  0  0  0  0  0
   56.8371   34.1824   44.4983 H   0  0  0  0  0  0  0  0  0  0  0  0
   60.1933   35.1508   46.1523 H   0  0  0  0  0  0  0  0  0  0  0  0
   59.7426   35.4594   47.8736 H   0  0  0  0  0  0  0  0  0  0  0  0
   61.9838   33.4556   45.6258 H   0  0  0  0  0  0  0  0  0  0  0  0
   64.1606   32.5121   46.4005 H   0  0  0  0  0  0  0  0  0  0  0  0
   64.8043   32.6624   48.8083 H   0  0  0  0  0  0  0  0  0  0  0  0
   63.2669   33.7522   50.4471 H   0  0  0  0  0  0  0  0  0  0  0  0
   61.0883   34.6978   49.6797 H   0  0  0  0  0  0  0  0  0  0  0  0
   59.6760   30.8701   50.2387 H   0  0  0  0  0  0  0  0  0  0  0  0
  1  2  1  0
  2  3  1  0
  3  4  1  0
  4  5  2  0
  5  6  1  0
  6  7  2  0
  7  8  1  0
  8  9  2  0
  9 10  1  0
 10 11  2  0
 11 12  1  0
 12 13  1  0
 13 14  1  0
 14 15  1  0
 15 16  1  0
 14 17  1  0
 17 18  1  0
 18 19  2  0
 19 20  1  0
 20 21  2  0
 21 22  1  0
 22 23  2  0
 12 24  2  0
 24 25  1  0
  9  4  1  0
 25 10  1  0
 23 18  1  0
  1 26  1  0
  1 27  1  0
  1 28  1  0
  2 29  1  0
  2 30  1  0
  5 31  1  0
  6 32  1  0
  7 33  1  0
  8 34  1  0
 11 35  1  0
 13 36  1  0
 13 37  1  0
 15 38  1  0
 15 39  1  0
 16 40  1  0
 16 41  1  0
 16 42  1  0
 17 43  1  0
 17 44  1  0
 19 45  1  0
 20 46  1  0
 21 47  1  0
 22 48  1  0
 23 49  1  0
 24 50  1  0
M  CHG  1  11   1
M  END
>  <UniqueID>  (34) 
34

>  <SMILES>  (34) 
CCOc1ccccc1-c1[nH+]c(CN(CC)Cc2ccccc2)co1

>  <Energy>  (34) 
84.33135754745791

>  <Genealogy>  (34) 
CCOc1ccccc1-c1[nH+]c(CN(CC)Cc2ccccc2)co1 (protonated)
CCOc1ccccc1-c1[nH+]c(CN(CC)Cc2ccccc2)co1 (3D coordinates assigned)
CCOc1ccccc1-c1[nH+]c(CN(CC)Cc2ccccc2)co1 (optimized conformer: 84.33135754745791 kcal/mol)

>  <smiles>  (34) 
CCOc1ccccc1-c1nc(CN(CC)Cc2ccccc2)co1

>  <score_type>  (34) 
oracle

>  <origin>  (34) 
adg

>  <m_score__min__energy>  (34) 
-5.7000000000000002

>  <m_primary>  (34) 
energy

$$$$
34:0
     RDKit          3D

 54 57  0  0  1  0  0  0  0  0999 V2000
   60.0230   28.9460   51.0380 C   0  0  0  0  0  0  0  0  0  0  0  0
   61.0930   30.0200   50.9480 C   0  0  0  0  0  0  0  0  0  0  0  0
   60.3180   31.3430   51.0560 C   0  0  0  0  0  0  0  0  0  0  0  0
   61.8380   29.9500   49.7820 O   0  0  0  0  0  0  0  0  0  0  0  0
   62.3360   31.0230   49.1270 C   0  0  0  0  0  0  0  0  0  0  0  0
   63.3260   31.8720   49.5720 C   0  0  0  0  0  0  0  0  0  0  0  0
   63.7810   32.9540   48.8340 C   0  0  0  0  0  0  0  0  0  0  0  0
   63.2410   33.2250   47.5940 C   0  0  0  0  0  0  0  0  0  0  0  0
   62.2470   32.3930   47.1220 C   0  0  0  0  0  0  0  0  0  0  0  0
   61.8080   31.3210   47.8720 C   0  0  0  0  0  0  0  0  0  0  0  0
   60.7450   30.4960   47.2770 C   0  0  0  0  0  0  0  0  0  0  0  0
   59.5820   30.3830   48.0270 C   0  0  0  0  0  0  0  0  0  0  0  0
   58.5160   29.6360   47.5720 C   0  0  0  0  0  0  0  0  0  0  0  0
   58.6660   29.0060   46.3340 C   0  0  0  0  0  0  0  0  0  0  0  0
   57.5050   28.1960   45.8460 C   0  0  0  0  0  0  0  0  0  0  0  0
   56.5680   29.1030   45.1910 N   0  0  0  0  0  0  0  0  0  0  0  0
   56.9800   30.1350   44.5520 C   0  0  0  0  0  0  0  0  0  0  0  0
   57.5190   31.1670   45.2390 N   0  0  0  0  0  0  0  0  0  0  0  0
   57.9730   32.2820   44.6420 C   0  0  0  0  0  0  0  0  0  0  0  0
   58.5560   33.4050   45.3590 C   0  0  0  0  0  0  0  0  0  0  0  0
   58.6300   33.3980   46.7480 C   0  0  0  0  0  0  0  0  0  0  0  0
   59.1750   34.4420   47.4670 C   0  0  0  0  0  0  0  0  0  0  0  0
   59.6530   35.5140   46.7390 C   0  0  0  0  0  0  0  0  0  0  0  0
   59.6030   35.5640   45.3980 N   0  0  0  0  0  0  0  0  0  0  0  0
   59.0630   34.5240   44.7340 C   0  0  0  0  0  0  0  0  0  0  0  0
   57.8740   32.3430   43.3060 N   0  0  0  0  0  0  0  0  0  0  0  0
   57.3480   31.3500   42.5720 C   0  0  0  0  0  0  0  0  0  0  0  0
   56.8810   30.2040   43.1810 C   0  0  0  0  0  0  0  0  0  0  0  0
   56.3450   29.1830   42.4710 F   0  0  0  0  0  0  0  0  0  0  0  0
   59.8260   29.1240   45.5960 C   0  0  0  0  0  0  0  0  0  0  0  0
   60.8830   29.8810   46.0730 C   0  0  0  0  0  0  0  0  0  0  0  0
   59.8080   28.7302   52.0950 H   0  0  0  0  0  0  0  0  0  0  0  0
   59.1067   29.2988   50.5421 H   0  0  0  0  0  0  0  0  0  0  0  0
   60.3792   28.0310   50.5421 H   0  0  0  0  0  0  0  0  0  0  0  0
   61.8432   29.9048   51.7442 H   0  0  0  0  0  0  0  0  0  0  0  0
   60.1700   31.5957   52.1163 H   0  0  0  0  0  0  0  0  0  0  0  0
   60.8897   32.1440   50.5645 H   0  0  0  0  0  0  0  0  0  0  0  0
   59.3397   31.2361   50.5645 H   0  0  0  0  0  0  0  0  0  0  0  0
   63.7759   31.6826   50.5578 H   0  0  0  0  0  0  0  0  0  0  0  0
   64.5753   33.5985   49.2387 H   0  0  0  0  0  0  0  0  0  0  0  0
   63.5930   34.0802   46.9984 H   0  0  0  0  0  0  0  0  0  0  0  0
   61.7990   32.5864   46.1361 H   0  0  0  0  0  0  0  0  0  0  0  0
   59.5100   30.8963   48.9972 H   0  0  0  0  0  0  0  0  0  0  0  0
   57.5895   29.5404   48.1572 H   0  0  0  0  0  0  0  0  0  0  0  0
   57.8535   27.4375   45.1296 H   0  0  0  0  0  0  0  0  0  0  0  0
   57.0162   27.6823   46.6869 H   0  0  0  0  0  0  0  0  0  0  0  0
   57.5750   31.0730   46.2740 H   0  0  0  0  0  0  0  0  0  0  0  0
   58.2391   32.5268   47.2941 H   0  0  0  0  0  0  0  0  0  0  0  0
   59.2262   34.4215   48.5656 H   0  0  0  0  0  0  0  0  0  0  0  0
   60.0937   36.3636   47.2812 H   0  0  0  0  0  0  0  0  0  0  0  0
   59.0246   34.5701   43.6356 H   0  0  0  0  0  0  0  0  0  0  0  0
   57.2890   31.4508   41.4782 H   0  0  0  0  0  0  0  0  0  0  0  0
   59.9115   28.6147   44.6248 H   0  0  0  0  0  0  0  0  0  0  0  0
   61.8114   29.9820   45.4917 H   0  0  0  0  0  0  0  0  0  0  0  0
  1  2  1  0
  2  3  1  0
  2  4  1  0
  4  5  1  0
  5  6  2  0
  6  7  1  0
  7  8  2  0
  8  9  1  0
  9 10  2  0
 10 11  1  0
 11 12  2  0
 12 13  1  0
 13 14  2  0
 14 15  1  0
 15 16  1  0
 16 17  2  0
 17 18  1  0
 18 19  1  0
 19 20  1  0
 20 21  2  0
 21 22  1  0
 22 23  2  0
 23 24  1  0
 24 25  2  0
 19 26  2  0
 26 27  1  0
 27 28  2  0
 28 29  1  0
 14 30  1  0
 30 31  2  0
 10  5  1  0
 31 11  1  0
 28 17  1  0
 25 20  1  0
  1 32  1  0
  1 33  1  0
  1 34  1  0
  2 35  1  0
  3 36  1  0
  3 37  1  0
  3 38  1  0
  6 39  1  0
  7 40  1  0
  8 41  1  0
  9 42  1  0
 12 43  1  0
 13 44  1  0
 15 45  1  0
 15 46  1  0
 18 47  1  0
 21 48  1  0
 22 49  1  0
 23 50  1  0
 25 51  1  0
 27 52  1  0
 30 53  1  0
 31 54  1  0
M  END
>  <smiles>  (35) 
CC(C)Oc1ccccc1-c1ccc(CN=c2[nH]c(-c3cccnc3)ncc2F)cc1

>  <score_type>  (35) 
oracle

>  <origin>  (35) 
adg

>  <m_score__min__energy>  (35) 
-8.9600000000000009

>  <m_primary>  (35) 
energy

$$$$
35:0
     RDKit          3D

 39 41  0  0  0  0  0  0  0  0999 V2000
   57.8790   32.2910   42.3660 C   0  0  0  0  0  0  0  0  0  0  0  0
   57.4250   33.0590   43.4750 O   0  0  0  0  0  0  0  0  0  0  0  0
   58.1580   33.2620   44.6540 C   0  0  0  0  0  0  0  0  0  0  0  0
   58.9080   34.4330   44.8750 C   0  0  0  0  0  0  0  0  0  0  0  0
   59.6250   34.6000   46.0610 C   0  0  0  0  0  0  0  0  0  0  0  0
   59.5980   33.6090   47.0520 C   0  0  0  0  0  0  0  0  0  0  0  0
   60.3410   33.7710   48.2720 N   0  0  0  0  0  0  0  0  0  0  0  0
   59.7430   34.0950   49.5740 C   0  0  0  0  0  0  0  0  0  0  0  0
   60.8500   33.7970   50.6230 C   0  0  0  0  0  0  0  0  0  0  0  0
   61.9440   33.2720   49.8230 N   0  0  0  0  0  0  0  0  0  0  0  0
   63.2750   33.4590   49.9040 C   0  0  0  0  0  0  0  0  0  0  0  0
   63.9970   33.7660   51.1740 C   0  0  0  0  0  0  0  0  0  0  0  0
   63.8440   33.5950   48.6830 N   0  0  0  0  0  0  0  0  0  0  0  0
   62.8070   33.4910   47.8170 C   0  0  0  0  0  0  0  0  0  0  0  0
   62.9120   33.8340   46.3660 C   0  0  0  0  0  0  0  0  0  0  0  0
   61.6460   33.2890   48.5400 C   0  0  0  0  0  0  0  0  0  0  0  0
   58.8650   32.4360   46.8290 C   0  0  0  0  0  0  0  0  0  0  0  0
   58.1380   32.2580   45.6350 C   0  0  0  0  0  0  0  0  0  0  0  0
   57.3850   31.0990   45.3870 O   0  0  0  0  0  0  0  0  0  0  0  0
   57.9130   29.8940   44.8430 C   0  0  0  0  0  0  0  0  0  0  0  0
   58.4072   31.3975   42.7304 H   0  0  0  0  0  0  0  0  0  0  0  0
   57.0172   31.9839   41.7553 H   0  0  0  0  0  0  0  0  0  0  0  0
   58.5635   32.8980   41.7553 H   0  0  0  0  0  0  0  0  0  0  0  0
   58.9291   35.2213   44.1081 H   0  0  0  0  0  0  0  0  0  0  0  0
   60.2149   35.5150   46.2189 H   0  0  0  0  0  0  0  0  0  0  0  0
   59.4533   35.1555   49.6111 H   0  0  0  0  0  0  0  0  0  0  0  0
   58.8321   33.5080   49.7629 H   0  0  0  0  0  0  0  0  0  0  0  0
   61.1521   34.7156   51.1474 H   0  0  0  0  0  0  0  0  0  0  0  0
   60.5201   33.0998   51.4073 H   0  0  0  0  0  0  0  0  0  0  0  0
   63.3624   33.4962   52.0310 H   0  0  0  0  0  0  0  0  0  0  0  0
   64.9318   33.1875   51.2134 H   0  0  0  0  0  0  0  0  0  0  0  0
   64.2289   34.8406   51.2134 H   0  0  0  0  0  0  0  0  0  0  0  0
   63.2325   34.8808   46.2589 H   0  0  0  0  0  0  0  0  0  0  0  0
   63.6492   33.1739   45.8856 H   0  0  0  0  0  0  0  0  0  0  0  0
   61.9316   33.6997   45.8856 H   0  0  0  0  0  0  0  0  0  0  0  0
   58.8569   31.6456   47.5940 H   0  0  0  0  0  0  0  0  0  0  0  0
   58.2080   29.2207   45.6613 H   0  0  0  0  0  0  0  0  0  0  0  0
   57.1468   29.4047   44.2237 H   0  0  0  0  0  0  0  0  0  0  0  0
   58.7921   30.1256   44.2237 H   0  0  0  0  0  0  0  0  0  0  0  0
  1  2  1  0
  2  3  1  0
  3  4  2  0
  4  5  1  0
  5  6  2  0
  6  7  1  0
  7  8  1  0
  8  9  1  0
  9 10  1  0
 10 11  1  0
 11 12  1  0
 11 13  2  0
 13 14  1  0
 14 15  1  0
 14 16  2  0
  6 17  1  0
 17 18  2  0
 18 19  1  0
 19 20  1  0
 18  3  1  0
 16  7  1  0
 16 10  1  0
  1 21  1  0
  1 22  1  0
  1 23  1  0
  4 24  1  0
  5 25  1  0
  8 26  1  0
  8 27  1  0
  9 28  1  0
  9 29  1  0
 12 30  1  0
 12 31  1  0
 12 32  1  0
 15 33  1  0
 15 34  1  0
 15 35  1  0
 17 36  1  0
 20 37  1  0
 20 38  1  0
 20 39  1  0
M  END
>  <UniqueID>  (36) 
35

>  <SMILES>  (36) 
COc1ccc(N2CCn3c(C)nc(C)c32)cc1OC

>  <Energy>  (36) 
101.27835296922356

>  <Genealogy>  (36) 
COc1ccc(N2CCn3c(C)nc(C)c32)cc1OC (3D coordinates assigned)
COc1ccc(N2CCn3c(C)nc(C)c32)cc1OC (nonaromatic ring conformer: 101.27835296922356 kcal/mol)

>  <smiles>  (36) 
COc1ccc(N2CCn3c(C)nc(C)c32)cc1OC

>  <score_type>  (36) 
oracle

>  <origin>  (36) 
adg

>  <m_score__min__energy>  (36) 
-6.0499999999999998

>  <m_primary>  (36) 
energy

$$$$
36:0
     RDKit          3D

 49 52  0  0  0  0  0  0  0  0999 V2000
   65.3080   32.7700   49.9210 C   0  0  0  0  0  0  0  0  0  0  0  0
   64.3440   33.8100   49.7960 O   0  0  0  0  0  0  0  0  0  0  0  0
   63.2090   33.7420   48.9720 C   0  0  0  0  0  0  0  0  0  0  0  0
   63.3960   33.5370   47.6010 C   0  0  0  0  0  0  0  0  0  0  0  0
   62.2990   33.4610   46.7380 C   0  0  0  0  0  0  0  0  0  0  0  0
   60.9910   33.5830   47.2370 C   0  0  0  0  0  0  0  0  0  0  0  0
   59.8290   33.5100   46.3180 C   0  0  0  0  0  0  0  0  0  0  0  0
   59.2830   32.2600   45.9750 C   0  0  0  0  0  0  0  0  0  0  0  0
   58.1920   32.1710   45.0970 C   0  0  0  0  0  0  0  0  0  0  0  0
   57.6440   30.8220   44.7020 C   0  0  0  0  0  0  0  0  0  0  0  0
   58.6810   29.9380   44.1390 N   0  0  0  0  0  0  0  0  0  0  0  0
   58.6030   28.5870   44.6660 C   0  0  0  0  0  0  0  0  0  0  0  0
   58.0550   27.5620   43.8610 C   0  0  0  0  0  0  0  0  0  0  0  0
   57.6030   27.8290   42.6100 F   0  0  0  0  0  0  0  0  0  0  0  0
   57.9990   26.2470   44.3230 C   0  0  0  0  0  0  0  0  0  0  0  0
   58.5170   25.9200   45.5720 C   0  0  0  0  0  0  0  0  0  0  0  0
   59.0880   26.9080   46.3730 C   0  0  0  0  0  0  0  0  0  0  0  0
   59.1090   28.2540   45.9560 C   0  0  0  0  0  0  0  0  0  0  0  0
   59.8080   29.2850   46.8200 C   0  0  0  0  0  0  0  0  0  0  0  0
   59.0720   29.6460   48.1030 C   0  0  0  0  0  0  0  0  0  0  0  0
   60.3460   28.8290   48.1760 C   0  0  0  0  0  0  0  0  0  0  0  0
   57.6410   33.3450   44.5610 C   0  0  0  0  0  0  0  0  0  0  0  0
   58.1720   34.5900   44.9020 C   0  0  0  0  0  0  0  0  0  0  0  0
   59.2580   34.6780   45.7770 C   0  0  0  0  0  0  0  0  0  0  0  0
   59.7300   35.9050   46.1160 F   0  0  0  0  0  0  0  0  0  0  0  0
   60.8040   33.7940   48.6130 C   0  0  0  0  0  0  0  0  0  0  0  0
   61.9020   33.8710   49.4750 C   0  0  0  0  0  0  0  0  0  0  0  0
   65.4944   32.5689   50.9863 H   0  0  0  0  0  0  0  0  0  0  0  0
   64.9286   31.8582   49.4367 H   0  0  0  0  0  0  0  0  0  0  0  0
   66.2459   33.0793   49.4367 H   0  0  0  0  0  0  0  0  0  0  0  0
   64.4147   33.4348   47.1987 H   0  0  0  0  0  0  0  0  0  0  0  0
   62.4607   33.3047   45.6612 H   0  0  0  0  0  0  0  0  0  0  0  0
   59.7159   31.3422   46.3996 H   0  0  0  0  0  0  0  0  0  0  0  0
   57.2146   30.3403   45.5928 H   0  0  0  0  0  0  0  0  0  0  0  0
   56.8823   30.9834   43.9250 H   0  0  0  0  0  0  0  0  0  0  0  0
   58.6030   29.9230   43.0950 H   0  0  0  0  0  0  0  0  0  0  0  0
   59.6170   30.3540   44.3420 H   0  0  0  0  0  0  0  0  0  0  0  0
   57.5434   25.4655   43.6972 H   0  0  0  0  0  0  0  0  0  0  0  0
   58.4760   24.8801   45.9283 H   0  0  0  0  0  0  0  0  0  0  0  0
   59.5278   26.6333   47.3431 H   0  0  0  0  0  0  0  0  0  0  0  0
   60.2429   29.8291   45.9687 H   0  0  0  0  0  0  0  0  0  0  0  0
   59.0665   30.6870   48.4582 H   0  0  0  0  0  0  0  0  0  0  0  0
   58.0437   29.5134   48.4706 H   0  0  0  0  0  0  0  0  0  0  0  0
   61.2645   29.2777   48.5823 H   0  0  0  0  0  0  0  0  0  0  0  0
   60.6244   27.8602   48.6163 H   0  0  0  0  0  0  0  0  0  0  0  0
   56.7876   33.2839   43.8697 H   0  0  0  0  0  0  0  0  0  0  0  0
   57.7335   35.5063   44.4799 H   0  0  0  0  0  0  0  0  0  0  0  0
   59.7857   33.8995   49.0155 H   0  0  0  0  0  0  0  0  0  0  0  0
   61.7430   34.0332   50.5513 H   0  0  0  0  0  0  0  0  0  0  0  0
  1  2  1  0
  2  3  1  0
  3  4  2  0
  4  5  1  0
  5  6  2  0
  6  7  1  0
  7  8  2  0
  8  9  1  0
  9 10  1  0
 10 11  1  0
 11 12  1  0
 12 13  2  0
 13 14  1  0
 13 15  1  0
 15 16  2  0
 16 17  1  0
 17 18  2  0
 18 19  1  0
 19 20  1  0
 20 21  1  0
  9 22  2  0
 22 23  1  0
 23 24  2  0
 24 25  1  0
  6 26  1  0
 26 27  2  0
 27  3  1  0
 24  7  1  0
 18 12  1  0
 21 19  1  0
  1 28  1  0
  1 29  1  0
  1 30  1  0
  4 31  1  0
  5 32  1  0
  8 33  1  0
 10 34  1  0
 10 35  1  0
 11 36  1  0
 11 37  1  0
 15 38  1  0
 16 39  1  0
 17 40  1  0
 19 41  1  0
 20 42  1  0
 20 43  1  0
 21 44  1  0
 21 45  1  0
 22 46  1  0
 23 47  1  0
 26 48  1  0
 27 49  1  0
M  CHG  1  11   1
M  END
>  <UniqueID>  (37) 
36

>  <SMILES>  (37) 
COc1ccc(-c2cc(C[NH2+]c3c(F)cccc3C3CC3)ccc2F)cc1

>  <Energy>  (37) 
326.1778976500132

>  <Genealogy>  (37) 
COc1ccc(-c2cc(C[NH2+]c3c(F)cccc3C3CC3)ccc2F)cc1 (protonated)
COc1ccc(-c2cc(C[NH2+]c3c(F)cccc3C3CC3)ccc2F)cc1 (3D coordinates assigned)
COc1ccc(-c2cc(C[NH2+]c3c(F)cccc3C3CC3)ccc2F)cc1 (nonaromatic ring conformer: 326.1778976500132 kcal/mol)

>  <smiles>  (37) 
COc1ccc(-c2cc(CNc3c(F)cccc3C3CC3)ccc2F)cc1

>  <score_type>  (37) 
oracle

>  <origin>  (37) 
adg

>  <m_score__min__energy>  (37) 
-6.7599999999999998

>  <m_primary>  (37) 
energy

$$$$
37:0
     RDKit          3D

 39 40  0  0  0  0  0  0  0  0999 V2000
   59.9420   34.2710   47.5110 C   0  0  0  0  0  0  0  0  0  0  0  0
   60.8780   33.8160   46.3970 C   0  0  0  0  0  0  0  0  0  0  0  0
   61.9030   32.8500   46.9270 C   0  0  0  0  0  0  0  0  0  0  0  0
   63.1210   33.1030   46.7210 O   0  0  0  0  0  0  0  0  0  0  0  0
   61.5290   31.6370   47.6240 N   0  0  0  0  0  0  0  0  0  0  0  0
   62.2690   31.1920   48.8100 C   0  0  0  0  0  0  0  0  0  0  0  0
   60.4900   30.7950   47.0860 C   0  0  0  0  0  0  0  0  0  0  0  0
   60.8090   29.7350   46.2220 C   0  0  0  0  0  0  0  0  0  0  0  0
   59.8000   28.9190   45.7020 C   0  0  0  0  0  0  0  0  0  0  0  0
   58.4610   29.1490   46.0450 C   0  0  0  0  0  0  0  0  0  0  0  0
   57.1960   28.1300   45.3620 S   0  0  0  0  0  0  0  0  0  0  0  0
   56.7940   27.0710   46.3510 O   0  0  0  0  0  0  0  0  0  0  0  0
   57.7340   27.4490   44.1360 O   0  0  0  0  0  0  0  0  0  0  0  0
   55.8000   29.0740   44.9170 N   0  0  0  0  0  0  0  0  0  0  0  0
   56.0290   29.8230   43.6810 C   0  0  0  0  0  0  0  0  0  0  0  0
   56.7910   31.0830   43.9430 C   0  0  0  0  0  0  0  0  0  0  0  0
   57.7350   31.6450   43.1070 C   0  0  0  0  0  0  0  0  0  0  0  0
   58.1540   32.7940   43.7450 C   0  0  0  0  0  0  0  0  0  0  0  0
   57.4430   32.8580   44.9260 C   0  0  0  0  0  0  0  0  0  0  0  0
   56.6380   31.8250   45.0150 O   0  0  0  0  0  0  0  0  0  0  0  0
   58.1390   30.2060   46.9070 C   0  0  0  0  0  0  0  0  0  0  0  0
   59.1470   31.0230   47.4260 C   0  0  0  0  0  0  0  0  0  0  0  0
   60.3985   34.0491   48.4869 H   0  0  0  0  0  0  0  0  0  0  0  0
   59.7688   35.3539   47.4249 H   0  0  0  0  0  0  0  0  0  0  0  0
   58.9834   33.7383   47.4249 H   0  0  0  0  0  0  0  0  0  0  0  0
   60.2895   33.3225   45.6095 H   0  0  0  0  0  0  0  0  0  0  0  0
   61.3976   34.6957   45.9894 H   0  0  0  0  0  0  0  0  0  0  0  0
   61.7354   31.5129   49.7168 H   0  0  0  0  0  0  0  0  0  0  0  0
   62.3504   30.0950   48.8012 H   0  0  0  0  0  0  0  0  0  0  0  0
   63.2761   31.6344   48.8012 H   0  0  0  0  0  0  0  0  0  0  0  0
   61.8586   29.5457   45.9529 H   0  0  0  0  0  0  0  0  0  0  0  0
   60.0579   28.0940   45.0216 H   0  0  0  0  0  0  0  0  0  0  0  0
   56.6027   29.1957   42.9829 H   0  0  0  0  0  0  0  0  0  0  0  0
   55.0526   30.0906   43.2509 H   0  0  0  0  0  0  0  0  0  0  0  0
   58.0802   31.2582   42.1368 H   0  0  0  0  0  0  0  0  0  0  0  0
   58.9037   33.5140   43.3850 H   0  0  0  0  0  0  0  0  0  0  0  0
   57.5367   33.6544   45.6790 H   0  0  0  0  0  0  0  0  0  0  0  0
   57.0890   30.3932   47.1761 H   0  0  0  0  0  0  0  0  0  0  0  0
   58.8869   31.8489   48.1044 H   0  0  0  0  0  0  0  0  0  0  0  0
  1  2  1  0
  2  3  1  0
  3  4  2  0
  3  5  1  0
  5  6  1  0
  5  7  1  0
  7  8  2  0
  8  9  1  0
  9 10  2  0
 10 11  1  0
 11 12  2  0
 11 13  2  0
 11 14  1  0
 14 15  1  0
 15 16  1  0
 16 17  2  0
 17 18  1  0
 18 19  2  0
 19 20  1  0
 10 21  1  0
 21 22  2  0
 22  7  1  0
 20 16  1  0
  1 23  1  0
  1 24  1  0
  1 25  1  0
  2 26  1  0
  2 27  1  0
  6 28  1  0
  6 29  1  0
  6 30  1  0
  8 31  1  0
  9 32  1  0
 15 33  1  0
 15 34  1  0
 17 35  1  0
 18 36  1  0
 19 37  1  0
 21 38  1  0
 22 39  1  0
M  CHG  1  14  -1
M  END
>  <UniqueID>  (38) 
37

>  <SMILES>  (38) 
CCC(=O)N(C)c1ccc(S(=O)(=O)[N-]Cc2ccco2)cc1

>  <Energy>  (38) 
65.03943865549341

>  <Genealogy>  (38) 
CCC(=O)N(C)c1ccc(S(=O)(=O)[N-]Cc2ccco2)cc1 (protonated)
CCC(=O)N(C)c1ccc(S(=O)(=O)[N-]Cc2ccco2)cc1 (3D coordinates assigned)
CCC(=O)N(C)c1ccc(S(=O)(=O)[N-]Cc2ccco2)cc1 (optimized conformer: 65.03943865549341 kcal/mol)

>  <smiles>  (38) 
CCC(=O)N(C)c1ccc(S(=O)(=O)NCc2ccco2)cc1

>  <score_type>  (38) 
oracle

>  <origin>  (38) 
adg

>  <m_score__min__energy>  (38) 
-9.4199999999999999

>  <m_primary>  (38) 
energy

$$$$
38:0
     RDKit          3D

 44 45  0  0  0  0  0  0  0  0999 V2000
   60.2240   29.6270   46.9480 C   0  0  0  0  0  0  0  0  0  0  0  0
   60.9800   29.3370   45.6610 C   0  0  0  0  0  0  0  0  0  0  0  0
   60.7400   27.9890   45.2660 O   0  0  0  0  0  0  0  0  0  0  0  0
   59.5480   27.2860   45.5050 C   0  0  0  0  0  0  0  0  0  0  0  0
   59.5260   26.1000   46.2660 C   0  0  0  0  0  0  0  0  0  0  0  0
   58.3340   25.3950   46.4420 C   0  0  0  0  0  0  0  0  0  0  0  0
   57.1510   25.8510   45.8540 C   0  0  0  0  0  0  0  0  0  0  0  0
   55.6500   24.9580   46.0960 S   0  0  0  0  0  0  0  0  0  0  0  0
   54.4930   25.8960   45.8880 O   0  0  0  0  0  0  0  0  0  0  0  0
   55.5910   24.4300   47.5030 O   0  0  0  0  0  0  0  0  0  0  0  0
   55.5500   23.6380   44.9560 N   0  0  0  0  0  0  0  0  0  0  0  0
   56.2950   23.9800   43.7220 C   0  0  0  0  0  0  0  0  0  0  0  0
   56.6260   22.7300   42.9020 C   0  0  0  0  0  0  0  0  0  0  0  0
   57.5370   21.7740   43.6920 C   0  0  0  0  0  0  0  0  0  0  0  0
   57.3850   21.9310   45.2140 C   0  0  0  0  0  0  0  0  0  0  0  0
   55.9580   22.3570   45.5880 C   0  0  0  0  0  0  0  0  0  0  0  0
   57.1610   27.0340   45.1060 C   0  0  0  0  0  0  0  0  0  0  0  0
   58.3460   27.7680   44.9480 C   0  0  0  0  0  0  0  0  0  0  0  0
   58.3160   28.9780   44.1730 N   0  0  0  0  0  0  0  0  0  0  0  0
   57.2990   29.9790   44.3170 C   0  0  0  0  0  0  0  0  0  0  0  0
   56.2690   29.7460   45.0080 O   0  0  0  0  0  0  0  0  0  0  0  0
   57.4160   31.2770   43.5770 C   0  0  0  0  0  0  0  0  0  0  0  0
   56.6450   31.2220   42.4320 F   0  0  0  0  0  0  0  0  0  0  0  0
   56.9800   32.3240   44.3690 F   0  0  0  0  0  0  0  0  0  0  0  0
   58.7360   31.4970   43.2290 F   0  0  0  0  0  0  0  0  0  0  0  0
   60.8613   29.3825   47.8106 H   0  0  0  0  0  0  0  0  0  0  0  0
   59.9536   30.6927   46.9822 H   0  0  0  0  0  0  0  0  0  0  0  0
   59.3102   29.0156   46.9822 H   0  0  0  0  0  0  0  0  0  0  0  0
   60.6337   30.0186   44.8701 H   0  0  0  0  0  0  0  0  0  0  0  0
   62.0574   29.4860   45.8255 H   0  0  0  0  0  0  0  0  0  0  0  0
   60.4540   25.7274   46.7242 H   0  0  0  0  0  0  0  0  0  0  0  0
   58.3258   24.4760   47.0465 H   0  0  0  0  0  0  0  0  0  0  0  0
   55.6810   24.6569   43.1098 H   0  0  0  0  0  0  0  0  0  0  0  0
   57.2399   24.4630   44.0118 H   0  0  0  0  0  0  0  0  0  0  0  0
   55.6912   22.2084   42.6491 H   0  0  0  0  0  0  0  0  0  0  0  0
   57.1545   23.0412   41.9888 H   0  0  0  0  0  0  0  0  0  0  0  0
   57.2832   20.7394   43.4179 H   0  0  0  0  0  0  0  0  0  0  0  0
   58.5781   22.0194   43.4352 H   0  0  0  0  0  0  0  0  0  0  0  0
   57.6111   20.9696   45.6983 H   0  0  0  0  0  0  0  0  0  0  0  0
   58.0822   22.7104   45.5553 H   0  0  0  0  0  0  0  0  0  0  0  0
   55.2612   21.5694   45.2653 H   0  0  0  0  0  0  0  0  0  0  0  0
   55.9340   22.5055   46.6777 H   0  0  0  0  0  0  0  0  0  0  0  0
   56.2318   27.3912   44.6381 H   0  0  0  0  0  0  0  0  0  0  0  0
   58.9790   29.0640   43.3690 H   0  0  0  0  0  0  0  0  0  0  0  0
  1  2  1  0
  2  3  1  0
  3  4  1  0
  4  5  2  0
  5  6  1  0
  6  7  2  0
  7  8  1  0
  8  9  2  0
  8 10  2  0
  8 11  1  0
 11 12  1  0
 12 13  1  0
 13 14  1  0
 14 15  1  0
 15 16  1  0
  7 17  1  0
 17 18  2  0
 18 19  1  0
 19 20  1  0
 20 21  2  0
 20 22  1  0
 22 23  1  0
 22 24  1  0
 22 25  1  0
 18  4  1  0
 16 11  1  0
  1 26  1  0
  1 27  1  0
  1 28  1  0
  2 29  1  0
  2 30  1  0
  5 31  1  0
  6 32  1  0
 12 33  1  0
 12 34  1  0
 13 35  1  0
 13 36  1  0
 14 37  1  0
 14 38  1  0
 15 39  1  0
 15 40  1  0
 16 41  1  0
 16 42  1  0
 17 43  1  0
 19 44  1  0
M  END
>  <UniqueID>  (39) 
38

>  <SMILES>  (39) 
CCOc1ccc(S(=O)(=O)N2CCCCC2)cc1NC(=O)C(F)(F)F

>  <Energy>  (39) 
47.34498670197523

>  <Genealogy>  (39) 
CCOc1ccc(S(=O)(=O)N2CCCCC2)cc1NC(=O)C(F)(F)F (3D coordinates assigned)
CCOc1ccc(S(=O)(=O)N2CCCCC2)cc1NC(=O)C(F)(F)F (nonaromatic ring conformer: 47.34498670197523 kcal/mol)

>  <smiles>  (39) 
CCOc1ccc(S(=O)(=O)N2CCCCC2)cc1NC(=O)C(F)(F)F

>  <score_type>  (39) 
oracle

>  <origin>  (39) 
adg

>  <m_score__min__energy>  (39) 
-7.5700000000000003

>  <m_primary>  (39) 
energy

$$$$
39:0
     RDKit          3D

 56 59  0  0  0  0  0  0  0  0999 V2000
   60.1500   33.8550   49.4850 C   0  0  0  0  0  0  0  0  0  0  0  0
   59.4430   33.8420   48.1300 C   0  0  0  0  0  0  0  0  0  0  0  0
   60.4200   33.9650   47.0230 N   0  0  0  0  0  0  0  0  0  0  0  0
   60.0010   34.9850   46.0360 C   0  0  0  0  0  0  0  0  0  0  0  0
   58.8250   34.4750   45.2040 C   0  0  0  0  0  0  0  0  0  0  0  0
   61.7930   34.2160   47.5280 C   0  0  0  0  0  0  0  0  0  0  0  0
   62.8250   33.6670   46.5400 C   0  0  0  0  0  0  0  0  0  0  0  0
   63.5750   32.5570   47.1240 N   0  0  0  0  0  0  0  0  0  0  0  0
   62.9940   31.7680   48.1720 C   0  0  0  0  0  0  0  0  0  0  0  0
   63.5850   31.6870   49.4540 C   0  0  0  0  0  0  0  0  0  0  0  0
   64.7910   32.3580   49.7370 C   0  0  0  0  0  0  0  0  0  0  0  0
   65.3660   32.2890   51.0040 C   0  0  0  0  0  0  0  0  0  0  0  0
   64.7530   31.5480   52.0110 C   0  0  0  0  0  0  0  0  0  0  0  0
   63.5660   30.8610   51.7560 C   0  0  0  0  0  0  0  0  0  0  0  0
   62.9600   30.9000   50.4760 C   0  0  0  0  0  0  0  0  0  0  0  0
   61.7960   30.2000   50.2050 N   0  0  0  0  0  0  0  0  0  0  0  0
   61.1460   29.3710   51.2360 C   0  0  0  0  0  0  0  0  0  0  0  0
   61.2510   30.3020   48.9530 C   0  0  0  0  0  0  0  0  0  0  0  0
   59.8280   29.6040   48.3740 S   0  0  0  0  0  0  0  0  0  0  0  0
   59.9170   30.2670   46.8170 C   0  0  0  0  0  0  0  0  0  0  0  0
   58.9130   30.0690   45.7380 C   0  0  0  0  0  0  0  0  0  0  0  0
   58.1050   31.1330   45.2900 C   0  0  0  0  0  0  0  0  0  0  0  0
   57.1520   30.9310   44.2870 C   0  0  0  0  0  0  0  0  0  0  0  0
   56.9950   29.6690   43.7140 C   0  0  0  0  0  0  0  0  0  0  0  0
   57.7930   28.6070   44.1390 C   0  0  0  0  0  0  0  0  0  0  0  0
   58.7460   28.8020   45.1430 C   0  0  0  0  0  0  0  0  0  0  0  0
   61.0740   31.0510   46.7460 C   0  0  0  0  0  0  0  0  0  0  0  0
   61.8140   31.0590   47.9410 C   0  0  0  0  0  0  0  0  0  0  0  0
   59.4003   33.8412   50.2899 H   0  0  0  0  0  0  0  0  0  0  0  0
   60.7958   32.9686   49.5702 H   0  0  0  0  0  0  0  0  0  0  0  0
   60.7627   34.7646   49.5702 H   0  0  0  0  0  0  0  0  0  0  0  0
   58.8917   32.8965   48.0204 H   0  0  0  0  0  0  0  0  0  0  0  0
   58.7521   34.6968   48.0857 H   0  0  0  0  0  0  0  0  0  0  0  0
   59.6987   35.8996   46.5671 H   0  0  0  0  0  0  0  0  0  0  0  0
   60.8458   35.1975   45.3643 H   0  0  0  0  0  0  0  0  0  0  0  0
   58.0248   34.1280   45.8743 H   0  0  0  0  0  0  0  0  0  0  0  0
   58.4445   35.2890   44.5694 H   0  0  0  0  0  0  0  0  0  0  0  0
   59.1592   33.6410   44.5694 H   0  0  0  0  0  0  0  0  0  0  0  0
   61.9443   35.2989   47.6480 H   0  0  0  0  0  0  0  0  0  0  0  0
   61.9182   33.7111   48.4972 H   0  0  0  0  0  0  0  0  0  0  0  0
   62.3053   33.3137   45.6372 H   0  0  0  0  0  0  0  0  0  0  0  0
   63.5314   34.4722   46.2898 H   0  0  0  0  0  0  0  0  0  0  0  0
   64.2890   32.0910   46.5180 H   0  0  0  0  0  0  0  0  0  0  0  0
   65.2848   32.9437   48.9476 H   0  0  0  0  0  0  0  0  0  0  0  0
   66.3065   32.8212   51.2094 H   0  0  0  0  0  0  0  0  0  0  0  0
   65.2068   31.5042   53.0121 H   0  0  0  0  0  0  0  0  0  0  0  0
   63.0931   30.2799   52.5614 H   0  0  0  0  0  0  0  0  0  0  0  0
   61.4319   29.7356   52.2337 H   0  0  0  0  0  0  0  0  0  0  0  0
   60.0537   29.4335   51.1219 H   0  0  0  0  0  0  0  0  0  0  0  0
   61.4673   28.3252   51.1219 H   0  0  0  0  0  0  0  0  0  0  0  0
   58.2252   32.1323   45.7337 H   0  0  0  0  0  0  0  0  0  0  0  0
   56.5248   31.7691   43.9491 H   0  0  0  0  0  0  0  0  0  0  0  0
   56.2423   29.5115   42.9275 H   0  0  0  0  0  0  0  0  0  0  0  0
   57.6722   27.6133   43.6829 H   0  0  0  0  0  0  0  0  0  0  0  0
   59.3714   27.9589   45.4718 H   0  0  0  0  0  0  0  0  0  0  0  0
   61.3744   31.6057   45.8448 H   0  0  0  0  0  0  0  0  0  0  0  0
  1  2  1  0
  2  3  1  0
  3  4  1  0
  4  5  1  0
  3  6  1  0
  6  7  1  0
  7  8  1  0
  8  9  1  0
  9 10  2  0
 10 11  1  0
 11 12  2  0
 12 13  1  0
 13 14  2  0
 14 15  1  0
 15 16  2  0
 16 17  1  0
 16 18  1  0
 18 19  1  0
 19 20  1  0
 20 21  1  0
 21 22  2  0
 22 23  1  0
 23 24  2  0
 24 25  1  0
 25 26  2  0
 20 27  2  0
 27 28  1  0
 28  9  1  0
 15 10  1  0
 28 18  2  0
 26 21  1  0
  1 29  1  0
  1 30  1  0
  1 31  1  0
  2 32  1  0
  2 33  1  0
  4 34  1  0
  4 35  1  0
  5 36  1  0
  5 37  1  0
  5 38  1  0
  6 39  1  0
  6 40  1  0
  7 41  1  0
  7 42  1  0
  8 43  1  0
 11 44  1  0
 12 45  1  0
 13 46  1  0
 14 47  1  0
 17 48  1  0
 17 49  1  0
 17 50  1  0
 22 51  1  0
 23 52  1  0
 24 53  1  0
 25 54  1  0
 26 55  1  0
 27 56  1  0
M  CHG  1  16   1
M  END
>  <UniqueID>  (40) 
39

>  <SMILES>  (40) 
CCN(CC)CCNc1c2ccccc2[n+](C)c2sc(-c3ccccc3)cc12

>  <Energy>  (40) 
105.1600444681409

>  <Genealogy>  (40) 
CCN(CC)CCNc1c2ccccc2[n+](C)c2sc(-c3ccccc3)cc12 (3D coordinates assigned)
CCN(CC)CCNc1c2ccccc2[n+](C)c2sc(-c3ccccc3)cc12 (optimized conformer: 105.1600444681409 kcal/mol)

>  <smiles>  (40) 
CCN(CC)CCNc1c2ccccc2[n+](C)c2sc(-c3ccccc3)cc12

>  <score_type>  (40) 
oracle

>  <origin>  (40) 
adg

>  <m_score__min__energy>  (40) 
-6.6900000000000004

>  <m_primary>  (40) 
energy

$$$$
40:0
     RDKit          3D

 37 39  0  0  0  0  0  0  0  0999 V2000
   56.9970   26.3050   45.6380 C   0  0  0  0  0  0  0  0  0  0  0  0
   56.5830   27.6670   45.6190 O   0  0  0  0  0  0  0  0  0  0  0  0
   57.4290   28.7570   45.8760 C   0  0  0  0  0  0  0  0  0  0  0  0
   58.5820   28.6300   46.6880 C   0  0  0  0  0  0  0  0  0  0  0  0
   59.3660   29.7600   46.8960 C   0  0  0  0  0  0  0  0  0  0  0  0
   60.5280   29.9090   47.6200 C   0  0  0  0  0  0  0  0  0  0  0  0
   60.8900   31.2460   47.4610 C   0  0  0  0  0  0  0  0  0  0  0  0
   62.1130   31.8440   48.0390 C   0  0  0  0  0  0  0  0  0  0  0  0
   62.9240   32.7010   47.2740 C   0  0  0  0  0  0  0  0  0  0  0  0
   64.0900   33.2440   47.8230 C   0  0  0  0  0  0  0  0  0  0  0  0
   64.4630   32.9280   49.1330 C   0  0  0  0  0  0  0  0  0  0  0  0
   65.5930   33.4540   49.6630 F   0  0  0  0  0  0  0  0  0  0  0  0
   63.6710   32.0620   49.8940 C   0  0  0  0  0  0  0  0  0  0  0  0
   62.5050   31.5170   49.3480 C   0  0  0  0  0  0  0  0  0  0  0  0
   59.9730   31.9010   46.6960 N   0  0  0  0  0  0  0  0  0  0  0  0
   59.9610   33.3190   46.3290 C   0  0  0  0  0  0  0  0  0  0  0  0
   59.0580   30.9730   46.3440 C   0  0  0  0  0  0  0  0  0  0  0  0
   57.9320   31.1350   45.5330 C   0  0  0  0  0  0  0  0  0  0  0  0
   57.1040   30.0100   45.2990 C   0  0  0  0  0  0  0  0  0  0  0  0
   55.9540   30.0910   44.4970 O   0  0  0  0  0  0  0  0  0  0  0  0
   55.9110   29.7550   43.1140 C   0  0  0  0  0  0  0  0  0  0  0  0
   57.0996   25.9675   46.6799 H   0  0  0  0  0  0  0  0  0  0  0  0
   56.2463   25.6864   45.1244 H   0  0  0  0  0  0  0  0  0  0  0  0
   57.9650   26.2088   45.1244 H   0  0  0  0  0  0  0  0  0  0  0  0
   58.8503   27.6645   47.1417 H   0  0  0  0  0  0  0  0  0  0  0  0
   61.0572   29.1383   48.1996 H   0  0  0  0  0  0  0  0  0  0  0  0
   62.6402   32.9452   46.2397 H   0  0  0  0  0  0  0  0  0  0  0  0
   64.7152   33.9214   47.2228 H   0  0  0  0  0  0  0  0  0  0  0  0
   63.9658   31.8094   50.9232 H   0  0  0  0  0  0  0  0  0  0  0  0
   61.8909   30.8282   49.9467 H   0  0  0  0  0  0  0  0  0  0  0  0
   59.9558   33.9338   47.2411 H   0  0  0  0  0  0  0  0  0  0  0  0
   60.8572   33.5516   45.7351 H   0  0  0  0  0  0  0  0  0  0  0  0
   59.0610   33.5364   45.7351 H   0  0  0  0  0  0  0  0  0  0  0  0
   57.6944   32.1121   45.0872 H   0  0  0  0  0  0  0  0  0  0  0  0
   55.7721   28.6693   43.0046 H   0  0  0  0  0  0  0  0  0  0  0  0
   55.0730   30.2821   42.6345 H   0  0  0  0  0  0  0  0  0  0  0  0
   56.8547   30.0540   42.6345 H   0  0  0  0  0  0  0  0  0  0  0  0
  1  2  1  0
  2  3  1  0
  3  4  2  0
  4  5  1  0
  5  6  1  0
  6  7  2  0
  7  8  1  0
  8  9  2  0
  9 10  1  0
 10 11  2  0
 11 12  1  0
 11 13  1  0
 13 14  2  0
  7 15  1  0
 15 16  1  0
 15 17  1  0
 17 18  1  0
 18 19  2  0
 19 20  1  0
 20 21  1  0
 19  3  1  0
 17  5  2  0
 14  8  1  0
  1 22  1  0
  1 23  1  0
  1 24  1  0
  4 25  1  0
  6 26  1  0
  9 27  1  0
 10 28  1  0
 13 29  1  0
 14 30  1  0
 16 31  1  0
 16 32  1  0
 16 33  1  0
 18 34  1  0
 21 35  1  0
 21 36  1  0
 21 37  1  0
M  END
>  <UniqueID>  (41) 
40

>  <SMILES>  (41) 
COc1cc2cc(-c3ccc(F)cc3)n(C)c2cc1OC

>  <Energy>  (41) 
76.77585005023928

>  <Genealogy>  (41) 
COc1cc2cc(-c3ccc(F)cc3)n(C)c2cc1OC (3D coordinates assigned)
COc1cc2cc(-c3ccc(F)cc3)n(C)c2cc1OC (optimized conformer: 76.77585005023928 kcal/mol)

>  <smiles>  (41) 
COc1cc2cc(-c3ccc(F)cc3)n(C)c2cc1OC

>  <score_type>  (41) 
oracle

>  <origin>  (41) 
adg

>  <m_score__min__energy>  (41) 
-6.2800000000000002

>  <m_primary>  (41) 
energy

$$$$
41:0
     RDKit          3D

 48 51  0  0  0  0  0  0  0  0999 V2000
   57.3370   23.4860   44.1190 C   0  0  0  0  0  0  0  0  0  0  0  0
   57.8890   24.4830   44.9710 O   0  0  0  0  0  0  0  0  0  0  0  0
   57.7060   25.8630   44.8000 C   0  0  0  0  0  0  0  0  0  0  0  0
   57.2050   26.6910   45.8220 C   0  0  0  0  0  0  0  0  0  0  0  0
   57.0440   28.0630   45.6020 C   0  0  0  0  0  0  0  0  0  0  0  0
   57.3830   28.6260   44.3640 C   0  0  0  0  0  0  0  0  0  0  0  0
   57.2050   30.3630   44.0980 S   0  0  0  0  0  0  0  0  0  0  0  0
   57.0230   30.6230   42.6280 O   0  0  0  0  0  0  0  0  0  0  0  0
   55.9750   30.8510   44.8120 O   0  0  0  0  0  0  0  0  0  0  0  0
   58.6030   31.2420   44.6720 N   0  0  0  0  0  0  0  0  0  0  0  0
   59.4120   30.4210   45.6070 C   0  0  0  0  0  0  0  0  0  0  0  0
   59.2790   30.8570   47.0710 C   0  0  0  0  0  0  0  0  0  0  0  0
   59.5850   32.2830   47.1870 N   0  0  0  0  0  0  0  0  0  0  0  0
   60.0850   32.8070   48.4250 C   0  0  0  0  0  0  0  0  0  0  0  0
   59.1820   33.3180   49.3650 C   0  0  0  0  0  0  0  0  0  0  0  0
   59.6560   33.8200   50.5780 C   0  0  0  0  0  0  0  0  0  0  0  0
   60.9870   33.8130   50.8470 N   0  0  0  0  0  0  0  0  0  0  0  0
   61.8960   33.3270   49.9590 C   0  0  0  0  0  0  0  0  0  0  0  0
   63.2580   33.3420   50.2780 C   0  0  0  0  0  0  0  0  0  0  0  0
   64.1980   32.8480   49.3680 C   0  0  0  0  0  0  0  0  0  0  0  0
   65.9050   32.8690   49.7710 Cl  0  0  0  0  0  0  0  0  0  0  0  0
   63.7780   32.3380   48.1350 C   0  0  0  0  0  0  0  0  0  0  0  0
   62.4200   32.3170   47.8060 C   0  0  0  0  0  0  0  0  0  0  0  0
   61.4640   32.8080   48.7150 C   0  0  0  0  0  0  0  0  0  0  0  0
   59.2640   33.1940   46.0860 C   0  0  0  0  0  0  0  0  0  0  0  0
   58.1930   32.5680   45.1870 C   0  0  0  0  0  0  0  0  0  0  0  0
   57.8720   27.8000   43.3440 C   0  0  0  0  0  0  0  0  0  0  0  0
   58.0340   26.4300   43.5620 C   0  0  0  0  0  0  0  0  0  0  0  0
   56.8940   22.6858   44.7301 H   0  0  0  0  0  0  0  0  0  0  0  0
   56.5594   23.9358   43.4841 H   0  0  0  0  0  0  0  0  0  0  0  0
   58.1309   23.0657   43.4841 H   0  0  0  0  0  0  0  0  0  0  0  0
   56.9391   26.2576   46.7974 H   0  0  0  0  0  0  0  0  0  0  0  0
   56.6493   28.7033   46.4047 H   0  0  0  0  0  0  0  0  0  0  0  0
   59.0853   29.3739   45.5239 H   0  0  0  0  0  0  0  0  0  0  0  0
   60.4670   30.5509   45.3239 H   0  0  0  0  0  0  0  0  0  0  0  0
   58.2506   30.6738   47.4158 H   0  0  0  0  0  0  0  0  0  0  0  0
   59.9824   30.2804   47.6897 H   0  0  0  0  0  0  0  0  0  0  0  0
   58.1035   33.3238   49.1485 H   0  0  0  0  0  0  0  0  0  0  0  0
   58.9491   34.2226   51.3184 H   0  0  0  0  0  0  0  0  0  0  0  0
   63.5903   33.7433   51.2468 H   0  0  0  0  0  0  0  0  0  0  0  0
   64.5202   31.9516   47.4210 H   0  0  0  0  0  0  0  0  0  0  0  0
   62.0973   31.9157   46.8340 H   0  0  0  0  0  0  0  0  0  0  0  0
   58.8873   34.1428   46.4957 H   0  0  0  0  0  0  0  0  0  0  0  0
   60.1717   33.3795   45.4929 H   0  0  0  0  0  0  0  0  0  0  0  0
   57.2662   32.4517   45.7679 H   0  0  0  0  0  0  0  0  0  0  0  0
   58.0430   33.2344   44.3248 H   0  0  0  0  0  0  0  0  0  0  0  0
   58.1298   28.2326   42.3661 H   0  0  0  0  0  0  0  0  0  0  0  0
   58.4223   25.7912   42.7550 H   0  0  0  0  0  0  0  0  0  0  0  0
  1  2  1  0
  2  3  1  0
  3  4  2  0
  4  5  1  0
  5  6  2  0
  6  7  1  0
  7  8  2  0
  7  9  2  0
  7 10  1  0
 10 11  1  0
 11 12  1  0
 12 13  1  0
 13 14  1  0
 14 15  2  0
 15 16  1  0
 16 17  2  0
 17 18  1  0
 18 19  2  0
 19 20  1  0
 20 21  1  0
 20 22  2  0
 22 23  1  0
 23 24  2  0
 13 25  1  0
 25 26  1  0
  6 27  1  0
 27 28  2  0
 28  3  1  0
 26 10  1  0
 24 14  1  0
 24 18  1  0
  1 29  1  0
  1 30  1  0
  1 31  1  0
  4 32  1  0
  5 33  1  0
 11 34  1  0
 11 35  1  0
 12 36  1  0
 12 37  1  0
 15 38  1  0
 16 39  1  0
 19 40  1  0
 22 41  1  0
 23 42  1  0
 25 43  1  0
 25 44  1  0
 26 45  1  0
 26 46  1  0
 27 47  1  0
 28 48  1  0
M  END
>  <UniqueID>  (42) 
41

>  <SMILES>  (42) 
COc1ccc(S(=O)(=O)N2CCN(c3ccnc4cc(Cl)ccc34)CC2)cc1

>  <Energy>  (42) 
64.91641388871335

>  <Genealogy>  (42) 
COc1ccc(S(=O)(=O)N2CCN(c3ccnc4cc(Cl)ccc34)CC2)cc1 (3D coordinates assigned)
COc1ccc(S(=O)(=O)N2CCN(c3ccnc4cc(Cl)ccc34)CC2)cc1 (nonaromatic ring conformer: 64.91641388871335 kcal/mol)

>  <smiles>  (42) 
COc1ccc(S(=O)(=O)N2CCN(c3ccnc4cc(Cl)ccc34)CC2)cc1

>  <score_type>  (42) 
oracle

>  <origin>  (42) 
adg

>  <m_score__min__energy>  (42) 
-8.5600000000000005

>  <m_primary>  (42) 
energy

$$$$
42:0
     RDKit          3D

 67 71  0  0  0  0  0  0  0  0999 V2000
   55.5720   30.5160   52.1620 C   0  0  0  0  0  0  0  0  0  0  0  0
   56.9470   31.0380   52.2120 N   0  0  0  0  0  0  0  0  0  0  0  0
   57.0010   32.5080   52.0410 C   0  0  0  0  0  0  0  0  0  0  0  0
   58.4320   33.0830   51.9060 C   0  0  0  0  0  0  0  0  0  0  0  0
   59.3600   32.1560   51.1110 C   0  0  0  0  0  0  0  0  0  0  0  0
   59.1960   32.3810   49.6680 N   0  0  0  0  0  0  0  0  0  0  0  0
   59.4490   33.6780   49.0940 C   0  0  0  0  0  0  0  0  0  0  0  0
   59.7770   34.6450   49.8360 O   0  0  0  0  0  0  0  0  0  0  0  0
   59.3190   33.8780   47.6330 C   0  0  0  0  0  0  0  0  0  0  0  0
   59.6270   35.1210   47.0520 C   0  0  0  0  0  0  0  0  0  0  0  0
   59.5070   35.3100   45.6740 C   0  0  0  0  0  0  0  0  0  0  0  0
   59.0780   34.2650   44.8550 C   0  0  0  0  0  0  0  0  0  0  0  0
   58.7650   33.0160   45.4110 C   0  0  0  0  0  0  0  0  0  0  0  0
   58.3310   31.9670   44.5880 C   0  0  0  0  0  0  0  0  0  0  0  0
   58.0210   30.7240   45.1400 C   0  0  0  0  0  0  0  0  0  0  0  0
   58.1430   30.5130   46.5150 C   0  0  0  0  0  0  0  0  0  0  0  0
   58.5760   31.5490   47.3610 C   0  0  0  0  0  0  0  0  0  0  0  0
   58.8880   32.8130   46.8100 C   0  0  0  0  0  0  0  0  0  0  0  0
   58.7130   31.3220   48.8190 C   0  0  0  0  0  0  0  0  0  0  0  0
   58.4040   30.2030   49.3150 O   0  0  0  0  0  0  0  0  0  0  0  0
   57.6840   30.5610   53.4040 C   0  0  0  0  0  0  0  0  0  0  0  0
   58.4010   29.2330   53.1040 C   0  0  0  0  0  0  0  0  0  0  0  0
   58.8250   29.1500   51.7550 O   0  0  0  0  0  0  0  0  0  0  0  0
   60.0230   28.4070   51.6400 C   0  0  0  0  0  0  0  0  0  0  0  0
   61.2230   29.3320   51.8260 C   0  0  0  0  0  0  0  0  0  0  0  0
   62.0270   29.3970   50.6060 N   0  0  0  0  0  0  0  0  0  0  0  0
   61.6060   29.9850   49.3670 C   0  0  0  0  0  0  0  0  0  0  0  0
   60.8020   29.3520   48.6320 O   0  0  0  0  0  0  0  0  0  0  0  0
   62.0780   31.3160   48.9330 C   0  0  0  0  0  0  0  0  0  0  0  0
   62.1640   31.6000   47.5610 C   0  0  0  0  0  0  0  0  0  0  0  0
   62.5940   32.8560   47.1210 C   0  0  0  0  0  0  0  0  0  0  0  0
   62.9630   33.8380   48.0450 C   0  0  0  0  0  0  0  0  0  0  0  0
   62.9100   33.5640   49.4180 C   0  0  0  0  0  0  0  0  0  0  0  0
   63.2940   34.5260   50.3630 C   0  0  0  0  0  0  0  0  0  0  0  0
   63.2430   34.2220   51.7250 C   0  0  0  0  0  0  0  0  0  0  0  0
   62.8160   32.9560   52.1310 C   0  0  0  0  0  0  0  0  0  0  0  0
   62.4460   32.0300   51.2050 N   0  0  0  0  0  0  0  0  0  0  0  0
   62.4710   32.2950   49.8680 C   0  0  0  0  0  0  0  0  0  0  0  0
   55.1965   30.3734   53.1860 H   0  0  0  0  0  0  0  0  0  0  0  0
   54.9271   31.2319   51.6313 H   0  0  0  0  0  0  0  0  0  0  0  0
   55.5646   29.5525   51.6313 H   0  0  0  0  0  0  0  0  0  0  0  0
   56.4377   32.7699   51.1332 H   0  0  0  0  0  0  0  0  0  0  0  0
   56.5708   32.9466   52.9534 H   0  0  0  0  0  0  0  0  0  0  0  0
   58.3760   34.0535   51.3912 H   0  0  0  0  0  0  0  0  0  0  0  0
   58.8489   33.1883   52.9185 H   0  0  0  0  0  0  0  0  0  0  0  0
   60.4036   32.3592   51.3931 H   0  0  0  0  0  0  0  0  0  0  0  0
   59.1027   31.1114   51.3406 H   0  0  0  0  0  0  0  0  0  0  0  0
   59.9654   35.9516   47.6888 H   0  0  0  0  0  0  0  0  0  0  0  0
   59.7517   36.2871   45.2320 H   0  0  0  0  0  0  0  0  0  0  0  0
   58.9850   34.4212   43.7701 H   0  0  0  0  0  0  0  0  0  0  0  0
   58.2347   32.1247   43.5036 H   0  0  0  0  0  0  0  0  0  0  0  0
   57.6788   29.9060   44.4890 H   0  0  0  0  0  0  0  0  0  0  0  0
   57.8983   29.5282   46.9396 H   0  0  0  0  0  0  0  0  0  0  0  0
   58.4292   31.3163   53.6941 H   0  0  0  0  0  0  0  0  0  0  0  0
   56.9668   30.3990   54.2221 H   0  0  0  0  0  0  0  0  0  0  0  0
   59.2812   29.1493   53.7584 H   0  0  0  0  0  0  0  0  0  0  0  0
   57.6891   28.4146   53.2866 H   0  0  0  0  0  0  0  0  0  0  0  0
   60.0425   27.6233   52.4117 H   0  0  0  0  0  0  0  0  0  0  0  0
   60.0706   27.9453   50.6427 H   0  0  0  0  0  0  0  0  0  0  0  0
   60.8641   30.3416   52.0748 H   0  0  0  0  0  0  0  0  0  0  0  0
   61.8494   28.9353   52.6385 H   0  0  0  0  0  0  0  0  0  0  0  0
   61.8910   30.8285   46.8260 H   0  0  0  0  0  0  0  0  0  0  0  0
   62.6420   33.0720   46.0435 H   0  0  0  0  0  0  0  0  0  0  0  0
   63.2951   34.8262   47.6940 H   0  0  0  0  0  0  0  0  0  0  0  0
   63.6347   35.5182   50.0322 H   0  0  0  0  0  0  0  0  0  0  0  0
   63.5369   34.9739   52.4722 H   0  0  0  0  0  0  0  0  0  0  0  0
   62.7786   32.7067   53.2017 H   0  0  0  0  0  0  0  0  0  0  0  0
  1  2  1  0
  2  3  1  0
  3  4  1  0
  4  5  1  0
  5  6  1  0
  6  7  1  0
  7  8  2  0
  7  9  1  0
  9 10  2  0
 10 11  1  0
 11 12  2  0
 12 13  1  0
 13 14  2  0
 14 15  1  0
 15 16  2  0
 16 17  1  0
 17 18  2  0
 17 19  1  0
 19 20  2  0
  2 21  1  0
 21 22  1  0
 22 23  1  0
 23 24  1  0
 24 25  1  0
 25 26  1  0
 26 27  1  0
 27 28  2  0
 27 29  1  0
 29 30  2  0
 30 31  1  0
 31 32  2  0
 32 33  1  0
 33 34  2  0
 34 35  1  0
 35 36  2  0
 36 37  1  0
 37 38  2  0
 19  6  1  0
 38 29  1  0
 18  9  1  0
 38 33  1  0
 18 13  1  0
  1 39  1  0
  1 40  1  0
  1 41  1  0
  3 42  1  0
  3 43  1  0
  4 44  1  0
  4 45  1  0
  5 46  1  0
  5 47  1  0
 10 48  1  0
 11 49  1  0
 12 50  1  0
 14 51  1  0
 15 52  1  0
 16 53  1  0
 21 54  1  0
 21 55  1  0
 22 56  1  0
 22 57  1  0
 24 58  1  0
 24 59  1  0
 25 60  1  0
 25 61  1  0
 30 62  1  0
 31 63  1  0
 32 64  1  0
 34 65  1  0
 35 66  1  0
 36 67  1  0
M  CHG  1  26  -1
M  END
>  <UniqueID>  (43) 
42

>  <SMILES>  (43) 
CN(CCCN1C(=O)c2cccc3cccc(c23)C1=O)CCOCC[N-]C(=O)c1cccc2cccnc12

>  <Energy>  (43) 
90.42589751153855

>  <Genealogy>  (43) 
CN(CCCN1C(=O)c2cccc3cccc(c23)C1=O)CCOCC[N-]C(=O)c1cccc2cccnc12 (protonated)
CN(CCCN1C(=O)c2cccc3cccc(c23)C1=O)CCOCC[N-]C(=O)c1cccc2cccnc12 (3D coordinates assigned)
CN(CCCN1C(=O)c2cccc3cccc(c23)C1=O)CCOCC[N-]C(=O)c1cccc2cccnc12 (nonaromatic ring conformer: 90.42589751153855 kcal/mol)

>  <smiles>  (43) 
CN(CCCN1C(=O)c2cccc3cccc(c23)C1=O)CCOCCNC(=O)c1cccc2cccnc12

>  <score_type>  (43) 
oracle

>  <origin>  (43) 
adg

>  <m_score__min__energy>  (43) 
-10.94

>  <m_primary>  (43) 
energy

$$$$
