0:0
     RDKit          3D

 49 52  0  0  0  0  0  0  0  0999 V2000
   63.7940   33.1030   46.6800 C   0  0  0  0  0  0  0  0  0  0  0  0
   63.1190   33.2920   48.0060 C   0  0  0  0  0  0  0  0  0  0  0  0
   63.8570   33.2400   49.1960 C   0  0  0  0  0  0  0  0  0  0  0  0
   63.2470   33.4510   50.3920 N   0  0  0  0  0  0  0  0  0  0  0  0
   61.9160   33.7250   50.4760 C   0  0  0  0  0  0  0  0  0  0  0  0
   61.1340   33.7930   49.3140 C   0  0  0  0  0  0  0  0  0  0  0  0
   59.6620   34.1070   49.3930 C   0  0  0  0  0  0  0  0  0  0  0  0
   59.2270   34.8580   48.2130 N   0  0  0  0  0  0  0  0  0  0  0  0
   58.9590   34.2690   46.9250 C   0  0  0  0  0  0  0  0  0  0  0  0
   59.1910   35.0240   45.7690 C   0  0  0  0  0  0  0  0  0  0  0  0
   58.9500   34.4830   44.5050 C   0  0  0  0  0  0  0  0  0  0  0  0
   58.4600   33.1740   44.3680 C   0  0  0  0  0  0  0  0  0  0  0  0
   58.1950   32.6390   42.9850 C   0  0  0  0  0  0  0  0  0  0  0  0
   58.2460   32.3920   45.5280 C   0  0  0  0  0  0  0  0  0  0  0  0
   57.7800   30.9890   45.4530 C   0  0  0  0  0  0  0  0  0  0  0  0
   56.7510   30.6230   44.5440 C   0  0  0  0  0  0  0  0  0  0  0  0
   56.3140   29.2880   44.4540 C   0  0  0  0  0  0  0  0  0  0  0  0
   56.9310   28.3470   45.2730 C   0  0  0  0  0  0  0  0  0  0  0  0
   56.6720   27.0300   45.3550 N   0  0  0  0  0  0  0  0  0  0  0  0
   57.5130   26.5450   46.2640 N   0  0  0  0  0  0  0  0  0  0  0  0
   57.5180   25.1560   46.6990 C   0  0  0  0  0  0  0  0  0  0  0  0
   58.2900   27.5300   46.7740 C   0  0  0  0  0  0  0  0  0  0  0  0
   57.9300   28.6940   46.1400 C   0  0  0  0  0  0  0  0  0  0  0  0
   58.3870   30.0020   46.2620 C   0  0  0  0  0  0  0  0  0  0  0  0
   58.4760   32.9550   46.7940 C   0  0  0  0  0  0  0  0  0  0  0  0
   61.7520   33.5910   48.0720 C   0  0  0  0  0  0  0  0  0  0  0  0
   64.8419   32.8096   46.8405 H   0  0  0  0  0  0  0  0  0  0  0  0
   63.2754   32.3155   46.1135 H   0  0  0  0  0  0  0  0  0  0  0  0
   63.7597   34.0453   46.1135 H   0  0  0  0  0  0  0  0  0  0  0  0
   64.9357   33.0273   49.1620 H   0  0  0  0  0  0  0  0  0  0  0  0
   63.8140   33.4060   51.2690 H   0  0  0  0  0  0  0  0  0  0  0  0
   61.4523   33.8937   51.4591 H   0  0  0  0  0  0  0  0  0  0  0  0
   59.0950   33.1662   49.4511 H   0  0  0  0  0  0  0  0  0  0  0  0
   59.4794   34.7195   50.2882 H   0  0  0  0  0  0  0  0  0  0  0  0
   59.1510   35.8960   48.3120 H   0  0  0  0  0  0  0  0  0  0  0  0
   59.5670   36.0539   45.8577 H   0  0  0  0  0  0  0  0  0  0  0  0
   59.1458   35.0879   43.6074 H   0  0  0  0  0  0  0  0  0  0  0  0
   57.7079   31.6556   43.0594 H   0  0  0  0  0  0  0  0  0  0  0  0
   57.5370   33.3340   42.4428 H   0  0  0  0  0  0  0  0  0  0  0  0
   59.1466   32.5367   42.4428 H   0  0  0  0  0  0  0  0  0  0  0  0
   56.2913   31.3907   43.9042 H   0  0  0  0  0  0  0  0  0  0  0  0
   55.5117   28.9982   43.7596 H   0  0  0  0  0  0  0  0  0  0  0  0
   57.5181   25.1160   47.7983 H   0  0  0  0  0  0  0  0  0  0  0  0
   56.6217   24.6479   46.3137 H   0  0  0  0  0  0  0  0  0  0  0  0
   58.4180   24.6544   46.3137 H   0  0  0  0  0  0  0  0  0  0  0  0
   59.0628   27.4189   47.5489 H   0  0  0  0  0  0  0  0  0  0  0  0
   59.1935   30.2594   46.9643 H   0  0  0  0  0  0  0  0  0  0  0  0
   58.2753   32.3591   47.6965 H   0  0  0  0  0  0  0  0  0  0  0  0
   61.1619   33.6675   47.1468 H   0  0  0  0  0  0  0  0  0  0  0  0
  1  2  1  0
  2  3  2  0
  3  4  1  0
  4  5  2  0
  5  6  1  0
  6  7  1  0
  7  8  1  0
  8  9  1  0
  9 10  2  0
 10 11  1  0
 11 12  2  0
 12 13  1  0
 12 14  1  0
 14 15  1  0
 15 16  1  0
 16 17  2  0
 17 18  1  0
 18 19  2  0
 19 20  1  0
 20 21  1  0
 20 22  1  0
 22 23  2  0
 23 24  1  0
 14 25  2  0
  6 26  2  0
 26  2  1  0
 25  9  1  0
 24 15  2  0
 23 18  1  0
  1 27  1  0
  1 28  1  0
  1 29  1  0
  3 30  1  0
  4 31  1  0
  5 32  1  0
  7 33  1  0
  7 34  1  0
  8 35  1  0
 10 36  1  0
 11 37  1  0
 13 38  1  0
 13 39  1  0
 13 40  1  0
 16 41  1  0
 17 42  1  0
 21 43  1  0
 21 44  1  0
 21 45  1  0
 22 46  1  0
 24 47  1  0
 25 48  1  0
 26 49  1  0
M  CHG  1   4   1
M  END
>  <UniqueID>  (1) 
1

>  <SMILES>  (1) 
Cc1c[nH+]cc(CNc2ccc(C)c(-c3ccc4nn(C)cc4c3)c2)c1

>  <Energy>  (1) 
94.85126217122561

>  <Genealogy>  (1) 
Cc1c[nH+]cc(CNc2ccc(C)c(-c3ccc4nn(C)cc4c3)c2)c1 (protonated)
Cc1c[nH+]cc(CNc2ccc(C)c(-c3ccc4nn(C)cc4c3)c2)c1 (3D coordinates assigned)
Cc1c[nH+]cc(CNc2ccc(C)c(-c3ccc4nn(C)cc4c3)c2)c1 (optimized conformer: 94.85126217122561 kcal/mol)

>  <smiles>  (1) 
Cc1cncc(CNc2ccc(C)c(-c3ccc4nn(C)cc4c3)c2)c1

>  <score_type>  (1) 
oracle

>  <origin>  (1) 
adg

>  <m_score__min__energy>  (1) 
-7.3799999999999999

>  <m_primary>  (1) 
energy

$$$$
1:0
     RDKit          3D

 54 56  0  0  0  0  0  0  0  0999 V2000
   62.1360   33.4710   52.4900 C   0  0  0  0  0  0  0  0  0  0  0  0
   61.4020   32.9970   51.3870 O   0  0  0  0  0  0  0  0  0  0  0  0
   60.2990   33.8440   51.1550 C   0  0  0  0  0  0  0  0  0  0  0  0
   59.9300   33.7830   49.7080 C   0  0  0  0  0  0  0  0  0  0  0  0
   60.0990   34.8090   48.8420 N   0  0  0  0  0  0  0  0  0  0  0  0
   59.6440   34.4140   47.6630 N   0  0  0  0  0  0  0  0  0  0  0  0
   59.5940   35.2650   46.4810 C   0  0  0  0  0  0  0  0  0  0  0  0
   59.1840   33.1510   47.7600 C   0  0  0  0  0  0  0  0  0  0  0  0
   58.5340   32.4430   46.7020 N   0  0  0  0  0  0  0  0  0  0  0  0
   57.3760   33.0300   46.0370 C   0  0  0  0  0  0  0  0  0  0  0  0
   57.1430   32.3280   44.6980 C   0  0  0  0  0  0  0  0  0  0  0  0
   56.9840   30.9290   44.8520 O   0  0  0  0  0  0  0  0  0  0  0  0
   58.0100   30.3000   45.6170 C   0  0  0  0  0  0  0  0  0  0  0  0
   59.1200   31.2130   46.1800 C   0  0  0  0  0  0  0  0  0  0  0  0
   59.3430   32.7080   49.0560 C   0  0  0  0  0  0  0  0  0  0  0  0
   58.9900   31.3640   49.6240 C   0  0  0  0  0  0  0  0  0  0  0  0
   60.2180   30.6120   49.9030 N   0  0  0  0  0  0  0  0  0  0  0  0
   61.1270   30.6600   48.7550 C   0  0  0  0  0  0  0  0  0  0  0  0
   62.4790   31.1570   49.1980 C   0  0  0  0  0  0  0  0  0  0  0  0
   62.9670   30.8030   50.4630 C   0  0  0  0  0  0  0  0  0  0  0  0
   64.2220   31.2450   50.8780 C   0  0  0  0  0  0  0  0  0  0  0  0
   64.9760   32.0580   50.0320 C   0  0  0  0  0  0  0  0  0  0  0  0
   64.4870   32.4180   48.8140 N   0  0  0  0  0  0  0  0  0  0  0  0
   63.2600   31.9960   48.3760 C   0  0  0  0  0  0  0  0  0  0  0  0
   62.7660   32.3700   47.1160 O   0  0  0  0  0  0  0  0  0  0  0  0
   62.6980   33.7150   46.6520 C   0  0  0  0  0  0  0  0  0  0  0  0
   61.6443   33.1535   53.4214 H   0  0  0  0  0  0  0  0  0  0  0  0
   63.1560   33.0605   52.4554 H   0  0  0  0  0  0  0  0  0  0  0  0
   62.1815   34.5695   52.4554 H   0  0  0  0  0  0  0  0  0  0  0  0
   59.4463   33.5140   51.7666 H   0  0  0  0  0  0  0  0  0  0  0  0
   60.5620   34.8770   51.4267 H   0  0  0  0  0  0  0  0  0  0  0  0
   59.5321   36.3188   46.7903 H   0  0  0  0  0  0  0  0  0  0  0  0
   60.5027   35.1119   45.8803 H   0  0  0  0  0  0  0  0  0  0  0  0
   58.7095   35.0066   45.8803 H   0  0  0  0  0  0  0  0  0  0  0  0
   56.4874   32.9082   46.6738 H   0  0  0  0  0  0  0  0  0  0  0  0
   57.5591   34.1003   45.8614 H   0  0  0  0  0  0  0  0  0  0  0  0
   56.2342   32.7397   44.2348 H   0  0  0  0  0  0  0  0  0  0  0  0
   58.0261   32.5016   44.0656 H   0  0  0  0  0  0  0  0  0  0  0  0
   57.5287   29.7977   46.4691 H   0  0  0  0  0  0  0  0  0  0  0  0
   58.5215   29.6273   44.9128 H   0  0  0  0  0  0  0  0  0  0  0  0
   59.6481   30.6883   46.9898 H   0  0  0  0  0  0  0  0  0  0  0  0
   59.8272   31.4619   45.3751 H   0  0  0  0  0  0  0  0  0  0  0  0
   58.4224   31.4979   50.5567 H   0  0  0  0  0  0  0  0  0  0  0  0
   58.3777   30.8090   48.8980 H   0  0  0  0  0  0  0  0  0  0  0  0
   60.6970   31.0750   50.7130 H   0  0  0  0  0  0  0  0  0  0  0  0
   61.2301   29.6516   48.3278 H   0  0  0  0  0  0  0  0  0  0  0  0
   60.7188   31.3430   47.9955 H   0  0  0  0  0  0  0  0  0  0  0  0
   62.3582   30.1749   51.1300 H   0  0  0  0  0  0  0  0  0  0  0  0
   64.6143   30.9552   51.8640 H   0  0  0  0  0  0  0  0  0  0  0  0
   65.9687   32.4092   50.3501 H   0  0  0  0  0  0  0  0  0  0  0  0
   65.0810   33.0380   48.2190 H   0  0  0  0  0  0  0  0  0  0  0  0
   62.6634   34.3986   47.5131 H   0  0  0  0  0  0  0  0  0  0  0  0
   63.5860   33.9379   46.0423 H   0  0  0  0  0  0  0  0  0  0  0  0
   61.7920   33.8472   46.0423 H   0  0  0  0  0  0  0  0  0  0  0  0
  1  2  1  0
  2  3  1  0
  3  4  1  0
  4  5  2  0
  5  6  1  0
  6  7  1  0
  6  8  1  0
  8  9  1  0
  9 10  1  0
 10 11  1  0
 11 12  1  0
 12 13  1  0
 13 14  1  0
  8 15  2  0
 15 16  1  0
 16 17  1  0
 17 18  1  0
 18 19  1  0
 19 20  2  0
 20 21  1  0
 21 22  2  0
 22 23  1  0
 23 24  2  0
 24 25  1  0
 25 26  1  0
 15  4  1  0
 24 19  1  0
 14  9  1  0
  1 27  1  0
  1 28  1  0
  1 29  1  0
  3 30  1  0
  3 31  1  0
  7 32  1  0
  7 33  1  0
  7 34  1  0
 10 35  1  0
 10 36  1  0
 11 37  1  0
 11 38  1  0
 13 39  1  0
 13 40  1  0
 14 41  1  0
 14 42  1  0
 16 43  1  0
 16 44  1  0
 17 45  1  0
 18 46  1  0
 18 47  1  0
 20 48  1  0
 21 49  1  0
 22 50  1  0
 23 51  1  0
 26 52  1  0
 26 53  1  0
 26 54  1  0
M  CHG  1  23   1
M  END
>  <UniqueID>  (2) 
2

>  <SMILES>  (2) 
COCc1nn(C)c(N2CCOCC2)c1CNCc1ccc[nH+]c1OC

>  <Energy>  (2) 
92.9006025806064

>  <Genealogy>  (2) 
COCc1nn(C)c(N2CCOCC2)c1CNCc1ccc[nH+]c1OC (protonated)
COCc1nn(C)c(N2CCOCC2)c1CNCc1ccc[nH+]c1OC (3D coordinates assigned)
COCc1nn(C)c(N2CCOCC2)c1CNCc1ccc[nH+]c1OC (nonaromatic ring conformer: 92.9006025806064 kcal/mol)

>  <smiles>  (2) 
COCc1nn(C)c(N2CCOCC2)c1CNCc1cccnc1OC

>  <score_type>  (2) 
oracle

>  <origin>  (2) 
adg

>  <m_score__min__energy>  (2) 
-5.1200000000000001

>  <m_primary>  (2) 
energy

$$$$
2:0
     RDKit          3D

 58 62  0  0  0  0  0  0  0  0999 V2000
   56.2880   29.3420   43.5830 C   0  0  0  0  0  0  0  0  0  0  0  0
   56.5640   30.0240   44.8010 O   0  0  0  0  0  0  0  0  0  0  0  0
   57.2620   31.2340   44.8460 C   0  0  0  0  0  0  0  0  0  0  0  0
   57.5240   31.9180   43.6570 C   0  0  0  0  0  0  0  0  0  0  0  0
   58.2080   33.1330   43.6970 C   0  0  0  0  0  0  0  0  0  0  0  0
   58.6240   33.6610   44.9280 C   0  0  0  0  0  0  0  0  0  0  0  0
   59.3060   34.8850   44.9930 C   0  0  0  0  0  0  0  0  0  0  0  0
   59.7120   35.3940   46.2270 C   0  0  0  0  0  0  0  0  0  0  0  0
   59.4460   34.6850   47.4010 C   0  0  0  0  0  0  0  0  0  0  0  0
   58.7710   33.4520   47.3620 C   0  0  0  0  0  0  0  0  0  0  0  0
   58.5230   32.7180   48.6680 C   0  0  0  0  0  0  0  0  0  0  0  0
   59.7920   32.4500   49.4040 N   0  0  1  0  0  0  0  0  0  0  0  0
   59.6230   31.4120   50.4660 C   0  0  0  0  0  0  0  0  0  0  0  0
   60.3810   30.0940   50.2000 C   0  0  0  0  0  0  0  0  0  0  0  0
   60.2910   29.6480   48.7260 C   0  0  2  0  0  0  0  0  0  0  0  0
   60.7300   30.7920   47.7640 C   0  0  0  0  0  0  0  0  0  0  0  0
   60.9070   32.1460   48.4760 C   0  0  0  0  0  0  0  0  0  0  0  0
   58.8660   29.0840   48.3740 C   0  0  0  0  0  0  0  0  0  0  0  0
   59.0930   27.7310   47.8840 N   0  0  0  0  0  0  0  0  0  0  0  0
   58.1070   26.9080   47.2260 C   0  0  0  0  0  0  0  0  0  0  0  0
   57.9520   25.5640   47.5990 C   0  0  0  0  0  0  0  0  0  0  0  0
   56.9770   24.7640   46.9970 C   0  0  0  0  0  0  0  0  0  0  0  0
   56.1290   25.2950   46.0080 C   0  0  0  0  0  0  0  0  0  0  0  0
   55.0920   24.4480   45.3820 C   0  0  0  0  0  0  0  0  0  0  0  0
   55.4140   23.4730   44.6500 O   0  0  0  0  0  0  0  0  0  0  0  0
   53.7430   24.7140   45.5900 O   0  0  0  0  0  0  0  0  0  0  0  0
   56.2780   26.6420   45.6370 C   0  0  0  0  0  0  0  0  0  0  0  0
   57.2560   27.4410   46.2410 C   0  0  0  0  0  0  0  0  0  0  0  0
   60.4700   27.4580   48.0460 C   0  0  0  0  0  0  0  0  0  0  0  0
   61.0010   26.3380   47.8300 O   0  0  0  0  0  0  0  0  0  0  0  0
   61.1640   28.5350   48.5400 O   0  0  0  0  0  0  0  0  0  0  0  0
   58.3490   32.9400   46.1140 C   0  0  0  0  0  0  0  0  0  0  0  0
   57.6820   31.7540   46.0340 N   0  0  0  0  0  0  0  0  0  0  0  0
   55.8839   28.3434   43.8054 H   0  0  0  0  0  0  0  0  0  0  0  0
   55.5508   29.9146   43.0010 H   0  0  0  0  0  0  0  0  0  0  0  0
   57.2159   29.2408   43.0010 H   0  0  0  0  0  0  0  0  0  0  0  0
   57.1929   31.5010   42.6945 H   0  0  0  0  0  0  0  0  0  0  0  0
   58.4208   33.6762   42.7645 H   0  0  0  0  0  0  0  0  0  0  0  0
   59.5209   35.4440   44.0703 H   0  0  0  0  0  0  0  0  0  0  0  0
   60.2430   36.3561   46.2756 H   0  0  0  0  0  0  0  0  0  0  0  0
   59.7688   35.0967   48.3686 H   0  0  0  0  0  0  0  0  0  0  0  0
   57.8668   33.3321   49.3022 H   0  0  0  0  0  0  0  0  0  0  0  0
   58.0544   31.7511   48.4324 H   0  0  0  0  0  0  0  0  0  0  0  0
   60.0780   33.3370   49.8850 H   0  0  0  0  0  0  0  0  0  0  0  0
   58.5511   31.1804   50.5524 H   0  0  0  0  0  0  0  0  0  0  0  0
   60.0474   31.8361   51.3880 H   0  0  0  0  0  0  0  0  0  0  0  0
   59.9503   29.3052   50.8342 H   0  0  0  0  0  0  0  0  0  0  0  0
   61.4422   30.2658   50.4330 H   0  0  0  0  0  0  0  0  0  0  0  0
   59.9644   30.9051   46.9823 H   0  0  0  0  0  0  0  0  0  0  0  0
   61.7078   30.5113   47.3456 H   0  0  0  0  0  0  0  0  0  0  0  0
   60.9598   32.9397   47.7162 H   0  0  0  0  0  0  0  0  0  0  0  0
   61.8310   32.0925   49.0704 H   0  0  0  0  0  0  0  0  0  0  0  0
   58.2275   29.0665   49.2696 H   0  0  0  0  0  0  0  0  0  0  0  0
   58.3533   29.7079   47.6271 H   0  0  0  0  0  0  0  0  0  0  0  0
   58.6050   25.1356   48.3736 H   0  0  0  0  0  0  0  0  0  0  0  0
   56.8718   23.7114   47.2987 H   0  0  0  0  0  0  0  0  0  0  0  0
   55.6213   27.0719   44.8663 H   0  0  0  0  0  0  0  0  0  0  0  0
   57.3599   28.4947   45.9428 H   0  0  0  0  0  0  0  0  0  0  0  0
  1  2  1  0
  2  3  1  0
  3  4  2  0
  4  5  1  0
  5  6  2  0
  6  7  1  0
  7  8  2  0
  8  9  1  0
  9 10  2  0
 10 11  1  0
 11 12  1  0
 12 13  1  0
 13 14  1  0
 14 15  1  0
 15 16  1  0
 16 17  1  0
 15 18  1  0
 18 19  1  0
 19 20  1  0
 20 21  2  0
 21 22  1  0
 22 23  2  0
 23 24  1  0
 24 25  2  0
 24 26  1  0
 23 27  1  0
 27 28  2  0
 19 29  1  0
 29 30  2  0
 29 31  1  0
 10 32  1  0
 32 33  2  0
 33  3  1  0
 32  6  1  0
 17 12  1  0
 28 20  1  0
 15 31  1  1
  1 34  1  0
  1 35  1  0
  1 36  1  0
  4 37  1  0
  5 38  1  0
  7 39  1  0
  8 40  1  0
  9 41  1  0
 11 42  1  0
 11 43  1  0
 12 44  1  1
 13 45  1  0
 13 46  1  0
 14 47  1  0
 14 48  1  0
 16 49  1  0
 16 50  1  0
 17 51  1  0
 17 52  1  0
 18 53  1  0
 18 54  1  0
 21 55  1  0
 22 56  1  0
 27 57  1  0
 28 58  1  0
M  CHG  2  12   1  26  -1
M  END
>  <UniqueID>  (3) 
3

>  <SMILES>  (3) 
COc1ccc2cccc(C[NH+]3CCC4(CC3)CN(c3ccc(C(=O)[O-])cc3)C(=O)O4)c2n1

>  <Energy>  (3) 
96.93805935027295

>  <Genealogy>  (3) 
COc1ccc2cccc(C[NH+]3CCC4(CC3)CN(c3ccc(C(=O)[O-])cc3)C(=O)O4)c2n1 (protonated)
COc1ccc2cccc(C[NH+]3CCC4(CC3)CN(c3ccc(C(=O)[O-])cc3)C(=O)O4)c2n1 (3D coordinates assigned)
COc1ccc2cccc(C[NH+]3CCC4(CC3)CN(c3ccc(C(=O)[O-])cc3)C(=O)O4)c2n1 (nonaromatic ring conformer: 96.93805935027295 kcal/mol)

>  <smiles>  (3) 
COc1ccc2cccc(CN3CCC4(CC3)CN(c3ccc(C(=O)O)cc3)C(=O)O4)c2n1

>  <score_type>  (3) 
oracle

>  <origin>  (3) 
adg

>  <m_score__min__energy>  (3) 
-9.4100000000000001

>  <m_primary>  (3) 
energy

$$$$
3:0
     RDKit          3D

 44 44  0  0  0  0  0  0  0  0999 V2000
   57.7060   31.0830   46.7120 H   0  0  0  0  0  0  0  0  0  0  0  0
   58.4790   31.1940   47.3260 O   0  0  0  0  0  0  0  0  0  0  0  0
   58.9770   29.9100   47.5860 C   0  0  0  0  0  0  0  0  0  0  0  0
   58.4336   29.4767   48.4386 H   0  0  0  0  0  0  0  0  0  0  0  0
   60.0496   29.9846   47.8185 H   0  0  0  0  0  0  0  0  0  0  0  0
   58.7970   29.0080   46.3630 C   0  0  0  0  0  0  0  0  0  0  0  0
   57.7845   28.5784   46.3797 H   0  0  0  0  0  0  0  0  0  0  0  0
   59.5560   28.2128   46.4016 H   0  0  0  0  0  0  0  0  0  0  0  0
   58.9760   29.7600   45.1210 N   0  0  0  0  0  0  0  0  0  0  0  0
   59.9200   29.7500   44.6690 H   0  0  0  0  0  0  0  0  0  0  0  0
   57.9220   30.4960   44.4830 C   0  0  0  0  0  0  0  0  0  0  0  0
   56.7010   30.3840   44.9250 N   0  0  0  0  0  0  0  0  0  0  0  0
   55.5230   30.0850   44.1210 C   0  0  0  0  0  0  0  0  0  0  0  0
   54.6720   29.8690   44.7837 H   0  0  0  0  0  0  0  0  0  0  0  0
   55.2829   30.9507   43.4862 H   0  0  0  0  0  0  0  0  0  0  0  0
   55.7249   29.2096   43.4862 H   0  0  0  0  0  0  0  0  0  0  0  0
   58.2370   31.2670   43.3110 N   0  0  0  0  0  0  0  0  0  0  0  0
   58.9250   30.8520   42.6440 H   0  0  0  0  0  0  0  0  0  0  0  0
   58.0050   32.7110   43.2000 C   0  0  0  0  0  0  0  0  0  0  0  0
   58.9596   33.2112   42.9796 H   0  0  0  0  0  0  0  0  0  0  0  0
   57.2787   32.8845   42.3923 H   0  0  0  0  0  0  0  0  0  0  0  0
   57.4280   33.2860   44.5020 C   0  0  0  0  0  0  0  0  0  0  0  0
   56.5272   33.8726   44.2687 H   0  0  0  0  0  0  0  0  0  0  0  0
   57.1795   32.4521   45.1750 H   0  0  0  0  0  0  0  0  0  0  0  0
   58.4530   34.1940   45.2020 C   0  0  0  0  0  0  0  0  0  0  0  0
   59.3024   34.3560   44.5221 H   0  0  0  0  0  0  0  0  0  0  0  0
   57.9467   35.1384   45.4507 H   0  0  0  0  0  0  0  0  0  0  0  0
   58.9600   33.6120   46.4630 N   0  0  0  0  0  0  0  0  0  0  0  0
   58.1290   33.2940   47.0130 H   0  0  0  0  0  0  0  0  0  0  0  0
   59.5390   32.7590   46.2760 H   0  0  0  0  0  0  0  0  0  0  0  0
   59.6910   34.5770   47.3100 C   0  0  0  0  0  0  0  0  0  0  0  0
   59.8073   35.5178   46.7521 H   0  0  0  0  0  0  0  0  0  0  0  0
   59.1070   34.7207   48.2310 H   0  0  0  0  0  0  0  0  0  0  0  0
   61.0610   34.0790   47.7100 C   0  0  0  0  0  0  0  0  0  0  0  0
   62.0290   33.8030   46.7250 C   0  0  0  0  0  0  0  0  0  0  0  0
   61.7818   33.9381   45.6617 H   0  0  0  0  0  0  0  0  0  0  0  0
   63.3030   33.3580   47.0920 C   0  0  0  0  0  0  0  0  0  0  0  0
   64.0510   33.1349   46.3169 H   0  0  0  0  0  0  0  0  0  0  0  0
   63.6280   33.1960   48.4430 C   0  0  0  0  0  0  0  0  0  0  0  0
   64.8660   32.7650   48.7990 F   0  0  0  0  0  0  0  0  0  0  0  0
   62.6790   33.4830   49.4310 C   0  0  0  0  0  0  0  0  0  0  0  0
   62.9393   33.3642   50.4931 H   0  0  0  0  0  0  0  0  0  0  0  0
   61.3990   33.9210   49.0700 C   0  0  0  0  0  0  0  0  0  0  0  0
   60.4950   34.2050   50.0440 F   0  0  0  0  0  0  0  0  0  0  0  0
  1  2  1  0
  2  3  1  0
  3  4  1  0
  3  5  1  0
  3  6  1  0
  6  7  1  0
  6  8  1  0
  6  9  1  0
  9 10  1  0
  9 11  1  0
 11 12  2  0
 12 13  1  0
 13 14  1  0
 13 15  1  0
 13 16  1  0
 11 17  1  0
 17 18  1  0
 17 19  1  0
 19 20  1  0
 19 21  1  0
 19 22  1  0
 22 23  1  0
 22 24  1  0
 22 25  1  0
 25 26  1  0
 25 27  1  0
 25 28  1  0
 28 29  1  0
 28 30  1  0
 28 31  1  0
 31 32  1  0
 31 33  1  0
 31 34  1  0
 34 35  2  0
 35 36  1  0
 35 37  1  0
 37 38  1  0
 37 39  2  0
 39 40  1  0
 39 41  1  0
 41 42  1  0
 41 43  2  0
 43 44  1  0
 43 34  1  0
M  CHG  1  28   1
M  END
>  <UniqueID>  (4) 
4

>  <SMILES>  (4) 
C/N=C(/NCCO)NCCC[NH2+]Cc1ccc(F)cc1F

>  <Energy>  (4) 
36.96936012961729

>  <Genealogy>  (4) 
CN=C(NCCO)NCCC[NH2+]Cc1ccc(F)cc1F (protonated)
C/N=C(/NCCO)NCCC[NH2+]Cc1ccc(F)cc1F (cis-trans isomerization)
C/N=C(/NCCO)NCCC[NH2+]Cc1ccc(F)cc1F (3D coordinates assigned)
C/N=C(/NCCO)NCCC[NH2+]Cc1ccc(F)cc1F (optimized conformer: 36.96936012961729 kcal/mol)

>  <smiles>  (4) 
CN=C(NCCO)NCCCNCc1ccc(F)cc1F

>  <score_type>  (4) 
oracle

>  <origin>  (4) 
adg

>  <m_score__min__energy>  (4) 
-4.9800000000000004

>  <m_primary>  (4) 
energy

$$$$
4:0
     RDKit          3D

 73 76  0  0  0  0  0  0  0  0999 V2000
   65.3221   33.3803   49.1609 H   0  0  0  0  0  0  0  0  0  0  0  0
   65.0210   33.1070   50.1830 C   0  0  0  0  0  0  0  0  0  0  0  0
   64.2770   33.9780   50.8750 C   0  0  0  0  0  0  0  0  0  0  0  0
   64.6066   34.2969   51.8748 H   0  0  0  0  0  0  0  0  0  0  0  0
   62.9990   34.5270   50.3080 C   0  0  0  0  0  0  0  0  0  0  0  0
   63.2360   35.3438   49.6103 H   0  0  0  0  0  0  0  0  0  0  0  0
   62.3775   34.8977   51.1364 H   0  0  0  0  0  0  0  0  0  0  0  0
   62.2480   33.4770   49.5870 N   0  0  0  0  0  0  0  0  0  0  0  0
   60.8220   33.4220   50.0020 C   0  0  0  0  0  0  0  0  0  0  0  0
   60.7279   33.8644   51.0047 H   0  0  0  0  0  0  0  0  0  0  0  0
   60.5103   32.3671   49.9981 H   0  0  0  0  0  0  0  0  0  0  0  0
   59.9040   34.1880   49.0350 C   0  0  0  0  0  0  0  0  0  0  0  0
   60.2062   35.2456   49.0248 H   0  0  0  0  0  0  0  0  0  0  0  0
   58.8696   34.0667   49.3889 H   0  0  0  0  0  0  0  0  0  0  0  0
   59.9720   33.6590   47.6470 N   0  0  0  0  0  0  0  0  0  0  0  0
   59.6760   34.7140   46.6490 C   0  0  0  0  0  0  0  0  0  0  0  0
   60.4339   35.5068   46.7325 H   0  0  0  0  0  0  0  0  0  0  0  0
   58.6698   35.1083   46.8542 H   0  0  0  0  0  0  0  0  0  0  0  0
   59.6910   34.1580   45.2130 C   0  0  0  0  0  0  0  0  0  0  0  0
   60.0493   33.1183   45.2386 H   0  0  0  0  0  0  0  0  0  0  0  0
   60.3559   34.7936   44.6098 H   0  0  0  0  0  0  0  0  0  0  0  0
   58.2990   34.1860   44.5710 C   0  0  0  0  0  0  0  0  0  0  0  0
   58.3427   33.6495   43.6117 H   0  0  0  0  0  0  0  0  0  0  0  0
   58.0167   35.2403   44.4340 H   0  0  0  0  0  0  0  0  0  0  0  0
   57.0210   33.4020   45.6240 S   0  0  0  0  0  0  0  0  0  0  0  0
   57.9080   31.8400   45.8300 C   0  0  0  0  0  0  0  0  0  0  0  0
   58.0450   30.9300   44.8050 N   0  0  0  0  0  0  0  0  0  0  0  0
   57.4010   31.1390   43.4890 C   0  0  0  0  0  0  0  0  0  0  0  0
   58.1667   31.0689   42.7023 H   0  0  0  0  0  0  0  0  0  0  0  0
   56.9289   32.1325   43.4923 H   0  0  0  0  0  0  0  0  0  0  0  0
   56.3100   30.0910   43.2170 C   0  0  0  0  0  0  0  0  0  0  0  0
   56.7833   29.1886   42.8026 H   0  0  0  0  0  0  0  0  0  0  0  0
   55.5918   30.5323   42.5103 H   0  0  0  0  0  0  0  0  0  0  0  0
   55.5410   29.7050   44.4790 C   0  0  0  0  0  0  0  0  0  0  0  0
   56.1222   29.9967   45.3662 H   0  0  0  0  0  0  0  0  0  0  0  0
   54.5706   30.2228   44.4898 H   0  0  0  0  0  0  0  0  0  0  0  0
   55.3764   28.6174   44.4898 H   0  0  0  0  0  0  0  0  0  0  0  0
   58.7510   29.7700   45.0260 C   0  0  0  0  0  0  0  0  0  0  0  0
   58.8940   28.9270   44.0950 O   0  0  0  0  0  0  0  0  0  0  0  0
   59.3110   29.5010   46.2820 C   0  0  0  0  0  0  0  0  0  0  0  0
   59.9950   28.2450   46.5150 C   0  0  0  0  0  0  0  0  0  0  0  0
   60.5400   27.2430   46.7020 N   0  0  0  0  0  0  0  0  0  0  0  0
   59.1390   30.4410   47.3100 C   0  0  0  0  0  0  0  0  0  0  0  0
   59.6940   30.2320   48.6700 C   0  0  0  0  0  0  0  0  0  0  0  0
   58.8450   30.1190   49.7860 C   0  0  0  0  0  0  0  0  0  0  0  0
   57.7553   30.1929   49.6555 H   0  0  0  0  0  0  0  0  0  0  0  0
   59.3820   29.9130   51.0610 C   0  0  0  0  0  0  0  0  0  0  0  0
   58.7143   29.8320   51.9314 H   0  0  0  0  0  0  0  0  0  0  0  0
   60.7640   29.8100   51.2310 C   0  0  0  0  0  0  0  0  0  0  0  0
   61.1845   29.6588   52.2362 H   0  0  0  0  0  0  0  0  0  0  0  0
   61.6140   29.8990   50.1240 C   0  0  0  0  0  0  0  0  0  0  0  0
   62.7019   29.8077   50.2584 H   0  0  0  0  0  0  0  0  0  0  0  0
   61.0830   30.1040   48.8460 C   0  0  0  0  0  0  0  0  0  0  0  0
   61.7540   30.1652   47.9765 H   0  0  0  0  0  0  0  0  0  0  0  0
   58.4330   31.5760   47.0570 N   0  0  0  0  0  0  0  0  0  0  0  0
   58.3100   32.2840   47.8170 H   0  0  0  0  0  0  0  0  0  0  0  0
   61.2630   32.9870   47.3490 C   0  0  0  0  0  0  0  0  0  0  0  0
   61.4660   33.0675   46.2709 H   0  0  0  0  0  0  0  0  0  0  0  0
   61.1804   31.9344   47.6576 H   0  0  0  0  0  0  0  0  0  0  0  0
   62.4270   33.6220   48.1230 C   0  0  0  0  0  0  0  0  0  0  0  0
   62.4808   34.6920   47.8736 H   0  0  0  0  0  0  0  0  0  0  0  0
   63.3551   33.1062   47.8357 H   0  0  0  0  0  0  0  0  0  0  0  0
   65.4630   31.7950   50.7140 C   0  0  0  0  0  0  0  0  0  0  0  0
   64.4910   30.9120   51.2190 C   0  0  0  0  0  0  0  0  0  0  0  0
   63.4334   31.2141   51.2332 H   0  0  0  0  0  0  0  0  0  0  0  0
   64.8600   29.6530   51.7030 C   0  0  0  0  0  0  0  0  0  0  0  0
   64.0932   28.9723   52.1014 H   0  0  0  0  0  0  0  0  0  0  0  0
   66.2000   29.2570   51.6820 C   0  0  0  0  0  0  0  0  0  0  0  0
   66.4883   28.2669   52.0648 H   0  0  0  0  0  0  0  0  0  0  0  0
   67.1720   30.1210   51.1740 C   0  0  0  0  0  0  0  0  0  0  0  0
   68.2265   29.8084   51.1542 H   0  0  0  0  0  0  0  0  0  0  0  0
   66.8100   31.3830   50.6900 C   0  0  0  0  0  0  0  0  0  0  0  0
   67.5812   32.0569   50.2887 H   0  0  0  0  0  0  0  0  0  0  0  0
  1  2  1  0
  2  3  2  0
  3  4  1  0
  3  5  1  0
  5  6  1  0
  5  7  1  0
  5  8  1  0
  8  9  1  0
  9 10  1  0
  9 11  1  0
  9 12  1  0
 12 13  1  0
 12 14  1  0
 12 15  1  0
 15 16  1  0
 16 17  1  0
 16 18  1  0
 16 19  1  0
 19 20  1  0
 19 21  1  0
 19 22  1  0
 22 23  1  0
 22 24  1  0
 22 25  1  0
 25 26  1  0
 26 27  1  0
 27 28  1  0
 28 29  1  0
 28 30  1  0
 28 31  1  0
 31 32  1  0
 31 33  1  0
 31 34  1  0
 34 35  1  0
 34 36  1  0
 34 37  1  0
 27 38  1  0
 38 39  2  0
 38 40  1  0
 40 41  1  0
 41 42  3  0
 40 43  2  0
 43 44  1  0
 44 45  2  0
 45 46  1  0
 45 47  1  0
 47 48  1  0
 47 49  2  0
 49 50  1  0
 49 51  1  0
 51 52  1  0
 51 53  2  0
 53 54  1  0
 43 55  1  0
 55 56  1  0
 15 57  1  0
 57 58  1  0
 57 59  1  0
 57 60  1  0
 60 61  1  0
 60 62  1  0
  2 63  1  0
 63 64  2  0
 64 65  1  0
 64 66  1  0
 66 67  1  0
 66 68  2  0
 68 69  1  0
 68 70  1  0
 70 71  1  0
 70 72  2  0
 72 73  1  0
 60  8  1  0
 72 63  1  0
 55 26  2  0
 53 44  1  0
M  CHG  1  55   1
M  END
>  <UniqueID>  (5) 
5

>  <SMILES>  (5) 
CCCn1c(SCCCN2CCN(C/C=C/c3ccccc3)CC2)[nH+]c(-c2ccccc2)c(C#N)c1=O

>  <Energy>  (5) 
91.50559621706257

>  <Genealogy>  (5) 
CCCn1c(SCCCN2CCN(CC=Cc3ccccc3)CC2)[nH+]c(-c2ccccc2)c(C#N)c1=O (protonated)
CCCn1c(SCCCN2CCN(C/C=C/c3ccccc3)CC2)[nH+]c(-c2ccccc2)c(C#N)c1=O (cis-trans isomerization)
CCCn1c(SCCCN2CCN(C/C=C/c3ccccc3)CC2)[nH+]c(-c2ccccc2)c(C#N)c1=O (3D coordinates assigned)
CCCn1c(SCCCN2CCN(C/C=C/c3ccccc3)CC2)[nH+]c(-c2ccccc2)c(C#N)c1=O (nonaromatic ring conformer: 91.50559621706257 kcal/mol)

>  <smiles>  (5) 
CCCn1c(SCCCN2CCN(CC=Cc3ccccc3)CC2)nc(-c2ccccc2)c(C#N)c1=O

>  <score_type>  (5) 
oracle

>  <origin>  (5) 
adg

>  <m_score__min__energy>  (5) 
-7.54

>  <m_primary>  (5) 
energy

$$$$
5:0
     RDKit          3D

 40 42  0  0  0  0  0  0  0  0999 V2000
   58.1330   32.4150   42.0110 C   0  0  0  0  0  0  0  0  0  0  0  0
   57.4550   31.5200   43.0160 C   0  0  0  0  0  0  0  0  0  0  0  0
   56.6500   30.4650   42.5580 C   0  0  0  0  0  0  0  0  0  0  0  0
   56.0500   29.5910   43.4620 C   0  0  0  0  0  0  0  0  0  0  0  0
   56.2670   29.7660   44.8250 C   0  0  0  0  0  0  0  0  0  0  0  0
   57.0390   30.7920   45.2660 N   0  0  0  0  0  0  0  0  0  0  0  0
   57.6360   31.6730   44.4150 C   0  0  0  0  0  0  0  0  0  0  0  0
   58.4330   32.8100   45.0200 C   0  0  0  0  0  0  0  0  0  0  0  0
   58.7120   32.5790   46.4480 N   0  0  0  0  0  0  0  0  0  0  0  0
   60.1290   32.6400   46.7210 C   0  0  0  0  0  0  0  0  0  0  0  0
   60.8660   33.7930   46.3990 C   0  0  0  0  0  0  0  0  0  0  0  0
   62.2430   33.8300   46.6120 C   0  0  0  0  0  0  0  0  0  0  0  0
   62.8800   32.7120   47.1430 C   0  0  0  0  0  0  0  0  0  0  0  0
   62.1600   31.6020   47.4550 N   0  0  0  0  0  0  0  0  0  0  0  0
   60.8140   31.5290   47.2530 C   0  0  0  0  0  0  0  0  0  0  0  0
   60.1000   30.3720   47.5990 O   0  0  0  0  0  0  0  0  0  0  0  0
   59.6740   29.3820   46.7010 C   0  0  0  0  0  0  0  0  0  0  0  0
   60.1120   29.3470   45.3600 C   0  0  0  0  0  0  0  0  0  0  0  0
   59.6620   28.3400   44.4960 C   0  0  0  0  0  0  0  0  0  0  0  0
   58.7640   27.3750   44.9600 C   0  0  0  0  0  0  0  0  0  0  0  0
   58.3030   27.4220   46.2820 C   0  0  0  0  0  0  0  0  0  0  0  0
   58.7500   28.4240   47.1450 C   0  0  0  0  0  0  0  0  0  0  0  0
   58.7156   33.1841   42.5392 H   0  0  0  0  0  0  0  0  0  0  0  0
   58.8051   31.8148   41.3801 H   0  0  0  0  0  0  0  0  0  0  0  0
   57.3732   32.8994   41.3801 H   0  0  0  0  0  0  0  0  0  0  0  0
   56.4919   30.3275   41.4781 H   0  0  0  0  0  0  0  0  0  0  0  0
   55.4113   28.7711   43.1018 H   0  0  0  0  0  0  0  0  0  0  0  0
   55.8122   29.0717   45.5468 H   0  0  0  0  0  0  0  0  0  0  0  0
   59.3872   32.9033   44.4807 H   0  0  0  0  0  0  0  0  0  0  0  0
   57.8388   33.7314   44.9309 H   0  0  0  0  0  0  0  0  0  0  0  0
   58.3460   31.6360   46.7170 H   0  0  0  0  0  0  0  0  0  0  0  0
   58.1980   33.2840   47.0290 H   0  0  0  0  0  0  0  0  0  0  0  0
   60.3536   34.6701   45.9770 H   0  0  0  0  0  0  0  0  0  0  0  0
   62.8200   34.7328   46.3632 H   0  0  0  0  0  0  0  0  0  0  0  0
   63.9671   32.7268   47.3103 H   0  0  0  0  0  0  0  0  0  0  0  0
   60.8096   30.1135   44.9915 H   0  0  0  0  0  0  0  0  0  0  0  0
   60.0148   28.3091   43.4546 H   0  0  0  0  0  0  0  0  0  0  0  0
   58.4186   26.5772   44.2861 H   0  0  0  0  0  0  0  0  0  0  0  0
   57.5872   26.6677   46.6408 H   0  0  0  0  0  0  0  0  0  0  0  0
   58.3758   28.4627   48.1787 H   0  0  0  0  0  0  0  0  0  0  0  0
  1  2  1  0
  2  3  2  0
  3  4  1  0
  4  5  2  0
  5  6  1  0
  6  7  2  0
  7  8  1  0
  8  9  1  0
  9 10  1  0
 10 11  2  0
 11 12  1  0
 12 13  2  0
 13 14  1  0
 14 15  2  0
 15 16  1  0
 16 17  1  0
 17 18  2  0
 18 19  1  0
 19 20  2  0
 20 21  1  0
 21 22  2  0
  7  2  1  0
 15 10  1  0
 22 17  1  0
  1 23  1  0
  1 24  1  0
  1 25  1  0
  3 26  1  0
  4 27  1  0
  5 28  1  0
  8 29  1  0
  8 30  1  0
  9 31  1  0
  9 32  1  0
 11 33  1  0
 12 34  1  0
 13 35  1  0
 18 36  1  0
 19 37  1  0
 20 38  1  0
 21 39  1  0
 22 40  1  0
M  CHG  1   9   1
M  END
>  <UniqueID>  (6) 
6

>  <SMILES>  (6) 
Cc1cccnc1C[NH2+]c1cccnc1Oc1ccccc1

>  <Energy>  (6) 
49.35733328814773

>  <Genealogy>  (6) 
Cc1cccnc1C[NH2+]c1cccnc1Oc1ccccc1 (protonated)
Cc1cccnc1C[NH2+]c1cccnc1Oc1ccccc1 (3D coordinates assigned)
Cc1cccnc1C[NH2+]c1cccnc1Oc1ccccc1 (optimized conformer: 49.35733328814773 kcal/mol)

>  <smiles>  (6) 
Cc1cccnc1CNc1cccnc1Oc1ccccc1

>  <score_type>  (6) 
oracle

>  <origin>  (6) 
adg

>  <m_score__min__energy>  (6) 
-6.1799999999999997

>  <m_primary>  (6) 
energy

$$$$
6:0
     RDKit          3D

 43 45  0  0  0  0  0  0  0  0999 V2000
   56.9720   34.2180   45.5960 C   0  0  0  0  0  0  0  0  0  0  0  0
   57.4650   33.3120   44.7470 C   0  0  0  0  0  0  0  0  0  0  0  0
   58.8640   32.7740   44.8870 C   0  0  0  0  0  0  0  0  0  0  0  0
   58.9620   31.8880   46.0590 N   0  0  0  0  0  0  0  0  0  0  0  0
   59.4790   32.4180   47.3340 C   0  0  0  0  0  0  0  0  0  0  0  0
   60.9730   32.6050   47.2850 C   0  0  0  0  0  0  0  0  0  0  0  0
   61.8250   31.6840   47.9190 C   0  0  0  0  0  0  0  0  0  0  0  0
   63.2120   31.8390   47.8440 C   0  0  0  0  0  0  0  0  0  0  0  0
   63.7600   32.9110   47.1340 C   0  0  0  0  0  0  0  0  0  0  0  0
   62.9200   33.8290   46.4960 C   0  0  0  0  0  0  0  0  0  0  0  0
   61.5310   33.6770   46.5690 C   0  0  0  0  0  0  0  0  0  0  0  0
   58.7530   30.4670   45.9080 C   0  0  0  0  0  0  0  0  0  0  0  0
   58.9440   29.5960   46.9930 C   0  0  0  0  0  0  0  0  0  0  0  0
   58.7290   28.2250   46.8490 C   0  0  0  0  0  0  0  0  0  0  0  0
   58.3270   27.6960   45.6140 C   0  0  0  0  0  0  0  0  0  0  0  0
   58.1550   28.5560   44.5070 C   0  0  0  0  0  0  0  0  0  0  0  0
   58.3530   29.9370   44.6700 C   0  0  0  0  0  0  0  0  0  0  0  0
   57.6730   28.0430   43.2420 N   0  0  0  0  0  0  0  0  0  0  0  0
   58.1550   26.6770   42.9830 C   0  0  0  0  0  0  0  0  0  0  0  0
   57.7090   25.7140   44.0920 C   0  0  0  0  0  0  0  0  0  0  0  0
   58.1070   26.2460   45.4360 C   0  0  0  0  0  0  0  0  0  0  0  0
   58.2130   25.4530   46.4090 O   0  0  0  0  0  0  0  0  0  0  0  0
   55.9455   34.5916   45.4667 H   0  0  0  0  0  0  0  0  0  0  0  0
   57.5926   34.5904   46.4244 H   0  0  0  0  0  0  0  0  0  0  0  0
   56.8319   32.9495   43.9238 H   0  0  0  0  0  0  0  0  0  0  0  0
   59.1257   32.2067   43.9817 H   0  0  0  0  0  0  0  0  0  0  0  0
   59.5574   33.6175   45.0203 H   0  0  0  0  0  0  0  0  0  0  0  0
   59.0031   33.3886   47.5375 H   0  0  0  0  0  0  0  0  0  0  0  0
   59.2461   31.6951   48.1297 H   0  0  0  0  0  0  0  0  0  0  0  0
   61.3981   30.8374   48.4767 H   0  0  0  0  0  0  0  0  0  0  0  0
   63.8733   31.1163   48.3445 H   0  0  0  0  0  0  0  0  0  0  0  0
   64.8518   33.0325   47.0771 H   0  0  0  0  0  0  0  0  0  0  0  0
   63.3517   34.6717   45.9360 H   0  0  0  0  0  0  0  0  0  0  0  0
   60.8734   34.3997   46.0638 H   0  0  0  0  0  0  0  0  0  0  0  0
   59.2659   29.9982   47.9649 H   0  0  0  0  0  0  0  0  0  0  0  0
   58.8757   27.5552   47.7091 H   0  0  0  0  0  0  0  0  0  0  0  0
   58.1927   30.6126   43.8168 H   0  0  0  0  0  0  0  0  0  0  0  0
   56.6270   28.0520   43.2520 H   0  0  0  0  0  0  0  0  0  0  0  0
   58.0040   28.6550   42.4580 H   0  0  0  0  0  0  0  0  0  0  0  0
   57.7500   26.3295   42.0211 H   0  0  0  0  0  0  0  0  0  0  0  0
   59.2545   26.6937   42.9562 H   0  0  0  0  0  0  0  0  0  0  0  0
   56.6154   25.6010   44.0560 H   0  0  0  0  0  0  0  0  0  0  0  0
   58.1945   24.7394   43.9355 H   0  0  0  0  0  0  0  0  0  0  0  0
  1  2  2  0
  2  3  1  0
  3  4  1  0
  4  5  1  0
  5  6  1  0
  6  7  2  0
  7  8  1  0
  8  9  2  0
  9 10  1  0
 10 11  2  0
  4 12  1  0
 12 13  2  0
 13 14  1  0
 14 15  2  0
 15 16  1  0
 16 17  2  0
 16 18  1  0
 18 19  1  0
 19 20  1  0
 20 21  1  0
 21 22  2  0
 11  6  1  0
 17 12  1  0
 21 15  1  0
  1 23  1  0
  1 24  1  0
  2 25  1  0
  3 26  1  0
  3 27  1  0
  5 28  1  0
  5 29  1  0
  7 30  1  0
  8 31  1  0
  9 32  1  0
 10 33  1  0
 11 34  1  0
 13 35  1  0
 14 36  1  0
 17 37  1  0
 18 38  1  0
 18 39  1  0
 19 40  1  0
 19 41  1  0
 20 42  1  0
 20 43  1  0
M  CHG  1  18   1
M  END
>  <UniqueID>  (7) 
7

>  <SMILES>  (7) 
C=CCN(Cc1ccccc1)c1ccc2c(c1)[NH2+]CCC2=O

>  <Energy>  (7) 
48.69670278171497

>  <Genealogy>  (7) 
C=CCN(Cc1ccccc1)c1ccc2c(c1)[NH2+]CCC2=O (protonated)
C=CCN(Cc1ccccc1)c1ccc2c(c1)[NH2+]CCC2=O (3D coordinates assigned)
C=CCN(Cc1ccccc1)c1ccc2c(c1)[NH2+]CCC2=O (nonaromatic ring conformer: 48.69670278171497 kcal/mol)

>  <smiles>  (7) 
C=CCN(Cc1ccccc1)c1ccc2c(c1)NCCC2=O

>  <score_type>  (7) 
oracle

>  <origin>  (7) 
adg

>  <m_score__min__energy>  (7) 
-6.29

>  <m_primary>  (7) 
energy

$$$$
7:0
     RDKit          3D

 75 77  0  0  0  0  0  0  0  0999 V2000
   58.8390   33.9790   51.9890 C   0  0  0  0  0  0  0  0  0  0  0  0
   58.7510   32.5630   51.8560 O   0  0  0  0  0  0  0  0  0  0  0  0
   59.0420   31.8610   50.6780 C   0  0  0  0  0  0  0  0  0  0  0  0
   58.5750   32.3750   49.4660 C   0  0  0  0  0  0  0  0  0  0  0  0
   58.8570   31.7300   48.2590 C   0  0  0  0  0  0  0  0  0  0  0  0
   59.6290   30.5540   48.2430 C   0  0  0  0  0  0  0  0  0  0  0  0
   60.0520   30.0030   49.4690 C   0  0  0  0  0  0  0  0  0  0  0  0
   59.7800   30.6620   50.6770 C   0  0  0  0  0  0  0  0  0  0  0  0
   60.7900   28.6930   49.4490 C   0  0  0  0  0  0  0  0  0  0  0  0
   60.0840   27.7000   48.5070 C   0  0  0  0  0  0  0  0  0  0  0  0
   59.6650   28.3050   47.1360 C   0  0  0  0  0  0  0  0  0  0  0  0
   60.0350   29.8000   46.9720 C   0  0  1  0  0  0  0  0  0  0  0  0
   59.4570   30.3550   45.6470 C   0  0  0  0  0  0  0  0  0  0  0  0
   57.9660   30.0190   45.4610 C   0  0  0  0  0  0  0  0  0  0  0  0
   57.3050   31.0380   44.6010 N   0  0  0  0  0  0  0  0  0  0  0  0
   56.0070   30.5270   44.1160 C   0  0  0  0  0  0  0  0  0  0  0  0
   57.1480   32.3150   45.3370 C   0  0  0  0  0  0  0  0  0  0  0  0
   57.3850   33.5650   44.4680 C   0  0  0  0  0  0  0  0  0  0  0  0
   58.5930   34.4230   44.8930 C   0  0  0  0  0  0  0  0  0  0  0  0
   59.1360   34.0770   46.2290 N   0  0  0  0  0  0  0  0  0  0  0  0
   59.3270   35.2930   47.0460 C   0  0  0  0  0  0  0  0  0  0  0  0
   60.4310   33.3760   46.0360 C   0  0  0  0  0  0  0  0  0  0  0  0
   61.6430   34.1750   46.5630 C   0  0  0  0  0  0  0  0  0  0  0  0
   62.3190   33.5350   47.7540 C   0  0  0  0  0  0  0  0  0  0  0  0
   63.3140   32.5660   47.5560 C   0  0  0  0  0  0  0  0  0  0  0  0
   63.9630   31.9830   48.6440 C   0  0  0  0  0  0  0  0  0  0  0  0
   63.6300   32.3610   49.9590 C   0  0  0  0  0  0  0  0  0  0  0  0
   64.2450   31.7810   51.0800 O   0  0  0  0  0  0  0  0  0  0  0  0
   65.6410   31.5070   51.1800 C   0  0  0  0  0  0  0  0  0  0  0  0
   62.6540   33.3500   50.1710 C   0  0  0  0  0  0  0  0  0  0  0  0
   62.3390   33.7040   51.4970 O   0  0  0  0  0  0  0  0  0  0  0  0
   61.9110   32.7890   52.4980 C   0  0  0  0  0  0  0  0  0  0  0  0
   62.0210   33.9500   49.0660 C   0  0  0  0  0  0  0  0  0  0  0  0
   58.8556   34.2467   53.0558 H   0  0  0  0  0  0  0  0  0  0  0  0
   59.7611   34.3360   51.5069 H   0  0  0  0  0  0  0  0  0  0  0  0
   57.9682   34.4474   51.5069 H   0  0  0  0  0  0  0  0  0  0  0  0
   57.9779   33.2988   49.4617 H   0  0  0  0  0  0  0  0  0  0  0  0
   58.4729   32.1444   47.3152 H   0  0  0  0  0  0  0  0  0  0  0  0
   60.1441   30.2410   51.6258 H   0  0  0  0  0  0  0  0  0  0  0  0
   61.8183   28.8605   49.0961 H   0  0  0  0  0  0  0  0  0  0  0  0
   60.8059   28.2741   50.4660 H   0  0  0  0  0  0  0  0  0  0  0  0
   60.7675   26.8591   48.3180 H   0  0  0  0  0  0  0  0  0  0  0  0
   59.1565   27.3920   49.0119 H   0  0  0  0  0  0  0  0  0  0  0  0
   60.1640   27.7349   46.3385 H   0  0  0  0  0  0  0  0  0  0  0  0
   58.5685   28.2387   47.0787 H   0  0  0  0  0  0  0  0  0  0  0  0
   61.1213   29.9423   46.8735 H   0  0  0  0  0  0  0  0  0  0  0  0
   59.5742   31.4487   45.6430 H   0  0  0  0  0  0  0  0  0  0  0  0
   60.0090   29.8831   44.8208 H   0  0  0  0  0  0  0  0  0  0  0  0
   57.8741   29.0307   44.9869 H   0  0  0  0  0  0  0  0  0  0  0  0
   57.4770   30.0140   46.4463 H   0  0  0  0  0  0  0  0  0  0  0  0
   55.3678   30.2754   44.9752 H   0  0  0  0  0  0  0  0  0  0  0  0
   55.5142   31.2982   43.5058 H   0  0  0  0  0  0  0  0  0  0  0  0
   56.1722   29.6268   43.5058 H   0  0  0  0  0  0  0  0  0  0  0  0
   56.1250   32.3605   45.7389 H   0  0  0  0  0  0  0  0  0  0  0  0
   57.9114   32.3251   46.1289 H   0  0  0  0  0  0  0  0  0  0  0  0
   57.5458   33.2361   43.4307 H   0  0  0  0  0  0  0  0  0  0  0  0
   56.4947   34.2001   44.5865 H   0  0  0  0  0  0  0  0  0  0  0  0
   59.3920   34.2886   44.1490 H   0  0  0  0  0  0  0  0  0  0  0  0
   58.2407   35.4634   44.9514 H   0  0  0  0  0  0  0  0  0  0  0  0
   59.2854   35.0282   48.1128 H   0  0  0  0  0  0  0  0  0  0  0  0
   60.3062   35.7387   46.8167 H   0  0  0  0  0  0  0  0  0  0  0  0
   58.5316   36.0174   46.8167 H   0  0  0  0  0  0  0  0  0  0  0  0
   60.3896   32.4137   46.5673 H   0  0  0  0  0  0  0  0  0  0  0  0
   60.5727   33.2460   44.9529 H   0  0  0  0  0  0  0  0  0  0  0  0
   62.3801   34.2642   45.7514 H   0  0  0  0  0  0  0  0  0  0  0  0
   61.2646   35.1533   46.8944 H   0  0  0  0  0  0  0  0  0  0  0  0
   63.5846   32.2634   46.5336 H   0  0  0  0  0  0  0  0  0  0  0  0
   64.7399   31.2231   48.4739 H   0  0  0  0  0  0  0  0  0  0  0  0
   65.9286   31.4506   52.2402 H   0  0  0  0  0  0  0  0  0  0  0  0
   65.8626   30.5482   50.6884 H   0  0  0  0  0  0  0  0  0  0  0  0
   66.2086   32.3109   50.6884 H   0  0  0  0  0  0  0  0  0  0  0  0
   62.1099   33.2143   53.4928 H   0  0  0  0  0  0  0  0  0  0  0  0
   60.8325   32.6030   52.3878 H   0  0  0  0  0  0  0  0  0  0  0  0
   62.4595   31.8419   52.3878 H   0  0  0  0  0  0  0  0  0  0  0  0
   61.2857   34.7516   49.2293 H   0  0  0  0  0  0  0  0  0  0  0  0
  1  2  1  0
  2  3  1  0
  3  4  2  0
  4  5  1  0
  5  6  2  0
  6  7  1  0
  7  8  2  0
  7  9  1  0
  9 10  1  0
 10 11  1  0
 11 12  1  0
 12 13  1  0
 13 14  1  0
 14 15  1  0
 15 16  1  0
 15 17  1  0
 17 18  1  0
 18 19  1  0
 19 20  1  0
 20 21  1  0
 20 22  1  0
 22 23  1  0
 23 24  1  0
 24 25  2  0
 25 26  1  0
 26 27  2  0
 27 28  1  0
 28 29  1  0
 27 30  1  0
 30 31  1  0
 31 32  1  0
 30 33  2  0
  8  3  1  0
 33 24  1  0
 12  6  1  0
  1 34  1  0
  1 35  1  0
  1 36  1  0
  4 37  1  0
  5 38  1  0
  8 39  1  0
  9 40  1  0
  9 41  1  0
 10 42  1  0
 10 43  1  0
 11 44  1  0
 11 45  1  0
 12 46  1  6
 13 47  1  0
 13 48  1  0
 14 49  1  0
 14 50  1  0
 16 51  1  0
 16 52  1  0
 16 53  1  0
 17 54  1  0
 17 55  1  0
 18 56  1  0
 18 57  1  0
 19 58  1  0
 19 59  1  0
 21 60  1  0
 21 61  1  0
 21 62  1  0
 22 63  1  0
 22 64  1  0
 23 65  1  0
 23 66  1  0
 25 67  1  0
 26 68  1  0
 29 69  1  0
 29 70  1  0
 29 71  1  0
 32 72  1  0
 32 73  1  0
 32 74  1  0
 33 75  1  0
M  END
>  <UniqueID>  (8) 
8

>  <SMILES>  (8) 
COc1ccc2c(c1)CCC[C@H]2CCN(C)CCCN(C)CCc1ccc(OC)c(OC)c1

>  <Energy>  (8) 
83.16432177024697

>  <Genealogy>  (8) 
COc1ccc2c(c1)CCC[C@H]2CCN(C)CCCN(C)CCc1ccc(OC)c(OC)c1 (chirality)
COc1ccc2c(c1)CCC[C@H]2CCN(C)CCCN(C)CCc1ccc(OC)c(OC)c1 (3D coordinates assigned)
COc1ccc2c(c1)CCC[C@H]2CCN(C)CCCN(C)CCc1ccc(OC)c(OC)c1 (nonaromatic ring conformer: 83.16432177024697 kcal/mol)

>  <smiles>  (8) 
COc1ccc2c(c1)CCCC2CCN(C)CCCN(C)CCc1ccc(OC)c(OC)c1

>  <score_type>  (8) 
oracle

>  <origin>  (8) 
adg

>  <m_score__min__energy>  (8) 
-8.6899999999999995

>  <m_primary>  (8) 
energy

$$$$
8:0
     RDKit          3D

 45 47  0  0  0  0  0  0  0  0999 V2000
   61.1230   30.3050   47.1840 C   0  0  0  0  0  0  0  0  0  0  0  0
   61.6000   31.0570   48.4260 C   0  0  0  0  0  0  0  0  0  0  0  0
   61.9460   32.4640   48.1190 N   0  0  0  0  0  0  0  0  0  0  0  0
   63.2820   32.5800   47.4930 C   0  0  0  0  0  0  0  0  0  0  0  0
   63.3640   33.8520   46.6540 C   0  0  0  0  0  0  0  0  0  0  0  0
   61.7680   33.4030   49.2570 C   0  0  0  0  0  0  0  0  0  0  0  0
   60.3290   33.4850   49.8120 C   0  0  0  0  0  0  0  0  0  0  0  0
   59.3450   33.0800   48.8060 N   0  0  0  0  0  0  0  0  0  0  0  0
   59.3000   33.6410   47.4800 C   0  0  0  0  0  0  0  0  0  0  0  0
   59.7010   34.9690   47.2410 C   0  0  0  0  0  0  0  0  0  0  0  0
   59.6330   35.5110   45.9580 C   0  0  0  0  0  0  0  0  0  0  0  0
   59.1560   34.7470   44.8930 C   0  0  0  0  0  0  0  0  0  0  0  0
   58.7320   33.4240   45.1070 C   0  0  0  0  0  0  0  0  0  0  0  0
   58.2370   32.6260   44.0610 C   0  0  0  0  0  0  0  0  0  0  0  0
   58.1610   33.0850   42.8870 O   0  0  0  0  0  0  0  0  0  0  0  0
   57.8280   31.3100   44.3360 C   0  0  0  0  0  0  0  0  0  0  0  0
   57.3220   30.4580   43.3360 C   0  0  0  0  0  0  0  0  0  0  0  0
   56.9270   29.1550   43.6570 C   0  0  0  0  0  0  0  0  0  0  0  0
   57.0330   28.6930   44.9710 C   0  0  0  0  0  0  0  0  0  0  0  0
   57.5330   29.5290   45.9720 C   0  0  0  0  0  0  0  0  0  0  0  0
   57.9320   30.8350   45.6630 C   0  0  0  0  0  0  0  0  0  0  0  0
   58.4060   31.6210   46.6240 O   0  0  0  0  0  0  0  0  0  0  0  0
   58.8030   32.8710   46.4090 C   0  0  0  0  0  0  0  0  0  0  0  0
   60.5571   29.4129   47.4903 H   0  0  0  0  0  0  0  0  0  0  0  0
   60.4758   30.9615   46.5839 H   0  0  0  0  0  0  0  0  0  0  0  0
   61.9927   29.9994   46.5839 H   0  0  0  0  0  0  0  0  0  0  0  0
   60.7988   31.0438   49.1796 H   0  0  0  0  0  0  0  0  0  0  0  0
   62.5049   30.5569   48.8016 H   0  0  0  0  0  0  0  0  0  0  0  0
   64.0499   32.6140   48.2799 H   0  0  0  0  0  0  0  0  0  0  0  0
   63.4491   31.7097   46.8414 H   0  0  0  0  0  0  0  0  0  0  0  0
   63.4204   34.7267   47.3187 H   0  0  0  0  0  0  0  0  0  0  0  0
   64.2616   33.8154   46.0193 H   0  0  0  0  0  0  0  0  0  0  0  0
   62.4691   33.9309   46.0193 H   0  0  0  0  0  0  0  0  0  0  0  0
   62.4314   33.0808   50.0731 H   0  0  0  0  0  0  0  0  0  0  0  0
   62.0080   34.4048   48.8714 H   0  0  0  0  0  0  0  0  0  0  0  0
   60.2434   32.8205   50.6844 H   0  0  0  0  0  0  0  0  0  0  0  0
   60.1258   34.5284   50.0950 H   0  0  0  0  0  0  0  0  0  0  0  0
   58.8600   32.1700   48.9700 H   0  0  0  0  0  0  0  0  0  0  0  0
   60.0714   35.5848   48.0739 H   0  0  0  0  0  0  0  0  0  0  0  0
   59.9576   36.5476   45.7847 H   0  0  0  0  0  0  0  0  0  0  0  0
   59.1115   35.1808   43.8832 H   0  0  0  0  0  0  0  0  0  0  0  0
   57.2371   30.8177   42.2999 H   0  0  0  0  0  0  0  0  0  0  0  0
   56.5319   28.4926   42.8727 H   0  0  0  0  0  0  0  0  0  0  0  0
   56.7217   27.6674   45.2182 H   0  0  0  0  0  0  0  0  0  0  0  0
   57.6135   29.1605   47.0053 H   0  0  0  0  0  0  0  0  0  0  0  0
  1  2  1  0
  2  3  1  0
  3  4  1  0
  4  5  1  0
  3  6  1  0
  6  7  1  0
  7  8  1  0
  8  9  1  0
  9 10  2  0
 10 11  1  0
 11 12  2  0
 12 13  1  0
 13 14  1  0
 14 15  2  0
 14 16  1  0
 16 17  2  0
 17 18  1  0
 18 19  2  0
 19 20  1  0
 20 21  2  0
 21 22  1  0
 22 23  1  0
 23  9  1  0
 23 13  2  0
 21 16  1  0
  1 24  1  0
  1 25  1  0
  1 26  1  0
  2 27  1  0
  2 28  1  0
  4 29  1  0
  4 30  1  0
  5 31  1  0
  5 32  1  0
  5 33  1  0
  6 34  1  0
  6 35  1  0
  7 36  1  0
  7 37  1  0
  8 38  1  0
 10 39  1  0
 11 40  1  0
 12 41  1  0
 17 42  1  0
 18 43  1  0
 19 44  1  0
 20 45  1  0
M  END
>  <UniqueID>  (9) 
9

>  <SMILES>  (9) 
CCN(CC)CCNc1cccc2c(=O)c3ccccc3oc12

>  <Energy>  (9) 
58.9077324752583

>  <Genealogy>  (9) 
CCN(CC)CCNc1cccc2c(=O)c3ccccc3oc12 (3D coordinates assigned)
CCN(CC)CCNc1cccc2c(=O)c3ccccc3oc12 (optimized conformer: 58.9077324752583 kcal/mol)

>  <smiles>  (9) 
CCN(CC)CCNc1cccc2c(=O)c3ccccc3oc12

>  <score_type>  (9) 
oracle

>  <origin>  (9) 
adg

>  <m_score__min__energy>  (9) 
-7.2699999999999996

>  <m_primary>  (9) 
energy

$$$$
9:0
     RDKit          3D

 36 38  0  0  0  0  0  0  0  0999 V2000
   60.1340   27.2480   46.3150 C   0  0  0  0  0  0  0  0  0  0  0  0
   59.3500   27.7410   47.5270 C   0  0  0  0  0  0  0  0  0  0  0  0
   58.9070   29.0700   47.3240 O   0  0  0  0  0  0  0  0  0  0  0  0
   59.7720   29.7680   46.4490 C   0  0  0  0  0  0  0  0  0  0  0  0
   59.0640   30.8810   45.8070 N   0  0  0  0  0  0  0  0  0  0  0  0
   58.1430   30.8460   44.8010 C   0  0  0  0  0  0  0  0  0  0  0  0
   57.6920   29.5750   44.1070 C   0  0  2  0  0  0  0  0  0  0  0  0
   56.6970   29.8810   43.0230 C   0  0  0  0  0  0  0  0  0  0  0  0
   55.3570   29.7250   43.7200 C   0  0  0  0  0  0  0  0  0  0  0  0
   55.5250   28.9960   44.9170 O   0  0  0  0  0  0  0  0  0  0  0  0
   56.8880   28.6600   45.0190 C   0  0  0  0  0  0  0  0  0  0  0  0
   57.7380   32.0840   44.4080 N   0  0  0  0  0  0  0  0  0  0  0  0
   58.4220   32.9070   45.2230 C   0  0  0  0  0  0  0  0  0  0  0  0
   58.3850   34.2980   45.2480 C   0  0  0  0  0  0  0  0  0  0  0  0
   59.2080   34.9580   46.1820 C   0  0  0  0  0  0  0  0  0  0  0  0
   60.0390   34.2170   47.0510 C   0  0  0  0  0  0  0  0  0  0  0  0
   60.0540   32.8110   46.9970 C   0  0  0  0  0  0  0  0  0  0  0  0
   59.2210   32.1900   46.0630 C   0  0  0  0  0  0  0  0  0  0  0  0
   61.0201   26.6908   46.6533 H   0  0  0  0  0  0  0  0  0  0  0  0
   59.4956   26.5885   45.7088 H   0  0  0  0  0  0  0  0  0  0  0  0
   60.4518   28.1091   45.7088 H   0  0  0  0  0  0  0  0  0  0  0  0
   58.4782   27.0888   47.6839 H   0  0  0  0  0  0  0  0  0  0  0  0
   60.0063   27.7157   48.4094 H   0  0  0  0  0  0  0  0  0  0  0  0
   60.6243   30.1630   47.0213 H   0  0  0  0  0  0  0  0  0  0  0  0
   60.1261   29.0755   45.6712 H   0  0  0  0  0  0  0  0  0  0  0  0
   58.6269   29.1141   43.7556 H   0  0  0  0  0  0  0  0  0  0  0  0
   56.8278   30.9064   42.6468 H   0  0  0  0  0  0  0  0  0  0  0  0
   56.8032   29.2260   42.1456 H   0  0  0  0  0  0  0  0  0  0  0  0
   54.9476   30.7193   43.9519 H   0  0  0  0  0  0  0  0  0  0  0  0
   54.6634   29.1847   43.0589 H   0  0  0  0  0  0  0  0  0  0  0  0
   57.2229   28.7884   46.0589 H   0  0  0  0  0  0  0  0  0  0  0  0
   57.0364   27.6120   44.7194 H   0  0  0  0  0  0  0  0  0  0  0  0
   57.7359   34.8625   44.5625 H   0  0  0  0  0  0  0  0  0  0  0  0
   59.2033   36.0567   46.2347 H   0  0  0  0  0  0  0  0  0  0  0  0
   60.6789   34.7426   47.7750 H   0  0  0  0  0  0  0  0  0  0  0  0
   60.6984   32.2220   47.6661 H   0  0  0  0  0  0  0  0  0  0  0  0
  1  2  1  0
  2  3  1  0
  3  4  1  0
  4  5  1  0
  5  6  1  0
  6  7  1  0
  7  8  1  0
  8  9  1  0
  9 10  1  0
 10 11  1  0
  6 12  2  0
 12 13  1  0
 13 14  2  0
 14 15  1  0
 15 16  2  0
 16 17  1  0
 17 18  2  0
 18  5  1  0
 11  7  1  0
 18 13  1  0
  1 19  1  0
  1 20  1  0
  1 21  1  0
  2 22  1  0
  2 23  1  0
  4 24  1  0
  4 25  1  0
  7 26  1  6
  8 27  1  0
  8 28  1  0
  9 29  1  0
  9 30  1  0
 11 31  1  0
 11 32  1  0
 14 33  1  0
 15 34  1  0
 16 35  1  0
 17 36  1  0
M  END
>  <UniqueID>  (10) 
10

>  <SMILES>  (10) 
CCOCn1c([C@@H]2CCOC2)nc2ccccc21

>  <Energy>  (10) 
75.25927942096831

>  <Genealogy>  (10) 
CCOCn1c([C@@H]2CCOC2)nc2ccccc21 (chirality)
CCOCn1c([C@@H]2CCOC2)nc2ccccc21 (3D coordinates assigned)
CCOCn1c([C@@H]2CCOC2)nc2ccccc21 (nonaromatic ring conformer: 75.25927942096831 kcal/mol)

>  <smiles>  (10) 
CCOCn1c(C2CCOC2)nc2ccccc21

>  <score_type>  (10) 
oracle

>  <origin>  (10) 
adg

>  <m_score__min__energy>  (10) 
-6.6200000000000001

>  <m_primary>  (10) 
energy

$$$$
10:0
     RDKit          3D

 59 61  0  0  0  0  0  0  0  0999 V2000
   56.7610   26.6760   46.0020 C   0  0  0  0  0  0  0  0  0  0  0  0
   55.9930   27.8120   45.6170 O   0  0  0  0  0  0  0  0  0  0  0  0
   56.5310   28.9770   45.0520 C   0  0  0  0  0  0  0  0  0  0  0  0
   57.7950   29.4800   45.4170 C   0  0  0  0  0  0  0  0  0  0  0  0
   58.2880   30.6470   44.8240 C   0  0  0  0  0  0  0  0  0  0  0  0
   57.5330   31.3230   43.8540 C   0  0  0  0  0  0  0  0  0  0  0  0
   58.0480   32.5980   43.2420 C   0  0  0  0  0  0  0  0  0  0  0  0
   58.7950   33.4350   44.2900 C   0  0  0  0  0  0  0  0  0  0  0  0
   57.9600   33.7310   45.5150 C   0  0  0  0  0  0  0  0  0  0  0  0
   56.7700   34.1270   45.3720 O   0  0  0  0  0  0  0  0  0  0  0  0
   58.5000   33.5340   46.8880 C   0  0  0  0  0  0  0  0  0  0  0  0
   59.2700   34.5440   47.4890 C   0  0  0  0  0  0  0  0  0  0  0  0
   59.7850   34.3780   48.7760 C   0  0  0  0  0  0  0  0  0  0  0  0
   59.5360   33.1970   49.4980 C   0  0  0  0  0  0  0  0  0  0  0  0
   60.0360   32.9860   50.7950 O   0  0  0  0  0  0  0  0  0  0  0  0
   59.8670   33.8630   51.9090 C   0  0  0  0  0  0  0  0  0  0  0  0
   58.6640   33.4130   52.7650 C   0  0  0  0  0  0  0  0  0  0  0  0
   58.0540   32.1190   52.3670 N   0  0  0  0  0  0  0  0  0  0  0  0
   58.5700   30.9760   53.1530 C   0  0  0  0  0  0  0  0  0  0  0  0
   57.7190   29.7080   52.9260 C   0  0  0  0  0  0  0  0  0  0  0  0
   57.0020   29.7960   51.7110 O   0  0  0  0  0  0  0  0  0  0  0  0
   56.0200   30.8160   51.7970 C   0  0  0  0  0  0  0  0  0  0  0  0
   56.5770   32.1390   52.3730 C   0  0  0  0  0  0  0  0  0  0  0  0
   58.7690   32.1800   48.9130 C   0  0  0  0  0  0  0  0  0  0  0  0
   58.5390   31.0110   49.6550 O   0  0  0  0  0  0  0  0  0  0  0  0
   59.1420   29.7490   49.3870 C   0  0  0  0  0  0  0  0  0  0  0  0
   58.2530   32.3530   47.6120 C   0  0  0  0  0  0  0  0  0  0  0  0
   56.2670   30.8290   43.5010 C   0  0  0  0  0  0  0  0  0  0  0  0
   55.7750   29.6630   44.0930 C   0  0  0  0  0  0  0  0  0  0  0  0
   56.8017   26.6158   47.0996 H   0  0  0  0  0  0  0  0  0  0  0  0
   56.2932   25.7644   45.6019 H   0  0  0  0  0  0  0  0  0  0  0  0
   57.7813   26.7705   45.6019 H   0  0  0  0  0  0  0  0  0  0  0  0
   58.3971   28.9528   46.1717 H   0  0  0  0  0  0  0  0  0  0  0  0
   59.2731   31.0368   45.1199 H   0  0  0  0  0  0  0  0  0  0  0  0
   58.7347   32.3525   42.4185 H   0  0  0  0  0  0  0  0  0  0  0  0
   57.1950   33.1807   42.8640 H   0  0  0  0  0  0  0  0  0  0  0  0
   59.6936   32.8834   44.6034 H   0  0  0  0  0  0  0  0  0  0  0  0
   59.0464   34.3986   43.8228 H   0  0  0  0  0  0  0  0  0  0  0  0
   59.4693   35.4758   46.9394 H   0  0  0  0  0  0  0  0  0  0  0  0
   60.3902   35.1771   49.2289 H   0  0  0  0  0  0  0  0  0  0  0  0
   60.7778   33.8467   52.5255 H   0  0  0  0  0  0  0  0  0  0  0  0
   59.6821   34.8820   51.5383 H   0  0  0  0  0  0  0  0  0  0  0  0
   59.0028   33.3231   53.8077 H   0  0  0  0  0  0  0  0  0  0  0  0
   57.8843   34.1754   52.6207 H   0  0  0  0  0  0  0  0  0  0  0  0
   58.3530   31.9630   51.3720 H   0  0  0  0  0  0  0  0  0  0  0  0
   59.6068   30.7708   52.8482 H   0  0  0  0  0  0  0  0  0  0  0  0
   58.5223   31.2392   54.2200 H   0  0  0  0  0  0  0  0  0  0  0  0
   58.3814   28.8305   52.8912 H   0  0  0  0  0  0  0  0  0  0  0  0
   57.0005   29.6126   53.7535 H   0  0  0  0  0  0  0  0  0  0  0  0
   55.6262   31.0103   50.7885 H   0  0  0  0  0  0  0  0  0  0  0  0
   55.2348   30.4621   52.4813 H   0  0  0  0  0  0  0  0  0  0  0  0
   56.2230   32.9799   51.7585 H   0  0  0  0  0  0  0  0  0  0  0  0
   56.2249   32.2547   53.4087 H   0  0  0  0  0  0  0  0  0  0  0  0
   59.3814   29.2480   50.3366 H   0  0  0  0  0  0  0  0  0  0  0  0
   58.4448   29.1249   48.8087 H   0  0  0  0  0  0  0  0  0  0  0  0
   60.0656   29.8993   48.8087 H   0  0  0  0  0  0  0  0  0  0  0  0
   57.6493   31.5539   47.1571 H   0  0  0  0  0  0  0  0  0  0  0  0
   55.6597   31.3624   42.7549 H   0  0  0  0  0  0  0  0  0  0  0  0
   54.7852   29.2804   43.8034 H   0  0  0  0  0  0  0  0  0  0  0  0
  1  2  1  0
  2  3  1  0
  3  4  2  0
  4  5  1  0
  5  6  2  0
  6  7  1  0
  7  8  1  0
  8  9  1  0
  9 10  2  0
  9 11  1  0
 11 12  2  0
 12 13  1  0
 13 14  2  0
 14 15  1  0
 15 16  1  0
 16 17  1  0
 17 18  1  0
 18 19  1  0
 19 20  1  0
 20 21  1  0
 21 22  1  0
 22 23  1  0
 14 24  1  0
 24 25  1  0
 25 26  1  0
 24 27  2  0
  6 28  1  0
 28 29  2  0
 29  3  1  0
 27 11  1  0
 23 18  1  0
  1 30  1  0
  1 31  1  0
  1 32  1  0
  4 33  1  0
  5 34  1  0
  7 35  1  0
  7 36  1  0
  8 37  1  0
  8 38  1  0
 12 39  1  0
 13 40  1  0
 16 41  1  0
 16 42  1  0
 17 43  1  0
 17 44  1  0
 18 45  1  0
 19 46  1  0
 19 47  1  0
 20 48  1  0
 20 49  1  0
 22 50  1  0
 22 51  1  0
 23 52  1  0
 23 53  1  0
 26 54  1  0
 26 55  1  0
 26 56  1  0
 27 57  1  0
 28 58  1  0
 29 59  1  0
M  CHG  1  18   1
M  END
>  <UniqueID>  (11) 
11

>  <SMILES>  (11) 
COc1ccc(CCC(=O)c2ccc(OCC[NH+]3CCOCC3)c(OC)c2)cc1

>  <Energy>  (11) 
71.57170305845906

>  <Genealogy>  (11) 
COc1ccc(CCC(=O)c2ccc(OCC[NH+]3CCOCC3)c(OC)c2)cc1 (protonated)
COc1ccc(CCC(=O)c2ccc(OCC[NH+]3CCOCC3)c(OC)c2)cc1 (3D coordinates assigned)
COc1ccc(CCC(=O)c2ccc(OCC[NH+]3CCOCC3)c(OC)c2)cc1 (nonaromatic ring conformer: 71.57170305845906 kcal/mol)

>  <smiles>  (11) 
COc1ccc(CCC(=O)c2ccc(OCCN3CCOCC3)c(OC)c2)cc1

>  <score_type>  (11) 
oracle

>  <origin>  (11) 
adg

>  <m_score__min__energy>  (11) 
-6.2699999999999996

>  <m_primary>  (11) 
energy

$$$$
11:0
     RDKit          3D

 64 66  0  0  0  0  0  0  0  0999 V2000
   64.8990   32.3280   46.4020 H   0  0  0  0  0  0  0  0  0  0  0  0
   64.1490   32.9970   46.5250 O   0  0  0  0  0  0  0  0  0  0  0  0
   63.3150   32.9590   47.6420 C   0  0  0  0  0  0  0  0  0  0  0  0
   62.9010   34.1560   48.2360 C   0  0  0  0  0  0  0  0  0  0  0  0
   63.2375   35.1185   47.8231 H   0  0  0  0  0  0  0  0  0  0  0  0
   62.0600   34.1320   49.3540 C   0  0  0  0  0  0  0  0  0  0  0  0
   61.7315   35.0762   49.8129 H   0  0  0  0  0  0  0  0  0  0  0  0
   61.6340   32.9080   49.8920 C   0  0  0  0  0  0  0  0  0  0  0  0
   60.7120   32.8770   51.0830 C   0  0  0  0  0  0  0  0  0  0  0  0
   59.8724   33.5656   50.9075 H   0  0  0  0  0  0  0  0  0  0  0  0
   61.2774   33.1834   51.9754 H   0  0  0  0  0  0  0  0  0  0  0  0
   60.1660   31.4680   51.3080 C   0  0  0  0  0  0  0  0  0  0  0  0
   60.0075   31.3043   52.3841 H   0  0  0  0  0  0  0  0  0  0  0  0
   60.8878   30.7310   50.9260 H   0  0  0  0  0  0  0  0  0  0  0  0
   58.8970   31.3160   50.6010 N   0  0  0  0  0  0  0  0  0  0  0  0
   58.7940   31.1980   49.3130 C   0  0  0  0  0  0  0  0  0  0  0  0
   58.8340   32.2920   48.5040 N   0  0  0  0  0  0  0  0  0  0  0  0
   58.7310   32.1570   47.1560 C   0  0  0  0  0  0  0  0  0  0  0  0
   58.7680   33.3200   46.3040 N   0  0  0  0  0  0  0  0  0  0  0  0
   59.9040   34.2420   46.3860 C   0  0  0  0  0  0  0  0  0  0  0  0
   60.1432   34.4361   47.4420 H   0  0  0  0  0  0  0  0  0  0  0  0
   60.7768   33.7936   45.8888 H   0  0  0  0  0  0  0  0  0  0  0  0
   59.6448   35.1884   45.8888 H   0  0  0  0  0  0  0  0  0  0  0  0
   57.6870   33.5780   45.3430 C   0  0  0  0  0  0  0  0  0  0  0  0
   57.8986   34.5117   44.8014 H   0  0  0  0  0  0  0  0  0  0  0  0
   56.7365   33.6656   45.8898 H   0  0  0  0  0  0  0  0  0  0  0  0
   57.5790   32.4250   44.3390 C   0  0  0  0  0  0  0  0  0  0  0  0
   58.5218   31.8584   44.3367 H   0  0  0  0  0  0  0  0  0  0  0  0
   57.3827   32.8422   43.3403 H   0  0  0  0  0  0  0  0  0  0  0  0
   56.4750   31.5240   44.7010 N   0  0  0  0  0  0  0  0  0  0  0  0
   56.7090   31.0790   45.6200 H   0  0  0  0  0  0  0  0  0  0  0  0
   56.3210   30.4410   43.7250 C   0  0  0  0  0  0  0  0  0  0  0  0
   56.1853   29.4866   44.2547 H   0  0  0  0  0  0  0  0  0  0  0  0
   55.4419   30.6384   43.0940 H   0  0  0  0  0  0  0  0  0  0  0  0
   57.2203   30.3855   43.0940 H   0  0  0  0  0  0  0  0  0  0  0  0
   58.5910   30.9160   46.6210 N   0  0  0  0  0  0  0  0  0  0  0  0
   58.5520   29.8150   47.4170 C   0  0  0  0  0  0  0  0  0  0  0  0
   58.4130   28.5010   46.8390 N   0  0  0  0  0  0  0  0  0  0  0  0
   58.7860   27.3140   47.6310 C   0  0  0  0  0  0  0  0  0  0  0  0
   59.8675   27.1470   47.5191 H   0  0  0  0  0  0  0  0  0  0  0  0
   58.5002   27.5186   48.6733 H   0  0  0  0  0  0  0  0  0  0  0  0
   58.0440   26.0240   47.2010 C   0  0  0  0  0  0  0  0  0  0  0  0
   58.7924   25.2488   46.9798 H   0  0  0  0  0  0  0  0  0  0  0  0
   57.3819   25.7385   48.0318 H   0  0  0  0  0  0  0  0  0  0  0  0
   57.1920   26.2060   46.0080 N   0  0  0  0  0  0  0  0  0  0  0  0
   56.7070   24.8990   45.5120 C   0  0  0  0  0  0  0  0  0  0  0  0
   57.0221   24.7715   44.4658 H   0  0  0  0  0  0  0  0  0  0  0  0
   57.1335   24.1043   46.1417 H   0  0  0  0  0  0  0  0  0  0  0  0
   55.1790   24.8170   45.5890 C   0  0  0  0  0  0  0  0  0  0  0  0
   54.7822   24.5325   44.6033 H   0  0  0  0  0  0  0  0  0  0  0  0
   54.9020   24.0650   46.3425 H   0  0  0  0  0  0  0  0  0  0  0  0
   54.6370   26.0520   45.9640 O   0  0  0  0  0  0  0  0  0  0  0  0
   55.1380   26.3410   46.7720 H   0  0  0  0  0  0  0  0  0  0  0  0
   57.9450   26.9370   44.9770 C   0  0  0  0  0  0  0  0  0  0  0  0
   58.9472   26.4972   44.8664 H   0  0  0  0  0  0  0  0  0  0  0  0
   57.4235   26.8738   44.0105 H   0  0  0  0  0  0  0  0  0  0  0  0
   58.0660   28.3910   45.4140 C   0  0  0  0  0  0  0  0  0  0  0  0
   58.8504   28.8791   44.8169 H   0  0  0  0  0  0  0  0  0  0  0  0
   57.0927   28.8792   45.2582 H   0  0  0  0  0  0  0  0  0  0  0  0
   58.6500   29.9650   48.7650 N   0  0  0  0  0  0  0  0  0  0  0  0
   62.0470   31.7080   49.2880 C   0  0  0  0  0  0  0  0  0  0  0  0
   61.7074   30.7444   49.6957 H   0  0  0  0  0  0  0  0  0  0  0  0
   62.8870   31.7340   48.1720 C   0  0  0  0  0  0  0  0  0  0  0  0
   63.2131   30.7913   47.7083 H   0  0  0  0  0  0  0  0  0  0  0  0
  1  2  1  0
  2  3  1  0
  3  4  2  0
  4  5  1  0
  4  6  1  0
  6  7  1  0
  6  8  2  0
  8  9  1  0
  9 10  1  0
  9 11  1  0
  9 12  1  0
 12 13  1  0
 12 14  1  0
 12 15  1  0
 15 16  2  0
 16 17  1  0
 17 18  2  0
 18 19  1  0
 19 20  1  0
 20 21  1  0
 20 22  1  0
 20 23  1  0
 19 24  1  0
 24 25  1  0
 24 26  1  0
 24 27  1  0
 27 28  1  0
 27 29  1  0
 27 30  1  0
 30 31  1  0
 30 32  1  0
 32 33  1  0
 32 34  1  0
 32 35  1  0
 18 36  1  0
 36 37  1  0
 37 38  1  0
 38 39  1  0
 39 40  1  0
 39 41  1  0
 39 42  1  0
 42 43  1  0
 42 44  1  0
 42 45  1  0
 45 46  1  0
 46 47  1  0
 46 48  1  0
 46 49  1  0
 49 50  1  0
 49 51  1  0
 49 52  1  0
 52 53  1  0
 45 54  1  0
 54 55  1  0
 54 56  1  0
 54 57  1  0
 57 58  1  0
 57 59  1  0
 37 60  2  0
  8 61  1  0
 61 62  1  0
 61 63  2  0
 63 64  1  0
 63  3  1  0
 60 16  1  0
 57 38  1  0
M  CHG  1  36  -1
M  END
>  <UniqueID>  (12) 
12

>  <SMILES>  (12) 
CNCCN(C)c1n/c(=N\CCc2ccc(O)cc2)nc(N2CCN(CCO)CC2)[n-]1

>  <Energy>  (12) 
60.47278612386965

>  <Genealogy>  (12) 
CNCCN(C)c1nc(=NCCc2ccc(O)cc2)nc(N2CCN(CCO)CC2)[n-]1 (protonated)
CNCCN(C)c1n/c(=N\CCc2ccc(O)cc2)nc(N2CCN(CCO)CC2)[n-]1 (cis-trans isomerization)
CNCCN(C)c1n/c(=N\CCc2ccc(O)cc2)nc(N2CCN(CCO)CC2)[n-]1 (3D coordinates assigned)
CNCCN(C)c1n/c(=N\CCc2ccc(O)cc2)nc(N2CCN(CCO)CC2)[n-]1 (nonaromatic ring conformer: 60.47278612386965 kcal/mol)

>  <smiles>  (12) 
CNCCN(C)c1nc(=NCCc2ccc(O)cc2)nc(N2CCN(CCO)CC2)[nH]1

>  <score_type>  (12) 
oracle

>  <origin>  (12) 
adg

>  <m_score__min__energy>  (12) 
-9.3599999999999994

>  <m_primary>  (12) 
energy

$$$$
12:0
     RDKit          3D

 43 46  0  0  0  0  0  0  0  0999 V2000
   57.4440   21.6530   45.7790 C   0  0  0  0  0  0  0  0  0  0  0  0
   57.4210   22.6580   46.7870 O   0  0  0  0  0  0  0  0  0  0  0  0
   57.3560   24.0230   46.4920 C   0  0  0  0  0  0  0  0  0  0  0  0
   58.3320   24.5950   45.6710 C   0  0  0  0  0  0  0  0  0  0  0  0
   58.2660   25.9580   45.3740 C   0  0  0  0  0  0  0  0  0  0  0  0
   57.2180   26.7340   45.8830 C   0  0  0  0  0  0  0  0  0  0  0  0
   57.1560   28.1750   45.5950 C   0  0  0  0  0  0  0  0  0  0  0  0
   56.1380   28.6560   44.8230 N   0  0  0  0  0  0  0  0  0  0  0  0
   56.0510   29.9790   44.4880 C   0  0  0  0  0  0  0  0  0  0  0  0
   56.9900   30.8650   44.9280 N   0  0  0  0  0  0  0  0  0  0  0  0
   57.9980   30.4110   45.7120 C   0  0  0  0  0  0  0  0  0  0  0  0
   58.1080   29.0920   46.0590 C   0  0  0  0  0  0  0  0  0  0  0  0
   59.2350   28.9940   46.8620 C   0  0  0  0  0  0  0  0  0  0  0  0
   59.8200   27.7790   47.5100 C   0  0  0  0  0  0  0  0  0  0  0  0
   59.7720   30.2760   46.9220 C   0  0  0  0  0  0  0  0  0  0  0  0
   58.9920   31.1560   46.2410 N   0  0  0  0  0  0  0  0  0  0  0  0
   59.2630   32.5800   45.9730 C   0  0  0  0  0  0  0  0  0  0  0  0
   58.1800   33.4950   46.5450 C   0  0  0  0  0  0  0  0  0  0  0  0
   58.8660   34.8200   46.8740 C   0  0  0  0  0  0  0  0  0  0  0  0
   60.3680   34.5860   46.7390 C   0  0  0  0  0  0  0  0  0  0  0  0
   60.5510   33.0840   46.6200 C   0  0  0  0  0  0  0  0  0  0  0  0
   56.2710   26.1280   46.7180 C   0  0  0  0  0  0  0  0  0  0  0  0
   56.3560   24.8000   46.9960 N   0  0  0  0  0  0  0  0  0  0  0  0
   57.4667   20.6600   46.2517 H   0  0  0  0  0  0  0  0  0  0  0  0
   56.5436   21.7407   45.1532 H   0  0  0  0  0  0  0  0  0  0  0  0
   58.3394   21.7818   45.1532 H   0  0  0  0  0  0  0  0  0  0  0  0
   59.1450   23.9769   45.2624 H   0  0  0  0  0  0  0  0  0  0  0  0
   59.0368   26.4214   44.7407 H   0  0  0  0  0  0  0  0  0  0  0  0
   55.2190   30.3306   43.8601 H   0  0  0  0  0  0  0  0  0  0  0  0
   59.7685   27.8859   48.6036 H   0  0  0  0  0  0  0  0  0  0  0  0
   59.2516   26.8892   47.2014 H   0  0  0  0  0  0  0  0  0  0  0  0
   60.8700   27.6685   47.2014 H   0  0  0  0  0  0  0  0  0  0  0  0
   60.7007   30.5410   47.4485 H   0  0  0  0  0  0  0  0  0  0  0  0
   59.3176   32.6219   44.8752 H   0  0  0  0  0  0  0  0  0  0  0  0
   57.3838   33.6526   45.8026 H   0  0  0  0  0  0  0  0  0  0  0  0
   57.7152   33.0533   47.4388 H   0  0  0  0  0  0  0  0  0  0  0  0
   58.5398   35.6000   46.1703 H   0  0  0  0  0  0  0  0  0  0  0  0
   58.6091   35.1553   47.8897 H   0  0  0  0  0  0  0  0  0  0  0  0
   60.7536   35.0899   45.8405 H   0  0  0  0  0  0  0  0  0  0  0  0
   60.9169   34.9906   47.6021 H   0  0  0  0  0  0  0  0  0  0  0  0
   61.4194   32.8491   45.9870 H   0  0  0  0  0  0  0  0  0  0  0  0
   60.7361   32.6113   47.5959 H   0  0  0  0  0  0  0  0  0  0  0  0
   55.4565   26.7280   47.1499 H   0  0  0  0  0  0  0  0  0  0  0  0
  1  2  1  0
  2  3  1  0
  3  4  2  0
  4  5  1  0
  5  6  2  0
  6  7  1  0
  7  8  2  0
  8  9  1  0
  9 10  2  0
 10 11  1  0
 11 12  2  0
 12 13  1  0
 13 14  1  0
 13 15  2  0
 15 16  1  0
 16 17  1  0
 17 18  1  0
 18 19  1  0
 19 20  1  0
 20 21  1  0
  6 22  1  0
 22 23  2  0
 23  3  1  0
 12  7  1  0
 21 17  1  0
 16 11  1  0
  1 24  1  0
  1 25  1  0
  1 26  1  0
  4 27  1  0
  5 28  1  0
  9 29  1  0
 14 30  1  0
 14 31  1  0
 14 32  1  0
 15 33  1  0
 17 34  1  0
 18 35  1  0
 18 36  1  0
 19 37  1  0
 19 38  1  0
 20 39  1  0
 20 40  1  0
 21 41  1  0
 21 42  1  0
 22 43  1  0
M  END
>  <UniqueID>  (13) 
13

>  <SMILES>  (13) 
COc1ccc(-c2ncnc3c2c(C)cn3C2CCCC2)cn1

>  <Energy>  (13) 
90.13520843867063

>  <Genealogy>  (13) 
COc1ccc(-c2ncnc3c2c(C)cn3C2CCCC2)cn1 (3D coordinates assigned)
COc1ccc(-c2ncnc3c2c(C)cn3C2CCCC2)cn1 (nonaromatic ring conformer: 90.13520843867063 kcal/mol)

>  <smiles>  (13) 
COc1ccc(-c2ncnc3c2c(C)cn3C2CCCC2)cn1

>  <score_type>  (13) 
oracle

>  <origin>  (13) 
adg

>  <m_score__min__energy>  (13) 
-7.5099999999999998

>  <m_primary>  (13) 
energy

$$$$
13:0
     RDKit          3D

 49 52  0  0  0  0  0  0  0  0999 V2000
   61.0930   31.6060   47.3120 C   0  0  0  0  0  0  0  0  0  0  0  0
   59.7280   31.2570   47.5140 O   0  0  0  0  0  0  0  0  0  0  0  0
   58.8650   30.7920   46.5080 C   0  0  0  0  0  0  0  0  0  0  0  0
   58.5460   29.4290   46.3730 C   0  0  0  0  0  0  0  0  0  0  0  0
   57.6510   28.9880   45.3830 C   0  0  0  0  0  0  0  0  0  0  0  0
   57.3300   27.5450   45.3200 C   0  0  0  0  0  0  0  0  0  0  0  0
   56.6470   26.8050   46.2810 C   0  0  0  0  0  0  0  0  0  0  0  0
   56.5430   25.4440   45.9680 C   0  0  0  0  0  0  0  0  0  0  0  0
   57.1590   25.1000   44.7640 C   0  0  0  0  0  0  0  0  0  0  0  0
   57.2450   23.7580   44.1490 C   0  0  0  0  0  0  0  0  0  0  0  0
   56.3430   23.3360   43.1550 C   0  0  0  0  0  0  0  0  0  0  0  0
   56.4730   22.0570   42.6100 C   0  0  0  0  0  0  0  0  0  0  0  0
   57.4900   21.2110   43.0500 C   0  0  0  0  0  0  0  0  0  0  0  0
   58.3690   21.6590   44.0360 C   0  0  0  0  0  0  0  0  0  0  0  0
   58.2280   22.9080   44.5570 N   0  0  0  0  0  0  0  0  0  0  0  0
   57.8300   26.4950   44.1030 S   0  0  0  0  0  0  0  0  0  0  0  0
   57.0960   29.9300   44.4820 C   0  0  0  0  0  0  0  0  0  0  0  0
   56.1780   29.5220   43.3590 C   0  0  0  0  0  0  0  0  0  0  0  0
   57.4060   31.2890   44.6330 C   0  0  0  0  0  0  0  0  0  0  0  0
   58.2910   31.7220   45.6280 C   0  0  0  0  0  0  0  0  0  0  0  0
   58.6060   33.1180   45.7450 N   0  0  0  0  0  0  0  0  0  0  0  0
   58.9760   33.8680   44.5390 C   0  0  0  0  0  0  0  0  0  0  0  0
   59.2490   35.3380   44.8760 C   0  0  0  0  0  0  0  0  0  0  0  0
   60.0330   35.4370   46.1120 N   0  0  0  0  0  0  0  0  0  0  0  0
   59.2940   34.9410   47.2900 C   0  0  0  0  0  0  0  0  0  0  0  0
   58.2580   33.8400   46.9720 C   0  0  0  0  0  0  0  0  0  0  0  0
   61.5872   31.7324   48.2866 H   0  0  0  0  0  0  0  0  0  0  0  0
   61.5958   30.8075   46.7467 H   0  0  0  0  0  0  0  0  0  0  0  0
   61.1509   32.5478   46.7467 H   0  0  0  0  0  0  0  0  0  0  0  0
   59.0044   28.6961   47.0533 H   0  0  0  0  0  0  0  0  0  0  0  0
   56.2293   27.2466   47.1978 H   0  0  0  0  0  0  0  0  0  0  0  0
   56.0253   24.7158   46.6097 H   0  0  0  0  0  0  0  0  0  0  0  0
   55.5428   24.0075   42.8104 H   0  0  0  0  0  0  0  0  0  0  0  0
   55.7726   21.7168   41.8331 H   0  0  0  0  0  0  0  0  0  0  0  0
   57.5979   20.2023   42.6247 H   0  0  0  0  0  0  0  0  0  0  0  0
   59.1764   21.0024   44.3925 H   0  0  0  0  0  0  0  0  0  0  0  0
   55.2483   29.1088   43.7772 H   0  0  0  0  0  0  0  0  0  0  0  0
   55.9430   30.4004   42.7400 H   0  0  0  0  0  0  0  0  0  0  0  0
   56.6725   28.7589   42.7400 H   0  0  0  0  0  0  0  0  0  0  0  0
   56.9466   32.0270   43.9590 H   0  0  0  0  0  0  0  0  0  0  0  0
   59.8823   33.4237   44.1017 H   0  0  0  0  0  0  0  0  0  0  0  0
   58.1424   33.8189   43.8230 H   0  0  0  0  0  0  0  0  0  0  0  0
   59.8104   35.8017   44.0515 H   0  0  0  0  0  0  0  0  0  0  0  0
   58.2900   35.8582   45.0165 H   0  0  0  0  0  0  0  0  0  0  0  0
   60.9070   34.8710   45.9980 H   0  0  0  0  0  0  0  0  0  0  0  0
   60.0218   34.5328   48.0067 H   0  0  0  0  0  0  0  0  0  0  0  0
   58.7317   35.7964   47.6928 H   0  0  0  0  0  0  0  0  0  0  0  0
   58.2242   33.1275   47.8094 H   0  0  0  0  0  0  0  0  0  0  0  0
   57.2779   34.3178   46.8269 H   0  0  0  0  0  0  0  0  0  0  0  0
  1  2  1  0
  2  3  1  0
  3  4  2  0
  4  5  1  0
  5  6  1  0
  6  7  2  0
  7  8  1  0
  8  9  2  0
  9 10  1  0
 10 11  2  0
 11 12  1  0
 12 13  2  0
 13 14  1  0
 14 15  2  0
  9 16  1  0
  5 17  2  0
 17 18  1  0
 17 19  1  0
 19 20  2  0
 20 21  1  0
 21 22  1  0
 22 23  1  0
 23 24  1  0
 24 25  1  0
 25 26  1  0
 20  3  1  0
 26 21  1  0
 16  6  1  0
 15 10  1  0
  1 27  1  0
  1 28  1  0
  1 29  1  0
  4 30  1  0
  7 31  1  0
  8 32  1  0
 11 33  1  0
 12 34  1  0
 13 35  1  0
 14 36  1  0
 18 37  1  0
 18 38  1  0
 18 39  1  0
 19 40  1  0
 22 41  1  0
 22 42  1  0
 23 43  1  0
 23 44  1  0
 24 45  1  0
 25 46  1  0
 25 47  1  0
 26 48  1  0
 26 49  1  0
M  END
>  <UniqueID>  (14) 
14

>  <SMILES>  (14) 
COc1cc(-c2ccc(-c3ccccn3)s2)c(C)cc1N1CCNCC1

>  <Energy>  (14) 
94.47308760650334

>  <Genealogy>  (14) 
COc1cc(-c2ccc(-c3ccccn3)s2)c(C)cc1N1CCNCC1 (3D coordinates assigned)
COc1cc(-c2ccc(-c3ccccn3)s2)c(C)cc1N1CCNCC1 (nonaromatic ring conformer: 94.47308760650334 kcal/mol)

>  <smiles>  (14) 
COc1cc(-c2ccc(-c3ccccn3)s2)c(C)cc1N1CCNCC1

>  <score_type>  (14) 
oracle

>  <origin>  (14) 
adg

>  <m_score__min__energy>  (14) 
-8.0600000000000005

>  <m_primary>  (14) 
energy

$$$$
14:0
     RDKit          3D

 21 21  0  0  0  0  0  0  0  0999 V2000
   59.1757   27.4721   44.4047 H   0  0  0  0  0  0  0  0  0  0  0  0
   58.3230   28.1550   44.2760 C   0  0  0  0  0  0  0  0  0  0  0  0
   57.3890   28.9030   44.1350 C   0  0  0  0  0  0  0  0  0  0  0  0
   56.2550   29.8190   43.9630 C   0  0  0  0  0  0  0  0  0  0  0  0
   55.9040   29.8780   42.6280 F   0  0  0  0  0  0  0  0  0  0  0  0
   55.1790   29.3160   44.6720 F   0  0  0  0  0  0  0  0  0  0  0  0
   56.5840   31.1960   44.4820 C   0  0  0  0  0  0  0  0  0  0  0  0
   55.8066   31.7178   45.0595 H   0  0  0  0  0  0  0  0  0  0  0  0
   57.7500   31.8370   44.2960 C   0  0  0  0  0  0  0  0  0  0  0  0
   58.3398   31.5828   43.4030 H   0  0  0  0  0  0  0  0  0  0  0  0
   58.2900   32.8580   45.2100 C   0  0  0  0  0  0  0  0  0  0  0  0
   58.1480   32.6910   46.5950 C   0  0  0  0  0  0  0  0  0  0  0  0
   57.6492   31.7941   46.9909 H   0  0  0  0  0  0  0  0  0  0  0  0
   58.6390   33.6620   47.4750 C   0  0  0  0  0  0  0  0  0  0  0  0
   58.5371   33.5220   48.5613 H   0  0  0  0  0  0  0  0  0  0  0  0
   59.2590   34.8100   46.9730 C   0  0  0  0  0  0  0  0  0  0  0  0
   59.6529   35.5688   47.6652 H   0  0  0  0  0  0  0  0  0  0  0  0
   59.3790   34.9950   45.5930 C   0  0  0  0  0  0  0  0  0  0  0  0
   59.8591   35.9032   45.1997 H   0  0  0  0  0  0  0  0  0  0  0  0
   58.8890   34.0260   44.7120 C   0  0  0  0  0  0  0  0  0  0  0  0
   58.9731   34.1792   43.6260 H   0  0  0  0  0  0  0  0  0  0  0  0
  1  2  1  0
  2  3  3  0
  3  4  1  0
  4  5  1  0
  4  6  1  0
  4  7  1  0
  7  8  1  0
  7  9  2  0
  9 10  1  0
  9 11  1  0
 11 12  2  0
 12 13  1  0
 12 14  1  0
 14 15  1  0
 14 16  2  0
 16 17  1  0
 16 18  1  0
 18 19  1  0
 18 20  2  0
 20 21  1  0
 20 11  1  0
M  END
>  <UniqueID>  (15) 
15

>  <SMILES>  (15) 
C#CC(F)(F)/C=C\c1ccccc1

>  <Energy>  (15) 
23.005258543174232

>  <Genealogy>  (15) 
C#CC(F)(F)/C=C\c1ccccc1 (cis-trans isomerization)
C#CC(F)(F)/C=C\c1ccccc1 (3D coordinates assigned)
C#CC(F)(F)/C=C\c1ccccc1 (optimized conformer: 23.005258543174232 kcal/mol)

>  <smiles>  (15) 
C#CC(F)(F)C=Cc1ccccc1

>  <score_type>  (15) 
oracle

>  <origin>  (15) 
adg

>  <m_score__min__energy>  (15) 
-5.1799999999999997

>  <m_primary>  (15) 
energy

$$$$
15:0
     RDKit          3D

 59 62  0  0  0  0  0  0  0  0999 V2000
   59.6420   28.2450   48.1520 C   0  0  0  0  0  0  0  0  0  0  0  0
   58.9200   29.5600   47.9030 C   0  0  0  0  0  0  0  0  0  0  0  0
   59.3580   30.1350   46.6700 O   0  0  0  0  0  0  0  0  0  0  0  0
   58.5150   30.2690   45.5570 C   0  0  0  0  0  0  0  0  0  0  0  0
   58.2540   29.1620   44.7090 C   0  0  0  0  0  0  0  0  0  0  0  0
   58.9950   27.8600   44.8390 C   0  0  0  0  0  0  0  0  0  0  0  0
   57.3040   29.2830   43.6860 C   0  0  0  0  0  0  0  0  0  0  0  0
   56.6690   30.4980   43.4500 C   0  0  0  0  0  0  0  0  0  0  0  0
   56.9970   31.6160   44.2110 C   0  0  0  0  0  0  0  0  0  0  0  0
   57.9300   31.5300   45.2600 C   0  0  0  0  0  0  0  0  0  0  0  0
   58.3430   32.8280   45.9490 C   0  0  1  0  0  0  0  0  0  0  0  0
   57.8330   33.0360   47.3770 C   0  0  0  0  0  0  0  0  0  0  0  0
   59.0400   33.5510   48.1690 C   0  0  0  0  0  0  0  0  0  0  0  0
   60.0890   33.8760   47.1880 N   0  0  1  0  0  0  0  0  0  0  0  0
   61.5070   33.9090   47.6510 C   0  0  0  0  0  0  0  0  0  0  0  0
   62.5010   32.8440   47.0860 C   0  0  2  0  0  0  0  0  0  0  0  0
   62.0340   31.4210   47.4780 C   0  0  0  0  0  0  0  0  0  0  0  0
   62.2550   31.1370   48.9430 C   0  0  0  0  0  0  0  0  0  0  0  0
   61.5480   30.2650   49.5150 O   0  0  0  0  0  0  0  0  0  0  0  0
   63.3220   31.8460   49.6870 C   0  0  0  0  0  0  0  0  0  0  0  0
   63.5310   31.6320   51.0570 C   0  0  0  0  0  0  0  0  0  0  0  0
   64.5210   32.3500   51.7330 C   0  0  0  0  0  0  0  0  0  0  0  0
   65.2960   33.2820   51.0330 C   0  0  0  0  0  0  0  0  0  0  0  0
   66.3740   34.0490   51.7290 C   0  0  0  0  0  0  0  0  0  0  0  0
   65.0900   33.4650   49.7020 N   0  0  0  0  0  0  0  0  0  0  0  0
   64.1240   32.7910   49.0200 C   0  0  0  0  0  0  0  0  0  0  0  0
   63.9650   33.0200   47.5440 C   0  0  0  0  0  0  0  0  0  0  0  0
   59.8560   33.0040   46.0310 C   0  0  0  0  0  0  0  0  0  0  0  0
   59.7344   28.0768   49.2351 H   0  0  0  0  0  0  0  0  0  0  0  0
   59.0697   27.4212   47.7005 H   0  0  0  0  0  0  0  0  0  0  0  0
   60.6442   28.2858   47.7005 H   0  0  0  0  0  0  0  0  0  0  0  0
   57.8365   29.3766   47.8543 H   0  0  0  0  0  0  0  0  0  0  0  0
   59.1453   30.2556   48.7248 H   0  0  0  0  0  0  0  0  0  0  0  0
   59.1313   27.6204   45.9039 H   0  0  0  0  0  0  0  0  0  0  0  0
   58.4173   27.0593   44.3541 H   0  0  0  0  0  0  0  0  0  0  0  0
   59.9784   27.9478   44.3541 H   0  0  0  0  0  0  0  0  0  0  0  0
   57.0582   28.4096   43.0641 H   0  0  0  0  0  0  0  0  0  0  0  0
   55.9066   30.5751   42.6608 H   0  0  0  0  0  0  0  0  0  0  0  0
   56.5193   32.5816   43.9888 H   0  0  0  0  0  0  0  0  0  0  0  0
   57.8645   33.5665   45.2890 H   0  0  0  0  0  0  0  0  0  0  0  0
   57.0192   33.7760   47.3911 H   0  0  0  0  0  0  0  0  0  0  0  0
   57.4279   32.1077   47.8061 H   0  0  0  0  0  0  0  0  0  0  0  0
   58.7629   34.4505   48.7383 H   0  0  0  0  0  0  0  0  0  0  0  0
   59.3922   32.7944   48.8856 H   0  0  0  0  0  0  0  0  0  0  0  0
   59.8780   34.8480   46.8510 H   0  0  0  0  0  0  0  0  0  0  0  0
   61.9102   34.8991   47.3919 H   0  0  0  0  0  0  0  0  0  0  0  0
   61.4451   33.6767   48.7244 H   0  0  0  0  0  0  0  0  0  0  0  0
   62.4886   32.9918   45.9960 H   0  0  0  0  0  0  0  0  0  0  0  0
   60.9609   31.3256   47.2557 H   0  0  0  0  0  0  0  0  0  0  0  0
   62.6263   30.6975   46.8986 H   0  0  0  0  0  0  0  0  0  0  0  0
   62.9157   30.8991   51.5994 H   0  0  0  0  0  0  0  0  0  0  0  0
   64.6900   32.1840   52.8072 H   0  0  0  0  0  0  0  0  0  0  0  0
   66.2450   33.9572   52.8175 H   0  0  0  0  0  0  0  0  0  0  0  0
   67.3558   33.6453   51.4408 H   0  0  0  0  0  0  0  0  0  0  0  0
   66.3144   35.1089   51.4408 H   0  0  0  0  0  0  0  0  0  0  0  0
   64.2910   34.0433   47.3062 H   0  0  0  0  0  0  0  0  0  0  0  0
   64.5781   32.2745   47.0164 H   0  0  0  0  0  0  0  0  0  0  0  0
   60.2384   33.4738   45.1128 H   0  0  0  0  0  0  0  0  0  0  0  0
   60.3731   32.0390   46.1376 H   0  0  0  0  0  0  0  0  0  0  0  0
  1  2  1  0
  2  3  1  0
  3  4  1  0
  4  5  2  0
  5  6  1  0
  5  7  1  0
  7  8  2  0
  8  9  1  0
  9 10  2  0
 10 11  1  0
 11 12  1  0
 12 13  1  0
 13 14  1  0
 14 15  1  0
 15 16  1  0
 16 17  1  0
 17 18  1  0
 18 19  2  0
 18 20  1  0
 20 21  2  0
 21 22  1  0
 22 23  2  0
 23 24  1  0
 23 25  1  0
 25 26  2  0
 26 27  1  0
 14 28  1  0
 10  4  1  0
 28 11  1  0
 27 16  1  0
 26 20  1  0
  1 29  1  0
  1 30  1  0
  1 31  1  0
  2 32  1  0
  2 33  1  0
  6 34  1  0
  6 35  1  0
  6 36  1  0
  7 37  1  0
  8 38  1  0
  9 39  1  0
 11 40  1  6
 12 41  1  0
 12 42  1  0
 13 43  1  0
 13 44  1  0
 14 45  1  6
 15 46  1  0
 15 47  1  0
 16 48  1  6
 17 49  1  0
 17 50  1  0
 21 51  1  0
 22 52  1  0
 24 53  1  0
 24 54  1  0
 24 55  1  0
 27 56  1  0
 27 57  1  0
 28 58  1  0
 28 59  1  0
M  CHG  1  14   1
M  END
>  <UniqueID>  (16) 
16

>  <SMILES>  (16) 
CCOc1c(C)cccc1[C@H]1CC[N@@H+](CC2CC(=O)c3ccc(C)nc3C2)C1

>  <Energy>  (16) 
79.55406363712628

>  <Genealogy>  (16) 
CCOc1c(C)cccc1C1CC[NH+](CC2CC(=O)c3ccc(C)nc3C2)C1 (protonated)
CCOc1c(C)cccc1[C@H]1CC[N@@H+](CC2CC(=O)c3ccc(C)nc3C2)C1 (chirality)
CCOc1c(C)cccc1[C@H]1CC[N@@H+](CC2CC(=O)c3ccc(C)nc3C2)C1 (3D coordinates assigned)
CCOc1c(C)cccc1[C@H]1CC[N@@H+](CC2CC(=O)c3ccc(C)nc3C2)C1 (nonaromatic ring conformer: 79.55406363712628 kcal/mol)

>  <smiles>  (16) 
CCOc1c(C)cccc1C1CCN(CC2CC(=O)c3ccc(C)nc3C2)C1

>  <score_type>  (16) 
oracle

>  <origin>  (16) 
adg

>  <m_score__min__energy>  (16) 
-7.96

>  <m_primary>  (16) 
energy

$$$$
16:0
     RDKit          3D

 42 43  0  0  0  0  0  0  0  0999 V2000
   56.5890   29.6970   42.9240 C   0  0  0  0  0  0  0  0  0  0  0  0
   55.8340   30.2320   44.1360 C   0  0  0  0  0  0  0  0  0  0  0  0
   55.8580   29.2840   45.2020 O   0  0  0  0  0  0  0  0  0  0  0  0
   57.0060   28.5770   45.5830 C   0  0  0  0  0  0  0  0  0  0  0  0
   57.0610   27.3260   45.4180 O   0  0  0  0  0  0  0  0  0  0  0  0
   58.1480   29.2970   46.1830 C   0  0  0  0  0  0  0  0  0  0  0  0
   58.5400   29.0300   47.5060 C   0  0  0  0  0  0  0  0  0  0  0  0
   59.6180   29.7100   48.0770 C   0  0  0  0  0  0  0  0  0  0  0  0
   60.3250   30.6740   47.3430 C   0  0  0  0  0  0  0  0  0  0  0  0
   61.4230   31.3650   47.9640 N   0  0  0  0  0  0  0  0  0  0  0  0
   62.0380   32.5690   47.3950 C   0  0  0  0  0  0  0  0  0  0  0  0
   61.5950   33.8390   48.1420 C   0  0  0  0  0  0  0  0  0  0  0  0
   60.0910   33.8610   48.4630 C   0  0  0  0  0  0  0  0  0  0  0  0
   59.2370   33.9740   47.2260 C   0  0  0  0  0  0  0  0  0  0  0  0
   57.9590   33.3920   47.1940 C   0  0  0  0  0  0  0  0  0  0  0  0
   57.1920   33.4450   46.0260 C   0  0  0  0  0  0  0  0  0  0  0  0
   57.6950   34.0720   44.8830 C   0  0  0  0  0  0  0  0  0  0  0  0
   58.9660   34.6510   44.9070 C   0  0  0  0  0  0  0  0  0  0  0  0
   59.7360   34.6050   46.0730 C   0  0  0  0  0  0  0  0  0  0  0  0
   59.9390   30.9400   46.0180 C   0  0  0  0  0  0  0  0  0  0  0  0
   58.8610   30.2580   45.4450 C   0  0  0  0  0  0  0  0  0  0  0  0
   57.4431   29.0918   43.2619 H   0  0  0  0  0  0  0  0  0  0  0  0
   55.9150   29.0738   42.3179 H   0  0  0  0  0  0  0  0  0  0  0  0
   56.9535   30.5395   42.3179 H   0  0  0  0  0  0  0  0  0  0  0  0
   56.3067   31.1664   44.4727 H   0  0  0  0  0  0  0  0  0  0  0  0
   54.7882   30.4161   43.8490 H   0  0  0  0  0  0  0  0  0  0  0  0
   57.9936   28.2797   48.0963 H   0  0  0  0  0  0  0  0  0  0  0  0
   59.9156   29.4875   49.1124 H   0  0  0  0  0  0  0  0  0  0  0  0
   61.7490   31.0230   48.8960 H   0  0  0  0  0  0  0  0  0  0  0  0
   63.1320   32.4776   47.4641 H   0  0  0  0  0  0  0  0  0  0  0  0
   61.7163   32.6568   46.3468 H   0  0  0  0  0  0  0  0  0  0  0  0
   62.1549   33.9018   49.0868 H   0  0  0  0  0  0  0  0  0  0  0  0
   61.8003   34.6944   47.4816 H   0  0  0  0  0  0  0  0  0  0  0  0
   59.8290   32.9308   48.9884 H   0  0  0  0  0  0  0  0  0  0  0  0
   59.8956   34.7467   49.0854 H   0  0  0  0  0  0  0  0  0  0  0  0
   57.5606   32.8933   48.0899 H   0  0  0  0  0  0  0  0  0  0  0  0
   56.1899   32.9918   46.0069 H   0  0  0  0  0  0  0  0  0  0  0  0
   57.0904   34.1096   43.9648 H   0  0  0  0  0  0  0  0  0  0  0  0
   59.3618   35.1440   44.0068 H   0  0  0  0  0  0  0  0  0  0  0  0
   60.7355   35.0640   46.0883 H   0  0  0  0  0  0  0  0  0  0  0  0
   60.4880   31.6889   45.4283 H   0  0  0  0  0  0  0  0  0  0  0  0
   58.5682   30.4755   44.4072 H   0  0  0  0  0  0  0  0  0  0  0  0
  1  2  1  0
  2  3  1  0
  3  4  1  0
  4  5  2  0
  4  6  1  0
  6  7  2  0
  7  8  1  0
  8  9  2  0
  9 10  1  0
 10 11  1  0
 11 12  1  0
 12 13  1  0
 13 14  1  0
 14 15  2  0
 15 16  1  0
 16 17  2  0
 17 18  1  0
 18 19  2  0
  9 20  1  0
 20 21  2  0
 21  6  1  0
 19 14  1  0
  1 22  1  0
  1 23  1  0
  1 24  1  0
  2 25  1  0
  2 26  1  0
  7 27  1  0
  8 28  1  0
 10 29  1  0
 11 30  1  0
 11 31  1  0
 12 32  1  0
 12 33  1  0
 13 34  1  0
 13 35  1  0
 15 36  1  0
 16 37  1  0
 17 38  1  0
 18 39  1  0
 19 40  1  0
 20 41  1  0
 21 42  1  0
M  END
>  <UniqueID>  (17) 
17

>  <SMILES>  (17) 
CCOC(=O)c1ccc(NCCCc2ccccc2)cc1

>  <Energy>  (17) 
33.448706669971735

>  <Genealogy>  (17) 
CCOC(=O)c1ccc(NCCCc2ccccc2)cc1 (3D coordinates assigned)
CCOC(=O)c1ccc(NCCCc2ccccc2)cc1 (optimized conformer: 33.448706669971735 kcal/mol)

>  <smiles>  (17) 
CCOC(=O)c1ccc(NCCCc2ccccc2)cc1

>  <score_type>  (17) 
oracle

>  <origin>  (17) 
adg

>  <m_score__min__energy>  (17) 
-6.5700000000000003

>  <m_primary>  (17) 
energy

$$$$
17:0
     RDKit          3D

 62 64  0  0  0  0  0  0  0  0999 V2000
   54.7610   23.7960   44.5420 C   0  0  0  0  0  0  0  0  0  0  0  0
   53.9570   24.7110   45.4510 C   0  0  0  0  0  0  0  0  0  0  0  0
   54.6650   25.9340   45.6410 O   0  0  0  0  0  0  0  0  0  0  0  0
   55.9730   26.0260   46.1380 C   0  0  0  0  0  0  0  0  0  0  0  0
   56.5150   25.0750   47.0220 C   0  0  0  0  0  0  0  0  0  0  0  0
   57.8220   25.2240   47.5010 C   0  0  0  0  0  0  0  0  0  0  0  0
   58.6110   26.3080   47.0990 C   0  0  0  0  0  0  0  0  0  0  0  0
   59.9100   26.4100   47.6220 O   0  0  0  0  0  0  0  0  0  0  0  0
   60.3400   27.3520   48.6070 C   0  0  0  0  0  0  0  0  0  0  0  0
   60.1500   28.7540   48.0970 C   0  0  0  0  0  0  0  0  0  0  0  0
   59.3690   29.6790   48.8090 C   0  0  0  0  0  0  0  0  0  0  0  0
   59.1660   30.9670   48.3040 C   0  0  0  0  0  0  0  0  0  0  0  0
   59.7550   31.3480   47.0910 C   0  0  0  0  0  0  0  0  0  0  0  0
   59.5740   32.7150   46.5700 C   0  0  0  0  0  0  0  0  0  0  0  0
   58.9170   32.8770   45.3400 C   0  0  0  0  0  0  0  0  0  0  0  0
   58.7650   34.1470   44.7810 C   0  0  0  0  0  0  0  0  0  0  0  0
   59.2720   35.2660   45.4420 C   0  0  0  0  0  0  0  0  0  0  0  0
   59.9270   35.1210   46.6660 C   0  0  0  0  0  0  0  0  0  0  0  0
   60.0800   33.8520   47.2530 C   0  0  0  0  0  0  0  0  0  0  0  0
   60.7690   33.7500   48.6060 C   0  0  0  0  0  0  0  0  0  0  0  0
   62.0410   32.9820   48.5500 N   0  0  2  0  0  0  0  0  0  0  0  0
   62.3540   32.4220   49.9010 C   0  0  0  0  0  0  0  0  0  0  0  0
   63.6490   31.6020   49.8990 C   0  0  0  0  0  0  0  0  0  0  0  0
   63.1480   33.8390   48.0490 C   0  0  0  0  0  0  0  0  0  0  0  0
   63.7620   33.3140   46.7440 C   0  0  0  0  0  0  0  0  0  0  0  0
   63.7310   31.9130   46.7470 O   0  0  0  0  0  0  0  0  0  0  0  0
   60.5250   30.4240   46.3720 C   0  0  0  0  0  0  0  0  0  0  0  0
   60.7120   29.1310   46.8670 C   0  0  0  0  0  0  0  0  0  0  0  0
   58.0670   27.2560   46.2130 C   0  0  0  0  0  0  0  0  0  0  0  0
   56.7610   27.1110   45.7380 C   0  0  0  0  0  0  0  0  0  0  0  0
   55.3644   23.1093   45.1539 H   0  0  0  0  0  0  0  0  0  0  0  0
   54.0756   23.2154   43.9071 H   0  0  0  0  0  0  0  0  0  0  0  0
   55.4249   24.4011   43.9071 H   0  0  0  0  0  0  0  0  0  0  0  0
   52.9806   24.9204   44.9896 H   0  0  0  0  0  0  0  0  0  0  0  0
   53.8053   24.2203   46.4237 H   0  0  0  0  0  0  0  0  0  0  0  0
   55.9102   24.2121   47.3376 H   0  0  0  0  0  0  0  0  0  0  0  0
   58.2332   24.4814   48.2006 H   0  0  0  0  0  0  0  0  0  0  0  0
   59.7487   27.2150   49.5244 H   0  0  0  0  0  0  0  0  0  0  0  0
   61.4063   27.1878   48.8218 H   0  0  0  0  0  0  0  0  0  0  0  0
   58.9150   29.3890   49.7681 H   0  0  0  0  0  0  0  0  0  0  0  0
   58.5426   31.6826   48.8601 H   0  0  0  0  0  0  0  0  0  0  0  0
   58.5193   31.9971   44.8131 H   0  0  0  0  0  0  0  0  0  0  0  0
   58.2452   34.2655   43.8188 H   0  0  0  0  0  0  0  0  0  0  0  0
   59.1553   36.2653   44.9974 H   0  0  0  0  0  0  0  0  0  0  0  0
   60.3279   36.0088   47.1771 H   0  0  0  0  0  0  0  0  0  0  0  0
   60.9878   34.7661   48.9662 H   0  0  0  0  0  0  0  0  0  0  0  0
   60.0886   33.2137   49.2838 H   0  0  0  0  0  0  0  0  0  0  0  0
   61.9030   32.1990   47.8660 H   0  0  0  0  0  0  0  0  0  0  0  0
   62.4616   33.2533   50.6134 H   0  0  0  0  0  0  0  0  0  0  0  0
   61.5298   31.7532   50.1899 H   0  0  0  0  0  0  0  0  0  0  0  0
   63.9599   31.4051   50.9356 H   0  0  0  0  0  0  0  0  0  0  0  0
   63.4777   30.6474   49.3800 H   0  0  0  0  0  0  0  0  0  0  0  0
   64.4387   32.1650   49.3800 H   0  0  0  0  0  0  0  0  0  0  0  0
   62.7559   34.8512   47.8708 H   0  0  0  0  0  0  0  0  0  0  0  0
   63.9401   33.8370   48.8123 H   0  0  0  0  0  0  0  0  0  0  0  0
   63.1840   33.6923   45.8880 H   0  0  0  0  0  0  0  0  0  0  0  0
   64.8034   33.6588   46.6625 H   0  0  0  0  0  0  0  0  0  0  0  0
   64.6780   31.6190   46.7480 H   0  0  0  0  0  0  0  0  0  0  0  0
   60.9831   30.7173   45.4159 H   0  0  0  0  0  0  0  0  0  0  0  0
   61.3028   28.4044   46.2899 H   0  0  0  0  0  0  0  0  0  0  0  0
   58.6732   28.1161   45.8925 H   0  0  0  0  0  0  0  0  0  0  0  0
   56.3483   27.8570   45.0429 H   0  0  0  0  0  0  0  0  0  0  0  0
  1  2  1  0
  2  3  1  0
  3  4  1  0
  4  5  2  0
  5  6  1  0
  6  7  2  0
  7  8  1  0
  8  9  1  0
  9 10  1  0
 10 11  2  0
 11 12  1  0
 12 13  2  0
 13 14  1  0
 14 15  2  0
 15 16  1  0
 16 17  2  0
 17 18  1  0
 18 19  2  0
 19 20  1  0
 20 21  1  0
 21 22  1  0
 22 23  1  0
 21 24  1  0
 24 25  1  0
 25 26  1  0
 13 27  1  0
 27 28  2  0
  7 29  1  0
 29 30  2  0
 30  4  1  0
 28 10  1  0
 19 14  1  0
  1 31  1  0
  1 32  1  0
  1 33  1  0
  2 34  1  0
  2 35  1  0
  5 36  1  0
  6 37  1  0
  9 38  1  0
  9 39  1  0
 11 40  1  0
 12 41  1  0
 15 42  1  0
 16 43  1  0
 17 44  1  0
 18 45  1  0
 20 46  1  0
 20 47  1  0
 21 48  1  6
 22 49  1  0
 22 50  1  0
 23 51  1  0
 23 52  1  0
 23 53  1  0
 24 54  1  0
 24 55  1  0
 25 56  1  0
 25 57  1  0
 26 58  1  0
 27 59  1  0
 28 60  1  0
 29 61  1  0
 30 62  1  0
M  CHG  1  21   1
M  END
>  <UniqueID>  (18) 
18

>  <SMILES>  (18) 
CCOc1ccc(OCc2ccc(-c3ccccc3C[N@H+](CC)CCO)cc2)cc1

>  <Energy>  (18) 
72.77389570531024

>  <Genealogy>  (18) 
CCOc1ccc(OCc2ccc(-c3ccccc3C[NH+](CC)CCO)cc2)cc1 (protonated)
CCOc1ccc(OCc2ccc(-c3ccccc3C[N@H+](CC)CCO)cc2)cc1 (chirality)
CCOc1ccc(OCc2ccc(-c3ccccc3C[N@H+](CC)CCO)cc2)cc1 (3D coordinates assigned)
CCOc1ccc(OCc2ccc(-c3ccccc3C[N@H+](CC)CCO)cc2)cc1 (optimized conformer: 72.77389570531024 kcal/mol)

>  <smiles>  (18) 
CCOc1ccc(OCc2ccc(-c3ccccc3CN(CC)CCO)cc2)cc1

>  <score_type>  (18) 
oracle

>  <origin>  (18) 
adg

>  <m_score__min__energy>  (18) 
-6.54

>  <m_primary>  (18) 
energy

$$$$
18:0
     RDKit          3D

 47 49  0  0  0  0  0  0  0  0999 V2000
   56.3050   29.7260   42.6160 C   0  0  0  0  0  0  0  0  0  0  0  0
   56.9410   29.2850   43.9310 C   0  0  0  0  0  0  0  0  0  0  0  0
   56.6620   30.2250   44.9690 O   0  0  0  0  0  0  0  0  0  0  0  0
   57.4430   31.3490   45.2920 C   0  0  0  0  0  0  0  0  0  0  0  0
   57.1170   32.6480   44.8530 C   0  0  0  0  0  0  0  0  0  0  0  0
   57.9230   33.7360   45.1990 C   0  0  0  0  0  0  0  0  0  0  0  0
   57.5930   34.9740   44.7500 F   0  0  0  0  0  0  0  0  0  0  0  0
   59.0660   33.5460   45.9950 C   0  0  0  0  0  0  0  0  0  0  0  0
   59.9610   34.7070   46.3440 C   0  0  0  0  0  0  0  0  0  0  0  0
   60.4520   34.5930   47.7880 C   0  0  0  0  0  0  0  0  0  0  0  0
   61.7530   33.9280   47.8240 N   0  0  0  0  0  0  0  0  0  0  0  0
   62.5470   33.6400   46.7690 C   0  0  0  0  0  0  0  0  0  0  0  0
   63.6670   32.9650   47.1210 N   0  0  0  0  0  0  0  0  0  0  0  0
   63.5510   32.8400   48.4590 C   0  0  0  0  0  0  0  0  0  0  0  0
   62.3800   33.3920   48.8840 C   0  0  0  0  0  0  0  0  0  0  0  0
   61.9640   33.4520   50.3200 C   0  0  0  0  0  0  0  0  0  0  0  0
   62.8090   32.4620   51.1570 C   0  0  0  0  0  0  0  0  0  0  0  0
   64.2520   32.4490   50.7930 N   0  0  2  0  0  0  0  0  0  0  0  0
   64.9060   33.6940   51.1650 C   0  0  0  0  0  0  0  0  0  0  0  0
   66.3970   33.8520   51.0540 C   0  0  0  0  0  0  0  0  0  0  0  0
   64.2500   34.6430   51.5710 O   0  0  0  0  0  0  0  0  0  0  0  0
   64.4890   32.1050   49.3650 C   0  0  0  0  0  0  0  0  0  0  0  0
   59.4000   32.2510   46.4160 C   0  0  0  0  0  0  0  0  0  0  0  0
   58.5940   31.1620   46.0720 C   0  0  0  0  0  0  0  0  0  0  0  0
   59.0420   29.5560   46.6270 Cl  0  0  0  0  0  0  0  0  0  0  0  0
   55.4177   30.3413   42.8260 H   0  0  0  0  0  0  0  0  0  0  0  0
   57.0312   30.3154   42.0370 H   0  0  0  0  0  0  0  0  0  0  0  0
   56.0076   28.8393   42.0370 H   0  0  0  0  0  0  0  0  0  0  0  0
   56.5364   28.3025   44.2157 H   0  0  0  0  0  0  0  0  0  0  0  0
   58.0307   29.2248   43.7931 H   0  0  0  0  0  0  0  0  0  0  0  0
   56.2219   32.8066   44.2337 H   0  0  0  0  0  0  0  0  0  0  0  0
   60.8278   34.7117   45.6667 H   0  0  0  0  0  0  0  0  0  0  0  0
   59.3891   35.6405   46.2365 H   0  0  0  0  0  0  0  0  0  0  0  0
   60.5457   35.5998   48.2212 H   0  0  0  0  0  0  0  0  0  0  0  0
   59.7288   34.0019   48.3690 H   0  0  0  0  0  0  0  0  0  0  0  0
   62.3086   33.9240   45.7334 H   0  0  0  0  0  0  0  0  0  0  0  0
   62.1154   34.4728   50.7009 H   0  0  0  0  0  0  0  0  0  0  0  0
   60.9017   33.1779   50.4002 H   0  0  0  0  0  0  0  0  0  0  0  0
   62.7211   32.7410   52.2174 H   0  0  0  0  0  0  0  0  0  0  0  0
   62.4176   31.4543   50.9536 H   0  0  0  0  0  0  0  0  0  0  0  0
   64.6860   31.6770   51.3520 H   0  0  0  0  0  0  0  0  0  0  0  0
   66.8368   33.8986   52.0612 H   0  0  0  0  0  0  0  0  0  0  0  0
   66.8172   32.9934   50.5098 H   0  0  0  0  0  0  0  0  0  0  0  0
   66.6279   34.7796   50.5098 H   0  0  0  0  0  0  0  0  0  0  0  0
   65.5230   32.3711   49.1004 H   0  0  0  0  0  0  0  0  0  0  0  0
   64.3165   31.0261   49.2374 H   0  0  0  0  0  0  0  0  0  0  0  0
   60.3039   32.0906   47.0221 H   0  0  0  0  0  0  0  0  0  0  0  0
  1  2  1  0
  2  3  1  0
  3  4  1  0
  4  5  2  0
  5  6  1  0
  6  7  1  0
  6  8  2  0
  8  9  1  0
  9 10  1  0
 10 11  1  0
 11 12  1  0
 12 13  2  0
 13 14  1  0
 14 15  2  0
 15 16  1  0
 16 17  1  0
 17 18  1  0
 18 19  1  0
 19 20  1  0
 19 21  2  0
 18 22  1  0
  8 23  1  0
 23 24  2  0
 24 25  1  0
 24  4  1  0
 15 11  1  0
 22 14  1  0
  1 26  1  0
  1 27  1  0
  1 28  1  0
  2 29  1  0
  2 30  1  0
  5 31  1  0
  9 32  1  0
  9 33  1  0
 10 34  1  0
 10 35  1  0
 12 36  1  0
 16 37  1  0
 16 38  1  0
 17 39  1  0
 17 40  1  0
 18 41  1  1
 20 42  1  0
 20 43  1  0
 20 44  1  0
 22 45  1  0
 22 46  1  0
 23 47  1  0
M  CHG  1  18   1
M  END
>  <UniqueID>  (19) 
19

>  <SMILES>  (19) 
CCOc1cc(F)c(CCn2cnc3c2CC[N@H+](C(C)=O)C3)cc1Cl

>  <Energy>  (19) 
78.49215543966382

>  <Genealogy>  (19) 
CCOc1cc(F)c(CCn2cnc3c2CC[NH+](C(C)=O)C3)cc1Cl (protonated)
CCOc1cc(F)c(CCn2cnc3c2CC[N@H+](C(C)=O)C3)cc1Cl (chirality)
CCOc1cc(F)c(CCn2cnc3c2CC[N@H+](C(C)=O)C3)cc1Cl (3D coordinates assigned)
CCOc1cc(F)c(CCn2cnc3c2CC[N@H+](C(C)=O)C3)cc1Cl (nonaromatic ring conformer: 78.49215543966382 kcal/mol)

>  <smiles>  (19) 
CCOc1cc(F)c(CCn2cnc3c2CCN(C(C)=O)C3)cc1Cl

>  <score_type>  (19) 
oracle

>  <origin>  (19) 
adg

>  <m_score__min__energy>  (19) 
-6.2999999999999998

>  <m_primary>  (19) 
energy

$$$$
19:0
     RDKit          3D

 41 43  0  0  0  0  0  0  0  0999 V2000
   55.7210   29.7270   43.4680 C   0  0  0  0  0  0  0  0  0  0  0  0
   55.8750   29.7540   44.8840 O   0  0  0  0  0  0  0  0  0  0  0  0
   57.0270   29.3380   45.5700 C   0  0  0  0  0  0  0  0  0  0  0  0
   58.0730   30.2270   45.8700 C   0  0  0  0  0  0  0  0  0  0  0  0
   59.2080   29.7890   46.5610 C   0  0  0  0  0  0  0  0  0  0  0  0
   60.3120   30.7260   46.8750 C   0  0  0  0  0  0  0  0  0  0  0  0
   61.3670   30.3900   47.6590 N   0  0  0  0  0  0  0  0  0  0  0  0
   62.1140   31.5020   47.6930 C   0  0  0  0  0  0  0  0  0  0  0  0
   63.2840   31.6640   48.3570 N   0  0  0  0  0  0  0  0  0  0  0  0
   63.9170   32.8730   48.2940 C   0  0  0  0  0  0  0  0  0  0  0  0
   63.3590   33.9350   47.5480 C   0  0  0  0  0  0  0  0  0  0  0  0
   62.1440   33.7520   46.8640 C   0  0  0  0  0  0  0  0  0  0  0  0
   61.5320   32.4960   46.9580 C   0  0  0  0  0  0  0  0  0  0  0  0
   60.3800   32.0110   46.4310 N   0  0  0  0  0  0  0  0  0  0  0  0
   59.3870   32.6370   45.6910 O   0  0  0  0  0  0  0  0  0  0  0  0
   58.5900   33.7140   46.1570 C   0  0  0  0  0  0  0  0  0  0  0  0
   59.3050   28.4430   46.9330 C   0  0  0  0  0  0  0  0  0  0  0  0
   58.2710   27.5310   46.6430 C   0  0  0  0  0  0  0  0  0  0  0  0
   58.3710   26.1850   47.0260 O   0  0  0  0  0  0  0  0  0  0  0  0
   59.1000   25.1850   46.3200 C   0  0  0  0  0  0  0  0  0  0  0  0
   57.1180   27.9890   45.9550 C   0  0  0  0  0  0  0  0  0  0  0  0
   56.0270   27.1630   45.6200 O   0  0  0  0  0  0  0  0  0  0  0  0
   55.8690   25.7890   45.9550 C   0  0  0  0  0  0  0  0  0  0  0  0
   54.6660   29.5420   43.2174 H   0  0  0  0  0  0  0  0  0  0  0  0
   56.0339   30.6937   43.0466 H   0  0  0  0  0  0  0  0  0  0  0  0
   56.3441   28.9244   43.0466 H   0  0  0  0  0  0  0  0  0  0  0  0
   57.9987   31.2792   45.5580 H   0  0  0  0  0  0  0  0  0  0  0  0
   61.5680   29.4750   48.1210 H   0  0  0  0  0  0  0  0  0  0  0  0
   64.8675   33.0205   48.8277 H   0  0  0  0  0  0  0  0  0  0  0  0
   63.8751   34.9054   47.5022 H   0  0  0  0  0  0  0  0  0  0  0  0
   61.6914   34.5649   46.2772 H   0  0  0  0  0  0  0  0  0  0  0  0
   58.5867   33.7185   47.2570 H   0  0  0  0  0  0  0  0  0  0  0  0
   59.0046   34.6636   45.7877 H   0  0  0  0  0  0  0  0  0  0  0  0
   57.5607   33.5950   45.7877 H   0  0  0  0  0  0  0  0  0  0  0  0
   60.2038   28.0914   47.4607 H   0  0  0  0  0  0  0  0  0  0  0  0
   59.5903   24.5124   47.0391 H   0  0  0  0  0  0  0  0  0  0  0  0
   58.4105   24.6062   45.6879 H   0  0  0  0  0  0  0  0  0  0  0  0
   59.8620   25.6644   45.6879 H   0  0  0  0  0  0  0  0  0  0  0  0
   55.8562   25.6775   47.0493 H   0  0  0  0  0  0  0  0  0  0  0  0
   54.9221   25.4163   45.5373 H   0  0  0  0  0  0  0  0  0  0  0  0
   56.7066   25.2111   45.5373 H   0  0  0  0  0  0  0  0  0  0  0  0
  1  2  1  0
  2  3  1  0
  3  4  2  0
  4  5  1  0
  5  6  1  0
  6  7  2  0
  7  8  1  0
  8  9  2  0
  9 10  1  0
 10 11  2  0
 11 12  1  0
 12 13  2  0
 13 14  1  0
 14 15  1  0
 15 16  1  0
  5 17  2  0
 17 18  1  0
 18 19  1  0
 19 20  1  0
 18 21  2  0
 21 22  1  0
 22 23  1  0
 21  3  1  0
 14  6  1  0
 13  8  1  0
  1 24  1  0
  1 25  1  0
  1 26  1  0
  4 27  1  0
  7 28  1  0
 10 29  1  0
 11 30  1  0
 12 31  1  0
 16 32  1  0
 16 33  1  0
 16 34  1  0
 17 35  1  0
 20 36  1  0
 20 37  1  0
 20 38  1  0
 23 39  1  0
 23 40  1  0
 23 41  1  0
M  CHG  1   7   1
M  END
>  <UniqueID>  (20) 
20

>  <SMILES>  (20) 
COc1cc(-c2[nH+]c3ncccc3n2OC)cc(OC)c1OC

>  <Energy>  (20) 
92.81737056304921

>  <Genealogy>  (20) 
COc1cc(-c2[nH+]c3ncccc3n2OC)cc(OC)c1OC (protonated)
COc1cc(-c2[nH+]c3ncccc3n2OC)cc(OC)c1OC (3D coordinates assigned)
COc1cc(-c2[nH+]c3ncccc3n2OC)cc(OC)c1OC (optimized conformer: 92.81737056304921 kcal/mol)

>  <smiles>  (20) 
COc1cc(-c2nc3ncccc3n2OC)cc(OC)c1OC

>  <score_type>  (20) 
oracle

>  <origin>  (20) 
adg

>  <m_score__min__energy>  (20) 
-5.0099999999999998

>  <m_primary>  (20) 
energy

$$$$
20:0
     RDKit          3D

 58 60  0  0  0  0  0  0  0  0999 V2000
   60.5370   29.5160   48.1400 C   0  0  0  0  0  0  0  0  0  0  0  0
   61.4950   30.1710   48.9660 O   0  0  0  0  0  0  0  0  0  0  0  0
   62.3000   31.2470   48.5550 C   0  0  0  0  0  0  0  0  0  0  0  0
   62.0460   31.9410   47.3540 C   0  0  0  0  0  0  0  0  0  0  0  0
   62.8600   33.0060   46.9650 C   0  0  0  0  0  0  0  0  0  0  0  0
   63.9340   33.3950   47.7640 C   0  0  0  0  0  0  0  0  0  0  0  0
   64.1990   32.7180   48.9540 C   0  0  0  0  0  0  0  0  0  0  0  0
   63.3890   31.6450   49.3640 C   0  0  0  0  0  0  0  0  0  0  0  0
   63.7310   30.9200   50.6480 C   0  0  0  0  0  0  0  0  0  0  0  0
   62.7670   31.3000   51.7910 C   0  0  0  0  0  0  0  0  0  0  0  0
   61.3950   30.8040   51.5570 N   0  0  0  0  0  0  0  0  0  0  0  0
   60.3820   31.8370   51.8450 C   0  0  0  0  0  0  0  0  0  0  0  0
   60.0200   32.6000   50.5860 C   0  0  0  0  0  0  0  0  0  0  0  0
   58.9020   32.1740   49.8500 C   0  0  0  0  0  0  0  0  0  0  0  0
   58.5410   32.8120   48.6630 C   0  0  0  0  0  0  0  0  0  0  0  0
   59.2940   33.8960   48.1840 C   0  0  0  0  0  0  0  0  0  0  0  0
   58.9750   34.5740   46.9970 O   0  0  0  0  0  0  0  0  0  0  0  0
   59.4370   34.2200   45.6930 C   0  0  0  0  0  0  0  0  0  0  0  0
   58.7580   32.9680   45.2060 C   0  0  0  0  0  0  0  0  0  0  0  0
   58.9370   31.7500   45.8790 C   0  0  0  0  0  0  0  0  0  0  0  0
   58.3170   30.5870   45.4130 C   0  0  0  0  0  0  0  0  0  0  0  0
   57.4990   30.6240   44.2700 C   0  0  0  0  0  0  0  0  0  0  0  0
   56.8700   29.3630   43.7340 C   0  0  0  0  0  0  0  0  0  0  0  0
   56.4400   29.5510   42.4320 F   0  0  0  0  0  0  0  0  0  0  0  0
   57.8030   28.3430   43.7580 F   0  0  0  0  0  0  0  0  0  0  0  0
   55.7780   28.9930   44.5000 F   0  0  0  0  0  0  0  0  0  0  0  0
   57.3530   31.8370   43.5770 C   0  0  0  0  0  0  0  0  0  0  0  0
   57.9740   32.9990   44.0440 C   0  0  0  0  0  0  0  0  0  0  0  0
   60.4100   34.3250   48.9090 C   0  0  0  0  0  0  0  0  0  0  0  0
   60.7910   33.6880   50.1030 C   0  0  0  0  0  0  0  0  0  0  0  0
   61.9840   34.2160   50.8580 C   0  0  0  0  0  0  0  0  0  0  0  0
   59.7940   29.0080   48.7723 H   0  0  0  0  0  0  0  0  0  0  0  0
   60.0317   30.2585   47.5049 H   0  0  0  0  0  0  0  0  0  0  0  0
   61.0455   28.7757   47.5049 H   0  0  0  0  0  0  0  0  0  0  0  0
   61.1997   31.6407   46.7187 H   0  0  0  0  0  0  0  0  0  0  0  0
   62.6535   33.5397   46.0256 H   0  0  0  0  0  0  0  0  0  0  0  0
   64.5725   34.2360   47.4558 H   0  0  0  0  0  0  0  0  0  0  0  0
   65.0505   33.0268   49.5781 H   0  0  0  0  0  0  0  0  0  0  0  0
   63.6672   29.8358   50.4733 H   0  0  0  0  0  0  0  0  0  0  0  0
   64.7489   31.2116   50.9462 H   0  0  0  0  0  0  0  0  0  0  0  0
   63.1439   30.8678   52.7297 H   0  0  0  0  0  0  0  0  0  0  0  0
   62.7232   32.3979   51.8426 H   0  0  0  0  0  0  0  0  0  0  0  0
   61.2250   29.9910   52.1940 H   0  0  0  0  0  0  0  0  0  0  0  0
   61.2940   30.4560   50.5750 H   0  0  0  0  0  0  0  0  0  0  0  0
   59.4788   31.3546   52.2469 H   0  0  0  0  0  0  0  0  0  0  0  0
   60.7968   32.5434   52.5791 H   0  0  0  0  0  0  0  0  0  0  0  0
   58.3033   31.3262   50.2143 H   0  0  0  0  0  0  0  0  0  0  0  0
   57.6625   32.4642   48.0998 H   0  0  0  0  0  0  0  0  0  0  0  0
   59.2175   35.0431   44.9971 H   0  0  0  0  0  0  0  0  0  0  0  0
   60.5206   34.0371   45.7409 H   0  0  0  0  0  0  0  0  0  0  0  0
   59.5689   31.7100   46.7785 H   0  0  0  0  0  0  0  0  0  0  0  0
   58.4702   29.6361   45.9443 H   0  0  0  0  0  0  0  0  0  0  0  0
   56.7458   31.8728   42.6605 H   0  0  0  0  0  0  0  0  0  0  0  0
   57.8467   33.9443   43.4961 H   0  0  0  0  0  0  0  0  0  0  0  0
   61.0004   35.1760   48.5386 H   0  0  0  0  0  0  0  0  0  0  0  0
   61.7992   34.1342   51.9393 H   0  0  0  0  0  0  0  0  0  0  0  0
   62.8752   33.6283   50.5929 H   0  0  0  0  0  0  0  0  0  0  0  0
   62.1482   35.2709   50.5929 H   0  0  0  0  0  0  0  0  0  0  0  0
  1  2  1  0
  2  3  1  0
  3  4  2  0
  4  5  1  0
  5  6  2  0
  6  7  1  0
  7  8  2  0
  8  9  1  0
  9 10  1  0
 10 11  1  0
 11 12  1  0
 12 13  1  0
 13 14  2  0
 14 15  1  0
 15 16  2  0
 16 17  1  0
 17 18  1  0
 18 19  1  0
 19 20  2  0
 20 21  1  0
 21 22  2  0
 22 23  1  0
 23 24  1  0
 23 25  1  0
 23 26  1  0
 22 27  1  0
 27 28  2  0
 16 29  1  0
 29 30  2  0
 30 31  1  0
  8  3  1  0
 30 13  1  0
 28 19  1  0
  1 32  1  0
  1 33  1  0
  1 34  1  0
  4 35  1  0
  5 36  1  0
  6 37  1  0
  7 38  1  0
  9 39  1  0
  9 40  1  0
 10 41  1  0
 10 42  1  0
 11 43  1  0
 11 44  1  0
 12 45  1  0
 12 46  1  0
 14 47  1  0
 15 48  1  0
 18 49  1  0
 18 50  1  0
 20 51  1  0
 21 52  1  0
 27 53  1  0
 28 54  1  0
 29 55  1  0
 31 56  1  0
 31 57  1  0
 31 58  1  0
M  CHG  1  11   1
M  END
>  <UniqueID>  (21) 
21

>  <SMILES>  (21) 
COc1ccccc1CC[NH2+]Cc1ccc(OCc2ccc(C(F)(F)F)cc2)cc1C

>  <Energy>  (21) 
59.954201167171775

>  <Genealogy>  (21) 
COc1ccccc1CC[NH2+]Cc1ccc(OCc2ccc(C(F)(F)F)cc2)cc1C (protonated)
COc1ccccc1CC[NH2+]Cc1ccc(OCc2ccc(C(F)(F)F)cc2)cc1C (3D coordinates assigned)
COc1ccccc1CC[NH2+]Cc1ccc(OCc2ccc(C(F)(F)F)cc2)cc1C (optimized conformer: 59.954201167171775 kcal/mol)

>  <smiles>  (21) 
COc1ccccc1CCNCc1ccc(OCc2ccc(C(F)(F)F)cc2)cc1C

>  <score_type>  (21) 
oracle

>  <origin>  (21) 
adg

>  <m_score__min__energy>  (21) 
-6.04

>  <m_primary>  (21) 
energy

$$$$
21:0
     RDKit          3D

 39 40  0  0  0  0  0  0  0  0999 V2000
   59.2520   33.1390   51.3200 C   0  0  0  0  0  0  0  0  0  0  0  0
   58.5190   32.1740   50.4870 N   0  0  0  0  0  0  0  0  0  0  0  0
   57.4210   31.5810   51.2700 C   0  0  0  0  0  0  0  0  0  0  0  0
   59.4400   31.1300   49.9840 C   0  0  0  0  0  0  0  0  0  0  0  0
   59.3180   30.9650   48.4620 C   0  0  0  0  0  0  0  0  0  0  0  0
   58.4800   32.0180   47.8800 N   0  0  0  0  0  0  0  0  0  0  0  0
   58.3350   32.2530   46.4630 C   0  0  0  0  0  0  0  0  0  0  0  0
   57.9930   31.2010   45.5890 C   0  0  0  0  0  0  0  0  0  0  0  0
   57.8880   31.4220   44.2150 C   0  0  0  0  0  0  0  0  0  0  0  0
   58.1230   32.6920   43.6890 C   0  0  0  0  0  0  0  0  0  0  0  0
   58.4510   33.7480   44.5390 C   0  0  0  0  0  0  0  0  0  0  0  0
   58.5420   33.5450   45.9230 C   0  0  0  0  0  0  0  0  0  0  0  0
   58.9670   34.9550   46.9610 S   0  0  0  0  0  0  0  0  0  0  0  0
   60.5750   34.2850   47.3970 C   0  0  0  0  0  0  0  0  0  0  0  0
   60.9580   34.2110   48.7420 C   0  0  0  0  0  0  0  0  0  0  0  0
   62.2080   33.6880   49.0890 C   0  0  0  0  0  0  0  0  0  0  0  0
   63.0820   33.2440   48.0910 C   0  0  0  0  0  0  0  0  0  0  0  0
   64.2940   32.7380   48.4260 F   0  0  0  0  0  0  0  0  0  0  0  0
   62.7070   33.3270   46.7460 C   0  0  0  0  0  0  0  0  0  0  0  0
   61.4570   33.8500   46.3980 C   0  0  0  0  0  0  0  0  0  0  0  0
   59.0794   32.9118   52.3824 H   0  0  0  0  0  0  0  0  0  0  0  0
   60.3277   33.0703   51.1004 H   0  0  0  0  0  0  0  0  0  0  0  0
   58.8972   34.1568   51.1004 H   0  0  0  0  0  0  0  0  0  0  0  0
   57.6327   31.6953   52.3434 H   0  0  0  0  0  0  0  0  0  0  0  0
   56.4784   32.0927   51.0256 H   0  0  0  0  0  0  0  0  0  0  0  0
   57.3320   30.5122   51.0256 H   0  0  0  0  0  0  0  0  0  0  0  0
   60.4734   31.4140   50.2320 H   0  0  0  0  0  0  0  0  0  0  0  0
   59.1745   30.1742   50.4594 H   0  0  0  0  0  0  0  0  0  0  0  0
   60.3213   31.0162   48.0140 H   0  0  0  0  0  0  0  0  0  0  0  0
   58.8494   29.9919   48.2536 H   0  0  0  0  0  0  0  0  0  0  0  0
   58.0310   32.6700   48.5580 H   0  0  0  0  0  0  0  0  0  0  0  0
   57.8070   30.1954   45.9943 H   0  0  0  0  0  0  0  0  0  0  0  0
   57.6191   30.5921   43.5450 H   0  0  0  0  0  0  0  0  0  0  0  0
   58.0497   32.8608   42.6045 H   0  0  0  0  0  0  0  0  0  0  0  0
   58.6397   34.7475   44.1202 H   0  0  0  0  0  0  0  0  0  0  0  0
   60.2741   34.5650   49.5275 H   0  0  0  0  0  0  0  0  0  0  0  0
   62.5038   33.6258   50.1467 H   0  0  0  0  0  0  0  0  0  0  0  0
   63.3956   32.9807   45.9612 H   0  0  0  0  0  0  0  0  0  0  0  0
   61.1660   33.9200   45.3395 H   0  0  0  0  0  0  0  0  0  0  0  0
  1  2  1  0
  2  3  1  0
  2  4  1  0
  4  5  1  0
  5  6  1  0
  6  7  1  0
  7  8  2  0
  8  9  1  0
  9 10  2  0
 10 11  1  0
 11 12  2  0
 12 13  1  0
 13 14  1  0
 14 15  2  0
 15 16  1  0
 16 17  2  0
 17 18  1  0
 17 19  1  0
 19 20  2  0
 12  7  1  0
 20 14  1  0
  1 21  1  0
  1 22  1  0
  1 23  1  0
  3 24  1  0
  3 25  1  0
  3 26  1  0
  4 27  1  0
  4 28  1  0
  5 29  1  0
  5 30  1  0
  6 31  1  0
  8 32  1  0
  9 33  1  0
 10 34  1  0
 11 35  1  0
 15 36  1  0
 16 37  1  0
 19 38  1  0
 20 39  1  0
M  END
>  <UniqueID>  (22) 
22

>  <SMILES>  (22) 
CN(C)CCNc1ccccc1Sc1ccc(F)cc1

>  <Energy>  (22) 
34.570492097261365

>  <Genealogy>  (22) 
CN(C)CCNc1ccccc1Sc1ccc(F)cc1 (3D coordinates assigned)
CN(C)CCNc1ccccc1Sc1ccc(F)cc1 (optimized conformer: 34.570492097261365 kcal/mol)

>  <smiles>  (22) 
CN(C)CCNc1ccccc1Sc1ccc(F)cc1

>  <score_type>  (22) 
oracle

>  <origin>  (22) 
adg

>  <m_score__min__energy>  (22) 
-5.7999999999999998

>  <m_primary>  (22) 
energy

$$$$
22:0
     RDKit          3D

 41 42  0  0  0  0  0  0  0  0999 V2000
   63.0090   33.6520   46.8610 C   0  0  0  0  0  0  0  0  0  0  0  0
   62.0210   33.8100   47.5320 C   0  0  0  0  0  0  0  0  0  0  0  0
   60.8120   34.0050   48.3520 C   0  0  0  0  0  0  0  0  0  0  0  0
   59.8750   32.8630   48.2300 N   0  0  1  0  0  0  0  0  0  0  0  0
   58.6720   33.2550   47.4420 C   0  0  0  0  0  0  0  0  0  0  0  0
   58.8300   32.9940   45.9330 C   0  0  0  0  0  0  0  0  0  0  0  0
   59.1770   31.5130   45.6200 C   0  0  2  0  0  0  0  0  0  0  0  0
   58.0350   30.7730   44.9350 C   0  0  0  0  0  0  0  0  0  0  0  0
   57.4600   29.6440   45.5510 C   0  0  0  0  0  0  0  0  0  0  0  0
   56.4210   28.9340   44.9420 C   0  0  0  0  0  0  0  0  0  0  0  0
   55.8910   27.8230   45.6150 O   0  0  0  0  0  0  0  0  0  0  0  0
   56.6480   26.6830   46.0070 C   0  0  0  0  0  0  0  0  0  0  0  0
   55.9480   29.3510   43.6890 C   0  0  0  0  0  0  0  0  0  0  0  0
   56.5140   30.4590   43.0570 C   0  0  0  0  0  0  0  0  0  0  0  0
   57.5610   31.1770   43.6640 C   0  0  0  0  0  0  0  0  0  0  0  0
   58.1490   32.2870   43.0320 O   0  0  0  0  0  0  0  0  0  0  0  0
   58.1370   32.5210   41.6270 C   0  0  0  0  0  0  0  0  0  0  0  0
   59.6480   30.7500   46.8720 C   0  0  0  0  0  0  0  0  0  0  0  0
   60.5680   31.6470   47.7080 C   0  0  0  0  0  0  0  0  0  0  0  0
   63.9111   33.5077   46.2483 H   0  0  0  0  0  0  0  0  0  0  0  0
   61.1095   34.1107   49.4057 H   0  0  0  0  0  0  0  0  0  0  0  0
   60.2979   34.9093   47.9942 H   0  0  0  0  0  0  0  0  0  0  0  0
   59.5320   32.6400   49.1960 H   0  0  0  0  0  0  0  0  0  0  0  0
   58.4876   34.3286   47.5946 H   0  0  0  0  0  0  0  0  0  0  0  0
   57.8318   32.6396   47.7961 H   0  0  0  0  0  0  0  0  0  0  0  0
   59.6363   33.6347   45.5465 H   0  0  0  0  0  0  0  0  0  0  0  0
   57.8675   33.2213   45.4514 H   0  0  0  0  0  0  0  0  0  0  0  0
   60.0161   31.5476   44.9095 H   0  0  0  0  0  0  0  0  0  0  0  0
   57.8361   29.3145   46.5308 H   0  0  0  0  0  0  0  0  0  0  0  0
   56.6850   26.6273   47.1050 H   0  0  0  0  0  0  0  0  0  0  0  0
   56.1738   25.7736   45.6095 H   0  0  0  0  0  0  0  0  0  0  0  0
   57.6702   26.7672   45.6095 H   0  0  0  0  0  0  0  0  0  0  0  0
   55.1278   28.8025   43.2027 H   0  0  0  0  0  0  0  0  0  0  0  0
   56.1373   30.7748   42.0729 H   0  0  0  0  0  0  0  0  0  0  0  0
   58.0815   33.6029   41.4359 H   0  0  0  0  0  0  0  0  0  0  0  0
   59.0571   32.1164   41.1800 H   0  0  0  0  0  0  0  0  0  0  0  0
   57.2631   32.0244   41.1800 H   0  0  0  0  0  0  0  0  0  0  0  0
   60.1973   29.8477   46.5652 H   0  0  0  0  0  0  0  0  0  0  0  0
   58.7734   30.4631   47.4743 H   0  0  0  0  0  0  0  0  0  0  0  0
   61.4125   31.9666   47.0797 H   0  0  0  0  0  0  0  0  0  0  0  0
   60.9032   31.0596   48.5755 H   0  0  0  0  0  0  0  0  0  0  0  0
  1  2  3  0
  2  3  1  0
  3  4  1  0
  4  5  1  0
  5  6  1  0
  6  7  1  0
  7  8  1  0
  8  9  2  0
  9 10  1  0
 10 11  1  0
 11 12  1  0
 10 13  2  0
 13 14  1  0
 14 15  2  0
 15 16  1  0
 16 17  1  0
  7 18  1  0
 18 19  1  0
 19  4  1  0
 15  8  1  0
  1 20  1  0
  3 21  1  0
  3 22  1  0
  4 23  1  1
  5 24  1  0
  5 25  1  0
  6 26  1  0
  6 27  1  0
  7 28  1  6
  9 29  1  0
 12 30  1  0
 12 31  1  0
 12 32  1  0
 13 33  1  0
 14 34  1  0
 17 35  1  0
 17 36  1  0
 17 37  1  0
 18 38  1  0
 18 39  1  0
 19 40  1  0
 19 41  1  0
M  CHG  1   4   1
M  END
>  <UniqueID>  (23) 
23

>  <SMILES>  (23) 
C#CC[NH+]1CCC(c2cc(OC)ccc2OC)CC1

>  <Energy>  (23) 
49.05931600990764

>  <Genealogy>  (23) 
C#CC[NH+]1CCC(c2cc(OC)ccc2OC)CC1 (protonated)
C#CC[NH+]1CCC(c2cc(OC)ccc2OC)CC1 (3D coordinates assigned)
C#CC[NH+]1CCC(c2cc(OC)ccc2OC)CC1 (nonaromatic ring conformer: 49.05931600990764 kcal/mol)

>  <smiles>  (23) 
C#CCN1CCC(c2cc(OC)ccc2OC)CC1

>  <score_type>  (23) 
oracle

>  <origin>  (23) 
adg

>  <m_score__min__energy>  (23) 
-4.5700000000000003

>  <m_primary>  (23) 
energy

$$$$
23:0
     RDKit          3D

 43 45  0  0  0  0  0  0  0  0999 V2000
   55.4770   29.7480   43.7580 C   0  0  0  0  0  0  0  0  0  0  0  0
   55.5680   28.9970   44.9640 O   0  0  0  0  0  0  0  0  0  0  0  0
   56.6320   28.1490   45.3070 C   0  0  0  0  0  0  0  0  0  0  0  0
   56.4040   26.9100   45.9400 C   0  0  0  0  0  0  0  0  0  0  0  0
   57.4730   26.0820   46.3110 C   0  0  0  0  0  0  0  0  0  0  0  0
   57.2480   24.7860   46.9840 C   0  0  0  0  0  0  0  0  0  0  0  0
   56.9780   24.6670   48.2600 O   0  0  0  0  0  0  0  0  0  0  0  0
   56.8520   23.3840   48.5170 C   0  0  0  0  0  0  0  0  0  0  0  0
   57.0450   22.6170   47.4240 N   0  0  0  0  0  0  0  0  0  0  0  0
   57.2940   23.5100   46.4480 C   0  0  0  0  0  0  0  0  0  0  0  0
   57.7860   22.9930   44.6730 Br  0  0  0  0  0  0  0  0  0  0  0  0
   58.7830   26.5200   46.0890 C   0  0  0  0  0  0  0  0  0  0  0  0
   59.0230   27.7400   45.4560 C   0  0  0  0  0  0  0  0  0  0  0  0
   57.9600   28.5520   45.0360 C   0  0  0  0  0  0  0  0  0  0  0  0
   58.2710   29.7920   44.3660 N   0  0  0  0  0  0  0  0  0  0  0  0
   58.6010   31.0540   45.0510 C   0  0  0  0  0  0  0  0  0  0  0  0
   57.7540   32.2030   44.4490 C   0  0  0  0  0  0  0  0  0  0  0  0
   58.3950   33.6130   44.4530 C   0  0  0  0  0  0  0  0  0  0  0  0
   58.7670   34.1640   45.8420 C   0  0  0  0  0  0  0  0  0  0  0  0
   58.1420   33.4210   47.0480 C   0  0  0  0  0  0  0  0  0  0  0  0
   58.8090   32.0910   47.4430 C   0  0  0  0  0  0  0  0  0  0  0  0
   58.3950   30.8910   46.5750 C   0  0  0  0  0  0  0  0  0  0  0  0
   55.3479   30.8136   43.9985 H   0  0  0  0  0  0  0  0  0  0  0  0
   56.3980   29.6134   43.1718 H   0  0  0  0  0  0  0  0  0  0  0  0
   54.6148   29.3973   43.1718 H   0  0  0  0  0  0  0  0  0  0  0  0
   55.3724   26.5882   46.1458 H   0  0  0  0  0  0  0  0  0  0  0  0
   56.6155   22.9806   49.5126 H   0  0  0  0  0  0  0  0  0  0  0  0
   59.6296   25.8983   46.4157 H   0  0  0  0  0  0  0  0  0  0  0  0
   60.0586   28.0687   45.2844 H   0  0  0  0  0  0  0  0  0  0  0  0
   58.0670   29.8290   43.3410 H   0  0  0  0  0  0  0  0  0  0  0  0
   59.6591   31.3119   44.8965 H   0  0  0  0  0  0  0  0  0  0  0  0
   57.5307   31.9409   43.4043 H   0  0  0  0  0  0  0  0  0  0  0  0
   56.8710   32.2841   45.1000 H   0  0  0  0  0  0  0  0  0  0  0  0
   59.3124   33.5707   43.8475 H   0  0  0  0  0  0  0  0  0  0  0  0
   57.6315   34.2948   44.0503 H   0  0  0  0  0  0  0  0  0  0  0  0
   59.8611   34.1134   45.9438 H   0  0  0  0  0  0  0  0  0  0  0  0
   58.3628   35.1864   45.8773 H   0  0  0  0  0  0  0  0  0  0  0  0
   58.1897   34.0924   47.9180 H   0  0  0  0  0  0  0  0  0  0  0  0
   57.1203   33.1583   46.7363 H   0  0  0  0  0  0  0  0  0  0  0  0
   59.8989   32.2150   47.3614 H   0  0  0  0  0  0  0  0  0  0  0  0
   58.4789   31.8662   48.4679 H   0  0  0  0  0  0  0  0  0  0  0  0
   58.9817   30.0202   46.9027 H   0  0  0  0  0  0  0  0  0  0  0  0
   57.3098   30.7819   46.7177 H   0  0  0  0  0  0  0  0  0  0  0  0
  1  2  1  0
  2  3  1  0
  3  4  2  0
  4  5  1  0
  5  6  1  0
  6  7  1  0
  7  8  1  0
  8  9  2  0
  9 10  1  0
 10 11  1  0
  5 12  2  0
 12 13  1  0
 13 14  2  0
 14 15  1  0
 15 16  1  0
 16 17  1  0
 17 18  1  0
 18 19  1  0
 19 20  1  0
 20 21  1  0
 21 22  1  0
 14  3  1  0
 22 16  1  0
 10  6  2  0
  1 23  1  0
  1 24  1  0
  1 25  1  0
  4 26  1  0
  8 27  1  0
 12 28  1  0
 13 29  1  0
 15 30  1  0
 16 31  1  0
 17 32  1  0
 17 33  1  0
 18 34  1  0
 18 35  1  0
 19 36  1  0
 19 37  1  0
 20 38  1  0
 20 39  1  0
 21 40  1  0
 21 41  1  0
 22 42  1  0
 22 43  1  0
M  END
>  <UniqueID>  (24) 
24

>  <SMILES>  (24) 
COc1cc(-c2ocnc2Br)ccc1NC1CCCCCC1

>  <Energy>  (24) 
88.92277125226208

>  <Genealogy>  (24) 
COc1cc(-c2ocnc2Br)ccc1NC1CCCCCC1 (3D coordinates assigned)
COc1cc(-c2ocnc2Br)ccc1NC1CCCCCC1 (nonaromatic ring conformer: 88.92277125226208 kcal/mol)

>  <smiles>  (24) 
COc1cc(-c2ocnc2Br)ccc1NC1CCCCCC1

>  <score_type>  (24) 
oracle

>  <origin>  (24) 
adg

>  <m_score__min__energy>  (24) 
-5.7800000000000002

>  <m_primary>  (24) 
energy

$$$$
24:0
     RDKit          3D

 38 40  0  0  0  0  0  0  0  0999 V2000
   57.0580   23.9630   43.8260 C   0  0  0  0  0  0  0  0  0  0  0  0
   57.5190   25.3590   44.1220 C   0  0  0  0  0  0  0  0  0  0  0  0
   57.7690   26.2560   43.0760 C   0  0  0  0  0  0  0  0  0  0  0  0
   58.1570   27.5680   43.3500 C   0  0  0  0  0  0  0  0  0  0  0  0
   58.3040   28.0090   44.6760 C   0  0  0  0  0  0  0  0  0  0  0  0
   58.6640   29.3740   44.9490 N   0  0  0  0  0  0  0  0  0  0  0  0
   57.7020   30.4400   45.0390 C   0  0  0  0  0  0  0  0  0  0  0  0
   56.4760   30.1970   44.8730 O   0  0  0  0  0  0  0  0  0  0  0  0
   58.1260   31.8340   45.3190 C   0  0  0  0  0  0  0  0  0  0  0  0
   57.3710   32.9290   44.8660 C   0  0  0  0  0  0  0  0  0  0  0  0
   57.7840   34.2340   45.1420 C   0  0  0  0  0  0  0  0  0  0  0  0
   58.9490   34.4630   45.8760 C   0  0  0  0  0  0  0  0  0  0  0  0
   59.7150   33.3850   46.3520 C   0  0  0  0  0  0  0  0  0  0  0  0
   60.9160   33.6210   47.1170 N   0  0  0  0  0  0  0  0  0  0  0  0
   61.0240   34.0270   48.3980 C   0  0  0  0  0  0  0  0  0  0  0  0
   62.3140   34.1390   48.7640 N   0  0  0  0  0  0  0  0  0  0  0  0
   63.0480   33.8000   47.7150 N   0  0  0  0  0  0  0  0  0  0  0  0
   62.1970   33.4890   46.7200 C   0  0  0  0  0  0  0  0  0  0  0  0
   59.2910   32.0730   46.0710 C   0  0  0  0  0  0  0  0  0  0  0  0
   58.0330   27.1150   45.7360 C   0  0  0  0  0  0  0  0  0  0  0  0
   58.1450   27.5590   47.1700 C   0  0  0  0  0  0  0  0  0  0  0  0
   57.6300   25.7990   45.4480 C   0  0  0  0  0  0  0  0  0  0  0  0
   56.8811   23.4273   44.7703 H   0  0  0  0  0  0  0  0  0  0  0  0
   56.1245   24.0005   43.2453 H   0  0  0  0  0  0  0  0  0  0  0  0
   57.8302   23.4372   43.2453 H   0  0  0  0  0  0  0  0  0  0  0  0
   57.6589   25.9245   42.0329 H   0  0  0  0  0  0  0  0  0  0  0  0
   58.3496   28.2637   42.5200 H   0  0  0  0  0  0  0  0  0  0  0  0
   59.6790   29.5910   45.0600 H   0  0  0  0  0  0  0  0  0  0  0  0
   56.4493   32.7572   44.2907 H   0  0  0  0  0  0  0  0  0  0  0  0
   57.1888   35.0851   44.7795 H   0  0  0  0  0  0  0  0  0  0  0  0
   59.2699   35.4945   46.0834 H   0  0  0  0  0  0  0  0  0  0  0  0
   60.1696   34.2389   49.0576 H   0  0  0  0  0  0  0  0  0  0  0  0
   62.5065   33.1689   45.7142 H   0  0  0  0  0  0  0  0  0  0  0  0
   59.8789   31.2217   46.4447 H   0  0  0  0  0  0  0  0  0  0  0  0
   57.9306   26.7092   47.8348 H   0  0  0  0  0  0  0  0  0  0  0  0
   59.1640   27.9264   47.3616 H   0  0  0  0  0  0  0  0  0  0  0  0
   57.4222   28.3658   47.3616 H   0  0  0  0  0  0  0  0  0  0  0  0
   57.3995   25.1077   46.2720 H   0  0  0  0  0  0  0  0  0  0  0  0
  1  2  1  0
  2  3  2  0
  3  4  1  0
  4  5  2  0
  5  6  1  0
  6  7  1  0
  7  8  2  0
  7  9  1  0
  9 10  2  0
 10 11  1  0
 11 12  2  0
 12 13  1  0
 13 14  1  0
 14 15  1  0
 15 16  2  0
 16 17  1  0
 17 18  2  0
 13 19  2  0
  5 20  1  0
 20 21  1  0
 20 22  2  0
 22  2  1  0
 19  9  1  0
 18 14  1  0
  1 23  1  0
  1 24  1  0
  1 25  1  0
  3 26  1  0
  4 27  1  0
  6 28  1  0
 10 29  1  0
 11 30  1  0
 12 31  1  0
 15 32  1  0
 18 33  1  0
 19 34  1  0
 21 35  1  0
 21 36  1  0
 21 37  1  0
 22 38  1  0
M  END
>  <UniqueID>  (25) 
25

>  <SMILES>  (25) 
Cc1ccc(NC(=O)c2cccc(-n3cnnc3)c2)c(C)c1

>  <Energy>  (25) 
84.44934303249579

>  <Genealogy>  (25) 
Cc1ccc(NC(=O)c2cccc(-n3cnnc3)c2)c(C)c1 (3D coordinates assigned)
Cc1ccc(NC(=O)c2cccc(-n3cnnc3)c2)c(C)c1 (optimized conformer: 84.44934303249579 kcal/mol)

>  <smiles>  (25) 
Cc1ccc(NC(=O)c2cccc(-n3cnnc3)c2)c(C)c1

>  <score_type>  (25) 
oracle

>  <origin>  (25) 
adg

>  <m_score__min__energy>  (25) 
-7.6799999999999997

>  <m_primary>  (25) 
energy

$$$$
25:0
     RDKit          3D

 39 40  0  0  0  0  0  0  0  0999 V2000
   58.2300   34.1660   45.4170 C   0  0  0  0  0  0  0  0  0  0  0  0
   59.1180   34.3200   46.2170 C   0  0  0  0  0  0  0  0  0  0  0  0
   60.1970   34.5090   47.1930 C   0  0  0  0  0  0  0  0  0  0  0  0
   60.3280   33.3540   48.0210 O   0  0  0  0  0  0  0  0  0  0  0  0
   60.0570   32.0340   47.6220 C   0  0  0  0  0  0  0  0  0  0  0  0
   58.8470   31.4570   48.0230 C   0  0  0  0  0  0  0  0  0  0  0  0
   58.5260   30.1480   47.6530 C   0  0  0  0  0  0  0  0  0  0  0  0
   59.4150   29.3950   46.8710 C   0  0  0  0  0  0  0  0  0  0  0  0
   59.0750   27.9820   46.4650 C   0  0  0  0  0  0  0  0  0  0  0  0
   58.5090   27.9450   45.0930 N   0  0  0  0  0  0  0  0  0  0  0  0
   58.6690   29.2500   44.4170 C   0  0  0  0  0  0  0  0  0  0  0  0
   57.3410   30.0180   44.5200 C   0  0  2  0  0  0  0  0  0  0  0  0
   57.4760   31.2110   45.2550 O   0  0  0  0  0  0  0  0  0  0  0  0
   56.3570   29.0560   45.1800 C   0  0  1  0  0  0  0  0  0  0  0  0
   55.1240   29.0700   44.5060 O   0  0  0  0  0  0  0  0  0  0  0  0
   57.0490   27.6990   45.0440 C   0  0  2  0  0  0  0  0  0  0  0  0
   56.5100   26.6070   45.9980 C   0  0  0  0  0  0  0  0  0  0  0  0
   55.1110   26.5290   45.9590 O   0  0  0  0  0  0  0  0  0  0  0  0
   60.6330   29.9680   46.4720 C   0  0  0  0  0  0  0  0  0  0  0  0
   60.9530   31.2770   46.8440 C   0  0  0  0  0  0  0  0  0  0  0  0
   57.4194   34.0254   44.6868 H   0  0  0  0  0  0  0  0  0  0  0  0
   61.1430   34.6808   46.6585 H   0  0  0  0  0  0  0  0  0  0  0  0
   59.9572   35.3760   47.8260 H   0  0  0  0  0  0  0  0  0  0  0  0
   58.1421   32.0389   48.6350 H   0  0  0  0  0  0  0  0  0  0  0  0
   57.5720   29.7060   47.9763 H   0  0  0  0  0  0  0  0  0  0  0  0
   59.9883   27.3696   46.4941 H   0  0  0  0  0  0  0  0  0  0  0  0
   58.3240   27.5870   47.1650 H   0  0  0  0  0  0  0  0  0  0  0  0
   59.4693   29.8253   44.9053 H   0  0  0  0  0  0  0  0  0  0  0  0
   58.9356   29.0975   43.3607 H   0  0  0  0  0  0  0  0  0  0  0  0
   56.9887   30.3339   43.5270 H   0  0  0  0  0  0  0  0  0  0  0  0
   57.0010   31.0940   46.1200 H   0  0  0  0  0  0  0  0  0  0  0  0
   56.1276   29.3138   46.2245 H   0  0  0  0  0  0  0  0  0  0  0  0
   54.7760   28.1410   44.5360 H   0  0  0  0  0  0  0  0  0  0  0  0
   56.8063   27.2423   44.0732 H   0  0  0  0  0  0  0  0  0  0  0  0
   56.9297   25.6348   45.7003 H   0  0  0  0  0  0  0  0  0  0  0  0
   56.8104   26.8687   47.0233 H   0  0  0  0  0  0  0  0  0  0  0  0
   54.7780   27.4480   46.1320 H   0  0  0  0  0  0  0  0  0  0  0  0
   61.3391   29.3839   45.8635 H   0  0  0  0  0  0  0  0  0  0  0  0
   61.9098   31.7176   46.5271 H   0  0  0  0  0  0  0  0  0  0  0  0
  1  2  3  0
  2  3  1  0
  3  4  1  0
  4  5  1  0
  5  6  2  0
  6  7  1  0
  7  8  2  0
  8  9  1  0
  9 10  1  0
 10 11  1  0
 11 12  1  0
 12 13  1  0
 12 14  1  0
 14 15  1  0
 14 16  1  0
 16 17  1  0
 17 18  1  0
  8 19  1  0
 19 20  2  0
 20  5  1  0
 16 10  1  0
  1 21  1  0
  3 22  1  0
  3 23  1  0
  6 24  1  0
  7 25  1  0
  9 26  1  0
  9 27  1  0
 11 28  1  0
 11 29  1  0
 12 30  1  6
 13 31  1  0
 14 32  1  1
 15 33  1  0
 16 34  1  6
 17 35  1  0
 17 36  1  0
 18 37  1  0
 19 38  1  0
 20 39  1  0
M  END
>  <UniqueID>  (26) 
26

>  <SMILES>  (26) 
C#CCOc1ccc(CN2C[C@H](O)[C@@H](O)C2CO)cc1

>  <Energy>  (26) 
46.95850384121607

>  <Genealogy>  (26) 
C#CCOc1ccc(CN2C[C@H](O)[C@@H](O)C2CO)cc1 (chirality)
C#CCOc1ccc(CN2C[C@H](O)[C@@H](O)C2CO)cc1 (3D coordinates assigned)
C#CCOc1ccc(CN2C[C@H](O)[C@@H](O)C2CO)cc1 (nonaromatic ring conformer: 46.95850384121607 kcal/mol)

>  <smiles>  (26) 
C#CCOc1ccc(CN2CC(O)C(O)C2CO)cc1

>  <score_type>  (26) 
oracle

>  <origin>  (26) 
adg

>  <m_score__min__energy>  (26) 
-6.9199999999999999

>  <m_primary>  (26) 
energy

$$$$
26:0
     RDKit          3D

 56 60  0  0  0  0  0  0  0  0999 V2000
   56.7840   20.7080   42.9500 C   0  0  0  0  0  0  0  0  0  0  0  0
   55.9350   21.7980   43.2950 O   0  0  0  0  0  0  0  0  0  0  0  0
   56.3860   23.0170   43.8200 C   0  0  0  0  0  0  0  0  0  0  0  0
   56.9630   24.0180   43.0160 C   0  0  0  0  0  0  0  0  0  0  0  0
   57.3980   25.2190   43.5860 C   0  0  0  0  0  0  0  0  0  0  0  0
   57.2730   25.4380   44.9690 C   0  0  0  0  0  0  0  0  0  0  0  0
   57.7040   26.6740   45.5720 N   0  0  0  0  0  0  0  0  0  0  0  0
   57.1870   27.8700   45.2600 N   0  0  0  0  0  0  0  0  0  0  0  0
   57.8500   28.7300   46.0550 C   0  0  0  0  0  0  0  0  0  0  0  0
   57.7220   30.0710   46.1980 N   0  0  0  0  0  0  0  0  0  0  0  0
   58.6430   30.2910   47.1840 C   0  0  0  0  0  0  0  0  0  0  0  0
   58.9630   31.5030   47.7860 C   0  0  0  0  0  0  0  0  0  0  0  0
   59.9310   31.5010   48.8230 C   0  0  0  0  0  0  0  0  0  0  0  0
   60.2640   32.7280   49.5050 N   0  0  0  0  0  0  0  0  0  0  0  0
   61.6580   33.1310   49.2510 C   0  0  0  0  0  0  0  0  0  0  0  0
   61.7650   34.1740   48.1260 C   0  0  0  0  0  0  0  0  0  0  0  0
   61.0940   33.6670   46.8310 C   0  0  0  0  0  0  0  0  0  0  0  0
   60.0910   34.5940   46.2570 N   0  0  0  0  0  0  0  0  0  0  0  0
   59.6410   34.2250   44.9100 C   0  0  0  0  0  0  0  0  0  0  0  0
   58.2600   33.6020   45.0320 C   0  0  0  0  0  0  0  0  0  0  0  0
   57.7270   34.0500   46.3810 C   0  0  0  0  0  0  0  0  0  0  0  0
   58.8860   34.7460   47.0860 C   0  0  0  0  0  0  0  0  0  0  0  0
   60.5430   30.2770   49.2180 C   0  0  0  0  0  0  0  0  0  0  0  0
   60.2040   29.0630   48.5930 C   0  0  0  0  0  0  0  0  0  0  0  0
   59.2550   29.1190   47.5820 C   0  0  0  0  0  0  0  0  0  0  0  0
   58.7280   28.1510   46.8430 N   0  0  0  0  0  0  0  0  0  0  0  0
   58.6380   26.8540   46.5480 C   0  0  0  0  0  0  0  0  0  0  0  0
   59.2830   25.9410   47.1310 O   0  0  0  0  0  0  0  0  0  0  0  0
   56.6820   24.4430   45.7640 C   0  0  0  0  0  0  0  0  0  0  0  0
   56.2490   23.2430   45.1940 C   0  0  0  0  0  0  0  0  0  0  0  0
   57.1570   20.2291   43.8674 H   0  0  0  0  0  0  0  0  0  0  0  0
   56.2168   19.9746   42.3581 H   0  0  0  0  0  0  0  0  0  0  0  0
   57.6340   21.0784   42.3581 H   0  0  0  0  0  0  0  0  0  0  0  0
   57.0724   23.8549   41.9337 H   0  0  0  0  0  0  0  0  0  0  0  0
   57.8410   25.9976   42.9476 H   0  0  0  0  0  0  0  0  0  0  0  0
   58.4788   32.4377   47.4668 H   0  0  0  0  0  0  0  0  0  0  0  0
   59.6300   33.4890   49.1640 H   0  0  0  0  0  0  0  0  0  0  0  0
   60.1030   32.6340   50.5350 H   0  0  0  0  0  0  0  0  0  0  0  0
   62.0763   33.5605   50.1733 H   0  0  0  0  0  0  0  0  0  0  0  0
   62.2163   32.2368   48.9369 H   0  0  0  0  0  0  0  0  0  0  0  0
   61.2691   35.1016   48.4480 H   0  0  0  0  0  0  0  0  0  0  0  0
   62.8299   34.3561   47.9191 H   0  0  0  0  0  0  0  0  0  0  0  0
   61.8794   33.5015   46.0788 H   0  0  0  0  0  0  0  0  0  0  0  0
   60.5539   32.7465   47.0974 H   0  0  0  0  0  0  0  0  0  0  0  0
   59.5917   35.1212   44.2740 H   0  0  0  0  0  0  0  0  0  0  0  0
   60.3435   33.5121   44.4537 H   0  0  0  0  0  0  0  0  0  0  0  0
   57.6053   33.9583   44.2230 H   0  0  0  0  0  0  0  0  0  0  0  0
   58.3001   32.5055   44.9543 H   0  0  0  0  0  0  0  0  0  0  0  0
   56.8877   34.7482   46.2467 H   0  0  0  0  0  0  0  0  0  0  0  0
   57.3542   33.1977   46.9680 H   0  0  0  0  0  0  0  0  0  0  0  0
   58.6555   35.8139   47.2144 H   0  0  0  0  0  0  0  0  0  0  0  0
   59.0498   34.2980   48.0772 H   0  0  0  0  0  0  0  0  0  0  0  0
   61.2919   30.2810   50.0237 H   0  0  0  0  0  0  0  0  0  0  0  0
   60.6700   28.1126   48.8921 H   0  0  0  0  0  0  0  0  0  0  0  0
   56.5589   24.6095   46.8443 H   0  0  0  0  0  0  0  0  0  0  0  0
   55.7963   22.4690   45.8312 H   0  0  0  0  0  0  0  0  0  0  0  0
  1  2  1  0
  2  3  1  0
  3  4  2  0
  4  5  1  0
  5  6  2  0
  6  7  1  0
  7  8  1  0
  8  9  2  0
  9 10  1  0
 10 11  1  0
 11 12  2  0
 12 13  1  0
 13 14  1  0
 14 15  1  0
 15 16  1  0
 16 17  1  0
 17 18  1  0
 18 19  1  0
 19 20  1  0
 20 21  1  0
 21 22  1  0
 13 23  2  0
 23 24  1  0
 24 25  2  0
 25 26  1  0
 26 27  1  0
 27 28  2  0
  6 29  1  0
 29 30  2  0
 30  3  1  0
 27  7  1  0
 26  9  1  0
 25 11  1  0
 22 18  1  0
  1 31  1  0
  1 32  1  0
  1 33  1  0
  4 34  1  0
  5 35  1  0
 12 36  1  0
 14 37  1  0
 14 38  1  0
 15 39  1  0
 15 40  1  0
 16 41  1  0
 16 42  1  0
 17 43  1  0
 17 44  1  0
 19 45  1  0
 19 46  1  0
 20 47  1  0
 20 48  1  0
 21 49  1  0
 21 50  1  0
 22 51  1  0
 22 52  1  0
 23 53  1  0
 24 54  1  0
 29 55  1  0
 30 56  1  0
M  CHG  2  10  -1  14   1
M  END
>  <UniqueID>  (27) 
27

>  <SMILES>  (27) 
COc1ccc(-n2nc3[n-]c4cc([NH2+]CCCN5CCCC5)ccc4n3c2=O)cc1

>  <Energy>  (27) 
173.74220242325492

>  <Genealogy>  (27) 
COc1ccc(-n2nc3[n-]c4cc([NH2+]CCCN5CCCC5)ccc4n3c2=O)cc1 (protonated)
COc1ccc(-n2nc3[n-]c4cc([NH2+]CCCN5CCCC5)ccc4n3c2=O)cc1 (3D coordinates assigned)
COc1ccc(-n2nc3[n-]c4cc([NH2+]CCCN5CCCC5)ccc4n3c2=O)cc1 (nonaromatic ring conformer: 173.74220242325492 kcal/mol)

>  <smiles>  (27) 
COc1ccc(-n2nc3[nH]c4cc(NCCCN5CCCC5)ccc4n3c2=O)cc1

>  <score_type>  (27) 
oracle

>  <origin>  (27) 
adg

>  <m_score__min__energy>  (27) 
-7.7599999999999998

>  <m_primary>  (27) 
energy

$$$$
27:0
     RDKit          3D

 39 41  0  0  0  0  0  0  0  0999 V2000
   60.5390   30.9580   47.7240 C   0  0  0  0  0  0  0  0  0  0  0  0
   59.3480   30.2880   47.3250 O   0  0  0  0  0  0  0  0  0  0  0  0
   59.1700   28.8940   47.3420 C   0  0  0  0  0  0  0  0  0  0  0  0
   59.8760   28.0670   48.2380 C   0  0  0  0  0  0  0  0  0  0  0  0
   59.6640   26.6870   48.2440 C   0  0  0  0  0  0  0  0  0  0  0  0
   58.7490   26.1150   47.3590 C   0  0  0  0  0  0  0  0  0  0  0  0
   58.0450   26.9210   46.4630 C   0  0  0  0  0  0  0  0  0  0  0  0
   58.2480   28.3120   46.4460 C   0  0  0  0  0  0  0  0  0  0  0  0
   57.5120   29.1540   45.4720 C   0  0  0  0  0  0  0  0  0  0  0  0
   58.1130   30.2660   44.9540 N   0  0  0  0  0  0  0  0  0  0  0  0
   57.4660   31.0990   44.0890 C   0  0  0  0  0  0  0  0  0  0  0  0
   58.1400   32.3600   43.6180 C   0  0  0  0  0  0  0  0  0  0  0  0
   58.4200   33.2570   44.7940 C   0  0  0  0  0  0  0  0  0  0  0  0
   57.8060   33.0100   46.0330 C   0  0  0  0  0  0  0  0  0  0  0  0
   58.1060   33.8120   47.1380 C   0  0  0  0  0  0  0  0  0  0  0  0
   59.0270   34.8570   47.0180 C   0  0  0  0  0  0  0  0  0  0  0  0
   59.6520   35.1000   45.7920 C   0  0  0  0  0  0  0  0  0  0  0  0
   59.3530   34.3010   44.6830 C   0  0  0  0  0  0  0  0  0  0  0  0
   56.1480   30.8180   43.7080 C   0  0  0  0  0  0  0  0  0  0  0  0
   55.5180   29.6800   44.2070 C   0  0  0  0  0  0  0  0  0  0  0  0
   56.1920   28.8430   45.0990 C   0  0  0  0  0  0  0  0  0  0  0  0
   55.5390   27.7310   45.6200 O   0  0  0  0  0  0  0  0  0  0  0  0
   60.5924   30.9881   48.8223 H   0  0  0  0  0  0  0  0  0  0  0  0
   61.4128   30.4190   47.3290 H   0  0  0  0  0  0  0  0  0  0  0  0
   60.5321   31.9846   47.3290 H   0  0  0  0  0  0  0  0  0  0  0  0
   60.5991   28.5116   48.9376 H   0  0  0  0  0  0  0  0  0  0  0  0
   60.2193   26.0494   48.9477 H   0  0  0  0  0  0  0  0  0  0  0  0
   58.5824   25.0277   47.3676 H   0  0  0  0  0  0  0  0  0  0  0  0
   57.3268   26.4649   45.7657 H   0  0  0  0  0  0  0  0  0  0  0  0
   59.0980   30.4860   45.2260 H   0  0  0  0  0  0  0  0  0  0  0  0
   59.0869   32.1041   43.1200 H   0  0  0  0  0  0  0  0  0  0  0  0
   57.4795   32.8831   42.9108 H   0  0  0  0  0  0  0  0  0  0  0  0
   57.0873   32.1834   46.1340 H   0  0  0  0  0  0  0  0  0  0  0  0
   57.6163   33.6204   48.1042 H   0  0  0  0  0  0  0  0  0  0  0  0
   59.2596   35.4878   47.8886 H   0  0  0  0  0  0  0  0  0  0  0  0
   60.3794   35.9199   45.6988 H   0  0  0  0  0  0  0  0  0  0  0  0
   59.8505   34.4912   43.7206 H   0  0  0  0  0  0  0  0  0  0  0  0
   55.6144   31.4905   43.0202 H   0  0  0  0  0  0  0  0  0  0  0  0
   54.4896   29.4407   43.8984 H   0  0  0  0  0  0  0  0  0  0  0  0
  1  2  1  0
  2  3  1  0
  3  4  2  0
  4  5  1  0
  5  6  2  0
  6  7  1  0
  7  8  2  0
  8  9  1  0
  9 10  2  0
 10 11  1  0
 11 12  1  0
 12 13  1  0
 13 14  2  0
 14 15  1  0
 15 16  2  0
 16 17  1  0
 17 18  2  0
 11 19  2  0
 19 20  1  0
 20 21  2  0
 21 22  1  0
  8  3  1  0
 21  9  1  0
 18 13  1  0
  1 23  1  0
  1 24  1  0
  1 25  1  0
  4 26  1  0
  5 27  1  0
  6 28  1  0
  7 29  1  0
 10 30  1  0
 12 31  1  0
 12 32  1  0
 14 33  1  0
 15 34  1  0
 16 35  1  0
 17 36  1  0
 18 37  1  0
 19 38  1  0
 20 39  1  0
M  CHG  2  10   1  22  -1
M  END
>  <UniqueID>  (28) 
28

>  <SMILES>  (28) 
COc1ccccc1-c1[nH+]c(Cc2ccccc2)ccc1[O-]

>  <Energy>  (28) 
45.62027394588496

>  <Genealogy>  (28) 
COc1ccccc1-c1[nH+]c(Cc2ccccc2)ccc1[O-] (protonated)
COc1ccccc1-c1[nH+]c(Cc2ccccc2)ccc1[O-] (3D coordinates assigned)
COc1ccccc1-c1[nH+]c(Cc2ccccc2)ccc1[O-] (optimized conformer: 45.62027394588496 kcal/mol)

>  <smiles>  (28) 
COc1ccccc1-c1nc(Cc2ccccc2)ccc1O

>  <score_type>  (28) 
oracle

>  <origin>  (28) 
adg

>  <m_score__min__energy>  (28) 
-8.9600000000000009

>  <m_primary>  (28) 
energy

$$$$
28:0
     RDKit          3D

 27 27  0  0  0  0  0  0  0  0999 V2000
   57.8490   26.3520   44.5720 C   0  0  0  0  0  0  0  0  0  0  0  0
   58.2750   27.7350   44.0810 C   0  0  0  0  0  0  0  0  0  0  0  0
   57.3970   28.1990   42.9940 N   0  0  0  0  0  0  0  0  0  0  0  0
   56.7340   29.4760   43.3220 C   0  0  0  0  0  0  0  0  0  0  0  0
   56.7020   29.7760   44.8350 C   0  0  0  0  0  0  0  0  0  0  0  0
   57.4370   31.0530   45.1820 C   0  0  0  0  0  0  0  0  0  0  0  0
   57.1070   32.2330   44.4920 C   0  0  0  0  0  0  0  0  0  0  0  0
   57.7720   33.4290   44.7680 C   0  0  0  0  0  0  0  0  0  0  0  0
   58.7760   33.4630   45.7360 C   0  0  0  0  0  0  0  0  0  0  0  0
   59.6120   34.9680   46.0810 Cl  0  0  0  0  0  0  0  0  0  0  0  0
   59.1170   32.3000   46.4310 C   0  0  0  0  0  0  0  0  0  0  0  0
   58.4570   31.0940   46.1620 C   0  0  0  0  0  0  0  0  0  0  0  0
   58.9440   29.6690   47.0750 Cl  0  0  0  0  0  0  0  0  0  0  0  0
   57.8449   26.3386   45.6719 H   0  0  0  0  0  0  0  0  0  0  0  0
   56.8394   26.1253   44.1988 H   0  0  0  0  0  0  0  0  0  0  0  0
   58.5561   25.5965   44.1988 H   0  0  0  0  0  0  0  0  0  0  0  0
   58.2199   28.4471   44.9176 H   0  0  0  0  0  0  0  0  0  0  0  0
   59.3045   27.6710   43.6988 H   0  0  0  0  0  0  0  0  0  0  0  0
   56.6500   27.4800   42.8450 H   0  0  0  0  0  0  0  0  0  0  0  0
   57.9370   28.2840   42.1020 H   0  0  0  0  0  0  0  0  0  0  0  0
   57.2741   30.2898   42.8160 H   0  0  0  0  0  0  0  0  0  0  0  0
   55.6904   29.3977   42.9832 H   0  0  0  0  0  0  0  0  0  0  0  0
   55.6539   29.8729   45.1545 H   0  0  0  0  0  0  0  0  0  0  0  0
   57.2045   28.9463   45.3538 H   0  0  0  0  0  0  0  0  0  0  0  0
   56.3168   32.2135   43.7270 H   0  0  0  0  0  0  0  0  0  0  0  0
   57.5041   34.3454   44.2217 H   0  0  0  0  0  0  0  0  0  0  0  0
   59.9086   32.3315   47.1941 H   0  0  0  0  0  0  0  0  0  0  0  0
  1  2  1  0
  2  3  1  0
  3  4  1  0
  4  5  1  0
  5  6  1  0
  6  7  2  0
  7  8  1  0
  8  9  2  0
  9 10  1  0
  9 11  1  0
 11 12  2  0
 12 13  1  0
 12  6  1  0
  1 14  1  0
  1 15  1  0
  1 16  1  0
  2 17  1  0
  2 18  1  0
  3 19  1  0
  3 20  1  0
  4 21  1  0
  4 22  1  0
  5 23  1  0
  5 24  1  0
  7 25  1  0
  8 26  1  0
 11 27  1  0
M  CHG  1   3   1
M  END
>  <UniqueID>  (29) 
29

>  <SMILES>  (29) 
CC[NH2+]CCc1ccc(Cl)cc1Cl

>  <Energy>  (29) 
22.139616465761613

>  <Genealogy>  (29) 
CC[NH2+]CCc1ccc(Cl)cc1Cl (protonated)
CC[NH2+]CCc1ccc(Cl)cc1Cl (3D coordinates assigned)
CC[NH2+]CCc1ccc(Cl)cc1Cl (optimized conformer: 22.139616465761613 kcal/mol)

>  <smiles>  (29) 
CCNCCc1ccc(Cl)cc1Cl

>  <score_type>  (29) 
oracle

>  <origin>  (29) 
adg

>  <m_score__min__energy>  (29) 
-4.4100000000000001

>  <m_primary>  (29) 
energy

$$$$
29:0
     RDKit          3D

 41 44  0  0  0  0  0  0  0  0999 V2000
   59.4820   35.3380   46.6100 C   0  0  0  0  0  0  0  0  0  0  0  0
   59.1870   34.3600   47.5620 C   0  0  0  0  0  0  0  0  0  0  0  0
   58.6680   33.1250   47.1590 C   0  0  0  0  0  0  0  0  0  0  0  0
   58.4290   32.8630   45.7990 C   0  0  0  0  0  0  0  0  0  0  0  0
   57.8940   31.5470   45.3880 C   0  0  0  0  0  0  0  0  0  0  0  0
   56.6540   31.3750   44.8840 N   0  0  0  0  0  0  0  0  0  0  0  0
   56.5290   30.0910   44.5790 N   0  0  0  0  0  0  0  0  0  0  0  0
   57.6860   29.4890   44.9220 C   0  0  0  0  0  0  0  0  0  0  0  0
   58.5670   30.3770   45.4000 N   0  0  0  0  0  0  0  0  0  0  0  0
   59.9850   30.0870   45.5810 C   0  0  0  0  0  0  0  0  0  0  0  0
   60.3620   29.0130   44.7380 O   0  0  0  0  0  0  0  0  0  0  0  0
   59.5650   27.8740   45.0180 C   0  0  0  0  0  0  0  0  0  0  0  0
   58.0790   28.0630   44.5840 C   0  0  1  0  0  0  0  0  0  0  0  0
   57.2370   27.0290   45.2590 N   0  0  0  0  0  0  0  0  0  0  0  0
   57.3770   27.0680   46.7470 C   0  0  0  0  0  0  0  0  0  0  0  0
   58.1100   25.8490   47.3260 C   0  0  0  0  0  0  0  0  0  0  0  0
   57.3870   24.5430   46.9640 C   0  0  0  0  0  0  0  0  0  0  0  0
   56.6960   24.6140   45.5940 C   0  0  0  0  0  0  0  0  0  0  0  0
   57.3600   25.6610   44.6930 C   0  0  0  0  0  0  0  0  0  0  0  0
   58.7470   33.8480   44.8470 C   0  0  0  0  0  0  0  0  0  0  0  0
   59.2670   35.0810   45.2540 C   0  0  0  0  0  0  0  0  0  0  0  0
   59.8839   36.3113   46.9281 H   0  0  0  0  0  0  0  0  0  0  0  0
   59.3628   34.5607   48.6292 H   0  0  0  0  0  0  0  0  0  0  0  0
   58.4455   32.3540   47.9114 H   0  0  0  0  0  0  0  0  0  0  0  0
   60.5765   30.9784   45.3249 H   0  0  0  0  0  0  0  0  0  0  0  0
   60.1703   29.8107   46.6295 H   0  0  0  0  0  0  0  0  0  0  0  0
   59.9825   27.0104   44.4796 H   0  0  0  0  0  0  0  0  0  0  0  0
   59.5776   27.7169   46.1067 H   0  0  0  0  0  0  0  0  0  0  0  0
   57.9311   27.9192   43.5035 H   0  0  0  0  0  0  0  0  0  0  0  0
   57.9382   27.9738   47.0202 H   0  0  0  0  0  0  0  0  0  0  0  0
   56.3606   27.0639   47.1676 H   0  0  0  0  0  0  0  0  0  0  0  0
   59.1317   25.8182   46.9195 H   0  0  0  0  0  0  0  0  0  0  0  0
   58.1314   25.9433   48.4217 H   0  0  0  0  0  0  0  0  0  0  0  0
   58.1229   23.7256   46.9461 H   0  0  0  0  0  0  0  0  0  0  0  0
   56.6092   24.3701   47.7223 H   0  0  0  0  0  0  0  0  0  0  0  0
   56.7605   23.6293   45.1079 H   0  0  0  0  0  0  0  0  0  0  0  0
   55.6456   24.9020   45.7478 H   0  0  0  0  0  0  0  0  0  0  0  0
   58.4265   25.4141   44.5854 H   0  0  0  0  0  0  0  0  0  0  0  0
   56.8521   25.6461   43.7174 H   0  0  0  0  0  0  0  0  0  0  0  0
   58.5861   33.6479   43.7774 H   0  0  0  0  0  0  0  0  0  0  0  0
   59.5071   35.8498   44.5048 H   0  0  0  0  0  0  0  0  0  0  0  0
  1  2  2  0
  2  3  1  0
  3  4  2  0
  4  5  1  0
  5  6  2  0
  6  7  1  0
  7  8  2  0
  8  9  1  0
  9 10  1  0
 10 11  1  0
 11 12  1  0
 12 13  1  0
 13 14  1  0
 14 15  1  0
 15 16  1  0
 16 17  1  0
 17 18  1  0
 18 19  1  0
  4 20  1  0
 20 21  2  0
 21  1  1  0
  9  5  1  0
 19 14  1  0
 13  8  1  0
  1 22  1  0
  2 23  1  0
  3 24  1  0
 10 25  1  0
 10 26  1  0
 12 27  1  0
 12 28  1  0
 13 29  1  6
 15 30  1  0
 15 31  1  0
 16 32  1  0
 16 33  1  0
 17 34  1  0
 17 35  1  0
 18 36  1  0
 18 37  1  0
 19 38  1  0
 19 39  1  0
 20 40  1  0
 21 41  1  0
M  END
>  <UniqueID>  (30) 
30

>  <SMILES>  (30) 
c1ccc(-c2nnc3n2COC[C@H]3N2CCCCC2)cc1

>  <Energy>  (30) 
103.35483178263306

>  <Genealogy>  (30) 
c1ccc(-c2nnc3n2COC[C@H]3N2CCCCC2)cc1 (chirality)
c1ccc(-c2nnc3n2COC[C@H]3N2CCCCC2)cc1 (3D coordinates assigned)
c1ccc(-c2nnc3n2COC[C@H]3N2CCCCC2)cc1 (nonaromatic ring conformer: 103.35483178263306 kcal/mol)

>  <smiles>  (30) 
c1ccc(-c2nnc3n2COCC3N2CCCCC2)cc1

>  <score_type>  (30) 
oracle

>  <origin>  (30) 
adg

>  <m_score__min__energy>  (30) 
-7.9299999999999997

>  <m_primary>  (30) 
energy

$$$$
30:0
     RDKit          3D

 86 87  0  0  0  0  0  0  0  0999 V2000
   63.3820   32.0590   47.3920 C   0  0  0  0  0  0  0  0  0  0  0  0
   62.6830   33.3780   47.0700 C   0  0  0  0  0  0  0  0  0  0  0  0
   61.6570   33.7870   48.1410 C   0  0  0  0  0  0  0  0  0  0  0  0
   60.2870   34.2180   47.5810 C   0  0  0  0  0  0  0  0  0  0  0  0
   59.1050   33.4380   48.1940 C   0  0  0  0  0  0  0  0  0  0  0  0
   57.9900   33.1800   47.1660 C   0  0  0  0  0  0  0  0  0  0  0  0
   57.9820   34.2150   46.0310 C   0  0  0  0  0  0  0  0  0  0  0  0
   58.2710   33.5870   44.6590 C   0  0  0  0  0  0  0  0  0  0  0  0
   58.0800   32.0640   44.7060 C   0  0  0  0  0  0  0  0  0  0  0  0
   58.0400   31.4160   43.3100 C   0  0  0  0  0  0  0  0  0  0  0  0
   56.6880   30.7700   42.9270 C   0  0  0  0  0  0  0  0  0  0  0  0
   56.6650   29.2320   43.0260 C   0  0  0  0  0  0  0  0  0  0  0  0
   57.6690   28.6240   44.0200 C   0  0  0  0  0  0  0  0  0  0  0  0
   58.1090   27.1970   43.6370 C   0  0  0  0  0  0  0  0  0  0  0  0
   57.4350   26.1270   44.5070 C   0  0  0  0  0  0  0  0  0  0  0  0
   56.8530   26.7120   45.7570 C   0  0  0  0  0  0  0  0  0  0  0  0
   55.6270   26.5530   46.0060 O   0  0  0  0  0  0  0  0  0  0  0  0
   57.6790   27.3990   46.6530 O   0  0  0  0  0  0  0  0  0  0  0  0
   58.4730   26.7260   47.6220 C   0  0  0  0  0  0  0  0  0  0  0  0
   60.0740   26.2660   46.8900 S   0  0  0  0  0  0  0  0  0  0  0  0
   60.3910   27.9320   46.3080 C   0  0  0  0  0  0  0  0  0  0  0  0
   60.7430   28.2400   45.0410 N   0  0  0  0  0  0  0  0  0  0  0  0
   60.7710   29.5440   44.9920 O   0  0  0  0  0  0  0  0  0  0  0  0
   60.4520   30.0910   46.1270 N   0  0  0  0  0  0  0  0  0  0  0  0
   60.4160   31.4500   46.3560 O   0  0  0  0  0  0  0  0  0  0  0  0
   60.2030   29.1050   47.0030 C   0  0  0  0  0  0  0  0  0  0  0  0
   59.8300   29.2780   48.4130 C   0  0  0  0  0  0  0  0  0  0  0  0
   60.4900   28.5480   49.4090 C   0  0  0  0  0  0  0  0  0  0  0  0
   60.1780   28.7550   50.7560 C   0  0  0  0  0  0  0  0  0  0  0  0
   59.1820   29.6690   51.1220 C   0  0  0  0  0  0  0  0  0  0  0  0
   58.9030   29.8300   52.4890 O   0  0  0  0  0  0  0  0  0  0  0  0
   58.3150   30.9870   53.0810 C   0  0  0  0  0  0  0  0  0  0  0  0
   56.8820   31.1710   52.5720 C   0  0  0  0  0  0  0  0  0  0  0  0
   56.2420   29.8610   52.3260 N   0  0  0  0  0  0  0  0  0  0  0  0
   54.8180   30.0410   51.9960 C   0  0  0  0  0  0  0  0  0  0  0  0
   56.3660   28.9860   53.5050 C   0  0  0  0  0  0  0  0  0  0  0  0
   58.5020   30.3870   50.1180 C   0  0  0  0  0  0  0  0  0  0  0  0
   58.8370   30.1990   48.7720 C   0  0  0  0  0  0  0  0  0  0  0  0
   63.4474   31.9355   48.4831 H   0  0  0  0  0  0  0  0  0  0  0  0
   62.8074   31.2251   46.9624 H   0  0  0  0  0  0  0  0  0  0  0  0
   64.3946   32.0662   46.9624 H   0  0  0  0  0  0  0  0  0  0  0  0
   63.4436   34.1688   46.9921 H   0  0  0  0  0  0  0  0  0  0  0  0
   62.1376   33.2412   46.1246 H   0  0  0  0  0  0  0  0  0  0  0  0
   61.4998   32.9294   48.8117 H   0  0  0  0  0  0  0  0  0  0  0  0
   62.0749   34.6645   48.6562 H   0  0  0  0  0  0  0  0  0  0  0  0
   60.1452   35.2885   47.7905 H   0  0  0  0  0  0  0  0  0  0  0  0
   60.2940   34.0045   46.5019 H   0  0  0  0  0  0  0  0  0  0  0  0
   59.4733   32.4715   48.5686 H   0  0  0  0  0  0  0  0  0  0  0  0
   58.6827   34.0454   49.0081 H   0  0  0  0  0  0  0  0  0  0  0  0
   58.1367   32.1806   46.7304 H   0  0  0  0  0  0  0  0  0  0  0  0
   57.0272   33.2556   47.6927 H   0  0  0  0  0  0  0  0  0  0  0  0
   56.9925   34.6944   45.9980 H   0  0  0  0  0  0  0  0  0  0  0  0
   58.7786   34.9445   46.2388 H   0  0  0  0  0  0  0  0  0  0  0  0
   57.5829   34.0141   43.9146 H   0  0  0  0  0  0  0  0  0  0  0  0
   59.3139   33.8035   44.3845 H   0  0  0  0  0  0  0  0  0  0  0  0
   58.9142   31.6241   45.2722 H   0  0  0  0  0  0  0  0  0  0  0  0
   57.1089   31.8703   45.1850 H   0  0  0  0  0  0  0  0  0  0  0  0
   58.2694   32.1934   42.5664 H   0  0  0  0  0  0  0  0  0  0  0  0
   58.7762   30.5989   43.3295 H   0  0  0  0  0  0  0  0  0  0  0  0
   55.9137   31.1693   43.5985 H   0  0  0  0  0  0  0  0  0  0  0  0
   56.5100   31.0187   41.8704 H   0  0  0  0  0  0  0  0  0  0  0  0
   55.6541   28.9260   43.3335 H   0  0  0  0  0  0  0  0  0  0  0  0
   56.9547   28.8581   42.0329 H   0  0  0  0  0  0  0  0  0  0  0  0
   58.5603   29.2677   44.0555 H   0  0  0  0  0  0  0  0  0  0  0  0
   57.1673   28.5619   44.9969 H   0  0  0  0  0  0  0  0  0  0  0  0
   57.8446   27.0156   42.5848 H   0  0  0  0  0  0  0  0  0  0  0  0
   59.1951   27.1254   43.7961 H   0  0  0  0  0  0  0  0  0  0  0  0
   56.6295   25.6524   43.9274 H   0  0  0  0  0  0  0  0  0  0  0  0
   58.1994   25.3913   44.7975 H   0  0  0  0  0  0  0  0  0  0  0  0
   58.6416   27.3906   48.4822 H   0  0  0  0  0  0  0  0  0  0  0  0
   57.9498   25.8173   47.9545 H   0  0  0  0  0  0  0  0  0  0  0  0
   60.6110   32.1110   45.6140 H   0  0  0  0  0  0  0  0  0  0  0  0
   61.2563   27.8094   49.1308 H   0  0  0  0  0  0  0  0  0  0  0  0
   60.7187   28.1960   51.5339 H   0  0  0  0  0  0  0  0  0  0  0  0
   58.2998   30.8678   54.1744 H   0  0  0  0  0  0  0  0  0  0  0  0
   58.9093   31.8714   52.8080 H   0  0  0  0  0  0  0  0  0  0  0  0
   56.2993   31.7217   53.3251 H   0  0  0  0  0  0  0  0  0  0  0  0
   56.9121   31.7327   51.6267 H   0  0  0  0  0  0  0  0  0  0  0  0
   54.2329   30.1150   52.9246 H   0  0  0  0  0  0  0  0  0  0  0  0
   54.6914   30.9623   51.4085 H   0  0  0  0  0  0  0  0  0  0  0  0
   54.4661   29.1802   51.4085 H   0  0  0  0  0  0  0  0  0  0  0  0
   56.2804   29.5899   54.4204 H   0  0  0  0  0  0  0  0  0  0  0  0
   55.5658   28.2314   53.4874 H   0  0  0  0  0  0  0  0  0  0  0  0
   57.3443   28.4835   53.4874 H   0  0  0  0  0  0  0  0  0  0  0  0
   57.7070   31.0960   50.3924 H   0  0  0  0  0  0  0  0  0  0  0  0
   58.3185   30.7768   47.9927 H   0  0  0  0  0  0  0  0  0  0  0  0
  1  2  1  0
  2  3  1  0
  3  4  1  0
  4  5  1  0
  5  6  1  0
  6  7  1  0
  7  8  1  0
  8  9  1  0
  9 10  1  0
 10 11  1  0
 11 12  1  0
 12 13  1  0
 13 14  1  0
 14 15  1  0
 15 16  1  0
 16 17  2  0
 16 18  1  0
 18 19  1  0
 19 20  1  0
 20 21  1  0
 21 22  2  0
 22 23  1  0
 23 24  1  0
 24 25  1  0
 24 26  2  0
 26 27  1  0
 27 28  2  0
 28 29  1  0
 29 30  2  0
 30 31  1  0
 31 32  1  0
 32 33  1  0
 33 34  1  0
 34 35  1  0
 34 36  1  0
 30 37  1  0
 37 38  2  0
 26 21  1  0
 38 27  1  0
  1 39  1  0
  1 40  1  0
  1 41  1  0
  2 42  1  0
  2 43  1  0
  3 44  1  0
  3 45  1  0
  4 46  1  0
  4 47  1  0
  5 48  1  0
  5 49  1  0
  6 50  1  0
  6 51  1  0
  7 52  1  0
  7 53  1  0
  8 54  1  0
  8 55  1  0
  9 56  1  0
  9 57  1  0
 10 58  1  0
 10 59  1  0
 11 60  1  0
 11 61  1  0
 12 62  1  0
 12 63  1  0
 13 64  1  0
 13 65  1  0
 14 66  1  0
 14 67  1  0
 15 68  1  0
 15 69  1  0
 19 70  1  0
 19 71  1  0
 25 72  1  0
 28 73  1  0
 29 74  1  0
 32 75  1  0
 32 76  1  0
 33 77  1  0
 33 78  1  0
 35 79  1  0
 35 80  1  0
 35 81  1  0
 36 82  1  0
 36 83  1  0
 36 84  1  0
 37 85  1  0
 38 86  1  0
M  CHG  1  24   1
M  END
>  <UniqueID>  (31) 
31

>  <SMILES>  (31) 
CCCCCCCCCCCCCCCC(=O)OCSc1no[n+](O)c1-c1ccc(OCCN(C)C)cc1

>  <Energy>  (31) 
91.40178675227094

>  <Genealogy>  (31) 
CCCCCCCCCCCCCCCC(=O)OCSc1no[n+](O)c1-c1ccc(OCCN(C)C)cc1 (protonated)
CCCCCCCCCCCCCCCC(=O)OCSc1no[n+](O)c1-c1ccc(OCCN(C)C)cc1 (3D coordinates assigned)
CCCCCCCCCCCCCCCC(=O)OCSc1no[n+](O)c1-c1ccc(OCCN(C)C)cc1 (optimized conformer: 91.40178675227094 kcal/mol)

>  <smiles>  (31) 
CCCCCCCCCCCCCCCC(=O)OCSc1no[n+]([O-])c1-c1ccc(OCCN(C)C)cc1

>  <score_type>  (31) 
oracle

>  <origin>  (31) 
adg

>  <m_score__min__energy>  (31) 
-7.2300000000000004

>  <m_primary>  (31) 
energy

$$$$
31:0
     RDKit          3D

 34 35  0  0  0  0  0  0  0  0999 V2000
   58.1400   27.7540   43.7630 C   0  0  0  0  0  0  0  0  0  0  0  0
   57.4490   29.0660   43.9520 C   0  0  0  0  0  0  0  0  0  0  0  0
   56.2800   29.2190   43.5060 O   0  0  0  0  0  0  0  0  0  0  0  0
   58.1410   30.1500   44.5890 N   0  0  0  0  0  0  0  0  0  0  0  0
   57.5300   31.4160   44.8940 C   0  0  0  0  0  0  0  0  0  0  0  0
   56.2740   31.5350   44.8610 O   0  0  0  0  0  0  0  0  0  0  0  0
   58.3550   32.5790   45.3010 C   0  0  0  0  0  0  0  0  0  0  0  0
   57.9990   33.8610   44.8630 C   0  0  0  0  0  0  0  0  0  0  0  0
   58.7560   34.9650   45.2370 C   0  0  0  0  0  0  0  0  0  0  0  0
   59.8730   34.7890   46.0490 C   0  0  0  0  0  0  0  0  0  0  0  0
   60.2380   33.5410   46.4740 N   0  0  0  0  0  0  0  0  0  0  0  0
   61.4040   33.4090   47.3120 C   0  0  0  0  0  0  0  0  0  0  0  0
   61.2660   33.2310   48.6980 C   0  0  0  0  0  0  0  0  0  0  0  0
   62.3970   33.1090   49.5120 C   0  0  0  0  0  0  0  0  0  0  0  0
   63.6820   33.1810   48.9530 C   0  0  0  0  0  0  0  0  0  0  0  0
   64.8940   33.0120   49.8190 C   0  0  0  0  0  0  0  0  0  0  0  0
   63.8220   33.3470   47.5650 C   0  0  0  0  0  0  0  0  0  0  0  0
   62.6910   33.4680   46.7530 C   0  0  0  0  0  0  0  0  0  0  0  0
   59.5120   32.4350   46.1000 C   0  0  0  0  0  0  0  0  0  0  0  0
   59.9020   31.2820   46.4370 O   0  0  0  0  0  0  0  0  0  0  0  0
   58.3706   27.3162   44.7454 H   0  0  0  0  0  0  0  0  0  0  0  0
   57.4843   27.0717   43.2023 H   0  0  0  0  0  0  0  0  0  0  0  0
   59.0736   27.9087   43.2023 H   0  0  0  0  0  0  0  0  0  0  0  0
   59.1320   29.9930   44.8790 H   0  0  0  0  0  0  0  0  0  0  0  0
   57.1164   33.9946   44.2202 H   0  0  0  0  0  0  0  0  0  0  0  0
   58.4743   35.9713   44.8936 H   0  0  0  0  0  0  0  0  0  0  0  0
   60.4685   35.6628   46.3521 H   0  0  0  0  0  0  0  0  0  0  0  0
   60.2625   33.1872   49.1463 H   0  0  0  0  0  0  0  0  0  0  0  0
   62.2786   32.9560   50.5948 H   0  0  0  0  0  0  0  0  0  0  0  0
   64.5971   33.0534   50.8774 H   0  0  0  0  0  0  0  0  0  0  0  0
   65.3631   32.0398   49.6075 H   0  0  0  0  0  0  0  0  0  0  0  0
   65.6111   33.8188   49.6075 H   0  0  0  0  0  0  0  0  0  0  0  0
   64.8255   33.3819   47.1157 H   0  0  0  0  0  0  0  0  0  0  0  0
   62.8097   33.6104   45.6687 H   0  0  0  0  0  0  0  0  0  0  0  0
  1  2  1  0
  2  3  2  0
  2  4  1  0
  4  5  1  0
  5  6  2  0
  5  7  1  0
  7  8  2  0
  8  9  1  0
  9 10  2  0
 10 11  1  0
 11 12  1  0
 12 13  2  0
 13 14  1  0
 14 15  2  0
 15 16  1  0
 15 17  1  0
 17 18  2  0
 11 19  1  0
 19 20  2  0
 19  7  1  0
 18 12  1  0
  1 21  1  0
  1 22  1  0
  1 23  1  0
  4 24  1  0
  8 25  1  0
  9 26  1  0
 10 27  1  0
 13 28  1  0
 14 29  1  0
 16 30  1  0
 16 31  1  0
 16 32  1  0
 17 33  1  0
 18 34  1  0
M  END
>  <UniqueID>  (32) 
32

>  <SMILES>  (32) 
CC(=O)NC(=O)c1cccn(-c2ccc(C)cc2)c1=O

>  <Energy>  (32) 
45.501184029837965

>  <Genealogy>  (32) 
CC(=O)NC(=O)c1cccn(-c2ccc(C)cc2)c1=O (3D coordinates assigned)
CC(=O)NC(=O)c1cccn(-c2ccc(C)cc2)c1=O (optimized conformer: 45.501184029837965 kcal/mol)

>  <smiles>  (32) 
CC(=O)NC(=O)c1cccn(-c2ccc(C)cc2)c1=O

>  <score_type>  (32) 
oracle

>  <origin>  (32) 
adg

>  <m_score__min__energy>  (32) 
-7.4000000000000004

>  <m_primary>  (32) 
energy

$$$$
32:0
     RDKit          3D

 40 40  0  0  0  0  0  0  0  0999 V2000
   57.4670   31.0040   45.5760 N   0  0  0  0  0  0  0  0  0  0  0  0
   57.3290   31.4270   44.1850 C   0  0  0  0  0  0  0  0  0  0  0  0
   58.1220   32.7140   43.9140 C   0  0  0  0  0  0  0  0  0  0  0  0
   57.7620   33.8880   44.8400 C   0  0  0  0  0  0  0  0  0  0  0  0
   58.8580   34.9650   44.8880 C   0  0  0  0  0  0  0  0  0  0  0  0
   59.6700   34.9350   46.1960 C   0  0  0  0  0  0  0  0  0  0  0  0
   58.8910   34.4440   47.4310 C   0  0  0  0  0  0  0  0  0  0  0  0
   59.4450   33.1360   48.0090 C   0  0  0  0  0  0  0  0  0  0  0  0
   59.4350   32.0930   46.9750 N   0  0  0  0  0  0  0  0  0  0  0  0
   60.6310   31.2380   47.0440 C   0  0  0  0  0  0  0  0  0  0  0  0
   61.8550   32.0050   47.4870 C   0  0  0  0  0  0  0  0  0  0  0  0
   62.3210   33.0960   46.7350 C   0  0  0  0  0  0  0  0  0  0  0  0
   63.4380   33.8200   47.1630 C   0  0  0  0  0  0  0  0  0  0  0  0
   64.0930   33.4640   48.3450 C   0  0  0  0  0  0  0  0  0  0  0  0
   63.6310   32.3840   49.1020 C   0  0  0  0  0  0  0  0  0  0  0  0
   62.5130   31.6570   48.6780 C   0  0  0  0  0  0  0  0  0  0  0  0
   58.4380   30.6360   45.7020 H   0  0  0  0  0  0  0  0  0  0  0  0
   57.3990   31.8510   46.1850 H   0  0  0  0  0  0  0  0  0  0  0  0
   57.7054   30.6288   43.5283 H   0  0  0  0  0  0  0  0  0  0  0  0
   56.2655   31.6248   43.9852 H   0  0  0  0  0  0  0  0  0  0  0  0
   59.1920   32.4919   44.0399 H   0  0  0  0  0  0  0  0  0  0  0  0
   57.8675   33.0306   42.8917 H   0  0  0  0  0  0  0  0  0  0  0  0
   56.8314   34.3492   44.4776 H   0  0  0  0  0  0  0  0  0  0  0  0
   57.6479   33.4852   45.8572 H   0  0  0  0  0  0  0  0  0  0  0  0
   59.5453   34.8043   44.0443 H   0  0  0  0  0  0  0  0  0  0  0  0
   58.3612   35.9447   44.8300 H   0  0  0  0  0  0  0  0  0  0  0  0
   60.5320   34.2678   46.0480 H   0  0  0  0  0  0  0  0  0  0  0  0
   59.9567   35.9761   46.4055 H   0  0  0  0  0  0  0  0  0  0  0  0
   58.9421   35.2201   48.2088 H   0  0  0  0  0  0  0  0  0  0  0  0
   57.8566   34.2499   47.1113 H   0  0  0  0  0  0  0  0  0  0  0  0
   60.4765   33.2975   48.3552 H   0  0  0  0  0  0  0  0  0  0  0  0
   58.8169   32.8168   48.8537 H   0  0  0  0  0  0  0  0  0  0  0  0
   58.5820   31.4970   47.1000 H   0  0  0  0  0  0  0  0  0  0  0  0
   60.4441   30.4243   47.7603 H   0  0  0  0  0  0  0  0  0  0  0  0
   60.8248   30.8457   46.0348 H   0  0  0  0  0  0  0  0  0  0  0  0
   61.8055   33.3818   45.8063 H   0  0  0  0  0  0  0  0  0  0  0  0
   63.8017   34.6710   46.5684 H   0  0  0  0  0  0  0  0  0  0  0  0
   64.9723   34.0340   48.6796 H   0  0  0  0  0  0  0  0  0  0  0  0
   64.1469   32.1049   50.0326 H   0  0  0  0  0  0  0  0  0  0  0  0
   62.1486   30.8108   49.2790 H   0  0  0  0  0  0  0  0  0  0  0  0
  1  2  1  0
  2  3  1  0
  3  4  1  0
  4  5  1  0
  5  6  1  0
  6  7  1  0
  7  8  1  0
  8  9  1  0
  9 10  1  0
 10 11  1  0
 11 12  2  0
 12 13  1  0
 13 14  2  0
 14 15  1  0
 15 16  2  0
 16 11  1  0
  1 17  1  0
  1 18  1  0
  2 19  1  0
  2 20  1  0
  3 21  1  0
  3 22  1  0
  4 23  1  0
  4 24  1  0
  5 25  1  0
  5 26  1  0
  6 27  1  0
  6 28  1  0
  7 29  1  0
  7 30  1  0
  8 31  1  0
  8 32  1  0
  9 33  1  0
 10 34  1  0
 10 35  1  0
 12 36  1  0
 13 37  1  0
 14 38  1  0
 15 39  1  0
 16 40  1  0
M  END
>  <UniqueID>  (33) 
33

>  <SMILES>  (33) 
NCCCCCCCNCc1ccccc1

>  <Energy>  (33) 
26.162780293203905

>  <Genealogy>  (33) 
NCCCCCCCNCc1ccccc1 (3D coordinates assigned)
NCCCCCCCNCc1ccccc1 (optimized conformer: 26.162780293203905 kcal/mol)

>  <smiles>  (33) 
NCCCCCCCNCc1ccccc1

>  <score_type>  (33) 
oracle

>  <origin>  (33) 
adg

>  <m_score__min__energy>  (33) 
-6.6100000000000003

>  <m_primary>  (33) 
energy

$$$$
33:0
     RDKit          3D

 51 54  0  0  0  0  0  0  0  0999 V2000
   55.7570   24.7840   45.3370 C   0  0  0  0  0  0  0  0  0  0  0  0
   55.5940   26.1010   45.8560 O   0  0  0  0  0  0  0  0  0  0  0  0
   56.6530   26.9580   46.1860 C   0  0  0  0  0  0  0  0  0  0  0  0
   57.5610   26.5470   47.1670 C   0  0  0  0  0  0  0  0  0  0  0  0
   58.6270   27.3700   47.5380 C   0  0  0  0  0  0  0  0  0  0  0  0
   58.8090   28.6200   46.9210 C   0  0  0  0  0  0  0  0  0  0  0  0
   59.9340   29.4970   47.3200 C   0  0  0  0  0  0  0  0  0  0  0  0
   60.5610   30.3240   46.3730 C   0  0  0  0  0  0  0  0  0  0  0  0
   61.6130   31.1630   46.7500 C   0  0  0  0  0  0  0  0  0  0  0  0
   62.0480   31.2030   48.0860 C   0  0  0  0  0  0  0  0  0  0  0  0
   63.0870   32.1200   48.4880 N   0  0  0  0  0  0  0  0  0  0  0  0
   62.5720   33.4940   48.6240 C   0  0  0  0  0  0  0  0  0  0  0  0
   61.5390   33.6140   49.7300 C   0  0  0  0  0  0  0  0  0  0  0  0
   61.9560   33.5030   51.0680 C   0  0  0  0  0  0  0  0  0  0  0  0
   61.0210   33.5060   52.1010 C   0  0  0  0  0  0  0  0  0  0  0  0
   59.6650   33.6090   51.7950 C   0  0  0  0  0  0  0  0  0  0  0  0
   59.2640   33.7120   50.5010 N   0  0  0  0  0  0  0  0  0  0  0  0
   60.1500   33.7280   49.4670 C   0  0  0  0  0  0  0  0  0  0  0  0
   59.6140   33.8360   48.0990 C   0  0  0  0  0  0  0  0  0  0  0  0
   58.6400   32.9270   47.6570 C   0  0  0  0  0  0  0  0  0  0  0  0
   58.1220   33.0280   46.3630 C   0  0  0  0  0  0  0  0  0  0  0  0
   58.5600   34.0460   45.5100 C   0  0  0  0  0  0  0  0  0  0  0  0
   59.5150   34.9680   45.9520 C   0  0  0  0  0  0  0  0  0  0  0  0
   60.0380   34.8670   47.2440 C   0  0  0  0  0  0  0  0  0  0  0  0
   61.4170   30.3790   49.0350 C   0  0  0  0  0  0  0  0  0  0  0  0
   60.3770   29.5280   48.6540 C   0  0  0  0  0  0  0  0  0  0  0  0
   57.9030   29.0290   45.9280 C   0  0  0  0  0  0  0  0  0  0  0  0
   56.8310   28.2090   45.5650 C   0  0  0  0  0  0  0  0  0  0  0  0
   55.8453   24.0702   46.1693 H   0  0  0  0  0  0  0  0  0  0  0  0
   54.8844   24.5222   44.7205 H   0  0  0  0  0  0  0  0  0  0  0  0
   56.6671   24.7429   44.7205 H   0  0  0  0  0  0  0  0  0  0  0  0
   57.4347   25.5671   47.6507 H   0  0  0  0  0  0  0  0  0  0  0  0
   59.3283   27.0380   48.3177 H   0  0  0  0  0  0  0  0  0  0  0  0
   60.2212   30.3110   45.3269 H   0  0  0  0  0  0  0  0  0  0  0  0
   62.1039   31.7963   45.9963 H   0  0  0  0  0  0  0  0  0  0  0  0
   63.4750   31.8160   49.4110 H   0  0  0  0  0  0  0  0  0  0  0  0
   63.8770   32.0960   47.8050 H   0  0  0  0  0  0  0  0  0  0  0  0
   63.4127   34.1663   48.8504 H   0  0  0  0  0  0  0  0  0  0  0  0
   62.0844   33.7665   47.6764 H   0  0  0  0  0  0  0  0  0  0  0  0
   63.0273   33.4132   51.3009 H   0  0  0  0  0  0  0  0  0  0  0  0
   61.3497   33.4278   53.1478 H   0  0  0  0  0  0  0  0  0  0  0  0
   58.9182   33.6069   52.6027 H   0  0  0  0  0  0  0  0  0  0  0  0
   58.2838   32.1336   48.3305 H   0  0  0  0  0  0  0  0  0  0  0  0
   57.3688   32.3058   46.0149 H   0  0  0  0  0  0  0  0  0  0  0  0
   58.1534   34.1219   44.4907 H   0  0  0  0  0  0  0  0  0  0  0  0
   59.8541   35.7723   45.2826 H   0  0  0  0  0  0  0  0  0  0  0  0
   60.7837   35.5967   47.5925 H   0  0  0  0  0  0  0  0  0  0  0  0
   61.7448   30.4049   50.0847 H   0  0  0  0  0  0  0  0  0  0  0  0
   59.9013   28.8776   49.4028 H   0  0  0  0  0  0  0  0  0  0  0  0
   58.0384   30.0018   45.4326 H   0  0  0  0  0  0  0  0  0  0  0  0
   56.1237   28.5422   44.7912 H   0  0  0  0  0  0  0  0  0  0  0  0
  1  2  1  0
  2  3  1  0
  3  4  2  0
  4  5  1  0
  5  6  2  0
  6  7  1  0
  7  8  2  0
  8  9  1  0
  9 10  2  0
 10 11  1  0
 11 12  1  0
 12 13  1  0
 13 14  2  0
 14 15  1  0
 15 16  2  0
 16 17  1  0
 17 18  2  0
 18 19  1  0
 19 20  2  0
 20 21  1  0
 21 22  2  0
 22 23  1  0
 23 24  2  0
 10 25  1  0
 25 26  2  0
  6 27  1  0
 27 28  2  0
 28  3  1  0
 26  7  1  0
 18 13  1  0
 24 19  1  0
  1 29  1  0
  1 30  1  0
  1 31  1  0
  4 32  1  0
  5 33  1  0
  8 34  1  0
  9 35  1  0
 11 36  1  0
 11 37  1  0
 12 38  1  0
 12 39  1  0
 14 40  1  0
 15 41  1  0
 16 42  1  0
 20 43  1  0
 21 44  1  0
 22 45  1  0
 23 46  1  0
 24 47  1  0
 25 48  1  0
 26 49  1  0
 27 50  1  0
 28 51  1  0
M  CHG  1  11   1
M  END
>  <UniqueID>  (34) 
34

>  <SMILES>  (34) 
COc1ccc(-c2ccc([NH2+]Cc3cccnc3-c3ccccc3)cc2)cc1

>  <Energy>  (34) 
68.72586727601407

>  <Genealogy>  (34) 
COc1ccc(-c2ccc([NH2+]Cc3cccnc3-c3ccccc3)cc2)cc1 (protonated)
COc1ccc(-c2ccc([NH2+]Cc3cccnc3-c3ccccc3)cc2)cc1 (3D coordinates assigned)
COc1ccc(-c2ccc([NH2+]Cc3cccnc3-c3ccccc3)cc2)cc1 (optimized conformer: 68.72586727601407 kcal/mol)

>  <smiles>  (34) 
COc1ccc(-c2ccc(NCc3cccnc3-c3ccccc3)cc2)cc1

>  <score_type>  (34) 
oracle

>  <origin>  (34) 
adg

>  <m_score__min__energy>  (34) 
-7.46

>  <m_primary>  (34) 
energy

$$$$
34:0
     RDKit          3D

 46 48  0  0  0  0  0  0  0  0999 V2000
   55.8700   30.0640   43.7690 C   0  0  0  0  0  0  0  0  0  0  0  0
   57.3150   30.1890   44.2430 C   0  0  0  0  0  0  0  0  0  0  0  0
   57.4020   30.0070   45.6560 O   0  0  0  0  0  0  0  0  0  0  0  0
   58.5230   30.2970   46.4510 C   0  0  0  0  0  0  0  0  0  0  0  0
   59.6440   31.0000   45.9640 C   0  0  0  0  0  0  0  0  0  0  0  0
   60.7310   31.2610   46.8020 C   0  0  0  0  0  0  0  0  0  0  0  0
   60.7170   30.8270   48.1340 C   0  0  0  0  0  0  0  0  0  0  0  0
   62.0860   31.1880   49.1840 S   0  0  0  0  0  0  0  0  0  0  0  0
   63.3040   31.3740   48.3240 O   0  0  0  0  0  0  0  0  0  0  0  0
   62.3350   30.0330   50.1150 O   0  0  0  0  0  0  0  0  0  0  0  0
   61.7980   32.6540   50.1000 N   0  0  0  0  0  0  0  0  0  0  0  0
   62.3870   33.8420   49.4470 C   0  0  0  0  0  0  0  0  0  0  0  0
   61.6430   34.2230   48.1590 C   0  0  0  0  0  0  0  0  0  0  0  0
   60.1960   34.0500   48.3210 N   0  0  0  0  0  0  0  0  0  0  0  0
   59.3310   34.0860   47.1710 C   0  0  0  0  0  0  0  0  0  0  0  0
   59.7470   34.7280   45.9920 C   0  0  0  0  0  0  0  0  0  0  0  0
   58.9130   34.7590   44.8700 C   0  0  0  0  0  0  0  0  0  0  0  0
   57.6600   34.1440   44.9120 C   0  0  0  0  0  0  0  0  0  0  0  0
   57.2400   33.4950   46.0760 C   0  0  0  0  0  0  0  0  0  0  0  0
   58.0690   33.4610   47.2020 C   0  0  0  0  0  0  0  0  0  0  0  0
   57.6550   32.7930   48.3070 F   0  0  0  0  0  0  0  0  0  0  0  0
   59.6460   33.9310   49.6730 C   0  0  0  0  0  0  0  0  0  0  0  0
   60.3630   32.8080   50.4460 C   0  0  0  0  0  0  0  0  0  0  0  0
   59.6010   30.1350   48.6230 C   0  0  0  0  0  0  0  0  0  0  0  0
   58.5140   29.8730   47.7850 C   0  0  0  0  0  0  0  0  0  0  0  0
   55.2018   30.0062   44.6409 H   0  0  0  0  0  0  0  0  0  0  0  0
   55.6058   30.9426   43.1622 H   0  0  0  0  0  0  0  0  0  0  0  0
   55.7607   29.1530   43.1622 H   0  0  0  0  0  0  0  0  0  0  0  0
   57.9263   29.4237   43.7424 H   0  0  0  0  0  0  0  0  0  0  0  0
   57.6823   31.1955   43.9937 H   0  0  0  0  0  0  0  0  0  0  0  0
   59.6628   31.3445   44.9195 H   0  0  0  0  0  0  0  0  0  0  0  0
   61.6019   31.8098   46.4142 H   0  0  0  0  0  0  0  0  0  0  0  0
   62.3419   34.6898   50.1464 H   0  0  0  0  0  0  0  0  0  0  0  0
   63.4259   33.6001   49.1785 H   0  0  0  0  0  0  0  0  0  0  0  0
   61.8554   35.2751   47.9180 H   0  0  0  0  0  0  0  0  0  0  0  0
   61.9871   33.5662   47.3465 H   0  0  0  0  0  0  0  0  0  0  0  0
   60.7353   35.2093   45.9516 H   0  0  0  0  0  0  0  0  0  0  0  0
   59.2444   35.2685   43.9531 H   0  0  0  0  0  0  0  0  0  0  0  0
   57.0041   34.1704   44.0294 H   0  0  0  0  0  0  0  0  0  0  0  0
   56.2537   33.0090   46.1069 H   0  0  0  0  0  0  0  0  0  0  0  0
   59.7840   34.8834   50.2058 H   0  0  0  0  0  0  0  0  0  0  0  0
   58.5751   33.6894   49.6032 H   0  0  0  0  0  0  0  0  0  0  0  0
   60.2887   33.0271   51.5214 H   0  0  0  0  0  0  0  0  0  0  0  0
   59.8673   31.8660   50.1687 H   0  0  0  0  0  0  0  0  0  0  0  0
   59.5806   29.7970   49.6696 H   0  0  0  0  0  0  0  0  0  0  0  0
   57.6427   29.3282   48.1774 H   0  0  0  0  0  0  0  0  0  0  0  0
  1  2  1  0
  2  3  1  0
  3  4  1  0
  4  5  2  0
  5  6  1  0
  6  7  2  0
  7  8  1  0
  8  9  2  0
  8 10  2  0
  8 11  1  0
 11 12  1  0
 12 13  1  0
 13 14  1  0
 14 15  1  0
 15 16  2  0
 16 17  1  0
 17 18  2  0
 18 19  1  0
 19 20  2  0
 20 21  1  0
 14 22  1  0
 22 23  1  0
  7 24  1  0
 24 25  2  0
 25  4  1  0
 23 11  1  0
 20 15  1  0
  1 26  1  0
  1 27  1  0
  1 28  1  0
  2 29  1  0
  2 30  1  0
  5 31  1  0
  6 32  1  0
 12 33  1  0
 12 34  1  0
 13 35  1  0
 13 36  1  0
 16 37  1  0
 17 38  1  0
 18 39  1  0
 19 40  1  0
 22 41  1  0
 22 42  1  0
 23 43  1  0
 23 44  1  0
 24 45  1  0
 25 46  1  0
M  END
>  <UniqueID>  (35) 
35

>  <SMILES>  (35) 
CCOc1ccc(S(=O)(=O)N2CCN(c3ccccc3F)CC2)cc1

>  <Energy>  (35) 
56.43463227586527

>  <Genealogy>  (35) 
CCOc1ccc(S(=O)(=O)N2CCN(c3ccccc3F)CC2)cc1 (3D coordinates assigned)
CCOc1ccc(S(=O)(=O)N2CCN(c3ccccc3F)CC2)cc1 (nonaromatic ring conformer: 56.43463227586527 kcal/mol)

>  <smiles>  (35) 
CCOc1ccc(S(=O)(=O)N2CCN(c3ccccc3F)CC2)cc1

>  <score_type>  (35) 
oracle

>  <origin>  (35) 
adg

>  <m_score__min__energy>  (35) 
-6.79

>  <m_primary>  (35) 
energy

$$$$
35:0
     RDKit          3D

 46 47  0  0  0  0  0  0  0  0999 V2000
   58.6038   26.4569   47.7323 H   0  0  0  0  0  0  0  0  0  0  0  0
   58.3720   27.2660   47.0240 C   0  0  0  0  0  0  0  0  0  0  0  0
   59.1230   28.3960   47.0160 N   0  0  0  0  0  0  0  0  0  0  0  0
   58.8720   29.4320   46.1630 C   0  0  0  0  0  0  0  0  0  0  0  0
   59.6280   30.4910   46.1760 N   0  0  0  0  0  0  0  0  0  0  0  0
   60.7700   30.7000   47.0650 C   0  0  0  0  0  0  0  0  0  0  0  0
   61.6252   30.1163   46.6935 H   0  0  0  0  0  0  0  0  0  0  0  0
   60.4874   30.3739   48.0768 H   0  0  0  0  0  0  0  0  0  0  0  0
   61.1640   32.1820   47.1250 C   0  0  0  0  0  0  0  0  0  0  0  0
   60.3031   32.7716   47.4733 H   0  0  0  0  0  0  0  0  0  0  0  0
   61.4670   32.5104   46.1198 H   0  0  0  0  0  0  0  0  0  0  0  0
   62.3040   32.3810   48.0600 N   0  0  0  0  0  0  0  0  0  0  0  0
   62.0200   33.4530   49.0430 C   0  0  0  0  0  0  0  0  0  0  0  0
   62.1817   34.4299   48.5639 H   0  0  0  0  0  0  0  0  0  0  0  0
   62.6950   33.3230   49.9018 H   0  0  0  0  0  0  0  0  0  0  0  0
   60.5790   33.3790   49.5480 C   0  0  0  0  0  0  0  0  0  0  0  0
   60.5755   33.3788   50.6480 H   0  0  0  0  0  0  0  0  0  0  0  0
   60.0162   34.2494   49.1797 H   0  0  0  0  0  0  0  0  0  0  0  0
   60.1084   32.4555   49.1797 H   0  0  0  0  0  0  0  0  0  0  0  0
   63.5610   32.6910   47.3380 C   0  0  0  0  0  0  0  0  0  0  0  0
   64.3353   32.9594   48.0718 H   0  0  0  0  0  0  0  0  0  0  0  0
   63.8512   31.7999   46.7621 H   0  0  0  0  0  0  0  0  0  0  0  0
   63.3860   33.8510   46.3580 C   0  0  0  0  0  0  0  0  0  0  0  0
   63.2448   34.7867   46.9188 H   0  0  0  0  0  0  0  0  0  0  0  0
   64.2817   33.9345   45.7250 H   0  0  0  0  0  0  0  0  0  0  0  0
   62.5055   33.6665   45.7250 H   0  0  0  0  0  0  0  0  0  0  0  0
   57.7920   29.3400   45.2580 C   0  0  0  0  0  0  0  0  0  0  0  0
   57.4750   30.4350   44.2640 C   0  0  0  0  0  0  0  0  0  0  0  0
   58.3916   30.7016   43.7174 H   0  0  0  0  0  0  0  0  0  0  0  0
   56.7064   30.0666   43.5686 H   0  0  0  0  0  0  0  0  0  0  0  0
   56.9720   31.5950   44.9270 O   0  0  0  0  0  0  0  0  0  0  0  0
   57.7430   32.7010   45.3200 C   0  0  0  0  0  0  0  0  0  0  0  0
   57.7410   33.0620   46.6740 C   0  0  0  0  0  0  0  0  0  0  0  0
   57.1416   32.4833   47.3922 H   0  0  0  0  0  0  0  0  0  0  0  0
   58.4950   34.1520   47.1190 C   0  0  0  0  0  0  0  0  0  0  0  0
   58.4881   34.4264   48.1842 H   0  0  0  0  0  0  0  0  0  0  0  0
   59.2570   34.8930   46.2130 C   0  0  0  0  0  0  0  0  0  0  0  0
   59.8510   35.7495   46.5644 H   0  0  0  0  0  0  0  0  0  0  0  0
   59.2640   34.5450   44.8590 C   0  0  0  0  0  0  0  0  0  0  0  0
   59.8631   35.1292   44.1450 H   0  0  0  0  0  0  0  0  0  0  0  0
   58.5110   33.4560   44.4110 C   0  0  0  0  0  0  0  0  0  0  0  0
   58.5179   33.1871   43.3444 H   0  0  0  0  0  0  0  0  0  0  0  0
   57.0220   28.1650   45.2490 C   0  0  0  0  0  0  0  0  0  0  0  0
   56.1891   28.0619   44.5379 H   0  0  0  0  0  0  0  0  0  0  0  0
   57.3080   27.1300   46.1360 C   0  0  0  0  0  0  0  0  0  0  0  0
   56.6992   26.2138   46.1351 H   0  0  0  0  0  0  0  0  0  0  0  0
  1  2  1  0
  2  3  1  0
  3  4  1  0
  4  5  2  0
  5  6  1  0
  6  7  1  0
  6  8  1  0
  6  9  1  0
  9 10  1  0
  9 11  1  0
  9 12  1  0
 12 13  1  0
 13 14  1  0
 13 15  1  0
 13 16  1  0
 16 17  1  0
 16 18  1  0
 16 19  1  0
 12 20  1  0
 20 21  1  0
 20 22  1  0
 20 23  1  0
 23 24  1  0
 23 25  1  0
 23 26  1  0
  4 27  1  0
 27 28  1  0
 28 29  1  0
 28 30  1  0
 28 31  1  0
 31 32  1  0
 32 33  2  0
 33 34  1  0
 33 35  1  0
 35 36  1  0
 35 37  2  0
 37 38  1  0
 37 39  1  0
 39 40  1  0
 39 41  2  0
 41 42  1  0
 27 43  2  0
 43 44  1  0
 43 45  1  0
 45 46  1  0
 45  2  2  0
 41 32  1  0
M  CHG  1   3  -1
M  END
>  <UniqueID>  (36) 
36

>  <SMILES>  (36) 
CCN(CC)CC/N=c1\[n-]cccc1COc1ccccc1

>  <Energy>  (36) 
44.88142478309387

>  <Genealogy>  (36) 
CCN(CC)CCN=c1[n-]cccc1COc1ccccc1 (protonated)
CCN(CC)CC/N=c1\[n-]cccc1COc1ccccc1 (cis-trans isomerization)
CCN(CC)CC/N=c1\[n-]cccc1COc1ccccc1 (3D coordinates assigned)
CCN(CC)CC/N=c1\[n-]cccc1COc1ccccc1 (optimized conformer: 44.88142478309387 kcal/mol)

>  <smiles>  (36) 
CCN(CC)CCN=c1[nH]cccc1COc1ccccc1

>  <score_type>  (36) 
oracle

>  <origin>  (36) 
adg

>  <m_score__min__energy>  (36) 
-8.4600000000000009

>  <m_primary>  (36) 
energy

$$$$
36:0
     RDKit          3D

 41 42  0  0  0  0  0  0  0  0999 V2000
   58.9070   34.5310   46.1160 C   0  0  0  0  0  0  0  0  0  0  0  0
   58.0870   33.4270   46.7740 C   0  0  0  0  0  0  0  0  0  0  0  0
   58.5140   32.1010   46.2820 N   0  0  0  0  0  0  0  0  0  0  0  0
   59.6360   31.4820   46.8020 C   0  0  0  0  0  0  0  0  0  0  0  0
   60.6560   32.2490   48.0790 S   0  0  0  0  0  0  0  0  0  0  0  0
   62.2240   31.4990   47.5030 C   0  0  0  0  0  0  0  0  0  0  0  0
   63.4310   31.9680   48.3360 C   0  0  0  0  0  0  0  0  0  0  0  0
   63.7350   33.3980   48.1040 N   0  0  0  0  0  0  0  0  0  0  0  0
   63.0130   34.2260   49.0830 C   0  0  0  0  0  0  0  0  0  0  0  0
   63.3540   33.8100   46.7410 C   0  0  0  0  0  0  0  0  0  0  0  0
   60.0010   30.2420   46.3750 N   0  0  0  0  0  0  0  0  0  0  0  0
   59.2640   29.6180   45.4340 C   0  0  0  0  0  0  0  0  0  0  0  0
   59.5560   28.1030   44.7860 S   0  0  0  0  0  0  0  0  0  0  0  0
   58.2080   28.1350   43.7650 C   0  0  0  0  0  0  0  0  0  0  0  0
   57.8400   27.0200   42.8390 C   0  0  0  0  0  0  0  0  0  0  0  0
   57.5160   29.3470   43.9290 C   0  0  0  0  0  0  0  0  0  0  0  0
   56.2670   29.7080   43.1750 C   0  0  0  0  0  0  0  0  0  0  0  0
   58.1350   30.1810   44.8860 C   0  0  0  0  0  0  0  0  0  0  0  0
   57.7490   31.4530   45.3340 C   0  0  0  0  0  0  0  0  0  0  0  0
   56.7050   31.9930   44.8740 O   0  0  0  0  0  0  0  0  0  0  0  0
   59.3711   35.1559   46.8933 H   0  0  0  0  0  0  0  0  0  0  0  0
   59.6918   34.0813   45.4900 H   0  0  0  0  0  0  0  0  0  0  0  0
   58.2498   35.1524   45.4900 H   0  0  0  0  0  0  0  0  0  0  0  0
   58.2290   33.4715   47.8639 H   0  0  0  0  0  0  0  0  0  0  0  0
   57.0262   33.5745   46.5230 H   0  0  0  0  0  0  0  0  0  0  0  0
   62.1432   30.4047   47.5806 H   0  0  0  0  0  0  0  0  0  0  0  0
   62.3879   31.8144   46.4620 H   0  0  0  0  0  0  0  0  0  0  0  0
   63.2069   31.8199   49.4027 H   0  0  0  0  0  0  0  0  0  0  0  0
   64.3077   31.3776   48.0312 H   0  0  0  0  0  0  0  0  0  0  0  0
   63.2866   33.9123   50.1012 H   0  0  0  0  0  0  0  0  0  0  0  0
   63.2833   35.2826   48.9398 H   0  0  0  0  0  0  0  0  0  0  0  0
   61.9294   34.1021   48.9398 H   0  0  0  0  0  0  0  0  0  0  0  0
   62.6081   34.6166   46.7968 H   0  0  0  0  0  0  0  0  0  0  0  0
   64.2442   34.1702   46.2045 H   0  0  0  0  0  0  0  0  0  0  0  0
   62.9254   32.9507   46.2045 H   0  0  0  0  0  0  0  0  0  0  0  0
   57.5485   26.1367   43.4263 H   0  0  0  0  0  0  0  0  0  0  0  0
   56.9975   27.3330   42.2048 H   0  0  0  0  0  0  0  0  0  0  0  0
   58.7033   26.7700   42.2048 H   0  0  0  0  0  0  0  0  0  0  0  0
   55.4625   29.9405   43.8882 H   0  0  0  0  0  0  0  0  0  0  0  0
   56.4616   30.5867   42.5425 H   0  0  0  0  0  0  0  0  0  0  0  0
   55.9628   28.8610   42.5425 H   0  0  0  0  0  0  0  0  0  0  0  0
  1  2  1  0
  2  3  1  0
  3  4  1  0
  4  5  1  0
  5  6  1  0
  6  7  1  0
  7  8  1  0
  8  9  1  0
  8 10  1  0
  4 11  2  0
 11 12  1  0
 12 13  1  0
 13 14  1  0
 14 15  1  0
 14 16  2  0
 16 17  1  0
 16 18  1  0
 18 19  1  0
 19 20  2  0
 19  3  1  0
 18 12  2  0
  1 21  1  0
  1 22  1  0
  1 23  1  0
  2 24  1  0
  2 25  1  0
  6 26  1  0
  6 27  1  0
  7 28  1  0
  7 29  1  0
  9 30  1  0
  9 31  1  0
  9 32  1  0
 10 33  1  0
 10 34  1  0
 10 35  1  0
 15 36  1  0
 15 37  1  0
 15 38  1  0
 17 39  1  0
 17 40  1  0
 17 41  1  0
M  END
>  <UniqueID>  (37) 
37

>  <SMILES>  (37) 
CCn1c(SCCN(C)C)nc2sc(C)c(C)c2c1=O

>  <Energy>  (37) 
72.15557559972896

>  <Genealogy>  (37) 
CCn1c(SCCN(C)C)nc2sc(C)c(C)c2c1=O (3D coordinates assigned)
CCn1c(SCCN(C)C)nc2sc(C)c(C)c2c1=O (optimized conformer: 72.15557559972896 kcal/mol)

>  <smiles>  (37) 
CCn1c(SCCN(C)C)nc2sc(C)c(C)c2c1=O

>  <score_type>  (37) 
oracle

>  <origin>  (37) 
adg

>  <m_score__min__energy>  (37) 
-6.6699999999999999

>  <m_primary>  (37) 
energy

$$$$
37:0
     RDKit          3D

 41 42  0  0  0  0  0  0  0  0999 V2000
   59.6240   34.5870   48.2920 C   0  0  0  0  0  0  0  0  0  0  0  0
   60.6760   33.5240   48.1190 C   0  0  0  0  0  0  0  0  0  0  0  0
   61.9090   33.6630   48.7790 C   0  0  0  0  0  0  0  0  0  0  0  0
   62.9120   32.7050   48.6190 C   0  0  0  0  0  0  0  0  0  0  0  0
   64.5800   32.9070   49.5280 Br  0  0  0  0  0  0  0  0  0  0  0  0
   62.7020   31.6070   47.7850 C   0  0  0  0  0  0  0  0  0  0  0  0
   61.4860   31.4610   47.1130 C   0  0  0  0  0  0  0  0  0  0  0  0
   60.4570   32.4050   47.2790 C   0  0  0  0  0  0  0  0  0  0  0  0
   59.2200   32.2640   46.5550 N   0  0  0  0  0  0  0  0  0  0  0  0
   58.7940   33.1620   45.5160 C   0  0  0  0  0  0  0  0  0  0  0  0
   59.5470   34.0960   45.1290 O   0  0  0  0  0  0  0  0  0  0  0  0
   57.4340   33.0000   44.9000 C   0  0  0  0  0  0  0  0  0  0  0  0
   57.3820   31.8260   44.0170 N   0  0  0  0  0  0  0  0  0  0  0  0
   57.8120   31.9440   42.6220 C   0  0  0  0  0  0  0  0  0  0  0  0
   56.7720   30.5980   44.4590 C   0  0  0  0  0  0  0  0  0  0  0  0
   55.5150   30.5070   44.4990 O   0  0  0  0  0  0  0  0  0  0  0  0
   57.5850   29.4370   44.8740 C   0  0  0  0  0  0  0  0  0  0  0  0
   58.9610   29.4050   44.6080 C   0  0  0  0  0  0  0  0  0  0  0  0
   59.7230   28.2960   44.9770 C   0  0  0  0  0  0  0  0  0  0  0  0
   59.1190   27.2100   45.6160 C   0  0  0  0  0  0  0  0  0  0  0  0
   57.7370   27.2160   45.8780 C   0  0  0  0  0  0  0  0  0  0  0  0
   57.1090   26.0950   46.5280 N   0  0  0  0  0  0  0  0  0  0  0  0
   55.8820   25.8970   46.4110 O   0  0  0  0  0  0  0  0  0  0  0  0
   57.8530   25.2220   47.2880 O   0  0  0  0  0  0  0  0  0  0  0  0
   56.9750   28.3350   45.4930 C   0  0  0  0  0  0  0  0  0  0  0  0
   59.4516   34.7612   49.3644 H   0  0  0  0  0  0  0  0  0  0  0  0
   59.9643   35.5200   47.8190 H   0  0  0  0  0  0  0  0  0  0  0  0
   58.6875   34.2565   47.8190 H   0  0  0  0  0  0  0  0  0  0  0  0
   62.0853   34.5340   49.4272 H   0  0  0  0  0  0  0  0  0  0  0  0
   63.4946   30.8552   47.6563 H   0  0  0  0  0  0  0  0  0  0  0  0
   61.3319   30.5990   46.4473 H   0  0  0  0  0  0  0  0  0  0  0  0
   58.6260   31.4270   46.7480 H   0  0  0  0  0  0  0  0  0  0  0  0
   56.6903   32.8785   45.7013 H   0  0  0  0  0  0  0  0  0  0  0  0
   57.2171   33.8954   44.2989 H   0  0  0  0  0  0  0  0  0  0  0  0
   58.8723   32.2350   42.5885 H   0  0  0  0  0  0  0  0  0  0  0  0
   57.6810   30.9767   42.1149 H   0  0  0  0  0  0  0  0  0  0  0  0
   57.2057   32.7090   42.1149 H   0  0  0  0  0  0  0  0  0  0  0  0
   59.4419   30.2577   44.1063 H   0  0  0  0  0  0  0  0  0  0  0  0
   60.8021   28.2765   44.7643 H   0  0  0  0  0  0  0  0  0  0  0  0
   59.7283   26.3447   45.9161 H   0  0  0  0  0  0  0  0  0  0  0  0
   55.8909   28.3459   45.6791 H   0  0  0  0  0  0  0  0  0  0  0  0
  1  2  1  0
  2  3  2  0
  3  4  1  0
  4  5  1  0
  4  6  2  0
  6  7  1  0
  7  8  2  0
  8  9  1  0
  9 10  1  0
 10 11  2  0
 10 12  1  0
 12 13  1  0
 13 14  1  0
 13 15  1  0
 15 16  2  0
 15 17  1  0
 17 18  2  0
 18 19  1  0
 19 20  2  0
 20 21  1  0
 21 22  1  0
 22 23  2  0
 22 24  1  0
 21 25  2  0
  8  2  1  0
 25 17  1  0
  1 26  1  0
  1 27  1  0
  1 28  1  0
  3 29  1  0
  6 30  1  0
  7 31  1  0
  9 32  1  0
 12 33  1  0
 12 34  1  0
 14 35  1  0
 14 36  1  0
 14 37  1  0
 18 38  1  0
 19 39  1  0
 20 40  1  0
 25 41  1  0
M  CHG  2  22   1  24  -1
M  END
>  <UniqueID>  (38) 
38

>  <SMILES>  (38) 
Cc1cc(Br)ccc1NC(=O)CN(C)C(=O)c1cccc([N+](=O)[O-])c1

>  <Energy>  (38) 
48.5439035487

>  <Genealogy>  (38) 
Cc1cc(Br)ccc1NC(=O)CN(C)C(=O)c1cccc([N+](=O)[O-])c1 (3D coordinates assigned)
Cc1cc(Br)ccc1NC(=O)CN(C)C(=O)c1cccc([N+](=O)[O-])c1 (optimized conformer: 48.5439035487 kcal/mol)

>  <smiles>  (38) 
Cc1cc(Br)ccc1NC(=O)CN(C)C(=O)c1cccc([N+](=O)[O-])c1

>  <score_type>  (38) 
oracle

>  <origin>  (38) 
adg

>  <m_score__min__energy>  (38) 
-9.0099999999999998

>  <m_primary>  (38) 
energy

$$$$
38:0
     RDKit          3D

 56 58  0  0  0  0  0  0  0  0999 V2000
   62.2150   33.4680   52.1180 C   0  0  0  0  0  0  0  0  0  0  0  0
   61.4110   33.4180   50.9440 O   0  0  0  0  0  0  0  0  0  0  0  0
   60.8720   32.2430   50.3970 C   0  0  0  0  0  0  0  0  0  0  0  0
   59.5570   31.8210   50.6820 C   0  0  0  0  0  0  0  0  0  0  0  0
   59.0630   30.6330   50.1330 C   0  0  0  0  0  0  0  0  0  0  0  0
   59.8710   29.8560   49.3010 C   0  0  0  0  0  0  0  0  0  0  0  0
   61.1720   30.2680   49.0050 C   0  0  0  0  0  0  0  0  0  0  0  0
   61.6710   31.4640   49.5380 C   0  0  0  0  0  0  0  0  0  0  0  0
   63.3380   31.9900   49.1070 S   0  0  0  0  0  0  0  0  0  0  0  0
   62.8460   32.8310   47.5570 C   0  0  0  0  0  0  0  0  0  0  0  0
   61.4720   33.5140   47.7010 C   0  0  1  0  0  0  0  0  0  0  0  0
   61.5630   34.6000   48.5880 O   0  0  0  0  0  0  0  0  0  0  0  0
   60.8840   33.9890   46.3460 C   0  0  0  0  0  0  0  0  0  0  0  0
   59.5190   34.5860   46.4180 N   0  0  0  0  0  0  0  0  0  0  0  0
   58.7180   33.9290   47.4930 C   0  0  0  0  0  0  0  0  0  0  0  0
   57.7800   32.8100   46.9840 C   0  0  0  0  0  0  0  0  0  0  0  0
   58.2850   32.2390   45.7320 N   0  0  0  0  0  0  0  0  0  0  0  0
   58.6680   30.8490   45.6510 C   0  0  0  0  0  0  0  0  0  0  0  0
   59.9740   30.4640   46.0070 C   0  0  0  0  0  0  0  0  0  0  0  0
   60.3710   29.1290   45.9130 C   0  0  0  0  0  0  0  0  0  0  0  0
   59.4740   28.1630   45.4580 C   0  0  0  0  0  0  0  0  0  0  0  0
   58.1740   28.5290   45.0990 C   0  0  0  0  0  0  0  0  0  0  0  0
   57.7560   29.8710   45.1940 C   0  0  0  0  0  0  0  0  0  0  0  0
   56.4480   30.2600   44.8620 O   0  0  0  0  0  0  0  0  0  0  0  0
   55.8410   30.0570   43.5890 C   0  0  0  0  0  0  0  0  0  0  0  0
   58.5500   33.1500   44.6120 C   0  0  0  0  0  0  0  0  0  0  0  0
   58.7820   34.5800   45.1290 C   0  0  0  0  0  0  0  0  0  0  0  0
   61.5686   33.4278   53.0071 H   0  0  0  0  0  0  0  0  0  0  0  0
   62.9045   32.6110   52.1270 H   0  0  0  0  0  0  0  0  0  0  0  0
   62.7931   34.4038   52.1270 H   0  0  0  0  0  0  0  0  0  0  0  0
   58.9170   32.4285   51.3388 H   0  0  0  0  0  0  0  0  0  0  0  0
   58.0356   30.3103   50.3574 H   0  0  0  0  0  0  0  0  0  0  0  0
   59.4823   28.9179   48.8780 H   0  0  0  0  0  0  0  0  0  0  0  0
   61.8070   29.6518   48.3515 H   0  0  0  0  0  0  0  0  0  0  0  0
   63.5999   33.5922   47.3077 H   0  0  0  0  0  0  0  0  0  0  0  0
   62.7761   32.0760   46.7600 H   0  0  0  0  0  0  0  0  0  0  0  0
   60.7832   32.7555   48.1012 H   0  0  0  0  0  0  0  0  0  0  0  0
   61.7200   34.2380   49.4980 H   0  0  0  0  0  0  0  0  0  0  0  0
   61.5640   34.7452   45.9268 H   0  0  0  0  0  0  0  0  0  0  0  0
   60.7894   33.0876   45.7227 H   0  0  0  0  0  0  0  0  0  0  0  0
   59.6310   35.5850   46.7050 H   0  0  0  0  0  0  0  0  0  0  0  0
   59.4136   33.4913   48.2241 H   0  0  0  0  0  0  0  0  0  0  0  0
   58.0761   34.7070   47.9320 H   0  0  0  0  0  0  0  0  0  0  0  0
   57.7190   32.0168   47.7437 H   0  0  0  0  0  0  0  0  0  0  0  0
   56.7845   33.2401   46.7999 H   0  0  0  0  0  0  0  0  0  0  0  0
   60.6881   31.2215   46.3624 H   0  0  0  0  0  0  0  0  0  0  0  0
   61.3929   28.8386   46.1982 H   0  0  0  0  0  0  0  0  0  0  0  0
   59.7900   27.1121   45.3816 H   0  0  0  0  0  0  0  0  0  0  0  0
   57.4713   27.7630   44.7393 H   0  0  0  0  0  0  0  0  0  0  0  0
   54.8061   29.7109   43.7273 H   0  0  0  0  0  0  0  0  0  0  0  0
   55.8393   31.0035   43.0285 H   0  0  0  0  0  0  0  0  0  0  0  0
   56.4090   29.2999   43.0285 H   0  0  0  0  0  0  0  0  0  0  0  0
   59.4459   32.8098   44.0719 H   0  0  0  0  0  0  0  0  0  0  0  0
   57.6805   33.1503   43.9382 H   0  0  0  0  0  0  0  0  0  0  0  0
   59.3655   35.1386   44.3823 H   0  0  0  0  0  0  0  0  0  0  0  0
   57.8003   35.0483   45.2935 H   0  0  0  0  0  0  0  0  0  0  0  0
  1  2  1  0
  2  3  1  0
  3  4  2  0
  4  5  1  0
  5  6  2  0
  6  7  1  0
  7  8  2  0
  8  9  1  0
  9 10  1  0
 10 11  1  0
 11 12  1  0
 11 13  1  0
 13 14  1  0
 14 15  1  0
 15 16  1  0
 16 17  1  0
 17 18  1  0
 18 19  2  0
 19 20  1  0
 20 21  2  0
 21 22  1  0
 22 23  2  0
 23 24  1  0
 24 25  1  0
 17 26  1  0
 26 27  1  0
  8  3  1  0
 27 14  1  0
 23 18  1  0
  1 28  1  0
  1 29  1  0
  1 30  1  0
  4 31  1  0
  5 32  1  0
  6 33  1  0
  7 34  1  0
 10 35  1  0
 10 36  1  0
 11 37  1  1
 12 38  1  0
 13 39  1  0
 13 40  1  0
 14 41  1  0
 15 42  1  0
 15 43  1  0
 16 44  1  0
 16 45  1  0
 19 46  1  0
 20 47  1  0
 21 48  1  0
 22 49  1  0
 25 50  1  0
 25 51  1  0
 25 52  1  0
 26 53  1  0
 26 54  1  0
 27 55  1  0
 27 56  1  0
M  CHG  1  14   1
M  END
>  <UniqueID>  (39) 
39

>  <SMILES>  (39) 
COc1ccccc1SC[C@@H](O)C[NH+]1CCN(c2ccccc2OC)CC1

>  <Energy>  (39) 
65.64668114414889

>  <Genealogy>  (39) 
COc1ccccc1SCC(O)C[NH+]1CCN(c2ccccc2OC)CC1 (protonated)
COc1ccccc1SC[C@@H](O)C[NH+]1CCN(c2ccccc2OC)CC1 (chirality)
COc1ccccc1SC[C@@H](O)C[NH+]1CCN(c2ccccc2OC)CC1 (3D coordinates assigned)
COc1ccccc1SC[C@@H](O)C[NH+]1CCN(c2ccccc2OC)CC1 (nonaromatic ring conformer: 65.64668114414889 kcal/mol)

>  <smiles>  (39) 
COc1ccccc1SCC(O)CN1CCN(c2ccccc2OC)CC1

>  <score_type>  (39) 
oracle

>  <origin>  (39) 
adg

>  <m_score__min__energy>  (39) 
-6.9500000000000002

>  <m_primary>  (39) 
energy

$$$$
39:0
     RDKit          3D

 50 51  0  0  0  0  0  0  0  0999 V2000
   57.4910   34.6720   47.2777 H   0  0  0  0  0  0  0  0  0  0  0  0
   58.4670   34.1910   47.1160 C   0  0  0  0  0  0  0  0  0  0  0  0
   59.7740   34.8590   46.3100 S   0  0  0  0  0  0  0  0  0  0  0  0
   60.7630   33.5230   46.5360 C   0  0  0  0  0  0  0  0  0  0  0  0
   61.9850   33.5080   46.0800 N   0  0  0  0  0  0  0  0  0  0  0  0
   63.2430   33.8630   46.7260 C   0  0  0  0  0  0  0  0  0  0  0  0
   63.9955   34.0911   45.9568 H   0  0  0  0  0  0  0  0  0  0  0  0
   63.0837   34.7435   47.3659 H   0  0  0  0  0  0  0  0  0  0  0  0
   63.7380   32.6970   47.5900 C   0  0  0  0  0  0  0  0  0  0  0  0
   63.2987   31.7660   47.2023 H   0  0  0  0  0  0  0  0  0  0  0  0
   64.8365   32.6971   47.5328 H   0  0  0  0  0  0  0  0  0  0  0  0
   63.3640   32.8290   49.0760 C   0  0  0  0  0  0  0  0  0  0  0  0
   62.6805   32.0083   49.3394 H   0  0  0  0  0  0  0  0  0  0  0  0
   64.2986   32.7879   49.6547 H   0  0  0  0  0  0  0  0  0  0  0  0
   62.6810   34.1560   49.4060 C   0  0  0  0  0  0  0  0  0  0  0  0
   62.6196   34.2752   50.4978 H   0  0  0  0  0  0  0  0  0  0  0  0
   63.2645   34.9849   48.9788 H   0  0  0  0  0  0  0  0  0  0  0  0
   61.6673   34.1628   48.9788 H   0  0  0  0  0  0  0  0  0  0  0  0
   60.1100   32.5390   47.2350 N   0  0  0  0  0  0  0  0  0  0  0  0
   60.5650   31.1790   47.5630 C   0  0  0  0  0  0  0  0  0  0  0  0
   60.0542   30.8373   48.4753 H   0  0  0  0  0  0  0  0  0  0  0  0
   61.6536   31.1980   47.7201 H   0  0  0  0  0  0  0  0  0  0  0  0
   60.2560   30.2340   46.4430 C   0  0  0  0  0  0  0  0  0  0  0  0
   61.1840   29.6320   45.6690 N   0  0  0  0  0  0  0  0  0  0  0  0
   60.5140   28.9300   44.7690 N   0  0  0  0  0  0  0  0  0  0  0  0
   60.9640   28.3360   44.0370 H   0  0  0  0  0  0  0  0  0  0  0  0
   59.2080   29.0730   44.9270 N   0  0  0  0  0  0  0  0  0  0  0  0
   58.1850   28.3690   44.1590 C   0  0  0  0  0  0  0  0  0  0  0  0
   58.0503   27.3605   44.5771 H   0  0  0  0  0  0  0  0  0  0  0  0
   58.5109   28.3081   43.1102 H   0  0  0  0  0  0  0  0  0  0  0  0
   56.8480   29.1200   44.2160 C   0  0  0  0  0  0  0  0  0  0  0  0
   56.9190   29.9147   44.9733 H   0  0  0  0  0  0  0  0  0  0  0  0
   56.0616   28.3949   44.4727 H   0  0  0  0  0  0  0  0  0  0  0  0
   56.4860   29.7540   42.8640 C   0  0  0  0  0  0  0  0  0  0  0  0
   55.3904   29.7738   42.7673 H   0  0  0  0  0  0  0  0  0  0  0  0
   56.9544   29.1450   42.0768 H   0  0  0  0  0  0  0  0  0  0  0  0
   57.0180   31.1890   42.7170 C   0  0  0  0  0  0  0  0  0  0  0  0
   56.2430   31.8002   42.2314 H   0  0  0  0  0  0  0  0  0  0  0  0
   57.9395   31.1342   42.1188 H   0  0  0  0  0  0  0  0  0  0  0  0
   57.3870   31.8460   44.0630 C   0  0  0  0  0  0  0  0  0  0  0  0
   57.9501   31.1196   44.6674 H   0  0  0  0  0  0  0  0  0  0  0  0
   56.4506   32.1440   44.5573 H   0  0  0  0  0  0  0  0  0  0  0  0
   58.2390   33.1020   43.8870 C   0  0  0  0  0  0  0  0  0  0  0  0
   58.5105   33.5023   44.8750 H   0  0  0  0  0  0  0  0  0  0  0  0
   59.1532   32.8498   43.3297 H   0  0  0  0  0  0  0  0  0  0  0  0
   57.6667   33.8582   43.3297 H   0  0  0  0  0  0  0  0  0  0  0  0
   59.0030   29.8950   45.9700 C   0  0  0  0  0  0  0  0  0  0  0  0
   58.0335   30.2302   46.3670 H   0  0  0  0  0  0  0  0  0  0  0  0
   58.8340   32.9220   47.5440 C   0  0  0  0  0  0  0  0  0  0  0  0
   58.1433   32.2674   48.0957 H   0  0  0  0  0  0  0  0  0  0  0  0
  1  2  1  0
  2  3  1  0
  3  4  1  0
  4  5  2  0
  5  6  1  0
  6  7  1  0
  6  8  1  0
  6  9  1  0
  9 10  1  0
  9 11  1  0
  9 12  1  0
 12 13  1  0
 12 14  1  0
 12 15  1  0
 15 16  1  0
 15 17  1  0
 15 18  1  0
  4 19  1  0
 19 20  1  0
 20 21  1  0
 20 22  1  0
 20 23  1  0
 23 24  1  0
 24 25  2  0
 25 26  1  0
 25 27  1  0
 27 28  1  0
 28 29  1  0
 28 30  1  0
 28 31  1  0
 31 32  1  0
 31 33  1  0
 31 34  1  0
 34 35  1  0
 34 36  1  0
 34 37  1  0
 37 38  1  0
 37 39  1  0
 37 40  1  0
 40 41  1  0
 40 42  1  0
 40 43  1  0
 43 44  1  0
 43 45  1  0
 43 46  1  0
 27 47  1  0
 47 48  1  0
 19 49  1  0
 49 50  1  0
 49  2  2  0
 47 23  2  0
M  CHG  1  25   1
M  END
>  <UniqueID>  (40) 
40

>  <SMILES>  (40) 
CCCCCCn1cc(Cn2ccs/c2=N/CCCC)n[nH+]1

>  <Energy>  (40) 
104.02275830995963

>  <Genealogy>  (40) 
CCCCCCn1cc(Cn2ccsc2=NCCCC)n[nH+]1 (protonated)
CCCCCCn1cc(Cn2ccs/c2=N/CCCC)n[nH+]1 (cis-trans isomerization)
CCCCCCn1cc(Cn2ccs/c2=N/CCCC)n[nH+]1 (3D coordinates assigned)
CCCCCCn1cc(Cn2ccs/c2=N/CCCC)n[nH+]1 (optimized conformer: 104.02275830995963 kcal/mol)

>  <smiles>  (40) 
CCCCCCn1cc(Cn2ccsc2=NCCCC)nn1

>  <score_type>  (40) 
oracle

>  <origin>  (40) 
adg

>  <m_score__min__energy>  (40) 
-5.46

>  <m_primary>  (40) 
energy

$$$$
40:0
     RDKit          3D

 36 39  0  0  0  0  0  0  0  0999 V2000
   55.8360   25.1570   45.6380 C   0  0  0  0  0  0  0  0  0  0  0  0
   55.6240   26.5630   45.7000 O   0  0  0  0  0  0  0  0  0  0  0  0
   56.6430   27.4860   45.9690 C   0  0  0  0  0  0  0  0  0  0  0  0
   57.7600   27.2380   46.6450 C   0  0  0  0  0  0  0  0  0  0  0  0
   58.4980   28.4900   46.6650 C   0  0  0  0  0  0  0  0  0  0  0  0
   59.7320   28.7490   47.2450 C   0  0  0  0  0  0  0  0  0  0  0  0
   60.2640   30.0440   47.1460 C   0  0  0  0  0  0  0  0  0  0  0  0
   61.5090   30.3280   47.7130 C   0  0  0  0  0  0  0  0  0  0  0  0
   62.0410   31.6110   47.6410 C   0  0  0  0  0  0  0  0  0  0  0  0
   61.3440   32.6520   47.0100 C   0  0  0  0  0  0  0  0  0  0  0  0
   61.9610   33.9970   47.0750 C   0  0  0  0  0  0  0  0  0  0  0  0
   63.1340   34.2060   46.6700 O   0  0  0  0  0  0  0  0  0  0  0  0
   60.0980   32.3780   46.3770 C   0  0  0  0  0  0  0  0  0  0  0  0
   59.4040   33.3500   45.6310 C   0  0  0  0  0  0  0  0  0  0  0  0
   58.1770   33.0580   45.0400 C   0  0  0  0  0  0  0  0  0  0  0  0
   57.6130   31.7910   45.1580 C   0  0  0  0  0  0  0  0  0  0  0  0
   58.2850   30.7730   45.8590 C   0  0  0  0  0  0  0  0  0  0  0  0
   57.7800   29.4570   45.9870 C   0  0  0  0  0  0  0  0  0  0  0  0
   56.6450   28.8970   45.5470 C   0  0  0  0  0  0  0  0  0  0  0  0
   55.6450   29.5490   44.8180 O   0  0  0  0  0  0  0  0  0  0  0  0
   55.6910   29.7390   43.4100 C   0  0  0  0  0  0  0  0  0  0  0  0
   59.5460   31.0680   46.4630 C   0  0  0  0  0  0  0  0  0  0  0  0
   55.8974   24.7501   46.6581 H   0  0  0  0  0  0  0  0  0  0  0  0
   54.9991   24.6832   45.1040 H   0  0  0  0  0  0  0  0  0  0  0  0
   56.7754   24.9510   45.1040 H   0  0  0  0  0  0  0  0  0  0  0  0
   58.0635   26.2820   47.0965 H   0  0  0  0  0  0  0  0  0  0  0  0
   60.2820   27.9553   47.7717 H   0  0  0  0  0  0  0  0  0  0  0  0
   62.0726   29.5310   48.2201 H   0  0  0  0  0  0  0  0  0  0  0  0
   63.0261   31.8130   48.0869 H   0  0  0  0  0  0  0  0  0  0  0  0
   61.3792   34.8343   47.4877 H   0  0  0  0  0  0  0  0  0  0  0  0
   59.8371   34.3543   45.5133 H   0  0  0  0  0  0  0  0  0  0  0  0
   57.6474   33.8380   44.4733 H   0  0  0  0  0  0  0  0  0  0  0  0
   56.6346   31.5841   44.6998 H   0  0  0  0  0  0  0  0  0  0  0  0
   55.9446   30.7864   43.1894 H   0  0  0  0  0  0  0  0  0  0  0  0
   56.4549   29.0775   42.9755 H   0  0  0  0  0  0  0  0  0  0  0  0
   54.7091   29.5002   42.9755 H   0  0  0  0  0  0  0  0  0  0  0  0
  1  2  1  0
  2  3  1  0
  3  4  2  0
  4  5  1  0
  5  6  2  0
  6  7  1  0
  7  8  2  0
  8  9  1  0
  9 10  2  0
 10 11  1  0
 11 12  2  0
 10 13  1  0
 13 14  1  0
 14 15  2  0
 15 16  1  0
 16 17  2  0
 17 18  1  0
 18 19  2  0
 19 20  1  0
 20 21  1  0
 17 22  1  0
 19  3  1  0
 18  5  1  0
 22  7  1  0
 22 13  2  0
  1 23  1  0
  1 24  1  0
  1 25  1  0
  4 26  1  0
  6 27  1  0
  8 28  1  0
  9 29  1  0
 11 30  1  0
 14 31  1  0
 15 32  1  0
 16 33  1  0
 21 34  1  0
 21 35  1  0
 21 36  1  0
M  END
>  <UniqueID>  (41) 
41

>  <SMILES>  (41) 
COC1=Cc2cc3ccc(C=O)c4cccc(c2=C1OC)c34

>  <Energy>  (41) 
83.02077779406945

>  <Genealogy>  (41) 
COC1=Cc2cc3ccc(C=O)c4cccc(c2=C1OC)c34 (3D coordinates assigned)
COC1=Cc2cc3ccc(C=O)c4cccc(c2=C1OC)c34 (nonaromatic ring conformer: 83.02077779406945 kcal/mol)

>  <smiles>  (41) 
COC1=Cc2cc3ccc(C=O)c4cccc(c2=C1OC)c34

>  <score_type>  (41) 
oracle

>  <origin>  (41) 
adg

>  <m_score__min__energy>  (41) 
-7.6100000000000003

>  <m_primary>  (41) 
energy

$$$$
41:0
     RDKit          3D

 52 54  0  0  0  0  0  0  0  0999 V2000
   60.7520   30.0900   48.2310 C   0  0  0  0  0  0  0  0  0  0  0  0
   60.7710   30.1370   46.7060 C   0  0  0  0  0  0  0  0  0  0  0  0
   59.8340   29.1300   46.1520 N   0  0  0  0  0  0  0  0  0  0  0  0
   58.6800   28.9150   47.0550 C   0  0  0  0  0  0  0  0  0  0  0  0
   58.5980   27.4500   47.4750 C   0  0  0  0  0  0  0  0  0  0  0  0
   59.3830   29.5050   44.7910 C   0  0  0  0  0  0  0  0  0  0  0  0
   57.9190   29.1000   44.5980 C   0  0  0  0  0  0  0  0  0  0  0  0
   57.0620   30.2210   43.9940 C   0  0  0  0  0  0  0  0  0  0  0  0
   56.7130   31.2010   44.9740 O   0  0  0  0  0  0  0  0  0  0  0  0
   57.4830   32.3140   45.3590 C   0  0  0  0  0  0  0  0  0  0  0  0
   57.4380   33.4520   44.5460 C   0  0  0  0  0  0  0  0  0  0  0  0
   58.1810   34.5890   44.8690 C   0  0  0  0  0  0  0  0  0  0  0  0
   58.9860   34.6000   46.0100 C   0  0  0  0  0  0  0  0  0  0  0  0
   59.0530   33.4670   46.8340 C   0  0  0  0  0  0  0  0  0  0  0  0
   59.8980   33.4780   48.0500 C   0  0  0  0  0  0  0  0  0  0  0  0
   59.2590   33.4520   49.3030 C   0  0  0  0  0  0  0  0  0  0  0  0
   60.0040   33.3820   50.4800 C   0  0  0  0  0  0  0  0  0  0  0  0
   61.3990   33.3360   50.4280 C   0  0  0  0  0  0  0  0  0  0  0  0
   62.0650   33.3840   49.1950 C   0  0  0  0  0  0  0  0  0  0  0  0
   63.4670   33.3560   49.1510 C   0  0  0  0  0  0  0  0  0  0  0  0
   64.1340   33.4240   47.9280 C   0  0  0  0  0  0  0  0  0  0  0  0
   63.4130   33.5390   46.7400 C   0  0  0  0  0  0  0  0  0  0  0  0
   62.0160   33.5710   46.7650 C   0  0  0  0  0  0  0  0  0  0  0  0
   61.3180   33.4710   47.9890 C   0  0  0  0  0  0  0  0  0  0  0  0
   58.2860   32.3340   46.5180 C   0  0  0  0  0  0  0  0  0  0  0  0
   61.1359   31.0397   48.6319 H   0  0  0  0  0  0  0  0  0  0  0  0
   59.7205   29.9349   48.5802 H   0  0  0  0  0  0  0  0  0  0  0  0
   61.3859   29.2616   48.5802 H   0  0  0  0  0  0  0  0  0  0  0  0
   60.4681   31.1394   46.3694 H   0  0  0  0  0  0  0  0  0  0  0  0
   61.7884   29.9142   46.3522 H   0  0  0  0  0  0  0  0  0  0  0  0
   58.7989   29.5426   47.9506 H   0  0  0  0  0  0  0  0  0  0  0  0
   57.7559   29.1857   46.5233 H   0  0  0  0  0  0  0  0  0  0  0  0
   58.5942   27.3830   48.5729 H   0  0  0  0  0  0  0  0  0  0  0  0
   57.6736   27.0058   47.0774 H   0  0  0  0  0  0  0  0  0  0  0  0
   59.4671   26.9054   47.0774 H   0  0  0  0  0  0  0  0  0  0  0  0
   59.4808   30.5929   44.6610 H   0  0  0  0  0  0  0  0  0  0  0  0
   60.0042   28.9847   44.0471 H   0  0  0  0  0  0  0  0  0  0  0  0
   57.8816   28.2295   43.9266 H   0  0  0  0  0  0  0  0  0  0  0  0
   57.5073   28.8697   45.5917 H   0  0  0  0  0  0  0  0  0  0  0  0
   57.6288   30.7087   43.1872 H   0  0  0  0  0  0  0  0  0  0  0  0
   56.1340   29.7749   43.6071 H   0  0  0  0  0  0  0  0  0  0  0  0
   56.8104   33.4507   43.6426 H   0  0  0  0  0  0  0  0  0  0  0  0
   58.1322   35.4782   44.2233 H   0  0  0  0  0  0  0  0  0  0  0  0
   59.5683   35.4983   46.2628 H   0  0  0  0  0  0  0  0  0  0  0  0
   58.1608   33.4872   49.3550 H   0  0  0  0  0  0  0  0  0  0  0  0
   59.4910   33.3629   51.4529 H   0  0  0  0  0  0  0  0  0  0  0  0
   61.9787   33.2617   51.3599 H   0  0  0  0  0  0  0  0  0  0  0  0
   64.0427   33.2801   50.0852 H   0  0  0  0  0  0  0  0  0  0  0  0
   65.2330   33.3868   47.9005 H   0  0  0  0  0  0  0  0  0  0  0  0
   63.9456   33.6048   45.7798 H   0  0  0  0  0  0  0  0  0  0  0  0
   61.4556   33.6749   45.8242 H   0  0  0  0  0  0  0  0  0  0  0  0
   58.3117   31.4555   47.1795 H   0  0  0  0  0  0  0  0  0  0  0  0
  1  2  1  0
  2  3  1  0
  3  4  1  0
  4  5  1  0
  3  6  1  0
  6  7  1  0
  7  8  1  0
  8  9  1  0
  9 10  1  0
 10 11  2  0
 11 12  1  0
 12 13  2  0
 13 14  1  0
 14 15  1  0
 15 16  2  0
 16 17  1  0
 17 18  2  0
 18 19  1  0
 19 20  2  0
 20 21  1  0
 21 22  2  0
 22 23  1  0
 23 24  2  0
 14 25  2  0
 25 10  1  0
 24 15  1  0
 24 19  1  0
  1 26  1  0
  1 27  1  0
  1 28  1  0
  2 29  1  0
  2 30  1  0
  4 31  1  0
  4 32  1  0
  5 33  1  0
  5 34  1  0
  5 35  1  0
  6 36  1  0
  6 37  1  0
  7 38  1  0
  7 39  1  0
  8 40  1  0
  8 41  1  0
 11 42  1  0
 12 43  1  0
 13 44  1  0
 16 45  1  0
 17 46  1  0
 18 47  1  0
 20 48  1  0
 21 49  1  0
 22 50  1  0
 23 51  1  0
 25 52  1  0
M  END
>  <UniqueID>  (42) 
42

>  <SMILES>  (42) 
CCN(CC)CCCOc1cccc(-c2cccc3ccccc23)c1

>  <Energy>  (42) 
60.572249724449996

>  <Genealogy>  (42) 
CCN(CC)CCCOc1cccc(-c2cccc3ccccc23)c1 (3D coordinates assigned)
CCN(CC)CCCOc1cccc(-c2cccc3ccccc23)c1 (optimized conformer: 60.572249724449996 kcal/mol)

>  <smiles>  (42) 
CCN(CC)CCCOc1cccc(-c2cccc3ccccc23)c1

>  <score_type>  (42) 
oracle

>  <origin>  (42) 
adg

>  <m_score__min__energy>  (42) 
-8.2400000000000002

>  <m_primary>  (42) 
energy

$$$$
42:0
     RDKit          3D

 37 39  0  0  1  0  0  0  0  0999 V2000
   54.9940   25.2250   45.5970 C   0  0  0  0  0  0  0  0  0  0  0  0
   55.5510   26.3850   46.1730 O   0  0  0  0  0  0  0  0  0  0  0  0
   56.6300   27.0650   45.6730 C   0  0  0  0  0  0  0  0  0  0  0  0
   56.5320   28.3690   45.2460 C   0  0  0  0  0  0  0  0  0  0  0  0
   57.6530   29.0130   44.7480 C   0  0  0  0  0  0  0  0  0  0  0  0
   57.6160   30.3980   44.2790 C   0  0  0  0  0  0  0  0  0  0  0  0
   57.3220   30.8590   43.0500 N   0  0  0  0  0  0  0  0  0  0  0  0
   57.3950   32.1810   43.0170 N   0  0  0  0  0  0  0  0  0  0  0  0
   57.7500   32.6160   44.2660 C   0  0  0  0  0  0  0  0  0  0  0  0
   57.9000   33.9170   44.6900 N   0  0  0  0  0  0  0  0  0  0  0  0
   58.9770   34.4720   45.0210 C   0  0  0  0  0  0  0  0  0  0  0  0
   59.7860   34.3100   46.1980 C   0  0  0  0  0  0  0  0  0  0  0  0
   61.0600   33.8290   46.2750 C   0  0  0  0  0  0  0  0  0  0  0  0
   61.7780   33.7050   47.4700 C   0  0  0  0  0  0  0  0  0  0  0  0
   61.1960   34.0800   48.6570 C   0  0  0  0  0  0  0  0  0  0  0  0
   59.9090   34.5670   48.5760 C   0  0  0  0  0  0  0  0  0  0  0  0
   59.2060   34.6890   47.4110 C   0  0  0  0  0  0  0  0  0  0  0  0
   57.8980   31.4960   45.0950 C   0  0  0  0  0  0  0  0  0  0  0  0
   58.2610   31.4850   46.4820 C   0  0  0  0  0  0  0  0  0  0  0  0
   58.5420   31.4620   47.5990 N   0  0  0  0  0  0  0  0  0  0  0  0
   58.8440   28.3480   44.6860 C   0  0  0  0  0  0  0  0  0  0  0  0
   58.9520   27.0340   45.1140 C   0  0  0  0  0  0  0  0  0  0  0  0
   57.8400   26.3830   45.6120 C   0  0  0  0  0  0  0  0  0  0  0  0
   58.0220   24.5860   46.1880 Br  0  0  0  0  0  0  0  0  0  0  0  0
   54.6657   24.5414   46.3938 H   0  0  0  0  0  0  0  0  0  0  0  0
   54.1312   25.5031   44.9739 H   0  0  0  0  0  0  0  0  0  0  0  0
   55.7505   24.7255   44.9739 H   0  0  0  0  0  0  0  0  0  0  0  0
   55.5688   28.8975   45.2997 H   0  0  0  0  0  0  0  0  0  0  0  0
   57.2130   32.7850   42.1770 H   0  0  0  0  0  0  0  0  0  0  0  0
   59.3636   35.1997   44.2923 H   0  0  0  0  0  0  0  0  0  0  0  0
   61.5529   33.5199   45.3415 H   0  0  0  0  0  0  0  0  0  0  0  0
   62.8042   33.3089   47.4591 H   0  0  0  0  0  0  0  0  0  0  0  0
   61.7267   33.9963   49.6168 H   0  0  0  0  0  0  0  0  0  0  0  0
   59.4164   34.8773   49.5093 H   0  0  0  0  0  0  0  0  0  0  0  0
   58.1806   35.0867   47.4282 H   0  0  0  0  0  0  0  0  0  0  0  0
   59.7317   28.8631   44.2902 H   0  0  0  0  0  0  0  0  0  0  0  0
   59.9186   26.5121   45.0574 H   0  0  0  0  0  0  0  0  0  0  0  0
  1  2  1  0
  2  3  1  0
  3  4  2  0
  4  5  1  0
  5  6  1  0
  6  7  2  0
  7  8  1  0
  8  9  1  0
  9 10  1  0
 10 11  2  0
 11 12  1  0
 12 13  2  0
 13 14  1  0
 14 15  2  0
 15 16  1  0
 16 17  2  0
  9 18  2  0
 18 19  1  0
 19 20  3  0
  5 21  2  0
 21 22  1  0
 22 23  2  0
 23 24  1  0
 23  3  1  0
 18  6  1  0
 17 12  1  0
  1 25  1  0
  1 26  1  0
  1 27  1  0
  4 28  1  0
  8 29  1  0
 11 30  1  0
 13 31  1  0
 14 32  1  0
 15 33  1  0
 16 34  1  0
 17 35  1  0
 21 36  1  0
 22 37  1  0
M  END
>  <smiles>  (43) 
COc1cc(-c2n[nH]c(N=Cc3ccccc3)c2C#N)ccc1Br

>  <score_type>  (43) 
oracle

>  <origin>  (43) 
adg

>  <m_score__min__energy>  (43) 
-7.8600000000000003

>  <m_primary>  (43) 
energy

$$$$
43:0
     RDKit          3D

 41 43  0  0  0  0  0  0  0  0999 V2000
   59.2190   31.3150   48.3800 O   0  0  0  0  0  0  0  0  0  0  0  0
   60.1810   31.2940   47.5650 C   0  0  0  0  0  0  0  0  0  0  0  0
   60.1380   30.4210   46.4230 N   0  0  0  0  0  0  0  0  0  0  0  0
   59.2240   29.3190   46.2890 C   0  0  0  0  0  0  0  0  0  0  0  0
   58.1540   29.3590   45.3750 C   0  0  0  0  0  0  0  0  0  0  0  0
   57.2660   28.2830   45.2810 C   0  0  0  0  0  0  0  0  0  0  0  0
   57.4280   27.1650   46.1060 C   0  0  0  0  0  0  0  0  0  0  0  0
   56.2110   25.6980   45.9770 Br  0  0  0  0  0  0  0  0  0  0  0  0
   58.4750   27.1280   47.0310 C   0  0  0  0  0  0  0  0  0  0  0  0
   59.3640   28.2020   47.1270 C   0  0  0  0  0  0  0  0  0  0  0  0
   61.3530   32.1750   47.7850 C   0  0  0  0  0  0  0  0  0  0  0  0
   62.6290   31.7070   47.4230 C   0  0  0  0  0  0  0  0  0  0  0  0
   63.7670   32.4720   47.6800 C   0  0  0  0  0  0  0  0  0  0  0  0
   63.6490   33.7150   48.3000 C   0  0  0  0  0  0  0  0  0  0  0  0
   62.3900   34.2010   48.6580 C   0  0  0  0  0  0  0  0  0  0  0  0
   61.2320   33.4450   48.4050 C   0  0  0  0  0  0  0  0  0  0  0  0
   59.9360   33.9920   48.7200 N   0  0  0  0  0  0  0  0  0  0  0  0
   59.2410   34.9460   47.8570 C   0  0  0  0  0  0  0  0  0  0  0  0
   58.7470   34.2590   46.6130 C   0  0  0  0  0  0  0  0  0  0  0  0
   59.4210   34.4200   45.3910 C   0  0  0  0  0  0  0  0  0  0  0  0
   58.9300   33.8150   44.2310 C   0  0  0  0  0  0  0  0  0  0  0  0
   57.7600   33.0510   44.2800 C   0  0  0  0  0  0  0  0  0  0  0  0
   57.0780   32.8940   45.4900 C   0  0  0  0  0  0  0  0  0  0  0  0
   57.5670   33.4980   46.6520 C   0  0  0  0  0  0  0  0  0  0  0  0
   60.7370   30.6640   45.6020 H   0  0  0  0  0  0  0  0  0  0  0  0
   58.0159   30.2407   44.7319 H   0  0  0  0  0  0  0  0  0  0  0  0
   56.4385   28.3157   44.5570 H   0  0  0  0  0  0  0  0  0  0  0  0
   58.5995   26.2520   47.6846 H   0  0  0  0  0  0  0  0  0  0  0  0
   60.1794   28.1716   47.8647 H   0  0  0  0  0  0  0  0  0  0  0  0
   62.7307   30.7278   46.9322 H   0  0  0  0  0  0  0  0  0  0  0  0
   64.7592   32.0937   47.3929 H   0  0  0  0  0  0  0  0  0  0  0  0
   64.5484   34.3134   48.5073 H   0  0  0  0  0  0  0  0  0  0  0  0
   62.3033   35.1847   49.1426 H   0  0  0  0  0  0  0  0  0  0  0  0
   59.5000   33.7670   49.6420 H   0  0  0  0  0  0  0  0  0  0  0  0
   58.3849   35.3712   48.4013 H   0  0  0  0  0  0  0  0  0  0  0  0
   59.9399   35.7459   47.5712 H   0  0  0  0  0  0  0  0  0  0  0  0
   60.3389   35.0247   45.3471 H   0  0  0  0  0  0  0  0  0  0  0  0
   59.4648   33.9400   43.2779 H   0  0  0  0  0  0  0  0  0  0  0  0
   57.3762   32.5735   43.3664 H   0  0  0  0  0  0  0  0  0  0  0  0
   56.1562   32.2950   45.5279 H   0  0  0  0  0  0  0  0  0  0  0  0
   57.0251   33.3767   47.6015 H   0  0  0  0  0  0  0  0  0  0  0  0
  1  2  2  0
  2  3  1  0
  3  4  1  0
  4  5  2  0
  5  6  1  0
  6  7  2  0
  7  8  1  0
  7  9  1  0
  9 10  2  0
  2 11  1  0
 11 12  2  0
 12 13  1  0
 13 14  2  0
 14 15  1  0
 15 16  2  0
 16 17  1  0
 17 18  1  0
 18 19  1  0
 19 20  2  0
 20 21  1  0
 21 22  2  0
 22 23  1  0
 23 24  2  0
 10  4  1  0
 16 11  1  0
 24 19  1  0
  3 25  1  0
  5 26  1  0
  6 27  1  0
  9 28  1  0
 10 29  1  0
 12 30  1  0
 13 31  1  0
 14 32  1  0
 15 33  1  0
 17 34  1  0
 18 35  1  0
 18 36  1  0
 20 37  1  0
 21 38  1  0
 22 39  1  0
 23 40  1  0
 24 41  1  0
M  END
>  <UniqueID>  (44) 
43

>  <SMILES>  (44) 
O=C(Nc1ccc(Br)cc1)c1ccccc1NCc1ccccc1

>  <Energy>  (44) 
51.83802722612422

>  <Genealogy>  (44) 
O=C(Nc1ccc(Br)cc1)c1ccccc1NCc1ccccc1 (3D coordinates assigned)
O=C(Nc1ccc(Br)cc1)c1ccccc1NCc1ccccc1 (optimized conformer: 51.83802722612422 kcal/mol)

>  <smiles>  (44) 
O=C(Nc1ccc(Br)cc1)c1ccccc1NCc1ccccc1

>  <score_type>  (44) 
oracle

>  <origin>  (44) 
adg

>  <m_score__min__energy>  (44) 
-8.0700000000000003

>  <m_primary>  (44) 
energy

$$$$
