0:0
     RDKit          3D

 49 51  0  0  0  0  0  0  0  0999 V2000
   60.1070   29.3460   47.3090 C   0  0  0  0  0  0  0  0  0  0  0  0
   58.8420   28.6960   46.7420 C   0  0  0  0  0  0  0  0  0  0  0  0
   59.1540   27.8120   45.5800 N   0  0  0  0  0  0  0  0  0  0  0  0
   59.8550   26.5720   46.0030 C   0  0  0  0  0  0  0  0  0  0  0  0
   58.8990   25.4360   46.3660 C   0  0  0  0  0  0  0  0  0  0  0  0
   57.8980   27.4400   44.8640 C   0  0  0  0  0  0  0  0  0  0  0  0
   57.4840   28.4710   43.7930 C   0  0  0  0  0  0  0  0  0  0  0  0
   58.0730   29.7940   44.0000 N   0  0  0  0  0  0  0  0  0  0  0  0
   57.2980   30.8990   44.5110 C   0  0  0  0  0  0  0  0  0  0  0  0
   56.0430   30.7850   44.6000 O   0  0  0  0  0  0  0  0  0  0  0  0
   57.9400   32.1650   44.9490 C   0  0  0  0  0  0  0  0  0  0  0  0
   57.4400   33.3930   44.4760 C   0  0  0  0  0  0  0  0  0  0  0  0
   58.0150   34.5980   44.8810 C   0  0  0  0  0  0  0  0  0  0  0  0
   59.1000   34.5960   45.7580 C   0  0  0  0  0  0  0  0  0  0  0  0
   59.6350   33.3860   46.2300 C   0  0  0  0  0  0  0  0  0  0  0  0
   60.7630   33.4040   47.1290 N   0  0  0  0  0  0  0  0  0  0  0  0
   62.0580   33.1320   46.8150 C   0  0  0  0  0  0  0  0  0  0  0  0
   62.7980   33.2820   47.9620 C   0  0  0  0  0  0  0  0  0  0  0  0
   64.1570   33.1290   48.2260 C   0  0  0  0  0  0  0  0  0  0  0  0
   64.5910   33.3530   49.5470 C   0  0  0  0  0  0  0  0  0  0  0  0
   63.6650   33.7290   50.5530 C   0  0  0  0  0  0  0  0  0  0  0  0
   62.2970   33.8800   50.2470 C   0  0  0  0  0  0  0  0  0  0  0  0
   61.9010   33.6430   48.9330 C   0  0  0  0  0  0  0  0  0  0  0  0
   60.6600   33.7190   48.4210 N   0  0  0  0  0  0  0  0  0  0  0  0
   59.0460   32.1730   45.8230 C   0  0  0  0  0  0  0  0  0  0  0  0
   60.0683   29.3261   48.4081 H   0  0  0  0  0  0  0  0  0  0  0  0
   60.9912   28.7906   46.9631 H   0  0  0  0  0  0  0  0  0  0  0  0
   60.1703   30.3883   46.9631 H   0  0  0  0  0  0  0  0  0  0  0  0
   58.3650   28.0950   47.5302 H   0  0  0  0  0  0  0  0  0  0  0  0
   58.1690   29.4947   46.3968 H   0  0  0  0  0  0  0  0  0  0  0  0
   60.5004   26.2361   45.1780 H   0  0  0  0  0  0  0  0  0  0  0  0
   60.4336   26.8147   46.9065 H   0  0  0  0  0  0  0  0  0  0  0  0
   58.8283   25.3519   47.4605 H   0  0  0  0  0  0  0  0  0  0  0  0
   57.9032   25.6476   45.9494 H   0  0  0  0  0  0  0  0  0  0  0  0
   59.2776   24.4910   45.9494 H   0  0  0  0  0  0  0  0  0  0  0  0
   58.0496   26.4672   44.3734 H   0  0  0  0  0  0  0  0  0  0  0  0
   57.0925   27.4027   45.6122 H   0  0  0  0  0  0  0  0  0  0  0  0
   57.8027   28.0979   42.8085 H   0  0  0  0  0  0  0  0  0  0  0  0
   56.3923   28.5880   43.8606 H   0  0  0  0  0  0  0  0  0  0  0  0
   59.1140   29.8570   43.9580 H   0  0  0  0  0  0  0  0  0  0  0  0
   56.5879   33.4026   43.7805 H   0  0  0  0  0  0  0  0  0  0  0  0
   57.6121   35.5513   44.5082 H   0  0  0  0  0  0  0  0  0  0  0  0
   59.5404   35.5503   46.0827 H   0  0  0  0  0  0  0  0  0  0  0  0
   62.4418   32.8448   45.8249 H   0  0  0  0  0  0  0  0  0  0  0  0
   64.8642   32.8441   47.4331 H   0  0  0  0  0  0  0  0  0  0  0  0
   65.6551   33.2355   49.8000 H   0  0  0  0  0  0  0  0  0  0  0  0
   64.0168   33.9043   51.5804 H   0  0  0  0  0  0  0  0  0  0  0  0
   61.5693   34.1742   51.0177 H   0  0  0  0  0  0  0  0  0  0  0  0
   59.4540   31.2203   46.1917 H   0  0  0  0  0  0  0  0  0  0  0  0
  1  2  1  0
  2  3  1  0
  3  4  1  0
  4  5  1  0
  3  6  1  0
  6  7  1  0
  7  8  1  0
  8  9  1  0
  9 10  2  0
  9 11  1  0
 11 12  2  0
 12 13  1  0
 13 14  2  0
 14 15  1  0
 15 16  1  0
 16 17  1  0
 17 18  2  0
 18 19  1  0
 19 20  2  0
 20 21  1  0
 21 22  2  0
 22 23  1  0
 23 24  2  0
 15 25  2  0
 25 11  1  0
 24 16  1  0
 23 18  1  0
  1 26  1  0
  1 27  1  0
  1 28  1  0
  2 29  1  0
  2 30  1  0
  4 31  1  0
  4 32  1  0
  5 33  1  0
  5 34  1  0
  5 35  1  0
  6 36  1  0
  6 37  1  0
  7 38  1  0
  7 39  1  0
  8 40  1  0
 12 41  1  0
 13 42  1  0
 14 43  1  0
 17 44  1  0
 19 45  1  0
 20 46  1  0
 21 47  1  0
 22 48  1  0
 25 49  1  0
M  END
>  <UniqueID>  (1) 
1

>  <SMILES>  (1) 
CCN(CC)CCNC(=O)c1cccc(-n2cc3ccccc3n2)c1

>  <Energy>  (1) 
96.46135794119836

>  <Genealogy>  (1) 
CCN(CC)CCNC(=O)c1cccc(-n2cc3ccccc3n2)c1 (3D coordinates assigned)
CCN(CC)CCNC(=O)c1cccc(-n2cc3ccccc3n2)c1 (optimized conformer: 96.46135794119836 kcal/mol)

>  <smiles>  (1) 
CCN(CC)CCNC(=O)c1cccc(-n2cc3ccccc3n2)c1

>  <score_type>  (1) 
oracle

>  <origin>  (1) 
adg

>  <m_score__min__energy>  (1) 
-8.1600000000000001

>  <m_primary>  (1) 
energy

$$$$
1:0
     RDKit          3D

 45 49  0  0  0  0  0  0  0  0999 V2000
   58.9100   34.6970   44.8430 O   0  0  0  0  0  0  0  0  0  0  0  0
   58.5930   33.5310   45.2040 C   0  0  0  0  0  0  0  0  0  0  0  0
   58.7430   33.1250   46.5380 C   0  0  0  0  0  0  0  0  0  0  0  0
   58.3820   31.7970   46.9020 C   0  0  0  0  0  0  0  0  0  0  0  0
   58.5310   31.3130   48.2600 N   0  0  0  0  0  0  0  0  0  0  0  0
   58.1990   32.2330   49.3700 C   0  0  0  0  0  0  0  0  0  0  0  0
   58.5200   31.6180   50.7460 C   0  0  2  0  0  0  0  0  0  0  0  0
   60.0250   31.5850   51.0110 C   0  0  0  0  0  0  0  0  0  0  0  0
   60.4270   30.2170   50.5100 C   0  0  0  0  0  0  0  0  0  0  0  0
   59.1040   29.6280   50.0220 C   0  0  2  0  0  0  0  0  0  0  0  0
   58.8780   29.8970   48.5200 C   0  0  0  0  0  0  0  0  0  0  0  0
   58.0900   30.2820   50.7420 O   0  0  0  0  0  0  0  0  0  0  0  0
   57.8960   30.9530   45.9410 N   0  0  0  0  0  0  0  0  0  0  0  0
   57.7640   31.3890   44.6640 C   0  0  0  0  0  0  0  0  0  0  0  0
   57.3260   30.6580   43.6220 N   0  0  0  0  0  0  0  0  0  0  0  0
   56.9170   29.2550   43.6170 C   0  0  0  0  0  0  0  0  0  0  0  0
   57.7810   28.4590   44.5610 C   0  0  0  0  0  0  0  0  0  0  0  0
   59.1780   28.5890   44.4970 C   0  0  0  0  0  0  0  0  0  0  0  0
   59.9950   27.8880   45.3890 C   0  0  0  0  0  0  0  0  0  0  0  0
   59.4230   27.0570   46.3560 C   0  0  0  0  0  0  0  0  0  0  0  0
   58.0330   26.9230   46.4300 C   0  0  0  0  0  0  0  0  0  0  0  0
   57.2120   27.6200   45.5380 C   0  0  0  0  0  0  0  0  0  0  0  0
   55.8660   27.4710   45.6300 F   0  0  0  0  0  0  0  0  0  0  0  0
   57.4010   31.4940   42.5590 C   0  0  0  0  0  0  0  0  0  0  0  0
   57.8820   32.7270   42.9890 C   0  0  0  0  0  0  0  0  0  0  0  0
   58.1040   32.6340   44.3140 N   0  0  0  0  0  0  0  0  0  0  0  0
   59.1342   33.8232   47.2927 H   0  0  0  0  0  0  0  0  0  0  0  0
   57.1251   32.4674   49.3277 H   0  0  0  0  0  0  0  0  0  0  0  0
   58.8096   33.1405   49.2530 H   0  0  0  0  0  0  0  0  0  0  0  0
   58.0209   32.2281   51.5133 H   0  0  0  0  0  0  0  0  0  0  0  0
   60.2401   31.6921   52.0844 H   0  0  0  0  0  0  0  0  0  0  0  0
   60.5703   32.4046   50.5201 H   0  0  0  0  0  0  0  0  0  0  0  0
   60.8555   29.6092   51.3205 H   0  0  0  0  0  0  0  0  0  0  0  0
   61.2009   30.2512   49.7290 H   0  0  0  0  0  0  0  0  0  0  0  0
   59.1066   28.5384   50.1729 H   0  0  0  0  0  0  0  0  0  0  0  0
   58.0565   29.2581   48.1637 H   0  0  0  0  0  0  0  0  0  0  0  0
   59.8141   29.6716   47.9881 H   0  0  0  0  0  0  0  0  0  0  0  0
   55.8667   29.1813   43.9356 H   0  0  0  0  0  0  0  0  0  0  0  0
   57.0294   28.8514   42.5999 H   0  0  0  0  0  0  0  0  0  0  0  0
   59.6319   29.2462   43.7407 H   0  0  0  0  0  0  0  0  0  0  0  0
   61.0886   27.9906   45.3296 H   0  0  0  0  0  0  0  0  0  0  0  0
   60.0664   26.5080   47.0593 H   0  0  0  0  0  0  0  0  0  0  0  0
   57.5845   26.2680   47.1914 H   0  0  0  0  0  0  0  0  0  0  0  0
   57.1265   31.2398   41.5246 H   0  0  0  0  0  0  0  0  0  0  0  0
   58.0501   33.6148   42.3616 H   0  0  0  0  0  0  0  0  0  0  0  0
  1  2  2  0
  2  3  1  0
  3  4  2  0
  4  5  1  0
  5  6  1  0
  6  7  1  0
  7  8  1  0
  8  9  1  0
  9 10  1  0
 10 11  1  0
 10 12  1  0
  4 13  1  0
 13 14  2  0
 14 15  1  0
 15 16  1  0
 16 17  1  0
 17 18  2  0
 18 19  1  0
 19 20  2  0
 20 21  1  0
 21 22  2  0
 22 23  1  0
 15 24  1  0
 24 25  2  0
 25 26  1  0
 26  2  1  0
 11  5  1  0
 26 14  1  0
 12  7  1  0
 22 17  1  0
  3 27  1  0
  6 28  1  0
  6 29  1  0
  7 30  1  1
  8 31  1  0
  8 32  1  0
  9 33  1  0
  9 34  1  0
 10 35  1  6
 11 36  1  0
 11 37  1  0
 16 38  1  0
 16 39  1  0
 18 40  1  0
 19 41  1  0
 20 42  1  0
 21 43  1  0
 24 44  1  0
 25 45  1  0
M  END
>  <UniqueID>  (2) 
2

>  <SMILES>  (2) 
O=c1cc(N2C[C@H]3CC[C@@H](C2)O3)nc2n(Cc3ccccc3F)ccn12

>  <Energy>  (2) 
93.46461372821662

>  <Genealogy>  (2) 
O=c1cc(N2C[C@H]3CC[C@@H](C2)O3)nc2n(Cc3ccccc3F)ccn12 (chirality)
O=c1cc(N2C[C@H]3CC[C@@H](C2)O3)nc2n(Cc3ccccc3F)ccn12 (3D coordinates assigned)
O=c1cc(N2C[C@H]3CC[C@@H](C2)O3)nc2n(Cc3ccccc3F)ccn12 (nonaromatic ring conformer: 93.46461372821662 kcal/mol)

>  <smiles>  (2) 
O=c1cc(N2CC3CCC(C2)O3)nc2n(Cc3ccccc3F)ccn12

>  <score_type>  (2) 
oracle

>  <origin>  (2) 
adg

>  <m_score__min__energy>  (2) 
-7.7699999999999996

>  <m_primary>  (2) 
energy

$$$$
2:0
     RDKit          3D

 26 28  0  0  0  0  0  0  0  0999 V2000
   56.2870   30.0960   42.6230 C   0  0  0  0  0  0  0  0  0  0  0  0
   57.0270   31.2120   42.2370 C   0  0  0  0  0  0  0  0  0  0  0  0
   57.6650   31.9960   43.2010 C   0  0  0  0  0  0  0  0  0  0  0  0
   57.5570   31.6520   44.5660 C   0  0  0  0  0  0  0  0  0  0  0  0
   58.2100   32.4380   45.6610 C   0  0  0  0  0  0  0  0  0  0  0  0
   58.8080   33.6970   45.4370 C   0  0  0  0  0  0  0  0  0  0  0  0
   59.3860   34.3690   46.4650 N   0  0  0  0  0  0  0  0  0  0  0  0
   59.4070   33.8590   47.7210 C   0  0  0  0  0  0  0  0  0  0  0  0
   60.0090   34.5690   48.7660 C   0  0  0  0  0  0  0  0  0  0  0  0
   60.0240   34.0310   50.0560 C   0  0  0  0  0  0  0  0  0  0  0  0
   59.4380   32.7850   50.3050 C   0  0  0  0  0  0  0  0  0  0  0  0
   58.8350   32.0710   49.2640 C   0  0  0  0  0  0  0  0  0  0  0  0
   58.8170   32.6050   47.9650 C   0  0  0  0  0  0  0  0  0  0  0  0
   58.2350   31.9280   46.9340 N   0  0  0  0  0  0  0  0  0  0  0  0
   56.8240   30.5510   44.9000 N   0  0  0  0  0  0  0  0  0  0  0  0
   56.1960   29.7780   43.9760 C   0  0  0  0  0  0  0  0  0  0  0  0
   55.7815   29.4745   41.8692 H   0  0  0  0  0  0  0  0  0  0  0  0
   57.1087   31.4757   41.1722 H   0  0  0  0  0  0  0  0  0  0  0  0
   58.2490   32.8775   42.8980 H   0  0  0  0  0  0  0  0  0  0  0  0
   58.8056   34.1342   44.4276 H   0  0  0  0  0  0  0  0  0  0  0  0
   60.4697   35.5490   48.5725 H   0  0  0  0  0  0  0  0  0  0  0  0
   60.4977   34.5885   50.8775 H   0  0  0  0  0  0  0  0  0  0  0  0
   59.4515   32.3658   51.3219 H   0  0  0  0  0  0  0  0  0  0  0  0
   58.3751   31.0917   49.4627 H   0  0  0  0  0  0  0  0  0  0  0  0
   57.8010   30.9980   47.1320 H   0  0  0  0  0  0  0  0  0  0  0  0
   55.6153   28.9005   44.2966 H   0  0  0  0  0  0  0  0  0  0  0  0
  1  2  2  0
  2  3  1  0
  3  4  2  0
  4  5  1  0
  5  6  2  0
  6  7  1  0
  7  8  2  0
  8  9  1  0
  9 10  2  0
 10 11  1  0
 11 12  2  0
 12 13  1  0
 13 14  2  0
  4 15  1  0
 15 16  2  0
 16  1  1  0
 14  5  1  0
 13  8  1  0
  1 17  1  0
  2 18  1  0
  3 19  1  0
  6 20  1  0
  9 21  1  0
 10 22  1  0
 11 23  1  0
 12 24  1  0
 14 25  1  0
 16 26  1  0
M  CHG  1  14   1
M  END
>  <UniqueID>  (3) 
3

>  <SMILES>  (3) 
c1ccc(-c2cnc3ccccc3[nH+]2)nc1

>  <Energy>  (3) 
38.060265958559555

>  <Genealogy>  (3) 
c1ccc(-c2cnc3ccccc3[nH+]2)nc1 (protonated)
c1ccc(-c2cnc3ccccc3[nH+]2)nc1 (3D coordinates assigned)
c1ccc(-c2cnc3ccccc3[nH+]2)nc1 (optimized conformer: 38.060265958559555 kcal/mol)

>  <smiles>  (3) 
c1ccc(-c2cnc3ccccc3n2)nc1

>  <score_type>  (3) 
oracle

>  <origin>  (3) 
adg

>  <m_score__min__energy>  (3) 
-5.04

>  <m_primary>  (3) 
energy

$$$$
3:0
     RDKit          3D

 65 68  0  0  0  0  0  0  0  0999 V2000
   57.3810   25.1670   43.8240 C   0  0  0  0  0  0  0  0  0  0  0  0
   56.2930   24.4990   44.6560 C   0  0  0  0  0  0  0  0  0  0  0  0
   55.9900   25.3730   46.1860 S   0  0  0  0  0  0  0  0  0  0  0  0
   54.8580   26.3360   45.9580 O   0  0  0  0  0  0  0  0  0  0  0  0
   55.5820   24.4200   47.2760 O   0  0  0  0  0  0  0  0  0  0  0  0
   57.3900   26.2850   46.6640 N   0  0  0  0  0  0  0  0  0  0  0  0
   57.6510   27.6750   46.4220 C   0  0  0  0  0  0  0  0  0  0  0  0
   57.0460   28.3920   45.3710 C   0  0  0  0  0  0  0  0  0  0  0  0
   57.3420   29.7460   45.1770 C   0  0  0  0  0  0  0  0  0  0  0  0
   58.2440   30.4090   46.0250 C   0  0  0  0  0  0  0  0  0  0  0  0
   58.5510   31.8470   45.8180 C   0  0  0  0  0  0  0  0  0  0  0  0
   57.7460   32.6340   44.9880 C   0  0  0  0  0  0  0  0  0  0  0  0
   58.0580   33.9760   44.8090 C   0  0  0  0  0  0  0  0  0  0  0  0
   59.1720   34.5110   45.4490 C   0  0  0  0  0  0  0  0  0  0  0  0
   59.4510   35.7280   45.2780 O   0  0  0  0  0  0  0  0  0  0  0  0
   59.9490   33.7110   46.2500 N   0  0  0  0  0  0  0  0  0  0  0  0
   61.1590   34.2360   46.9080 C   0  0  0  0  0  0  0  0  0  0  0  0
   62.4230   33.5160   46.4110 C   0  0  0  0  0  0  0  0  0  0  0  0
   63.5040   33.3680   47.4950 C   0  0  0  0  0  0  0  0  0  0  0  0
   63.0120   32.5620   48.6340 N   0  0  0  0  0  0  0  0  0  0  0  0
   62.1540   31.4540   48.1550 C   0  0  0  0  0  0  0  0  0  0  0  0
   61.3740   30.8100   49.3050 C   0  0  0  0  0  0  0  0  0  0  0  0
   60.5310   31.8160   49.9640 N   0  0  0  0  0  0  0  0  0  0  0  0
   59.3510   31.4140   50.6960 C   0  0  0  0  0  0  0  0  0  0  0  0
   58.3120   32.3340   50.9330 C   0  0  0  0  0  0  0  0  0  0  0  0
   57.1590   31.9350   51.6140 C   0  0  0  0  0  0  0  0  0  0  0  0
   57.0340   30.6220   52.0750 C   0  0  0  0  0  0  0  0  0  0  0  0
   55.9070   30.2330   52.7210 F   0  0  0  0  0  0  0  0  0  0  0  0
   58.0650   29.7040   51.8580 C   0  0  0  0  0  0  0  0  0  0  0  0
   59.2170   30.0950   51.1700 C   0  0  0  0  0  0  0  0  0  0  0  0
   60.8680   33.2350   49.8100 C   0  0  0  0  0  0  0  0  0  0  0  0
   62.3900   33.4070   49.6940 C   0  0  0  0  0  0  0  0  0  0  0  0
   59.6300   32.4200   46.4300 N   0  0  0  0  0  0  0  0  0  0  0  0
   58.8370   29.6930   47.0800 C   0  0  0  0  0  0  0  0  0  0  0  0
   58.5360   28.3410   47.2760 C   0  0  0  0  0  0  0  0  0  0  0  0
   58.1253   25.6240   44.4927 H   0  0  0  0  0  0  0  0  0  0  0  0
   57.8715   24.4142   43.1894 H   0  0  0  0  0  0  0  0  0  0  0  0
   56.9316   25.9450   43.1894 H   0  0  0  0  0  0  0  0  0  0  0  0
   55.3622   24.4748   44.0703 H   0  0  0  0  0  0  0  0  0  0  0  0
   56.6316   23.4827   44.9060 H   0  0  0  0  0  0  0  0  0  0  0  0
   56.3374   27.8851   44.6995 H   0  0  0  0  0  0  0  0  0  0  0  0
   56.8639   30.2959   44.3529 H   0  0  0  0  0  0  0  0  0  0  0  0
   56.8740   32.1945   44.4816 H   0  0  0  0  0  0  0  0  0  0  0  0
   57.4296   34.6105   44.1667 H   0  0  0  0  0  0  0  0  0  0  0  0
   61.2488   35.3101   46.6883 H   0  0  0  0  0  0  0  0  0  0  0  0
   61.0663   34.0663   47.9909 H   0  0  0  0  0  0  0  0  0  0  0  0
   62.1388   32.5123   46.0619 H   0  0  0  0  0  0  0  0  0  0  0  0
   62.8517   34.1291   45.6045 H   0  0  0  0  0  0  0  0  0  0  0  0
   64.3843   32.8731   47.0588 H   0  0  0  0  0  0  0  0  0  0  0  0
   63.7663   34.3702   47.8648 H   0  0  0  0  0  0  0  0  0  0  0  0
   61.4408   31.8481   47.4161 H   0  0  0  0  0  0  0  0  0  0  0  0
   62.8009   30.6867   47.7047 H   0  0  0  0  0  0  0  0  0  0  0  0
   60.7381   30.0049   48.9082 H   0  0  0  0  0  0  0  0  0  0  0  0
   62.0839   30.3975   50.0370 H   0  0  0  0  0  0  0  0  0  0  0  0
   58.4083   33.3715   50.5805 H   0  0  0  0  0  0  0  0  0  0  0  0
   56.3473   32.6568   51.7877 H   0  0  0  0  0  0  0  0  0  0  0  0
   57.9698   28.6728   52.2290 H   0  0  0  0  0  0  0  0  0  0  0  0
   60.0241   29.3677   50.9977 H   0  0  0  0  0  0  0  0  0  0  0  0
   60.3874   33.6264   48.9013 H   0  0  0  0  0  0  0  0  0  0  0  0
   60.5095   33.7876   50.6910 H   0  0  0  0  0  0  0  0  0  0  0  0
   62.6035   34.4618   49.4665 H   0  0  0  0  0  0  0  0  0  0  0  0
   62.8227   33.0875   50.6535 H   0  0  0  0  0  0  0  0  0  0  0  0
   60.2410   31.8230   47.0340 H   0  0  0  0  0  0  0  0  0  0  0  0
   59.5422   30.1993   47.7556 H   0  0  0  0  0  0  0  0  0  0  0  0
   59.0004   27.7958   48.1109 H   0  0  0  0  0  0  0  0  0  0  0  0
  1  2  1  0
  2  3  1  0
  3  4  2  0
  3  5  2  0
  3  6  1  0
  6  7  1  0
  7  8  2  0
  8  9  1  0
  9 10  2  0
 10 11  1  0
 11 12  1  0
 12 13  2  0
 13 14  1  0
 14 15  2  0
 14 16  1  0
 16 17  1  0
 17 18  1  0
 18 19  1  0
 19 20  1  0
 20 21  1  0
 21 22  1  0
 22 23  1  0
 23 24  1  0
 24 25  2  0
 25 26  1  0
 26 27  2  0
 27 28  1  0
 27 29  1  0
 29 30  2  0
 23 31  1  0
 31 32  1  0
 16 33  1  0
 10 34  1  0
 34 35  2  0
 35  7  1  0
 33 11  2  0
 32 20  1  0
 30 24  1  0
  1 36  1  0
  1 37  1  0
  1 38  1  0
  2 39  1  0
  2 40  1  0
  8 41  1  0
  9 42  1  0
 12 43  1  0
 13 44  1  0
 17 45  1  0
 17 46  1  0
 18 47  1  0
 18 48  1  0
 19 49  1  0
 19 50  1  0
 21 51  1  0
 21 52  1  0
 22 53  1  0
 22 54  1  0
 25 55  1  0
 26 56  1  0
 29 57  1  0
 30 58  1  0
 31 59  1  0
 31 60  1  0
 32 61  1  0
 32 62  1  0
 33 63  1  0
 34 64  1  0
 35 65  1  0
M  CHG  2   6  -1  33   1
M  END
>  <UniqueID>  (4) 
4

>  <SMILES>  (4) 
CCS(=O)(=O)[N-]c1ccc(-c2ccc(=O)n(CCCN3CCN(c4ccc(F)cc4)CC3)[nH+]2)cc1

>  <Energy>  (4) 
79.81082274551149

>  <Genealogy>  (4) 
CCS(=O)(=O)[N-]c1ccc(-c2ccc(=O)n(CCCN3CCN(c4ccc(F)cc4)CC3)[nH+]2)cc1 (protonated)
CCS(=O)(=O)[N-]c1ccc(-c2ccc(=O)n(CCCN3CCN(c4ccc(F)cc4)CC3)[nH+]2)cc1 (3D coordinates assigned)
CCS(=O)(=O)[N-]c1ccc(-c2ccc(=O)n(CCCN3CCN(c4ccc(F)cc4)CC3)[nH+]2)cc1 (nonaromatic ring conformer: 79.81082274551149 kcal/mol)

>  <smiles>  (4) 
CCS(=O)(=O)Nc1ccc(-c2ccc(=O)n(CCCN3CCN(c4ccc(F)cc4)CC3)n2)cc1

>  <score_type>  (4) 
oracle

>  <origin>  (4) 
adg

>  <m_score__min__energy>  (4) 
-9.8300000000000001

>  <m_primary>  (4) 
energy

$$$$
4:0
     RDKit          3D

 37 39  0  0  0  0  0  0  0  0999 V2000
   56.6050   23.0760   48.0960 C   0  0  0  0  0  0  0  0  0  0  0  0
   57.6880   23.5940   47.2660 N   0  0  0  0  0  0  0  0  0  0  0  0
   57.6640   24.8910   46.6440 C   0  0  0  0  0  0  0  0  0  0  0  0
   58.8480   25.5680   46.2940 C   0  0  0  0  0  0  0  0  0  0  0  0
   58.7910   26.8280   45.6910 C   0  0  0  0  0  0  0  0  0  0  0  0
   57.5540   27.4390   45.4260 C   0  0  0  0  0  0  0  0  0  0  0  0
   57.4900   28.7770   44.7830 C   0  0  0  0  0  0  0  0  0  0  0  0
   57.9480   29.9160   45.4680 C   0  0  0  0  0  0  0  0  0  0  0  0
   57.8780   31.1790   44.8580 C   0  0  0  0  0  0  0  0  0  0  0  0
   58.3570   32.3910   45.5690 C   0  0  0  0  0  0  0  0  0  0  0  0
   58.4390   32.4110   46.9750 C   0  0  0  0  0  0  0  0  0  0  0  0
   58.8920   33.5540   47.6420 C   0  0  0  0  0  0  0  0  0  0  0  0
   59.2670   34.6870   46.9160 C   0  0  0  0  0  0  0  0  0  0  0  0
   59.1910   34.6790   45.5220 C   0  0  0  0  0  0  0  0  0  0  0  0
   58.7400   33.5390   44.8490 C   0  0  0  0  0  0  0  0  0  0  0  0
   57.3420   31.2740   43.5650 C   0  0  0  0  0  0  0  0  0  0  0  0
   56.8970   30.1250   42.9130 C   0  0  0  0  0  0  0  0  0  0  0  0
   56.9750   28.9130   43.5250 N   0  0  0  0  0  0  0  0  0  0  0  0
   56.3730   26.7620   45.7750 C   0  0  0  0  0  0  0  0  0  0  0  0
   56.4300   25.5030   46.3780 C   0  0  0  0  0  0  0  0  0  0  0  0
   56.8650   23.2003   49.1576 H   0  0  0  0  0  0  0  0  0  0  0  0
   55.6794   23.6289   47.8780 H   0  0  0  0  0  0  0  0  0  0  0  0
   56.4544   22.0084   47.8780 H   0  0  0  0  0  0  0  0  0  0  0  0
   58.5220   22.9800   47.1220 H   0  0  0  0  0  0  0  0  0  0  0  0
   59.8239   25.1026   46.4963 H   0  0  0  0  0  0  0  0  0  0  0  0
   59.7233   27.3458   45.4215 H   0  0  0  0  0  0  0  0  0  0  0  0
   58.3615   29.8179   46.4826 H   0  0  0  0  0  0  0  0  0  0  0  0
   58.1449   31.5220   47.5522 H   0  0  0  0  0  0  0  0  0  0  0  0
   58.9531   33.5607   48.7403 H   0  0  0  0  0  0  0  0  0  0  0  0
   59.6221   35.5852   47.4425 H   0  0  0  0  0  0  0  0  0  0  0  0
   59.4867   35.5718   44.9514 H   0  0  0  0  0  0  0  0  0  0  0  0
   58.6841   33.5391   43.7504 H   0  0  0  0  0  0  0  0  0  0  0  0
   57.2731   32.2524   43.0670 H   0  0  0  0  0  0  0  0  0  0  0  0
   56.4804   30.1991   41.8977 H   0  0  0  0  0  0  0  0  0  0  0  0
   56.6510   28.0730   42.9950 H   0  0  0  0  0  0  0  0  0  0  0  0
   55.3968   27.2266   45.5720 H   0  0  0  0  0  0  0  0  0  0  0  0
   55.4971   24.9860   46.6471 H   0  0  0  0  0  0  0  0  0  0  0  0
  1  2  1  0
  2  3  1  0
  3  4  2  0
  4  5  1  0
  5  6  2  0
  6  7  1  0
  7  8  2  0
  8  9  1  0
  9 10  1  0
 10 11  2  0
 11 12  1  0
 12 13  2  0
 13 14  1  0
 14 15  2  0
  9 16  2  0
 16 17  1  0
 17 18  2  0
  6 19  1  0
 19 20  2  0
 20  3  1  0
 18  7  1  0
 15 10  1  0
  1 21  1  0
  1 22  1  0
  1 23  1  0
  2 24  1  0
  4 25  1  0
  5 26  1  0
  8 27  1  0
 11 28  1  0
 12 29  1  0
 13 30  1  0
 14 31  1  0
 15 32  1  0
 16 33  1  0
 17 34  1  0
 18 35  1  0
 19 36  1  0
 20 37  1  0
M  CHG  1  18   1
M  END
>  <UniqueID>  (5) 
5

>  <SMILES>  (5) 
CNc1ccc(-c2cc(-c3ccccc3)cc[nH+]2)cc1

>  <Energy>  (5) 
48.440316163631486

>  <Genealogy>  (5) 
CNc1ccc(-c2cc(-c3ccccc3)cc[nH+]2)cc1 (protonated)
CNc1ccc(-c2cc(-c3ccccc3)cc[nH+]2)cc1 (3D coordinates assigned)
CNc1ccc(-c2cc(-c3ccccc3)cc[nH+]2)cc1 (optimized conformer: 48.440316163631486 kcal/mol)

>  <smiles>  (5) 
CNc1ccc(-c2cc(-c3ccccc3)ccn2)cc1

>  <score_type>  (5) 
oracle

>  <origin>  (5) 
adg

>  <m_score__min__energy>  (5) 
-5.8099999999999996

>  <m_primary>  (5) 
energy

$$$$
5:0
     RDKit          3D

 35 36  0  0  0  0  0  0  0  0999 V2000
   56.6090   26.8840   45.9870 C   0  0  0  0  0  0  0  0  0  0  0  0
   57.0450   28.1700   45.2950 C   0  0  0  0  0  0  0  0  0  0  0  0
   55.9060   29.0920   45.1730 N   0  0  0  0  0  0  0  0  0  0  0  0
   55.9430   29.8920   43.9360 C   0  0  0  0  0  0  0  0  0  0  0  0
   57.3710   30.2800   43.5060 C   0  0  0  0  0  0  0  0  0  0  0  0
   57.8040   31.5270   44.1420 N   0  0  0  0  0  0  0  0  0  0  0  0
   58.1680   32.7180   43.4470 C   0  0  0  0  0  0  0  0  0  0  0  0
   58.1240   32.8020   42.1910 O   0  0  0  0  0  0  0  0  0  0  0  0
   58.7070   34.0900   44.4710 S   0  0  0  0  0  0  0  0  0  0  0  0
   58.4720   33.0280   45.9120 C   0  0  0  0  0  0  0  0  0  0  0  0
   58.8220   33.3540   47.1670 C   0  0  0  0  0  0  0  0  0  0  0  0
   60.2170   33.5570   47.6130 C   0  0  0  0  0  0  0  0  0  0  0  0
   61.2670   33.2200   46.7430 C   0  0  0  0  0  0  0  0  0  0  0  0
   62.5960   33.3690   47.1520 C   0  0  0  0  0  0  0  0  0  0  0  0
   62.8870   33.8360   48.4370 C   0  0  0  0  0  0  0  0  0  0  0  0
   61.8470   34.1450   49.3190 C   0  0  0  0  0  0  0  0  0  0  0  0
   60.5170   33.9990   48.9140 C   0  0  0  0  0  0  0  0  0  0  0  0
   57.9780   31.7030   45.5410 C   0  0  0  0  0  0  0  0  0  0  0  0
   57.7260   30.7910   46.3740 O   0  0  0  0  0  0  0  0  0  0  0  0
   56.6553   27.0206   47.0775 H   0  0  0  0  0  0  0  0  0  0  0  0
   55.5779   26.6400   45.6915 H   0  0  0  0  0  0  0  0  0  0  0  0
   57.2791   26.0632   45.6915 H   0  0  0  0  0  0  0  0  0  0  0  0
   57.8390   28.6496   45.8862 H   0  0  0  0  0  0  0  0  0  0  0  0
   57.4199   27.9275   44.2897 H   0  0  0  0  0  0  0  0  0  0  0  0
   55.8720   29.7190   46.0090 H   0  0  0  0  0  0  0  0  0  0  0  0
   55.4813   29.3066   43.1272 H   0  0  0  0  0  0  0  0  0  0  0  0
   55.3965   30.8258   44.1344 H   0  0  0  0  0  0  0  0  0  0  0  0
   58.0621   29.4738   43.7931 H   0  0  0  0  0  0  0  0  0  0  0  0
   57.3743   30.4295   42.4162 H   0  0  0  0  0  0  0  0  0  0  0  0
   58.0203   33.4778   47.9099 H   0  0  0  0  0  0  0  0  0  0  0  0
   61.0431   32.8375   45.7363 H   0  0  0  0  0  0  0  0  0  0  0  0
   63.4142   33.1181   46.4609 H   0  0  0  0  0  0  0  0  0  0  0  0
   63.9330   33.9603   48.7539 H   0  0  0  0  0  0  0  0  0  0  0  0
   62.0758   34.5036   50.3334 H   0  0  0  0  0  0  0  0  0  0  0  0
   59.7020   34.2307   49.6155 H   0  0  0  0  0  0  0  0  0  0  0  0
  1  2  1  0
  2  3  1  0
  3  4  1  0
  4  5  1  0
  5  6  1  0
  6  7  1  0
  7  8  2  0
  7  9  1  0
  9 10  1  0
 10 11  2  3
 11 12  1  0
 12 13  2  0
 13 14  1  0
 14 15  2  0
 15 16  1  0
 16 17  2  0
 10 18  1  0
 18 19  2  0
 18  6  1  0
 17 12  1  0
  1 20  1  0
  1 21  1  0
  1 22  1  0
  2 23  1  0
  2 24  1  0
  3 25  1  0
  4 26  1  0
  4 27  1  0
  5 28  1  0
  5 29  1  0
 11 30  1  0
 13 31  1  0
 14 32  1  0
 15 33  1  0
 16 34  1  0
 17 35  1  0
M  END
>  <UniqueID>  (6) 
6

>  <SMILES>  (6) 
CCNCCN1C(=O)SC(=Cc2ccccc2)C1=O

>  <Energy>  (6) 
56.71436696859652

>  <Genealogy>  (6) 
CCNCCN1C(=O)SC(=Cc2ccccc2)C1=O (3D coordinates assigned)
CCNCCN1C(=O)SC(=Cc2ccccc2)C1=O (nonaromatic ring conformer: 56.71436696859652 kcal/mol)

>  <smiles>  (6) 
CCNCCN1C(=O)SC(=Cc2ccccc2)C1=O

>  <score_type>  (6) 
oracle

>  <origin>  (6) 
adg

>  <m_score__min__energy>  (6) 
-7.29

>  <m_primary>  (6) 
energy

$$$$
6:0
     RDKit          3D

 60 62  0  0  0  0  0  0  0  0999 V2000
   55.7411   32.5196   44.9728 H   0  0  0  0  0  0  0  0  0  0  0  0
   56.7070   32.0600   44.7160 C   0  0  0  0  0  0  0  0  0  0  0  0
   56.8510   30.7830   44.9290 N   0  0  0  0  0  0  0  0  0  0  0  0
   57.8140   30.1690   45.8000 C   0  0  0  0  0  0  0  0  0  0  0  0
   58.8310   30.9640   46.3330 C   0  0  0  0  0  0  0  0  0  0  0  0
   58.8783   32.0315   46.0720 H   0  0  0  0  0  0  0  0  0  0  0  0
   59.7800   30.4270   47.1850 C   0  0  0  0  0  0  0  0  0  0  0  0
   60.5789   31.0709   47.5815 H   0  0  0  0  0  0  0  0  0  0  0  0
   59.7380   29.0780   47.5490 C   0  0  0  0  0  0  0  0  0  0  0  0
   60.7680   28.5820   48.4220 N   0  0  0  0  0  0  0  0  0  0  0  0
   61.2080   27.6580   48.2140 H   0  0  0  0  0  0  0  0  0  0  0  0
   61.2940   29.3640   49.5440 C   0  0  0  0  0  0  0  0  0  0  0  0
   61.7028   30.3107   49.1611 H   0  0  0  0  0  0  0  0  0  0  0  0
   62.0791   28.7754   50.0411 H   0  0  0  0  0  0  0  0  0  0  0  0
   60.1940   29.6720   50.5700 C   0  0  0  0  0  0  0  0  0  0  0  0
   60.5302   29.3467   51.5656 H   0  0  0  0  0  0  0  0  0  0  0  0
   59.2809   29.1341   50.2751 H   0  0  0  0  0  0  0  0  0  0  0  0
   59.8930   31.1220   50.6110 N   0  0  0  0  0  0  0  0  0  0  0  0
   60.9140   31.9140   49.8770 C   0  0  0  0  0  0  0  0  0  0  0  0
   61.3494   31.2969   49.0772 H   0  0  0  0  0  0  0  0  0  0  0  0
   61.7040   32.2254   50.5762 H   0  0  0  0  0  0  0  0  0  0  0  0
   60.2660   33.1510   49.2660 C   0  0  0  0  0  0  0  0  0  0  0  0
   59.9172   33.8168   50.0691 H   0  0  0  0  0  0  0  0  0  0  0  0
   61.0022   33.6812   48.6440 H   0  0  0  0  0  0  0  0  0  0  0  0
   59.4110   32.8477   48.6440 H   0  0  0  0  0  0  0  0  0  0  0  0
   58.5240   31.3800   50.1080 C   0  0  0  0  0  0  0  0  0  0  0  0
   58.5334   32.2973   49.5009 H   0  0  0  0  0  0  0  0  0  0  0  0
   58.2091   30.5147   49.5062 H   0  0  0  0  0  0  0  0  0  0  0  0
   57.5270   31.5540   51.2560 C   0  0  0  0  0  0  0  0  0  0  0  0
   58.0545   31.4619   52.2169 H   0  0  0  0  0  0  0  0  0  0  0  0
   57.0594   32.5473   51.1881 H   0  0  0  0  0  0  0  0  0  0  0  0
   56.7505   30.7778   51.1881 H   0  0  0  0  0  0  0  0  0  0  0  0
   58.6910   28.2420   47.0570 C   0  0  0  0  0  0  0  0  0  0  0  0
   58.5820   26.8760   47.4300 C   0  0  0  0  0  0  0  0  0  0  0  0
   59.5120   26.2880   48.2810 O   0  0  0  0  0  0  0  0  0  0  0  0
   57.5230   26.0820   46.9560 C   0  0  0  0  0  0  0  0  0  0  0  0
   57.4170   24.7270   47.3300 C   0  0  0  0  0  0  0  0  0  0  0  0
   58.1712   24.2859   47.9982 H   0  0  0  0  0  0  0  0  0  0  0  0
   56.3650   23.9400   46.8610 C   0  0  0  0  0  0  0  0  0  0  0  0
   56.2923   22.8841   47.1606 H   0  0  0  0  0  0  0  0  0  0  0  0
   55.4060   24.4910   46.0130 C   0  0  0  0  0  0  0  0  0  0  0  0
   54.5778   23.8686   45.6433 H   0  0  0  0  0  0  0  0  0  0  0  0
   55.4940   25.8300   45.6320 C   0  0  0  0  0  0  0  0  0  0  0  0
   54.7337   26.2576   44.9619 H   0  0  0  0  0  0  0  0  0  0  0  0
   56.5500   26.6400   46.0990 C   0  0  0  0  0  0  0  0  0  0  0  0
   56.6380   27.9900   45.7220 C   0  0  0  0  0  0  0  0  0  0  0  0
   55.6490   28.5130   44.8900 O   0  0  0  0  0  0  0  0  0  0  0  0
   57.7030   28.8040   46.1870 C   0  0  0  0  0  0  0  0  0  0  0  0
   57.7820   32.9490   44.1390 C   0  0  0  0  0  0  0  0  0  0  0  0
   58.6958   32.3576   43.9800 H   0  0  0  0  0  0  0  0  0  0  0  0
   57.4302   33.3621   43.1821 H   0  0  0  0  0  0  0  0  0  0  0  0
   58.0760   34.0610   45.0640 N   0  0  0  0  0  0  0  0  0  0  0  0
   57.4220   33.8220   46.3610 C   0  0  0  0  0  0  0  0  0  0  0  0
   58.1173   34.0761   47.1746 H   0  0  0  0  0  0  0  0  0  0  0  0
   56.5217   34.4492   46.4388 H   0  0  0  0  0  0  0  0  0  0  0  0
   57.1383   32.7621   46.4388 H   0  0  0  0  0  0  0  0  0  0  0  0
   59.5290   34.2030   45.2660 C   0  0  0  0  0  0  0  0  0  0  0  0
   59.7490   34.2245   46.3436 H   0  0  0  0  0  0  0  0  0  0  0  0
   60.0486   33.3514   44.8026 H   0  0  0  0  0  0  0  0  0  0  0  0
   59.8739   35.1391   44.8026 H   0  0  0  0  0  0  0  0  0  0  0  0
  1  2  1  0
  2  3  2  0
  3  4  1  0
  4  5  2  0
  5  6  1  0
  5  7  1  0
  7  8  1  0
  7  9  2  0
  9 10  1  0
 10 11  1  0
 10 12  1  0
 12 13  1  0
 12 14  1  0
 12 15  1  0
 15 16  1  0
 15 17  1  0
 15 18  1  0
 18 19  1  0
 19 20  1  0
 19 21  1  0
 19 22  1  0
 22 23  1  0
 22 24  1  0
 22 25  1  0
 18 26  1  0
 26 27  1  0
 26 28  1  0
 26 29  1  0
 29 30  1  0
 29 31  1  0
 29 32  1  0
  9 33  1  0
 33 34  2  0
 34 35  1  0
 34 36  1  0
 36 37  2  0
 37 38  1  0
 37 39  1  0
 39 40  1  0
 39 41  2  0
 41 42  1  0
 41 43  1  0
 43 44  1  0
 43 45  2  0
 45 46  1  0
 46 47  1  0
 46 48  2  0
  2 49  1  0
 49 50  1  0
 49 51  1  0
 49 52  1  0
 52 53  1  0
 53 54  1  0
 53 55  1  0
 53 56  1  0
 52 57  1  0
 57 58  1  0
 57 59  1  0
 57 60  1  0
 48  4  1  0
 48 33  1  0
 45 36  1  0
M  CHG  2  35  -1  47  -1
M  END
>  <UniqueID>  (7) 
7

>  <SMILES>  (7) 
CCN(CC)CCNc1ccc(/N=C\CN(C)C)c2c([O-])c3ccccc3c([O-])c12

>  <Energy>  (7) 
84.82141308417667

>  <Genealogy>  (7) 
CCN(CC)CCNc1ccc(N=CCN(C)C)c2c([O-])c3ccccc3c([O-])c12 (protonated)
CCN(CC)CCNc1ccc(/N=C\CN(C)C)c2c([O-])c3ccccc3c([O-])c12 (cis-trans isomerization)
CCN(CC)CCNc1ccc(/N=C\CN(C)C)c2c([O-])c3ccccc3c([O-])c12 (3D coordinates assigned)
CCN(CC)CCNc1ccc(/N=C\CN(C)C)c2c([O-])c3ccccc3c([O-])c12 (optimized conformer: 84.82141308417667 kcal/mol)

>  <smiles>  (7) 
CCN(CC)CCNc1ccc(N=CCN(C)C)c2c(O)c3ccccc3c(O)c12

>  <score_type>  (7) 
oracle

>  <origin>  (7) 
adg

>  <m_score__min__energy>  (7) 
-10.539999999999999

>  <m_primary>  (7) 
energy

$$$$
7:0
     RDKit          3D

 63 66  0  0  0  0  0  0  0  0999 V2000
   59.6780   35.3810   45.6510 C   0  0  0  0  0  0  0  0  0  0  0  0
   60.3890   34.1570   45.8040 O   0  0  0  0  0  0  0  0  0  0  0  0
   61.4060   33.9370   46.7470 C   0  0  0  0  0  0  0  0  0  0  0  0
   62.7550   33.8030   46.3630 C   0  0  0  0  0  0  0  0  0  0  0  0
   63.7420   33.5580   47.3190 C   0  0  0  0  0  0  0  0  0  0  0  0
   63.4010   33.4530   48.6680 C   0  0  0  0  0  0  0  0  0  0  0  0
   64.7510   33.0920   49.9690 Br  0  0  0  0  0  0  0  0  0  0  0  0
   62.0690   33.5930   49.0650 C   0  0  0  0  0  0  0  0  0  0  0  0
   61.0640   33.8320   48.1120 C   0  0  0  0  0  0  0  0  0  0  0  0
   59.6230   33.8810   48.5500 C   0  0  0  0  0  0  0  0  0  0  0  0
   59.0030   32.5550   48.4250 N   0  0  0  0  0  0  0  0  0  0  0  0
   58.2810   32.1880   47.1960 C   0  0  0  0  0  0  0  0  0  0  0  0
   57.4510   33.3500   46.6210 C   0  0  0  0  0  0  0  0  0  0  0  0
   56.7080   32.9520   45.3360 C   0  0  0  0  0  0  0  0  0  0  0  0
   57.1040   31.6060   44.8660 N   0  0  0  0  0  0  0  0  0  0  0  0
   55.9220   30.7990   44.4690 C   0  0  0  0  0  0  0  0  0  0  0  0
   56.2580   29.8120   43.3410 C   0  0  0  0  0  0  0  0  0  0  0  0
   56.7020   30.4530   42.1530 O   0  0  0  0  0  0  0  0  0  0  0  0
   57.4480   31.6400   42.3900 C   0  0  0  0  0  0  0  0  0  0  0  0
   58.1090   31.7010   43.7800 C   0  0  0  0  0  0  0  0  0  0  0  0
   59.2200   31.5700   49.4500 C   0  0  0  0  0  0  0  0  0  0  0  0
   58.5250   31.6010   50.5010 O   0  0  0  0  0  0  0  0  0  0  0  0
   60.2160   30.4630   49.2500 C   0  0  0  0  0  0  0  0  0  0  0  0
   60.0260   29.8220   47.9380 N   0  0  0  0  0  0  0  0  0  0  0  0
   60.8670   30.1600   46.9120 C   0  0  0  0  0  0  0  0  0  0  0  0
   60.6990   29.6300   45.6750 N   0  0  0  0  0  0  0  0  0  0  0  0
   59.6980   28.7570   45.4120 C   0  0  0  0  0  0  0  0  0  0  0  0
   59.5430   28.2320   44.1240 C   0  0  0  0  0  0  0  0  0  0  0  0
   58.5040   27.3380   43.8520 C   0  0  0  0  0  0  0  0  0  0  0  0
   57.6160   26.9650   44.8650 C   0  0  0  0  0  0  0  0  0  0  0  0
   57.7640   27.4830   46.1560 C   0  0  0  0  0  0  0  0  0  0  0  0
   58.8080   28.3850   46.4390 C   0  0  0  0  0  0  0  0  0  0  0  0
   58.9980   28.9400   47.7170 C   0  0  0  0  0  0  0  0  0  0  0  0
   58.2170   28.6230   48.6580 O   0  0  0  0  0  0  0  0  0  0  0  0
   59.4389   35.7926   46.6427 H   0  0  0  0  0  0  0  0  0  0  0  0
   60.2995   36.0992   45.0961 H   0  0  0  0  0  0  0  0  0  0  0  0
   58.7463   35.1969   45.0961 H   0  0  0  0  0  0  0  0  0  0  0  0
   63.0323   33.8921   45.3023 H   0  0  0  0  0  0  0  0  0  0  0  0
   64.7914   33.4474   47.0082 H   0  0  0  0  0  0  0  0  0  0  0  0
   61.8051   33.5157   50.1301 H   0  0  0  0  0  0  0  0  0  0  0  0
   59.5744   34.2061   49.5997 H   0  0  0  0  0  0  0  0  0  0  0  0
   59.0796   34.5903   47.9084 H   0  0  0  0  0  0  0  0  0  0  0  0
   59.0139   31.8717   46.4392 H   0  0  0  0  0  0  0  0  0  0  0  0
   57.5826   31.3777   47.4522 H   0  0  0  0  0  0  0  0  0  0  0  0
   56.7133   33.6649   47.3737 H   0  0  0  0  0  0  0  0  0  0  0  0
   58.1426   34.1682   46.3717 H   0  0  0  0  0  0  0  0  0  0  0  0
   55.6261   32.9556   45.5348 H   0  0  0  0  0  0  0  0  0  0  0  0
   56.9687   33.6781   44.5518 H   0  0  0  0  0  0  0  0  0  0  0  0
   55.5672   30.2333   45.3431 H   0  0  0  0  0  0  0  0  0  0  0  0
   55.1461   31.4868   44.1017 H   0  0  0  0  0  0  0  0  0  0  0  0
   57.0520   29.1364   43.6920 H   0  0  0  0  0  0  0  0  0  0  0  0
   55.3338   29.2686   43.0946 H   0  0  0  0  0  0  0  0  0  0  0  0
   58.2386   31.7089   41.6283 H   0  0  0  0  0  0  0  0  0  0  0  0
   56.7360   32.4770   42.3406 H   0  0  0  0  0  0  0  0  0  0  0  0
   58.8179   30.8653   43.8753 H   0  0  0  0  0  0  0  0  0  0  0  0
   58.6265   32.6672   43.8732 H   0  0  0  0  0  0  0  0  0  0  0  0
   61.2331   30.8782   49.3050 H   0  0  0  0  0  0  0  0  0  0  0  0
   60.0685   29.7084   50.0367 H   0  0  0  0  0  0  0  0  0  0  0  0
   61.6881   30.8693   47.0929 H   0  0  0  0  0  0  0  0  0  0  0  0
   60.2401   28.5235   43.3246 H   0  0  0  0  0  0  0  0  0  0  0  0
   58.3847   26.9270   42.8387 H   0  0  0  0  0  0  0  0  0  0  0  0
   56.7985   26.2622   44.6464 H   0  0  0  0  0  0  0  0  0  0  0  0
   57.0643   27.1855   46.9509 H   0  0  0  0  0  0  0  0  0  0  0  0
  1  2  1  0
  2  3  1  0
  3  4  2  0
  4  5  1  0
  5  6  2  0
  6  7  1  0
  6  8  1  0
  8  9  2  0
  9 10  1  0
 10 11  1  0
 11 12  1  0
 12 13  1  0
 13 14  1  0
 14 15  1  0
 15 16  1  0
 16 17  1  0
 17 18  1  0
 18 19  1  0
 19 20  1  0
 11 21  1  0
 21 22  2  0
 21 23  1  0
 23 24  1  0
 24 25  1  0
 25 26  2  0
 26 27  1  0
 27 28  2  0
 28 29  1  0
 29 30  2  0
 30 31  1  0
 31 32  2  0
 32 33  1  0
 33 34  2  0
  9  3  1  0
 20 15  1  0
 33 24  1  0
 32 27  1  0
  1 35  1  0
  1 36  1  0
  1 37  1  0
  4 38  1  0
  5 39  1  0
  8 40  1  0
 10 41  1  0
 10 42  1  0
 12 43  1  0
 12 44  1  0
 13 45  1  0
 13 46  1  0
 14 47  1  0
 14 48  1  0
 16 49  1  0
 16 50  1  0
 17 51  1  0
 17 52  1  0
 19 53  1  0
 19 54  1  0
 20 55  1  0
 20 56  1  0
 23 57  1  0
 23 58  1  0
 25 59  1  0
 28 60  1  0
 29 61  1  0
 30 62  1  0
 31 63  1  0
M  END
>  <UniqueID>  (8) 
8

>  <SMILES>  (8) 
COc1ccc(Br)cc1CN(CCCN1CCOCC1)C(=O)Cn1cnc2ccccc2c1=O

>  <Energy>  (8) 
80.53527128758527

>  <Genealogy>  (8) 
COc1ccc(Br)cc1CN(CCCN1CCOCC1)C(=O)Cn1cnc2ccccc2c1=O (3D coordinates assigned)
COc1ccc(Br)cc1CN(CCCN1CCOCC1)C(=O)Cn1cnc2ccccc2c1=O (nonaromatic ring conformer: 80.53527128758527 kcal/mol)

>  <smiles>  (8) 
COc1ccc(Br)cc1CN(CCCN1CCOCC1)C(=O)Cn1cnc2ccccc2c1=O

>  <score_type>  (8) 
oracle

>  <origin>  (8) 
adg

>  <m_score__min__energy>  (8) 
-8.8100000000000005

>  <m_primary>  (8) 
energy

$$$$
8:0
     RDKit          3D

 56 59  0  0  0  0  0  0  0  0999 V2000
   56.6548   32.7468   43.7918 H   0  0  0  0  0  0  0  0  0  0  0  0
   57.1210   32.0370   44.4910 C   0  0  0  0  0  0  0  0  0  0  0  0
   56.6920   30.7540   44.5330 N   0  0  0  0  0  0  0  0  0  0  0  0
   57.2780   29.8260   45.3310 C   0  0  0  0  0  0  0  0  0  0  0  0
   56.8320   28.5050   45.2700 C   0  0  0  0  0  0  0  0  0  0  0  0
   55.9405   28.2635   44.6726 H   0  0  0  0  0  0  0  0  0  0  0  0
   57.4960   27.4840   45.9530 C   0  0  0  0  0  0  0  0  0  0  0  0
   56.9770   26.1840   45.8040 O   0  0  0  0  0  0  0  0  0  0  0  0
   56.4570   25.3380   46.8320 C   0  0  0  0  0  0  0  0  0  0  0  0
   56.4685   25.8828   47.7875 H   0  0  0  0  0  0  0  0  0  0  0  0
   55.4285   25.0520   46.5665 H   0  0  0  0  0  0  0  0  0  0  0  0
   57.3020   24.0640   46.9690 C   0  0  0  0  0  0  0  0  0  0  0  0
   58.3637   24.3278   46.8545 H   0  0  0  0  0  0  0  0  0  0  0  0
   57.1051   23.6301   47.9604 H   0  0  0  0  0  0  0  0  0  0  0  0
   56.9350   23.0160   45.9110 C   0  0  0  0  0  0  0  0  0  0  0  0
   57.0506   22.0114   46.3438 H   0  0  0  0  0  0  0  0  0  0  0  0
   55.8935   23.1818   45.5982 H   0  0  0  0  0  0  0  0  0  0  0  0
   57.8110   23.1360   44.7230 N   0  0  0  0  0  0  0  0  0  0  0  0
   58.2380   21.8180   44.1950 C   0  0  0  0  0  0  0  0  0  0  0  0
   59.2529   21.9156   43.7822 H   0  0  0  0  0  0  0  0  0  0  0  0
   58.2065   21.0990   45.0269 H   0  0  0  0  0  0  0  0  0  0  0  0
   57.3020   21.2930   43.0870 C   0  0  0  0  0  0  0  0  0  0  0  0
   57.7006   21.5911   42.1061 H   0  0  0  0  0  0  0  0  0  0  0  0
   57.2479   20.1967   43.1593 H   0  0  0  0  0  0  0  0  0  0  0  0
   56.0030   21.8230   43.2400 O   0  0  0  0  0  0  0  0  0  0  0  0
   56.0120   23.2180   42.9860 C   0  0  0  0  0  0  0  0  0  0  0  0
   56.0772   23.3749   41.8992 H   0  0  0  0  0  0  0  0  0  0  0  0
   55.0852   23.6329   43.4090 H   0  0  0  0  0  0  0  0  0  0  0  0
   57.1950   23.9540   43.6610 C   0  0  0  0  0  0  0  0  0  0  0  0
   57.9554   24.1807   42.8991 H   0  0  0  0  0  0  0  0  0  0  0  0
   56.8089   24.8767   44.1188 H   0  0  0  0  0  0  0  0  0  0  0  0
   58.6420   27.7990   46.7210 C   0  0  0  0  0  0  0  0  0  0  0  0
   59.3210   26.7820   47.4120 O   0  0  0  0  0  0  0  0  0  0  0  0
   60.6490   26.3490   47.1400 C   0  0  0  0  0  0  0  0  0  0  0  0
   61.1796   26.1760   48.0879 H   0  0  0  0  0  0  0  0  0  0  0  0
   60.6185   25.4143   46.5609 H   0  0  0  0  0  0  0  0  0  0  0  0
   61.1754   27.1221   46.5609 H   0  0  0  0  0  0  0  0  0  0  0  0
   59.0860   29.1340   46.7800 C   0  0  0  0  0  0  0  0  0  0  0  0
   60.0177   29.3667   47.3165 H   0  0  0  0  0  0  0  0  0  0  0  0
   58.3640   30.1810   46.1670 C   0  0  0  0  0  0  0  0  0  0  0  0
   58.7340   31.5630   46.2470 C   0  0  0  0  0  0  0  0  0  0  0  0
   59.5440   32.0660   47.1490 N   0  0  0  0  0  0  0  0  0  0  0  0
   60.9580   32.3020   47.0980 C   0  0  0  0  0  0  0  0  0  0  0  0
   61.8720   31.3210   47.5240 C   0  0  0  0  0  0  0  0  0  0  0  0
   61.5067   30.3420   47.8677 H   0  0  0  0  0  0  0  0  0  0  0  0
   63.2440   31.5890   47.5110 C   0  0  0  0  0  0  0  0  0  0  0  0
   63.9583   30.8129   47.8233 H   0  0  0  0  0  0  0  0  0  0  0  0
   63.7090   32.8410   47.1020 C   0  0  0  0  0  0  0  0  0  0  0  0
   64.7891   33.0488   47.0880 H   0  0  0  0  0  0  0  0  0  0  0  0
   62.8010   33.8310   46.7100 C   0  0  0  0  0  0  0  0  0  0  0  0
   63.1673   34.8191   46.3946 H   0  0  0  0  0  0  0  0  0  0  0  0
   61.4290   33.5650   46.7190 C   0  0  0  0  0  0  0  0  0  0  0  0
   60.7165   34.3507   46.4273 H   0  0  0  0  0  0  0  0  0  0  0  0
   58.1520   32.4650   45.3300 C   0  0  0  0  0  0  0  0  0  0  0  0
   58.5410   33.8570   45.2930 C   0  0  0  0  0  0  0  0  0  0  0  0
   58.8520   34.9710   45.2630 N   0  0  0  0  0  0  0  0  0  0  0  0
  1  2  1  0
  2  3  1  0
  3  4  1  0
  4  5  2  0
  5  6  1  0
  5  7  1  0
  7  8  1  0
  8  9  1  0
  9 10  1  0
  9 11  1  0
  9 12  1  0
 12 13  1  0
 12 14  1  0
 12 15  1  0
 15 16  1  0
 15 17  1  0
 15 18  1  0
 18 19  1  0
 19 20  1  0
 19 21  1  0
 19 22  1  0
 22 23  1  0
 22 24  1  0
 22 25  1  0
 25 26  1  0
 26 27  1  0
 26 28  1  0
 26 29  1  0
 29 30  1  0
 29 31  1  0
  7 32  2  0
 32 33  1  0
 33 34  1  0
 34 35  1  0
 34 36  1  0
 34 37  1  0
 32 38  1  0
 38 39  1  0
 38 40  2  0
 40 41  1  0
 41 42  2  0
 42 43  1  0
 43 44  2  0
 44 45  1  0
 44 46  1  0
 46 47  1  0
 46 48  2  0
 48 49  1  0
 48 50  1  0
 50 51  1  0
 50 52  2  0
 52 53  1  0
 41 54  1  0
 54 55  1  0
 55 56  3  0
 54  2  2  0
 40  4  1  0
 52 43  1  0
 29 18  1  0
M  CHG  1   3  -1
M  END
>  <UniqueID>  (9) 
9

>  <SMILES>  (9) 
COc1cc2/c(=N\c3ccccc3)c(C#N)c[n-]c2cc1OCCCN1CCOCC1

>  <Energy>  (9) 
95.26841536651582

>  <Genealogy>  (9) 
COc1cc2c(=Nc3ccccc3)c(C#N)c[n-]c2cc1OCCCN1CCOCC1 (protonated)
COc1cc2/c(=N\c3ccccc3)c(C#N)c[n-]c2cc1OCCCN1CCOCC1 (cis-trans isomerization)
COc1cc2/c(=N\c3ccccc3)c(C#N)c[n-]c2cc1OCCCN1CCOCC1 (3D coordinates assigned)
COc1cc2/c(=N\c3ccccc3)c(C#N)c[n-]c2cc1OCCCN1CCOCC1 (nonaromatic ring conformer: 95.26841536651582 kcal/mol)

>  <smiles>  (9) 
COc1cc2c(=Nc3ccccc3)c(C#N)c[nH]c2cc1OCCCN1CCOCC1

>  <score_type>  (9) 
oracle

>  <origin>  (9) 
adg

>  <m_score__min__energy>  (9) 
-9.6199999999999992

>  <m_primary>  (9) 
energy

$$$$
9:0
     RDKit          3D

 50 53  0  0  0  0  0  0  0  0999 V2000
   64.3884   33.0492   47.5322 H   0  0  0  0  0  0  0  0  0  0  0  0
   63.3070   32.9030   47.3940 C   0  0  0  0  0  0  0  0  0  0  0  0
   62.5600   33.8480   46.6870 C   0  0  0  0  0  0  0  0  0  0  0  0
   63.0532   34.7401   46.2736 H   0  0  0  0  0  0  0  0  0  0  0  0
   61.1870   33.6620   46.5040 C   0  0  0  0  0  0  0  0  0  0  0  0
   60.6025   34.4100   45.9482 H   0  0  0  0  0  0  0  0  0  0  0  0
   60.5480   32.5210   47.0280 C   0  0  0  0  0  0  0  0  0  0  0  0
   59.0570   32.3140   46.8500 C   0  0  2  0  0  0  0  0  0  0  0  0
   58.7091   31.8667   47.7928 H   0  0  0  0  0  0  0  0  0  0  0  0
   58.7640   31.4470   45.7160 N   0  0  0  0  0  0  0  0  0  0  0  0
   59.2150   30.0830   45.6200 C   0  0  0  0  0  0  0  0  0  0  0  0
   60.4420   29.8440   45.4530 O   0  0  0  0  0  0  0  0  0  0  0  0
   58.2710   28.9510   45.7300 C   0  0  0  0  0  0  0  0  0  0  0  0
   58.6270   27.7950   46.4370 C   0  0  0  0  0  0  0  0  0  0  0  0
   59.6223   27.7191   46.8993 H   0  0  0  0  0  0  0  0  0  0  0  0
   57.7220   26.7400   46.5560 C   0  0  0  0  0  0  0  0  0  0  0  0
   58.0021   25.8318   47.1099 H   0  0  0  0  0  0  0  0  0  0  0  0
   56.4570   26.8420   45.9680 C   0  0  0  0  0  0  0  0  0  0  0  0
   55.6280   25.8430   46.1000 N   0  0  0  0  0  0  0  0  0  0  0  0
   55.9600   24.4660   46.3500 C   0  0  0  0  0  0  0  0  0  0  0  0
   55.9140   23.9500   47.6580 C   0  0  0  0  0  0  0  0  0  0  0  0
   55.6696   24.6143   48.5000 H   0  0  0  0  0  0  0  0  0  0  0  0
   56.1770   22.5990   47.8930 C   0  0  0  0  0  0  0  0  0  0  0  0
   56.1571   22.2059   48.9202 H   0  0  0  0  0  0  0  0  0  0  0  0
   56.4650   21.7470   46.8260 C   0  0  0  0  0  0  0  0  0  0  0  0
   56.6775   20.6842   47.0140 H   0  0  0  0  0  0  0  0  0  0  0  0
   56.4840   22.2410   45.5200 C   0  0  0  0  0  0  0  0  0  0  0  0
   56.7036   21.5631   44.6820 H   0  0  0  0  0  0  0  0  0  0  0  0
   56.2240   23.6000   45.2700 C   0  0  0  0  0  0  0  0  0  0  0  0
   56.2290   24.1200   43.8590 C   0  0  0  0  0  0  0  0  0  0  0  0
   56.2396   25.2199   43.8736 H   0  0  0  0  0  0  0  0  0  0  0  0
   57.1236   23.7516   43.3356 H   0  0  0  0  0  0  0  0  0  0  0  0
   55.3274   23.7689   43.3356 H   0  0  0  0  0  0  0  0  0  0  0  0
   56.1090   27.9940   45.3140 N   0  0  0  0  0  0  0  0  0  0  0  0
   55.1500   28.1280   44.9240 H   0  0  0  0  0  0  0  0  0  0  0  0
   56.9810   29.0320   45.1870 C   0  0  0  0  0  0  0  0  0  0  0  0
   56.6705   29.9425   44.6535 H   0  0  0  0  0  0  0  0  0  0  0  0
   57.9350   32.0900   44.7100 C   0  0  0  0  0  0  0  0  0  0  0  0
   58.5267   32.3101   43.8092 H   0  0  0  0  0  0  0  0  0  0  0  0
   57.1006   31.4443   44.3988 H   0  0  0  0  0  0  0  0  0  0  0  0
   57.4390   33.3800   45.3470 C   0  0  0  0  0  0  0  0  0  0  0  0
   57.5156   34.2116   44.6311 H   0  0  0  0  0  0  0  0  0  0  0  0
   56.3837   33.2966   45.6459 H   0  0  0  0  0  0  0  0  0  0  0  0
   58.3380   33.6390   46.5560 C   0  0  0  0  0  0  0  0  0  0  0  0
   59.0703   34.4265   46.3244 H   0  0  0  0  0  0  0  0  0  0  0  0
   57.7532   33.9778   47.4239 H   0  0  0  0  0  0  0  0  0  0  0  0
   61.3070   31.5820   47.7480 C   0  0  0  0  0  0  0  0  0  0  0  0
   60.8177   30.6935   48.1736 H   0  0  0  0  0  0  0  0  0  0  0  0
   62.6820   31.7720   47.9260 C   0  0  0  0  0  0  0  0  0  0  0  0
   63.2714   31.0304   48.4852 H   0  0  0  0  0  0  0  0  0  0  0  0
  1  2  1  0
  2  3  2  0
  3  4  1  0
  3  5  1  0
  5  6  1  0
  5  7  2  0
  7  8  1  0
  8  9  1  1
  8 10  1  0
 10 11  1  0
 11 12  2  0
 11 13  1  0
 13 14  1  0
 14 15  1  0
 14 16  2  0
 16 17  1  0
 16 18  1  0
 18 19  2  0
 19 20  1  0
 20 21  2  0
 21 22  1  0
 21 23  1  0
 23 24  1  0
 23 25  2  0
 25 26  1  0
 25 27  1  0
 27 28  1  0
 27 29  2  0
 29 30  1  0
 30 31  1  0
 30 32  1  0
 30 33  1  0
 18 34  1  0
 34 35  1  0
 34 36  1  0
 36 37  1  0
 10 38  1  0
 38 39  1  0
 38 40  1  0
 38 41  1  0
 41 42  1  0
 41 43  1  0
 41 44  1  0
 44 45  1  0
 44 46  1  0
  7 47  1  0
 47 48  1  0
 47 49  2  0
 49 50  1  0
 49  2  1  0
 44  8  1  0
 36 13  2  0
 29 20  1  0
M  END
>  <UniqueID>  (10) 
10

>  <SMILES>  (10) 
Cc1ccccc1/N=c1/ccc(C(=O)N2CCC[C@@H]2c2ccccc2)c[nH]1

>  <Energy>  (10) 
70.04680623660585

>  <Genealogy>  (10) 
Cc1ccccc1N=c1ccc(C(=O)N2CCC[C@@H]2c2ccccc2)c[nH]1 (chirality)
Cc1ccccc1/N=c1/ccc(C(=O)N2CCC[C@@H]2c2ccccc2)c[nH]1 (cis-trans isomerization)
Cc1ccccc1/N=c1/ccc(C(=O)N2CCC[C@@H]2c2ccccc2)c[nH]1 (3D coordinates assigned)
Cc1ccccc1/N=c1/ccc(C(=O)N2CCC[C@@H]2c2ccccc2)c[nH]1 (nonaromatic ring conformer: 70.04680623660585 kcal/mol)

>  <smiles>  (10) 
Cc1ccccc1N=c1ccc(C(=O)N2CCCC2c2ccccc2)c[nH]1

>  <score_type>  (10) 
oracle

>  <origin>  (10) 
adg

>  <m_score__min__energy>  (10) 
-9.0099999999999998

>  <m_primary>  (10) 
energy

$$$$
10:0
     RDKit          3D

 46 48  0  0  0  0  0  0  0  0999 V2000
   63.6780   33.4440   46.7360 C   0  0  0  0  0  0  0  0  0  0  0  0
   63.4090   32.7820   48.0850 C   0  0  0  0  0  0  0  0  0  0  0  0
   61.9680   32.8540   48.4180 N   0  0  0  0  0  0  0  0  0  0  0  0
   61.6010   34.1870   48.9480 C   0  0  0  0  0  0  0  0  0  0  0  0
   60.1380   34.2050   49.3890 C   0  0  0  0  0  0  0  0  0  0  0  0
   61.5560   31.7590   49.3340 C   0  0  0  0  0  0  0  0  0  0  0  0
   60.8030   30.6800   48.5530 C   0  0  0  0  0  0  0  0  0  0  0  0
   61.0230   30.8210   47.1150 N   0  0  0  0  0  0  0  0  0  0  0  0
   59.9120   30.7750   46.2070 C   0  0  0  0  0  0  0  0  0  0  0  0
   59.1850   31.9320   45.8280 C   0  0  0  0  0  0  0  0  0  0  0  0
   59.4820   33.1910   46.3820 C   0  0  0  0  0  0  0  0  0  0  0  0
   58.7650   34.3230   46.0020 C   0  0  0  0  0  0  0  0  0  0  0  0
   57.7330   34.2200   45.0730 C   0  0  0  0  0  0  0  0  0  0  0  0
   57.4010   32.9830   44.5200 C   0  0  0  0  0  0  0  0  0  0  0  0
   58.1050   31.8130   44.8840 C   0  0  0  0  0  0  0  0  0  0  0  0
   57.7720   30.5750   44.3580 N   0  0  0  0  0  0  0  0  0  0  0  0
   56.6810   30.4060   43.3850 C   0  0  0  0  0  0  0  0  0  0  0  0
   58.4820   29.4840   44.7690 C   0  0  0  0  0  0  0  0  0  0  0  0
   58.3060   28.2430   44.3790 O   0  0  0  0  0  0  0  0  0  0  0  0
   59.2050   27.4980   44.9980 C   0  0  0  0  0  0  0  0  0  0  0  0
   59.9990   28.2860   45.8220 C   0  0  0  0  0  0  0  0  0  0  0  0
   59.5090   29.5630   45.6610 C   0  0  0  0  0  0  0  0  0  0  0  0
   64.0876   34.4520   46.8974 H   0  0  0  0  0  0  0  0  0  0  0  0
   64.4022   32.8404   46.1693 H   0  0  0  0  0  0  0  0  0  0  0  0
   62.7380   33.5166   46.1693 H   0  0  0  0  0  0  0  0  0  0  0  0
   63.7180   31.7273   48.0390 H   0  0  0  0  0  0  0  0  0  0  0  0
   63.9812   33.3104   48.8618 H   0  0  0  0  0  0  0  0  0  0  0  0
   62.2417   34.4222   49.8106 H   0  0  0  0  0  0  0  0  0  0  0  0
   61.7420   34.9358   48.1546 H   0  0  0  0  0  0  0  0  0  0  0  0
   60.0862   34.2056   50.4878 H   0  0  0  0  0  0  0  0  0  0  0  0
   59.6484   35.1092   48.9983 H   0  0  0  0  0  0  0  0  0  0  0  0
   59.6263   33.3131   48.9983 H   0  0  0  0  0  0  0  0  0  0  0  0
   62.4498   31.3163   49.7979 H   0  0  0  0  0  0  0  0  0  0  0  0
   60.8959   32.1685   50.1129 H   0  0  0  0  0  0  0  0  0  0  0  0
   61.1576   29.6898   48.8753 H   0  0  0  0  0  0  0  0  0  0  0  0
   59.7271   30.7898   48.7542 H   0  0  0  0  0  0  0  0  0  0  0  0
   61.8500   31.3890   46.8190 H   0  0  0  0  0  0  0  0  0  0  0  0
   60.2894   33.2822   47.1234 H   0  0  0  0  0  0  0  0  0  0  0  0
   59.0149   35.3018   46.4373 H   0  0  0  0  0  0  0  0  0  0  0  0
   57.1759   35.1198   44.7732 H   0  0  0  0  0  0  0  0  0  0  0  0
   56.5801   32.9175   43.7907 H   0  0  0  0  0  0  0  0  0  0  0  0
   55.7315   30.2589   43.9206 H   0  0  0  0  0  0  0  0  0  0  0  0
   56.6105   31.3039   42.7535 H   0  0  0  0  0  0  0  0  0  0  0  0
   56.8855   29.5288   42.7535 H   0  0  0  0  0  0  0  0  0  0  0  0
   59.3097   26.4096   44.8780 H   0  0  0  0  0  0  0  0  0  0  0  0
   60.8336   27.9619   46.4610 H   0  0  0  0  0  0  0  0  0  0  0  0
  1  2  1  0
  2  3  1  0
  3  4  1  0
  4  5  1  0
  3  6  1  0
  6  7  1  0
  7  8  1  0
  8  9  1  0
  9 10  2  0
 10 11  1  0
 11 12  2  0
 12 13  1  0
 13 14  2  0
 14 15  1  0
 15 16  2  0
 16 17  1  0
 16 18  1  0
 18 19  1  0
 19 20  1  0
 20 21  2  0
 21 22  1  0
 22  9  1  0
 15 10  1  0
 22 18  2  0
  1 23  1  0
  1 24  1  0
  1 25  1  0
  2 26  1  0
  2 27  1  0
  4 28  1  0
  4 29  1  0
  5 30  1  0
  5 31  1  0
  5 32  1  0
  6 33  1  0
  6 34  1  0
  7 35  1  0
  7 36  1  0
  8 37  1  0
 11 38  1  0
 12 39  1  0
 13 40  1  0
 14 41  1  0
 17 42  1  0
 17 43  1  0
 17 44  1  0
 20 45  1  0
 21 46  1  0
M  CHG  1  16   1
M  END
>  <UniqueID>  (11) 
11

>  <SMILES>  (11) 
CCN(CC)CCNc1c2ccccc2[n+](C)c2occc12

>  <Energy>  (11) 
90.75785118426339

>  <Genealogy>  (11) 
CCN(CC)CCNc1c2ccccc2[n+](C)c2occc12 (3D coordinates assigned)
CCN(CC)CCNc1c2ccccc2[n+](C)c2occc12 (optimized conformer: 90.75785118426339 kcal/mol)

>  <smiles>  (11) 
CCN(CC)CCNc1c2ccccc2[n+](C)c2occc12

>  <score_type>  (11) 
oracle

>  <origin>  (11) 
adg

>  <m_score__min__energy>  (11) 
-4.7199999999999998

>  <m_primary>  (11) 
energy

$$$$
11:0
     RDKit          3D

 38 39  0  0  0  0  0  0  0  0999 V2000
   56.5100   29.7270   42.7160 C   0  0  0  0  0  0  0  0  0  0  0  0
   55.3950   29.7590   43.7490 C   0  0  0  0  0  0  0  0  0  0  0  0
   55.9250   29.4320   45.0300 O   0  0  0  0  0  0  0  0  0  0  0  0
   57.2930   29.2870   45.3140 C   0  0  0  0  0  0  0  0  0  0  0  0
   57.9020   28.0200   45.4080 C   0  0  0  0  0  0  0  0  0  0  0  0
   59.2640   27.9110   45.6950 C   0  0  0  0  0  0  0  0  0  0  0  0
   60.0310   29.0590   45.8990 C   0  0  0  0  0  0  0  0  0  0  0  0
   59.4400   30.3200   45.8100 C   0  0  0  0  0  0  0  0  0  0  0  0
   58.0720   30.4460   45.5030 C   0  0  0  0  0  0  0  0  0  0  0  0
   57.4510   31.7430   45.4460 N   0  0  0  0  0  0  0  0  0  0  0  0
   57.8670   32.7800   44.5470 C   0  0  0  0  0  0  0  0  0  0  0  0
   58.4650   32.4930   43.4740 O   0  0  0  0  0  0  0  0  0  0  0  0
   57.5750   34.2160   44.8650 C   0  0  0  0  0  0  0  0  0  0  0  0
   58.7620   34.8650   45.4210 N   0  0  0  0  0  0  0  0  0  0  0  0
   59.5530   34.3270   46.4990 C   0  0  0  0  0  0  0  0  0  0  0  0
   58.9570   34.1320   47.7550 C   0  0  0  0  0  0  0  0  0  0  0  0
   59.7040   33.6300   48.8250 C   0  0  0  0  0  0  0  0  0  0  0  0
   61.0540   33.3160   48.6530 C   0  0  0  0  0  0  0  0  0  0  0  0
   61.6580   33.4980   47.4050 C   0  0  0  0  0  0  0  0  0  0  0  0
   63.3530   33.1050   47.1880 Cl  0  0  0  0  0  0  0  0  0  0  0  0
   60.9130   33.9940   46.3310 C   0  0  0  0  0  0  0  0  0  0  0  0
   57.4833   29.6991   43.2278 H   0  0  0  0  0  0  0  0  0  0  0  0
   56.4010   28.8316   42.0864 H   0  0  0  0  0  0  0  0  0  0  0  0
   56.4525   30.6272   42.0864 H   0  0  0  0  0  0  0  0  0  0  0  0
   54.9536   30.7660   43.7810 H   0  0  0  0  0  0  0  0  0  0  0  0
   54.6203   29.0276   43.4751 H   0  0  0  0  0  0  0  0  0  0  0  0
   57.3010   27.1116   45.2544 H   0  0  0  0  0  0  0  0  0  0  0  0
   59.7335   26.9184   45.7605 H   0  0  0  0  0  0  0  0  0  0  0  0
   61.1027   28.9697   46.1302 H   0  0  0  0  0  0  0  0  0  0  0  0
   60.0470   31.2213   45.9808 H   0  0  0  0  0  0  0  0  0  0  0  0
   56.6550   31.9440   46.0930 H   0  0  0  0  0  0  0  0  0  0  0  0
   57.2741   34.7375   43.9444 H   0  0  0  0  0  0  0  0  0  0  0  0
   56.7632   34.2602   45.6060 H   0  0  0  0  0  0  0  0  0  0  0  0
   59.0760   35.7530   44.9670 H   0  0  0  0  0  0  0  0  0  0  0  0
   57.8941   34.3760   47.8985 H   0  0  0  0  0  0  0  0  0  0  0  0
   59.2271   33.4819   49.8051 H   0  0  0  0  0  0  0  0  0  0  0  0
   61.6410   32.9263   49.4977 H   0  0  0  0  0  0  0  0  0  0  0  0
   61.3906   34.1253   45.3488 H   0  0  0  0  0  0  0  0  0  0  0  0
  1  2  1  0
  2  3  1  0
  3  4  1  0
  4  5  2  0
  5  6  1  0
  6  7  2  0
  7  8  1  0
  8  9  2  0
  9 10  1  0
 10 11  1  0
 11 12  2  0
 11 13  1  0
 13 14  1  0
 14 15  1  0
 15 16  2  0
 16 17  1  0
 17 18  2  0
 18 19  1  0
 19 20  1  0
 19 21  2  0
  9  4  1  0
 21 15  1  0
  1 22  1  0
  1 23  1  0
  1 24  1  0
  2 25  1  0
  2 26  1  0
  5 27  1  0
  6 28  1  0
  7 29  1  0
  8 30  1  0
 10 31  1  0
 13 32  1  0
 13 33  1  0
 14 34  1  0
 16 35  1  0
 17 36  1  0
 18 37  1  0
 21 38  1  0
M  END
>  <UniqueID>  (12) 
12

>  <SMILES>  (12) 
CCOc1ccccc1NC(=O)CNc1cccc(Cl)c1

>  <Energy>  (12) 
36.27634363895401

>  <Genealogy>  (12) 
CCOc1ccccc1NC(=O)CNc1cccc(Cl)c1 (3D coordinates assigned)
CCOc1ccccc1NC(=O)CNc1cccc(Cl)c1 (optimized conformer: 36.27634363895401 kcal/mol)

>  <smiles>  (12) 
CCOc1ccccc1NC(=O)CNc1cccc(Cl)c1

>  <score_type>  (12) 
oracle

>  <origin>  (12) 
adg

>  <m_score__min__energy>  (12) 
-7.29

>  <m_primary>  (12) 
energy

$$$$
12:0
     RDKit          3D

 37 38  0  0  0  0  0  0  0  0999 V2000
   57.0520   33.4110   47.0610 F   0  0  0  0  0  0  0  0  0  0  0  0
   58.0890   32.6320   46.5750 C   0  0  0  0  0  0  0  0  0  0  0  0
   58.1770   31.4790   47.3310 F   0  0  0  0  0  0  0  0  0  0  0  0
   59.2660   33.3500   46.7060 F   0  0  0  0  0  0  0  0  0  0  0  0
   57.8440   32.2630   45.1340 C   0  0  0  0  0  0  0  0  0  0  0  0
   58.3240   33.0820   44.0970 C   0  0  0  0  0  0  0  0  0  0  0  0
   58.1450   32.7120   42.7630 C   0  0  0  0  0  0  0  0  0  0  0  0
   57.5030   31.5120   42.4470 C   0  0  0  0  0  0  0  0  0  0  0  0
   57.0430   30.6680   43.4680 C   0  0  0  0  0  0  0  0  0  0  0  0
   56.4040   29.3450   43.1240 C   0  0  0  0  0  0  0  0  0  0  0  0
   57.3920   28.2510   43.0610 N   0  0  0  0  0  0  0  0  0  0  0  0
   57.9410   27.8770   44.3850 C   0  0  0  0  0  0  0  0  0  0  0  0
   59.4340   28.2280   44.5490 C   0  0  0  0  0  0  0  0  0  0  0  0
   59.7410   28.8110   45.9050 C   0  0  0  0  0  0  0  0  0  0  0  0
   59.0720   28.3390   47.0470 C   0  0  0  0  0  0  0  0  0  0  0  0
   59.3660   28.8700   48.3060 C   0  0  0  0  0  0  0  0  0  0  0  0
   60.3290   29.8740   48.4360 C   0  0  0  0  0  0  0  0  0  0  0  0
   61.0000   30.3490   47.3060 C   0  0  0  0  0  0  0  0  0  0  0  0
   60.7090   29.8210   46.0440 C   0  0  0  0  0  0  0  0  0  0  0  0
   57.2220   31.0450   44.8090 C   0  0  0  0  0  0  0  0  0  0  0  0
   58.8441   34.0207   44.3385 H   0  0  0  0  0  0  0  0  0  0  0  0
   58.5104   33.3670   41.9584 H   0  0  0  0  0  0  0  0  0  0  0  0
   57.3579   31.2284   41.3941 H   0  0  0  0  0  0  0  0  0  0  0  0
   55.6549   29.1026   43.8922 H   0  0  0  0  0  0  0  0  0  0  0  0
   55.9408   29.4407   42.1309 H   0  0  0  0  0  0  0  0  0  0  0  0
   58.1460   28.4900   42.3790 H   0  0  0  0  0  0  0  0  0  0  0  0
   56.8960   27.4140   42.6730 H   0  0  0  0  0  0  0  0  0  0  0  0
   57.3705   28.4073   45.1617 H   0  0  0  0  0  0  0  0  0  0  0  0
   57.8516   26.7845   44.4774 H   0  0  0  0  0  0  0  0  0  0  0  0
   60.0290   27.3126   44.4150 H   0  0  0  0  0  0  0  0  0  0  0  0
   59.6856   28.9862   43.7928 H   0  0  0  0  0  0  0  0  0  0  0  0
   58.3136   27.5482   46.9497 H   0  0  0  0  0  0  0  0  0  0  0  0
   58.8383   28.4968   49.1961 H   0  0  0  0  0  0  0  0  0  0  0  0
   60.5589   30.2905   49.4278 H   0  0  0  0  0  0  0  0  0  0  0  0
   61.7581   31.1393   47.4092 H   0  0  0  0  0  0  0  0  0  0  0  0
   61.2395   30.1974   45.1569 H   0  0  0  0  0  0  0  0  0  0  0  0
   56.8720   30.3807   45.6129 H   0  0  0  0  0  0  0  0  0  0  0  0
  1  2  1  0
  2  3  1  0
  2  4  1  0
  2  5  1  0
  5  6  2  0
  6  7  1  0
  7  8  2  0
  8  9  1  0
  9 10  1  0
 10 11  1  0
 11 12  1  0
 12 13  1  0
 13 14  1  0
 14 15  2  0
 15 16  1  0
 16 17  2  0
 17 18  1  0
 18 19  2  0
  9 20  2  0
 20  5  1  0
 19 14  1  0
  6 21  1  0
  7 22  1  0
  8 23  1  0
 10 24  1  0
 10 25  1  0
 11 26  1  0
 11 27  1  0
 12 28  1  0
 12 29  1  0
 13 30  1  0
 13 31  1  0
 15 32  1  0
 16 33  1  0
 17 34  1  0
 18 35  1  0
 19 36  1  0
 20 37  1  0
M  CHG  1  11   1
M  END
>  <UniqueID>  (13) 
13

>  <SMILES>  (13) 
FC(F)(F)c1cccc(C[NH2+]CCc2ccccc2)c1

>  <Energy>  (13) 
36.663821454273425

>  <Genealogy>  (13) 
FC(F)(F)c1cccc(C[NH2+]CCc2ccccc2)c1 (protonated)
FC(F)(F)c1cccc(C[NH2+]CCc2ccccc2)c1 (3D coordinates assigned)
FC(F)(F)c1cccc(C[NH2+]CCc2ccccc2)c1 (optimized conformer: 36.663821454273425 kcal/mol)

>  <smiles>  (13) 
FC(F)(F)c1cccc(CNCCc2ccccc2)c1

>  <score_type>  (13) 
oracle

>  <origin>  (13) 
adg

>  <m_score__min__energy>  (13) 
-4.6100000000000003

>  <m_primary>  (13) 
energy

$$$$
13:0
     RDKit          3D

 56 59  0  0  0  0  0  0  0  0999 V2000
   60.1310   33.8430   50.1730 C   0  0  0  0  0  0  0  0  0  0  0  0
   61.4580   33.9020   49.4160 C   0  0  0  0  0  0  0  0  0  0  0  0
   61.2580   34.1810   47.9760 N   0  0  0  0  0  0  0  0  0  0  0  0
   59.8660   34.5930   47.6820 C   0  0  0  0  0  0  0  0  0  0  0  0
   59.8040   35.3630   46.3680 C   0  0  0  0  0  0  0  0  0  0  0  0
   61.7550   33.1180   47.0630 C   0  0  0  0  0  0  0  0  0  0  0  0
   61.1670   31.7110   47.3060 C   0  0  0  0  0  0  0  0  0  0  0  0
   59.9330   31.7660   48.0180 O   0  0  0  0  0  0  0  0  0  0  0  0
   58.9960   30.7270   48.0170 C   0  0  0  0  0  0  0  0  0  0  0  0
   58.6770   30.1530   49.0950 O   0  0  0  0  0  0  0  0  0  0  0  0
   58.4470   30.2390   46.7360 C   0  0  0  0  0  0  0  0  0  0  0  0
   58.1820   28.8660   46.6140 C   0  0  0  0  0  0  0  0  0  0  0  0
   57.7560   28.3310   45.3880 C   0  0  0  0  0  0  0  0  0  0  0  0
   57.4980   26.8790   45.2210 C   0  0  0  0  0  0  0  0  0  0  0  0
   57.7780   26.2580   43.9900 C   0  0  0  0  0  0  0  0  0  0  0  0
   57.5520   24.8920   43.8120 C   0  0  0  0  0  0  0  0  0  0  0  0
   57.0520   24.1150   44.8640 C   0  0  0  0  0  0  0  0  0  0  0  0
   56.8220   22.7400   44.6950 C   0  0  0  0  0  0  0  0  0  0  0  0
   56.3270   21.9760   45.7550 C   0  0  0  0  0  0  0  0  0  0  0  0
   56.0600   22.5750   46.9890 C   0  0  0  0  0  0  0  0  0  0  0  0
   56.2840   23.9420   47.1710 C   0  0  0  0  0  0  0  0  0  0  0  0
   56.7780   24.7230   46.1130 C   0  0  0  0  0  0  0  0  0  0  0  0
   57.0060   26.0970   46.2840 C   0  0  0  0  0  0  0  0  0  0  0  0
   57.5710   29.1640   44.3290 N   0  0  0  0  0  0  0  0  0  0  0  0
   57.7930   30.5020   44.4060 C   0  0  0  0  0  0  0  0  0  0  0  0
   57.5730   31.3000   43.2770 C   0  0  0  0  0  0  0  0  0  0  0  0
   57.7730   32.6790   43.3440 C   0  0  0  0  0  0  0  0  0  0  0  0
   58.1830   33.2690   44.5400 C   0  0  0  0  0  0  0  0  0  0  0  0
   58.4070   32.4840   45.6740 C   0  0  0  0  0  0  0  0  0  0  0  0
   58.2350   31.0830   45.6200 C   0  0  0  0  0  0  0  0  0  0  0  0
   60.3257   33.8517   51.2556 H   0  0  0  0  0  0  0  0  0  0  0  0
   59.5164   34.7147   49.9040 H   0  0  0  0  0  0  0  0  0  0  0  0
   59.5961   32.9202   49.9040 H   0  0  0  0  0  0  0  0  0  0  0  0
   62.0802   34.6986   49.8499 H   0  0  0  0  0  0  0  0  0  0  0  0
   61.9485   32.9218   49.5093 H   0  0  0  0  0  0  0  0  0  0  0  0
   59.2315   33.6976   47.6073 H   0  0  0  0  0  0  0  0  0  0  0  0
   59.5085   35.2441   48.4934 H   0  0  0  0  0  0  0  0  0  0  0  0
   59.7173   36.4394   46.5775 H   0  0  0  0  0  0  0  0  0  0  0  0
   60.7202   35.1747   45.7891 H   0  0  0  0  0  0  0  0  0  0  0  0
   58.9297   35.0306   45.7891 H   0  0  0  0  0  0  0  0  0  0  0  0
   61.5117   33.4145   46.0320 H   0  0  0  0  0  0  0  0  0  0  0  0
   62.8349   33.0334   47.2543 H   0  0  0  0  0  0  0  0  0  0  0  0
   60.9956   31.2246   46.3344 H   0  0  0  0  0  0  0  0  0  0  0  0
   61.8858   31.1414   47.9134 H   0  0  0  0  0  0  0  0  0  0  0  0
   58.3089   28.2053   47.4842 H   0  0  0  0  0  0  0  0  0  0  0  0
   58.1796   26.8556   43.1584 H   0  0  0  0  0  0  0  0  0  0  0  0
   57.7678   24.4237   42.8404 H   0  0  0  0  0  0  0  0  0  0  0  0
   57.0320   22.2634   43.7261 H   0  0  0  0  0  0  0  0  0  0  0  0
   56.1469   20.8996   45.6177 H   0  0  0  0  0  0  0  0  0  0  0  0
   55.6720   21.9679   47.8202 H   0  0  0  0  0  0  0  0  0  0  0  0
   56.0731   24.4078   48.1449 H   0  0  0  0  0  0  0  0  0  0  0  0
   56.7987   26.5673   47.2565 H   0  0  0  0  0  0  0  0  0  0  0  0
   57.2417   30.8387   42.3350 H   0  0  0  0  0  0  0  0  0  0  0  0
   57.6072   33.3020   42.4527 H   0  0  0  0  0  0  0  0  0  0  0  0
   58.3307   34.3579   44.5905 H   0  0  0  0  0  0  0  0  0  0  0  0
   58.7194   32.9602   46.6151 H   0  0  0  0  0  0  0  0  0  0  0  0
  1  2  1  0
  2  3  1  0
  3  4  1  0
  4  5  1  0
  3  6  1  0
  6  7  1  0
  7  8  1  0
  8  9  1  0
  9 10  2  0
  9 11  1  0
 11 12  2  0
 12 13  1  0
 13 14  1  0
 14 15  2  0
 15 16  1  0
 16 17  2  0
 17 18  1  0
 18 19  2  0
 19 20  1  0
 20 21  2  0
 21 22  1  0
 22 23  2  0
 13 24  2  0
 24 25  1  0
 25 26  2  0
 26 27  1  0
 27 28  2  0
 28 29  1  0
 29 30  2  0
 30 11  1  0
 23 14  1  0
 30 25  1  0
 22 17  1  0
  1 31  1  0
  1 32  1  0
  1 33  1  0
  2 34  1  0
  2 35  1  0
  4 36  1  0
  4 37  1  0
  5 38  1  0
  5 39  1  0
  5 40  1  0
  6 41  1  0
  6 42  1  0
  7 43  1  0
  7 44  1  0
 12 45  1  0
 15 46  1  0
 16 47  1  0
 18 48  1  0
 19 49  1  0
 20 50  1  0
 21 51  1  0
 23 52  1  0
 26 53  1  0
 27 54  1  0
 28 55  1  0
 29 56  1  0
M  END
>  <UniqueID>  (14) 
14

>  <SMILES>  (14) 
CCN(CC)CCOC(=O)c1cc(-c2ccc3ccccc3c2)nc2ccccc12

>  <Energy>  (14) 
75.48945501580316

>  <Genealogy>  (14) 
CCN(CC)CCOC(=O)c1cc(-c2ccc3ccccc3c2)nc2ccccc12 (3D coordinates assigned)
CCN(CC)CCOC(=O)c1cc(-c2ccc3ccccc3c2)nc2ccccc12 (optimized conformer: 75.48945501580316 kcal/mol)

>  <smiles>  (14) 
CCN(CC)CCOC(=O)c1cc(-c2ccc3ccccc3c2)nc2ccccc12

>  <score_type>  (14) 
oracle

>  <origin>  (14) 
adg

>  <m_score__min__energy>  (14) 
-8.5899999999999999

>  <m_primary>  (14) 
energy

$$$$
14:0
     RDKit          3D

 24 25  0  0  0  0  0  0  0  0999 V2000
   57.7310   29.8720   46.0780 H   0  0  0  0  0  0  0  0  0  0  0  0
   57.9780   28.8610   46.1590 N   0  0  0  0  0  0  0  0  0  0  0  0
   57.2100   27.9060   45.7320 C   0  0  0  0  0  0  0  0  0  0  0  0
   57.6570   26.4950   45.7920 C   0  0  0  0  0  0  0  0  0  0  0  0
   56.6700   25.1350   45.6580 S   0  0  0  0  0  0  0  0  0  0  0  0
   57.8860   23.9890   45.8360 C   0  0  0  0  0  0  0  0  0  0  0  0
   57.7525   22.8972   45.8205 H   0  0  0  0  0  0  0  0  0  0  0  0
   59.0880   24.6610   46.0060 C   0  0  0  0  0  0  0  0  0  0  0  0
   60.0497   24.1452   46.1446 H   0  0  0  0  0  0  0  0  0  0  0  0
   58.9650   26.0560   45.9850 C   0  0  0  0  0  0  0  0  0  0  0  0
   59.8185   26.7388   46.1089 H   0  0  0  0  0  0  0  0  0  0  0  0
   55.8960   28.2210   45.2430 N   0  0  0  0  0  0  0  0  0  0  0  0
   55.1430   27.5060   45.3450 H   0  0  0  0  0  0  0  0  0  0  0  0
   55.5130   29.5050   44.9010 O   0  0  0  0  0  0  0  0  0  0  0  0
   56.1280   30.2380   43.8790 C   0  0  0  0  0  0  0  0  0  0  0  0
   55.9200   29.9520   42.6680 O   0  0  0  0  0  0  0  0  0  0  0  0
   56.9890   31.3750   44.2150 C   0  0  0  0  0  0  0  0  0  0  0  0
   57.1530   31.8380   45.4330 O   0  0  0  0  0  0  0  0  0  0  0  0
   57.9820   32.8540   45.3780 C   0  0  0  0  0  0  0  0  0  0  0  0
   58.5390   33.8680   46.8940 Br  0  0  0  0  0  0  0  0  0  0  0  0
   58.3820   33.0730   44.0760 C   0  0  0  0  0  0  0  0  0  0  0  0
   59.0715   33.8503   43.7149 H   0  0  0  0  0  0  0  0  0  0  0  0
   57.7380   32.1150   43.3210 C   0  0  0  0  0  0  0  0  0  0  0  0
   57.8067   31.9703   42.2327 H   0  0  0  0  0  0  0  0  0  0  0  0
  1  2  1  0
  2  3  2  0
  3  4  1  0
  4  5  1  0
  5  6  1  0
  6  7  1  0
  6  8  2  0
  8  9  1  0
  8 10  1  0
 10 11  1  0
  3 12  1  0
 12 13  1  0
 12 14  1  0
 14 15  1  0
 15 16  2  0
 15 17  1  0
 17 18  1  0
 18 19  1  0
 19 20  1  0
 19 21  2  0
 21 22  1  0
 21 23  1  0
 23 24  1  0
 10  4  2  0
 23 17  2  0
M  END
>  <UniqueID>  (15) 
15

>  <SMILES>  (15) 
[H]/N=C(/NOC(=O)c1ccc(Br)o1)c1cccs1

>  <Energy>  (15) 
80.28371042172299

>  <Genealogy>  (15) 
[H]/N=C(/NOC(=O)c1ccc(Br)o1)c1cccs1 (cis-trans isomerization)
[H]/N=C(/NOC(=O)c1ccc(Br)o1)c1cccs1 (3D coordinates assigned)
[H]/N=C(/NOC(=O)c1ccc(Br)o1)c1cccs1 (optimized conformer: 80.28371042172299 kcal/mol)

>  <smiles>  (15) 
N=C(NOC(=O)c1ccc(Br)o1)c1cccs1

>  <score_type>  (15) 
oracle

>  <origin>  (15) 
adg

>  <m_score__min__energy>  (15) 
-6.9800000000000004

>  <m_primary>  (15) 
energy

$$$$
15:0
     RDKit          3D

 29 31  0  0  0  0  0  0  0  0999 V2000
   63.0580   32.6310   49.2970 C   0  0  0  0  0  0  0  0  0  0  0  0
   62.8860   33.5470   47.7840 S   0  0  0  0  0  0  0  0  0  0  0  0
   64.1050   33.1770   46.6890 O   0  0  0  0  0  0  0  0  0  0  0  0
   61.3000   33.3340   47.0650 C   0  0  0  0  0  0  0  0  0  0  0  0
   60.6930   34.3900   46.3730 C   0  0  0  0  0  0  0  0  0  0  0  0
   59.4280   34.2200   45.8030 C   0  0  0  0  0  0  0  0  0  0  0  0
   58.7670   32.9940   45.9190 C   0  0  0  0  0  0  0  0  0  0  0  0
   59.3890   31.9150   46.5770 C   0  0  0  0  0  0  0  0  0  0  0  0
   60.6500   32.0980   47.1620 C   0  0  0  0  0  0  0  0  0  0  0  0
   58.8000   30.6060   46.5280 N   0  0  0  0  0  0  0  0  0  0  0  0
   58.0000   30.2220   45.3970 C   0  0  0  0  0  0  0  0  0  0  0  0
   58.0280   28.8980   44.9340 C   0  0  0  0  0  0  0  0  0  0  0  0
   57.3860   28.5590   43.7390 C   0  0  0  0  0  0  0  0  0  0  0  0
   56.7200   29.5390   42.9970 C   0  0  0  0  0  0  0  0  0  0  0  0
   56.6730   30.8570   43.4610 C   0  0  0  0  0  0  0  0  0  0  0  0
   57.2950   31.1970   44.6680 C   0  0  0  0  0  0  0  0  0  0  0  0
   57.0690   32.8370   45.3600 S   0  0  0  0  0  0  0  0  0  0  0  0
   62.9305   33.3098   50.1531 H   0  0  0  0  0  0  0  0  0  0  0  0
   62.2922   31.8423   49.3372 H   0  0  0  0  0  0  0  0  0  0  0  0
   64.0577   32.1738   49.3372 H   0  0  0  0  0  0  0  0  0  0  0  0
   64.5880   32.4130   47.0940 H   0  0  0  0  0  0  0  0  0  0  0  0
   61.2128   35.3548   46.2780 H   0  0  0  0  0  0  0  0  0  0  0  0
   58.9524   35.0518   45.2627 H   0  0  0  0  0  0  0  0  0  0  0  0
   61.1304   31.2670   47.6993 H   0  0  0  0  0  0  0  0  0  0  0  0
   59.1900   29.8560   47.1440 H   0  0  0  0  0  0  0  0  0  0  0  0
   58.5559   28.1252   45.5121 H   0  0  0  0  0  0  0  0  0  0  0  0
   57.4050   27.5188   43.3819 H   0  0  0  0  0  0  0  0  0  0  0  0
   56.2326   29.2729   42.0474 H   0  0  0  0  0  0  0  0  0  0  0  0
   56.1471   31.6270   42.8774 H   0  0  0  0  0  0  0  0  0  0  0  0
  1  2  1  0
  2  3  1  6
  2  4  1  0
  4  5  2  0
  5  6  1  0
  6  7  2  0
  7  8  1  0
  8  9  2  0
  8 10  1  0
 10 11  1  0
 11 12  2  0
 12 13  1  0
 13 14  2  0
 14 15  1  0
 15 16  2  0
 16 17  1  0
  9  4  1  0
 16 11  1  0
 17  7  1  0
  1 18  1  0
  1 19  1  0
  1 20  1  0
  3 21  1  0
  5 22  1  0
  6 23  1  0
  9 24  1  0
 10 25  1  0
 12 26  1  0
 13 27  1  0
 14 28  1  0
 15 29  1  0
M  CHG  1   2   1
M  END
>  <UniqueID>  (16) 
16

>  <SMILES>  (16) 
C[S@@+](O)c1ccc2c(c1)Nc1ccccc1S2

>  <Energy>  (16) 
41.0630937926991

>  <Genealogy>  (16) 
C[S+](O)c1ccc2c(c1)Nc1ccccc1S2 (protonated)
C[S@@+](O)c1ccc2c(c1)Nc1ccccc1S2 (chirality)
C[S@@+](O)c1ccc2c(c1)Nc1ccccc1S2 (3D coordinates assigned)
C[S@@+](O)c1ccc2c(c1)Nc1ccccc1S2 (nonaromatic ring conformer: 41.0630937926991 kcal/mol)

>  <smiles>  (16) 
C[S+]([O-])c1ccc2c(c1)Nc1ccccc1S2

>  <score_type>  (16) 
oracle

>  <origin>  (16) 
adg

>  <m_score__min__energy>  (16) 
-6.0099999999999998

>  <m_primary>  (16) 
energy

$$$$
16:0
     RDKit          3D

 49 52  0  0  0  0  0  0  0  0999 V2000
   57.8990   26.5990   44.4690 C   0  0  0  0  0  0  0  0  0  0  0  0
   56.8460   26.3690   45.5600 C   0  0  0  0  0  0  0  0  0  0  0  0
   57.5230   26.2120   46.9210 C   0  0  0  0  0  0  0  0  0  0  0  0
   55.9170   27.4980   45.6220 N   0  0  0  0  0  0  0  0  0  0  0  0
   56.1580   28.8570   45.2220 C   0  0  0  0  0  0  0  0  0  0  0  0
   55.2780   29.4340   44.5300 O   0  0  0  0  0  0  0  0  0  0  0  0
   57.3860   29.5990   45.5860 C   0  0  0  0  0  0  0  0  0  0  0  0
   58.3860   28.9970   46.2940 N   0  0  0  0  0  0  0  0  0  0  0  0
   59.5100   29.6340   46.6630 N   0  0  0  0  0  0  0  0  0  0  0  0
   60.4750   28.8940   47.4820 C   0  0  0  0  0  0  0  0  0  0  0  0
   60.1600   29.0900   48.9400 C   0  0  0  0  0  0  0  0  0  0  0  0
   59.1910   30.0290   49.3320 C   0  0  0  0  0  0  0  0  0  0  0  0
   58.8560   30.1730   50.6820 C   0  0  0  0  0  0  0  0  0  0  0  0
   59.4790   29.3780   51.6470 C   0  0  0  0  0  0  0  0  0  0  0  0
   60.4390   28.4380   51.2650 C   0  0  0  0  0  0  0  0  0  0  0  0
   60.7770   28.2900   49.9160 C   0  0  0  0  0  0  0  0  0  0  0  0
   59.7050   30.9560   46.3340 C   0  0  0  0  0  0  0  0  0  0  0  0
   60.7430   31.5740   46.6940 O   0  0  0  0  0  0  0  0  0  0  0  0
   58.7110   31.5940   45.5910 C   0  0  0  0  0  0  0  0  0  0  0  0
   57.5830   30.9310   45.2270 C   0  0  0  0  0  0  0  0  0  0  0  0
   56.7420   31.7520   44.5680 N   0  0  0  0  0  0  0  0  0  0  0  0
   57.4160   32.9300   44.5460 C   0  0  0  0  0  0  0  0  0  0  0  0
   58.6250   32.8640   45.1550 N   0  0  0  0  0  0  0  0  0  0  0  0
   59.5420   33.9820   45.3750 C   0  0  0  0  0  0  0  0  0  0  0  0
   59.1690   34.7150   46.6680 C   0  0  0  0  0  0  0  0  0  0  0  0
   58.8730   33.8210   47.8620 C   0  0  0  0  0  0  0  0  0  0  0  0
   60.1820   34.5960   47.7970 C   0  0  0  0  0  0  0  0  0  0  0  0
   58.8715   26.8114   44.9370 H   0  0  0  0  0  0  0  0  0  0  0  0
   57.9820   25.6978   43.8437 H   0  0  0  0  0  0  0  0  0  0  0  0
   57.5987   27.4527   43.8437 H   0  0  0  0  0  0  0  0  0  0  0  0
   56.2917   25.4519   45.3118 H   0  0  0  0  0  0  0  0  0  0  0  0
   56.7857   26.3830   47.7192 H   0  0  0  0  0  0  0  0  0  0  0  0
   57.9324   25.1951   47.0117 H   0  0  0  0  0  0  0  0  0  0  0  0
   58.3382   26.9449   47.0117 H   0  0  0  0  0  0  0  0  0  0  0  0
   60.4176   27.8233   47.2364 H   0  0  0  0  0  0  0  0  0  0  0  0
   61.4890   29.2670   47.2755 H   0  0  0  0  0  0  0  0  0  0  0  0
   58.6943   30.6529   48.5744 H   0  0  0  0  0  0  0  0  0  0  0  0
   58.1008   30.9134   50.9845 H   0  0  0  0  0  0  0  0  0  0  0  0
   59.2134   29.4923   52.7083 H   0  0  0  0  0  0  0  0  0  0  0  0
   60.9297   27.8135   52.0260 H   0  0  0  0  0  0  0  0  0  0  0  0
   61.5288   27.5443   49.6181 H   0  0  0  0  0  0  0  0  0  0  0  0
   57.0210   33.8453   44.0811 H   0  0  0  0  0  0  0  0  0  0  0  0
   60.5703   33.5999   45.4558 H   0  0  0  0  0  0  0  0  0  0  0  0
   59.4708   34.6810   44.5287 H   0  0  0  0  0  0  0  0  0  0  0  0
   58.6493   35.5474   46.1709 H   0  0  0  0  0  0  0  0  0  0  0  0
   58.0979   34.1103   48.5870 H   0  0  0  0  0  0  0  0  0  0  0  0
   58.6010   32.7633   47.9933 H   0  0  0  0  0  0  0  0  0  0  0  0
   60.3527   35.4454   48.4748 H   0  0  0  0  0  0  0  0  0  0  0  0
   61.2475   34.3305   47.8617 H   0  0  0  0  0  0  0  0  0  0  0  0
  1  2  1  0
  2  3  1  0
  2  4  1  0
  4  5  1  0
  5  6  2  0
  5  7  1  0
  7  8  2  0
  8  9  1  0
  9 10  1  0
 10 11  1  0
 11 12  2  0
 12 13  1  0
 13 14  2  0
 14 15  1  0
 15 16  2  0
  9 17  1  0
 17 18  2  0
 17 19  1  0
 19 20  2  0
 20 21  1  0
 21 22  2  0
 22 23  1  0
 23 24  1  0
 24 25  1  0
 25 26  1  0
 26 27  1  0
 20  7  1  0
 27 25  1  0
 16 11  1  0
 23 19  1  0
  1 28  1  0
  1 29  1  0
  1 30  1  0
  2 31  1  0
  3 32  1  0
  3 33  1  0
  3 34  1  0
 10 35  1  0
 10 36  1  0
 12 37  1  0
 13 38  1  0
 14 39  1  0
 15 40  1  0
 16 41  1  0
 22 42  1  0
 24 43  1  0
 24 44  1  0
 25 45  1  0
 26 46  1  0
 26 47  1  0
 27 48  1  0
 27 49  1  0
M  CHG  1   4  -1
M  END
>  <UniqueID>  (17) 
17

>  <SMILES>  (17) 
CC(C)[N-]C(=O)c1nn(Cc2ccccc2)c(=O)c2c1ncn2CC1CC1

>  <Energy>  (17) 
349.20085673383494

>  <Genealogy>  (17) 
CC(C)[N-]C(=O)c1nn(Cc2ccccc2)c(=O)c2c1ncn2CC1CC1 (protonated)
CC(C)[N-]C(=O)c1nn(Cc2ccccc2)c(=O)c2c1ncn2CC1CC1 (3D coordinates assigned)
CC(C)[N-]C(=O)c1nn(Cc2ccccc2)c(=O)c2c1ncn2CC1CC1 (nonaromatic ring conformer: 349.20085673383494 kcal/mol)

>  <smiles>  (17) 
CC(C)NC(=O)c1nn(Cc2ccccc2)c(=O)c2c1ncn2CC1CC1

>  <score_type>  (17) 
oracle

>  <origin>  (17) 
adg

>  <m_score__min__energy>  (17) 
-9.2699999999999996

>  <m_primary>  (17) 
energy

$$$$
17:0
     RDKit          3D

 30 31  0  0  0  0  0  0  0  0999 V2000
   63.7640   33.8360   47.7700 C   0  0  0  0  0  0  0  0  0  0  0  0
   62.5400   33.0890   47.3540 C   0  0  0  0  0  0  0  0  0  0  0  0
   62.6080   31.8430   47.1740 O   0  0  0  0  0  0  0  0  0  0  0  0
   61.2830   33.7760   47.2560 N   0  0  0  0  0  0  0  0  0  0  0  0
   60.0900   33.2020   46.6920 C   0  0  0  0  0  0  0  0  0  0  0  0
   59.5200   33.7830   45.5520 C   0  0  0  0  0  0  0  0  0  0  0  0
   58.3750   33.2320   44.9710 C   0  0  0  0  0  0  0  0  0  0  0  0
   57.7900   32.0810   45.5100 C   0  0  0  0  0  0  0  0  0  0  0  0
   56.6190   31.5450   44.8770 N   0  0  0  0  0  0  0  0  0  0  0  0
   56.4410   29.9110   44.3240 S   0  0  0  0  0  0  0  0  0  0  0  0
   56.4070   29.9010   42.8220 O   0  0  0  0  0  0  0  0  0  0  0  0
   55.1520   29.3470   44.8510 O   0  0  0  0  0  0  0  0  0  0  0  0
   57.7970   28.9440   44.8710 C   0  0  0  0  0  0  0  0  0  0  0  0
   59.1210   29.1250   44.5030 C   0  0  0  0  0  0  0  0  0  0  0  0
   59.9860   28.2100   45.1140 C   0  0  0  0  0  0  0  0  0  0  0  0
   59.3420   27.3140   45.9590 C   0  0  0  0  0  0  0  0  0  0  0  0
   57.6960   27.6600   45.9490 S   0  0  0  0  0  0  0  0  0  0  0  0
   58.3700   31.4820   46.6430 C   0  0  0  0  0  0  0  0  0  0  0  0
   59.5160   32.0350   47.2230 C   0  0  0  0  0  0  0  0  0  0  0  0
   63.8179   33.8689   48.8682 H   0  0  0  0  0  0  0  0  0  0  0  0
   64.6558   33.3281   47.3742 H   0  0  0  0  0  0  0  0  0  0  0  0
   63.7200   34.8614   47.3742 H   0  0  0  0  0  0  0  0  0  0  0  0
   61.2120   34.7220   47.6960 H   0  0  0  0  0  0  0  0  0  0  0  0
   59.9776   34.6806   45.1105 H   0  0  0  0  0  0  0  0  0  0  0  0
   57.9304   33.7064   44.0837 H   0  0  0  0  0  0  0  0  0  0  0  0
   59.4565   29.9056   43.8043 H   0  0  0  0  0  0  0  0  0  0  0  0
   61.0724   28.2009   44.9418 H   0  0  0  0  0  0  0  0  0  0  0  0
   59.8270   26.5135   46.5369 H   0  0  0  0  0  0  0  0  0  0  0  0
   57.9205   30.5754   47.0743 H   0  0  0  0  0  0  0  0  0  0  0  0
   59.9710   31.5530   48.1009 H   0  0  0  0  0  0  0  0  0  0  0  0
  1  2  1  0
  2  3  2  0
  2  4  1  0
  4  5  1  0
  5  6  2  0
  6  7  1  0
  7  8  2  0
  8  9  1  0
  9 10  1  0
 10 11  2  0
 10 12  2  0
 10 13  1  0
 13 14  2  0
 14 15  1  0
 15 16  2  0
 16 17  1  0
  8 18  1  0
 18 19  2  0
 19  5  1  0
 17 13  1  0
  1 20  1  0
  1 21  1  0
  1 22  1  0
  4 23  1  0
  6 24  1  0
  7 25  1  0
 14 26  1  0
 15 27  1  0
 16 28  1  0
 18 29  1  0
 19 30  1  0
M  CHG  1   9  -1
M  END
>  <UniqueID>  (18) 
18

>  <SMILES>  (18) 
CC(=O)Nc1ccc([N-]S(=O)(=O)c2cccs2)cc1

>  <Energy>  (18) 
60.812777353594036

>  <Genealogy>  (18) 
CC(=O)Nc1ccc([N-]S(=O)(=O)c2cccs2)cc1 (protonated)
CC(=O)Nc1ccc([N-]S(=O)(=O)c2cccs2)cc1 (3D coordinates assigned)
CC(=O)Nc1ccc([N-]S(=O)(=O)c2cccs2)cc1 (optimized conformer: 60.812777353594036 kcal/mol)

>  <smiles>  (18) 
CC(=O)Nc1ccc(NS(=O)(=O)c2cccs2)cc1

>  <score_type>  (18) 
oracle

>  <origin>  (18) 
adg

>  <m_score__min__energy>  (18) 
-8.5299999999999994

>  <m_primary>  (18) 
energy

$$$$
18:0
     RDKit          3D

 38 40  0  0  0  0  0  0  0  0999 V2000
   55.7430   24.4000   45.9040 C   0  0  0  0  0  0  0  0  0  0  0  0
   56.7210   25.1050   45.0550 N   0  0  0  0  0  0  0  0  0  0  0  0
   57.0220   24.2850   43.8720 C   0  0  0  0  0  0  0  0  0  0  0  0
   57.9640   25.3980   45.8060 C   0  0  0  0  0  0  0  0  0  0  0  0
   58.0830   26.8950   46.1170 C   0  0  0  0  0  0  0  0  0  0  0  0
   57.2010   27.6910   45.2590 N   0  0  0  0  0  0  0  0  0  0  0  0
   57.2430   29.1250   45.2000 C   0  0  0  0  0  0  0  0  0  0  0  0
   56.2760   29.8750   44.5100 C   0  0  0  0  0  0  0  0  0  0  0  0
   56.3700   31.2300   44.4900 N   0  0  0  0  0  0  0  0  0  0  0  0
   57.3790   31.8800   45.1250 C   0  0  0  0  0  0  0  0  0  0  0  0
   58.3480   31.1420   45.8180 C   0  0  0  0  0  0  0  0  0  0  0  0
   59.4660   31.7920   46.5250 C   0  0  0  0  0  0  0  0  0  0  0  0
   60.7110   31.2540   46.5790 N   0  0  0  0  0  0  0  0  0  0  0  0
   61.5580   32.0420   47.2880 C   0  0  0  0  0  0  0  0  0  0  0  0
   62.9040   31.7500   47.5140 C   0  0  0  0  0  0  0  0  0  0  0  0
   63.6740   32.6550   48.2670 C   0  0  0  0  0  0  0  0  0  0  0  0
   63.0950   33.8320   48.7800 C   0  0  0  0  0  0  0  0  0  0  0  0
   61.7390   34.1160   48.5450 C   0  0  0  0  0  0  0  0  0  0  0  0
   60.9990   33.2040   47.7970 C   0  0  0  0  0  0  0  0  0  0  0  0
   59.3820   33.2710   47.3590 S   0  0  0  0  0  0  0  0  0  0  0  0
   58.2490   29.7850   45.8340 N   0  0  0  0  0  0  0  0  0  0  0  0
   55.9842   24.5739   46.9631 H   0  0  0  0  0  0  0  0  0  0  0  0
   54.7324   24.7787   45.6911 H   0  0  0  0  0  0  0  0  0  0  0  0
   55.7828   23.3215   45.6911 H   0  0  0  0  0  0  0  0  0  0  0  0
   57.3845   23.2973   44.1931 H   0  0  0  0  0  0  0  0  0  0  0  0
   56.1102   24.1627   43.2690 H   0  0  0  0  0  0  0  0  0  0  0  0
   57.7964   24.7816   43.2690 H   0  0  0  0  0  0  0  0  0  0  0  0
   57.9538   24.8348   46.7508 H   0  0  0  0  0  0  0  0  0  0  0  0
   58.8236   25.1009   45.1872 H   0  0  0  0  0  0  0  0  0  0  0  0
   57.8083   27.0651   47.1685 H   0  0  0  0  0  0  0  0  0  0  0  0
   59.1213   27.2061   45.9297 H   0  0  0  0  0  0  0  0  0  0  0  0
   56.5020   27.2040   44.6530 H   0  0  0  0  0  0  0  0  0  0  0  0
   55.4492   29.3690   43.9900 H   0  0  0  0  0  0  0  0  0  0  0  0
   57.4354   32.9782   45.0956 H   0  0  0  0  0  0  0  0  0  0  0  0
   63.3538   30.8305   47.1113 H   0  0  0  0  0  0  0  0  0  0  0  0
   64.7364   32.4418   48.4566 H   0  0  0  0  0  0  0  0  0  0  0  0
   63.7071   34.5322   49.3674 H   0  0  0  0  0  0  0  0  0  0  0  0
   61.2757   35.0320   48.9404 H   0  0  0  0  0  0  0  0  0  0  0  0
  1  2  1  0
  2  3  1  0
  2  4  1  0
  4  5  1  0
  5  6  1  0
  6  7  1  0
  7  8  2  0
  8  9  1  0
  9 10  2  0
 10 11  1  0
 11 12  1  0
 12 13  2  0
 13 14  1  0
 14 15  2  0
 15 16  1  0
 16 17  2  0
 17 18  1  0
 18 19  2  0
 19 20  1  0
 11 21  2  0
 21  7  1  0
 20 12  1  0
 19 14  1  0
  1 22  1  0
  1 23  1  0
  1 24  1  0
  3 25  1  0
  3 26  1  0
  3 27  1  0
  4 28  1  0
  4 29  1  0
  5 30  1  0
  5 31  1  0
  6 32  1  0
  8 33  1  0
 10 34  1  0
 15 35  1  0
 16 36  1  0
 17 37  1  0
 18 38  1  0
M  END
>  <UniqueID>  (19) 
19

>  <SMILES>  (19) 
CN(C)CCNc1cncc(-c2nc3ccccc3s2)n1

>  <Energy>  (19) 
74.53155304493006

>  <Genealogy>  (19) 
CN(C)CCNc1cncc(-c2nc3ccccc3s2)n1 (3D coordinates assigned)
CN(C)CCNc1cncc(-c2nc3ccccc3s2)n1 (optimized conformer: 74.53155304493006 kcal/mol)

>  <smiles>  (19) 
CN(C)CCNc1cncc(-c2nc3ccccc3s2)n1

>  <score_type>  (19) 
oracle

>  <origin>  (19) 
adg

>  <m_score__min__energy>  (19) 
-6.8499999999999996

>  <m_primary>  (19) 
energy

$$$$
19:0
     RDKit          3D

 36 37  0  0  0  0  0  0  0  0999 V2000
   55.5370   30.4650   44.1070 C   0  0  0  0  0  0  0  0  0  0  0  0
   56.0340   29.6520   45.1280 O   0  0  0  0  0  0  0  0  0  0  0  0
   56.9480   28.7380   44.6100 C   0  0  0  0  0  0  0  0  0  0  0  0
   57.6710   28.0380   45.6970 C   0  0  0  0  0  0  0  0  0  0  0  0
   58.9480   28.4130   46.0960 C   0  0  0  0  0  0  0  0  0  0  0  0
   59.6410   29.5760   45.4470 C   0  0  0  0  0  0  0  0  0  0  0  0
   59.5870   30.6640   46.4180 N   0  0  0  0  0  0  0  0  0  0  0  0
   59.0230   31.7870   46.1070 C   0  0  0  0  0  0  0  0  0  0  0  0
   59.8720   32.8440   45.9790 N   0  0  0  0  0  0  0  0  0  0  0  0
   59.3440   34.0510   45.6550 C   0  0  0  0  0  0  0  0  0  0  0  0
   57.9760   34.2210   45.4540 C   0  0  0  0  0  0  0  0  0  0  0  0
   57.1980   33.0970   45.6040 C   0  0  0  0  0  0  0  0  0  0  0  0
   57.7000   31.8920   45.9260 N   0  0  0  0  0  0  0  0  0  0  0  0
   59.5720   27.6990   47.1200 C   0  0  0  0  0  0  0  0  0  0  0  0
   58.9210   26.6400   47.7210 C   0  0  0  0  0  0  0  0  0  0  0  0
   57.6630   26.2720   47.3270 C   0  0  0  0  0  0  0  0  0  0  0  0
   57.0220   26.9710   46.3060 C   0  0  0  0  0  0  0  0  0  0  0  0
   55.7390   26.5870   45.9140 O   0  0  0  0  0  0  0  0  0  0  0  0
   55.4730   25.2410   45.6760 C   0  0  0  0  0  0  0  0  0  0  0  0
   55.0111   31.3253   44.5465 H   0  0  0  0  0  0  0  0  0  0  0  0
   56.3705   30.8235   43.4851 H   0  0  0  0  0  0  0  0  0  0  0  0
   54.8379   29.8866   43.4851 H   0  0  0  0  0  0  0  0  0  0  0  0
   56.4100   27.9972   44.0003 H   0  0  0  0  0  0  0  0  0  0  0  0
   57.6799   29.2832   43.9960 H   0  0  0  0  0  0  0  0  0  0  0  0
   60.6857   29.3195   45.2170 H   0  0  0  0  0  0  0  0  0  0  0  0
   59.1595   29.8559   44.4985 H   0  0  0  0  0  0  0  0  0  0  0  0
   60.0132   34.9175   45.5483 H   0  0  0  0  0  0  0  0  0  0  0  0
   57.5433   35.1974   45.1906 H   0  0  0  0  0  0  0  0  0  0  0  0
   56.1122   33.1882   45.4532 H   0  0  0  0  0  0  0  0  0  0  0  0
   57.0560   31.0530   46.0330 H   0  0  0  0  0  0  0  0  0  0  0  0
   60.5834   27.9802   47.4486 H   0  0  0  0  0  0  0  0  0  0  0  0
   59.4206   26.0841   48.5281 H   0  0  0  0  0  0  0  0  0  0  0  0
   57.1585   25.4255   47.8157 H   0  0  0  0  0  0  0  0  0  0  0  0
   55.3686   24.7127   46.6352 H   0  0  0  0  0  0  0  0  0  0  0  0
   54.5390   25.1477   45.1024 H   0  0  0  0  0  0  0  0  0  0  0  0
   56.3012   24.7994   45.1024 H   0  0  0  0  0  0  0  0  0  0  0  0
  1  2  1  0
  2  3  1  0
  3  4  1  0
  4  5  2  0
  5  6  1  0
  6  7  1  0
  7  8  2  3
  8  9  1  0
  9 10  2  0
 10 11  1  0
 11 12  2  0
 12 13  1  0
  5 14  1  0
 14 15  2  0
 15 16  1  0
 16 17  2  0
 17 18  1  0
 18 19  1  0
 17  4  1  0
 13  8  1  0
  1 20  1  0
  1 21  1  0
  1 22  1  0
  3 23  1  0
  3 24  1  0
  6 25  1  0
  6 26  1  0
 10 27  1  0
 11 28  1  0
 12 29  1  0
 13 30  1  0
 14 31  1  0
 15 32  1  0
 16 33  1  0
 19 34  1  0
 19 35  1  0
 19 36  1  0
M  END
>  <smiles>  (20) 
COCc1c(CN=c2nccc[nH]2)cccc1OC

>  <score_type>  (20) 
oracle

>  <origin>  (20) 
adg

>  <m_score__min__energy>  (20) 
-5.7199999999999998

>  <m_primary>  (20) 
energy

$$$$
20:0
     RDKit          3D

 53 56  0  0  0  0  0  0  0  0999 V2000
   56.9930   24.4770   43.1350 C   0  0  0  0  0  0  0  0  0  0  0  0
   56.3620   23.0850   43.1020 C   0  0  0  0  0  0  0  0  0  0  0  0
   57.3600   22.0520   43.4520 N   0  0  0  0  0  0  0  0  0  0  0  0
   56.6950   20.8910   44.0740 C   0  0  0  0  0  0  0  0  0  0  0  0
   58.4190   22.5850   44.3440 C   0  0  0  0  0  0  0  0  0  0  0  0
   57.9210   22.6070   45.7920 C   0  0  0  0  0  0  0  0  0  0  0  0
   58.4560   23.7280   46.4960 O   0  0  0  0  0  0  0  0  0  0  0  0
   58.1720   25.0760   46.2230 C   0  0  0  0  0  0  0  0  0  0  0  0
   59.2380   25.9210   45.8920 C   0  0  0  0  0  0  0  0  0  0  0  0
   59.0140   27.2720   45.6080 C   0  0  0  0  0  0  0  0  0  0  0  0
   57.7160   27.8010   45.6640 C   0  0  0  0  0  0  0  0  0  0  0  0
   57.4880   29.1890   45.3700 N   0  0  0  0  0  0  0  0  0  0  0  0
   56.4840   29.7040   44.6190 C   0  0  0  0  0  0  0  0  0  0  0  0
   56.5240   31.0590   44.5280 N   0  0  0  0  0  0  0  0  0  0  0  0
   57.6130   31.3860   45.2520 C   0  0  0  0  0  0  0  0  0  0  0  0
   58.1390   32.6610   45.4750 C   0  0  0  0  0  0  0  0  0  0  0  0
   57.4940   33.8820   44.8920 C   0  0  0  0  0  0  0  0  0  0  0  0
   59.3400   32.7490   46.2150 C   0  0  0  0  0  0  0  0  0  0  0  0
   59.9790   31.5830   46.7160 C   0  0  0  0  0  0  0  0  0  0  0  0
   61.2160   31.6850   47.4490 N   0  0  0  0  0  0  0  0  0  0  0  0
   62.2430   32.5210   47.2070 C   0  0  0  0  0  0  0  0  0  0  0  0
   63.2200   32.2830   48.1470 C   0  0  0  0  0  0  0  0  0  0  0  0
   62.8190   31.2950   48.9740 N   0  0  0  0  0  0  0  0  0  0  0  0
   61.5940   30.9560   48.5220 C   0  0  0  0  0  0  0  0  0  0  0  0
   59.3960   30.3160   46.4770 C   0  0  0  0  0  0  0  0  0  0  0  0
   58.2020   30.2630   45.7560 C   0  0  0  0  0  0  0  0  0  0  0  0
   56.6430   26.9550   45.9810 C   0  0  0  0  0  0  0  0  0  0  0  0
   56.8670   25.6060   46.2680 C   0  0  0  0  0  0  0  0  0  0  0  0
   57.1351   24.7905   44.1798 H   0  0  0  0  0  0  0  0  0  0  0  0
   57.9670   24.4503   42.6245 H   0  0  0  0  0  0  0  0  0  0  0  0
   56.3309   25.1919   42.6245 H   0  0  0  0  0  0  0  0  0  0  0  0
   55.5335   23.0466   43.8246 H   0  0  0  0  0  0  0  0  0  0  0  0
   55.9903   22.8885   42.0855 H   0  0  0  0  0  0  0  0  0  0  0  0
   56.7470   20.9819   45.1690 H   0  0  0  0  0  0  0  0  0  0  0  0
   55.6417   20.8592   43.7584 H   0  0  0  0  0  0  0  0  0  0  0  0
   57.2004   19.9664   43.7584 H   0  0  0  0  0  0  0  0  0  0  0  0
   59.3103   21.9441   44.2749 H   0  0  0  0  0  0  0  0  0  0  0  0
   58.6716   23.6095   44.0331 H   0  0  0  0  0  0  0  0  0  0  0  0
   56.8228   22.6704   45.7946 H   0  0  0  0  0  0  0  0  0  0  0  0
   58.2530   21.6855   46.2927 H   0  0  0  0  0  0  0  0  0  0  0  0
   60.2611   25.5187   45.8549 H   0  0  0  0  0  0  0  0  0  0  0  0
   59.8594   27.9226   45.3395 H   0  0  0  0  0  0  0  0  0  0  0  0
   55.7143   29.0870   44.1322 H   0  0  0  0  0  0  0  0  0  0  0  0
   57.1478   34.5373   45.7048 H   0  0  0  0  0  0  0  0  0  0  0  0
   58.2246   34.4219   44.2717 H   0  0  0  0  0  0  0  0  0  0  0  0
   56.6363   33.5828   44.2717 H   0  0  0  0  0  0  0  0  0  0  0  0
   59.7870   33.7357   46.4061 H   0  0  0  0  0  0  0  0  0  0  0  0
   62.2928   33.2651   46.3984 H   0  0  0  0  0  0  0  0  0  0  0  0
   64.1799   32.8161   48.2137 H   0  0  0  0  0  0  0  0  0  0  0  0
   60.9711   30.1719   48.9771 H   0  0  0  0  0  0  0  0  0  0  0  0
   59.8714   29.3967   46.8497 H   0  0  0  0  0  0  0  0  0  0  0  0
   55.6190   27.3560   46.0038 H   0  0  0  0  0  0  0  0  0  0  0  0
   56.0205   24.9544   46.5304 H   0  0  0  0  0  0  0  0  0  0  0  0
  1  2  1  0
  2  3  1  0
  3  4  1  0
  3  5  1  0
  5  6  1  0
  6  7  1  0
  7  8  1  0
  8  9  2  0
  9 10  1  0
 10 11  2  0
 11 12  1  0
 12 13  1  0
 13 14  2  0
 14 15  1  0
 15 16  2  0
 16 17  1  0
 16 18  1  0
 18 19  2  0
 19 20  1  0
 20 21  1  0
 21 22  2  0
 22 23  1  0
 23 24  2  0
 19 25  1  0
 25 26  2  0
 11 27  1  0
 27 28  2  0
 28  8  1  0
 26 12  1  0
 26 15  1  0
 24 20  1  0
  1 29  1  0
  1 30  1  0
  1 31  1  0
  2 32  1  0
  2 33  1  0
  4 34  1  0
  4 35  1  0
  4 36  1  0
  5 37  1  0
  5 38  1  0
  6 39  1  0
  6 40  1  0
  9 41  1  0
 10 42  1  0
 13 43  1  0
 17 44  1  0
 17 45  1  0
 17 46  1  0
 18 47  1  0
 21 48  1  0
 22 49  1  0
 24 50  1  0
 25 51  1  0
 27 52  1  0
 28 53  1  0
M  END
>  <UniqueID>  (21) 
20

>  <SMILES>  (21) 
CCN(C)CCOc1ccc(-n2cnc3c(C)cc(-n4ccnc4)cc32)cc1

>  <Energy>  (21) 
128.8648277689574

>  <Genealogy>  (21) 
CCN(C)CCOc1ccc(-n2cnc3c(C)cc(-n4ccnc4)cc32)cc1 (3D coordinates assigned)
CCN(C)CCOc1ccc(-n2cnc3c(C)cc(-n4ccnc4)cc32)cc1 (optimized conformer: 128.8648277689574 kcal/mol)

>  <smiles>  (21) 
CCN(C)CCOc1ccc(-n2cnc3c(C)cc(-n4ccnc4)cc32)cc1

>  <score_type>  (21) 
oracle

>  <origin>  (21) 
adg

>  <m_score__min__energy>  (21) 
-7.4299999999999997

>  <m_primary>  (21) 
energy

$$$$
21:0
     RDKit          3D

 54 56  0  0  0  0  0  0  0  0999 V2000
   57.3460   28.8410   44.1020 C   0  0  0  0  0  0  0  0  0  0  0  0
   56.8980   30.2960   44.0240 C   0  0  0  0  0  0  0  0  0  0  0  0
   57.1900   30.9760   45.2440 O   0  0  0  0  0  0  0  0  0  0  0  0
   57.8570   32.2100   45.3550 C   0  0  0  0  0  0  0  0  0  0  0  0
   57.3910   33.3760   44.7160 C   0  0  0  0  0  0  0  0  0  0  0  0
   58.0660   34.5900   44.8800 C   0  0  0  0  0  0  0  0  0  0  0  0
   59.2070   34.6540   45.6800 C   0  0  0  0  0  0  0  0  0  0  0  0
   59.6810   33.5070   46.3160 C   0  0  0  0  0  0  0  0  0  0  0  0
   59.0170   32.2790   46.1530 C   0  0  0  0  0  0  0  0  0  0  0  0
   59.5340   31.0940   46.7800 N   0  0  0  0  0  0  0  0  0  0  0  0
   59.3430   30.8900   48.2210 C   0  0  0  0  0  0  0  0  0  0  0  0
   59.7660   29.4780   48.6290 C   0  0  0  0  0  0  0  0  0  0  0  0
   59.2730   28.5250   47.6180 N   0  0  0  0  0  0  0  0  0  0  0  0
   59.2700   27.1210   48.0840 C   0  0  0  0  0  0  0  0  0  0  0  0
   58.6630   26.1640   47.0920 C   0  0  0  0  0  0  0  0  0  0  0  0
   59.3330   25.1730   46.6880 O   0  0  0  0  0  0  0  0  0  0  0  0
   57.3250   26.3930   46.6260 N   0  0  0  0  0  0  0  0  0  0  0  0
   56.6080   25.5700   45.9200 C   0  0  0  0  0  0  0  0  0  0  0  0
   55.2860   25.3550   46.1090 N   0  0  0  0  0  0  0  0  0  0  0  0
   54.7920   24.4420   45.2290 C   0  0  0  0  0  0  0  0  0  0  0  0
   53.3440   24.0630   45.2470 C   0  0  0  0  0  0  0  0  0  0  0  0
   55.7390   23.9280   44.3250 C   0  0  0  0  0  0  0  0  0  0  0  0
   55.5270   22.9280   43.2650 C   0  0  0  0  0  0  0  0  0  0  0  0
   54.8120   23.2270   42.2690 O   0  0  0  0  0  0  0  0  0  0  0  0
   56.1100   21.6620   43.3540 O   0  0  0  0  0  0  0  0  0  0  0  0
   57.5160   21.4660   43.4270 C   0  0  0  0  0  0  0  0  0  0  0  0
   57.2250   24.6500   44.6610 S   0  0  0  0  0  0  0  0  0  0  0  0
   59.9260   28.6900   46.2960 C   0  0  0  0  0  0  0  0  0  0  0  0
   60.3470   30.1460   46.0070 C   0  0  0  0  0  0  0  0  0  0  0  0
   57.4381   28.5417   45.1565 H   0  0  0  0  0  0  0  0  0  0  0  0
   56.6032   28.2014   43.6029 H   0  0  0  0  0  0  0  0  0  0  0  0
   58.3199   28.7300   43.6029 H   0  0  0  0  0  0  0  0  0  0  0  0
   57.4262   30.7934   43.1972 H   0  0  0  0  0  0  0  0  0  0  0  0
   55.8118   30.3246   43.8525 H   0  0  0  0  0  0  0  0  0  0  0  0
   56.4913   33.3313   44.0846 H   0  0  0  0  0  0  0  0  0  0  0  0
   57.6965   35.4959   44.3772 H   0  0  0  0  0  0  0  0  0  0  0  0
   59.7338   35.6109   45.8094 H   0  0  0  0  0  0  0  0  0  0  0  0
   60.5792   33.5636   46.9485 H   0  0  0  0  0  0  0  0  0  0  0  0
   59.9506   31.6224   48.7728 H   0  0  0  0  0  0  0  0  0  0  0  0
   58.2770   31.0217   48.4581 H   0  0  0  0  0  0  0  0  0  0  0  0
   60.8631   29.4224   48.6859 H   0  0  0  0  0  0  0  0  0  0  0  0
   59.3435   29.2306   49.6140 H   0  0  0  0  0  0  0  0  0  0  0  0
   60.3091   26.8142   48.2739 H   0  0  0  0  0  0  0  0  0  0  0  0
   58.6527   27.0815   48.9936 H   0  0  0  0  0  0  0  0  0  0  0  0
   53.0014   23.9733   46.2884 H   0  0  0  0  0  0  0  0  0  0  0  0
   52.7559   24.8375   44.7329 H   0  0  0  0  0  0  0  0  0  0  0  0
   53.2107   23.0997   44.7329 H   0  0  0  0  0  0  0  0  0  0  0  0
   57.8259   21.4228   44.4816 H   0  0  0  0  0  0  0  0  0  0  0  0
   57.7810   20.5222   42.9280 H   0  0  0  0  0  0  0  0  0  0  0  0
   58.0291   22.3013   42.9280 H   0  0  0  0  0  0  0  0  0  0  0  0
   60.8228   28.0537   46.2666 H   0  0  0  0  0  0  0  0  0  0  0  0
   59.1918   28.4022   45.5291 H   0  0  0  0  0  0  0  0  0  0  0  0
   61.4051   30.2749   46.2788 H   0  0  0  0  0  0  0  0  0  0  0  0
   60.1960   30.3477   44.9363 H   0  0  0  0  0  0  0  0  0  0  0  0
  1  2  1  0
  2  3  1  0
  3  4  1  0
  4  5  2  0
  5  6  1  0
  6  7  2  0
  7  8  1  0
  8  9  2  0
  9 10  1  0
 10 11  1  0
 11 12  1  0
 12 13  1  0
 13 14  1  0
 14 15  1  0
 15 16  2  0
 15 17  1  0
 17 18  2  3
 18 19  1  0
 19 20  1  0
 20 21  1  0
 20 22  2  0
 22 23  1  0
 23 24  2  0
 23 25  1  0
 25 26  1  0
 22 27  1  0
 13 28  1  0
 28 29  1  0
  9  4  1  0
 29 10  1  0
 27 18  1  0
  1 30  1  0
  1 31  1  0
  1 32  1  0
  2 33  1  0
  2 34  1  0
  5 35  1  0
  6 36  1  0
  7 37  1  0
  8 38  1  0
 11 39  1  0
 11 40  1  0
 12 41  1  0
 12 42  1  0
 14 43  1  0
 14 44  1  0
 21 45  1  0
 21 46  1  0
 21 47  1  0
 26 48  1  0
 26 49  1  0
 26 50  1  0
 28 51  1  0
 28 52  1  0
 29 53  1  0
 29 54  1  0
M  CHG  1  19  -1
M  END
>  <UniqueID>  (22) 
21

>  <SMILES>  (22) 
CCOc1ccccc1N1CCN(CC(=O)N=c2[n-]c(C)c(C(=O)OC)s2)CC1

>  <Energy>  (22) 
93.18925448332637

>  <Genealogy>  (22) 
CCOc1ccccc1N1CCN(CC(=O)N=c2[n-]c(C)c(C(=O)OC)s2)CC1 (protonated)
CCOc1ccccc1N1CCN(CC(=O)N=c2[n-]c(C)c(C(=O)OC)s2)CC1 (3D coordinates assigned)
CCOc1ccccc1N1CCN(CC(=O)N=c2[n-]c(C)c(C(=O)OC)s2)CC1 (nonaromatic ring conformer: 93.18925448332637 kcal/mol)

>  <smiles>  (22) 
CCOc1ccccc1N1CCN(CC(=O)N=c2[nH]c(C)c(C(=O)OC)s2)CC1

>  <score_type>  (22) 
oracle

>  <origin>  (22) 
adg

>  <m_score__min__energy>  (22) 
-10.18

>  <m_primary>  (22) 
energy

$$$$
22:0
     RDKit          3D

 55 57  0  0  0  0  0  0  0  0999 V2000
   59.7270   34.5570   48.2050 C   0  0  0  0  0  0  0  0  0  0  0  0
   58.6000   33.7970   47.4960 C   0  0  0  0  0  0  0  0  0  0  0  0
   59.0650   33.1320   46.2540 N   0  0  2  0  0  0  0  0  0  0  0  0
   60.4290   33.5510   45.8850 C   0  0  0  0  0  0  0  0  0  0  0  0
   58.1580   33.4340   45.1610 C   0  0  0  0  0  0  0  0  0  0  0  0
   57.9430   34.5950   44.8390 O   0  0  0  0  0  0  0  0  0  0  0  0
   57.4620   32.3260   44.4150 C   0  0  0  0  0  0  0  0  0  0  0  0
   57.4290   31.1450   45.2150 O   0  0  0  0  0  0  0  0  0  0  0  0
   57.9140   29.8900   44.8130 C   0  0  0  0  0  0  0  0  0  0  0  0
   57.3150   29.1830   43.7530 C   0  0  0  0  0  0  0  0  0  0  0  0
   57.8110   27.9400   43.3620 C   0  0  0  0  0  0  0  0  0  0  0  0
   58.9060   27.3830   44.0240 C   0  0  0  0  0  0  0  0  0  0  0  0
   59.5040   28.0670   45.0850 C   0  0  0  0  0  0  0  0  0  0  0  0
   59.0200   29.3240   45.4880 C   0  0  0  0  0  0  0  0  0  0  0  0
   59.6270   30.0020   46.6580 C   0  0  0  0  0  0  0  0  0  0  0  0
   58.9310   30.3570   47.7630 N   0  0  0  0  0  0  0  0  0  0  0  0
   59.8540   30.9570   48.5390 C   0  0  0  0  0  0  0  0  0  0  0  0
   59.5770   31.4250   49.8690 C   0  0  0  0  0  0  0  0  0  0  0  0
   59.3520   31.8060   50.9370 N   0  0  0  0  0  0  0  0  0  0  0  0
   61.0700   30.9400   47.8830 C   0  0  0  0  0  0  0  0  0  0  0  0
   62.3420   31.4310   48.3420 N   0  0  0  0  0  0  0  0  0  0  0  0
   63.2590   32.1370   47.4310 C   0  0  0  0  0  0  0  0  0  0  0  0
   63.1670   33.6750   47.5680 C   0  0  0  0  0  0  0  0  0  0  0  0
   63.3190   34.2020   49.0060 C   0  0  0  0  0  0  0  0  0  0  0  0
   62.2960   33.6180   49.9970 C   0  0  0  0  0  0  0  0  0  0  0  0
   62.7130   32.2990   50.6760 C   0  0  0  0  0  0  0  0  0  0  0  0
   62.7410   31.0950   49.7200 C   0  0  0  0  0  0  0  0  0  0  0  0
   60.8970   30.3390   46.7320 O   0  0  0  0  0  0  0  0  0  0  0  0
   59.5989   34.4706   49.2941 H   0  0  0  0  0  0  0  0  0  0  0  0
   60.6975   34.1282   47.9148 H   0  0  0  0  0  0  0  0  0  0  0  0
   59.6932   35.6175   47.9148 H   0  0  0  0  0  0  0  0  0  0  0  0
   58.2041   33.0320   48.1801 H   0  0  0  0  0  0  0  0  0  0  0  0
   57.8250   34.5263   47.2177 H   0  0  0  0  0  0  0  0  0  0  0  0
   59.0790   32.0930   46.4030 H   0  0  0  0  0  0  0  0  0  0  0  0
   61.0165   33.7315   46.7973 H   0  0  0  0  0  0  0  0  0  0  0  0
   60.9080   32.7586   45.2912 H   0  0  0  0  0  0  0  0  0  0  0  0
   60.3805   34.4757   45.2912 H   0  0  0  0  0  0  0  0  0  0  0  0
   56.4330   32.6355   44.1797 H   0  0  0  0  0  0  0  0  0  0  0  0
   58.0105   32.1169   43.4847 H   0  0  0  0  0  0  0  0  0  0  0  0
   56.4492   29.6145   43.2294 H   0  0  0  0  0  0  0  0  0  0  0  0
   57.3383   27.3973   42.5301 H   0  0  0  0  0  0  0  0  0  0  0  0
   59.2985   26.4045   43.7100 H   0  0  0  0  0  0  0  0  0  0  0  0
   60.3606   27.6185   45.6095 H   0  0  0  0  0  0  0  0  0  0  0  0
   64.2893   31.8243   47.6563 H   0  0  0  0  0  0  0  0  0  0  0  0
   62.9717   31.8766   46.4016 H   0  0  0  0  0  0  0  0  0  0  0  0
   63.9621   34.1221   46.9532 H   0  0  0  0  0  0  0  0  0  0  0  0
   62.1559   33.9567   47.2388 H   0  0  0  0  0  0  0  0  0  0  0  0
   64.3288   33.9498   49.3621 H   0  0  0  0  0  0  0  0  0  0  0  0
   63.1426   35.2871   48.9682 H   0  0  0  0  0  0  0  0  0  0  0  0
   62.1220   34.3654   50.7852 H   0  0  0  0  0  0  0  0  0  0  0  0
   61.3992   33.3839   49.4045 H   0  0  0  0  0  0  0  0  0  0  0  0
   63.7196   32.4295   51.1000 H   0  0  0  0  0  0  0  0  0  0  0  0
   61.9587   32.0810   51.4464 H   0  0  0  0  0  0  0  0  0  0  0  0
   63.7640   30.6913   49.6979 H   0  0  0  0  0  0  0  0  0  0  0  0
   62.0126   30.3631   50.0991 H   0  0  0  0  0  0  0  0  0  0  0  0
  1  2  1  0
  2  3  1  0
  3  4  1  0
  3  5  1  0
  5  6  2  0
  5  7  1  0
  7  8  1  0
  8  9  1  0
  9 10  2  0
 10 11  1  0
 11 12  2  0
 12 13  1  0
 13 14  2  0
 14 15  1  0
 15 16  2  0
 16 17  1  0
 17 18  1  0
 18 19  3  0
 17 20  2  0
 20 21  1  0
 21 22  1  0
 22 23  1  0
 23 24  1  0
 24 25  1  0
 25 26  1  0
 26 27  1  0
 20 28  1  0
 14  9  1  0
 28 15  1  0
 27 21  1  0
  1 29  1  0
  1 30  1  0
  1 31  1  0
  2 32  1  0
  2 33  1  0
  3 34  1  1
  4 35  1  0
  4 36  1  0
  4 37  1  0
  7 38  1  0
  7 39  1  0
 10 40  1  0
 11 41  1  0
 12 42  1  0
 13 43  1  0
 22 44  1  0
 22 45  1  0
 23 46  1  0
 23 47  1  0
 24 48  1  0
 24 49  1  0
 25 50  1  0
 25 51  1  0
 26 52  1  0
 26 53  1  0
 27 54  1  0
 27 55  1  0
M  CHG  1   3   1
M  END
>  <UniqueID>  (23) 
22

>  <SMILES>  (23) 
CC[N@H+](C)C(=O)COc1ccccc1-c1nc(C#N)c(N2CCCCCC2)o1

>  <Energy>  (23) 
90.41266473751016

>  <Genealogy>  (23) 
CC[NH+](C)C(=O)COc1ccccc1-c1nc(C#N)c(N2CCCCCC2)o1 (protonated)
CC[N@H+](C)C(=O)COc1ccccc1-c1nc(C#N)c(N2CCCCCC2)o1 (chirality)
CC[N@H+](C)C(=O)COc1ccccc1-c1nc(C#N)c(N2CCCCCC2)o1 (3D coordinates assigned)
CC[N@H+](C)C(=O)COc1ccccc1-c1nc(C#N)c(N2CCCCCC2)o1 (nonaromatic ring conformer: 90.41266473751016 kcal/mol)

>  <smiles>  (23) 
CCN(C)C(=O)COc1ccccc1-c1nc(C#N)c(N2CCCCCC2)o1

>  <score_type>  (23) 
oracle

>  <origin>  (23) 
adg

>  <m_score__min__energy>  (23) 
-3.54

>  <m_primary>  (23) 
energy

$$$$
23:0
     RDKit          3D

 51 53  0  0  0  0  0  0  0  0999 V2000
   58.8870   32.9080   50.7890 C   0  0  0  0  0  0  0  0  0  0  0  0
   59.3970   31.5340   50.3690 C   0  0  0  0  0  0  0  0  0  0  0  0
   60.3700   31.6550   49.3340 O   0  0  0  0  0  0  0  0  0  0  0  0
   61.7320   31.8730   49.5780 C   0  0  0  0  0  0  0  0  0  0  0  0
   62.5130   30.9020   49.7760 O   0  0  0  0  0  0  0  0  0  0  0  0
   62.2620   33.2820   49.6210 C   0  0  2  0  0  0  0  0  0  0  0  0
   61.3430   34.2290   48.7920 C   0  0  0  0  0  0  0  0  0  0  0  0
   60.7660   33.5340   47.6220 N   0  0  0  0  0  0  0  0  0  0  0  0
   59.4220   34.0260   47.2400 C   0  0  0  0  0  0  0  0  0  0  0  0
   58.7690   33.2230   46.1330 C   0  0  0  0  0  0  0  0  0  0  0  0
   58.5130   33.8100   44.8820 C   0  0  0  0  0  0  0  0  0  0  0  0
   57.9170   33.0690   43.8580 C   0  0  0  0  0  0  0  0  0  0  0  0
   57.5600   31.7300   44.0710 C   0  0  0  0  0  0  0  0  0  0  0  0
   56.9640   30.9770   43.0470 C   0  0  0  0  0  0  0  0  0  0  0  0
   56.6100   29.6430   43.2730 C   0  0  0  0  0  0  0  0  0  0  0  0
   56.8460   29.0550   44.5180 C   0  0  0  0  0  0  0  0  0  0  0  0
   57.4390   29.7950   45.5450 C   0  0  0  0  0  0  0  0  0  0  0  0
   57.8010   31.1340   45.3320 C   0  0  0  0  0  0  0  0  0  0  0  0
   58.3970   31.8860   46.3550 C   0  0  0  0  0  0  0  0  0  0  0  0
   61.6900   33.4460   46.4710 C   0  0  0  0  0  0  0  0  0  0  0  0
   63.1180   33.9450   46.7850 C   0  0  0  0  0  0  0  0  0  0  0  0
   63.9170   33.0690   47.6810 N   0  0  2  0  0  0  0  0  0  0  0  0
   63.7070   31.6460   47.3540 C   0  0  0  0  0  0  0  0  0  0  0  0
   63.7420   33.2940   49.1430 C   0  0  0  0  0  0  0  0  0  0  0  0
   58.8638   32.9706   51.8870 H   0  0  0  0  0  0  0  0  0  0  0  0
   59.5566   33.6849   50.3915 H   0  0  0  0  0  0  0  0  0  0  0  0
   57.8726   33.0598   50.3915 H   0  0  0  0  0  0  0  0  0  0  0  0
   59.8531   31.0366   51.2377 H   0  0  0  0  0  0  0  0  0  0  0  0
   58.5503   30.9412   49.9924 H   0  0  0  0  0  0  0  0  0  0  0  0
   62.2502   33.6628   50.6529 H   0  0  0  0  0  0  0  0  0  0  0  0
   60.5251   34.5867   49.4348 H   0  0  0  0  0  0  0  0  0  0  0  0
   61.9513   35.0705   48.4289 H   0  0  0  0  0  0  0  0  0  0  0  0
   58.7728   33.9857   48.1271 H   0  0  0  0  0  0  0  0  0  0  0  0
   59.5517   35.0500   46.8596 H   0  0  0  0  0  0  0  0  0  0  0  0
   58.7841   34.8617   44.7074 H   0  0  0  0  0  0  0  0  0  0  0  0
   57.7272   33.5380   42.8812 H   0  0  0  0  0  0  0  0  0  0  0  0
   56.7752   31.4368   42.0657 H   0  0  0  0  0  0  0  0  0  0  0  0
   56.1445   29.0552   42.4682 H   0  0  0  0  0  0  0  0  0  0  0  0
   56.5642   28.0059   44.6908 H   0  0  0  0  0  0  0  0  0  0  0  0
   57.6224   29.3263   46.5231 H   0  0  0  0  0  0  0  0  0  0  0  0
   58.5746   31.4260   47.3383 H   0  0  0  0  0  0  0  0  0  0  0  0
   61.7509   32.3946   46.1535 H   0  0  0  0  0  0  0  0  0  0  0  0
   61.2863   34.0982   45.6826 H   0  0  0  0  0  0  0  0  0  0  0  0
   63.6606   34.0418   45.8330 H   0  0  0  0  0  0  0  0  0  0  0  0
   62.9950   34.8967   47.3227 H   0  0  0  0  0  0  0  0  0  0  0  0
   64.9210   33.2750   47.4620 H   0  0  0  0  0  0  0  0  0  0  0  0
   63.6212   31.0649   48.2840 H   0  0  0  0  0  0  0  0  0  0  0  0
   62.7831   31.5371   46.7671 H   0  0  0  0  0  0  0  0  0  0  0  0
   64.5601   31.2749   46.7671 H   0  0  0  0  0  0  0  0  0  0  0  0
   64.2838   32.5018   49.6805 H   0  0  0  0  0  0  0  0  0  0  0  0
   64.1329   34.3000   49.3554 H   0  0  0  0  0  0  0  0  0  0  0  0
  1  2  1  0
  2  3  1  0
  3  4  1  0
  4  5  2  0
  4  6  1  0
  6  7  1  0
  7  8  1  0
  8  9  1  0
  9 10  1  0
 10 11  2  0
 11 12  1  0
 12 13  2  0
 13 14  1  0
 14 15  2  0
 15 16  1  0
 16 17  2  0
 17 18  1  0
 18 19  2  0
  8 20  1  0
 20 21  1  0
 21 22  1  0
 22 23  1  0
 22 24  1  0
 24  6  1  0
 19 10  1  0
 18 13  1  0
  1 25  1  0
  1 26  1  0
  1 27  1  0
  2 28  1  0
  2 29  1  0
  6 30  1  1
  7 31  1  0
  7 32  1  0
  9 33  1  0
  9 34  1  0
 11 35  1  0
 12 36  1  0
 14 37  1  0
 15 38  1  0
 16 39  1  0
 17 40  1  0
 19 41  1  0
 20 42  1  0
 20 43  1  0
 21 44  1  0
 21 45  1  0
 22 46  1  6
 23 47  1  0
 23 48  1  0
 23 49  1  0
 24 50  1  0
 24 51  1  0
M  CHG  1  22   1
M  END
>  <UniqueID>  (24) 
23

>  <SMILES>  (24) 
CCOC(=O)[C@@H]1CN(Cc2ccc3ccccc3c2)CC[N@H+](C)C1

>  <Energy>  (24) 
70.23206287703437

>  <Genealogy>  (24) 
CCOC(=O)C1CN(Cc2ccc3ccccc3c2)CC[NH+](C)C1 (protonated)
CCOC(=O)[C@@H]1CN(Cc2ccc3ccccc3c2)CC[N@H+](C)C1 (chirality)
CCOC(=O)[C@@H]1CN(Cc2ccc3ccccc3c2)CC[N@H+](C)C1 (3D coordinates assigned)
CCOC(=O)[C@@H]1CN(Cc2ccc3ccccc3c2)CC[N@H+](C)C1 (nonaromatic ring conformer: 70.23206287703437 kcal/mol)

>  <smiles>  (24) 
CCOC(=O)C1CN(C)CCN(Cc2ccc3ccccc3c2)C1

>  <score_type>  (24) 
oracle

>  <origin>  (24) 
adg

>  <m_score__min__energy>  (24) 
-4.4500000000000002

>  <m_primary>  (24) 
energy

$$$$
24:0
     RDKit          3D

 52 54  0  0  0  0  0  0  0  0999 V2000
   56.3930   30.0420   42.7510 C   0  0  0  0  0  0  0  0  0  0  0  0
   55.4950   29.7370   43.9450 C   0  0  0  0  0  0  0  0  0  0  0  0
   56.3100   29.5760   45.1580 N   0  0  0  0  0  0  0  0  0  0  0  0
   56.8340   28.2050   45.2950 C   0  0  0  0  0  0  0  0  0  0  0  0
   58.1870   28.0550   44.5930 C   0  0  0  0  0  0  0  0  0  0  0  0
   58.9190   29.3230   44.5680 N   0  0  0  0  0  0  0  0  0  0  0  0
   58.9890   30.1400   45.7460 C   0  0  0  0  0  0  0  0  0  0  0  0
   59.4740   29.5680   46.9250 C   0  0  0  0  0  0  0  0  0  0  0  0
   59.5460   30.3050   48.1140 C   0  0  0  0  0  0  0  0  0  0  0  0
   60.0500   29.6230   49.3570 C   0  0  0  0  0  0  0  0  0  0  0  0
   59.0940   31.6380   48.1340 C   0  0  0  0  0  0  0  0  0  0  0  0
   59.0630   32.3600   49.3710 N   0  0  0  0  0  0  0  0  0  0  0  0
   60.1340   33.7010   49.6150 S   0  0  0  0  0  0  0  0  0  0  0  0
   59.4320   34.9880   49.2840 O   0  0  0  0  0  0  0  0  0  0  0  0
   60.5520   33.7410   51.0580 O   0  0  0  0  0  0  0  0  0  0  0  0
   61.5570   33.5050   48.5910 C   0  0  0  0  0  0  0  0  0  0  0  0
   61.5340   33.9710   47.2660 C   0  0  0  0  0  0  0  0  0  0  0  0
   62.6330   33.7590   46.4280 C   0  0  0  0  0  0  0  0  0  0  0  0
   63.7620   33.0850   46.9080 C   0  0  0  0  0  0  0  0  0  0  0  0
   63.7930   32.6220   48.2270 C   0  0  0  0  0  0  0  0  0  0  0  0
   62.6900   32.8230   49.0650 C   0  0  0  0  0  0  0  0  0  0  0  0
   58.6240   32.2420   46.9440 C   0  0  0  0  0  0  0  0  0  0  0  0
   58.1710   33.5800   46.9350 C   0  0  0  0  0  0  0  0  0  0  0  0
   57.7020   34.1650   45.7560 C   0  0  0  0  0  0  0  0  0  0  0  0
   57.6950   33.4370   44.5690 C   0  0  0  0  0  0  0  0  0  0  0  0
   58.1420   32.1140   44.5540 C   0  0  0  0  0  0  0  0  0  0  0  0
   58.5870   31.4910   45.7370 C   0  0  0  0  0  0  0  0  0  0  0  0
   57.3779   30.3765   43.1089 H   0  0  0  0  0  0  0  0  0  0  0  0
   56.5133   29.1343   42.1414 H   0  0  0  0  0  0  0  0  0  0  0  0
   55.9356   30.8352   42.1414 H   0  0  0  0  0  0  0  0  0  0  0  0
   54.7866   30.5660   44.0893 H   0  0  0  0  0  0  0  0  0  0  0  0
   54.9436   28.8046   43.7537 H   0  0  0  0  0  0  0  0  0  0  0  0
   55.6930   29.7600   45.9870 H   0  0  0  0  0  0  0  0  0  0  0  0
   56.9567   27.9731   46.3633 H   0  0  0  0  0  0  0  0  0  0  0  0
   56.1203   27.5115   44.8263 H   0  0  0  0  0  0  0  0  0  0  0  0
   58.7875   27.3055   45.1294 H   0  0  0  0  0  0  0  0  0  0  0  0
   58.0055   27.7393   43.5550 H   0  0  0  0  0  0  0  0  0  0  0  0
   59.7470   29.3640   43.9290 H   0  0  0  0  0  0  0  0  0  0  0  0
   59.8055   28.5192   46.9193 H   0  0  0  0  0  0  0  0  0  0  0  0
   59.6637   30.1458   50.2444 H   0  0  0  0  0  0  0  0  0  0  0  0
   59.7051   28.5785   49.3677 H   0  0  0  0  0  0  0  0  0  0  0  0
   61.1497   29.6461   49.3677 H   0  0  0  0  0  0  0  0  0  0  0  0
   58.6240   31.9170   50.2080 H   0  0  0  0  0  0  0  0  0  0  0  0
   60.6495   34.5038   46.8869 H   0  0  0  0  0  0  0  0  0  0  0  0
   62.6103   34.1224   45.3900 H   0  0  0  0  0  0  0  0  0  0  0  0
   64.6255   32.9194   46.2470 H   0  0  0  0  0  0  0  0  0  0  0  0
   64.6840   32.0999   48.6060 H   0  0  0  0  0  0  0  0  0  0  0  0
   62.7104   32.4457   50.0981 H   0  0  0  0  0  0  0  0  0  0  0  0
   58.1877   34.1670   47.8652 H   0  0  0  0  0  0  0  0  0  0  0  0
   57.3375   35.2028   45.7655 H   0  0  0  0  0  0  0  0  0  0  0  0
   57.3364   33.9053   43.6405 H   0  0  0  0  0  0  0  0  0  0  0  0
   58.1467   31.5521   43.6084 H   0  0  0  0  0  0  0  0  0  0  0  0
  1  2  1  0
  2  3  1  0
  3  4  1  0
  4  5  1  0
  5  6  1  0
  6  7  1  0
  7  8  2  0
  8  9  1  0
  9 10  1  0
  9 11  2  0
 11 12  1  0
 12 13  1  0
 13 14  2  0
 13 15  2  0
 13 16  1  0
 16 17  2  0
 17 18  1  0
 18 19  2  0
 19 20  1  0
 20 21  2  0
 11 22  1  0
 22 23  2  0
 23 24  1  0
 24 25  2  0
 25 26  1  0
 26 27  2  0
 27  7  1  0
 21 16  1  0
 27 22  1  0
  1 28  1  0
  1 29  1  0
  1 30  1  0
  2 31  1  0
  2 32  1  0
  3 33  1  0
  4 34  1  0
  4 35  1  0
  5 36  1  0
  5 37  1  0
  6 38  1  0
  8 39  1  0
 10 40  1  0
 10 41  1  0
 10 42  1  0
 12 43  1  0
 17 44  1  0
 18 45  1  0
 19 46  1  0
 20 47  1  0
 21 48  1  0
 23 49  1  0
 24 50  1  0
 25 51  1  0
 26 52  1  0
M  END
>  <UniqueID>  (25) 
24

>  <SMILES>  (25) 
CCNCCNc1cc(C)c(NS(=O)(=O)c2ccccc2)c2ccccc12

>  <Energy>  (25) 
65.99879343549411

>  <Genealogy>  (25) 
CCNCCNc1cc(C)c(NS(=O)(=O)c2ccccc2)c2ccccc12 (3D coordinates assigned)
CCNCCNc1cc(C)c(NS(=O)(=O)c2ccccc2)c2ccccc12 (optimized conformer: 65.99879343549411 kcal/mol)

>  <smiles>  (25) 
CCNCCNc1cc(C)c(NS(=O)(=O)c2ccccc2)c2ccccc12

>  <score_type>  (25) 
oracle

>  <origin>  (25) 
adg

>  <m_score__min__energy>  (25) 
-8.8000000000000007

>  <m_primary>  (25) 
energy

$$$$
25:0
     RDKit          3D

 67 69  0  0  0  0  0  0  0  0999 V2000
   58.4960   28.2550   44.7280 C   0  0  0  0  0  0  0  0  0  0  0  0
   57.3200   28.6230   45.6270 C   0  0  0  0  0  0  0  0  0  0  0  0
   56.8990   29.9660   45.3860 O   0  0  0  0  0  0  0  0  0  0  0  0
   57.2110   30.7380   44.2530 C   0  0  0  0  0  0  0  0  0  0  0  0
   56.6550   30.4660   42.9850 C   0  0  0  0  0  0  0  0  0  0  0  0
   56.9630   31.2710   41.8870 C   0  0  0  0  0  0  0  0  0  0  0  0
   57.8290   32.3530   42.0330 C   0  0  0  0  0  0  0  0  0  0  0  0
   58.3960   32.6310   43.2770 C   0  0  0  0  0  0  0  0  0  0  0  0
   58.1020   31.8260   44.3920 C   0  0  0  0  0  0  0  0  0  0  0  0
   58.7260   32.1420   45.7010 C   0  0  0  0  0  0  0  0  0  0  0  0
   59.3820   31.1370   46.4340 C   0  0  0  0  0  0  0  0  0  0  0  0
   59.9750   31.4310   47.6650 C   0  0  0  0  0  0  0  0  0  0  0  0
   59.9290   32.7350   48.1750 C   0  0  0  0  0  0  0  0  0  0  0  0
   60.5640   33.0420   49.4670 C   0  0  0  0  0  0  0  0  0  0  0  0
   59.8170   32.8920   50.5880 N   0  0  0  0  0  0  0  0  0  0  0  0
   60.2890   33.1410   51.8350 C   0  0  0  0  0  0  0  0  0  0  0  0
   59.3400   32.9650   52.9890 C   0  0  0  0  0  0  0  0  0  0  0  0
   58.0590   33.4200   52.6120 O   0  0  0  0  0  0  0  0  0  0  0  0
   57.2370   32.3130   52.3190 C   0  0  0  0  0  0  0  0  0  0  0  0
   61.6370   33.5300   52.0090 C   0  0  0  0  0  0  0  0  0  0  0  0
   62.1800   33.8220   53.3930 C   0  0  0  0  0  0  0  0  0  0  0  0
   62.4340   33.7420   50.8550 C   0  0  0  0  0  0  0  0  0  0  0  0
   63.8200   34.2270   50.9940 C   0  0  0  0  0  0  0  0  0  0  0  0
   64.0430   35.3060   51.6060 O   0  0  0  0  0  0  0  0  0  0  0  0
   64.8670   33.4850   50.4360 O   0  0  0  0  0  0  0  0  0  0  0  0
   65.7260   32.6370   51.1960 C   0  0  0  0  0  0  0  0  0  0  0  0
   65.1660   31.2180   51.2600 C   0  0  0  0  0  0  0  0  0  0  0  0
   63.9500   31.1520   50.5470 O   0  0  0  0  0  0  0  0  0  0  0  0
   63.0620   30.2850   51.2160 C   0  0  0  0  0  0  0  0  0  0  0  0
   61.8930   33.5120   49.5630 C   0  0  0  0  0  0  0  0  0  0  0  0
   62.7290   33.7380   48.3120 C   0  0  0  0  0  0  0  0  0  0  0  0
   63.3270   32.4330   47.7940 C   0  0  0  0  0  0  0  0  0  0  0  0
   59.2550   33.7360   47.4630 C   0  0  0  0  0  0  0  0  0  0  0  0
   59.1820   34.9990   47.9540 F   0  0  0  0  0  0  0  0  0  0  0  0
   58.6560   33.4410   46.2360 C   0  0  0  0  0  0  0  0  0  0  0  0
   59.3620   27.9840   45.3497 H   0  0  0  0  0  0  0  0  0  0  0  0
   58.2188   27.4007   44.0930 H   0  0  0  0  0  0  0  0  0  0  0  0
   58.7552   29.1150   44.0930 H   0  0  0  0  0  0  0  0  0  0  0  0
   56.4822   27.9401   45.4226 H   0  0  0  0  0  0  0  0  0  0  0  0
   57.6374   28.5357   46.6766 H   0  0  0  0  0  0  0  0  0  0  0  0
   55.9728   29.6121   42.8607 H   0  0  0  0  0  0  0  0  0  0  0  0
   56.5210   31.0507   40.9041 H   0  0  0  0  0  0  0  0  0  0  0  0
   58.0657   32.9883   41.1668 H   0  0  0  0  0  0  0  0  0  0  0  0
   59.0785   33.4867   43.3866 H   0  0  0  0  0  0  0  0  0  0  0  0
   59.4287   30.1126   46.0359 H   0  0  0  0  0  0  0  0  0  0  0  0
   60.4791   30.6365   48.2348 H   0  0  0  0  0  0  0  0  0  0  0  0
   59.2865   31.9007   53.2618 H   0  0  0  0  0  0  0  0  0  0  0  0
   59.6979   33.5449   53.8525 H   0  0  0  0  0  0  0  0  0  0  0  0
   56.8947   31.8520   53.2572 H   0  0  0  0  0  0  0  0  0  0  0  0
   56.3663   32.6470   51.7356 H   0  0  0  0  0  0  0  0  0  0  0  0
   57.8085   31.5761   51.7356 H   0  0  0  0  0  0  0  0  0  0  0  0
   61.4771   33.4440   54.1499 H   0  0  0  0  0  0  0  0  0  0  0  0
   63.1540   33.3260   53.5169 H   0  0  0  0  0  0  0  0  0  0  0  0
   62.3032   34.9080   53.5169 H   0  0  0  0  0  0  0  0  0  0  0  0
   66.7190   32.6122   50.7234 H   0  0  0  0  0  0  0  0  0  0  0  0
   65.7997   33.0342   52.2191 H   0  0  0  0  0  0  0  0  0  0  0  0
   65.8893   30.5194   50.8141 H   0  0  0  0  0  0  0  0  0  0  0  0
   64.9867   30.9451   52.3104 H   0  0  0  0  0  0  0  0  0  0  0  0
   63.1832   30.4033   52.3029 H   0  0  0  0  0  0  0  0  0  0  0  0
   62.0276   30.5303   50.9335 H   0  0  0  0  0  0  0  0  0  0  0  0
   63.2824   29.2450   50.9335 H   0  0  0  0  0  0  0  0  0  0  0  0
   62.0903   34.1736   47.5295 H   0  0  0  0  0  0  0  0  0  0  0  0
   63.5550   34.4179   48.5678 H   0  0  0  0  0  0  0  0  0  0  0  0
   63.6173   31.7994   48.6451 H   0  0  0  0  0  0  0  0  0  0  0  0
   62.5809   31.9053   47.1818 H   0  0  0  0  0  0  0  0  0  0  0  0
   64.2139   32.6536   47.1818 H   0  0  0  0  0  0  0  0  0  0  0  0
   58.1254   34.2307   45.6839 H   0  0  0  0  0  0  0  0  0  0  0  0
  1  2  1  0
  2  3  1  0
  3  4  1  0
  4  5  2  0
  5  6  1  0
  6  7  2  0
  7  8  1  0
  8  9  2  0
  9 10  1  0
 10 11  2  0
 11 12  1  0
 12 13  2  0
 13 14  1  0
 14 15  2  0
 15 16  1  0
 16 17  1  0
 17 18  1  0
 18 19  1  0
 16 20  2  0
 20 21  1  0
 20 22  1  0
 22 23  1  0
 23 24  2  0
 23 25  1  0
 25 26  1  0
 26 27  1  0
 27 28  1  0
 28 29  1  0
 22 30  2  0
 30 31  1  0
 31 32  1  0
 13 33  1  0
 33 34  1  0
 33 35  2  0
  9  4  1  0
 35 10  1  0
 30 14  1  0
  1 36  1  0
  1 37  1  0
  1 38  1  0
  2 39  1  0
  2 40  1  0
  5 41  1  0
  6 42  1  0
  7 43  1  0
  8 44  1  0
 11 45  1  0
 12 46  1  0
 17 47  1  0
 17 48  1  0
 19 49  1  0
 19 50  1  0
 19 51  1  0
 21 52  1  0
 21 53  1  0
 21 54  1  0
 26 55  1  0
 26 56  1  0
 27 57  1  0
 27 58  1  0
 29 59  1  0
 29 60  1  0
 29 61  1  0
 31 62  1  0
 31 63  1  0
 32 64  1  0
 32 65  1  0
 32 66  1  0
 35 67  1  0
M  END
>  <UniqueID>  (26) 
25

>  <SMILES>  (26) 
CCOc1ccccc1-c1ccc(-c2nc(COC)c(C)c(C(=O)OCCOC)c2CC)c(F)c1

>  <Energy>  (26) 
87.12169087399855

>  <Genealogy>  (26) 
CCOc1ccccc1-c1ccc(-c2nc(COC)c(C)c(C(=O)OCCOC)c2CC)c(F)c1 (3D coordinates assigned)
CCOc1ccccc1-c1ccc(-c2nc(COC)c(C)c(C(=O)OCCOC)c2CC)c(F)c1 (optimized conformer: 87.12169087399855 kcal/mol)

>  <smiles>  (26) 
CCOc1ccccc1-c1ccc(-c2nc(COC)c(C)c(C(=O)OCCOC)c2CC)c(F)c1

>  <score_type>  (26) 
oracle

>  <origin>  (26) 
adg

>  <m_score__min__energy>  (26) 
-7.7800000000000002

>  <m_primary>  (26) 
energy

$$$$
26:0
     RDKit          3D

 54 55  0  0  0  0  0  0  0  0999 V2000
   55.7670   23.9890   46.3490 C   0  0  0  0  0  0  0  0  0  0  0  0
   54.8700   24.9760   45.6120 C   0  0  0  0  0  0  0  0  0  0  0  0
   55.1750   26.3020   46.0020 O   0  0  0  0  0  0  0  0  0  0  0  0
   56.5270   26.4040   46.3980 C   0  0  0  0  0  0  0  0  0  0  0  0
   57.3610   26.8730   45.2060 C   0  0  0  0  0  0  0  0  0  0  0  0
   58.8160   26.4050   45.3260 C   0  0  0  0  0  0  0  0  0  0  0  0
   59.7050   27.5220   45.3070 O   0  0  0  0  0  0  0  0  0  0  0  0
   59.8330   28.4820   46.3230 C   0  0  0  0  0  0  0  0  0  0  0  0
   60.5580   29.6790   46.1580 C   0  0  0  0  0  0  0  0  0  0  0  0
   60.6470   30.6010   47.2050 C   0  0  0  0  0  0  0  0  0  0  0  0
   60.0080   30.3480   48.4290 C   0  0  0  0  0  0  0  0  0  0  0  0
   60.1290   31.3290   49.5630 C   0  0  0  0  0  0  0  0  0  0  0  0
   59.3610   32.6190   49.2460 C   0  0  0  0  0  0  0  0  0  0  0  0
   58.1950   32.3840   48.2750 C   0  0  0  0  0  0  0  0  0  0  0  0
   58.4200   33.0620   46.9430 C   0  0  0  0  0  0  0  0  0  0  0  0
   59.0740   34.3050   46.9060 C   0  0  0  0  0  0  0  0  0  0  0  0
   59.3220   34.9400   45.6880 C   0  0  0  0  0  0  0  0  0  0  0  0
   58.9280   34.3370   44.4930 C   0  0  0  0  0  0  0  0  0  0  0  0
   58.2890   33.0960   44.5110 C   0  0  0  0  0  0  0  0  0  0  0  0
   58.0300   32.4440   45.7330 C   0  0  0  0  0  0  0  0  0  0  0  0
   57.4000   31.1890   45.7830 O   0  0  0  0  0  0  0  0  0  0  0  0
   57.4500   30.2140   44.7480 C   0  0  0  0  0  0  0  0  0  0  0  0
   56.0590   29.8470   44.3570 C   0  0  0  0  0  0  0  0  0  0  0  0
   55.2700   29.3650   45.2110 O   0  0  0  0  0  0  0  0  0  0  0  0
   55.6120   30.0870   43.0640 O   0  0  0  0  0  0  0  0  0  0  0  0
   59.2960   29.1510   48.5980 C   0  0  0  0  0  0  0  0  0  0  0  0
   59.2040   28.2310   47.5500 C   0  0  0  0  0  0  0  0  0  0  0  0
   55.6455   24.1227   47.4341 H   0  0  0  0  0  0  0  0  0  0  0  0
   55.4869   22.9618   46.0725 H   0  0  0  0  0  0  0  0  0  0  0  0
   56.8162   24.1700   46.0725 H   0  0  0  0  0  0  0  0  0  0  0  0
   55.0280   24.8709   44.5285 H   0  0  0  0  0  0  0  0  0  0  0  0
   53.8205   24.7617   45.8621 H   0  0  0  0  0  0  0  0  0  0  0  0
   56.6169   27.1301   47.2194 H   0  0  0  0  0  0  0  0  0  0  0  0
   56.8885   25.4235   46.7415 H   0  0  0  0  0  0  0  0  0  0  0  0
   56.9277   26.4629   44.2819 H   0  0  0  0  0  0  0  0  0  0  0  0
   57.3504   27.9728   45.1859 H   0  0  0  0  0  0  0  0  0  0  0  0
   58.9431   25.8575   46.2716 H   0  0  0  0  0  0  0  0  0  0  0  0
   59.0500   25.7503   44.4736 H   0  0  0  0  0  0  0  0  0  0  0  0
   61.0566   29.8890   45.2002 H   0  0  0  0  0  0  0  0  0  0  0  0
   61.2208   31.5296   47.0690 H   0  0  0  0  0  0  0  0  0  0  0  0
   59.7157   30.8776   50.4770 H   0  0  0  0  0  0  0  0  0  0  0  0
   61.1914   31.5752   49.7068 H   0  0  0  0  0  0  0  0  0  0  0  0
   58.9615   33.0316   50.1842 H   0  0  0  0  0  0  0  0  0  0  0  0
   60.0623   33.3164   48.7646 H   0  0  0  0  0  0  0  0  0  0  0  0
   58.0844   31.3023   48.1084 H   0  0  0  0  0  0  0  0  0  0  0  0
   57.2874   32.8129   48.7248 H   0  0  0  0  0  0  0  0  0  0  0  0
   59.3932   34.7816   47.8446 H   0  0  0  0  0  0  0  0  0  0  0  0
   59.8283   35.9164   45.6702 H   0  0  0  0  0  0  0  0  0  0  0  0
   59.1214   34.8407   43.5344 H   0  0  0  0  0  0  0  0  0  0  0  0
   57.9856   32.6239   43.5649 H   0  0  0  0  0  0  0  0  0  0  0  0
   57.9805   30.6275   43.8776 H   0  0  0  0  0  0  0  0  0  0  0  0
   57.9828   29.3205   45.1055 H   0  0  0  0  0  0  0  0  0  0  0  0
   58.8079   28.9356   49.5599 H   0  0  0  0  0  0  0  0  0  0  0  0
   58.6327   27.3014   47.6894 H   0  0  0  0  0  0  0  0  0  0  0  0
  1  2  1  0
  2  3  1  0
  3  4  1  0
  4  5  1  0
  5  6  1  0
  6  7  1  0
  7  8  1  0
  8  9  2  0
  9 10  1  0
 10 11  2  0
 11 12  1  0
 12 13  1  0
 13 14  1  0
 14 15  1  0
 15 16  2  0
 16 17  1  0
 17 18  2  0
 18 19  1  0
 19 20  2  0
 20 21  1  0
 21 22  1  0
 22 23  1  0
 23 24  2  0
 23 25  1  0
 11 26  1  0
 26 27  2  0
 27  8  1  0
 20 15  1  0
  1 28  1  0
  1 29  1  0
  1 30  1  0
  2 31  1  0
  2 32  1  0
  4 33  1  0
  4 34  1  0
  5 35  1  0
  5 36  1  0
  6 37  1  0
  6 38  1  0
  9 39  1  0
 10 40  1  0
 12 41  1  0
 12 42  1  0
 13 43  1  0
 13 44  1  0
 14 45  1  0
 14 46  1  0
 16 47  1  0
 17 48  1  0
 18 49  1  0
 19 50  1  0
 22 51  1  0
 22 52  1  0
 26 53  1  0
 27 54  1  0
M  CHG  1  25  -1
M  END
>  <UniqueID>  (27) 
26

>  <SMILES>  (27) 
CCOCCCOc1ccc(CCCc2ccccc2OCC(=O)[O-])cc1

>  <Energy>  (27) 
42.590132740363856

>  <Genealogy>  (27) 
CCOCCCOc1ccc(CCCc2ccccc2OCC(=O)[O-])cc1 (protonated)
CCOCCCOc1ccc(CCCc2ccccc2OCC(=O)[O-])cc1 (3D coordinates assigned)
CCOCCCOc1ccc(CCCc2ccccc2OCC(=O)[O-])cc1 (optimized conformer: 42.590132740363856 kcal/mol)

>  <smiles>  (27) 
CCOCCCOc1ccc(CCCc2ccccc2OCC(=O)O)cc1

>  <score_type>  (27) 
oracle

>  <origin>  (27) 
adg

>  <m_score__min__energy>  (27) 
-10.449999999999999

>  <m_primary>  (27) 
energy

$$$$
27:0
     RDKit          3D

 40 41  0  0  0  0  0  0  0  0999 V2000
   60.5720   28.9630   44.7450 C   0  0  0  0  0  0  0  0  0  0  0  0
   60.4090   28.9000   46.2760 C   0  0  0  0  0  0  0  0  0  0  0  0
   59.0020   28.8890   46.7730 N   0  0  0  0  0  0  0  0  0  0  0  0
   58.9090   29.0070   48.2550 C   0  0  0  0  0  0  0  0  0  0  0  0
   59.5640   30.2560   48.8530 C   0  0  0  0  0  0  0  0  0  0  0  0
   58.1750   27.8020   46.1840 C   0  0  0  0  0  0  0  0  0  0  0  0
   56.9880   28.3240   45.3520 C   0  0  0  0  0  0  0  0  0  0  0  0
   56.8470   29.7360   45.5180 O   0  0  0  0  0  0  0  0  0  0  0  0
   57.2210   30.7160   44.5790 C   0  0  0  0  0  0  0  0  0  0  0  0
   57.0110   30.5430   43.1960 C   0  0  0  0  0  0  0  0  0  0  0  0
   57.3930   31.5330   42.2880 C   0  0  0  0  0  0  0  0  0  0  0  0
   57.9830   32.7120   42.7390 C   0  0  0  0  0  0  0  0  0  0  0  0
   58.1990   32.9130   44.1080 C   0  0  0  0  0  0  0  0  0  0  0  0
   58.7920   34.1000   44.5650 C   0  0  0  0  0  0  0  0  0  0  0  0
   59.0060   34.3000   45.9300 C   0  0  0  0  0  0  0  0  0  0  0  0
   58.6320   33.3190   46.8500 C   0  0  0  0  0  0  0  0  0  0  0  0
   58.0410   32.1310   46.4110 C   0  0  0  0  0  0  0  0  0  0  0  0
   57.8150   31.9110   45.0380 C   0  0  0  0  0  0  0  0  0  0  0  0
   61.5719   29.3495   44.4983 H   0  0  0  0  0  0  0  0  0  0  0  0
   60.4540   27.9545   44.3219 H   0  0  0  0  0  0  0  0  0  0  0  0
   59.8064   29.6300   44.3219 H   0  0  0  0  0  0  0  0  0  0  0  0
   60.9011   27.9827   46.6316 H   0  0  0  0  0  0  0  0  0  0  0  0
   60.8594   29.8248   46.6657 H   0  0  0  0  0  0  0  0  0  0  0  0
   58.5890   29.7840   46.4150 H   0  0  0  0  0  0  0  0  0  0  0  0
   57.8438   29.0171   48.5292 H   0  0  0  0  0  0  0  0  0  0  0  0
   59.4604   28.1478   48.6645 H   0  0  0  0  0  0  0  0  0  0  0  0
   59.5328   30.1964   49.9509 H   0  0  0  0  0  0  0  0  0  0  0  0
   60.6102   30.3171   48.5187 H   0  0  0  0  0  0  0  0  0  0  0  0
   59.0194   31.1514   48.5187 H   0  0  0  0  0  0  0  0  0  0  0  0
   58.8157   27.1894   45.5326 H   0  0  0  0  0  0  0  0  0  0  0  0
   57.7576   27.2204   47.0191 H   0  0  0  0  0  0  0  0  0  0  0  0
   57.1634   28.0996   44.2895 H   0  0  0  0  0  0  0  0  0  0  0  0
   56.0668   27.8303   45.6952 H   0  0  0  0  0  0  0  0  0  0  0  0
   56.5414   29.6188   42.8281 H   0  0  0  0  0  0  0  0  0  0  0  0
   57.2272   31.3812   41.2112 H   0  0  0  0  0  0  0  0  0  0  0  0
   58.2800   33.4873   42.0174 H   0  0  0  0  0  0  0  0  0  0  0  0
   59.0895   34.8762   43.8446 H   0  0  0  0  0  0  0  0  0  0  0  0
   59.4706   35.2331   46.2815 H   0  0  0  0  0  0  0  0  0  0  0  0
   58.8031   33.4816   47.9244 H   0  0  0  0  0  0  0  0  0  0  0  0
   57.7504   31.3626   47.1425 H   0  0  0  0  0  0  0  0  0  0  0  0
  1  2  1  0
  2  3  1  0
  3  4  1  0
  4  5  1  0
  3  6  1  0
  6  7  1  0
  7  8  1  0
  8  9  1  0
  9 10  2  0
 10 11  1  0
 11 12  2  0
 12 13  1  0
 13 14  2  0
 14 15  1  0
 15 16  2  0
 16 17  1  0
 17 18  2  0
 18  9  1  0
 18 13  1  0
  1 19  1  0
  1 20  1  0
  1 21  1  0
  2 22  1  0
  2 23  1  0
  3 24  1  0
  4 25  1  0
  4 26  1  0
  5 27  1  0
  5 28  1  0
  5 29  1  0
  6 30  1  0
  6 31  1  0
  7 32  1  0
  7 33  1  0
 10 34  1  0
 11 35  1  0
 12 36  1  0
 14 37  1  0
 15 38  1  0
 16 39  1  0
 17 40  1  0
M  CHG  1   3   1
M  END
>  <UniqueID>  (28) 
27

>  <SMILES>  (28) 
CC[NH+](CC)CCOc1cccc2ccccc12

>  <Energy>  (28) 
50.92776349560107

>  <Genealogy>  (28) 
CC[NH+](CC)CCOc1cccc2ccccc12 (protonated)
CC[NH+](CC)CCOc1cccc2ccccc12 (3D coordinates assigned)
CC[NH+](CC)CCOc1cccc2ccccc12 (optimized conformer: 50.92776349560107 kcal/mol)

>  <smiles>  (28) 
CCN(CC)CCOc1cccc2ccccc12

>  <score_type>  (28) 
oracle

>  <origin>  (28) 
adg

>  <m_score__min__energy>  (28) 
-4.2199999999999998

>  <m_primary>  (28) 
energy

$$$$
28:0
     RDKit          3D

 43 45  0  0  0  0  0  0  0  0999 V2000
   57.9400   26.3990   46.5000 C   0  0  0  0  0  0  0  0  0  0  0  0
   59.0440   26.8280   47.4810 C   0  0  0  0  0  0  0  0  0  0  0  0
   59.2350   28.2970   47.5890 N   0  0  0  0  0  0  0  0  0  0  0  0
   60.3990   28.7730   46.7890 C   0  0  0  0  0  0  0  0  0  0  0  0
   61.0660   30.0440   47.3560 C   0  0  0  0  0  0  0  0  0  0  0  0
   60.0850   30.8830   48.0500 N   0  0  0  0  0  0  0  0  0  0  0  0
   59.9100   32.2520   47.6590 C   0  0  0  0  0  0  0  0  0  0  0  0
   60.7370   33.2150   48.2530 C   0  0  0  0  0  0  0  0  0  0  0  0
   60.6150   34.5610   47.9230 C   0  0  0  0  0  0  0  0  0  0  0  0
   59.6640   34.9700   46.9920 C   0  0  0  0  0  0  0  0  0  0  0  0
   58.8210   34.0290   46.3810 C   0  0  0  0  0  0  0  0  0  0  0  0
   57.8690   34.4580   45.4480 C   0  0  0  0  0  0  0  0  0  0  0  0
   57.0220   33.5420   44.8300 C   0  0  0  0  0  0  0  0  0  0  0  0
   57.1120   32.1730   45.1340 C   0  0  0  0  0  0  0  0  0  0  0  0
   56.2740   31.2220   44.5300 O   0  0  0  0  0  0  0  0  0  0  0  0
   56.7130   30.2250   43.6120 C   0  0  0  0  0  0  0  0  0  0  0  0
   58.0600   31.7300   46.0670 C   0  0  0  0  0  0  0  0  0  0  0  0
   58.1190   30.3670   46.3390 O   0  0  0  0  0  0  0  0  0  0  0  0
   58.9310   32.6490   46.7070 C   0  0  0  0  0  0  0  0  0  0  0  0
   59.1760   30.2950   49.0370 C   0  0  0  0  0  0  0  0  0  0  0  0
   59.2600   28.7650   48.9950 C   0  0  0  0  0  0  0  0  0  0  0  0
   57.0602   26.0571   47.0648 H   0  0  0  0  0  0  0  0  0  0  0  0
   57.6598   27.2537   45.8668 H   0  0  0  0  0  0  0  0  0  0  0  0
   58.3104   25.5794   45.8668 H   0  0  0  0  0  0  0  0  0  0  0  0
   58.7872   26.4407   48.4780 H   0  0  0  0  0  0  0  0  0  0  0  0
   59.9868   26.4178   47.0900 H   0  0  0  0  0  0  0  0  0  0  0  0
   58.3790   28.7190   47.1510 H   0  0  0  0  0  0  0  0  0  0  0  0
   61.1508   27.9706   46.7592 H   0  0  0  0  0  0  0  0  0  0  0  0
   60.0176   29.0297   45.7897 H   0  0  0  0  0  0  0  0  0  0  0  0
   61.8552   29.7514   48.0642 H   0  0  0  0  0  0  0  0  0  0  0  0
   61.4934   30.6193   46.5215 H   0  0  0  0  0  0  0  0  0  0  0  0
   61.4921   32.9027   48.9894 H   0  0  0  0  0  0  0  0  0  0  0  0
   61.2717   35.3041   48.3989 H   0  0  0  0  0  0  0  0  0  0  0  0
   59.5730   36.0355   46.7342 H   0  0  0  0  0  0  0  0  0  0  0  0
   57.7897   35.5271   45.2014 H   0  0  0  0  0  0  0  0  0  0  0  0
   56.2779   33.8920   44.0994 H   0  0  0  0  0  0  0  0  0  0  0  0
   57.0953   29.3568   44.1688 H   0  0  0  0  0  0  0  0  0  0  0  0
   55.8693   29.9123   42.9792 H   0  0  0  0  0  0  0  0  0  0  0  0
   57.5133   30.6361   42.9792 H   0  0  0  0  0  0  0  0  0  0  0  0
   59.4552   30.6460   50.0414 H   0  0  0  0  0  0  0  0  0  0  0  0
   58.1464   30.6027   48.8021 H   0  0  0  0  0  0  0  0  0  0  0  0
   60.1958   28.4378   49.4717 H   0  0  0  0  0  0  0  0  0  0  0  0
   58.4001   28.3401   49.5335 H   0  0  0  0  0  0  0  0  0  0  0  0
  1  2  1  0
  2  3  1  0
  3  4  1  0
  4  5  1  0
  5  6  1  0
  6  7  1  0
  7  8  2  0
  8  9  1  0
  9 10  2  0
 10 11  1  0
 11 12  2  0
 12 13  1  0
 13 14  2  0
 14 15  1  0
 15 16  1  0
 14 17  1  0
 17 18  1  0
 17 19  2  0
  6 20  1  0
 20 21  1  0
 21  3  1  0
 19  7  1  0
 19 11  1  0
  1 22  1  0
  1 23  1  0
  1 24  1  0
  2 25  1  0
  2 26  1  0
  3 27  1  0
  4 28  1  0
  4 29  1  0
  5 30  1  0
  5 31  1  0
  8 32  1  0
  9 33  1  0
 10 34  1  0
 12 35  1  0
 13 36  1  0
 16 37  1  0
 16 38  1  0
 16 39  1  0
 20 40  1  0
 20 41  1  0
 21 42  1  0
 21 43  1  0
M  CHG  2   3   1  18  -1
M  END
>  <UniqueID>  (29) 
28

>  <SMILES>  (29) 
CC[NH+]1CCN(c2cccc3ccc(OC)c([O-])c23)CC1

>  <Energy>  (29) 
64.05758797771689

>  <Genealogy>  (29) 
CC[NH+]1CCN(c2cccc3ccc(OC)c([O-])c23)CC1 (protonated)
CC[NH+]1CCN(c2cccc3ccc(OC)c([O-])c23)CC1 (3D coordinates assigned)
CC[NH+]1CCN(c2cccc3ccc(OC)c([O-])c23)CC1 (nonaromatic ring conformer: 64.05758797771689 kcal/mol)

>  <smiles>  (29) 
CCN1CCN(c2cccc3ccc(OC)c(O)c23)CC1

>  <score_type>  (29) 
oracle

>  <origin>  (29) 
adg

>  <m_score__min__energy>  (29) 
-8.5299999999999994

>  <m_primary>  (29) 
energy

$$$$
29:0
     RDKit          3D

 65 68  0  0  0  0  0  0  0  0999 V2000
   58.7580   35.3374   48.5822 H   0  0  0  0  0  0  0  0  0  0  0  0
   59.2730   34.4100   48.2910 C   0  0  0  0  0  0  0  0  0  0  0  0
   58.8030   33.7010   47.2590 C   0  0  0  0  0  0  0  0  0  0  0  0
   58.8060   34.1470   45.8690 C   0  0  0  0  0  0  0  0  0  0  0  0
   59.1820   35.2730   45.4470 O   0  0  0  0  0  0  0  0  0  0  0  0
   58.3340   33.0510   45.0560 C   0  0  0  0  0  0  0  0  0  0  0  0
   58.2130   32.9710   43.6710 C   0  0  0  0  0  0  0  0  0  0  0  0
   58.4618   33.8334   43.0351 H   0  0  0  0  0  0  0  0  0  0  0  0
   57.7640   31.7590   43.0990 C   0  0  0  0  0  0  0  0  0  0  0  0
   57.6150   31.6050   41.7120 O   0  0  0  0  0  0  0  0  0  0  0  0
   57.3850   32.6770   40.8040 C   0  0  0  0  0  0  0  0  0  0  0  0
   57.1870   33.5999   41.3689 H   0  0  0  0  0  0  0  0  0  0  0  0
   58.2733   32.8181   40.1708 H   0  0  0  0  0  0  0  0  0  0  0  0
   56.5170   32.4413   40.1708 H   0  0  0  0  0  0  0  0  0  0  0  0
   57.4550   30.6590   43.9330 C   0  0  0  0  0  0  0  0  0  0  0  0
   57.0200   29.4690   43.3290 O   0  0  0  0  0  0  0  0  0  0  0  0
   57.7210   28.2320   43.3890 C   0  0  0  0  0  0  0  0  0  0  0  0
   57.8801   27.9513   44.4406 H   0  0  0  0  0  0  0  0  0  0  0  0
   57.1310   27.4514   42.8864 H   0  0  0  0  0  0  0  0  0  0  0  0
   58.6938   28.3371   42.8864 H   0  0  0  0  0  0  0  0  0  0  0  0
   57.5900   30.7770   45.3360 C   0  0  0  0  0  0  0  0  0  0  0  0
   57.3506   29.9276   45.9927 H   0  0  0  0  0  0  0  0  0  0  0  0
   58.0300   31.9830   45.8740 C   0  0  0  0  0  0  0  0  0  0  0  0
   58.2590   32.2930   47.3240 C   0  0  0  0  0  0  0  0  0  0  0  0
   58.9893   31.6021   47.7705 H   0  0  0  0  0  0  0  0  0  0  0  0
   57.3586   32.1926   47.9478 H   0  0  0  0  0  0  0  0  0  0  0  0
   60.4650   33.9810   49.0500 C   0  0  0  0  0  0  0  0  0  0  0  0
   60.3750   33.8440   50.4520 C   0  0  0  0  0  0  0  0  0  0  0  0
   59.1400   34.0820   51.0870 O   0  0  0  0  0  0  0  0  0  0  0  0
   58.2230   33.0580   51.4710 C   0  0  0  0  0  0  0  0  0  0  0  0
   57.6247   32.7695   50.5942 H   0  0  0  0  0  0  0  0  0  0  0  0
   57.5845   33.4558   52.2736 H   0  0  0  0  0  0  0  0  0  0  0  0
   58.9480   31.8100   52.0120 C   0  0  0  0  0  0  0  0  0  0  0  0
   58.5591   31.6067   53.0207 H   0  0  0  0  0  0  0  0  0  0  0  0
   60.0198   32.0554   51.9812 H   0  0  0  0  0  0  0  0  0  0  0  0
   58.8010   30.5670   51.2100 N   0  0  0  0  0  0  0  0  0  0  0  0
   58.1060   29.5010   51.9470 C   0  0  0  0  0  0  0  0  0  0  0  0
   58.2166   29.6706   53.0282 H   0  0  0  0  0  0  0  0  0  0  0  0
   57.0384   29.5080   51.6820 H   0  0  0  0  0  0  0  0  0  0  0  0
   58.5431   28.5270   51.6820 H   0  0  0  0  0  0  0  0  0  0  0  0
   60.0400   30.0650   50.5770 C   0  0  0  0  0  0  0  0  0  0  0  0
   60.2806   29.0779   50.9986 H   0  0  0  0  0  0  0  0  0  0  0  0
   60.8443   30.7878   50.7789 H   0  0  0  0  0  0  0  0  0  0  0  0
   59.8890   29.9320   49.0560 C   0  0  0  0  0  0  0  0  0  0  0  0
   58.8695   30.2277   48.7676 H   0  0  0  0  0  0  0  0  0  0  0  0
   60.0789   28.8861   48.7730 H   0  0  0  0  0  0  0  0  0  0  0  0
   60.8200   30.7600   48.3840 O   0  0  0  0  0  0  0  0  0  0  0  0
   61.0080   30.3150   47.0580 C   0  0  0  0  0  0  0  0  0  0  0  0
   61.4361   29.3018   47.0685 H   0  0  0  0  0  0  0  0  0  0  0  0
   60.0399   30.2987   46.5360 H   0  0  0  0  0  0  0  0  0  0  0  0
   61.6946   30.9977   46.5360 H   0  0  0  0  0  0  0  0  0  0  0  0
   61.5170   33.4660   51.1820 C   0  0  0  0  0  0  0  0  0  0  0  0
   61.4559   33.3708   52.2762 H   0  0  0  0  0  0  0  0  0  0  0  0
   62.7240   33.2110   50.5350 C   0  0  0  0  0  0  0  0  0  0  0  0
   63.6066   32.9170   51.1220 H   0  0  0  0  0  0  0  0  0  0  0  0
   62.8220   33.3260   49.1450 C   0  0  0  0  0  0  0  0  0  0  0  0
   64.0430   33.0650   48.5020 C   0  0  0  0  0  0  0  0  0  0  0  0
   64.9207   32.7657   49.0936 H   0  0  0  0  0  0  0  0  0  0  0  0
   64.1470   33.1840   47.1150 C   0  0  0  0  0  0  0  0  0  0  0  0
   65.1055   32.9766   46.6168 H   0  0  0  0  0  0  0  0  0  0  0  0
   63.0390   33.5650   46.3600 C   0  0  0  0  0  0  0  0  0  0  0  0
   63.1267   33.6583   45.2675 H   0  0  0  0  0  0  0  0  0  0  0  0
   61.8170   33.8290   46.9850 C   0  0  0  0  0  0  0  0  0  0  0  0
   60.9488   34.1303   46.3804 H   0  0  0  0  0  0  0  0  0  0  0  0
   61.6880   33.7120   48.3860 C   0  0  0  0  0  0  0  0  0  0  0  0
  1  2  1  0
  2  3  2  0
  3  4  1  0
  4  5  2  0
  4  6  1  0
  6  7  2  0
  7  8  1  0
  7  9  1  0
  9 10  1  0
 10 11  1  0
 11 12  1  0
 11 13  1  0
 11 14  1  0
  9 15  2  0
 15 16  1  0
 16 17  1  0
 17 18  1  0
 17 19  1  0
 17 20  1  0
 15 21  1  0
 21 22  1  0
 21 23  2  0
 23 24  1  0
 24 25  1  0
 24 26  1  0
  2 27  1  0
 27 28  2  0
 28 29  1  0
 29 30  1  0
 30 31  1  0
 30 32  1  0
 30 33  1  0
 33 34  1  0
 33 35  1  0
 33 36  1  0
 36 37  1  0
 37 38  1  0
 37 39  1  0
 37 40  1  0
 36 41  1  0
 41 42  1  0
 41 43  1  0
 41 44  1  0
 44 45  1  0
 44 46  1  0
 44 47  1  0
 47 48  1  0
 48 49  1  0
 48 50  1  0
 48 51  1  0
 28 52  1  0
 52 53  1  0
 52 54  2  0
 54 55  1  0
 54 56  1  0
 56 57  2  0
 57 58  1  0
 57 59  1  0
 59 60  1  0
 59 61  2  0
 61 62  1  0
 61 63  1  0
 63 64  1  0
 63 65  2  0
 24  3  1  0
 65 27  1  0
 23  6  1  0
 65 56  1  0
M  END
>  <UniqueID>  (30) 
29

>  <SMILES>  (30) 
COCCN(C)CCOc1ccc2ccccc2c1/C=C1\Cc2cc(OC)c(OC)cc2C1=O

>  <Energy>  (30) 
99.39420184232185

>  <Genealogy>  (30) 
COCCN(C)CCOc1ccc2ccccc2c1/C=C1\Cc2cc(OC)c(OC)cc2C1=O (cis-trans isomerization)
COCCN(C)CCOc1ccc2ccccc2c1/C=C1\Cc2cc(OC)c(OC)cc2C1=O (3D coordinates assigned)
COCCN(C)CCOc1ccc2ccccc2c1/C=C1\Cc2cc(OC)c(OC)cc2C1=O (nonaromatic ring conformer: 99.39420184232185 kcal/mol)

>  <smiles>  (30) 
COCCN(C)CCOc1ccc2ccccc2c1C=C1Cc2cc(OC)c(OC)cc2C1=O

>  <score_type>  (30) 
oracle

>  <origin>  (30) 
adg

>  <m_score__min__energy>  (30) 
-7.8799999999999999

>  <m_primary>  (30) 
energy

$$$$
30:0
     RDKit          3D

 42 43  0  0  0  0  0  0  0  0999 V2000
   61.0500   33.6850   46.3710 C   0  0  0  0  0  0  0  0  0  0  0  0
   60.0250   34.6770   46.0010 N   0  0  0  0  0  0  0  0  0  0  0  0
   59.1720   34.9570   47.1690 C   0  0  0  0  0  0  0  0  0  0  0  0
   59.2000   34.1940   44.8720 C   0  0  0  0  0  0  0  0  0  0  0  0
   57.7180   34.1390   45.2640 C   0  0  0  0  0  0  0  0  0  0  0  0
   57.3920   32.8710   45.8340 O   0  0  0  0  0  0  0  0  0  0  0  0
   57.5020   31.6310   45.1830 C   0  0  0  0  0  0  0  0  0  0  0  0
   56.5900   31.2050   44.1970 C   0  0  0  0  0  0  0  0  0  0  0  0
   56.7390   29.9540   43.5930 C   0  0  0  0  0  0  0  0  0  0  0  0
   57.7990   29.1060   43.9590 C   0  0  0  0  0  0  0  0  0  0  0  0
   57.9140   27.7880   43.3810 N   0  0  0  0  0  0  0  0  0  0  0  0
   58.4300   26.8170   44.3620 C   0  0  0  0  0  0  0  0  0  0  0  0
   57.3550   25.8680   44.8330 C   0  0  0  0  0  0  0  0  0  0  0  0
   57.1200   24.6630   44.1550 C   0  0  0  0  0  0  0  0  0  0  0  0
   56.0890   23.8180   44.5670 C   0  0  0  0  0  0  0  0  0  0  0  0
   55.2930   24.1900   45.6550 C   0  0  0  0  0  0  0  0  0  0  0  0
   53.8700   23.0610   46.2360 Br  0  0  0  0  0  0  0  0  0  0  0  0
   55.5270   25.3640   46.2980 N   0  0  0  0  0  0  0  0  0  0  0  0
   56.5270   26.2020   45.9160 C   0  0  0  0  0  0  0  0  0  0  0  0
   58.7110   29.5380   44.9360 C   0  0  0  0  0  0  0  0  0  0  0  0
   58.5640   30.7910   45.5370 C   0  0  0  0  0  0  0  0  0  0  0  0
   61.1179   33.6193   47.4669 H   0  0  0  0  0  0  0  0  0  0  0  0
   60.7740   32.7022   45.9611 H   0  0  0  0  0  0  0  0  0  0  0  0
   62.0232   33.9930   45.9611 H   0  0  0  0  0  0  0  0  0  0  0  0
   59.7409   34.7702   48.0917 H   0  0  0  0  0  0  0  0  0  0  0  0
   58.8492   36.0083   47.1437 H   0  0  0  0  0  0  0  0  0  0  0  0
   58.2890   34.3016   47.1437 H   0  0  0  0  0  0  0  0  0  0  0  0
   59.3220   34.8769   44.0183 H   0  0  0  0  0  0  0  0  0  0  0  0
   59.5309   33.1803   44.6022 H   0  0  0  0  0  0  0  0  0  0  0  0
   57.5098   34.9297   45.9999 H   0  0  0  0  0  0  0  0  0  0  0  0
   57.1081   34.2873   44.3606 H   0  0  0  0  0  0  0  0  0  0  0  0
   55.7572   31.8601   43.9016 H   0  0  0  0  0  0  0  0  0  0  0  0
   56.0213   29.6300   42.8250 H   0  0  0  0  0  0  0  0  0  0  0  0
   58.5730   27.8270   42.5700 H   0  0  0  0  0  0  0  0  0  0  0  0
   56.9890   27.4640   43.0130 H   0  0  0  0  0  0  0  0  0  0  0  0
   59.2385   26.2352   43.8952 H   0  0  0  0  0  0  0  0  0  0  0  0
   58.7974   27.3765   45.2349 H   0  0  0  0  0  0  0  0  0  0  0  0
   57.7494   24.3837   43.2972 H   0  0  0  0  0  0  0  0  0  0  0  0
   55.9043   22.8694   44.0417 H   0  0  0  0  0  0  0  0  0  0  0  0
   56.6879   27.1457   46.4579 H   0  0  0  0  0  0  0  0  0  0  0  0
   59.5465   28.8857   45.2300 H   0  0  0  0  0  0  0  0  0  0  0  0
   59.2897   31.1201   46.2953 H   0  0  0  0  0  0  0  0  0  0  0  0
  1  2  1  0
  2  3  1  0
  2  4  1  0
  4  5  1  0
  5  6  1  0
  6  7  1  0
  7  8  2  0
  8  9  1  0
  9 10  2  0
 10 11  1  0
 11 12  1  0
 12 13  1  0
 13 14  2  0
 14 15  1  0
 15 16  2  0
 16 17  1  0
 16 18  1  0
 18 19  2  0
 10 20  1  0
 20 21  2  0
 21  7  1  0
 19 13  1  0
  1 22  1  0
  1 23  1  0
  1 24  1  0
  3 25  1  0
  3 26  1  0
  3 27  1  0
  4 28  1  0
  4 29  1  0
  5 30  1  0
  5 31  1  0
  8 32  1  0
  9 33  1  0
 11 34  1  0
 11 35  1  0
 12 36  1  0
 12 37  1  0
 14 38  1  0
 15 39  1  0
 19 40  1  0
 20 41  1  0
 21 42  1  0
M  CHG  1  11   1
M  END
>  <UniqueID>  (31) 
30

>  <SMILES>  (31) 
CN(C)CCOc1ccc([NH2+]Cc2ccc(Br)nc2)cc1

>  <Energy>  (31) 
41.75196969042534

>  <Genealogy>  (31) 
CN(C)CCOc1ccc([NH2+]Cc2ccc(Br)nc2)cc1 (protonated)
CN(C)CCOc1ccc([NH2+]Cc2ccc(Br)nc2)cc1 (3D coordinates assigned)
CN(C)CCOc1ccc([NH2+]Cc2ccc(Br)nc2)cc1 (optimized conformer: 41.75196969042534 kcal/mol)

>  <smiles>  (31) 
CN(C)CCOc1ccc(NCc2ccc(Br)nc2)cc1

>  <score_type>  (31) 
oracle

>  <origin>  (31) 
adg

>  <m_score__min__energy>  (31) 
-5.5700000000000003

>  <m_primary>  (31) 
energy

$$$$
31:0
     RDKit          3D

 62 65  0  0  0  0  0  0  0  0999 V2000
   61.6030   30.1020   50.9360 C   0  0  0  0  0  0  0  0  0  0  0  0
   62.4500   30.9140   50.1300 O   0  0  0  0  0  0  0  0  0  0  0  0
   63.7860   31.2170   50.4320 C   0  0  0  0  0  0  0  0  0  0  0  0
   64.5390   30.4550   51.3470 C   0  0  0  0  0  0  0  0  0  0  0  0
   65.8590   30.8050   51.6400 C   0  0  0  0  0  0  0  0  0  0  0  0
   66.4440   31.9160   51.0260 C   0  0  0  0  0  0  0  0  0  0  0  0
   65.7090   32.6760   50.1160 C   0  0  0  0  0  0  0  0  0  0  0  0
   64.3850   32.3270   49.8070 C   0  0  0  0  0  0  0  0  0  0  0  0
   63.6400   33.1130   48.8650 N   0  0  0  0  0  0  0  0  0  0  0  0
   64.1260   33.1960   47.4810 C   0  0  0  0  0  0  0  0  0  0  0  0
   63.0800   33.8310   46.5550 C   0  0  0  0  0  0  0  0  0  0  0  0
   61.7180   33.5150   47.0300 N   0  0  0  0  0  0  0  0  0  0  0  0
   60.6690   33.7010   45.9840 C   0  0  0  0  0  0  0  0  0  0  0  0
   59.6480   34.8520   46.1720 C   0  0  0  0  0  0  0  0  0  0  0  0
   58.4550   34.5850   47.1120 C   0  0  0  0  0  0  0  0  0  0  0  0
   57.5030   33.4650   46.6410 C   0  0  0  0  0  0  0  0  0  0  0  0
   58.1080   32.1260   46.7600 N   0  0  0  0  0  0  0  0  0  0  0  0
   58.9840   31.8940   47.7850 C   0  0  0  0  0  0  0  0  0  0  0  0
   59.5670   30.6800   47.9390 N   0  0  0  0  0  0  0  0  0  0  0  0
   59.3200   29.6610   47.0780 C   0  0  0  0  0  0  0  0  0  0  0  0
   59.9330   28.4140   47.2740 C   0  0  0  0  0  0  0  0  0  0  0  0
   60.7890   28.2470   48.3740 O   0  0  0  0  0  0  0  0  0  0  0  0
   60.7310   27.1530   49.2850 C   0  0  0  0  0  0  0  0  0  0  0  0
   59.6710   27.3690   46.3650 C   0  0  0  0  0  0  0  0  0  0  0  0
   58.8090   27.5730   45.2850 C   0  0  0  0  0  0  0  0  0  0  0  0
   58.1980   28.8130   45.0950 C   0  0  0  0  0  0  0  0  0  0  0  0
   58.4490   29.8680   45.9910 C   0  0  0  0  0  0  0  0  0  0  0  0
   57.8530   31.1350   45.8450 C   0  0  0  0  0  0  0  0  0  0  0  0
   57.0770   31.3510   44.8710 O   0  0  0  0  0  0  0  0  0  0  0  0
   61.4480   34.2120   48.3060 C   0  0  0  0  0  0  0  0  0  0  0  0
   62.5590   33.9780   49.3600 C   0  0  0  0  0  0  0  0  0  0  0  0
   61.8087   30.2992   51.9984 H   0  0  0  0  0  0  0  0  0  0  0  0
   60.5513   30.3380   50.7162 H   0  0  0  0  0  0  0  0  0  0  0  0
   61.7944   29.0413   50.7162 H   0  0  0  0  0  0  0  0  0  0  0  0
   64.0847   29.5793   51.8335 H   0  0  0  0  0  0  0  0  0  0  0  0
   66.4397   30.2047   52.3558 H   0  0  0  0  0  0  0  0  0  0  0  0
   67.4831   32.1908   51.2601 H   0  0  0  0  0  0  0  0  0  0  0  0
   66.1694   33.5533   49.6381 H   0  0  0  0  0  0  0  0  0  0  0  0
   65.0405   33.8069   47.4593 H   0  0  0  0  0  0  0  0  0  0  0  0
   64.3285   32.1753   47.1244 H   0  0  0  0  0  0  0  0  0  0  0  0
   63.2175   34.9223   46.5463 H   0  0  0  0  0  0  0  0  0  0  0  0
   63.2081   33.4277   45.5397 H   0  0  0  0  0  0  0  0  0  0  0  0
   61.7030   32.4870   47.2420 H   0  0  0  0  0  0  0  0  0  0  0  0
   61.1868   33.8761   45.0294 H   0  0  0  0  0  0  0  0  0  0  0  0
   60.0624   32.7850   46.0382 H   0  0  0  0  0  0  0  0  0  0  0  0
   60.1956   35.7193   46.5694 H   0  0  0  0  0  0  0  0  0  0  0  0
   59.2002   35.0008   45.1784 H   0  0  0  0  0  0  0  0  0  0  0  0
   58.8520   34.3052   48.0990 H   0  0  0  0  0  0  0  0  0  0  0  0
   57.8610   35.5106   47.1320 H   0  0  0  0  0  0  0  0  0  0  0  0
   56.5904   33.4960   47.2543 H   0  0  0  0  0  0  0  0  0  0  0  0
   57.2804   33.6391   45.5779 H   0  0  0  0  0  0  0  0  0  0  0  0
   59.2181   32.7027   48.4929 H   0  0  0  0  0  0  0  0  0  0  0  0
   60.7512   27.5336   50.3168 H   0  0  0  0  0  0  0  0  0  0  0  0
   59.8016   26.5879   49.1207 H   0  0  0  0  0  0  0  0  0  0  0  0
   61.5954   26.4928   49.1207 H   0  0  0  0  0  0  0  0  0  0  0  0
   60.1478   26.3879   46.5069 H   0  0  0  0  0  0  0  0  0  0  0  0
   58.6108   26.7518   44.5805 H   0  0  0  0  0  0  0  0  0  0  0  0
   57.5190   28.9658   44.2432 H   0  0  0  0  0  0  0  0  0  0  0  0
   61.3717   35.2914   48.1084 H   0  0  0  0  0  0  0  0  0  0  0  0
   60.5106   33.8068   48.7148 H   0  0  0  0  0  0  0  0  0  0  0  0
   62.9881   34.9512   49.6406 H   0  0  0  0  0  0  0  0  0  0  0  0
   62.0978   33.4723   50.2211 H   0  0  0  0  0  0  0  0  0  0  0  0
  1  2  1  0
  2  3  1  0
  3  4  2  0
  4  5  1  0
  5  6  2  0
  6  7  1  0
  7  8  2  0
  8  9  1  0
  9 10  1  0
 10 11  1  0
 11 12  1  0
 12 13  1  0
 13 14  1  0
 14 15  1  0
 15 16  1  0
 16 17  1  0
 17 18  1  0
 18 19  2  0
 19 20  1  0
 20 21  2  0
 21 22  1  0
 22 23  1  0
 21 24  1  0
 24 25  2  0
 25 26  1  0
 26 27  2  0
 27 28  1  0
 28 29  2  0
 12 30  1  0
 30 31  1  0
  8  3  1  0
 31  9  1  0
 28 17  1  0
 27 20  1  0
  1 32  1  0
  1 33  1  0
  1 34  1  0
  4 35  1  0
  5 36  1  0
  6 37  1  0
  7 38  1  0
 10 39  1  0
 10 40  1  0
 11 41  1  0
 11 42  1  0
 12 43  1  0
 13 44  1  0
 13 45  1  0
 14 46  1  0
 14 47  1  0
 15 48  1  0
 15 49  1  0
 16 50  1  0
 16 51  1  0
 18 52  1  0
 23 53  1  0
 23 54  1  0
 23 55  1  0
 24 56  1  0
 25 57  1  0
 26 58  1  0
 30 59  1  0
 30 60  1  0
 31 61  1  0
 31 62  1  0
M  CHG  1  12   1
M  END
>  <UniqueID>  (32) 
31

>  <SMILES>  (32) 
COc1ccccc1N1CC[NH+](CCCCn2cnc3c(OC)cccc3c2=O)CC1

>  <Energy>  (32) 
87.91784767098548

>  <Genealogy>  (32) 
COc1ccccc1N1CC[NH+](CCCCn2cnc3c(OC)cccc3c2=O)CC1 (protonated)
COc1ccccc1N1CC[NH+](CCCCn2cnc3c(OC)cccc3c2=O)CC1 (3D coordinates assigned)
COc1ccccc1N1CC[NH+](CCCCn2cnc3c(OC)cccc3c2=O)CC1 (nonaromatic ring conformer: 87.91784767098548 kcal/mol)

>  <smiles>  (32) 
COc1ccccc1N1CCN(CCCCn2cnc3c(OC)cccc3c2=O)CC1

>  <score_type>  (32) 
oracle

>  <origin>  (32) 
adg

>  <m_score__min__energy>  (32) 
-6.9500000000000002

>  <m_primary>  (32) 
energy

$$$$
32:0
     RDKit          3D

 60 62  0  0  0  0  0  0  0  0999 V2000
   58.2090   31.6470   45.8530 C   0  0  0  0  0  0  0  0  0  0  0  0
   58.1990   32.8560   46.6020 O   0  0  0  0  0  0  0  0  0  0  0  0
   58.8040   34.0300   46.1420 C   0  0  0  0  0  0  0  0  0  0  0  0
   58.9140   34.2550   44.9050 O   0  0  0  0  0  0  0  0  0  0  0  0
   59.3520   35.0130   47.1300 C   0  0  0  0  0  0  0  0  0  0  0  0
   59.6920   34.3440   48.4680 C   0  0  0  0  0  0  0  0  0  0  0  0
   61.1340   34.6280   48.9100 C   0  0  0  0  0  0  0  0  0  0  0  0
   61.8460   33.4070   49.1090 O   0  0  0  0  0  0  0  0  0  0  0  0
   61.4420   32.1410   48.6550 C   0  0  0  0  0  0  0  0  0  0  0  0
   60.6070   31.3810   49.4810 C   0  0  0  0  0  0  0  0  0  0  0  0
   60.1640   30.1190   49.0790 C   0  0  0  0  0  0  0  0  0  0  0  0
   60.5450   29.5900   47.8330 C   0  0  0  0  0  0  0  0  0  0  0  0
   60.0610   28.2540   47.3970 C   0  0  0  0  0  0  0  0  0  0  0  0
   59.7390   27.2640   48.3430 C   0  0  0  0  0  0  0  0  0  0  0  0
   59.2900   26.0050   47.9310 C   0  0  0  0  0  0  0  0  0  0  0  0
   59.1520   25.7140   46.5620 C   0  0  0  0  0  0  0  0  0  0  0  0
   58.7050   24.4680   46.0930 O   0  0  0  0  0  0  0  0  0  0  0  0
   57.6460   24.2810   45.1540 C   0  0  2  0  0  0  0  0  0  0  0  0
   56.4100   24.2340   45.8510 O   0  0  0  0  0  0  0  0  0  0  0  0
   55.2970   23.7870   45.0750 C   0  0  1  0  0  0  0  0  0  0  0  0
   54.1190   24.7290   45.3650 C   0  0  0  0  0  0  0  0  0  0  0  0
   54.5650   25.9290   45.9420 O   0  0  0  0  0  0  0  0  0  0  0  0
   55.5650   23.6620   43.5470 C   0  0  2  0  0  0  0  0  0  0  0  0
   54.4440   23.1160   42.9000 O   0  0  0  0  0  0  0  0  0  0  0  0
   56.8180   22.7860   43.2850 C   0  0  2  0  0  0  0  0  0  0  0  0
   56.4610   21.4270   43.1970 O   0  0  0  0  0  0  0  0  0  0  0  0
   57.8990   22.9800   44.3780 C   0  0  2  0  0  0  0  0  0  0  0  0
   57.8980   21.9070   45.2880 O   0  0  0  0  0  0  0  0  0  0  0  0
   59.4660   26.6980   45.6210 C   0  0  0  0  0  0  0  0  0  0  0  0
   59.9190   27.9550   46.0300 C   0  0  0  0  0  0  0  0  0  0  0  0
   61.3860   30.3550   47.0040 C   0  0  0  0  0  0  0  0  0  0  0  0
   61.8310   31.6170   47.4080 C   0  0  0  0  0  0  0  0  0  0  0  0
   58.2161   30.7892   46.5415 H   0  0  0  0  0  0  0  0  0  0  0  0
   57.3112   31.6010   45.2191 H   0  0  0  0  0  0  0  0  0  0  0  0
   59.1074   31.6158   45.2191 H   0  0  0  0  0  0  0  0  0  0  0  0
   60.2653   35.4640   46.7148 H   0  0  0  0  0  0  0  0  0  0  0  0
   58.5833   35.7778   47.3149 H   0  0  0  0  0  0  0  0  0  0  0  0
   59.0044   34.7234   49.2383 H   0  0  0  0  0  0  0  0  0  0  0  0
   59.5875   33.2568   48.3374 H   0  0  0  0  0  0  0  0  0  0  0  0
   61.6406   35.2199   48.1335 H   0  0  0  0  0  0  0  0  0  0  0  0
   61.1120   35.1854   49.8581 H   0  0  0  0  0  0  0  0  0  0  0  0
   60.2961   31.7815   50.4572 H   0  0  0  0  0  0  0  0  0  0  0  0
   59.5111   29.5335   49.7430 H   0  0  0  0  0  0  0  0  0  0  0  0
   59.8412   27.4819   49.4163 H   0  0  0  0  0  0  0  0  0  0  0  0
   59.0437   25.2391   48.6811 H   0  0  0  0  0  0  0  0  0  0  0  0
   57.6060   25.1150   44.4378 H   0  0  0  0  0  0  0  0  0  0  0  0
   55.0719   22.7543   45.3799 H   0  0  0  0  0  0  0  0  0  0  0  0
   53.5983   24.9546   44.4227 H   0  0  0  0  0  0  0  0  0  0  0  0
   53.4383   24.2319   46.0717 H   0  0  0  0  0  0  0  0  0  0  0  0
   55.0950   25.6890   46.7460 H   0  0  0  0  0  0  0  0  0  0  0  0
   55.7520   24.6672   43.1414 H   0  0  0  0  0  0  0  0  0  0  0  0
   54.7370   22.2590   42.4940 H   0  0  0  0  0  0  0  0  0  0  0  0
   57.2476   23.1113   42.3260 H   0  0  0  0  0  0  0  0  0  0  0  0
   57.2450   20.8960   43.4980 H   0  0  0  0  0  0  0  0  0  0  0  0
   58.8751   23.0261   43.8729 H   0  0  0  0  0  0  0  0  0  0  0  0
   56.9760   21.5390   45.3020 H   0  0  0  0  0  0  0  0  0  0  0  0
   59.3556   26.4811   44.5483 H   0  0  0  0  0  0  0  0  0  0  0  0
   60.1666   28.7171   45.2765 H   0  0  0  0  0  0  0  0  0  0  0  0
   61.6967   29.9556   46.0273 H   0  0  0  0  0  0  0  0  0  0  0  0
   62.4880   32.2031   46.7485 H   0  0  0  0  0  0  0  0  0  0  0  0
  1  2  1  0
  2  3  1  0
  3  4  2  0
  3  5  1  0
  5  6  1  0
  6  7  1  0
  7  8  1  0
  8  9  1  0
  9 10  2  0
 10 11  1  0
 11 12  2  0
 12 13  1  0
 13 14  2  0
 14 15  1  0
 15 16  2  0
 16 17  1  0
 17 18  1  0
 18 19  1  0
 19 20  1  0
 20 21  1  0
 21 22  1  0
 20 23  1  0
 23 24  1  0
 23 25  1  0
 25 26  1  0
 25 27  1  0
 27 28  1  0
 16 29  1  0
 29 30  2  0
 12 31  1  0
 31 32  2  0
 32  9  1  0
 30 13  1  0
 27 18  1  0
  1 33  1  0
  1 34  1  0
  1 35  1  0
  5 36  1  0
  5 37  1  0
  6 38  1  0
  6 39  1  0
  7 40  1  0
  7 41  1  0
 10 42  1  0
 11 43  1  0
 14 44  1  0
 15 45  1  0
 18 46  1  6
 20 47  1  1
 21 48  1  0
 21 49  1  0
 22 50  1  0
 23 51  1  6
 24 52  1  0
 25 53  1  6
 26 54  1  0
 27 55  1  6
 28 56  1  0
 29 57  1  0
 30 58  1  0
 31 59  1  0
 32 60  1  0
M  END
>  <UniqueID>  (33) 
32

>  <SMILES>  (33) 
COC(=O)CCCOc1ccc(-c2ccc(O[C@@H]3O[C@@H](CO)C(O)C(O)C3O)cc2)cc1

>  <Energy>  (33) 
73.45699016171487

>  <Genealogy>  (33) 
COC(=O)CCCOc1ccc(-c2ccc(O[C@@H]3O[C@@H](CO)C(O)C(O)C3O)cc2)cc1 (chirality)
COC(=O)CCCOc1ccc(-c2ccc(O[C@@H]3O[C@@H](CO)C(O)C(O)C3O)cc2)cc1 (3D coordinates assigned)
COC(=O)CCCOc1ccc(-c2ccc(O[C@@H]3O[C@@H](CO)C(O)C(O)C3O)cc2)cc1 (nonaromatic ring conformer: 73.45699016171487 kcal/mol)

>  <smiles>  (33) 
COC(=O)CCCOc1ccc(-c2ccc(OC3OC(CO)C(O)C(O)C3O)cc2)cc1

>  <score_type>  (33) 
oracle

>  <origin>  (33) 
adg

>  <m_score__min__energy>  (33) 
-6.9199999999999999

>  <m_primary>  (33) 
energy

$$$$
33:0
     RDKit          3D

 34 35  0  0  0  0  0  0  0  0999 V2000
   56.6630   30.3800   42.9650 C   0  0  0  0  0  0  0  0  0  0  0  0
   55.6240   30.0310   44.0260 C   0  0  0  0  0  0  0  0  0  0  0  0
   56.2510   29.3150   45.1460 N   0  0  0  0  0  0  0  0  0  0  0  0
   57.7030   29.5330   45.1770 C   0  0  0  0  0  0  0  0  0  0  0  0
   58.1430   29.9020   46.5970 C   0  0  0  0  0  0  0  0  0  0  0  0
   59.1510   31.0310   46.5740 C   0  0  0  0  0  0  0  0  0  0  0  0
   60.4100   30.8090   47.1550 C   0  0  0  0  0  0  0  0  0  0  0  0
   61.3700   31.8250   47.1680 C   0  0  0  0  0  0  0  0  0  0  0  0
   62.7120   31.5900   47.7860 C   0  0  0  0  0  0  0  0  0  0  0  0
   61.0780   33.0380   46.6320 N   0  0  0  0  0  0  0  0  0  0  0  0
   59.8700   33.3090   46.0730 C   0  0  0  0  0  0  0  0  0  0  0  0
   59.6280   34.5820   45.5440 C   0  0  0  0  0  0  0  0  0  0  0  0
   58.3890   34.8820   44.9780 C   0  0  0  0  0  0  0  0  0  0  0  0
   57.3840   33.9150   44.9380 C   0  0  0  0  0  0  0  0  0  0  0  0
   57.6130   32.6380   45.4600 C   0  0  0  0  0  0  0  0  0  0  0  0
   58.8620   32.3120   46.0330 C   0  0  0  0  0  0  0  0  0  0  0  0
   57.5965   30.6936   43.4551 H   0  0  0  0  0  0  0  0  0  0  0  0
   56.8568   29.4976   42.3374 H   0  0  0  0  0  0  0  0  0  0  0  0
   56.2849   31.2004   42.3374 H   0  0  0  0  0  0  0  0  0  0  0  0
   55.1643   30.9574   44.4008 H   0  0  0  0  0  0  0  0  0  0  0  0
   54.8585   29.3831   43.5741 H   0  0  0  0  0  0  0  0  0  0  0  0
   55.8550   29.7060   46.0340 H   0  0  0  0  0  0  0  0  0  0  0  0
   58.2171   28.6126   44.8632 H   0  0  0  0  0  0  0  0  0  0  0  0
   57.9613   30.3542   44.4922 H   0  0  0  0  0  0  0  0  0  0  0  0
   57.2626   30.2170   47.1764 H   0  0  0  0  0  0  0  0  0  0  0  0
   58.6124   29.0212   47.0595 H   0  0  0  0  0  0  0  0  0  0  0  0
   60.6419   29.8310   47.6020 H   0  0  0  0  0  0  0  0  0  0  0  0
   62.6189   31.6063   48.8819 H   0  0  0  0  0  0  0  0  0  0  0  0
   63.0970   30.6108   47.4652 H   0  0  0  0  0  0  0  0  0  0  0  0
   63.4068   32.3801   47.4652 H   0  0  0  0  0  0  0  0  0  0  0  0
   60.4170   35.3479   45.5747 H   0  0  0  0  0  0  0  0  0  0  0  0
   58.2038   35.8834   44.5622 H   0  0  0  0  0  0  0  0  0  0  0  0
   56.4074   34.1581   44.4940 H   0  0  0  0  0  0  0  0  0  0  0  0
   56.8147   31.8821   45.4241 H   0  0  0  0  0  0  0  0  0  0  0  0
  1  2  1  0
  2  3  1  0
  3  4  1  0
  4  5  1  0
  5  6  1  0
  6  7  2  0
  7  8  1  0
  8  9  1  0
  8 10  2  0
 10 11  1  0
 11 12  2  0
 12 13  1  0
 13 14  2  0
 14 15  1  0
 15 16  2  0
 16  6  1  0
 16 11  1  0
  1 17  1  0
  1 18  1  0
  1 19  1  0
  2 20  1  0
  2 21  1  0
  3 22  1  0
  4 23  1  0
  4 24  1  0
  5 25  1  0
  5 26  1  0
  7 27  1  0
  9 28  1  0
  9 29  1  0
  9 30  1  0
 12 31  1  0
 13 32  1  0
 14 33  1  0
 15 34  1  0
M  END
>  <UniqueID>  (34) 
33

>  <SMILES>  (34) 
CCNCCc1cc(C)nc2ccccc12

>  <Energy>  (34) 
32.499003098502364

>  <Genealogy>  (34) 
CCNCCc1cc(C)nc2ccccc12 (3D coordinates assigned)
CCNCCc1cc(C)nc2ccccc12 (optimized conformer: 32.499003098502364 kcal/mol)

>  <smiles>  (34) 
CCNCCc1cc(C)nc2ccccc12

>  <score_type>  (34) 
oracle

>  <origin>  (34) 
adg

>  <m_score__min__energy>  (34) 
-6.71

>  <m_primary>  (34) 
energy

$$$$
34:0
     RDKit          3D

 58 61  0  0  0  0  0  0  0  0999 V2000
   55.5460   30.2070   52.4420 C   0  0  0  0  0  0  0  0  0  0  0  0
   56.6700   30.4580   51.6150 O   0  0  0  0  0  0  0  0  0  0  0  0
   57.2190   31.7270   51.9390 C   0  0  0  0  0  0  0  0  0  0  0  0
   57.9180   31.6430   53.1830 O   0  0  0  0  0  0  0  0  0  0  0  0
   59.0530   32.4010   53.5220 C   0  0  0  0  0  0  0  0  0  0  0  0
   58.9570   33.6120   54.2400 C   0  0  0  0  0  0  0  0  0  0  0  0
   60.1190   34.3210   54.5790 C   0  0  0  0  0  0  0  0  0  0  0  0
   61.3850   33.8350   54.2050 C   0  0  0  0  0  0  0  0  0  0  0  0
   61.4880   32.6400   53.4890 C   0  0  0  0  0  0  0  0  0  0  0  0
   60.3280   31.9260   53.1380 C   0  0  0  0  0  0  0  0  0  0  0  0
   60.4610   30.7020   52.4070 N   0  0  0  0  0  0  0  0  0  0  0  0
   60.2900   30.6640   50.9800 C   0  0  0  0  0  0  0  0  0  0  0  0
   59.5350   29.6570   50.3600 C   0  0  0  0  0  0  0  0  0  0  0  0
   59.3450   29.6670   48.9750 C   0  0  0  0  0  0  0  0  0  0  0  0
   59.8760   30.7030   48.1950 C   0  0  0  0  0  0  0  0  0  0  0  0
   60.6530   31.7010   48.7970 C   0  0  0  0  0  0  0  0  0  0  0  0
   60.8570   31.6750   50.1900 C   0  0  0  0  0  0  0  0  0  0  0  0
   61.1880   32.8330   47.9600 C   0  0  0  0  0  0  0  0  0  0  0  0
   60.0330   33.7410   47.5180 C   0  0  0  0  0  0  0  0  0  0  0  0
   59.1750   33.2210   46.3680 C   0  0  0  0  0  0  0  0  0  0  0  0
   58.5290   34.2160   45.6050 C   0  0  0  0  0  0  0  0  0  0  0  0
   57.6720   33.8860   44.5620 C   0  0  0  0  0  0  0  0  0  0  0  0
   57.3950   32.5540   44.2840 C   0  0  0  0  0  0  0  0  0  0  0  0
   57.9710   31.5260   45.0480 C   0  0  0  0  0  0  0  0  0  0  0  0
   57.5030   30.1400   44.8020 C   0  0  0  0  0  0  0  0  0  0  0  0
   56.3640   29.7890   45.2140 O   0  0  0  0  0  0  0  0  0  0  0  0
   58.3520   29.1900   44.1350 N   0  0  0  0  0  0  0  0  0  0  0  0
   57.8910   27.8730   43.6890 C   0  0  0  0  0  0  0  0  0  0  0  0
   57.7170   26.9390   44.8790 C   0  0  0  0  0  0  0  0  0  0  0  0
   56.5520   27.2340   45.5570 F   0  0  0  0  0  0  0  0  0  0  0  0
   58.9130   31.8410   46.0740 C   0  0  0  0  0  0  0  0  0  0  0  0
   59.6400   30.7220   46.7460 C   0  0  0  0  0  0  0  0  0  0  0  0
   60.0410   29.7370   46.0640 O   0  0  0  0  0  0  0  0  0  0  0  0
   55.8457   30.2739   53.4983 H   0  0  0  0  0  0  0  0  0  0  0  0
   54.7644   30.9527   52.2347 H   0  0  0  0  0  0  0  0  0  0  0  0
   55.1559   29.1996   52.2347 H   0  0  0  0  0  0  0  0  0  0  0  0
   57.9167   32.0371   51.1471 H   0  0  0  0  0  0  0  0  0  0  0  0
   56.4079   32.4651   52.0246 H   0  0  0  0  0  0  0  0  0  0  0  0
   57.9706   34.0002   54.5340 H   0  0  0  0  0  0  0  0  0  0  0  0
   60.0397   35.2633   55.1410 H   0  0  0  0  0  0  0  0  0  0  0  0
   62.2922   34.3950   54.4759 H   0  0  0  0  0  0  0  0  0  0  0  0
   62.4776   32.2568   53.1993 H   0  0  0  0  0  0  0  0  0  0  0  0
   61.0530   29.9620   52.8500 H   0  0  0  0  0  0  0  0  0  0  0  0
   59.0900   28.8550   50.9672 H   0  0  0  0  0  0  0  0  0  0  0  0
   58.7757   28.8574   48.4950 H   0  0  0  0  0  0  0  0  0  0  0  0
   61.4683   32.4568   50.6644 H   0  0  0  0  0  0  0  0  0  0  0  0
   61.9066   33.4180   48.5528 H   0  0  0  0  0  0  0  0  0  0  0  0
   61.6893   32.4229   47.0709 H   0  0  0  0  0  0  0  0  0  0  0  0
   59.3749   33.8949   48.3859 H   0  0  0  0  0  0  0  0  0  0  0  0
   60.5059   34.6605   47.1427 H   0  0  0  0  0  0  0  0  0  0  0  0
   58.7073   35.2756   45.8405 H   0  0  0  0  0  0  0  0  0  0  0  0
   57.2126   34.6808   43.9560 H   0  0  0  0  0  0  0  0  0  0  0  0
   56.7166   32.3011   43.4558 H   0  0  0  0  0  0  0  0  0  0  0  0
   59.3720   29.4060   44.0410 H   0  0  0  0  0  0  0  0  0  0  0  0
   56.9269   27.9830   43.1709 H   0  0  0  0  0  0  0  0  0  0  0  0
   58.6407   27.4453   43.0070 H   0  0  0  0  0  0  0  0  0  0  0  0
   57.6744   25.8999   44.5207 H   0  0  0  0  0  0  0  0  0  0  0  0
   58.5695   27.0693   45.5619 H   0  0  0  0  0  0  0  0  0  0  0  0
  1  2  1  0
  2  3  1  0
  3  4  1  0
  4  5  1  0
  5  6  2  0
  6  7  1  0
  7  8  2  0
  8  9  1  0
  9 10  2  0
 10 11  1  0
 11 12  1  0
 12 13  2  0
 13 14  1  0
 14 15  2  0
 15 16  1  0
 16 17  2  0
 16 18  1  0
 18 19  1  0
 19 20  1  0
 20 21  2  0
 21 22  1  0
 22 23  2  0
 23 24  1  0
 24 25  1  0
 25 26  2  0
 25 27  1  0
 27 28  1  0
 28 29  1  0
 29 30  1  0
 24 31  2  0
 31 32  1  0
 32 33  2  0
 10  5  1  0
 17 12  1  0
 31 20  1  0
 32 15  1  0
  1 34  1  0
  1 35  1  0
  1 36  1  0
  3 37  1  0
  3 38  1  0
  6 39  1  0
  7 40  1  0
  8 41  1  0
  9 42  1  0
 11 43  1  0
 13 44  1  0
 14 45  1  0
 17 46  1  0
 18 47  1  0
 18 48  1  0
 19 49  1  0
 19 50  1  0
 21 51  1  0
 22 52  1  0
 23 53  1  0
 27 54  1  0
 28 55  1  0
 28 56  1  0
 29 57  1  0
 29 58  1  0
M  END
>  <UniqueID>  (35) 
34

>  <SMILES>  (35) 
COCOc1ccccc1Nc1ccc2c(c1)CCc1cccc(C(=O)NCCF)c1C2=O

>  <Energy>  (35) 
93.60316202478452

>  <Genealogy>  (35) 
COCOc1ccccc1Nc1ccc2c(c1)CCc1cccc(C(=O)NCCF)c1C2=O (3D coordinates assigned)
COCOc1ccccc1Nc1ccc2c(c1)CCc1cccc(C(=O)NCCF)c1C2=O (nonaromatic ring conformer: 93.60316202478452 kcal/mol)

>  <smiles>  (35) 
COCOc1ccccc1Nc1ccc2c(c1)CCc1cccc(C(=O)NCCF)c1C2=O

>  <score_type>  (35) 
oracle

>  <origin>  (35) 
adg

>  <m_score__min__energy>  (35) 
-6.8700000000000001

>  <m_primary>  (35) 
energy

$$$$
35:0
     RDKit          3D

 49 51  0  0  0  0  0  0  0  0999 V2000
   57.8910   27.1170   44.5740 C   0  0  0  0  0  0  0  0  0  0  0  0
   56.8950   27.5540   45.6420 C   0  0  0  0  0  0  0  0  0  0  0  0
   56.0810   28.6260   45.1680 O   0  0  0  0  0  0  0  0  0  0  0  0
   56.5220   29.7030   44.3790 C   0  0  0  0  0  0  0  0  0  0  0  0
   56.3360   29.7520   42.9850 C   0  0  0  0  0  0  0  0  0  0  0  0
   56.7980   30.8490   42.2530 C   0  0  0  0  0  0  0  0  0  0  0  0
   57.4490   31.9020   42.8990 C   0  0  0  0  0  0  0  0  0  0  0  0
   57.6460   31.8680   44.2870 C   0  0  0  0  0  0  0  0  0  0  0  0
   58.3370   32.9830   44.9660 C   0  0  0  0  0  0  0  0  0  0  0  0
   58.6870   32.9660   46.2720 N   0  0  0  0  0  0  0  0  0  0  0  0
   59.2830   34.1610   46.4430 C   0  0  0  0  0  0  0  0  0  0  0  0
   59.7970   34.6620   47.7540 C   0  0  0  0  0  0  0  0  0  0  0  0
   59.6300   33.6180   48.7730 N   0  0  0  0  0  0  0  0  0  0  0  0
   60.9160   33.0730   49.2360 C   0  0  0  0  0  0  0  0  0  0  0  0
   61.2020   31.6740   48.6550 C   0  0  0  0  0  0  0  0  0  0  0  0
   60.0740   31.1110   47.8830 N   0  0  0  0  0  0  0  0  0  0  0  0
   59.0210   30.4310   48.6670 C   0  0  0  0  0  0  0  0  0  0  0  0
   59.1050   28.9010   48.5670 C   0  0  0  0  0  0  0  0  0  0  0  0
   59.1900   28.4870   47.2220 O   0  0  0  0  0  0  0  0  0  0  0  0
   60.4060   28.9440   46.6740 C   0  0  0  0  0  0  0  0  0  0  0  0
   60.4220   30.4770   46.5940 C   0  0  0  0  0  0  0  0  0  0  0  0
   59.2580   34.8640   45.2600 C   0  0  0  0  0  0  0  0  0  0  0  0
   58.6740   34.1050   44.3680 O   0  0  0  0  0  0  0  0  0  0  0  0
   57.1790   30.7610   45.0200 C   0  0  0  0  0  0  0  0  0  0  0  0
   58.7960   26.7199   45.0571 H   0  0  0  0  0  0  0  0  0  0  0  0
   57.4370   26.3354   43.9471 H   0  0  0  0  0  0  0  0  0  0  0  0
   58.1587   27.9803   43.9471 H   0  0  0  0  0  0  0  0  0  0  0  0
   56.2514   26.7017   45.9052 H   0  0  0  0  0  0  0  0  0  0  0  0
   57.4535   27.8992   46.5246 H   0  0  0  0  0  0  0  0  0  0  0  0
   55.8256   28.9246   42.4702 H   0  0  0  0  0  0  0  0  0  0  0  0
   56.6483   30.8832   41.1638 H   0  0  0  0  0  0  0  0  0  0  0  0
   57.8091   32.7626   42.3161 H   0  0  0  0  0  0  0  0  0  0  0  0
   60.8634   34.9144   47.6581 H   0  0  0  0  0  0  0  0  0  0  0  0
   59.2346   35.5595   48.0511 H   0  0  0  0  0  0  0  0  0  0  0  0
   59.0430   32.8440   48.3800 H   0  0  0  0  0  0  0  0  0  0  0  0
   61.7213   33.7557   48.9270 H   0  0  0  0  0  0  0  0  0  0  0  0
   60.8669   32.9790   50.3309 H   0  0  0  0  0  0  0  0  0  0  0  0
   62.0762   31.7454   47.9912 H   0  0  0  0  0  0  0  0  0  0  0  0
   61.3770   31.0008   49.5072 H   0  0  0  0  0  0  0  0  0  0  0  0
   59.1252   30.7212   49.7229 H   0  0  0  0  0  0  0  0  0  0  0  0
   58.0484   30.7387   48.2555 H   0  0  0  0  0  0  0  0  0  0  0  0
   59.9978   28.5536   49.1075 H   0  0  0  0  0  0  0  0  0  0  0  0
   58.1948   28.4701   49.0097 H   0  0  0  0  0  0  0  0  0  0  0  0
   61.2380   28.6067   47.3096 H   0  0  0  0  0  0  0  0  0  0  0  0
   60.5123   28.5354   45.6583 H   0  0  0  0  0  0  0  0  0  0  0  0
   61.4298   30.8051   46.2994 H   0  0  0  0  0  0  0  0  0  0  0  0
   59.6670   30.7827   45.8547 H   0  0  0  0  0  0  0  0  0  0  0  0
   59.6553   35.8764   45.0948 H   0  0  0  0  0  0  0  0  0  0  0  0
   57.3317   30.7263   46.1088 H   0  0  0  0  0  0  0  0  0  0  0  0
  1  2  1  0
  2  3  1  0
  3  4  1  0
  4  5  2  0
  5  6  1  0
  6  7  2  0
  7  8  1  0
  8  9  1  0
  9 10  2  0
 10 11  1  0
 11 12  1  0
 12 13  1  0
 13 14  1  0
 14 15  1  0
 15 16  1  0
 16 17  1  0
 17 18  1  0
 18 19  1  0
 19 20  1  0
 20 21  1  0
 11 22  2  0
 22 23  1  0
  8 24  2  0
 24  4  1  0
 23  9  1  0
 21 16  1  0
  1 25  1  0
  1 26  1  0
  1 27  1  0
  2 28  1  0
  2 29  1  0
  5 30  1  0
  6 31  1  0
  7 32  1  0
 12 33  1  0
 12 34  1  0
 13 35  1  0
 14 36  1  0
 14 37  1  0
 15 38  1  0
 15 39  1  0
 17 40  1  0
 17 41  1  0
 18 42  1  0
 18 43  1  0
 20 44  1  0
 20 45  1  0
 21 46  1  0
 21 47  1  0
 22 48  1  0
 24 49  1  0
M  END
>  <UniqueID>  (36) 
35

>  <SMILES>  (36) 
CCOc1cccc(-c2nc(CNCCN3CCOCC3)co2)c1

>  <Energy>  (36) 
86.44657821472359

>  <Genealogy>  (36) 
CCOc1cccc(-c2nc(CNCCN3CCOCC3)co2)c1 (3D coordinates assigned)
CCOc1cccc(-c2nc(CNCCN3CCOCC3)co2)c1 (nonaromatic ring conformer: 86.44657821472359 kcal/mol)

>  <smiles>  (36) 
CCOc1cccc(-c2nc(CNCCN3CCOCC3)co2)c1

>  <score_type>  (36) 
oracle

>  <origin>  (36) 
adg

>  <m_score__min__energy>  (36) 
-6.0700000000000003

>  <m_primary>  (36) 
energy

$$$$
36:0
     RDKit          3D

 76 79  0  0  0  0  0  0  0  0999 V2000
   65.3200   32.6680   49.7420 C   0  0  0  0  0  0  0  0  0  0  0  0
   64.0820   31.9570   49.1800 C   0  0  0  0  0  0  0  0  0  0  0  0
   63.6970   32.4430   47.8270 N   0  0  0  0  0  0  0  0  0  0  0  0
   63.2350   33.8640   47.8200 C   0  0  0  0  0  0  0  0  0  0  0  0
   62.2920   34.2570   48.9720 C   0  0  0  0  0  0  0  0  0  0  0  0
   62.6940   31.5280   47.2240 C   0  0  0  0  0  0  0  0  0  0  0  0
   61.8010   30.8250   48.2830 C   0  0  0  0  0  0  0  0  0  0  0  0
   60.3990   31.2500   48.1820 N   0  0  0  0  0  0  0  0  0  0  0  0
   59.6620   31.1450   46.9510 C   0  0  0  0  0  0  0  0  0  0  0  0
   59.3370   32.2970   46.2160 C   0  0  0  0  0  0  0  0  0  0  0  0
   59.9340   33.5380   46.5230 C   0  0  0  0  0  0  0  0  0  0  0  0
   59.5500   34.6950   45.8490 C   0  0  0  0  0  0  0  0  0  0  0  0
   58.5630   34.6370   44.8710 C   0  0  0  0  0  0  0  0  0  0  0  0
   57.9870   33.4140   44.5280 C   0  0  0  0  0  0  0  0  0  0  0  0
   58.3970   32.2100   45.1540 C   0  0  0  0  0  0  0  0  0  0  0  0
   57.8800   30.9820   44.7820 N   0  0  0  0  0  0  0  0  0  0  0  0
   57.0990   30.8570   43.5320 C   0  0  0  0  0  0  0  0  0  0  0  0
   58.1130   29.8680   45.5650 C   0  0  0  0  0  0  0  0  0  0  0  0
   57.3500   28.6810   45.4240 C   0  0  0  0  0  0  0  0  0  0  0  0
   57.5770   27.5680   46.2500 C   0  0  0  0  0  0  0  0  0  0  0  0
   56.7550   26.4300   46.2420 O   0  0  0  0  0  0  0  0  0  0  0  0
   56.9840   25.2280   46.9760 C   0  0  0  0  0  0  0  0  0  0  0  0
   57.9480   24.2380   46.2670 C   0  0  0  0  0  0  0  0  0  0  0  0
   57.3460   23.1750   45.3890 N   0  0  0  0  0  0  0  0  0  0  0  0
   56.5990   22.1910   46.2230 C   0  0  0  0  0  0  0  0  0  0  0  0
   56.3680   23.8580   44.4590 C   0  0  0  0  0  0  0  0  0  0  0  0
   56.4290   23.3960   42.9900 C   0  0  0  0  0  0  0  0  0  0  0  0
   56.6150   21.8870   42.8900 C   0  0  0  0  0  0  0  0  0  0  0  0
   57.8780   21.4240   43.6280 C   0  0  0  0  0  0  0  0  0  0  0  0
   58.4200   22.4680   44.6280 C   0  0  0  0  0  0  0  0  0  0  0  0
   58.6350   27.5910   47.1520 C   0  0  0  0  0  0  0  0  0  0  0  0
   59.3720   28.7520   47.3420 C   0  0  0  0  0  0  0  0  0  0  0  0
   59.0780   29.9160   46.6030 C   0  0  0  0  0  0  0  0  0  0  0  0
   65.2864   32.6487   50.8413 H   0  0  0  0  0  0  0  0  0  0  0  0
   66.2279   32.1537   49.3938 H   0  0  0  0  0  0  0  0  0  0  0  0
   65.3333   33.7114   49.3938 H   0  0  0  0  0  0  0  0  0  0  0  0
   64.2944   30.8795   49.1182 H   0  0  0  0  0  0  0  0  0  0  0  0
   63.2429   32.1717   49.8581 H   0  0  0  0  0  0  0  0  0  0  0  0
   64.5610   32.3880   47.2300 H   0  0  0  0  0  0  0  0  0  0  0  0
   64.1236   34.5101   47.8733 H   0  0  0  0  0  0  0  0  0  0  0  0
   62.6526   33.9891   46.8952 H   0  0  0  0  0  0  0  0  0  0  0  0
   62.7837   34.0521   49.9344 H   0  0  0  0  0  0  0  0  0  0  0  0
   62.0548   35.3289   48.9023 H   0  0  0  0  0  0  0  0  0  0  0  0
   61.3638   33.6708   48.9023 H   0  0  0  0  0  0  0  0  0  0  0  0
   62.0475   32.1106   46.5512 H   0  0  0  0  0  0  0  0  0  0  0  0
   63.2457   30.7435   46.6852 H   0  0  0  0  0  0  0  0  0  0  0  0
   61.8554   29.7372   48.1292 H   0  0  0  0  0  0  0  0  0  0  0  0
   62.1714   31.1019   49.2811 H   0  0  0  0  0  0  0  0  0  0  0  0
   59.9410   31.6880   49.0080 H   0  0  0  0  0  0  0  0  0  0  0  0
   60.7094   33.5923   47.3013 H   0  0  0  0  0  0  0  0  0  0  0  0
   60.0281   35.6558   46.0906 H   0  0  0  0  0  0  0  0  0  0  0  0
   58.2357   35.5581   44.3666 H   0  0  0  0  0  0  0  0  0  0  0  0
   57.2013   33.3831   43.7588 H   0  0  0  0  0  0  0  0  0  0  0  0
   56.0400   30.6875   43.7767 H   0  0  0  0  0  0  0  0  0  0  0  0
   57.1961   31.7821   42.9449 H   0  0  0  0  0  0  0  0  0  0  0  0
   57.4800   30.0084   42.9449 H   0  0  0  0  0  0  0  0  0  0  0  0
   56.5662   28.6311   44.6538 H   0  0  0  0  0  0  0  0  0  0  0  0
   57.4156   25.4940   47.9522 H   0  0  0  0  0  0  0  0  0  0  0  0
   56.0133   24.7193   47.0710 H   0  0  0  0  0  0  0  0  0  0  0  0
   58.6271   24.8346   45.6401 H   0  0  0  0  0  0  0  0  0  0  0  0
   58.4232   23.6808   47.0878 H   0  0  0  0  0  0  0  0  0  0  0  0
   56.7661   22.4111   47.2877 H   0  0  0  0  0  0  0  0  0  0  0  0
   55.5245   22.2609   45.9984 H   0  0  0  0  0  0  0  0  0  0  0  0
   56.9552   21.1748   45.9984 H   0  0  0  0  0  0  0  0  0  0  0  0
   55.3516   23.6673   44.8340 H   0  0  0  0  0  0  0  0  0  0  0  0
   56.6420   24.9233   44.4561 H   0  0  0  0  0  0  0  0  0  0  0  0
   55.4911   23.6752   42.4876 H   0  0  0  0  0  0  0  0  0  0  0  0
   57.2894   23.8839   42.5087 H   0  0  0  0  0  0  0  0  0  0  0  0
   55.7398   21.3892   43.3331 H   0  0  0  0  0  0  0  0  0  0  0  0
   56.7208   21.6228   41.8274 H   0  0  0  0  0  0  0  0  0  0  0  0
   57.6415   20.5023   44.1798 H   0  0  0  0  0  0  0  0  0  0  0  0
   58.6582   21.2650   42.8691 H   0  0  0  0  0  0  0  0  0  0  0  0
   59.0761   21.9547   45.3464 H   0  0  0  0  0  0  0  0  0  0  0  0
   58.9578   23.2288   44.0432 H   0  0  0  0  0  0  0  0  0  0  0  0
   58.8897   26.6833   47.7187 H   0  0  0  0  0  0  0  0  0  0  0  0
   60.1920   28.7638   48.0751 H   0  0  0  0  0  0  0  0  0  0  0  0
  1  2  1  0
  2  3  1  0
  3  4  1  0
  4  5  1  0
  3  6  1  0
  6  7  1  0
  7  8  1  0
  8  9  1  0
  9 10  2  0
 10 11  1  0
 11 12  2  0
 12 13  1  0
 13 14  2  0
 14 15  1  0
 15 16  2  0
 16 17  1  0
 16 18  1  0
 18 19  2  0
 19 20  1  0
 20 21  1  0
 21 22  1  0
 22 23  1  0
 23 24  1  0
 24 25  1  0
 24 26  1  0
 26 27  1  0
 27 28  1  0
 28 29  1  0
 29 30  1  0
 20 31  2  0
 31 32  1  0
 32 33  2  0
 33  9  1  0
 15 10  1  0
 33 18  1  0
 30 24  1  0
  1 34  1  0
  1 35  1  0
  1 36  1  0
  2 37  1  0
  2 38  1  0
  3 39  1  0
  4 40  1  0
  4 41  1  0
  5 42  1  0
  5 43  1  0
  5 44  1  0
  6 45  1  0
  6 46  1  0
  7 47  1  0
  7 48  1  0
  8 49  1  0
 11 50  1  0
 12 51  1  0
 13 52  1  0
 14 53  1  0
 17 54  1  0
 17 55  1  0
 17 56  1  0
 19 57  1  0
 22 58  1  0
 22 59  1  0
 23 60  1  0
 23 61  1  0
 25 62  1  0
 25 63  1  0
 25 64  1  0
 26 65  1  0
 26 66  1  0
 27 67  1  0
 27 68  1  0
 28 69  1  0
 28 70  1  0
 29 71  1  0
 29 72  1  0
 30 73  1  0
 30 74  1  0
 31 75  1  0
 32 76  1  0
M  CHG  3   3   1  16   1  24   1
M  END
>  <UniqueID>  (37) 
36

>  <SMILES>  (37) 
CC[NH+](CC)CCNc1c2ccccc2[n+](C)c2cc(OCC[N+]3(C)CCCCC3)ccc12

>  <Energy>  (37) 
128.18957219145716

>  <Genealogy>  (37) 
CC[NH+](CC)CCNc1c2ccccc2[n+](C)c2cc(OCC[N+]3(C)CCCCC3)ccc12 (protonated)
CC[NH+](CC)CCNc1c2ccccc2[n+](C)c2cc(OCC[N+]3(C)CCCCC3)ccc12 (3D coordinates assigned)
CC[NH+](CC)CCNc1c2ccccc2[n+](C)c2cc(OCC[N+]3(C)CCCCC3)ccc12 (nonaromatic ring conformer: 128.18957219145716 kcal/mol)

>  <smiles>  (37) 
CCN(CC)CCNc1c2ccccc2[n+](C)c2cc(OCC[N+]3(C)CCCCC3)ccc12

>  <score_type>  (37) 
oracle

>  <origin>  (37) 
adg

>  <m_score__min__energy>  (37) 
-4.6100000000000003

>  <m_primary>  (37) 
energy

$$$$
37:0
     RDKit          3D

 41 43  0  0  0  0  0  0  0  0999 V2000
   59.6960   33.8260   50.0910 C   0  0  0  0  0  0  0  0  0  0  0  0
   61.0410   33.6710   49.4600 C   0  0  0  0  0  0  0  0  0  0  0  0
   62.1890   33.6370   50.1660 N   0  0  0  0  0  0  0  0  0  0  0  0
   63.1830   33.4680   49.3090 N   0  0  0  0  0  0  0  0  0  0  0  0
   64.5840   33.4150   49.7110 C   0  0  0  0  0  0  0  0  0  0  0  0
   62.6990   33.4120   48.0490 C   0  0  0  0  0  0  0  0  0  0  0  0
   63.5450   33.2740   46.8160 C   0  0  0  0  0  0  0  0  0  0  0  0
   61.3140   33.5130   48.1080 C   0  0  0  0  0  0  0  0  0  0  0  0
   60.3410   33.4960   46.9940 C   0  0  0  0  0  0  0  0  0  0  0  0
   59.7680   34.6740   46.5100 C   0  0  0  0  0  0  0  0  0  0  0  0
   58.8330   34.6040   45.4840 C   0  0  0  0  0  0  0  0  0  0  0  0
   58.4940   33.3610   44.9490 C   0  0  0  0  0  0  0  0  0  0  0  0
   57.6250   33.2980   44.0370 O   0  0  0  0  0  0  0  0  0  0  0  0
   59.1080   32.2290   45.4210 N   0  0  0  0  0  0  0  0  0  0  0  0
   58.7660   30.8940   44.9020 C   0  0  0  0  0  0  0  0  0  0  0  0
   57.2450   30.6180   44.8350 C   0  0  1  0  0  0  0  0  0  0  0  0
   56.6470   30.5530   43.4580 C   0  0  0  0  0  0  0  0  0  0  0  0
   55.3980   29.7190   43.6910 C   0  0  0  0  0  0  0  0  0  0  0  0
   55.5490   28.9630   44.8760 O   0  0  0  0  0  0  0  0  0  0  0  0
   56.7980   29.2990   45.4360 C   0  0  0  0  0  0  0  0  0  0  0  0
   59.9930   32.3120   46.4200 N   0  0  0  0  0  0  0  0  0  0  0  0
   59.8011   33.8139   51.1859 H   0  0  0  0  0  0  0  0  0  0  0  0
   59.2510   34.7814   49.7759 H   0  0  0  0  0  0  0  0  0  0  0  0
   59.0454   32.9969   49.7759 H   0  0  0  0  0  0  0  0  0  0  0  0
   64.6506   33.4125   50.8090 H   0  0  0  0  0  0  0  0  0  0  0  0
   65.0451   32.4988   49.3136 H   0  0  0  0  0  0  0  0  0  0  0  0
   65.1130   34.2938   49.3136 H   0  0  0  0  0  0  0  0  0  0  0  0
   64.5920   33.1032   47.1069 H   0  0  0  0  0  0  0  0  0  0  0  0
   63.1868   32.4224   46.2189 H   0  0  0  0  0  0  0  0  0  0  0  0
   63.4759   34.1953   46.2189 H   0  0  0  0  0  0  0  0  0  0  0  0
   60.0536   35.6470   46.9363 H   0  0  0  0  0  0  0  0  0  0  0  0
   58.3643   35.5209   45.0971 H   0  0  0  0  0  0  0  0  0  0  0  0
   59.1800   30.8005   43.8872 H   0  0  0  0  0  0  0  0  0  0  0  0
   59.1930   30.1604   45.6017 H   0  0  0  0  0  0  0  0  0  0  0  0
   56.8988   31.4937   45.4036 H   0  0  0  0  0  0  0  0  0  0  0  0
   56.3931   31.5564   43.0854 H   0  0  0  0  0  0  0  0  0  0  0  0
   57.3250   30.1319   42.7010 H   0  0  0  0  0  0  0  0  0  0  0  0
   54.5267   30.3833   43.7887 H   0  0  0  0  0  0  0  0  0  0  0  0
   55.2477   29.0390   42.8395 H   0  0  0  0  0  0  0  0  0  0  0  0
   56.7022   29.4000   46.5272 H   0  0  0  0  0  0  0  0  0  0  0  0
   57.5361   28.5125   45.2202 H   0  0  0  0  0  0  0  0  0  0  0  0
  1  2  1  0
  2  3  2  0
  3  4  1  0
  4  5  1  0
  4  6  1  0
  6  7  1  0
  6  8  2  0
  8  9  1  0
  9 10  1  0
 10 11  2  0
 11 12  1  0
 12 13  2  0
 12 14  1  0
 14 15  1  0
 15 16  1  0
 16 17  1  0
 17 18  1  0
 18 19  1  0
 19 20  1  0
 14 21  1  0
  8  2  1  0
 21  9  2  0
 20 16  1  0
  1 22  1  0
  1 23  1  0
  1 24  1  0
  5 25  1  0
  5 26  1  0
  5 27  1  0
  7 28  1  0
  7 29  1  0
  7 30  1  0
 10 31  1  0
 11 32  1  0
 15 33  1  0
 15 34  1  0
 16 35  1  1
 17 36  1  0
 17 37  1  0
 18 38  1  0
 18 39  1  0
 20 40  1  0
 20 41  1  0
M  END
>  <UniqueID>  (38) 
37

>  <SMILES>  (38) 
Cc1nn(C)c(C)c1-c1ccc(=O)n(C[C@H]2CCOC2)n1

>  <Energy>  (38) 
76.42772270455731

>  <Genealogy>  (38) 
Cc1nn(C)c(C)c1-c1ccc(=O)n(C[C@H]2CCOC2)n1 (chirality)
Cc1nn(C)c(C)c1-c1ccc(=O)n(C[C@H]2CCOC2)n1 (3D coordinates assigned)
Cc1nn(C)c(C)c1-c1ccc(=O)n(C[C@H]2CCOC2)n1 (nonaromatic ring conformer: 76.42772270455731 kcal/mol)

>  <smiles>  (38) 
Cc1nn(C)c(C)c1-c1ccc(=O)n(CC2CCOC2)n1

>  <score_type>  (38) 
oracle

>  <origin>  (38) 
adg

>  <m_score__min__energy>  (38) 
-7.6299999999999999

>  <m_primary>  (38) 
energy

$$$$
38:0
     RDKit          3D

 79 84  0  0  0  0  0  0  0  0999 V2000
   63.3250   33.9910   52.6050 C   0  0  0  0  0  0  0  0  0  0  0  0
   64.2280   32.8910   52.5260 O   0  0  0  0  0  0  0  0  0  0  0  0
   63.8430   31.5520   52.3560 C   0  0  0  0  0  0  0  0  0  0  0  0
   62.4930   31.1760   52.2150 C   0  0  0  0  0  0  0  0  0  0  0  0
   62.1410   29.8270   52.0420 C   0  0  0  0  0  0  0  0  0  0  0  0
   60.7990   29.4330   51.8840 C   0  0  0  0  0  0  0  0  0  0  0  0
   59.7790   30.3980   51.9270 O   0  0  0  0  0  0  0  0  0  0  0  0
   59.6280   31.4580   51.0210 C   0  0  0  0  0  0  0  0  0  0  0  0
   60.0930   32.7260   51.3890 C   0  0  0  0  0  0  0  0  0  0  0  0
   59.9810   33.8070   50.5120 C   0  0  0  0  0  0  0  0  0  0  0  0
   59.3930   33.6340   49.2460 C   0  0  0  0  0  0  0  0  0  0  0  0
   59.2900   34.7060   48.2980 N   0  0  0  0  0  0  0  0  0  0  0  0
   59.5170   34.6270   46.8860 C   0  0  0  0  0  0  0  0  0  0  0  0
   60.3820   35.3610   46.3370 O   0  0  0  0  0  0  0  0  0  0  0  0
   58.7190   33.7400   46.0890 N   0  0  0  0  0  0  0  0  0  0  0  0
   57.4150   34.0650   45.5270 C   0  0  0  0  0  0  0  0  0  0  0  0
   56.8990   32.7580   44.8750 C   0  0  0  0  0  0  0  0  0  0  0  0
   57.9680   31.7740   45.0420 N   0  0  0  0  0  0  0  0  0  0  0  0
   57.9490   30.4260   44.5280 C   0  0  0  0  0  0  0  0  0  0  0  0
   57.0440   30.0660   43.5120 C   0  0  0  0  0  0  0  0  0  0  0  0
   57.0250   28.7610   43.0090 C   0  0  0  0  0  0  0  0  0  0  0  0
   57.9100   27.8040   43.5070 C   0  0  0  0  0  0  0  0  0  0  0  0
   58.8250   28.1520   44.5040 C   0  0  0  0  0  0  0  0  0  0  0  0
   58.8490   29.4560   45.0100 C   0  0  0  0  0  0  0  0  0  0  0  0
   59.0050   32.3900   45.7860 C   0  0  0  0  0  0  0  0  0  0  0  0
   60.0330   31.7870   46.1920 O   0  0  0  0  0  0  0  0  0  0  0  0
   58.9660   32.3570   48.8610 C   0  0  0  0  0  0  0  0  0  0  0  0
   59.0780   31.2720   49.7390 C   0  0  0  0  0  0  0  0  0  0  0  0
   58.7030   30.0390   49.3140 F   0  0  0  0  0  0  0  0  0  0  0  0
   60.5010   28.0710   51.7290 C   0  0  0  0  0  0  0  0  0  0  0  0
   61.5320   27.1320   51.7090 C   0  0  0  0  0  0  0  0  0  0  0  0
   62.8250   27.5280   51.8490 N   0  0  0  0  0  0  0  0  0  0  0  0
   63.1550   28.8410   52.0180 C   0  0  0  0  0  0  0  0  0  0  0  0
   64.4970   29.2190   52.1650 C   0  0  0  0  0  0  0  0  0  0  0  0
   64.8470   30.5730   52.3240 C   0  0  0  0  0  0  0  0  0  0  0  0
   66.1830   30.9920   52.4570 O   0  0  0  0  0  0  0  0  0  0  0  0
   66.9450   31.6850   51.4660 C   0  0  0  0  0  0  0  0  0  0  0  0
   66.1920   31.7670   50.1300 C   0  0  0  0  0  0  0  0  0  0  0  0
   65.4820   33.1090   49.9060 C   0  0  0  0  0  0  0  0  0  0  0  0
   64.0470   32.8980   49.6000 N   0  0  0  0  0  0  0  0  0  0  0  0
   63.8080   31.6070   48.9170 C   0  0  0  0  0  0  0  0  0  0  0  0
   62.4430   31.6110   48.2080 C   0  0  0  0  0  0  0  0  0  0  0  0
   62.3210   32.6130   47.2040 O   0  0  0  0  0  0  0  0  0  0  0  0
   63.1740   33.7330   47.4070 C   0  0  0  0  0  0  0  0  0  0  0  0
   63.4230   34.0450   48.8920 C   0  0  0  0  0  0  0  0  0  0  0  0
   63.1292   34.2295   53.6608 H   0  0  0  0  0  0  0  0  0  0  0  0
   63.7687   34.8661   52.1076 H   0  0  0  0  0  0  0  0  0  0  0  0
   62.3803   33.7263   52.1076 H   0  0  0  0  0  0  0  0  0  0  0  0
   61.7073   31.9454   52.2406 H   0  0  0  0  0  0  0  0  0  0  0  0
   60.5510   32.8723   52.3784 H   0  0  0  0  0  0  0  0  0  0  0  0
   60.3539   34.7973   50.8123 H   0  0  0  0  0  0  0  0  0  0  0  0
   56.7276   34.3949   46.3199 H   0  0  0  0  0  0  0  0  0  0  0  0
   57.4821   34.8835   44.7952 H   0  0  0  0  0  0  0  0  0  0  0  0
   55.9827   32.4158   45.3783 H   0  0  0  0  0  0  0  0  0  0  0  0
   56.6520   32.9078   43.8136 H   0  0  0  0  0  0  0  0  0  0  0  0
   56.3467   30.8162   43.1107 H   0  0  0  0  0  0  0  0  0  0  0  0
   56.3103   28.4883   42.2185 H   0  0  0  0  0  0  0  0  0  0  0  0
   57.8873   26.7765   43.1150 H   0  0  0  0  0  0  0  0  0  0  0  0
   59.5275   27.3995   44.8916 H   0  0  0  0  0  0  0  0  0  0  0  0
   59.5762   29.7257   45.7901 H   0  0  0  0  0  0  0  0  0  0  0  0
   58.5384   32.2048   47.8590 H   0  0  0  0  0  0  0  0  0  0  0  0
   59.4560   27.7442   51.6234 H   0  0  0  0  0  0  0  0  0  0  0  0
   61.2977   26.0651   51.5792 H   0  0  0  0  0  0  0  0  0  0  0  0
   63.5720   26.7950   51.8300 H   0  0  0  0  0  0  0  0  0  0  0  0
   65.2837   28.4503   52.1560 H   0  0  0  0  0  0  0  0  0  0  0  0
   67.1514   32.7049   51.8228 H   0  0  0  0  0  0  0  0  0  0  0  0
   67.8804   31.1303   51.3006 H   0  0  0  0  0  0  0  0  0  0  0  0
   66.9139   31.6151   49.3141 H   0  0  0  0  0  0  0  0  0  0  0  0
   65.4138   30.9899   50.1503 H   0  0  0  0  0  0  0  0  0  0  0  0
   65.5710   33.7209   50.8158 H   0  0  0  0  0  0  0  0  0  0  0  0
   65.9537   33.6208   49.0542 H   0  0  0  0  0  0  0  0  0  0  0  0
   64.6008   31.4400   48.1729 H   0  0  0  0  0  0  0  0  0  0  0  0
   63.8138   30.8034   49.6681 H   0  0  0  0  0  0  0  0  0  0  0  0
   62.2936   30.6281   47.7373 H   0  0  0  0  0  0  0  0  0  0  0  0
   61.6844   31.8301   48.9738 H   0  0  0  0  0  0  0  0  0  0  0  0
   64.1417   33.5269   46.9263 H   0  0  0  0  0  0  0  0  0  0  0  0
   62.6726   34.6087   46.9691 H   0  0  0  0  0  0  0  0  0  0  0  0
   64.0918   34.9152   48.9656 H   0  0  0  0  0  0  0  0  0  0  0  0
   62.4517   34.2513   49.3654 H   0  0  0  0  0  0  0  0  0  0  0  0
  1  2  1  0
  2  3  1  0
  3  4  2  0
  4  5  1  0
  5  6  2  0
  6  7  1  0
  7  8  1  0
  8  9  2  0
  9 10  1  0
 10 11  2  0
 11 12  1  0
 12 13  1  0
 13 14  2  0
 13 15  1  0
 15 16  1  0
 16 17  1  0
 17 18  1  0
 18 19  1  0
 19 20  2  0
 20 21  1  0
 21 22  2  0
 22 23  1  0
 23 24  2  0
 18 25  1  0
 25 26  2  0
 11 27  1  0
 27 28  2  0
 28 29  1  0
  6 30  1  0
 30 31  2  0
 31 32  1  0
 32 33  2  0
 33 34  1  0
 34 35  2  0
 35 36  1  0
 36 37  1  0
 37 38  1  0
 38 39  1  0
 39 40  1  0
 40 41  1  0
 41 42  1  0
 42 43  1  0
 43 44  1  0
 44 45  1  0
 35  3  1  0
 45 40  1  0
 33  5  1  0
 28  8  1  0
 25 15  1  0
 24 19  1  0
  1 46  1  0
  1 47  1  0
  1 48  1  0
  4 49  1  0
  9 50  1  0
 10 51  1  0
 16 52  1  0
 16 53  1  0
 17 54  1  0
 17 55  1  0
 20 56  1  0
 21 57  1  0
 22 58  1  0
 23 59  1  0
 24 60  1  0
 27 61  1  0
 30 62  1  0
 31 63  1  0
 32 64  1  0
 34 65  1  0
 37 66  1  0
 37 67  1  0
 38 68  1  0
 38 69  1  0
 39 70  1  0
 39 71  1  0
 41 72  1  0
 41 73  1  0
 42 74  1  0
 42 75  1  0
 44 76  1  0
 44 77  1  0
 45 78  1  0
 45 79  1  0
M  CHG  2  12  -1  32   1
M  END
>  <UniqueID>  (39) 
38

>  <SMILES>  (39) 
COc1cc2c(Oc3ccc([N-]C(=O)N4CCN(c5ccccc5)C4=O)cc3F)cc[nH+]c2cc1OCCCN1CCOCC1

>  <Energy>  (39) 
129.84910800485207

>  <Genealogy>  (39) 
COc1cc2c(Oc3ccc([N-]C(=O)N4CCN(c5ccccc5)C4=O)cc3F)cc[nH+]c2cc1OCCCN1CCOCC1 (protonated)
COc1cc2c(Oc3ccc([N-]C(=O)N4CCN(c5ccccc5)C4=O)cc3F)cc[nH+]c2cc1OCCCN1CCOCC1 (3D coordinates assigned)
COc1cc2c(Oc3ccc([N-]C(=O)N4CCN(c5ccccc5)C4=O)cc3F)cc[nH+]c2cc1OCCCN1CCOCC1 (nonaromatic ring conformer: 129.84910800485207 kcal/mol)

>  <smiles>  (39) 
COc1cc2c(Oc3ccc(NC(=O)N4CCN(c5ccccc5)C4=O)cc3F)ccnc2cc1OCCCN1CCOCC1

>  <score_type>  (39) 
oracle

>  <origin>  (39) 
adg

>  <m_score__min__energy>  (39) 
-9.8699999999999992

>  <m_primary>  (39) 
energy

$$$$
39:0
     RDKit          3D

 37 38  0  0  0  0  0  0  0  0999 V2000
   55.9340   30.0760   43.7140 C   0  0  0  0  0  0  0  0  0  0  0  0
   56.6520   30.4690   44.8780 O   0  0  0  0  0  0  0  0  0  0  0  0
   57.9730   30.0870   45.1690 C   0  0  0  0  0  0  0  0  0  0  0  0
   58.5860   28.9940   44.5230 C   0  0  0  0  0  0  0  0  0  0  0  0
   59.9010   28.6380   44.8270 C   0  0  0  0  0  0  0  0  0  0  0  0
   60.6220   29.3650   45.7750 C   0  0  0  0  0  0  0  0  0  0  0  0
   60.0290   30.4500   46.4230 C   0  0  0  0  0  0  0  0  0  0  0  0
   58.7060   30.8180   46.1300 C   0  0  0  0  0  0  0  0  0  0  0  0
   58.1060   32.0090   46.8390 C   0  0  0  0  0  0  0  0  0  0  0  0
   57.6670   33.0220   45.8700 N   0  0  0  0  0  0  0  0  0  0  0  0
   58.7550   33.9230   45.4380 C   0  0  0  0  0  0  0  0  0  0  0  0
   59.2950   34.8100   46.5760 C   0  0  0  0  0  0  0  0  0  0  0  0
   60.5570   34.2540   47.1800 C   0  0  0  0  0  0  0  0  0  0  0  0
   61.6150   33.8430   46.3510 C   0  0  0  0  0  0  0  0  0  0  0  0
   62.8020   33.3630   46.9100 C   0  0  0  0  0  0  0  0  0  0  0  0
   62.9450   33.2940   48.2990 C   0  0  0  0  0  0  0  0  0  0  0  0
   64.0990   32.8310   48.8400 F   0  0  0  0  0  0  0  0  0  0  0  0
   61.8990   33.7030   49.1300 C   0  0  0  0  0  0  0  0  0  0  0  0
   60.7090   34.1830   48.5760 C   0  0  0  0  0  0  0  0  0  0  0  0
   55.0048   29.5674   44.0106 H   0  0  0  0  0  0  0  0  0  0  0  0
   55.6898   30.9662   43.1158 H   0  0  0  0  0  0  0  0  0  0  0  0
   56.5523   29.3905   43.1158 H   0  0  0  0  0  0  0  0  0  0  0  0
   58.0237   28.4174   43.7737 H   0  0  0  0  0  0  0  0  0  0  0  0
   60.3698   27.7828   44.3183 H   0  0  0  0  0  0  0  0  0  0  0  0
   61.6585   29.0829   46.0119 H   0  0  0  0  0  0  0  0  0  0  0  0
   60.6022   31.0207   47.1684 H   0  0  0  0  0  0  0  0  0  0  0  0
   57.2410   31.6780   47.4325 H   0  0  0  0  0  0  0  0  0  0  0  0
   58.8702   32.4531   47.4938 H   0  0  0  0  0  0  0  0  0  0  0  0
   57.2420   32.5390   45.0440 H   0  0  0  0  0  0  0  0  0  0  0  0
   59.5822   33.3111   45.0489 H   0  0  0  0  0  0  0  0  0  0  0  0
   58.3401   34.5924   44.6700 H   0  0  0  0  0  0  0  0  0  0  0  0
   59.5060   35.8121   46.1744 H   0  0  0  0  0  0  0  0  0  0  0  0
   58.5307   34.8483   47.3662 H   0  0  0  0  0  0  0  0  0  0  0  0
   61.5080   33.8995   45.2577 H   0  0  0  0  0  0  0  0  0  0  0  0
   63.6252   33.0389   46.2563 H   0  0  0  0  0  0  0  0  0  0  0  0
   62.0123   33.6471   50.2227 H   0  0  0  0  0  0  0  0  0  0  0  0
   59.8889   34.5062   49.2341 H   0  0  0  0  0  0  0  0  0  0  0  0
  1  2  1  0
  2  3  1  0
  3  4  2  0
  4  5  1  0
  5  6  2  0
  6  7  1  0
  7  8  2  0
  8  9  1  0
  9 10  1  0
 10 11  1  0
 11 12  1  0
 12 13  1  0
 13 14  2  0
 14 15  1  0
 15 16  2  0
 16 17  1  0
 16 18  1  0
 18 19  2  0
  8  3  1  0
 19 13  1  0
  1 20  1  0
  1 21  1  0
  1 22  1  0
  4 23  1  0
  5 24  1  0
  6 25  1  0
  7 26  1  0
  9 27  1  0
  9 28  1  0
 10 29  1  0
 11 30  1  0
 11 31  1  0
 12 32  1  0
 12 33  1  0
 14 34  1  0
 15 35  1  0
 18 36  1  0
 19 37  1  0
M  END
>  <UniqueID>  (40) 
39

>  <SMILES>  (40) 
COc1ccccc1CNCCc1ccc(F)cc1

>  <Energy>  (40) 
35.04467411584749

>  <Genealogy>  (40) 
COc1ccccc1CNCCc1ccc(F)cc1 (3D coordinates assigned)
COc1ccccc1CNCCc1ccc(F)cc1 (optimized conformer: 35.04467411584749 kcal/mol)

>  <smiles>  (40) 
COc1ccccc1CNCCc1ccc(F)cc1

>  <score_type>  (40) 
oracle

>  <origin>  (40) 
adg

>  <m_score__min__energy>  (40) 
-6.5

>  <m_primary>  (40) 
energy

$$$$
40:0
     RDKit          3D

 60 63  0  0  0  0  0  0  0  0999 V2000
   59.6860   34.3610   48.9240 C   0  0  0  0  0  0  0  0  0  0  0  0
   58.8240   33.6610   47.8800 C   0  0  0  0  0  0  0  0  0  0  0  0
   58.5510   34.5820   46.7530 N   0  0  0  0  0  0  0  0  0  0  0  0
   59.7950   35.0430   46.0790 C   0  0  0  0  0  0  0  0  0  0  0  0
   60.9070   33.9870   46.0030 C   0  0  0  0  0  0  0  0  0  0  0  0
   57.5130   34.0500   45.8420 C   0  0  0  0  0  0  0  0  0  0  0  0
   57.7400   32.6290   45.5520 C   0  0  0  0  0  0  0  0  0  0  0  0
   57.9210   31.4680   45.2790 C   0  0  0  0  0  0  0  0  0  0  0  0
   58.1850   30.0830   44.9750 C   0  0  0  0  0  0  0  0  0  0  0  0
   57.4720   29.4620   43.9400 C   0  0  0  0  0  0  0  0  0  0  0  0
   57.7740   28.1500   43.5660 C   0  0  0  0  0  0  0  0  0  0  0  0
   58.7970   27.4550   44.2150 C   0  0  0  0  0  0  0  0  0  0  0  0
   59.5150   28.0650   45.2460 C   0  0  0  0  0  0  0  0  0  0  0  0
   59.2070   29.3740   45.6460 C   0  0  0  0  0  0  0  0  0  0  0  0
   59.9640   29.9870   46.7550 C   0  0  0  0  0  0  0  0  0  0  0  0
   61.1690   30.5700   46.5040 N   0  0  0  0  0  0  0  0  0  0  0  0
   61.8450   31.1690   47.5130 C   0  0  0  0  0  0  0  0  0  0  0  0
   61.3510   31.1970   48.7860 C   0  0  0  0  0  0  0  0  0  0  0  0
   60.1140   30.5970   49.0570 C   0  0  0  0  0  0  0  0  0  0  0  0
   59.5290   30.6230   50.3720 N   0  0  0  0  0  0  0  0  0  0  0  0
   59.6380   29.4630   51.2650 C   0  0  0  0  0  0  0  0  0  0  0  0
   58.4740   29.4520   52.2590 C   0  0  0  0  0  0  0  0  0  0  0  0
   57.3060   29.9300   51.6260 O   0  0  0  0  0  0  0  0  0  0  0  0
   57.3960   31.3310   51.4200 C   0  0  0  0  0  0  0  0  0  0  0  0
   58.7460   31.7810   50.8140 C   0  0  0  0  0  0  0  0  0  0  0  0
   59.4460   30.0010   48.0230 N   0  0  0  0  0  0  0  0  0  0  0  0
   62.2410   31.9610   49.6950 C   0  0  0  0  0  0  0  0  0  0  0  0
   63.3130   32.5510   48.7570 C   0  0  0  0  0  0  0  0  0  0  0  0
   63.1230   31.8960   47.3750 C   0  0  0  0  0  0  0  0  0  0  0  0
   59.3419   34.0816   49.9307 H   0  0  0  0  0  0  0  0  0  0  0  0
   60.7353   34.0561   48.7974 H   0  0  0  0  0  0  0  0  0  0  0  0
   59.6029   35.4505   48.7974 H   0  0  0  0  0  0  0  0  0  0  0  0
   59.3540   32.7729   47.5053 H   0  0  0  0  0  0  0  0  0  0  0  0
   57.8716   33.3588   48.3399 H   0  0  0  0  0  0  0  0  0  0  0  0
   59.5380   35.3457   45.0532 H   0  0  0  0  0  0  0  0  0  0  0  0
   60.1909   35.8710   46.6854 H   0  0  0  0  0  0  0  0  0  0  0  0
   61.2098   33.6995   47.0207 H   0  0  0  0  0  0  0  0  0  0  0  0
   60.5355   33.1012   45.4669 H   0  0  0  0  0  0  0  0  0  0  0  0
   61.7724   34.4038   45.4669 H   0  0  0  0  0  0  0  0  0  0  0  0
   56.5266   34.1668   46.3146 H   0  0  0  0  0  0  0  0  0  0  0  0
   57.5585   34.6104   44.8965 H   0  0  0  0  0  0  0  0  0  0  0  0
   56.6719   30.0096   43.4204 H   0  0  0  0  0  0  0  0  0  0  0  0
   57.2054   27.6639   42.7595 H   0  0  0  0  0  0  0  0  0  0  0  0
   59.0377   26.4249   43.9134 H   0  0  0  0  0  0  0  0  0  0  0  0
   60.3261   27.5163   45.7470 H   0  0  0  0  0  0  0  0  0  0  0  0
   59.6142   28.5401   50.6669 H   0  0  0  0  0  0  0  0  0  0  0  0
   60.5851   29.5249   51.8210 H   0  0  0  0  0  0  0  0  0  0  0  0
   58.3043   28.4243   52.6126 H   0  0  0  0  0  0  0  0  0  0  0  0
   58.7175   30.1001   53.1138 H   0  0  0  0  0  0  0  0  0  0  0  0
   56.5893   31.6348   50.7367 H   0  0  0  0  0  0  0  0  0  0  0  0
   57.3095   31.8089   52.4070 H   0  0  0  0  0  0  0  0  0  0  0  0
   58.5538   32.4369   49.9521 H   0  0  0  0  0  0  0  0  0  0  0  0
   59.3168   32.3197   51.5847 H   0  0  0  0  0  0  0  0  0  0  0  0
   58.5330   29.5280   48.2070 H   0  0  0  0  0  0  0  0  0  0  0  0
   61.6849   32.7610   50.2056 H   0  0  0  0  0  0  0  0  0  0  0  0
   62.6720   31.3354   50.4905 H   0  0  0  0  0  0  0  0  0  0  0  0
   63.1855   33.6407   48.6779 H   0  0  0  0  0  0  0  0  0  0  0  0
   64.3227   32.3533   49.1463 H   0  0  0  0  0  0  0  0  0  0  0  0
   63.0590   32.6577   46.5840 H   0  0  0  0  0  0  0  0  0  0  0  0
   63.9605   31.2417   47.0913 H   0  0  0  0  0  0  0  0  0  0  0  0
  1  2  1  0
  2  3  1  0
  3  4  1  0
  4  5  1  0
  3  6  1  0
  6  7  1  0
  7  8  3  0
  8  9  1  0
  9 10  2  0
 10 11  1  0
 11 12  2  0
 12 13  1  0
 13 14  2  0
 14 15  1  0
 15 16  2  0
 16 17  1  0
 17 18  2  0
 18 19  1  0
 19 20  1  0
 20 21  1  0
 21 22  1  0
 22 23  1  0
 23 24  1  0
 24 25  1  0
 19 26  2  0
 18 27  1  0
 27 28  1  0
 28 29  1  0
 14  9  1  0
 26 15  1  0
 29 17  1  0
 25 20  1  0
  1 30  1  0
  1 31  1  0
  1 32  1  0
  2 33  1  0
  2 34  1  0
  4 35  1  0
  4 36  1  0
  5 37  1  0
  5 38  1  0
  5 39  1  0
  6 40  1  0
  6 41  1  0
 10 42  1  0
 11 43  1  0
 12 44  1  0
 13 45  1  0
 21 46  1  0
 21 47  1  0
 22 48  1  0
 22 49  1  0
 24 50  1  0
 24 51  1  0
 25 52  1  0
 25 53  1  0
 26 54  1  0
 27 55  1  0
 27 56  1  0
 28 57  1  0
 28 58  1  0
 29 59  1  0
 29 60  1  0
M  CHG  1  26   1
M  END
>  <UniqueID>  (41) 
40

>  <SMILES>  (41) 
CCN(CC)CC#Cc1ccccc1-c1nc2c(c(N3CCOCC3)[nH+]1)CCC2

>  <Energy>  (41) 
82.58468958580266

>  <Genealogy>  (41) 
CCN(CC)CC#Cc1ccccc1-c1nc2c(c(N3CCOCC3)[nH+]1)CCC2 (protonated)
CCN(CC)CC#Cc1ccccc1-c1nc2c(c(N3CCOCC3)[nH+]1)CCC2 (3D coordinates assigned)
CCN(CC)CC#Cc1ccccc1-c1nc2c(c(N3CCOCC3)[nH+]1)CCC2 (nonaromatic ring conformer: 82.58468958580266 kcal/mol)

>  <smiles>  (41) 
CCN(CC)CC#Cc1ccccc1-c1nc2c(c(N3CCOCC3)n1)CCC2

>  <score_type>  (41) 
oracle

>  <origin>  (41) 
adg

>  <m_score__min__energy>  (41) 
-6.5999999999999996

>  <m_primary>  (41) 
energy

$$$$
41:0
     RDKit          3D

 36 38  0  0  0  0  0  0  0  0999 V2000
   58.9010   33.7760   53.4270 C   0  0  0  0  0  0  0  0  0  0  0  0
   58.1380   33.1770   52.2890 C   0  0  0  0  0  0  0  0  0  0  0  0
   56.9620   32.7670   52.4810 O   0  0  0  0  0  0  0  0  0  0  0  0
   58.7420   33.0570   50.9500 C   0  0  0  0  0  0  0  0  0  0  0  0
   60.0570   33.3370   50.6250 C   0  0  0  0  0  0  0  0  0  0  0  0
   60.1480   33.0720   49.2690 C   0  0  0  0  0  0  0  0  0  0  0  0
   61.3960   33.1400   48.4760 C   0  0  0  0  0  0  0  0  0  0  0  0
   62.5970   32.6100   48.9770 C   0  0  0  0  0  0  0  0  0  0  0  0
   63.7720   32.6870   48.2220 C   0  0  0  0  0  0  0  0  0  0  0  0
   63.7600   33.3060   46.9690 C   0  0  0  0  0  0  0  0  0  0  0  0
   62.5750   33.8530   46.4720 C   0  0  0  0  0  0  0  0  0  0  0  0
   61.3970   33.7760   47.2220 C   0  0  0  0  0  0  0  0  0  0  0  0
   58.9330   32.6690   48.8210 N   0  0  0  0  0  0  0  0  0  0  0  0
   58.5380   32.3860   47.4680 C   0  0  0  0  0  0  0  0  0  0  0  0
   58.8810   31.1670   46.8590 C   0  0  0  0  0  0  0  0  0  0  0  0
   58.5010   30.9040   45.5400 C   0  0  0  0  0  0  0  0  0  0  0  0
   57.7840   31.8610   44.8120 C   0  0  0  0  0  0  0  0  0  0  0  0
   57.3930   31.5900   43.4540 C   0  0  0  0  0  0  0  0  0  0  0  0
   57.0790   31.3730   42.3610 N   0  0  0  0  0  0  0  0  0  0  0  0
   57.4550   33.0850   45.4070 C   0  0  0  0  0  0  0  0  0  0  0  0
   57.8340   33.3480   46.7260 C   0  0  0  0  0  0  0  0  0  0  0  0
   58.0890   32.6540   49.8420 N   0  0  0  0  0  0  0  0  0  0  0  0
   58.4673   33.4355   54.3788 H   0  0  0  0  0  0  0  0  0  0  0  0
   59.9531   33.4601   53.3697 H   0  0  0  0  0  0  0  0  0  0  0  0
   58.8439   34.8730   53.3697 H   0  0  0  0  0  0  0  0  0  0  0  0
   60.8539   33.6916   51.2953 H   0  0  0  0  0  0  0  0  0  0  0  0
   62.6133   32.1322   49.9677 H   0  0  0  0  0  0  0  0  0  0  0  0
   64.7065   32.2599   48.6149 H   0  0  0  0  0  0  0  0  0  0  0  0
   64.6837   33.3623   46.3744 H   0  0  0  0  0  0  0  0  0  0  0  0
   62.5681   34.3455   45.4884 H   0  0  0  0  0  0  0  0  0  0  0  0
   60.4678   34.2147   46.8294 H   0  0  0  0  0  0  0  0  0  0  0  0
   59.4520   30.4153   47.4237 H   0  0  0  0  0  0  0  0  0  0  0  0
   58.7656   29.9437   45.0732 H   0  0  0  0  0  0  0  0  0  0  0  0
   56.8971   33.8410   44.8350 H   0  0  0  0  0  0  0  0  0  0  0  0
   57.5793   34.3143   47.1857 H   0  0  0  0  0  0  0  0  0  0  0  0
   57.0770   32.4040   49.7740 H   0  0  0  0  0  0  0  0  0  0  0  0
  1  2  1  0
  2  3  2  0
  2  4  1  0
  4  5  1  0
  5  6  2  0
  6  7  1  0
  7  8  2  0
  8  9  1  0
  9 10  2  0
 10 11  1  0
 11 12  2  0
  6 13  1  0
 13 14  1  0
 14 15  2  0
 15 16  1  0
 16 17  2  0
 17 18  1  0
 18 19  3  0
 17 20  1  0
 20 21  2  0
 13 22  1  0
 22  4  2  0
 12  7  1  0
 21 14  1  0
  1 23  1  0
  1 24  1  0
  1 25  1  0
  5 26  1  0
  8 27  1  0
  9 28  1  0
 10 29  1  0
 11 30  1  0
 12 31  1  0
 15 32  1  0
 16 33  1  0
 20 34  1  0
 21 35  1  0
 22 36  1  0
M  CHG  1  22   1
M  END
>  <UniqueID>  (42) 
41

>  <SMILES>  (42) 
CC(=O)c1cc(-c2ccccc2)n(-c2ccc(C#N)cc2)[nH+]1

>  <Energy>  (42) 
75.4730630647651

>  <Genealogy>  (42) 
CC(=O)c1cc(-c2ccccc2)n(-c2ccc(C#N)cc2)[nH+]1 (protonated)
CC(=O)c1cc(-c2ccccc2)n(-c2ccc(C#N)cc2)[nH+]1 (3D coordinates assigned)
CC(=O)c1cc(-c2ccccc2)n(-c2ccc(C#N)cc2)[nH+]1 (optimized conformer: 75.4730630647651 kcal/mol)

>  <smiles>  (42) 
CC(=O)c1cc(-c2ccccc2)n(-c2ccc(C#N)cc2)n1

>  <score_type>  (42) 
oracle

>  <origin>  (42) 
adg

>  <m_score__min__energy>  (42) 
-5.8499999999999996

>  <m_primary>  (42) 
energy

$$$$
42:0
     RDKit          3D

 38 39  0  0  0  0  0  0  0  0999 V2000
   55.4030   24.4930   45.6530 C   0  0  0  0  0  0  0  0  0  0  0  0
   55.8050   25.5740   46.4880 O   0  0  0  0  0  0  0  0  0  0  0  0
   56.9460   26.3600   46.2710 C   0  0  0  0  0  0  0  0  0  0  0  0
   58.0400   26.1920   47.1270 C   0  0  0  0  0  0  0  0  0  0  0  0
   59.2010   26.9480   46.9500 C   0  0  0  0  0  0  0  0  0  0  0  0
   59.2790   27.8820   45.9160 C   0  0  0  0  0  0  0  0  0  0  0  0
   58.1920   28.0690   45.0430 C   0  0  0  0  0  0  0  0  0  0  0  0
   58.2900   28.9960   43.9410 N   0  0  0  0  0  0  0  0  0  0  0  0
   56.9720   29.2580   43.3390 C   0  0  0  0  0  0  0  0  0  0  0  0
   56.0740   30.0060   44.2820 C   0  0  0  0  0  0  0  0  0  0  0  0
   55.1460   29.3960   44.8780 O   0  0  0  0  0  0  0  0  0  0  0  0
   56.2920   31.4040   44.5000 N   0  0  0  0  0  0  0  0  0  0  0  0
   57.3750   31.9910   45.2360 C   0  0  0  0  0  0  0  0  0  0  0  0
   57.7270   33.3180   44.9690 C   0  0  0  0  0  0  0  0  0  0  0  0
   58.7970   33.9180   45.6380 C   0  0  0  0  0  0  0  0  0  0  0  0
   59.5350   33.1950   46.5910 C   0  0  0  0  0  0  0  0  0  0  0  0
   60.7230   33.8240   47.2740 C   0  0  0  0  0  0  0  0  0  0  0  0
   61.6960   34.1620   46.3490 F   0  0  0  0  0  0  0  0  0  0  0  0
   60.3150   34.9670   47.9380 F   0  0  0  0  0  0  0  0  0  0  0  0
   61.2820   32.9460   48.1880 F   0  0  0  0  0  0  0  0  0  0  0  0
   59.2130   31.8470   46.8200 C   0  0  0  0  0  0  0  0  0  0  0  0
   58.1410   31.2490   46.1520 C   0  0  0  0  0  0  0  0  0  0  0  0
   57.0270   27.3020   45.2260 C   0  0  0  0  0  0  0  0  0  0  0  0
   55.0875   23.6446   46.2780 H   0  0  0  0  0  0  0  0  0  0  0  0
   54.5637   24.8127   45.0180 H   0  0  0  0  0  0  0  0  0  0  0  0
   56.2473   24.1866   45.0180 H   0  0  0  0  0  0  0  0  0  0  0  0
   57.9853   25.4591   47.9454 H   0  0  0  0  0  0  0  0  0  0  0  0
   60.0561   26.8068   47.6274 H   0  0  0  0  0  0  0  0  0  0  0  0
   60.1957   28.4753   45.7829 H   0  0  0  0  0  0  0  0  0  0  0  0
   58.6860   29.9010   44.2880 H   0  0  0  0  0  0  0  0  0  0  0  0
   58.9460   28.6320   43.2090 H   0  0  0  0  0  0  0  0  0  0  0  0
   57.1088   29.8561   42.4260 H   0  0  0  0  0  0  0  0  0  0  0  0
   56.5004   28.2915   43.1077 H   0  0  0  0  0  0  0  0  0  0  0  0
   57.1565   33.8944   44.2258 H   0  0  0  0  0  0  0  0  0  0  0  0
   59.0633   34.9623   45.4175 H   0  0  0  0  0  0  0  0  0  0  0  0
   59.8098   31.2570   47.5312 H   0  0  0  0  0  0  0  0  0  0  0  0
   57.8957   30.1940   46.3436 H   0  0  0  0  0  0  0  0  0  0  0  0
   56.1720   27.4387   44.5476 H   0  0  0  0  0  0  0  0  0  0  0  0
  1  2  1  0
  2  3  1  0
  3  4  2  0
  4  5  1  0
  5  6  2  0
  6  7  1  0
  7  8  1  0
  8  9  1  0
  9 10  1  0
 10 11  2  0
 10 12  1  0
 12 13  1  0
 13 14  2  0
 14 15  1  0
 15 16  2  0
 16 17  1  0
 17 18  1  0
 17 19  1  0
 17 20  1  0
 16 21  1  0
 21 22  2  0
  7 23  2  0
 23  3  1  0
 22 13  1  0
  1 24  1  0
  1 25  1  0
  1 26  1  0
  4 27  1  0
  5 28  1  0
  6 29  1  0
  8 30  1  0
  8 31  1  0
  9 32  1  0
  9 33  1  0
 14 34  1  0
 15 35  1  0
 21 36  1  0
 22 37  1  0
 23 38  1  0
M  CHG  2   8   1  12  -1
M  END
>  <UniqueID>  (43) 
42

>  <SMILES>  (43) 
COc1cccc([NH2+]CC(=O)[N-]c2ccc(C(F)(F)F)cc2)c1

>  <Energy>  (43) 
40.38999621729801

>  <Genealogy>  (43) 
COc1cccc([NH2+]CC(=O)[N-]c2ccc(C(F)(F)F)cc2)c1 (protonated)
COc1cccc([NH2+]CC(=O)[N-]c2ccc(C(F)(F)F)cc2)c1 (3D coordinates assigned)
COc1cccc([NH2+]CC(=O)[N-]c2ccc(C(F)(F)F)cc2)c1 (optimized conformer: 40.38999621729801 kcal/mol)

>  <smiles>  (43) 
COc1cccc(NCC(=O)Nc2ccc(C(F)(F)F)cc2)c1

>  <score_type>  (43) 
oracle

>  <origin>  (43) 
adg

>  <m_score__min__energy>  (43) 
-7.3200000000000003

>  <m_primary>  (43) 
energy

$$$$
