0:0
     RDKit          3D

 78 81  0  0  0  0  0  0  0  0999 V2000
   55.0580   30.7430   51.9840 C   0  0  0  0  0  0  0  0  0  0  0  0
   56.4230   30.1570   52.3450 C   0  0  0  0  0  0  0  0  0  0  0  0
   57.4010   30.4040   51.2480 N   0  0  0  0  0  0  0  0  0  0  0  0
   57.5610   31.8590   50.9770 C   0  0  0  0  0  0  0  0  0  0  0  0
   58.1520   32.6240   52.1620 C   0  0  0  0  0  0  0  0  0  0  0  0
   58.7070   29.7870   51.6010 C   0  0  0  0  0  0  0  0  0  0  0  0
   59.5260   29.3520   50.3710 C   0  0  0  0  0  0  0  0  0  0  0  0
   58.7490   29.6250   49.0610 C   0  0  0  0  0  0  0  0  0  0  0  0
   59.4290   30.5640   48.1680 N   0  0  0  0  0  0  0  0  0  0  0  0
   58.9850   30.8640   46.8310 C   0  0  0  0  0  0  0  0  0  0  0  0
   58.7680   29.8160   45.9230 C   0  0  0  0  0  0  0  0  0  0  0  0
   59.0190   28.4790   46.2960 C   0  0  0  0  0  0  0  0  0  0  0  0
   58.8040   27.4490   45.3960 C   0  0  0  0  0  0  0  0  0  0  0  0
   58.3510   27.7440   44.1140 C   0  0  0  0  0  0  0  0  0  0  0  0
   58.1360   29.0350   43.7460 N   0  0  0  0  0  0  0  0  0  0  0  0
   58.3220   30.0940   44.6090 C   0  0  0  0  0  0  0  0  0  0  0  0
   58.1290   31.4000   44.2030 N   0  0  0  0  0  0  0  0  0  0  0  0
   57.5540   31.6710   42.8630 C   0  0  0  0  0  0  0  0  0  0  0  0
   58.5140   32.4500   45.0280 C   0  0  0  0  0  0  0  0  0  0  0  0
   58.5370   33.7880   44.5560 C   0  0  0  0  0  0  0  0  0  0  0  0
   58.8720   34.8430   45.3860 C   0  0  0  0  0  0  0  0  0  0  0  0
   59.1570   34.6180   46.7210 C   0  0  0  0  0  0  0  0  0  0  0  0
   59.1650   33.3140   47.2440 C   0  0  0  0  0  0  0  0  0  0  0  0
   59.4290   33.0940   48.6140 O   0  0  0  0  0  0  0  0  0  0  0  0
   59.9890   34.0290   49.5360 C   0  0  0  0  0  0  0  0  0  0  0  0
   61.4250   34.4620   49.1550 C   0  0  0  0  0  0  0  0  0  0  0  0
   62.5510   33.5600   49.5970 N   0  0  0  0  0  0  0  0  0  0  0  0
   63.0670   33.9720   50.9330 C   0  0  0  0  0  0  0  0  0  0  0  0
   62.0960   32.1260   49.6690 C   0  0  0  0  0  0  0  0  0  0  0  0
   62.4710   31.2460   48.4550 C   0  0  0  0  0  0  0  0  0  0  0  0
   62.4400   32.0340   47.1410 C   0  0  0  0  0  0  0  0  0  0  0  0
   63.3500   33.2770   47.1960 C   0  0  0  0  0  0  0  0  0  0  0  0
   63.6970   33.7000   48.6400 C   0  0  0  0  0  0  0  0  0  0  0  0
   58.8980   32.2060   46.3800 C   0  0  0  0  0  0  0  0  0  0  0  0
   54.5056   30.9802   52.9052 H   0  0  0  0  0  0  0  0  0  0  0  0
   55.1974   31.6606   51.3935 H   0  0  0  0  0  0  0  0  0  0  0  0
   54.4888   30.0099   51.3935 H   0  0  0  0  0  0  0  0  0  0  0  0
   56.7876   30.6298   53.2689 H   0  0  0  0  0  0  0  0  0  0  0  0
   56.3180   29.0719   52.4917 H   0  0  0  0  0  0  0  0  0  0  0  0
   58.2280   31.9834   50.1112 H   0  0  0  0  0  0  0  0  0  0  0  0
   56.5593   32.2709   50.7849 H   0  0  0  0  0  0  0  0  0  0  0  0
   57.8024   32.1715   53.1017 H   0  0  0  0  0  0  0  0  0  0  0  0
   59.2501   32.5763   52.1183 H   0  0  0  0  0  0  0  0  0  0  0  0
   57.8286   33.6745   52.1183 H   0  0  0  0  0  0  0  0  0  0  0  0
   59.2965   30.5194   52.1721 H   0  0  0  0  0  0  0  0  0  0  0  0
   58.4923   28.8813   52.1872 H   0  0  0  0  0  0  0  0  0  0  0  0
   60.4716   29.9136   50.3518 H   0  0  0  0  0  0  0  0  0  0  0  0
   59.7201   28.2717   50.4441 H   0  0  0  0  0  0  0  0  0  0  0  0
   58.6162   28.6714   48.5289 H   0  0  0  0  0  0  0  0  0  0  0  0
   57.7882   30.0811   49.3418 H   0  0  0  0  0  0  0  0  0  0  0  0
   60.1990   31.1410   48.5520 H   0  0  0  0  0  0  0  0  0  0  0  0
   59.3876   28.2534   47.3075 H   0  0  0  0  0  0  0  0  0  0  0  0
   58.9898   26.4060   45.6921 H   0  0  0  0  0  0  0  0  0  0  0  0
   58.1664   26.9309   43.3966 H   0  0  0  0  0  0  0  0  0  0  0  0
   57.8860   29.1570   42.7420 H   0  0  0  0  0  0  0  0  0  0  0  0
   56.5643   32.1375   42.9762 H   0  0  0  0  0  0  0  0  0  0  0  0
   58.2185   32.3507   42.3095 H   0  0  0  0  0  0  0  0  0  0  0  0
   57.4527   30.7258   42.3095 H   0  0  0  0  0  0  0  0  0  0  0  0
   58.2825   33.9912   43.5053 H   0  0  0  0  0  0  0  0  0  0  0  0
   58.9119   35.8656   44.9825 H   0  0  0  0  0  0  0  0  0  0  0  0
   59.3799   35.4697   47.3805 H   0  0  0  0  0  0  0  0  0  0  0  0
   59.3481   34.9226   49.5628 H   0  0  0  0  0  0  0  0  0  0  0  0
   60.0421   33.5346   50.5172 H   0  0  0  0  0  0  0  0  0  0  0  0
   61.4696   34.5359   48.0584 H   0  0  0  0  0  0  0  0  0  0  0  0
   61.5899   35.4089   49.6899 H   0  0  0  0  0  0  0  0  0  0  0  0
   62.4674   33.4933   51.7212 H   0  0  0  0  0  0  0  0  0  0  0  0
   64.1176   33.6616   51.0320 H   0  0  0  0  0  0  0  0  0  0  0  0
   62.9968   35.0653   51.0320 H   0  0  0  0  0  0  0  0  0  0  0  0
   62.5432   31.6734   50.5663 H   0  0  0  0  0  0  0  0  0  0  0  0
   60.9967   32.1592   49.6892 H   0  0  0  0  0  0  0  0  0  0  0  0
   63.4850   30.8471   48.6057 H   0  0  0  0  0  0  0  0  0  0  0  0
   61.7305   30.4359   48.3820 H   0  0  0  0  0  0  0  0  0  0  0  0
   62.7807   31.3793   46.3253 H   0  0  0  0  0  0  0  0  0  0  0  0
   61.4077   32.3738   46.9710 H   0  0  0  0  0  0  0  0  0  0  0  0
   64.2846   33.0525   46.6612 H   0  0  0  0  0  0  0  0  0  0  0  0
   62.8030   34.1093   46.7290 H   0  0  0  0  0  0  0  0  0  0  0  0
   64.5269   33.0722   48.9966 H   0  0  0  0  0  0  0  0  0  0  0  0
   63.9637   34.7667   48.6090 H   0  0  0  0  0  0  0  0  0  0  0  0
  1  2  1  0
  2  3  1  0
  3  4  1  0
  4  5  1  0
  3  6  1  0
  6  7  1  0
  7  8  1  0
  8  9  1  0
  9 10  1  0
 10 11  2  0
 11 12  1  0
 12 13  2  0
 13 14  1  0
 14 15  2  0
 15 16  1  0
 16 17  2  0
 17 18  1  0
 17 19  1  0
 19 20  2  0
 20 21  1  0
 21 22  2  0
 22 23  1  0
 23 24  1  0
 24 25  1  0
 25 26  1  0
 26 27  1  0
 27 28  1  0
 27 29  1  0
 29 30  1  0
 30 31  1  0
 31 32  1  0
 32 33  1  0
 23 34  2  0
 34 10  1  0
 16 11  1  0
 34 19  1  0
 33 27  1  0
  1 35  1  0
  1 36  1  0
  1 37  1  0
  2 38  1  0
  2 39  1  0
  4 40  1  0
  4 41  1  0
  5 42  1  0
  5 43  1  0
  5 44  1  0
  6 45  1  0
  6 46  1  0
  7 47  1  0
  7 48  1  0
  8 49  1  0
  8 50  1  0
  9 51  1  0
 12 52  1  0
 13 53  1  0
 14 54  1  0
 15 55  1  0
 18 56  1  0
 18 57  1  0
 18 58  1  0
 20 59  1  0
 21 60  1  0
 22 61  1  0
 25 62  1  0
 25 63  1  0
 26 64  1  0
 26 65  1  0
 28 66  1  0
 28 67  1  0
 28 68  1  0
 29 69  1  0
 29 70  1  0
 30 71  1  0
 30 72  1  0
 31 73  1  0
 31 74  1  0
 32 75  1  0
 32 76  1  0
 33 77  1  0
 33 78  1  0
M  CHG  3  15   1  17   1  27   1
M  END
>  <UniqueID>  (1) 
1

>  <SMILES>  (1) 
CCN(CC)CCCNc1c2ccc[nH+]c2[n+](C)c2cccc(OCC[N+]3(C)CCCCC3)c12

>  <Energy>  (1) 
130.30012360529597

>  <Genealogy>  (1) 
CCN(CC)CCCNc1c2ccc[nH+]c2[n+](C)c2cccc(OCC[N+]3(C)CCCCC3)c12 (protonated)
CCN(CC)CCCNc1c2ccc[nH+]c2[n+](C)c2cccc(OCC[N+]3(C)CCCCC3)c12 (3D coordinates assigned)
CCN(CC)CCCNc1c2ccc[nH+]c2[n+](C)c2cccc(OCC[N+]3(C)CCCCC3)c12 (nonaromatic ring conformer: 130.30012360529597 kcal/mol)

>  <smiles>  (1) 
CCN(CC)CCCNc1c2cccnc2[n+](C)c2cccc(OCC[N+]3(C)CCCCC3)c12

>  <score_type>  (1) 
oracle

>  <origin>  (1) 
adg

>  <m_score__min__energy>  (1) 
-4.5099999999999998

>  <m_primary>  (1) 
energy

$$$$
1:0
     RDKit          3D

 58 60  0  0  0  0  0  0  0  0999 V2000
   63.3650   33.8490   46.3790 C   0  0  0  0  0  0  0  0  0  0  0  0
   63.6620   33.7220   47.8760 C   0  0  0  0  0  0  0  0  0  0  0  0
   62.8560   32.6560   48.5140 N   0  0  0  0  0  0  0  0  0  0  0  0
   63.6640   31.7020   49.2950 C   0  0  0  0  0  0  0  0  0  0  0  0
   62.8150   30.8540   50.2490 C   0  0  0  0  0  0  0  0  0  0  0  0
   61.5030   31.3820   50.2860 O   0  0  0  0  0  0  0  0  0  0  0  0
   60.5400   30.3550   50.4250 C   0  0  0  0  0  0  0  0  0  0  0  0
   59.7770   30.0750   49.1200 C   0  0  0  0  0  0  0  0  0  0  0  0
   60.2580   30.9080   48.0160 N   0  0  0  0  0  0  0  0  0  0  0  0
   59.6010   30.9330   46.7370 C   0  0  0  0  0  0  0  0  0  0  0  0
   59.3350   29.7230   46.0720 C   0  0  0  0  0  0  0  0  0  0  0  0
   59.9290   28.5150   46.4990 C   0  0  0  0  0  0  0  0  0  0  0  0
   59.6840   27.3230   45.8230 C   0  0  0  0  0  0  0  0  0  0  0  0
   58.8660   27.3150   44.7000 C   0  0  0  0  0  0  0  0  0  0  0  0
   58.2790   28.4980   44.2520 C   0  0  0  0  0  0  0  0  0  0  0  0
   58.4840   29.7230   44.9380 C   0  0  0  0  0  0  0  0  0  0  0  0
   57.8930   30.8970   44.5210 N   0  0  0  0  0  0  0  0  0  0  0  0
   56.7650   30.8550   43.5640 C   0  0  0  0  0  0  0  0  0  0  0  0
   58.3520   32.1090   45.0010 C   0  0  0  0  0  0  0  0  0  0  0  0
   57.9980   33.3250   44.3700 C   0  0  0  0  0  0  0  0  0  0  0  0
   58.4250   34.5470   44.8710 C   0  0  0  0  0  0  0  0  0  0  0  0
   59.2370   34.5980   45.9930 C   0  0  0  0  0  0  0  0  0  0  0  0
   59.6600   33.4190   46.6290 C   0  0  0  0  0  0  0  0  0  0  0  0
   60.5380   33.4790   47.7290 O   0  0  0  0  0  0  0  0  0  0  0  0
   60.4400   34.3630   48.8460 C   0  0  0  0  0  0  0  0  0  0  0  0
   59.6560   33.7160   49.9800 C   0  0  0  0  0  0  0  0  0  0  0  0
   59.2100   32.1560   46.1400 C   0  0  0  0  0  0  0  0  0  0  0  0
   62.3618   34.2780   46.2393 H   0  0  0  0  0  0  0  0  0  0  0  0
   64.1131   34.5059   45.9112 H   0  0  0  0  0  0  0  0  0  0  0  0
   63.4068   32.8543   45.9112 H   0  0  0  0  0  0  0  0  0  0  0  0
   64.7286   33.4874   48.0076 H   0  0  0  0  0  0  0  0  0  0  0  0
   63.4020   34.6771   48.3557 H   0  0  0  0  0  0  0  0  0  0  0  0
   62.1860   33.1090   49.1790 H   0  0  0  0  0  0  0  0  0  0  0  0
   62.2750   32.1370   47.8140 H   0  0  0  0  0  0  0  0  0  0  0  0
   64.1879   31.0309   48.5984 H   0  0  0  0  0  0  0  0  0  0  0  0
   64.3701   32.2843   49.9052 H   0  0  0  0  0  0  0  0  0  0  0  0
   62.7848   29.8142   49.8914 H   0  0  0  0  0  0  0  0  0  0  0  0
   63.2540   30.8747   51.2574 H   0  0  0  0  0  0  0  0  0  0  0  0
   61.0518   29.4330   50.7379 H   0  0  0  0  0  0  0  0  0  0  0  0
   59.8059   30.6876   51.1737 H   0  0  0  0  0  0  0  0  0  0  0  0
   59.9096   29.0167   48.8508 H   0  0  0  0  0  0  0  0  0  0  0  0
   58.7161   30.3119   49.2882 H   0  0  0  0  0  0  0  0  0  0  0  0
   61.1580   31.4290   48.1320 H   0  0  0  0  0  0  0  0  0  0  0  0
   60.5930   28.5160   47.3760 H   0  0  0  0  0  0  0  0  0  0  0  0
   60.1385   26.3864   46.1783 H   0  0  0  0  0  0  0  0  0  0  0  0
   58.6809   26.3731   44.1629 H   0  0  0  0  0  0  0  0  0  0  0  0
   57.6467   28.4812   43.3521 H   0  0  0  0  0  0  0  0  0  0  0  0
   55.8153   30.8196   44.1179 H   0  0  0  0  0  0  0  0  0  0  0  0
   56.7872   31.7546   42.9314 H   0  0  0  0  0  0  0  0  0  0  0  0
   56.8540   29.9595   42.9314 H   0  0  0  0  0  0  0  0  0  0  0  0
   57.3726   33.3015   43.4654 H   0  0  0  0  0  0  0  0  0  0  0  0
   58.1174   35.4795   44.3751 H   0  0  0  0  0  0  0  0  0  0  0  0
   59.5541   35.5735   46.3903 H   0  0  0  0  0  0  0  0  0  0  0  0
   61.4516   34.6089   49.2013 H   0  0  0  0  0  0  0  0  0  0  0  0
   59.9135   35.2753   48.5288 H   0  0  0  0  0  0  0  0  0  0  0  0
   60.0629   34.0518   50.9453 H   0  0  0  0  0  0  0  0  0  0  0  0
   58.5978   34.0072   49.9069 H   0  0  0  0  0  0  0  0  0  0  0  0
   59.7411   32.6217   49.9069 H   0  0  0  0  0  0  0  0  0  0  0  0
  1  2  1  0
  2  3  1  0
  3  4  1  0
  4  5  1  0
  5  6  1  0
  6  7  1  0
  7  8  1  0
  8  9  1  0
  9 10  1  0
 10 11  2  0
 11 12  1  0
 12 13  2  0
 13 14  1  0
 14 15  2  0
 15 16  1  0
 16 17  2  0
 17 18  1  0
 17 19  1  0
 19 20  2  0
 20 21  1  0
 21 22  2  0
 22 23  1  0
 23 24  1  0
 24 25  1  0
 25 26  1  0
 23 27  2  0
 27 10  1  0
 16 11  1  0
 27 19  1  0
  1 28  1  0
  1 29  1  0
  1 30  1  0
  2 31  1  0
  2 32  1  0
  3 33  1  0
  3 34  1  0
  4 35  1  0
  4 36  1  0
  5 37  1  0
  5 38  1  0
  7 39  1  0
  7 40  1  0
  8 41  1  0
  8 42  1  0
  9 43  1  0
 12 44  1  0
 13 45  1  0
 14 46  1  0
 15 47  1  0
 18 48  1  0
 18 49  1  0
 18 50  1  0
 20 51  1  0
 21 52  1  0
 22 53  1  0
 25 54  1  0
 25 55  1  0
 26 56  1  0
 26 57  1  0
 26 58  1  0
M  CHG  2   3   1  17   1
M  END
>  <UniqueID>  (2) 
2

>  <SMILES>  (2) 
CC[NH2+]CCOCCNc1c2ccccc2[n+](C)c2cccc(OCC)c12

>  <Energy>  (2) 
85.8051680344498

>  <Genealogy>  (2) 
CC[NH2+]CCOCCNc1c2ccccc2[n+](C)c2cccc(OCC)c12 (protonated)
CC[NH2+]CCOCCNc1c2ccccc2[n+](C)c2cccc(OCC)c12 (3D coordinates assigned)
CC[NH2+]CCOCCNc1c2ccccc2[n+](C)c2cccc(OCC)c12 (optimized conformer: 85.8051680344498 kcal/mol)

>  <smiles>  (2) 
CCNCCOCCNc1c2ccccc2[n+](C)c2cccc(OCC)c12

>  <score_type>  (2) 
oracle

>  <origin>  (2) 
adg

>  <m_score__min__energy>  (2) 
-3.0800000000000001

>  <m_primary>  (2) 
energy

$$$$
2:0
     RDKit          3D

 64 66  0  0  0  0  0  0  0  0999 V2000
   63.1280   33.8710   46.3560 C   0  0  0  0  0  0  0  0  0  0  0  0
   63.2990   32.7630   47.3950 C   0  0  0  0  0  0  0  0  0  0  0  0
   63.7840   33.2920   48.6900 N   0  0  0  0  0  0  0  0  0  0  0  0
   64.4520   32.2440   49.4960 C   0  0  0  0  0  0  0  0  0  0  0  0
   65.7420   32.7890   50.0990 C   0  0  0  0  0  0  0  0  0  0  0  0
   62.7750   34.0620   49.4630 C   0  0  0  0  0  0  0  0  0  0  0  0
   61.9930   33.2510   50.5120 C   0  0  0  0  0  0  0  0  0  0  0  0
   60.6020   33.4030   50.3190 O   0  0  0  0  0  0  0  0  0  0  0  0
   59.9700   33.8020   51.5200 C   0  0  0  0  0  0  0  0  0  0  0  0
   58.8820   32.7980   51.9020 C   0  0  0  0  0  0  0  0  0  0  0  0
   59.2530   31.4980   51.4800 O   0  0  0  0  0  0  0  0  0  0  0  0
   58.1510   30.8300   50.9000 C   0  0  0  0  0  0  0  0  0  0  0  0
   58.5380   30.3190   49.5100 C   0  0  0  0  0  0  0  0  0  0  0  0
   59.5960   31.1490   48.9090 N   0  0  0  0  0  0  0  0  0  0  0  0
   59.3430   31.3590   47.4910 C   0  0  0  0  0  0  0  0  0  0  0  0
   59.3030   32.6700   46.9470 C   0  0  0  0  0  0  0  0  0  0  0  0
   59.6780   33.8040   47.7100 C   0  0  0  0  0  0  0  0  0  0  0  0
   59.6600   35.0810   47.1560 C   0  0  0  0  0  0  0  0  0  0  0  0
   59.2900   35.2600   45.8300 C   0  0  0  0  0  0  0  0  0  0  0  0
   58.9190   34.1660   45.0550 C   0  0  0  0  0  0  0  0  0  0  0  0
   58.8910   32.8550   45.5990 C   0  0  0  0  0  0  0  0  0  0  0  0
   58.4900   31.7740   44.8410 N   0  0  0  0  0  0  0  0  0  0  0  0
   57.7570   31.9910   43.5720 C   0  0  0  0  0  0  0  0  0  0  0  0
   58.7630   30.4920   45.2690 C   0  0  0  0  0  0  0  0  0  0  0  0
   58.6620   29.3840   44.3880 C   0  0  0  0  0  0  0  0  0  0  0  0
   58.9040   28.0870   44.8290 C   0  0  0  0  0  0  0  0  0  0  0  0
   59.2680   27.8550   46.1480 C   0  0  0  0  0  0  0  0  0  0  0  0
   59.6120   26.0720   46.7410 Br  0  0  0  0  0  0  0  0  0  0  0  0
   59.4100   28.9240   47.0310 C   0  0  0  0  0  0  0  0  0  0  0  0
   59.1710   30.2570   46.6120 C   0  0  0  0  0  0  0  0  0  0  0  0
   62.9795   34.8335   46.8674 H   0  0  0  0  0  0  0  0  0  0  0  0
   64.0284   33.9254   45.7264 H   0  0  0  0  0  0  0  0  0  0  0  0
   62.2531   33.6514   45.7264 H   0  0  0  0  0  0  0  0  0  0  0  0
   62.3282   32.2704   47.5530 H   0  0  0  0  0  0  0  0  0  0  0  0
   64.0470   32.0514   47.0153 H   0  0  0  0  0  0  0  0  0  0  0  0
   63.7793   31.9233   50.3051 H   0  0  0  0  0  0  0  0  0  0  0  0
   64.6913   31.3887   48.8470 H   0  0  0  0  0  0  0  0  0  0  0  0
   65.6744   32.7604   51.1965 H   0  0  0  0  0  0  0  0  0  0  0  0
   66.5907   32.1725   49.7677 H   0  0  0  0  0  0  0  0  0  0  0  0
   65.8916   33.8272   49.7677 H   0  0  0  0  0  0  0  0  0  0  0  0
   63.2963   34.8786   49.9839 H   0  0  0  0  0  0  0  0  0  0  0  0
   62.0316   34.4108   48.7311 H   0  0  0  0  0  0  0  0  0  0  0  0
   62.2574   32.1874   50.4179 H   0  0  0  0  0  0  0  0  0  0  0  0
   62.2553   33.6199   51.5146 H   0  0  0  0  0  0  0  0  0  0  0  0
   60.7178   33.8515   52.3252 H   0  0  0  0  0  0  0  0  0  0  0  0
   59.5109   34.7907   51.3731 H   0  0  0  0  0  0  0  0  0  0  0  0
   58.7493   32.8025   52.9940 H   0  0  0  0  0  0  0  0  0  0  0  0
   57.9398   33.0821   51.4105 H   0  0  0  0  0  0  0  0  0  0  0  0
   57.8614   29.9802   51.5356 H   0  0  0  0  0  0  0  0  0  0  0  0
   57.3047   31.5271   50.8119 H   0  0  0  0  0  0  0  0  0  0  0  0
   58.9007   29.2842   49.5970 H   0  0  0  0  0  0  0  0  0  0  0  0
   57.6497   30.3675   48.8630 H   0  0  0  0  0  0  0  0  0  0  0  0
   60.5340   30.7150   49.0510 H   0  0  0  0  0  0  0  0  0  0  0  0
   59.6720   32.0620   49.4110 H   0  0  0  0  0  0  0  0  0  0  0  0
   59.9884   33.6729   48.7571 H   0  0  0  0  0  0  0  0  0  0  0  0
   59.9395   35.9498   47.7701 H   0  0  0  0  0  0  0  0  0  0  0  0
   59.2902   36.2688   45.3914 H   0  0  0  0  0  0  0  0  0  0  0  0
   58.6423   34.3195   44.0015 H   0  0  0  0  0  0  0  0  0  0  0  0
   56.7238   32.2969   43.7931 H   0  0  0  0  0  0  0  0  0  0  0  0
   58.2564   32.7798   42.9903 H   0  0  0  0  0  0  0  0  0  0  0  0
   57.7465   31.0574   42.9903 H   0  0  0  0  0  0  0  0  0  0  0  0
   58.3872   29.5540   43.3365 H   0  0  0  0  0  0  0  0  0  0  0  0
   58.8066   27.2430   44.1303 H   0  0  0  0  0  0  0  0  0  0  0  0
   59.7126   28.7300   48.0706 H   0  0  0  0  0  0  0  0  0  0  0  0
  1  2  1  0
  2  3  1  0
  3  4  1  0
  4  5  1  0
  3  6  1  0
  6  7  1  0
  7  8  1  0
  8  9  1  0
  9 10  1  0
 10 11  1  0
 11 12  1  0
 12 13  1  0
 13 14  1  0
 14 15  1  0
 15 16  2  0
 16 17  1  0
 17 18  2  0
 18 19  1  0
 19 20  2  0
 20 21  1  0
 21 22  2  0
 22 23  1  0
 22 24  1  0
 24 25  2  0
 25 26  1  0
 26 27  2  0
 27 28  1  0
 27 29  1  0
 29 30  2  0
 30 15  1  0
 21 16  1  0
 30 24  1  0
  1 31  1  0
  1 32  1  0
  1 33  1  0
  2 34  1  0
  2 35  1  0
  4 36  1  0
  4 37  1  0
  5 38  1  0
  5 39  1  0
  5 40  1  0
  6 41  1  0
  6 42  1  0
  7 43  1  0
  7 44  1  0
  9 45  1  0
  9 46  1  0
 10 47  1  0
 10 48  1  0
 12 49  1  0
 12 50  1  0
 13 51  1  0
 13 52  1  0
 14 53  1  0
 14 54  1  0
 17 55  1  0
 18 56  1  0
 19 57  1  0
 20 58  1  0
 23 59  1  0
 23 60  1  0
 23 61  1  0
 25 62  1  0
 26 63  1  0
 29 64  1  0
M  CHG  2  14   1  22   1
M  END
>  <UniqueID>  (3) 
3

>  <SMILES>  (3) 
CCN(CC)CCOCCOCC[NH2+]c1c2ccccc2[n+](C)c2ccc(Br)cc12

>  <Energy>  (3) 
93.74762019981068

>  <Genealogy>  (3) 
CCN(CC)CCOCCOCC[NH2+]c1c2ccccc2[n+](C)c2ccc(Br)cc12 (protonated)
CCN(CC)CCOCCOCC[NH2+]c1c2ccccc2[n+](C)c2ccc(Br)cc12 (3D coordinates assigned)
CCN(CC)CCOCCOCC[NH2+]c1c2ccccc2[n+](C)c2ccc(Br)cc12 (optimized conformer: 93.74762019981068 kcal/mol)

>  <smiles>  (3) 
CCN(CC)CCOCCOCCNc1c2ccccc2[n+](C)c2ccc(Br)cc12

>  <score_type>  (3) 
oracle

>  <origin>  (3) 
adg

>  <m_score__min__energy>  (3) 
-5.0800000000000001

>  <m_primary>  (3) 
energy

$$$$
3:0
     RDKit          3D

 77 79  0  0  0  0  0  0  0  0999 V2000
   60.5070   31.6640   55.3680 C   0  0  0  0  0  0  0  0  0  0  0  0
   61.6370   31.8760   54.3550 C   0  0  0  0  0  0  0  0  0  0  0  0
   61.2490   32.7400   53.2070 N   0  0  0  0  0  0  0  0  0  0  0  0
   60.0780   33.6170   53.5010 C   0  0  0  0  0  0  0  0  0  0  0  0
   59.1200   33.8360   52.3190 C   0  0  0  0  0  0  0  0  0  0  0  0
   62.4430   33.4840   52.7280 C   0  0  0  0  0  0  0  0  0  0  0  0
   62.4850   33.6640   51.1930 C   0  0  0  0  0  0  0  0  0  0  0  0
   61.8160   32.6140   50.5180 O   0  0  0  0  0  0  0  0  0  0  0  0
   62.7380   31.7590   49.8630 C   0  0  0  0  0  0  0  0  0  0  0  0
   62.9000   30.4740   50.6790 C   0  0  0  0  0  0  0  0  0  0  0  0
   61.9860   30.4420   51.7590 O   0  0  0  0  0  0  0  0  0  0  0  0
   61.3700   29.1730   51.8870 C   0  0  0  0  0  0  0  0  0  0  0  0
   60.0680   29.2670   52.6900 C   0  0  0  0  0  0  0  0  0  0  0  0
   59.4900   30.5570   52.5840 O   0  0  0  0  0  0  0  0  0  0  0  0
   58.1880   30.5020   52.0320 C   0  0  0  0  0  0  0  0  0  0  0  0
   58.1440   31.2410   50.6930 C   0  0  0  0  0  0  0  0  0  0  0  0
   59.4200   31.1010   49.9880 N   0  0  0  0  0  0  0  0  0  0  0  0
   59.4530   30.7970   48.5830 C   0  0  0  0  0  0  0  0  0  0  0  0
   59.6800   29.4690   48.1840 C   0  0  0  0  0  0  0  0  0  0  0  0
   60.1700   28.5180   49.1050 C   0  0  0  0  0  0  0  0  0  0  0  0
   60.3310   27.1860   48.7350 C   0  0  0  0  0  0  0  0  0  0  0  0
   59.9940   26.7750   47.4510 C   0  0  0  0  0  0  0  0  0  0  0  0
   59.5230   27.7000   46.5200 C   0  0  0  0  0  0  0  0  0  0  0  0
   59.3970   29.0760   46.8500 C   0  0  0  0  0  0  0  0  0  0  0  0
   58.9760   30.0110   45.9250 N   0  0  0  0  0  0  0  0  0  0  0  0
   58.9040   29.6450   44.4910 C   0  0  0  0  0  0  0  0  0  0  0  0
   58.6760   31.3010   46.3270 C   0  0  0  0  0  0  0  0  0  0  0  0
   57.9960   32.1990   45.4670 C   0  0  0  0  0  0  0  0  0  0  0  0
   57.7780   33.5300   45.8270 C   0  0  0  0  0  0  0  0  0  0  0  0
   57.0950   34.4700   44.8740 C   0  0  0  0  0  0  0  0  0  0  0  0
   58.3050   34.0090   47.0240 C   0  0  0  0  0  0  0  0  0  0  0  0
   58.9610   33.1530   47.9170 C   0  0  0  0  0  0  0  0  0  0  0  0
   59.6480   33.7950   49.0980 C   0  0  0  0  0  0  0  0  0  0  0  0
   59.0320   31.7540   47.6310 C   0  0  0  0  0  0  0  0  0  0  0  0
   60.9105   31.7397   56.3885 H   0  0  0  0  0  0  0  0  0  0  0  0
   59.7341   32.4328   55.2213 H   0  0  0  0  0  0  0  0  0  0  0  0
   60.0653   30.6673   55.2213 H   0  0  0  0  0  0  0  0  0  0  0  0
   62.4860   32.3457   54.8733 H   0  0  0  0  0  0  0  0  0  0  0  0
   61.8942   30.8883   53.9449 H   0  0  0  0  0  0  0  0  0  0  0  0
   60.9580   32.0990   52.4280 H   0  0  0  0  0  0  0  0  0  0  0  0
   59.5073   33.1607   54.3232 H   0  0  0  0  0  0  0  0  0  0  0  0
   60.4888   34.6060   53.7522 H   0  0  0  0  0  0  0  0  0  0  0  0
   58.1141   34.0660   52.7001 H   0  0  0  0  0  0  0  0  0  0  0  0
   59.4803   34.6749   51.7055 H   0  0  0  0  0  0  0  0  0  0  0  0
   59.0800   32.9238   51.7055 H   0  0  0  0  0  0  0  0  0  0  0  0
   62.4428   34.4799   53.1951 H   0  0  0  0  0  0  0  0  0  0  0  0
   63.3263   32.8911   53.0077 H   0  0  0  0  0  0  0  0  0  0  0  0
   62.0019   34.6176   50.9338 H   0  0  0  0  0  0  0  0  0  0  0  0
   63.5389   33.6538   50.8780 H   0  0  0  0  0  0  0  0  0  0  0  0
   62.3619   31.5124   48.8591 H   0  0  0  0  0  0  0  0  0  0  0  0
   63.7108   32.2645   49.7725 H   0  0  0  0  0  0  0  0  0  0  0  0
   62.7166   29.6077   50.0264 H   0  0  0  0  0  0  0  0  0  0  0  0
   63.9225   30.4414   51.0833 H   0  0  0  0  0  0  0  0  0  0  0  0
   61.1455   28.7804   50.8843 H   0  0  0  0  0  0  0  0  0  0  0  0
   62.0604   28.5031   52.4204 H   0  0  0  0  0  0  0  0  0  0  0  0
   59.3554   28.5223   52.3058 H   0  0  0  0  0  0  0  0  0  0  0  0
   60.2980   29.0753   53.7485 H   0  0  0  0  0  0  0  0  0  0  0  0
   57.9051   29.4506   51.8751 H   0  0  0  0  0  0  0  0  0  0  0  0
   57.4850   30.9831   52.7280 H   0  0  0  0  0  0  0  0  0  0  0  0
   57.3395   30.8189   50.0728 H   0  0  0  0  0  0  0  0  0  0  0  0
   57.9569   32.3084   50.8816 H   0  0  0  0  0  0  0  0  0  0  0  0
   60.3140   31.0990   50.5340 H   0  0  0  0  0  0  0  0  0  0  0  0
   60.4275   28.8333   50.1269 H   0  0  0  0  0  0  0  0  0  0  0  0
   60.7253   26.4581   49.4594 H   0  0  0  0  0  0  0  0  0  0  0  0
   60.0991   25.7171   47.1683 H   0  0  0  0  0  0  0  0  0  0  0  0
   59.2441   27.3583   45.5123 H   0  0  0  0  0  0  0  0  0  0  0  0
   58.6924   28.5696   44.3972 H   0  0  0  0  0  0  0  0  0  0  0  0
   58.1018   30.2202   44.0056 H   0  0  0  0  0  0  0  0  0  0  0  0
   59.8643   29.8735   44.0056 H   0  0  0  0  0  0  0  0  0  0  0  0
   57.6316   31.8390   44.4935 H   0  0  0  0  0  0  0  0  0  0  0  0
   56.5418   35.2314   45.4434 H   0  0  0  0  0  0  0  0  0  0  0  0
   57.8482   34.9613   44.2405 H   0  0  0  0  0  0  0  0  0  0  0  0
   56.3951   33.9054   44.2405 H   0  0  0  0  0  0  0  0  0  0  0  0
   58.2043   35.0760   47.2716 H   0  0  0  0  0  0  0  0  0  0  0  0
   59.2221   33.3970   50.0308 H   0  0  0  0  0  0  0  0  0  0  0  0
   60.7245   33.5717   49.0619 H   0  0  0  0  0  0  0  0  0  0  0  0
   59.4980   34.8841   49.0619 H   0  0  0  0  0  0  0  0  0  0  0  0
  1  2  1  0
  2  3  1  0
  3  4  1  0
  4  5  1  0
  3  6  1  0
  6  7  1  0
  7  8  1  0
  8  9  1  0
  9 10  1  0
 10 11  1  0
 11 12  1  0
 12 13  1  0
 13 14  1  0
 14 15  1  0
 15 16  1  0
 16 17  1  0
 17 18  1  0
 18 19  2  0
 19 20  1  0
 20 21  2  0
 21 22  1  0
 22 23  2  0
 23 24  1  0
 24 25  2  0
 25 26  1  0
 25 27  1  0
 27 28  2  0
 28 29  1  0
 29 30  1  0
 29 31  2  0
 31 32  1  0
 32 33  1  0
 32 34  2  0
 34 18  1  0
 24 19  1  0
 34 27  1  0
  1 35  1  0
  1 36  1  0
  1 37  1  0
  2 38  1  0
  2 39  1  0
  3 40  1  0
  4 41  1  0
  4 42  1  0
  5 43  1  0
  5 44  1  0
  5 45  1  0
  6 46  1  0
  6 47  1  0
  7 48  1  0
  7 49  1  0
  9 50  1  0
  9 51  1  0
 10 52  1  0
 10 53  1  0
 12 54  1  0
 12 55  1  0
 13 56  1  0
 13 57  1  0
 15 58  1  0
 15 59  1  0
 16 60  1  0
 16 61  1  0
 17 62  1  0
 20 63  1  0
 21 64  1  0
 22 65  1  0
 23 66  1  0
 26 67  1  0
 26 68  1  0
 26 69  1  0
 28 70  1  0
 30 71  1  0
 30 72  1  0
 30 73  1  0
 31 74  1  0
 33 75  1  0
 33 76  1  0
 33 77  1  0
M  CHG  2   3   1  25   1
M  END
>  <UniqueID>  (4) 
4

>  <SMILES>  (4) 
CC[NH+](CC)CCOCCOCCOCCNc1c2ccccc2[n+](C)c2cc(C)cc(C)c12

>  <Energy>  (4) 
120.57798707648477

>  <Genealogy>  (4) 
CC[NH+](CC)CCOCCOCCOCCNc1c2ccccc2[n+](C)c2cc(C)cc(C)c12 (protonated)
CC[NH+](CC)CCOCCOCCOCCNc1c2ccccc2[n+](C)c2cc(C)cc(C)c12 (3D coordinates assigned)
CC[NH+](CC)CCOCCOCCOCCNc1c2ccccc2[n+](C)c2cc(C)cc(C)c12 (optimized conformer: 120.57798707648477 kcal/mol)

>  <smiles>  (4) 
CCN(CC)CCOCCOCCOCCNc1c2ccccc2[n+](C)c2cc(C)cc(C)c12

>  <score_type>  (4) 
oracle

>  <origin>  (4) 
adg

>  <m_score__min__energy>  (4) 
-3.7400000000000002

>  <m_primary>  (4) 
energy

$$$$
4:0
     RDKit          3D

 63 64  0  0  0  0  0  0  0  0999 V2000
   57.8025   32.6911   42.4411 H   0  0  0  0  0  0  0  0  0  0  0  0
   58.1030   32.4280   43.4660 C   0  0  0  0  0  0  0  0  0  0  0  0
   58.8760   33.2600   44.1070 N   0  0  0  0  0  0  0  0  0  0  0  0
   58.4550   34.4010   44.9150 C   0  0  0  0  0  0  0  0  0  0  0  0
   57.9220   35.1188   44.2742 H   0  0  0  0  0  0  0  0  0  0  0  0
   59.3483   34.8681   45.3554 H   0  0  0  0  0  0  0  0  0  0  0  0
   57.5250   33.9550   46.0510 C   0  0  0  0  0  0  0  0  0  0  0  0
   57.0026   33.0420   45.7292 H   0  0  0  0  0  0  0  0  0  0  0  0
   56.8419   34.7951   46.2447 H   0  0  0  0  0  0  0  0  0  0  0  0
   58.2130   33.6680   47.3290 N   0  0  0  0  0  0  0  0  0  0  0  0
   59.2270   34.6620   47.7530 C   0  0  0  0  0  0  0  0  0  0  0  0
   58.8461   35.2008   48.6331 H   0  0  0  0  0  0  0  0  0  0  0  0
   59.4022   35.3421   46.9064 H   0  0  0  0  0  0  0  0  0  0  0  0
   60.5670   34.0160   48.1150 C   0  0  0  0  0  0  0  0  0  0  0  0
   60.5017   33.5659   49.1166 H   0  0  0  0  0  0  0  0  0  0  0  0
   61.3609   34.7774   48.1149 H   0  0  0  0  0  0  0  0  0  0  0  0
   60.8740   32.9750   47.1250 N   0  0  0  0  0  0  0  0  0  0  0  0
   62.2990   32.5710   47.0860 C   0  0  0  0  0  0  0  0  0  0  0  0
   62.4576   31.9546   46.1888 H   0  0  0  0  0  0  0  0  0  0  0  0
   62.4969   32.0258   48.0207 H   0  0  0  0  0  0  0  0  0  0  0  0
   63.2940   33.7500   47.0440 C   0  0  0  0  0  0  0  0  0  0  0  0
   62.7900   34.6643   47.3903 H   0  0  0  0  0  0  0  0  0  0  0  0
   63.6478   33.8868   46.0115 H   0  0  0  0  0  0  0  0  0  0  0  0
   64.4490   33.4680   47.9180 N   0  0  0  0  0  0  0  0  0  0  0  0
   64.8270   32.5280   47.6500 H   0  0  0  0  0  0  0  0  0  0  0  0
   64.1000   33.4110   49.3500 C   0  0  0  0  0  0  0  0  0  0  0  0
   63.1596   33.9585   49.5109 H   0  0  0  0  0  0  0  0  0  0  0  0
   64.9207   33.8660   49.9240 H   0  0  0  0  0  0  0  0  0  0  0  0
   63.9220   31.9590   49.8290 C   0  0  0  0  0  0  0  0  0  0  0  0
   64.6563   31.7581   50.6230 H   0  0  0  0  0  0  0  0  0  0  0  0
   64.0721   31.3022   48.9595 H   0  0  0  0  0  0  0  0  0  0  0  0
   62.5180   31.6840   50.3790 C   0  0  0  0  0  0  0  0  0  0  0  0
   61.7673   32.1552   49.7276 H   0  0  0  0  0  0  0  0  0  0  0  0
   62.4264   32.1006   51.3929 H   0  0  0  0  0  0  0  0  0  0  0  0
   62.3060   30.2850   50.4140 O   0  0  0  0  0  0  0  0  0  0  0  0
   61.1500   29.9510   49.6760 C   0  0  0  0  0  0  0  0  0  0  0  0
   61.0808   28.8579   49.5747 H   0  0  0  0  0  0  0  0  0  0  0  0
   61.2053   30.4048   48.6755 H   0  0  0  0  0  0  0  0  0  0  0  0
   59.9240   30.4730   50.4080 C   0  0  0  0  0  0  0  0  0  0  0  0
   60.0877   30.4033   51.4935 H   0  0  0  0  0  0  0  0  0  0  0  0
   59.7504   31.5231   50.1301 H   0  0  0  0  0  0  0  0  0  0  0  0
   59.0468   29.8703   50.1301 H   0  0  0  0  0  0  0  0  0  0  0  0
   59.9500   31.8280   47.2150 C   0  0  0  0  0  0  0  0  0  0  0  0
   60.3300   31.1288   47.9744 H   0  0  0  0  0  0  0  0  0  0  0  0
   59.9019   31.3613   46.2201 H   0  0  0  0  0  0  0  0  0  0  0  0
   58.5130   32.2480   47.6040 C   0  0  0  0  0  0  0  0  0  0  0  0
   58.3780   32.0670   48.6806 H   0  0  0  0  0  0  0  0  0  0  0  0
   57.8259   31.6497   46.9876 H   0  0  0  0  0  0  0  0  0  0  0  0
   57.6040   31.1540   44.0270 C   0  0  0  0  0  0  0  0  0  0  0  0
   58.4350   30.2820   44.7510 C   0  0  0  0  0  0  0  0  0  0  0  0
   59.4926   30.5407   44.9073 H   0  0  0  0  0  0  0  0  0  0  0  0
   57.9290   29.0890   45.2740 C   0  0  0  0  0  0  0  0  0  0  0  0
   58.5964   28.3996   45.8119 H   0  0  0  0  0  0  0  0  0  0  0  0
   56.5700   28.7670   45.1150 C   0  0  0  0  0  0  0  0  0  0  0  0
   56.0150   27.5830   45.6240 O   0  0  0  0  0  0  0  0  0  0  0  0
   56.7760   26.4320   45.9810 C   0  0  0  0  0  0  0  0  0  0  0  0
   56.8285   26.3526   47.0769 H   0  0  0  0  0  0  0  0  0  0  0  0
   56.2942   25.5322   45.5708 H   0  0  0  0  0  0  0  0  0  0  0  0
   57.7926   26.5229   45.5708 H   0  0  0  0  0  0  0  0  0  0  0  0
   55.7320   29.6590   44.4350 C   0  0  0  0  0  0  0  0  0  0  0  0
   54.6636   29.4234   44.3204 H   0  0  0  0  0  0  0  0  0  0  0  0
   56.2410   30.8470   43.9000 C   0  0  0  0  0  0  0  0  0  0  0  0
   55.5694   31.5438   43.3772 H   0  0  0  0  0  0  0  0  0  0  0  0
  1  2  1  0
  2  3  2  0
  3  4  1  0
  4  5  1  0
  4  6  1  0
  4  7  1  0
  7  8  1  0
  7  9  1  0
  7 10  1  0
 10 11  1  0
 11 12  1  0
 11 13  1  0
 11 14  1  0
 14 15  1  0
 14 16  1  0
 14 17  1  0
 17 18  1  0
 18 19  1  0
 18 20  1  0
 18 21  1  0
 21 22  1  0
 21 23  1  0
 21 24  1  0
 24 25  1  0
 24 26  1  0
 26 27  1  0
 26 28  1  0
 26 29  1  0
 29 30  1  0
 29 31  1  0
 29 32  1  0
 32 33  1  0
 32 34  1  0
 32 35  1  0
 35 36  1  0
 36 37  1  0
 36 38  1  0
 36 39  1  0
 39 40  1  0
 39 41  1  0
 39 42  1  0
 17 43  1  0
 43 44  1  0
 43 45  1  0
 43 46  1  0
 46 47  1  0
 46 48  1  0
  2 49  1  0
 49 50  2  0
 50 51  1  0
 50 52  1  0
 52 53  1  0
 52 54  2  0
 54 55  1  0
 55 56  1  0
 56 57  1  0
 56 58  1  0
 56 59  1  0
 54 60  1  0
 60 61  1  0
 60 62  2  0
 62 63  1  0
 46 10  1  0
 62 49  1  0
M  END
>  <UniqueID>  (5) 
5

>  <SMILES>  (5) 
CCOCCCNCCN1CCN(CC/N=C\c2ccc(OC)cc2)CC1

>  <Energy>  (5) 
79.13209842072362

>  <Genealogy>  (5) 
CCOCCCNCCN1CCN(CC/N=C\c2ccc(OC)cc2)CC1 (cis-trans isomerization)
CCOCCCNCCN1CCN(CC/N=C\c2ccc(OC)cc2)CC1 (3D coordinates assigned)
CCOCCCNCCN1CCN(CC/N=C\c2ccc(OC)cc2)CC1 (nonaromatic ring conformer: 79.13209842072362 kcal/mol)

>  <smiles>  (5) 
CCOCCCNCCN1CCN(CCN=Cc2ccc(OC)cc2)CC1

>  <score_type>  (5) 
oracle

>  <origin>  (5) 
adg

>  <m_score__min__energy>  (5) 
-6.7999999999999998

>  <m_primary>  (5) 
energy

$$$$
5:0
     RDKit          3D

 70 73  0  0  0  0  0  0  0  0999 V2000
   58.3640   34.5560   45.2230 C   0  0  0  0  0  0  0  0  0  0  0  0
   59.1580   33.6640   46.1320 C   0  0  0  0  0  0  0  0  0  0  0  0
   58.5610   32.5430   46.7060 C   0  0  0  0  0  0  0  0  0  0  0  0
   59.2920   31.6850   47.5440 C   0  0  0  0  0  0  0  0  0  0  0  0
   58.7140   30.5000   48.0410 O   0  0  0  0  0  0  0  0  0  0  0  0
   58.6590   29.2350   47.3830 C   0  0  0  0  0  0  0  0  0  0  0  0
   57.7770   29.2250   46.1060 C   0  0  0  0  0  0  0  0  0  0  0  0
   58.4760   29.2050   44.7740 N   0  0  0  0  0  0  0  0  0  0  0  0
   59.8760   28.7350   44.9110 C   0  0  0  0  0  0  0  0  0  0  0  0
   57.7530   28.4310   43.7400 C   0  0  0  0  0  0  0  0  0  0  0  0
   56.6690   29.3380   43.1760 C   0  0  0  0  0  0  0  0  0  0  0  0
   57.1740   30.7500   43.4270 C   0  0  0  0  0  0  0  0  0  0  0  0
   58.4680   30.5840   44.2190 C   0  0  0  0  0  0  0  0  0  0  0  0
   60.6430   32.0030   47.8670 C   0  0  0  0  0  0  0  0  0  0  0  0
   61.3680   31.2990   48.8600 C   0  0  0  0  0  0  0  0  0  0  0  0
   60.7340   30.2770   49.6450 N   0  0  0  0  0  0  0  0  0  0  0  0
   60.7340   30.3390   51.1080 C   0  0  0  0  0  0  0  0  0  0  0  0
   59.3060   30.4970   51.6620 C   0  0  0  0  0  0  0  0  0  0  0  0
   58.5040   31.5010   50.9150 N   0  0  0  0  0  0  0  0  0  0  0  0
   57.1410   31.5710   51.4720 C   0  0  0  0  0  0  0  0  0  0  0  0
   59.1250   32.8370   50.9680 C   0  0  0  0  0  0  0  0  0  0  0  0
   62.6750   31.7090   49.1890 C   0  0  0  0  0  0  0  0  0  0  0  0
   63.3530   31.1530   50.2990 C   0  0  0  0  0  0  0  0  0  0  0  0
   64.6410   31.5680   50.6290 C   0  0  0  0  0  0  0  0  0  0  0  0
   65.2670   32.5550   49.8800 C   0  0  0  0  0  0  0  0  0  0  0  0
   64.6110   33.1350   48.7940 C   0  0  0  0  0  0  0  0  0  0  0  0
   63.3090   32.7150   48.4170 C   0  0  0  0  0  0  0  0  0  0  0  0
   62.6460   33.2890   47.3510 N   0  0  0  0  0  0  0  0  0  0  0  0
   63.3900   34.1230   46.3820 C   0  0  0  0  0  0  0  0  0  0  0  0
   61.2920   33.0680   47.1790 C   0  0  0  0  0  0  0  0  0  0  0  0
   60.5170   33.9020   46.3400 C   0  0  0  0  0  0  0  0  0  0  0  0
   57.7524   35.2431   45.8261 H   0  0  0  0  0  0  0  0  0  0  0  0
   59.0497   35.1365   44.5883 H   0  0  0  0  0  0  0  0  0  0  0  0
   57.7080   33.9422   44.5883 H   0  0  0  0  0  0  0  0  0  0  0  0
   57.5023   32.3272   46.4998 H   0  0  0  0  0  0  0  0  0  0  0  0
   59.6822   28.9483   47.0988 H   0  0  0  0  0  0  0  0  0  0  0  0
   58.2018   28.5279   48.0908 H   0  0  0  0  0  0  0  0  0  0  0  0
   57.1378   28.3311   46.1551 H   0  0  0  0  0  0  0  0  0  0  0  0
   57.2460   30.1881   46.1271 H   0  0  0  0  0  0  0  0  0  0  0  0
   60.1313   28.6493   45.9775 H   0  0  0  0  0  0  0  0  0  0  0  0
   59.9817   27.7521   44.4285 H   0  0  0  0  0  0  0  0  0  0  0  0
   60.5534   29.4550   44.4285 H   0  0  0  0  0  0  0  0  0  0  0  0
   58.4463   28.1301   42.9408 H   0  0  0  0  0  0  0  0  0  0  0  0
   57.3144   27.5186   44.1703 H   0  0  0  0  0  0  0  0  0  0  0  0
   56.5365   29.1597   42.0987 H   0  0  0  0  0  0  0  0  0  0  0  0
   55.6909   29.1574   43.6457 H   0  0  0  0  0  0  0  0  0  0  0  0
   57.3694   31.2637   42.4741 H   0  0  0  0  0  0  0  0  0  0  0  0
   56.4362   31.3570   43.9722 H   0  0  0  0  0  0  0  0  0  0  0  0
   59.3349   30.7280   43.5573 H   0  0  0  0  0  0  0  0  0  0  0  0
   58.5269   31.3281   45.0270 H   0  0  0  0  0  0  0  0  0  0  0  0
   60.3650   29.4360   49.1470 H   0  0  0  0  0  0  0  0  0  0  0  0
   61.1720   29.4117   51.5058 H   0  0  0  0  0  0  0  0  0  0  0  0
   61.3251   31.2133   51.4182 H   0  0  0  0  0  0  0  0  0  0  0  0
   58.7960   29.5243   51.6007 H   0  0  0  0  0  0  0  0  0  0  0  0
   59.3917   30.8493   52.7005 H   0  0  0  0  0  0  0  0  0  0  0  0
   58.4170   31.2160   49.9120 H   0  0  0  0  0  0  0  0  0  0  0  0
   57.1933   31.5683   52.5708 H   0  0  0  0  0  0  0  0  0  0  0  0
   56.6523   32.4954   51.1304 H   0  0  0  0  0  0  0  0  0  0  0  0
   56.5602   30.7015   51.1304 H   0  0  0  0  0  0  0  0  0  0  0  0
   59.2637   33.1355   52.0176 H   0  0  0  0  0  0  0  0  0  0  0  0
   60.1018   32.8076   50.4630 H   0  0  0  0  0  0  0  0  0  0  0  0
   58.4729   33.5648   50.4630 H   0  0  0  0  0  0  0  0  0  0  0  0
   62.8571   30.3836   50.9089 H   0  0  0  0  0  0  0  0  0  0  0  0
   65.1627   31.1132   51.4840 H   0  0  0  0  0  0  0  0  0  0  0  0
   66.2840   32.8809   50.1438 H   0  0  0  0  0  0  0  0  0  0  0  0
   65.1107   33.9301   48.2211 H   0  0  0  0  0  0  0  0  0  0  0  0
   64.0267   34.8367   46.9254 H   0  0  0  0  0  0  0  0  0  0  0  0
   64.0185   33.4784   45.7500 H   0  0  0  0  0  0  0  0  0  0  0  0
   62.6781   34.6741   45.7500 H   0  0  0  0  0  0  0  0  0  0  0  0
   60.9961   34.7570   45.8405 H   0  0  0  0  0  0  0  0  0  0  0  0
  1  2  1  0
  2  3  2  0
  3  4  1  0
  4  5  1  0
  5  6  1  0
  6  7  1  0
  7  8  1  0
  8  9  1  0
  8 10  1  0
 10 11  1  0
 11 12  1  0
 12 13  1  0
  4 14  2  0
 14 15  1  0
 15 16  1  0
 16 17  1  0
 17 18  1  0
 18 19  1  0
 19 20  1  0
 19 21  1  0
 15 22  2  0
 22 23  1  0
 23 24  2  0
 24 25  1  0
 25 26  2  0
 26 27  1  0
 27 28  2  0
 28 29  1  0
 28 30  1  0
 30 31  2  0
 31  2  1  0
 13  8  1  0
 30 14  1  0
 27 22  1  0
  1 32  1  0
  1 33  1  0
  1 34  1  0
  3 35  1  0
  6 36  1  0
  6 37  1  0
  7 38  1  0
  7 39  1  0
  9 40  1  0
  9 41  1  0
  9 42  1  0
 10 43  1  0
 10 44  1  0
 11 45  1  0
 11 46  1  0
 12 47  1  0
 12 48  1  0
 13 49  1  0
 13 50  1  0
 16 51  1  0
 17 52  1  0
 17 53  1  0
 18 54  1  0
 18 55  1  0
 19 56  1  0
 20 57  1  0
 20 58  1  0
 20 59  1  0
 21 60  1  0
 21 61  1  0
 21 62  1  0
 23 63  1  0
 24 64  1  0
 25 65  1  0
 26 66  1  0
 29 67  1  0
 29 68  1  0
 29 69  1  0
 31 70  1  0
M  CHG  3   8   1  19   1  28   1
M  END
>  <UniqueID>  (6) 
6

>  <SMILES>  (6) 
Cc1cc(OCC[N+]2(C)CCCC2)c2c(NCC[NH+](C)C)c3ccccc3[n+](C)c2c1

>  <Energy>  (6) 
112.87731044368486

>  <Genealogy>  (6) 
Cc1cc(OCC[N+]2(C)CCCC2)c2c(NCC[NH+](C)C)c3ccccc3[n+](C)c2c1 (protonated)
Cc1cc(OCC[N+]2(C)CCCC2)c2c(NCC[NH+](C)C)c3ccccc3[n+](C)c2c1 (3D coordinates assigned)
Cc1cc(OCC[N+]2(C)CCCC2)c2c(NCC[NH+](C)C)c3ccccc3[n+](C)c2c1 (nonaromatic ring conformer: 112.87731044368486 kcal/mol)

>  <smiles>  (6) 
Cc1cc(OCC[N+]2(C)CCCC2)c2c(NCCN(C)C)c3ccccc3[n+](C)c2c1

>  <score_type>  (6) 
oracle

>  <origin>  (6) 
adg

>  <m_score__min__energy>  (6) 
-3.2200000000000002

>  <m_primary>  (6) 
energy

$$$$
6:0
     RDKit          3D

 42 44  0  0  0  0  0  0  0  0999 V2000
   56.0220   30.1110   43.6770 C   0  0  0  0  0  0  0  0  0  0  0  0
   57.3570   29.7290   44.2280 C   0  0  0  0  0  0  0  0  0  0  0  0
   57.6830   28.4770   44.6060 N   0  0  0  0  0  0  0  0  0  0  0  0
   58.9080   28.5230   45.1060 N   0  0  0  0  0  0  0  0  0  0  0  0
   59.5880   27.3770   45.6920 C   0  0  0  0  0  0  0  0  0  0  0  0
   59.3710   29.7880   45.0920 C   0  0  0  0  0  0  0  0  0  0  0  0
   58.3990   30.5900   44.5290 C   0  0  0  0  0  0  0  0  0  0  0  0
   58.4460   32.0780   44.3550 C   0  0  0  0  0  0  0  0  0  0  0  0
   57.6040   32.7400   45.3740 N   0  0  0  0  0  0  0  0  0  0  0  0
   57.7710   32.1390   46.7280 C   0  0  0  0  0  0  0  0  0  0  0  0
   58.5450   33.0270   47.7230 C   0  0  0  0  0  0  0  0  0  0  0  0
   59.5600   33.8150   47.0230 N   0  0  0  0  0  0  0  0  0  0  0  0
   60.9440   33.6910   47.3810 C   0  0  0  0  0  0  0  0  0  0  0  0
   61.9060   33.5360   46.3720 C   0  0  0  0  0  0  0  0  0  0  0  0
   63.2600   33.4270   46.6990 C   0  0  0  0  0  0  0  0  0  0  0  0
   63.6620   33.4670   48.0360 C   0  0  0  0  0  0  0  0  0  0  0  0
   62.7100   33.6100   49.0480 C   0  0  0  0  0  0  0  0  0  0  0  0
   61.3510   33.7200   48.7290 C   0  0  0  0  0  0  0  0  0  0  0  0
   60.1810   33.8410   50.0360 Cl  0  0  0  0  0  0  0  0  0  0  0  0
   59.1780   34.6100   45.8530 C   0  0  0  0  0  0  0  0  0  0  0  0
   57.7780   34.2080   45.3630 C   0  0  0  0  0  0  0  0  0  0  0  0
   55.3266   30.3100   44.5057 H   0  0  0  0  0  0  0  0  0  0  0  0
   56.1253   31.0156   43.0598 H   0  0  0  0  0  0  0  0  0  0  0  0
   55.6311   29.2887   43.0598 H   0  0  0  0  0  0  0  0  0  0  0  0
   59.5462   27.4474   46.7890 H   0  0  0  0  0  0  0  0  0  0  0  0
   59.0934   26.4505   45.3649 H   0  0  0  0  0  0  0  0  0  0  0  0
   60.6382   27.3671   45.3649 H   0  0  0  0  0  0  0  0  0  0  0  0
   60.3507   30.1227   45.4636 H   0  0  0  0  0  0  0  0  0  0  0  0
   59.4848   32.4234   44.4624 H   0  0  0  0  0  0  0  0  0  0  0  0
   58.0656   32.3338   43.3551 H   0  0  0  0  0  0  0  0  0  0  0  0
   56.7717   31.9443   47.1446 H   0  0  0  0  0  0  0  0  0  0  0  0
   58.3639   31.2219   46.5957 H   0  0  0  0  0  0  0  0  0  0  0  0
   57.8410   33.7071   48.2249 H   0  0  0  0  0  0  0  0  0  0  0  0
   59.0421   32.3828   48.4632 H   0  0  0  0  0  0  0  0  0  0  0  0
   61.5929   33.5001   45.3181 H   0  0  0  0  0  0  0  0  0  0  0  0
   64.0099   33.3096   45.9029 H   0  0  0  0  0  0  0  0  0  0  0  0
   64.7287   33.3859   48.2921 H   0  0  0  0  0  0  0  0  0  0  0  0
   63.0293   33.6363   50.1003 H   0  0  0  0  0  0  0  0  0  0  0  0
   59.1741   35.6758   46.1251 H   0  0  0  0  0  0  0  0  0  0  0  0
   59.9033   34.4273   45.0465 H   0  0  0  0  0  0  0  0  0  0  0  0
   57.0238   34.6628   46.0220 H   0  0  0  0  0  0  0  0  0  0  0  0
   57.6577   34.5633   44.3289 H   0  0  0  0  0  0  0  0  0  0  0  0
  1  2  1  0
  2  3  2  0
  3  4  1  0
  4  5  1  0
  4  6  1  0
  6  7  2  0
  7  8  1  0
  8  9  1  0
  9 10  1  0
 10 11  1  0
 11 12  1  0
 12 13  1  0
 13 14  2  0
 14 15  1  0
 15 16  2  0
 16 17  1  0
 17 18  2  0
 18 19  1  0
 12 20  1  0
 20 21  1  0
  7  2  1  0
 21  9  1  0
 18 13  1  0
  1 22  1  0
  1 23  1  0
  1 24  1  0
  5 25  1  0
  5 26  1  0
  5 27  1  0
  6 28  1  0
  8 29  1  0
  8 30  1  0
 10 31  1  0
 10 32  1  0
 11 33  1  0
 11 34  1  0
 14 35  1  0
 15 36  1  0
 16 37  1  0
 17 38  1  0
 20 39  1  0
 20 40  1  0
 21 41  1  0
 21 42  1  0
M  END
>  <UniqueID>  (7) 
7

>  <SMILES>  (7) 
Cc1nn(C)cc1CN1CCN(c2ccccc2Cl)CC1

>  <Energy>  (7) 
83.21620844747326

>  <Genealogy>  (7) 
Cc1nn(C)cc1CN1CCN(c2ccccc2Cl)CC1 (3D coordinates assigned)
Cc1nn(C)cc1CN1CCN(c2ccccc2Cl)CC1 (nonaromatic ring conformer: 83.21620844747326 kcal/mol)

>  <smiles>  (7) 
Cc1nn(C)cc1CN1CCN(c2ccccc2Cl)CC1

>  <score_type>  (7) 
oracle

>  <origin>  (7) 
adg

>  <m_score__min__energy>  (7) 
-7.3399999999999999

>  <m_primary>  (7) 
energy

$$$$
7:0
     RDKit          3D

 65 67  0  0  0  0  0  0  0  0999 V2000
   58.5400   34.1370   52.4300 C   0  0  0  0  0  0  0  0  0  0  0  0
   59.7180   33.4640   51.7260 C   0  0  0  0  0  0  0  0  0  0  0  0
   59.3260   32.9800   50.3910 N   0  0  0  0  0  0  0  0  0  0  0  0
   58.2530   31.9620   50.4670 C   0  0  0  0  0  0  0  0  0  0  0  0
   58.7960   30.5210   50.5640 C   0  0  0  0  0  0  0  0  0  0  0  0
   59.0960   29.8580   49.2100 C   0  0  0  0  0  0  0  0  0  0  0  0
   60.5400   30.0840   48.7480 C   0  0  0  0  0  0  0  0  0  0  0  0
   60.5700   30.9120   47.5430 N   0  0  0  0  0  0  0  0  0  0  0  0
   59.5440   30.8030   46.5410 C   0  0  0  0  0  0  0  0  0  0  0  0
   59.2830   29.5490   45.9540 C   0  0  0  0  0  0  0  0  0  0  0  0
   59.9500   28.3860   46.4030 C   0  0  0  0  0  0  0  0  0  0  0  0
   59.7420   27.1580   45.7810 C   0  0  0  0  0  0  0  0  0  0  0  0
   58.8810   27.0660   44.6970 C   0  0  0  0  0  0  0  0  0  0  0  0
   58.2020   28.1950   44.2430 C   0  0  0  0  0  0  0  0  0  0  0  0
   58.3590   29.4530   44.8810 C   0  0  0  0  0  0  0  0  0  0  0  0
   57.6640   30.5690   44.4630 N   0  0  0  0  0  0  0  0  0  0  0  0
   56.5180   30.4200   43.5360 C   0  0  0  0  0  0  0  0  0  0  0  0
   58.0070   31.8220   44.9390 C   0  0  0  0  0  0  0  0  0  0  0  0
   57.5150   32.9980   44.3250 C   0  0  0  0  0  0  0  0  0  0  0  0
   57.7810   34.2530   44.8570 C   0  0  0  0  0  0  0  0  0  0  0  0
   58.5210   34.3750   46.0230 C   0  0  0  0  0  0  0  0  0  0  0  0
   59.0620   33.2400   46.6500 C   0  0  0  0  0  0  0  0  0  0  0  0
   59.7440   33.3530   47.8770 O   0  0  0  0  0  0  0  0  0  0  0  0
   60.6700   34.3760   48.2420 C   0  0  0  0  0  0  0  0  0  0  0  0
   62.1100   33.8440   48.2030 C   0  0  0  0  0  0  0  0  0  0  0  0
   62.2880   32.7190   49.1440 N   0  0  0  0  0  0  0  0  0  0  0  0
   63.3350   31.7930   48.6740 C   0  0  0  0  0  0  0  0  0  0  0  0
   62.6560   33.2310   50.4740 C   0  0  0  0  0  0  0  0  0  0  0  0
   58.8810   31.9560   46.0540 C   0  0  0  0  0  0  0  0  0  0  0  0
   58.6722   34.0615   53.5194 H   0  0  0  0  0  0  0  0  0  0  0  0
   58.4956   35.1968   52.1386 H   0  0  0  0  0  0  0  0  0  0  0  0
   57.6045   33.6371   52.1386 H   0  0  0  0  0  0  0  0  0  0  0  0
   60.5368   34.1908   51.6195 H   0  0  0  0  0  0  0  0  0  0  0  0
   60.0435   32.6041   52.3299 H   0  0  0  0  0  0  0  0  0  0  0  0
   58.9730   33.7960   49.8400 H   0  0  0  0  0  0  0  0  0  0  0  0
   60.1670   32.6070   49.8910 H   0  0  0  0  0  0  0  0  0  0  0  0
   57.6386   32.1658   51.3563 H   0  0  0  0  0  0  0  0  0  0  0  0
   57.6668   32.0313   49.5388 H   0  0  0  0  0  0  0  0  0  0  0  0
   59.7274   30.5439   51.1487 H   0  0  0  0  0  0  0  0  0  0  0  0
   58.0047   29.9207   51.0367 H   0  0  0  0  0  0  0  0  0  0  0  0
   58.9210   28.7759   49.3015 H   0  0  0  0  0  0  0  0  0  0  0  0
   58.4322   30.3154   48.4616 H   0  0  0  0  0  0  0  0  0  0  0  0
   61.1009   30.5892   49.5481 H   0  0  0  0  0  0  0  0  0  0  0  0
   60.9968   29.1095   48.5208 H   0  0  0  0  0  0  0  0  0  0  0  0
   61.1930   31.7510   47.5370 H   0  0  0  0  0  0  0  0  0  0  0  0
   60.6425   28.4524   47.2551 H   0  0  0  0  0  0  0  0  0  0  0  0
   60.2605   26.2604   46.1491 H   0  0  0  0  0  0  0  0  0  0  0  0
   58.7339   26.0987   44.1943 H   0  0  0  0  0  0  0  0  0  0  0  0
   57.5323   28.1097   43.3745 H   0  0  0  0  0  0  0  0  0  0  0  0
   55.5909   30.2995   44.1156 H   0  0  0  0  0  0  0  0  0  0  0  0
   56.4403   31.3156   42.9021 H   0  0  0  0  0  0  0  0  0  0  0  0
   56.6719   29.5343   42.9021 H   0  0  0  0  0  0  0  0  0  0  0  0
   56.9107   32.9167   43.4095 H   0  0  0  0  0  0  0  0  0  0  0  0
   57.4031   35.1538   44.3512 H   0  0  0  0  0  0  0  0  0  0  0  0
   58.6862   35.3702   46.4616 H   0  0  0  0  0  0  0  0  0  0  0  0
   60.5762   35.2159   47.5379 H   0  0  0  0  0  0  0  0  0  0  0  0
   60.4437   34.7089   49.2657 H   0  0  0  0  0  0  0  0  0  0  0  0
   62.3379   33.4990   47.1837 H   0  0  0  0  0  0  0  0  0  0  0  0
   62.7903   34.6565   48.4978 H   0  0  0  0  0  0  0  0  0  0  0  0
   63.8429   31.3438   49.5401 H   0  0  0  0  0  0  0  0  0  0  0  0
   62.8765   30.9995   48.0656 H   0  0  0  0  0  0  0  0  0  0  0  0
   64.0666   32.3450   48.0656 H   0  0  0  0  0  0  0  0  0  0  0  0
   62.2007   32.5976   51.2496 H   0  0  0  0  0  0  0  0  0  0  0  0
   63.7504   33.2148   50.5832 H   0  0  0  0  0  0  0  0  0  0  0  0
   62.2918   34.2632   50.5832 H   0  0  0  0  0  0  0  0  0  0  0  0
  1  2  1  0
  2  3  1  0
  3  4  1  0
  4  5  1  0
  5  6  1  0
  6  7  1  0
  7  8  1  0
  8  9  1  0
  9 10  2  0
 10 11  1  0
 11 12  2  0
 12 13  1  0
 13 14  2  0
 14 15  1  0
 15 16  2  0
 16 17  1  0
 16 18  1  0
 18 19  2  0
 19 20  1  0
 20 21  2  0
 21 22  1  0
 22 23  1  0
 23 24  1  0
 24 25  1  0
 25 26  1  0
 26 27  1  0
 26 28  1  0
 22 29  2  0
 29  9  1  0
 15 10  1  0
 29 18  1  0
  1 30  1  0
  1 31  1  0
  1 32  1  0
  2 33  1  0
  2 34  1  0
  3 35  1  0
  3 36  1  0
  4 37  1  0
  4 38  1  0
  5 39  1  0
  5 40  1  0
  6 41  1  0
  6 42  1  0
  7 43  1  0
  7 44  1  0
  8 45  1  0
 11 46  1  0
 12 47  1  0
 13 48  1  0
 14 49  1  0
 17 50  1  0
 17 51  1  0
 17 52  1  0
 19 53  1  0
 20 54  1  0
 21 55  1  0
 24 56  1  0
 24 57  1  0
 25 58  1  0
 25 59  1  0
 27 60  1  0
 27 61  1  0
 27 62  1  0
 28 63  1  0
 28 64  1  0
 28 65  1  0
M  CHG  2   3   1  16   1
M  END
>  <UniqueID>  (8) 
8

>  <SMILES>  (8) 
CC[NH2+]CCCCNc1c2ccccc2[n+](C)c2cccc(OCCN(C)C)c12

>  <Energy>  (8) 
88.8933536245273

>  <Genealogy>  (8) 
CC[NH2+]CCCCNc1c2ccccc2[n+](C)c2cccc(OCCN(C)C)c12 (protonated)
CC[NH2+]CCCCNc1c2ccccc2[n+](C)c2cccc(OCCN(C)C)c12 (3D coordinates assigned)
CC[NH2+]CCCCNc1c2ccccc2[n+](C)c2cccc(OCCN(C)C)c12 (optimized conformer: 88.8933536245273 kcal/mol)

>  <smiles>  (8) 
CCNCCCCNc1c2ccccc2[n+](C)c2cccc(OCCN(C)C)c12

>  <score_type>  (8) 
oracle

>  <origin>  (8) 
adg

>  <m_score__min__energy>  (8) 
-3.6099999999999999

>  <m_primary>  (8) 
energy

$$$$
8:0
     RDKit          3D

 62 64  0  0  0  0  0  0  0  0999 V2000
   56.9890   29.0530   43.1170 C   0  0  0  0  0  0  0  0  0  0  0  0
   56.2250   30.2310   43.7260 C   0  0  0  0  0  0  0  0  0  0  0  0
   56.9500   30.7850   44.8910 N   0  0  0  0  0  0  0  0  0  0  0  0
   57.2510   32.2310   44.7240 C   0  0  0  0  0  0  0  0  0  0  0  0
   57.9790   32.4500   43.4020 C   0  0  0  0  0  0  0  0  0  0  0  0
   58.1690   29.9940   45.1820 C   0  0  0  0  0  0  0  0  0  0  0  0
   58.4740   29.9900   46.6870 C   0  0  0  0  0  0  0  0  0  0  0  0
   59.4140   31.0000   47.0020 O   0  0  0  0  0  0  0  0  0  0  0  0
   60.6050   30.4550   47.5410 C   0  0  0  0  0  0  0  0  0  0  0  0
   60.3650   30.0810   48.9980 C   0  0  0  0  0  0  0  0  0  0  0  0
   59.1630   30.6790   49.4350 O   0  0  0  0  0  0  0  0  0  0  0  0
   59.3380   31.2220   50.7270 C   0  0  0  0  0  0  0  0  0  0  0  0
   58.6720   32.5940   50.7950 C   0  0  0  0  0  0  0  0  0  0  0  0
   59.6720   33.6600   50.6970 N   0  0  0  0  0  0  0  0  0  0  0  0
   60.7110   33.6070   49.7050 C   0  0  0  0  0  0  0  0  0  0  0  0
   60.4070   33.8140   48.3450 C   0  0  0  0  0  0  0  0  0  0  0  0
   59.1060   34.1870   47.9460 C   0  0  0  0  0  0  0  0  0  0  0  0
   58.8060   34.3900   46.6020 C   0  0  0  0  0  0  0  0  0  0  0  0
   59.7940   34.2380   45.6370 C   0  0  0  0  0  0  0  0  0  0  0  0
   61.0930   33.8900   46.0070 C   0  0  0  0  0  0  0  0  0  0  0  0
   61.4310   33.6690   47.3670 C   0  0  0  0  0  0  0  0  0  0  0  0
   62.7160   33.3290   47.7490 N   0  0  0  0  0  0  0  0  0  0  0  0
   63.7650   33.1260   46.7260 C   0  0  0  0  0  0  0  0  0  0  0  0
   63.0320   33.2000   49.0840 C   0  0  0  0  0  0  0  0  0  0  0  0
   64.3150   32.9240   49.4670 N   0  0  0  0  0  0  0  0  0  0  0  0
   64.6800   32.7770   50.7660 C   0  0  0  0  0  0  0  0  0  0  0  0
   63.7300   32.9040   51.7730 C   0  0  0  0  0  0  0  0  0  0  0  0
   62.4100   33.1880   51.4320 C   0  0  0  0  0  0  0  0  0  0  0  0
   62.0390   33.3410   50.0810 C   0  0  0  0  0  0  0  0  0  0  0  0
   57.3966   28.4245   43.9225 H   0  0  0  0  0  0  0  0  0  0  0  0
   56.3062   28.4552   42.4954 H   0  0  0  0  0  0  0  0  0  0  0  0
   57.8133   29.4326   42.4954 H   0  0  0  0  0  0  0  0  0  0  0  0
   56.1105   31.0177   42.9657 H   0  0  0  0  0  0  0  0  0  0  0  0
   55.2399   29.8750   44.0619 H   0  0  0  0  0  0  0  0  0  0  0  0
   56.3116   32.8034   44.7244 H   0  0  0  0  0  0  0  0  0  0  0  0
   57.8881   32.5708   45.5538 H   0  0  0  0  0  0  0  0  0  0  0  0
   59.0150   32.7616   43.6011 H   0  0  0  0  0  0  0  0  0  0  0  0
   57.9823   31.5131   42.8256 H   0  0  0  0  0  0  0  0  0  0  0  0
   57.4648   33.2332   42.8256 H   0  0  0  0  0  0  0  0  0  0  0  0
   58.0160   28.9588   44.8429 H   0  0  0  0  0  0  0  0  0  0  0  0
   59.0185   30.4504   44.6527 H   0  0  0  0  0  0  0  0  0  0  0  0
   57.5443   30.1729   47.2458 H   0  0  0  0  0  0  0  0  0  0  0  0
   58.8946   29.0119   46.9635 H   0  0  0  0  0  0  0  0  0  0  0  0
   60.8903   29.5577   46.9722 H   0  0  0  0  0  0  0  0  0  0  0  0
   61.4151   31.1964   47.4765 H   0  0  0  0  0  0  0  0  0  0  0  0
   60.2874   28.9876   49.0899 H   0  0  0  0  0  0  0  0  0  0  0  0
   61.2027   30.4371   49.6155 H   0  0  0  0  0  0  0  0  0  0  0  0
   58.8793   30.5541   51.4710 H   0  0  0  0  0  0  0  0  0  0  0  0
   60.4123   31.3241   50.9402 H   0  0  0  0  0  0  0  0  0  0  0  0
   57.9584   32.6907   49.9635 H   0  0  0  0  0  0  0  0  0  0  0  0
   58.1496   32.6864   51.7586 H   0  0  0  0  0  0  0  0  0  0  0  0
   59.7900   34.3000   51.5140 H   0  0  0  0  0  0  0  0  0  0  0  0
   58.3207   34.3187   48.7049 H   0  0  0  0  0  0  0  0  0  0  0  0
   57.7853   34.6712   46.3035 H   0  0  0  0  0  0  0  0  0  0  0  0
   59.5504   34.3929   44.5756 H   0  0  0  0  0  0  0  0  0  0  0  0
   61.8671   33.7853   45.2326 H   0  0  0  0  0  0  0  0  0  0  0  0
   64.7292   32.9394   47.2215 H   0  0  0  0  0  0  0  0  0  0  0  0
   63.5023   32.2620   46.0979 H   0  0  0  0  0  0  0  0  0  0  0  0
   63.8436   34.0256   46.0979 H   0  0  0  0  0  0  0  0  0  0  0  0
   65.7271   32.5575   51.0219 H   0  0  0  0  0  0  0  0  0  0  0  0
   64.0178   32.7815   52.8276 H   0  0  0  0  0  0  0  0  0  0  0  0
   61.6521   33.2936   52.2222 H   0  0  0  0  0  0  0  0  0  0  0  0
  1  2  1  0
  2  3  1  0
  3  4  1  0
  4  5  1  0
  3  6  1  0
  6  7  1  0
  7  8  1  0
  8  9  1  0
  9 10  1  0
 10 11  1  0
 11 12  1  0
 12 13  1  0
 13 14  1  0
 14 15  1  0
 15 16  2  0
 16 17  1  0
 17 18  2  0
 18 19  1  0
 19 20  2  0
 20 21  1  0
 21 22  2  0
 22 23  1  0
 22 24  1  0
 24 25  2  0
 25 26  1  0
 26 27  2  0
 27 28  1  0
 28 29  2  0
 29 15  1  0
 21 16  1  0
 29 24  1  0
  1 30  1  0
  1 31  1  0
  1 32  1  0
  2 33  1  0
  2 34  1  0
  4 35  1  0
  4 36  1  0
  5 37  1  0
  5 38  1  0
  5 39  1  0
  6 40  1  0
  6 41  1  0
  7 42  1  0
  7 43  1  0
  9 44  1  0
  9 45  1  0
 10 46  1  0
 10 47  1  0
 12 48  1  0
 12 49  1  0
 13 50  1  0
 13 51  1  0
 14 52  1  0
 17 53  1  0
 18 54  1  0
 19 55  1  0
 20 56  1  0
 23 57  1  0
 23 58  1  0
 23 59  1  0
 26 60  1  0
 27 61  1  0
 28 62  1  0
M  CHG  1  22   1
M  END
>  <UniqueID>  (9) 
9

>  <SMILES>  (9) 
CCN(CC)CCOCCOCCNc1c2ccccc2[n+](C)c2ncccc12

>  <Energy>  (9) 
79.19938056571945

>  <Genealogy>  (9) 
CCN(CC)CCOCCOCCNc1c2ccccc2[n+](C)c2ncccc12 (3D coordinates assigned)
CCN(CC)CCOCCOCCNc1c2ccccc2[n+](C)c2ncccc12 (optimized conformer: 79.19938056571945 kcal/mol)

>  <smiles>  (9) 
CCN(CC)CCOCCOCCNc1c2ccccc2[n+](C)c2ncccc12

>  <score_type>  (9) 
oracle

>  <origin>  (9) 
adg

>  <m_score__min__energy>  (9) 
-6.0499999999999998

>  <m_primary>  (9) 
energy

$$$$
9:0
     RDKit          3D

 77 80  0  0  0  0  0  0  0  0999 V2000
   63.1520   33.8590   46.5840 C   0  0  0  0  0  0  0  0  0  0  0  0
   63.3700   32.5710   47.3920 C   0  0  0  0  0  0  0  0  0  0  0  0
   62.8360   32.6160   48.7810 N   0  0  0  0  0  0  0  0  0  0  0  0
   63.7150   33.3570   49.7240 C   0  0  0  0  0  0  0  0  0  0  0  0
   62.9970   34.5210   50.4200 C   0  0  0  0  0  0  0  0  0  0  0  0
   62.5380   31.2500   49.2910 C   0  0  0  0  0  0  0  0  0  0  0  0
   61.5140   30.5100   48.4080 C   0  0  0  0  0  0  0  0  0  0  0  0
   60.2710   30.1000   49.2050 C   0  0  0  0  0  0  0  0  0  0  0  0
   59.1050   30.8700   48.7640 N   0  0  0  0  0  0  0  0  0  0  0  0
   58.9630   31.3180   47.4080 C   0  0  0  0  0  0  0  0  0  0  0  0
   58.5500   30.4030   46.4230 C   0  0  0  0  0  0  0  0  0  0  0  0
   58.3720   29.0360   46.7300 C   0  0  0  0  0  0  0  0  0  0  0  0
   58.0410   28.1170   45.7380 C   0  0  0  0  0  0  0  0  0  0  0  0
   57.8790   28.5410   44.4250 C   0  0  0  0  0  0  0  0  0  0  0  0
   58.0060   29.8920   44.1060 C   0  0  0  0  0  0  0  0  0  0  0  0
   58.2980   30.8570   45.1040 C   0  0  0  0  0  0  0  0  0  0  0  0
   58.3370   32.2060   44.8190 N   0  0  0  0  0  0  0  0  0  0  0  0
   57.7440   32.7070   43.5580 C   0  0  0  0  0  0  0  0  0  0  0  0
   58.8860   33.0920   45.7280 C   0  0  0  0  0  0  0  0  0  0  0  0
   59.1700   34.4300   45.3600 C   0  0  0  0  0  0  0  0  0  0  0  0
   59.6630   35.3420   46.2810 C   0  0  0  0  0  0  0  0  0  0  0  0
   59.9100   34.9530   47.5870 C   0  0  0  0  0  0  0  0  0  0  0  0
   59.6910   33.6280   47.9980 C   0  0  0  0  0  0  0  0  0  0  0  0
   60.0270   33.2380   49.3050 O   0  0  0  0  0  0  0  0  0  0  0  0
   59.5230   33.8350   50.5030 C   0  0  0  0  0  0  0  0  0  0  0  0
   59.9590   33.0040   51.7310 C   0  0  0  0  0  0  0  0  0  0  0  0
   58.8830   32.1610   52.3460 N   0  0  0  0  0  0  0  0  0  0  0  0
   58.7950   32.4430   53.8040 C   0  0  0  0  0  0  0  0  0  0  0  0
   59.2730   30.7320   52.1520 C   0  0  0  0  0  0  0  0  0  0  0  0
   58.1680   29.7390   52.5920 C   0  0  0  0  0  0  0  0  0  0  0  0
   56.8850   30.3310   52.6970 O   0  0  0  0  0  0  0  0  0  0  0  0
   56.6570   31.1800   51.5980 C   0  0  0  0  0  0  0  0  0  0  0  0
   57.5660   32.4240   51.6750 C   0  0  0  0  0  0  0  0  0  0  0  0
   59.1860   32.6740   47.0600 C   0  0  0  0  0  0  0  0  0  0  0  0
   63.0089   34.7044   47.2731 H   0  0  0  0  0  0  0  0  0  0  0  0
   64.0310   34.0474   45.9501 H   0  0  0  0  0  0  0  0  0  0  0  0
   62.2599   33.7476   45.9501 H   0  0  0  0  0  0  0  0  0  0  0  0
   62.8760   31.7442   46.8606 H   0  0  0  0  0  0  0  0  0  0  0  0
   64.4583   32.4367   47.4793 H   0  0  0  0  0  0  0  0  0  0  0  0
   61.9310   33.1420   48.7180 H   0  0  0  0  0  0  0  0  0  0  0  0
   64.0748   32.6568   50.4923 H   0  0  0  0  0  0  0  0  0  0  0  0
   64.5430   33.7827   49.1382 H   0  0  0  0  0  0  0  0  0  0  0  0
   63.0724   34.3988   51.5106 H   0  0  0  0  0  0  0  0  0  0  0  0
   63.4664   35.4708   50.1242 H   0  0  0  0  0  0  0  0  0  0  0  0
   61.9376   34.5278   50.1242 H   0  0  0  0  0  0  0  0  0  0  0  0
   63.4716   30.6688   49.3139 H   0  0  0  0  0  0  0  0  0  0  0  0
   62.1054   31.3519   50.2972 H   0  0  0  0  0  0  0  0  0  0  0  0
   61.2076   31.1728   47.5854 H   0  0  0  0  0  0  0  0  0  0  0  0
   61.9905   29.5970   48.0215 H   0  0  0  0  0  0  0  0  0  0  0  0
   60.0777   29.0284   49.0493 H   0  0  0  0  0  0  0  0  0  0  0  0
   60.4487   30.3008   50.2718 H   0  0  0  0  0  0  0  0  0  0  0  0
   58.3140   31.0590   49.4190 H   0  0  0  0  0  0  0  0  0  0  0  0
   58.4967   28.6926   47.7676 H   0  0  0  0  0  0  0  0  0  0  0  0
   57.9078   27.0555   45.9938 H   0  0  0  0  0  0  0  0  0  0  0  0
   57.6502   27.8095   43.6359 H   0  0  0  0  0  0  0  0  0  0  0  0
   57.8776   30.2154   43.0625 H   0  0  0  0  0  0  0  0  0  0  0  0
   56.9225   33.4010   43.7895 H   0  0  0  0  0  0  0  0  0  0  0  0
   58.5141   33.2322   42.9739 H   0  0  0  0  0  0  0  0  0  0  0  0
   57.3548   31.8600   42.9739 H   0  0  0  0  0  0  0  0  0  0  0  0
   58.9960   34.7522   44.3227 H   0  0  0  0  0  0  0  0  0  0  0  0
   59.8589   36.3796   45.9727 H   0  0  0  0  0  0  0  0  0  0  0  0
   60.2826   35.6916   48.3120 H   0  0  0  0  0  0  0  0  0  0  0  0
   59.9192   34.8570   50.5954 H   0  0  0  0  0  0  0  0  0  0  0  0
   58.4243   33.8637   50.4578 H   0  0  0  0  0  0  0  0  0  0  0  0
   60.7763   32.3376   51.4181 H   0  0  0  0  0  0  0  0  0  0  0  0
   60.2552   33.7308   52.5017 H   0  0  0  0  0  0  0  0  0  0  0  0
   59.0761   31.5422   54.3693 H   0  0  0  0  0  0  0  0  0  0  0  0
   59.4793   33.2652   54.0604 H   0  0  0  0  0  0  0  0  0  0  0  0
   57.7645   32.7301   54.0604 H   0  0  0  0  0  0  0  0  0  0  0  0
   59.4870   30.5685   51.0855 H   0  0  0  0  0  0  0  0  0  0  0  0
   60.1554   30.5429   52.7810 H   0  0  0  0  0  0  0  0  0  0  0  0
   58.1167   28.9256   51.8533 H   0  0  0  0  0  0  0  0  0  0  0  0
   58.4397   29.3760   53.5942 H   0  0  0  0  0  0  0  0  0  0  0  0
   56.8711   30.6329   50.6680 H   0  0  0  0  0  0  0  0  0  0  0  0
   55.6068   31.5067   51.6142 H   0  0  0  0  0  0  0  0  0  0  0  0
   57.7607   32.7771   50.6516 H   0  0  0  0  0  0  0  0  0  0  0  0
   57.0376   33.1746   52.2811 H   0  0  0  0  0  0  0  0  0  0  0  0
  1  2  1  0
  2  3  1  0
  3  4  1  0
  4  5  1  0
  3  6  1  0
  6  7  1  0
  7  8  1  0
  8  9  1  0
  9 10  1  0
 10 11  2  0
 11 12  1  0
 12 13  2  0
 13 14  1  0
 14 15  2  0
 15 16  1  0
 16 17  2  0
 17 18  1  0
 17 19  1  0
 19 20  2  0
 20 21  1  0
 21 22  2  0
 22 23  1  0
 23 24  1  0
 24 25  1  0
 25 26  1  0
 26 27  1  0
 27 28  1  0
 27 29  1  0
 29 30  1  0
 30 31  1  0
 31 32  1  0
 32 33  1  0
 23 34  2  0
 34 10  1  0
 16 11  1  0
 34 19  1  0
 33 27  1  0
  1 35  1  0
  1 36  1  0
  1 37  1  0
  2 38  1  0
  2 39  1  0
  3 40  1  0
  4 41  1  0
  4 42  1  0
  5 43  1  0
  5 44  1  0
  5 45  1  0
  6 46  1  0
  6 47  1  0
  7 48  1  0
  7 49  1  0
  8 50  1  0
  8 51  1  0
  9 52  1  0
 12 53  1  0
 13 54  1  0
 14 55  1  0
 15 56  1  0
 18 57  1  0
 18 58  1  0
 18 59  1  0
 20 60  1  0
 21 61  1  0
 22 62  1  0
 25 63  1  0
 25 64  1  0
 26 65  1  0
 26 66  1  0
 28 67  1  0
 28 68  1  0
 28 69  1  0
 29 70  1  0
 29 71  1  0
 30 72  1  0
 30 73  1  0
 32 74  1  0
 32 75  1  0
 33 76  1  0
 33 77  1  0
M  CHG  3   3   1  17   1  27   1
M  END
>  <UniqueID>  (10) 
10

>  <SMILES>  (10) 
CC[NH+](CC)CCCNc1c2ccccc2[n+](C)c2cccc(OCC[N+]3(C)CCOCC3)c12

>  <Energy>  (10) 
128.60277323054262

>  <Genealogy>  (10) 
CC[NH+](CC)CCCNc1c2ccccc2[n+](C)c2cccc(OCC[N+]3(C)CCOCC3)c12 (protonated)
CC[NH+](CC)CCCNc1c2ccccc2[n+](C)c2cccc(OCC[N+]3(C)CCOCC3)c12 (3D coordinates assigned)
CC[NH+](CC)CCCNc1c2ccccc2[n+](C)c2cccc(OCC[N+]3(C)CCOCC3)c12 (nonaromatic ring conformer: 128.60277323054262 kcal/mol)

>  <smiles>  (10) 
CCN(CC)CCCNc1c2ccccc2[n+](C)c2cccc(OCC[N+]3(C)CCOCC3)c12

>  <score_type>  (10) 
oracle

>  <origin>  (10) 
adg

>  <m_score__min__energy>  (10) 
-4.0999999999999996

>  <m_primary>  (10) 
energy

$$$$
10:0
     RDKit          3D

 38 39  0  0  0  0  0  0  0  0999 V2000
   57.0330   24.5610   44.2190 C   0  0  0  0  0  0  0  0  0  0  0  0
   56.0460   24.5340   45.1190 C   0  0  0  0  0  0  0  0  0  0  0  0
   56.0690   25.4190   46.3310 C   0  0  0  0  0  0  0  0  0  0  0  0
   55.4990   26.7250   46.0210 N   0  0  0  0  0  0  0  0  0  0  0  0
   56.2820   27.8520   45.6150 C   0  0  0  0  0  0  0  0  0  0  0  0
   55.7260   28.8840   45.1520 O   0  0  0  0  0  0  0  0  0  0  0  0
   57.7730   27.7870   45.7080 C   0  0  0  0  0  0  0  0  0  0  0  0
   58.5730   28.6110   44.2880 S   0  0  0  0  0  0  0  0  0  0  0  0
   58.5420   30.2610   45.0170 C   0  0  0  0  0  0  0  0  0  0  0  0
   59.1850   30.4260   46.2010 N   0  0  0  0  0  0  0  0  0  0  0  0
   59.2160   31.6190   46.8370 C   0  0  0  0  0  0  0  0  0  0  0  0
   59.8790   31.7420   48.0630 C   0  0  0  0  0  0  0  0  0  0  0  0
   59.9090   32.9750   48.7210 C   0  0  0  0  0  0  0  0  0  0  0  0
   59.2790   34.0870   48.1550 C   0  0  0  0  0  0  0  0  0  0  0  0
   58.6170   33.9710   46.9290 C   0  0  0  0  0  0  0  0  0  0  0  0
   58.5810   32.7320   46.2600 C   0  0  0  0  0  0  0  0  0  0  0  0
   57.9360   32.5630   45.0240 C   0  0  0  0  0  0  0  0  0  0  0  0
   57.3810   33.5550   44.4710 O   0  0  0  0  0  0  0  0  0  0  0  0
   57.9110   31.3290   44.4140 N   0  0  0  0  0  0  0  0  0  0  0  0
   57.2540   31.1970   43.0960 C   0  0  0  0  0  0  0  0  0  0  0  0
   57.9520   32.0410   42.0640 C   0  0  0  0  0  0  0  0  0  0  0  0
   57.3730   32.3560   40.9030 C   0  0  0  0  0  0  0  0  0  0  0  0
   56.9929   23.9024   43.3389 H   0  0  0  0  0  0  0  0  0  0  0  0
   57.8857   25.2418   44.3581 H   0  0  0  0  0  0  0  0  0  0  0  0
   55.1987   23.8488   44.9686 H   0  0  0  0  0  0  0  0  0  0  0  0
   55.4816   24.9490   47.1336 H   0  0  0  0  0  0  0  0  0  0  0  0
   57.1121   25.5536   46.6533 H   0  0  0  0  0  0  0  0  0  0  0  0
   58.0946   28.2829   46.6358 H   0  0  0  0  0  0  0  0  0  0  0  0
   58.0717   26.7283   45.7039 H   0  0  0  0  0  0  0  0  0  0  0  0
   60.3767   30.8683   48.5091 H   0  0  0  0  0  0  0  0  0  0  0  0
   60.4291   33.0703   49.6856 H   0  0  0  0  0  0  0  0  0  0  0  0
   59.3041   35.0558   48.6754 H   0  0  0  0  0  0  0  0  0  0  0  0
   58.1235   34.8487   46.4862 H   0  0  0  0  0  0  0  0  0  0  0  0
   57.2853   30.1434   42.7814 H   0  0  0  0  0  0  0  0  0  0  0  0
   56.2124   31.5392   43.1854 H   0  0  0  0  0  0  0  0  0  0  0  0
   58.9676   32.4087   42.2720 H   0  0  0  0  0  0  0  0  0  0  0  0
   57.9112   32.9751   40.1701 H   0  0  0  0  0  0  0  0  0  0  0  0
   56.3578   31.9964   40.6793 H   0  0  0  0  0  0  0  0  0  0  0  0
  1  2  2  0
  2  3  1  0
  3  4  1  0
  4  5  1  0
  5  6  2  0
  5  7  1  0
  7  8  1  0
  8  9  1  0
  9 10  2  0
 10 11  1  0
 11 12  2  0
 12 13  1  0
 13 14  2  0
 14 15  1  0
 15 16  2  0
 16 17  1  0
 17 18  2  0
 17 19  1  0
 19 20  1  0
 20 21  1  0
 21 22  2  0
 19  9  1  0
 16 11  1  0
  1 23  1  0
  1 24  1  0
  2 25  1  0
  3 26  1  0
  3 27  1  0
  7 28  1  0
  7 29  1  0
 12 30  1  0
 13 31  1  0
 14 32  1  0
 15 33  1  0
 20 34  1  0
 20 35  1  0
 21 36  1  0
 22 37  1  0
 22 38  1  0
M  CHG  1   4  -1
M  END
>  <UniqueID>  (11) 
11

>  <SMILES>  (11) 
C=CC[N-]C(=O)CSc1nc2ccccc2c(=O)n1CC=C

>  <Energy>  (11) 
32.36431976949903

>  <Genealogy>  (11) 
C=CC[N-]C(=O)CSc1nc2ccccc2c(=O)n1CC=C (protonated)
C=CC[N-]C(=O)CSc1nc2ccccc2c(=O)n1CC=C (3D coordinates assigned)
C=CC[N-]C(=O)CSc1nc2ccccc2c(=O)n1CC=C (optimized conformer: 32.36431976949903 kcal/mol)

>  <smiles>  (11) 
C=CCNC(=O)CSc1nc2ccccc2c(=O)n1CC=C

>  <score_type>  (11) 
oracle

>  <origin>  (11) 
adg

>  <m_score__min__energy>  (11) 
-9.0600000000000005

>  <m_primary>  (11) 
energy

$$$$
11:0
     RDKit          3D

 62 64  0  0  0  0  0  0  0  0999 V2000
   65.1740   32.5050   49.7870 C   0  0  0  0  0  0  0  0  0  0  0  0
   63.7180   32.0510   49.6880 C   0  0  0  0  0  0  0  0  0  0  0  0
   63.0460   32.5990   48.4880 N   0  0  0  0  0  0  0  0  0  0  0  0
   64.0080   33.1070   47.4840 C   0  0  0  0  0  0  0  0  0  0  0  0
   63.2560   33.8420   46.3800 C   0  0  0  0  0  0  0  0  0  0  0  0
   61.9510   33.5640   48.7680 C   0  0  0  0  0  0  0  0  0  0  0  0
   60.5840   32.9030   49.0630 C   0  0  0  0  0  0  0  0  0  0  0  0
   59.7980   32.6300   47.7710 C   0  0  0  0  0  0  0  0  0  0  0  0
   59.2810   33.8850   47.1810 N   0  0  0  0  0  0  0  0  0  0  0  0
   57.8050   33.8860   47.0990 C   0  0  0  0  0  0  0  0  0  0  0  0
   57.3010   33.0660   45.8990 C   0  0  0  0  0  0  0  0  0  0  0  0
   57.9540   33.4300   44.6110 N   0  0  0  0  0  0  0  0  0  0  0  0
   58.5080   32.2470   43.9120 C   0  0  0  0  0  0  0  0  0  0  0  0
   57.8650   30.9470   44.3790 C   0  0  0  0  0  0  0  0  0  0  0  0
   56.6240   30.5680   43.8340 C   0  0  0  0  0  0  0  0  0  0  0  0
   55.9770   29.4100   44.2500 C   0  0  0  0  0  0  0  0  0  0  0  0
   56.5590   28.5650   45.2060 C   0  0  0  0  0  0  0  0  0  0  0  0
   55.9050   27.4010   45.6500 O   0  0  0  0  0  0  0  0  0  0  0  0
   56.4630   26.0920   45.6140 C   0  0  0  0  0  0  0  0  0  0  0  0
   57.8300   28.8840   45.7240 C   0  0  0  0  0  0  0  0  0  0  0  0
   58.4480   28.0280   46.6570 C   0  0  0  0  0  0  0  0  0  0  0  0
   59.7220   28.3100   47.1440 C   0  0  0  0  0  0  0  0  0  0  0  0
   60.4050   29.4390   46.7010 C   0  0  0  0  0  0  0  0  0  0  0  0
   59.8140   30.3060   45.7810 C   0  0  0  0  0  0  0  0  0  0  0  0
   58.5070   30.0630   45.2930 C   0  0  0  0  0  0  0  0  0  0  0  0
   58.9590   34.5060   44.7460 C   0  0  0  0  0  0  0  0  0  0  0  0
   59.9450   34.2260   45.8940 C   0  0  0  0  0  0  0  0  0  0  0  0
   65.4592   32.5939   50.8457 H   0  0  0  0  0  0  0  0  0  0  0  0
   65.8227   31.7665   49.2933 H   0  0  0  0  0  0  0  0  0  0  0  0
   65.2880   33.4813   49.2933 H   0  0  0  0  0  0  0  0  0  0  0  0
   63.6912   30.9524   49.6393 H   0  0  0  0  0  0  0  0  0  0  0  0
   63.1851   32.4234   50.5754 H   0  0  0  0  0  0  0  0  0  0  0  0
   64.7128   33.7981   47.9694 H   0  0  0  0  0  0  0  0  0  0  0  0
   64.5613   32.2619   47.0485 H   0  0  0  0  0  0  0  0  0  0  0  0
   62.5381   34.5437   46.8298 H   0  0  0  0  0  0  0  0  0  0  0  0
   63.9715   34.3986   45.7569 H   0  0  0  0  0  0  0  0  0  0  0  0
   62.7159   33.1140   45.7569 H   0  0  0  0  0  0  0  0  0  0  0  0
   62.2381   34.1677   49.6416 H   0  0  0  0  0  0  0  0  0  0  0  0
   61.8207   34.1674   47.8575 H   0  0  0  0  0  0  0  0  0  0  0  0
   60.7535   31.9502   49.5860 H   0  0  0  0  0  0  0  0  0  0  0  0
   59.9950   33.5929   49.6852 H   0  0  0  0  0  0  0  0  0  0  0  0
   60.4623   32.1394   47.0443 H   0  0  0  0  0  0  0  0  0  0  0  0
   58.9427   31.9828   48.0150 H   0  0  0  0  0  0  0  0  0  0  0  0
   57.3963   33.4526   48.0237 H   0  0  0  0  0  0  0  0  0  0  0  0
   57.4696   34.9255   46.9690 H   0  0  0  0  0  0  0  0  0  0  0  0
   57.4954   32.0019   46.0988 H   0  0  0  0  0  0  0  0  0  0  0  0
   56.2281   33.2821   45.7888 H   0  0  0  0  0  0  0  0  0  0  0  0
   58.3333   32.3602   42.8319 H   0  0  0  0  0  0  0  0  0  0  0  0
   59.5825   32.1928   44.1412 H   0  0  0  0  0  0  0  0  0  0  0  0
   56.1571   31.2001   43.0642 H   0  0  0  0  0  0  0  0  0  0  0  0
   54.9960   29.1532   43.8238 H   0  0  0  0  0  0  0  0  0  0  0  0
   56.6170   25.7307   46.6415 H   0  0  0  0  0  0  0  0  0  0  0  0
   55.7754   25.4147   45.0863 H   0  0  0  0  0  0  0  0  0  0  0  0
   57.4278   26.1191   45.0863 H   0  0  0  0  0  0  0  0  0  0  0  0
   57.9191   27.1282   47.0042 H   0  0  0  0  0  0  0  0  0  0  0  0
   60.1893   27.6393   47.8801 H   0  0  0  0  0  0  0  0  0  0  0  0
   61.4167   29.6491   47.0784 H   0  0  0  0  0  0  0  0  0  0  0  0
   60.3698   31.1883   45.4308 H   0  0  0  0  0  0  0  0  0  0  0  0
   59.5223   34.5873   43.8047 H   0  0  0  0  0  0  0  0  0  0  0  0
   58.4287   35.4430   44.9715 H   0  0  0  0  0  0  0  0  0  0  0  0
   60.5890   33.3837   45.6013 H   0  0  0  0  0  0  0  0  0  0  0  0
   60.5158   35.1513   46.0613 H   0  0  0  0  0  0  0  0  0  0  0  0
  1  2  1  0
  2  3  1  0
  3  4  1  0
  4  5  1  0
  3  6  1  0
  6  7  1  0
  7  8  1  0
  8  9  1  0
  9 10  1  0
 10 11  1  0
 11 12  1  0
 12 13  1  0
 13 14  1  0
 14 15  2  0
 15 16  1  0
 16 17  2  0
 17 18  1  0
 18 19  1  0
 17 20  1  0
 20 21  2  0
 21 22  1  0
 22 23  2  0
 23 24  1  0
 24 25  2  0
 12 26  1  0
 26 27  1  0
 27  9  1  0
 25 14  1  0
 25 20  1  0
  1 28  1  0
  1 29  1  0
  1 30  1  0
  2 31  1  0
  2 32  1  0
  4 33  1  0
  4 34  1  0
  5 35  1  0
  5 36  1  0
  5 37  1  0
  6 38  1  0
  6 39  1  0
  7 40  1  0
  7 41  1  0
  8 42  1  0
  8 43  1  0
 10 44  1  0
 10 45  1  0
 11 46  1  0
 11 47  1  0
 13 48  1  0
 13 49  1  0
 15 50  1  0
 16 51  1  0
 19 52  1  0
 19 53  1  0
 19 54  1  0
 21 55  1  0
 22 56  1  0
 23 57  1  0
 24 58  1  0
 26 59  1  0
 26 60  1  0
 27 61  1  0
 27 62  1  0
M  END
>  <UniqueID>  (12) 
12

>  <SMILES>  (12) 
CCN(CC)CCCN1CCN(Cc2ccc(OC)c3ccccc23)CC1

>  <Energy>  (12) 
85.65024393186711

>  <Genealogy>  (12) 
CCN(CC)CCCN1CCN(Cc2ccc(OC)c3ccccc23)CC1 (3D coordinates assigned)
CCN(CC)CCCN1CCN(Cc2ccc(OC)c3ccccc23)CC1 (nonaromatic ring conformer: 85.65024393186711 kcal/mol)

>  <smiles>  (12) 
CCN(CC)CCCN1CCN(Cc2ccc(OC)c3ccccc23)CC1

>  <score_type>  (12) 
oracle

>  <origin>  (12) 
adg

>  <m_score__min__energy>  (12) 
-8.1400000000000006

>  <m_primary>  (12) 
energy

$$$$
12:0
     RDKit          3D

 72 75  0  0  0  0  0  0  0  0999 V2000
   62.9080   34.0060   49.0130 C   0  0  0  0  0  0  0  0  0  0  0  0
   64.1670   33.1600   48.8370 C   0  0  0  0  0  0  0  0  0  0  0  0
   64.0750   32.3260   47.6320 N   0  0  0  0  0  0  0  0  0  0  0  0
   62.6810   32.2390   47.1660 C   0  0  0  0  0  0  0  0  0  0  0  0
   61.9940   30.9500   47.6520 C   0  0  0  0  0  0  0  0  0  0  0  0
   60.5610   31.1580   47.8820 N   0  0  0  0  0  0  0  0  0  0  0  0
   59.6150   31.2490   46.8020 C   0  0  0  0  0  0  0  0  0  0  0  0
   59.3500   32.4840   46.1880 C   0  0  0  0  0  0  0  0  0  0  0  0
   59.8760   33.6830   46.7160 C   0  0  0  0  0  0  0  0  0  0  0  0
   59.5740   34.9100   46.1310 C   0  0  0  0  0  0  0  0  0  0  0  0
   58.7300   34.9660   45.0280 C   0  0  0  0  0  0  0  0  0  0  0  0
   58.1930   33.7950   44.4930 C   0  0  0  0  0  0  0  0  0  0  0  0
   58.5080   32.5270   45.0450 C   0  0  0  0  0  0  0  0  0  0  0  0
   58.0000   31.3560   44.5140 N   0  0  0  0  0  0  0  0  0  0  0  0
   57.3800   31.3590   43.1700 C   0  0  0  0  0  0  0  0  0  0  0  0
   58.0860   30.1780   45.2330 C   0  0  0  0  0  0  0  0  0  0  0  0
   57.3510   29.0230   44.8660 C   0  0  0  0  0  0  0  0  0  0  0  0
   57.4830   27.8280   45.5720 C   0  0  0  0  0  0  0  0  0  0  0  0
   58.3370   27.7490   46.6800 C   0  0  0  0  0  0  0  0  0  0  0  0
   58.4920   26.5810   47.4430 O   0  0  0  0  0  0  0  0  0  0  0  0
   57.8590   25.3280   47.1890 C   0  0  0  0  0  0  0  0  0  0  0  0
   58.3870   24.6350   45.9060 C   0  0  0  0  0  0  0  0  0  0  0  0
   57.3720   23.9540   45.0220 N   0  0  0  0  0  0  0  0  0  0  0  0
   57.2590   24.6880   43.7340 C   0  0  0  0  0  0  0  0  0  0  0  0
   56.0250   23.9950   45.6900 C   0  0  0  0  0  0  0  0  0  0  0  0
   55.7590   22.8210   46.6630 C   0  0  0  0  0  0  0  0  0  0  0  0
   57.0170   22.2120   47.1090 N   0  0  0  0  0  0  0  0  0  0  0  0
   56.7670   21.1960   48.1430 C   0  0  0  0  0  0  0  0  0  0  0  0
   57.7400   21.6200   45.9680 C   0  0  0  0  0  0  0  0  0  0  0  0
   57.7170   22.5340   44.7190 C   0  0  0  0  0  0  0  0  0  0  0  0
   59.0530   28.8810   47.0670 C   0  0  0  0  0  0  0  0  0  0  0  0
   58.9220   30.1030   46.3770 C   0  0  0  0  0  0  0  0  0  0  0  0
   62.7049   34.1425   50.0854 H   0  0  0  0  0  0  0  0  0  0  0  0
   63.0570   34.9880   48.5402 H   0  0  0  0  0  0  0  0  0  0  0  0
   62.0552   33.4970   48.5402 H   0  0  0  0  0  0  0  0  0  0  0  0
   65.0384   33.8255   48.7485 H   0  0  0  0  0  0  0  0  0  0  0  0
   64.2728   32.5019   49.7121 H   0  0  0  0  0  0  0  0  0  0  0  0
   64.4430   31.3730   47.8530 H   0  0  0  0  0  0  0  0  0  0  0  0
   64.6610   32.7500   46.8740 H   0  0  0  0  0  0  0  0  0  0  0  0
   62.1229   33.1059   47.5493 H   0  0  0  0  0  0  0  0  0  0  0  0
   62.6887   32.2279   46.0661 H   0  0  0  0  0  0  0  0  0  0  0  0
   62.1237   30.1670   46.8904 H   0  0  0  0  0  0  0  0  0  0  0  0
   62.4562   30.6509   48.6043 H   0  0  0  0  0  0  0  0  0  0  0  0
   60.2070   31.1870   48.8640 H   0  0  0  0  0  0  0  0  0  0  0  0
   60.5313   33.6476   47.5988 H   0  0  0  0  0  0  0  0  0  0  0  0
   60.0036   35.8355   46.5420 H   0  0  0  0  0  0  0  0  0  0  0  0
   58.4845   35.9379   44.5751 H   0  0  0  0  0  0  0  0  0  0  0  0
   57.5145   33.8559   43.6293 H   0  0  0  0  0  0  0  0  0  0  0  0
   56.2847   31.3643   43.2715 H   0  0  0  0  0  0  0  0  0  0  0  0
   57.7016   32.2556   42.6198 H   0  0  0  0  0  0  0  0  0  0  0  0
   57.6929   30.4593   42.6198 H   0  0  0  0  0  0  0  0  0  0  0  0
   56.6638   29.0703   44.0084 H   0  0  0  0  0  0  0  0  0  0  0  0
   56.9130   26.9415   45.2571 H   0  0  0  0  0  0  0  0  0  0  0  0
   58.0393   24.6633   48.0467 H   0  0  0  0  0  0  0  0  0  0  0  0
   56.7866   25.5235   47.0414 H   0  0  0  0  0  0  0  0  0  0  0  0
   58.8921   25.4016   45.3000 H   0  0  0  0  0  0  0  0  0  0  0  0
   59.0360   23.8243   46.2687 H   0  0  0  0  0  0  0  0  0  0  0  0
   57.0944   25.7570   43.9344 H   0  0  0  0  0  0  0  0  0  0  0  0
   58.1872   24.5617   43.1573 H   0  0  0  0  0  0  0  0  0  0  0  0
   56.4118   24.2884   43.1573 H   0  0  0  0  0  0  0  0  0  0  0  0
   55.9500   24.9351   46.2562 H   0  0  0  0  0  0  0  0  0  0  0  0
   55.2746   23.9161   44.8896 H   0  0  0  0  0  0  0  0  0  0  0  0
   55.2110   23.1973   47.5394 H   0  0  0  0  0  0  0  0  0  0  0  0
   55.1672   22.0573   46.1370 H   0  0  0  0  0  0  0  0  0  0  0  0
   56.8789   21.6506   49.1384 H   0  0  0  0  0  0  0  0  0  0  0  0
   55.7455   20.8034   48.0319 H   0  0  0  0  0  0  0  0  0  0  0  0
   57.4897   20.3742   48.0319 H   0  0  0  0  0  0  0  0  0  0  0  0
   58.7861   21.4496   46.2622 H   0  0  0  0  0  0  0  0  0  0  0  0
   57.2379   20.6775   45.7042 H   0  0  0  0  0  0  0  0  0  0  0  0
   58.7130   22.5103   44.2528 H   0  0  0  0  0  0  0  0  0  0  0  0
   56.9325   22.1475   44.0518 H   0  0  0  0  0  0  0  0  0  0  0  0
   59.7341   28.8191   47.9285 H   0  0  0  0  0  0  0  0  0  0  0  0
  1  2  1  0
  2  3  1  0
  3  4  1  0
  4  5  1  0
  5  6  1  0
  6  7  1  0
  7  8  2  0
  8  9  1  0
  9 10  2  0
 10 11  1  0
 11 12  2  0
 12 13  1  0
 13 14  2  0
 14 15  1  0
 14 16  1  0
 16 17  2  0
 17 18  1  0
 18 19  2  0
 19 20  1  0
 20 21  1  0
 21 22  1  0
 22 23  1  0
 23 24  1  0
 23 25  1  0
 25 26  1  0
 26 27  1  0
 27 28  1  0
 27 29  1  0
 29 30  1  0
 19 31  1  0
 31 32  2  0
 32  7  1  0
 13  8  1  0
 32 16  1  0
 30 23  1  0
  1 33  1  0
  1 34  1  0
  1 35  1  0
  2 36  1  0
  2 37  1  0
  3 38  1  0
  3 39  1  0
  4 40  1  0
  4 41  1  0
  5 42  1  0
  5 43  1  0
  6 44  1  0
  9 45  1  0
 10 46  1  0
 11 47  1  0
 12 48  1  0
 15 49  1  0
 15 50  1  0
 15 51  1  0
 17 52  1  0
 18 53  1  0
 21 54  1  0
 21 55  1  0
 22 56  1  0
 22 57  1  0
 24 58  1  0
 24 59  1  0
 24 60  1  0
 25 61  1  0
 25 62  1  0
 26 63  1  0
 26 64  1  0
 28 65  1  0
 28 66  1  0
 28 67  1  0
 29 68  1  0
 29 69  1  0
 30 70  1  0
 30 71  1  0
 31 72  1  0
M  CHG  3   3   1  14   1  23   1
M  END
>  <UniqueID>  (13) 
13

>  <SMILES>  (13) 
CC[NH2+]CCNc1c2ccccc2[n+](C)c2ccc(OCC[N+]3(C)CCN(C)CC3)cc12

>  <Energy>  (13) 
114.7070017131719

>  <Genealogy>  (13) 
CC[NH2+]CCNc1c2ccccc2[n+](C)c2ccc(OCC[N+]3(C)CCN(C)CC3)cc12 (protonated)
CC[NH2+]CCNc1c2ccccc2[n+](C)c2ccc(OCC[N+]3(C)CCN(C)CC3)cc12 (3D coordinates assigned)
CC[NH2+]CCNc1c2ccccc2[n+](C)c2ccc(OCC[N+]3(C)CCN(C)CC3)cc12 (nonaromatic ring conformer: 114.7070017131719 kcal/mol)

>  <smiles>  (13) 
CCNCCNc1c2ccccc2[n+](C)c2ccc(OCC[N+]3(C)CCN(C)CC3)cc12

>  <score_type>  (13) 
oracle

>  <origin>  (13) 
adg

>  <m_score__min__energy>  (13) 
-3.5699999999999998

>  <m_primary>  (13) 
energy

$$$$
13:0
     RDKit          3D

 37 40  0  0  1  0  0  0  0  0999 V2000
   56.2880   25.0420   47.1180 C   0  0  0  0  0  0  0  0  0  0  0  0
   56.3660   24.6980   45.6920 C   0  0  0  0  0  0  0  0  0  0  0  0
   55.4450   23.8400   45.1250 C   0  0  0  0  0  0  0  0  0  0  0  0
   55.4800   23.4880   43.7850 C   0  0  0  0  0  0  0  0  0  0  0  0
   56.4880   24.0350   43.0200 C   0  0  0  0  0  0  0  0  0  0  0  0
   57.4060   24.8920   43.5930 C   0  0  0  0  0  0  0  0  0  0  0  0
   57.3760   25.2470   44.9270 C   0  0  0  0  0  0  0  0  0  0  0  0
   58.3540   26.1240   45.4060 N   0  0  0  0  0  0  0  0  0  0  0  0
   59.5160   25.8310   46.0410 C   0  0  0  0  0  0  0  0  0  0  0  0
   60.1960   26.9940   46.3460 C   0  0  0  0  0  0  0  0  0  0  0  0
   59.4260   27.9990   45.8850 N   0  0  0  0  0  0  0  0  0  0  0  0
   58.3160   27.4860   45.3190 C   0  0  0  0  0  0  0  0  0  0  0  0
   57.0590   28.4660   44.6000 S   0  0  0  0  0  0  0  0  0  0  0  0
   55.5410   28.1390   45.2420 O   0  0  0  0  0  0  0  0  0  0  0  0
   57.4120   30.1460   44.8630 C   0  0  0  0  0  0  0  0  0  0  0  0
   56.6980   31.2300   44.5220 N   0  0  0  0  0  0  0  0  0  0  0  0
   57.3680   32.3210   44.9310 C   0  0  0  0  0  0  0  0  0  0  0  0
   57.1360   33.6960   44.8630 C   0  0  0  0  0  0  0  0  0  0  0  0
   58.0630   34.5940   45.4020 C   0  0  0  0  0  0  0  0  0  0  0  0
   59.2150   34.1320   46.0060 C   0  0  0  0  0  0  0  0  0  0  0  0
   59.4560   32.7840   46.0800 C   0  0  0  0  0  0  0  0  0  0  0  0
   58.5280   31.9210   45.5420 C   0  0  0  0  0  0  0  0  0  0  0  0
   58.5310   30.5790   45.4860 N   0  0  0  0  0  0  0  0  0  0  0  0
   56.4912   24.1460   47.7230 H   0  0  0  0  0  0  0  0  0  0  0  0
   57.0331   25.8174   47.3494 H   0  0  0  0  0  0  0  0  0  0  0  0
   55.2813   25.4202   47.3494 H   0  0  0  0  0  0  0  0  0  0  0  0
   54.6526   23.4194   45.7615 H   0  0  0  0  0  0  0  0  0  0  0  0
   54.7368   22.8028   43.3513 H   0  0  0  0  0  0  0  0  0  0  0  0
   56.5609   23.7880   41.9506 H   0  0  0  0  0  0  0  0  0  0  0  0
   58.1990   25.3120   42.9567 H   0  0  0  0  0  0  0  0  0  0  0  0
   59.8659   24.8155   46.2785 H   0  0  0  0  0  0  0  0  0  0  0  0
   61.1652   27.0815   46.8589 H   0  0  0  0  0  0  0  0  0  0  0  0
   56.2210   34.0744   44.3839 H   0  0  0  0  0  0  0  0  0  0  0  0
   57.8727   35.6759   45.3442 H   0  0  0  0  0  0  0  0  0  0  0  0
   59.9392   34.8446   46.4277 H   0  0  0  0  0  0  0  0  0  0  0  0
   60.3697   32.4011   46.5582 H   0  0  0  0  0  0  0  0  0  0  0  0
   59.2940   29.9700   45.8750 H   0  0  0  0  0  0  0  0  0  0  0  0
  1  2  1  0
  2  3  2  0
  3  4  1  0
  4  5  2  0
  5  6  1  0
  6  7  2  0
  7  8  1  0
  8  9  1  0
  9 10  2  0
 10 11  1  0
 11 12  2  0
 12 13  1  0
 13 14  1  1
 13 15  1  0
 15 16  2  0
 16 17  1  0
 17 18  2  0
 18 19  1  0
 19 20  2  0
 20 21  1  0
 21 22  2  0
 22 23  1  0
  7  2  1  0
 12  8  1  0
 23 15  1  0
 22 17  1  0
  1 24  1  0
  1 25  1  0
  1 26  1  0
  3 27  1  0
  4 28  1  0
  5 29  1  0
  6 30  1  0
  9 31  1  0
 10 32  1  0
 18 33  1  0
 19 34  1  0
 20 35  1  0
 21 36  1  0
 23 37  1  0
M  CHG  2  13   1  14  -1
M  END
>  <smiles>  (14) 
Cc1ccccc1-n1ccnc1[S+]([O-])c1nc2ccccc2[nH]1

>  <score_type>  (14) 
oracle

>  <origin>  (14) 
adg

>  <m_score__min__energy>  (14) 
-8.5600000000000005

>  <m_primary>  (14) 
energy

$$$$
14:0
     RDKit          3D

 53 56  0  0  0  0  0  0  0  0999 V2000
   63.7380   32.2860   48.6800 C   0  0  0  0  0  0  0  0  0  0  0  0
   62.5080   32.9430   48.1280 C   0  0  0  0  0  0  0  0  0  0  0  0
   62.3930   33.1830   46.7520 C   0  0  0  0  0  0  0  0  0  0  0  0
   61.2680   33.8370   46.2410 C   0  0  0  0  0  0  0  0  0  0  0  0
   60.2520   34.2850   47.1040 C   0  0  0  0  0  0  0  0  0  0  0  0
   59.0480   35.0130   46.5470 C   0  0  0  0  0  0  0  0  0  0  0  0
   58.0730   34.1200   45.8800 N   0  0  0  0  0  0  0  0  0  0  0  0
   57.4500   33.0840   46.7350 C   0  0  0  0  0  0  0  0  0  0  0  0
   58.1980   31.7340   46.7100 C   0  0  0  0  0  0  0  0  0  0  0  0
   58.8400   31.4160   45.3440 C   0  0  0  0  0  0  0  0  0  0  0  0
   58.8550   29.9280   45.0660 C   0  0  0  0  0  0  0  0  0  0  0  0
   58.3820   29.3870   43.9280 N   0  0  0  0  0  0  0  0  0  0  0  0
   58.5170   28.0760   44.0280 N   0  0  0  0  0  0  0  0  0  0  0  0
   58.1510   27.1350   42.9790 C   0  0  0  0  0  0  0  0  0  0  0  0
   59.0790   27.7220   45.1730 N   0  0  0  0  0  0  0  0  0  0  0  0
   59.3140   28.8680   45.8450 C   0  0  0  0  0  0  0  0  0  0  0  0
   59.9060   28.9020   47.1900 C   0  0  0  0  0  0  0  0  0  0  0  0
   60.6130   30.0310   47.6370 C   0  0  0  0  0  0  0  0  0  0  0  0
   61.1730   30.0480   48.9180 C   0  0  0  0  0  0  0  0  0  0  0  0
   61.0420   28.9350   49.7540 C   0  0  0  0  0  0  0  0  0  0  0  0
   60.3560   27.8010   49.3070 C   0  0  0  0  0  0  0  0  0  0  0  0
   59.7950   27.7800   48.0260 C   0  0  0  0  0  0  0  0  0  0  0  0
   58.2090   32.2370   44.2110 C   0  0  0  0  0  0  0  0  0  0  0  0
   58.4070   33.7320   44.4880 C   0  0  0  0  0  0  0  0  0  0  0  0
   60.3650   34.0310   48.4810 C   0  0  0  0  0  0  0  0  0  0  0  0
   61.4920   33.3790   48.9910 C   0  0  0  0  0  0  0  0  0  0  0  0
   63.7020   32.3052   49.7792 H   0  0  0  0  0  0  0  0  0  0  0  0
   63.7839   31.2432   48.3328 H   0  0  0  0  0  0  0  0  0  0  0  0
   64.6302   32.8277   48.3328 H   0  0  0  0  0  0  0  0  0  0  0  0
   63.1919   32.8551   46.0707 H   0  0  0  0  0  0  0  0  0  0  0  0
   61.1770   34.0022   45.1573 H   0  0  0  0  0  0  0  0  0  0  0  0
   58.5387   35.5276   47.3751 H   0  0  0  0  0  0  0  0  0  0  0  0
   59.4185   35.7139   45.7844 H   0  0  0  0  0  0  0  0  0  0  0  0
   57.4314   33.4527   47.7712 H   0  0  0  0  0  0  0  0  0  0  0  0
   56.4401   32.9019   46.3390 H   0  0  0  0  0  0  0  0  0  0  0  0
   58.9919   31.7609   47.4709 H   0  0  0  0  0  0  0  0  0  0  0  0
   57.4561   30.9473   46.9118 H   0  0  0  0  0  0  0  0  0  0  0  0
   59.8938   31.7279   45.3907 H   0  0  0  0  0  0  0  0  0  0  0  0
   57.9720   29.8930   43.1100 H   0  0  0  0  0  0  0  0  0  0  0  0
   57.7880   26.2016   43.4340 H   0  0  0  0  0  0  0  0  0  0  0  0
   57.3572   27.5718   42.3552 H   0  0  0  0  0  0  0  0  0  0  0  0
   59.0313   26.9206   42.3552 H   0  0  0  0  0  0  0  0  0  0  0  0
   60.7262   30.9039   46.9773 H   0  0  0  0  0  0  0  0  0  0  0  0
   61.7170   30.9376   49.2683 H   0  0  0  0  0  0  0  0  0  0  0  0
   61.4786   28.9512   50.7635 H   0  0  0  0  0  0  0  0  0  0  0  0
   60.2576   26.9243   49.9640 H   0  0  0  0  0  0  0  0  0  0  0  0
   59.2658   26.8826   47.6730 H   0  0  0  0  0  0  0  0  0  0  0  0
   58.6897   31.9745   43.2570 H   0  0  0  0  0  0  0  0  0  0  0  0
   57.1331   32.0151   44.1542 H   0  0  0  0  0  0  0  0  0  0  0  0
   59.4603   33.9858   44.2980 H   0  0  0  0  0  0  0  0  0  0  0  0
   57.7223   34.2799   43.8239 H   0  0  0  0  0  0  0  0  0  0  0  0
   59.5616   34.3471   49.1626 H   0  0  0  0  0  0  0  0  0  0  0  0
   61.5821   33.2073   50.0738 H   0  0  0  0  0  0  0  0  0  0  0  0
  1  2  1  0
  2  3  2  0
  3  4  1  0
  4  5  2  0
  5  6  1  0
  6  7  1  0
  7  8  1  0
  8  9  1  0
  9 10  1  0
 10 11  1  0
 11 12  2  0
 12 13  1  0
 13 14  1  0
 13 15  1  0
 15 16  2  0
 16 17  1  0
 17 18  2  0
 18 19  1  0
 19 20  2  0
 20 21  1  0
 21 22  2  0
 10 23  1  0
 23 24  1  0
  5 25  1  0
 25 26  2  0
 26  2  1  0
 24  7  1  0
 16 11  1  0
 22 17  1  0
  1 27  1  0
  1 28  1  0
  1 29  1  0
  3 30  1  0
  4 31  1  0
  6 32  1  0
  6 33  1  0
  8 34  1  0
  8 35  1  0
  9 36  1  0
  9 37  1  0
 10 38  1  0
 12 39  1  0
 14 40  1  0
 14 41  1  0
 14 42  1  0
 18 43  1  0
 19 44  1  0
 20 45  1  0
 21 46  1  0
 22 47  1  0
 23 48  1  0
 23 49  1  0
 24 50  1  0
 24 51  1  0
 25 52  1  0
 26 53  1  0
M  CHG  1  12   1
M  END
>  <UniqueID>  (15) 
14

>  <SMILES>  (15) 
Cc1ccc(CN2CCC(c3[nH+]n(C)nc3-c3ccccc3)CC2)cc1

>  <Energy>  (15) 
107.96220910081036

>  <Genealogy>  (15) 
Cc1ccc(CN2CCC(c3[nH+]n(C)nc3-c3ccccc3)CC2)cc1 (protonated)
Cc1ccc(CN2CCC(c3[nH+]n(C)nc3-c3ccccc3)CC2)cc1 (3D coordinates assigned)
Cc1ccc(CN2CCC(c3[nH+]n(C)nc3-c3ccccc3)CC2)cc1 (nonaromatic ring conformer: 107.96220910081036 kcal/mol)

>  <smiles>  (15) 
Cc1ccc(CN2CCC(c3nn(C)nc3-c3ccccc3)CC2)cc1

>  <score_type>  (15) 
oracle

>  <origin>  (15) 
adg

>  <m_score__min__energy>  (15) 
-7.4699999999999998

>  <m_primary>  (15) 
energy

$$$$
15:0
     RDKit          3D

 68 72  0  0  0  0  0  0  0  0999 V2000
   59.6640   35.7120   46.0350 C   0  0  0  0  0  0  0  0  0  0  0  0
   59.4740   34.3160   46.4290 N   0  0  0  0  0  0  0  0  0  0  0  0
   59.8860   33.6980   47.5700 C   0  0  0  0  0  0  0  0  0  0  0  0
   60.7690   34.3320   48.6110 C   0  0  0  0  0  0  0  0  0  0  0  0
   62.1880   33.9680   48.4030 N   0  0  0  0  0  0  0  0  0  0  0  0
   62.5050   32.6650   48.9980 C   0  0  0  0  0  0  0  0  0  0  0  0
   63.7010   32.1150   48.2340 C   0  0  0  0  0  0  0  0  0  0  0  0
   63.7010   32.8520   46.9030 C   0  0  0  0  0  0  0  0  0  0  0  0
   62.5460   33.8420   46.9820 C   0  0  0  0  0  0  0  0  0  0  0  0
   59.4830   32.4030   47.6590 N   0  0  0  0  0  0  0  0  0  0  0  0
   58.7670   32.2310   46.5330 C   0  0  0  0  0  0  0  0  0  0  0  0
   58.1220   31.0730   46.1100 C   0  0  0  0  0  0  0  0  0  0  0  0
   57.4440   31.1090   44.8730 C   0  0  0  0  0  0  0  0  0  0  0  0
   56.7020   29.6420   44.2360 S   0  0  0  0  0  0  0  0  0  0  0  0
   56.4930   29.7940   42.7540 O   0  0  0  0  0  0  0  0  0  0  0  0
   55.3590   29.4430   44.8820 O   0  0  0  0  0  0  0  0  0  0  0  0
   57.7320   28.2000   44.5480 C   0  0  0  0  0  0  0  0  0  0  0  0
   57.2880   27.4400   45.8190 C   0  0  0  0  0  0  0  0  0  0  0  0
   58.1240   27.8410   47.0450 C   0  0  0  0  0  0  0  0  0  0  0  0
   59.5820   27.5910   46.8640 N   0  0  0  0  0  0  0  0  0  0  0  0
   60.3940   28.5270   47.6780 C   0  0  0  0  0  0  0  0  0  0  0  0
   60.1810   28.3140   49.1860 C   0  0  0  0  0  0  0  0  0  0  0  0
   59.8230   29.6020   49.8850 C   0  0  0  0  0  0  0  0  0  0  0  0
   58.5310   30.1400   49.7520 C   0  0  0  0  0  0  0  0  0  0  0  0
   58.2010   31.3440   50.3820 C   0  0  0  0  0  0  0  0  0  0  0  0
   59.1560   32.0190   51.1480 C   0  0  0  0  0  0  0  0  0  0  0  0
   60.4430   31.4910   51.2830 C   0  0  0  0  0  0  0  0  0  0  0  0
   60.7780   30.2880   50.6550 C   0  0  0  0  0  0  0  0  0  0  0  0
   60.0200   27.5910   45.4440 C   0  0  0  0  0  0  0  0  0  0  0  0
   59.2240   28.5890   44.5940 C   0  0  0  0  0  0  0  0  0  0  0  0
   57.4090   32.3090   44.1210 C   0  0  0  0  0  0  0  0  0  0  0  0
   58.0680   33.4630   44.5810 C   0  0  0  0  0  0  0  0  0  0  0  0
   58.7490   33.3790   45.7950 C   0  0  0  0  0  0  0  0  0  0  0  0
   59.7493   36.3387   46.9350 H   0  0  0  0  0  0  0  0  0  0  0  0
   60.5827   35.8024   45.4369 H   0  0  0  0  0  0  0  0  0  0  0  0
   58.8028   36.0446   45.4369 H   0  0  0  0  0  0  0  0  0  0  0  0
   60.6666   35.4256   48.5506 H   0  0  0  0  0  0  0  0  0  0  0  0
   60.4574   33.9672   49.6009 H   0  0  0  0  0  0  0  0  0  0  0  0
   62.8060   34.6910   48.8440 H   0  0  0  0  0  0  0  0  0  0  0  0
   62.7574   32.7853   50.0619 H   0  0  0  0  0  0  0  0  0  0  0  0
   61.6459   31.9811   48.9339 H   0  0  0  0  0  0  0  0  0  0  0  0
   64.6332   32.3124   48.7837 H   0  0  0  0  0  0  0  0  0  0  0  0
   63.6355   31.0253   48.0992 H   0  0  0  0  0  0  0  0  0  0  0  0
   64.6531   33.3837   46.7587 H   0  0  0  0  0  0  0  0  0  0  0  0
   63.5867   32.1605   46.0552 H   0  0  0  0  0  0  0  0  0  0  0  0
   62.8567   34.8185   46.5821 H   0  0  0  0  0  0  0  0  0  0  0  0
   61.6875   33.4937   46.3890 H   0  0  0  0  0  0  0  0  0  0  0  0
   58.1400   30.1582   46.7206 H   0  0  0  0  0  0  0  0  0  0  0  0
   57.5987   27.5035   43.7071 H   0  0  0  0  0  0  0  0  0  0  0  0
   56.2306   27.6679   46.0190 H   0  0  0  0  0  0  0  0  0  0  0  0
   57.4340   26.3641   45.6426 H   0  0  0  0  0  0  0  0  0  0  0  0
   57.9736   28.9138   47.2359 H   0  0  0  0  0  0  0  0  0  0  0  0
   57.7868   27.2218   47.8894 H   0  0  0  0  0  0  0  0  0  0  0  0
   61.4573   28.3703   47.4441 H   0  0  0  0  0  0  0  0  0  0  0  0
   60.0789   29.5518   47.4321 H   0  0  0  0  0  0  0  0  0  0  0  0
   59.3658   27.5902   49.3324 H   0  0  0  0  0  0  0  0  0  0  0  0
   61.1216   27.9397   49.6162 H   0  0  0  0  0  0  0  0  0  0  0  0
   57.7768   29.6119   49.1501 H   0  0  0  0  0  0  0  0  0  0  0  0
   57.1886   31.7606   50.2747 H   0  0  0  0  0  0  0  0  0  0  0  0
   58.8946   32.9653   51.6442 H   0  0  0  0  0  0  0  0  0  0  0  0
   61.1941   32.0234   51.8849 H   0  0  0  0  0  0  0  0  0  0  0  0
   61.7924   29.8768   50.7638 H   0  0  0  0  0  0  0  0  0  0  0  0
   61.0857   27.8601   45.4017 H   0  0  0  0  0  0  0  0  0  0  0  0
   59.8457   26.5844   45.0361 H   0  0  0  0  0  0  0  0  0  0  0  0
   59.3216   29.5937   45.0312 H   0  0  0  0  0  0  0  0  0  0  0  0
   59.6236   28.5774   43.5692 H   0  0  0  0  0  0  0  0  0  0  0  0
   56.8609   32.3384   43.1677 H   0  0  0  0  0  0  0  0  0  0  0  0
   58.0470   34.3990   44.0035 H   0  0  0  0  0  0  0  0  0  0  0  0
  1  2  1  0
  2  3  1  0
  3  4  1  0
  4  5  1  0
  5  6  1  0
  6  7  1  0
  7  8  1  0
  8  9  1  0
  3 10  2  0
 10 11  1  0
 11 12  2  0
 12 13  1  0
 13 14  1  0
 14 15  2  0
 14 16  2  0
 14 17  1  0
 17 18  1  0
 18 19  1  0
 19 20  1  0
 20 21  1  0
 21 22  1  0
 22 23  1  0
 23 24  2  0
 24 25  1  0
 25 26  2  0
 26 27  1  0
 27 28  2  0
 20 29  1  0
 29 30  1  0
 13 31  2  0
 31 32  1  0
 32 33  2  0
 33  2  1  0
  9  5  1  0
 33 11  1  0
 30 17  1  0
 28 23  1  0
  1 34  1  0
  1 35  1  0
  1 36  1  0
  4 37  1  0
  4 38  1  0
  5 39  1  0
  6 40  1  0
  6 41  1  0
  7 42  1  0
  7 43  1  0
  8 44  1  0
  8 45  1  0
  9 46  1  0
  9 47  1  0
 12 48  1  0
 17 49  1  0
 18 50  1  0
 18 51  1  0
 19 52  1  0
 19 53  1  0
 21 54  1  0
 21 55  1  0
 22 56  1  0
 22 57  1  0
 24 58  1  0
 25 59  1  0
 26 60  1  0
 27 61  1  0
 28 62  1  0
 29 63  1  0
 29 64  1  0
 30 65  1  0
 30 66  1  0
 31 67  1  0
 32 68  1  0
M  CHG  1   5   1
M  END
>  <UniqueID>  (16) 
15

>  <SMILES>  (16) 
Cn1c(C[NH+]2CCCC2)nc2cc(S(=O)(=O)C3CCN(CCc4ccccc4)CC3)ccc21

>  <Energy>  (16) 
112.74031633007135

>  <Genealogy>  (16) 
Cn1c(C[NH+]2CCCC2)nc2cc(S(=O)(=O)C3CCN(CCc4ccccc4)CC3)ccc21 (protonated)
Cn1c(C[NH+]2CCCC2)nc2cc(S(=O)(=O)C3CCN(CCc4ccccc4)CC3)ccc21 (3D coordinates assigned)
Cn1c(C[NH+]2CCCC2)nc2cc(S(=O)(=O)C3CCN(CCc4ccccc4)CC3)ccc21 (nonaromatic ring conformer: 112.74031633007135 kcal/mol)

>  <smiles>  (16) 
Cn1c(CN2CCCC2)nc2cc(S(=O)(=O)C3CCN(CCc4ccccc4)CC3)ccc21

>  <score_type>  (16) 
oracle

>  <origin>  (16) 
adg

>  <m_score__min__energy>  (16) 
-8.75

>  <m_primary>  (16) 
energy

$$$$
16:0
     RDKit          3D

 50 52  0  0  0  0  0  0  0  0999 V2000
   63.4020   33.0930   46.7810 C   0  0  0  0  0  0  0  0  0  0  0  0
   63.2490   33.8580   48.0930 C   0  0  0  0  0  0  0  0  0  0  0  0
   63.1170   32.9170   49.2260 N   0  0  0  0  0  0  0  0  0  0  0  0
   64.3320   32.0950   49.3540 C   0  0  0  0  0  0  0  0  0  0  0  0
   62.8250   33.6200   50.4970 C   0  0  0  0  0  0  0  0  0  0  0  0
   61.5410   33.0640   51.1090 C   0  0  0  0  0  0  0  0  0  0  0  0
   60.4410   33.8330   50.6630 O   0  0  0  0  0  0  0  0  0  0  0  0
   59.2460   33.0790   50.7430 C   0  0  0  0  0  0  0  0  0  0  0  0
   58.9980   32.3230   49.4250 C   0  0  0  0  0  0  0  0  0  0  0  0
   60.0330   32.6350   48.4380 N   0  0  0  0  0  0  0  0  0  0  0  0
   59.7040   33.3230   47.2190 C   0  0  0  0  0  0  0  0  0  0  0  0
   60.0110   34.6870   47.1170 C   0  0  0  0  0  0  0  0  0  0  0  0
   59.6160   35.4230   46.0010 C   0  0  0  0  0  0  0  0  0  0  0  0
   58.9180   34.8040   44.9640 C   0  0  0  0  0  0  0  0  0  0  0  0
   58.6330   33.4320   45.0250 C   0  0  0  0  0  0  0  0  0  0  0  0
   57.9530   32.8060   43.9760 C   0  0  0  0  0  0  0  0  0  0  0  0
   57.6850   31.4340   44.0410 C   0  0  0  0  0  0  0  0  0  0  0  0
   56.9850   30.8120   42.9960 C   0  0  0  0  0  0  0  0  0  0  0  0
   56.7260   29.4450   43.0600 C   0  0  0  0  0  0  0  0  0  0  0  0
   57.1660   28.7080   44.1550 C   0  0  0  0  0  0  0  0  0  0  0  0
   57.8600   29.3500   45.1830 C   0  0  0  0  0  0  0  0  0  0  0  0
   58.1120   30.6940   45.1230 N   0  0  0  0  0  0  0  0  0  0  0  0
   58.7900   31.2900   46.1510 C   0  0  0  0  0  0  0  0  0  0  0  0
   59.0400   32.6760   46.1490 C   0  0  0  0  0  0  0  0  0  0  0  0
   63.6136   32.0351   46.9959 H   0  0  0  0  0  0  0  0  0  0  0  0
   62.4706   33.1701   46.2008 H   0  0  0  0  0  0  0  0  0  0  0  0
   64.2320   33.5224   46.2008 H   0  0  0  0  0  0  0  0  0  0  0  0
   64.1350   34.4910   48.2489 H   0  0  0  0  0  0  0  0  0  0  0  0
   62.3440   34.4810   48.0393 H   0  0  0  0  0  0  0  0  0  0  0  0
   64.5599   31.9408   50.4190 H   0  0  0  0  0  0  0  0  0  0  0  0
   64.1686   31.1212   48.8693 H   0  0  0  0  0  0  0  0  0  0  0  0
   65.1752   32.6090   48.8693 H   0  0  0  0  0  0  0  0  0  0  0  0
   63.6592   33.4697   51.1981 H   0  0  0  0  0  0  0  0  0  0  0  0
   62.6986   34.6945   50.2985 H   0  0  0  0  0  0  0  0  0  0  0  0
   61.4084   32.0174   50.7975 H   0  0  0  0  0  0  0  0  0  0  0  0
   61.6042   33.1119   52.2061 H   0  0  0  0  0  0  0  0  0  0  0  0
   59.3294   32.3542   51.5662 H   0  0  0  0  0  0  0  0  0  0  0  0
   58.4043   33.7634   50.9251 H   0  0  0  0  0  0  0  0  0  0  0  0
   59.0053   31.2412   49.6241 H   0  0  0  0  0  0  0  0  0  0  0  0
   58.0234   32.6341   49.0208 H   0  0  0  0  0  0  0  0  0  0  0  0
   61.0060   32.7480   48.8040 H   0  0  0  0  0  0  0  0  0  0  0  0
   60.5692   35.1815   47.9257 H   0  0  0  0  0  0  0  0  0  0  0  0
   59.8554   36.4948   45.9380 H   0  0  0  0  0  0  0  0  0  0  0  0
   58.5899   35.3939   44.0954 H   0  0  0  0  0  0  0  0  0  0  0  0
   57.6295   33.3903   43.1020 H   0  0  0  0  0  0  0  0  0  0  0  0
   56.6430   31.4003   42.1317 H   0  0  0  0  0  0  0  0  0  0  0  0
   56.1751   28.9494   42.2471 H   0  0  0  0  0  0  0  0  0  0  0  0
   56.9687   27.6273   44.2107 H   0  0  0  0  0  0  0  0  0  0  0  0
   58.2078   28.7693   46.0501 H   0  0  0  0  0  0  0  0  0  0  0  0
   59.1455   30.6770   46.9924 H   0  0  0  0  0  0  0  0  0  0  0  0
  1  2  1  0
  2  3  1  0
  3  4  1  0
  3  5  1  0
  5  6  1  0
  6  7  1  0
  7  8  1  0
  8  9  1  0
  9 10  1  0
 10 11  1  0
 11 12  2  0
 12 13  1  0
 13 14  2  0
 14 15  1  0
 15 16  2  0
 16 17  1  0
 17 18  2  0
 18 19  1  0
 19 20  2  0
 20 21  1  0
 21 22  2  0
 22 23  1  0
 23 24  2  0
 24 11  1  0
 24 15  1  0
 22 17  1  0
  1 25  1  0
  1 26  1  0
  1 27  1  0
  2 28  1  0
  2 29  1  0
  4 30  1  0
  4 31  1  0
  4 32  1  0
  5 33  1  0
  5 34  1  0
  6 35  1  0
  6 36  1  0
  8 37  1  0
  8 38  1  0
  9 39  1  0
  9 40  1  0
 10 41  1  0
 12 42  1  0
 13 43  1  0
 14 44  1  0
 16 45  1  0
 18 46  1  0
 19 47  1  0
 20 48  1  0
 21 49  1  0
 23 50  1  0
M  CHG  1  22   1
M  END
>  <UniqueID>  (17) 
16

>  <SMILES>  (17) 
CCN(C)CCOCCNc1cccc2cc3cccc[n+]3cc12

>  <Energy>  (17) 
61.4976290666566

>  <Genealogy>  (17) 
CCN(C)CCOCCNc1cccc2cc3cccc[n+]3cc12 (3D coordinates assigned)
CCN(C)CCOCCNc1cccc2cc3cccc[n+]3cc12 (optimized conformer: 61.4976290666566 kcal/mol)

>  <smiles>  (17) 
CCN(C)CCOCCNc1cccc2cc3cccc[n+]3cc12

>  <score_type>  (17) 
oracle

>  <origin>  (17) 
adg

>  <m_score__min__energy>  (17) 
-5.6299999999999999

>  <m_primary>  (17) 
energy

$$$$
17:0
     RDKit          3D

 45 47  0  0  0  0  0  0  0  0999 V2000
   59.6470   30.3210   48.3560 C   0  0  0  0  0  0  0  0  0  0  0  0
   60.2000   31.5630   47.8270 N   0  0  0  0  0  0  0  0  0  0  0  0
   59.5250   32.4310   47.0800 N   0  0  0  0  0  0  0  0  0  0  0  0
   60.3540   33.4400   46.7190 C   0  0  0  0  0  0  0  0  0  0  0  0
   59.9780   34.5680   45.8120 C   0  0  0  0  0  0  0  0  0  0  0  0
   59.0340   34.0850   44.7980 N   0  0  0  0  0  0  0  0  0  0  0  0
   57.6430   34.1140   45.2740 C   0  0  0  0  0  0  0  0  0  0  0  0
   56.9740   32.7250   45.2370 C   0  0  0  0  0  0  0  0  0  0  0  0
   57.9350   31.6750   44.8240 N   0  0  0  0  0  0  0  0  0  0  0  0
   57.7670   30.4010   45.5790 C   0  0  0  0  0  0  0  0  0  0  0  0
   57.1060   29.2650   44.7700 C   0  0  0  0  0  0  0  0  0  0  0  0
   56.0700   29.8140   43.7930 C   0  0  0  0  0  0  0  0  0  0  0  0
   56.7020   30.8100   42.8070 C   0  0  0  0  0  0  0  0  0  0  0  0
   57.9850   31.4640   43.3600 C   0  0  0  0  0  0  0  0  0  0  0  0
   61.6050   33.1750   47.2440 C   0  0  0  0  0  0  0  0  0  0  0  0
   62.8250   33.8420   47.1510 C   0  0  0  0  0  0  0  0  0  0  0  0
   63.9330   33.2670   47.8010 C   0  0  0  0  0  0  0  0  0  0  0  0
   63.7970   32.0520   48.5120 C   0  0  0  0  0  0  0  0  0  0  0  0
   62.5520   31.3970   48.5800 C   0  0  0  0  0  0  0  0  0  0  0  0
   61.4710   31.9970   47.9310 C   0  0  0  0  0  0  0  0  0  0  0  0
   59.6610   30.3524   49.4555 H   0  0  0  0  0  0  0  0  0  0  0  0
   58.6110   30.2024   48.0057 H   0  0  0  0  0  0  0  0  0  0  0  0
   60.2520   29.4717   48.0057 H   0  0  0  0  0  0  0  0  0  0  0  0
   58.5230   32.3300   46.8050 H   0  0  0  0  0  0  0  0  0  0  0  0
   59.5069   35.3698   46.3995 H   0  0  0  0  0  0  0  0  0  0  0  0
   60.8800   34.9579   45.3177 H   0  0  0  0  0  0  0  0  0  0  0  0
   59.2920   33.1060   44.5270 H   0  0  0  0  0  0  0  0  0  0  0  0
   57.6330   34.4823   46.3105 H   0  0  0  0  0  0  0  0  0  0  0  0
   57.0751   34.7751   44.6028 H   0  0  0  0  0  0  0  0  0  0  0  0
   56.5904   32.4853   46.2397 H   0  0  0  0  0  0  0  0  0  0  0  0
   56.1548   32.7537   44.5034 H   0  0  0  0  0  0  0  0  0  0  0  0
   58.7610   30.0594   45.9035 H   0  0  0  0  0  0  0  0  0  0  0  0
   57.0940   30.6205   46.4210 H   0  0  0  0  0  0  0  0  0  0  0  0
   57.8823   28.7278   44.2055 H   0  0  0  0  0  0  0  0  0  0  0  0
   56.5981   28.5873   45.4720 H   0  0  0  0  0  0  0  0  0  0  0  0
   55.6335   28.9780   43.2269 H   0  0  0  0  0  0  0  0  0  0  0  0
   55.2956   30.3413   44.3694 H   0  0  0  0  0  0  0  0  0  0  0  0
   56.9518   30.2754   41.8787 H   0  0  0  0  0  0  0  0  0  0  0  0
   55.9702   31.6121   42.6309 H   0  0  0  0  0  0  0  0  0  0  0  0
   58.8401   30.8122   43.1277 H   0  0  0  0  0  0  0  0  0  0  0  0
   58.0846   32.4516   42.8859 H   0  0  0  0  0  0  0  0  0  0  0  0
   62.9186   34.7836   46.5900 H   0  0  0  0  0  0  0  0  0  0  0  0
   64.9121   33.7663   47.7557 H   0  0  0  0  0  0  0  0  0  0  0  0
   64.6713   31.6147   49.0163 H   0  0  0  0  0  0  0  0  0  0  0  0
   62.4356   30.4481   49.1241 H   0  0  0  0  0  0  0  0  0  0  0  0
  1  2  1  0
  2  3  1  0
  3  4  2  0
  4  5  1  0
  5  6  1  0
  6  7  1  0
  7  8  1  0
  8  9  1  0
  9 10  1  0
 10 11  1  0
 11 12  1  0
 12 13  1  0
 13 14  1  0
  4 15  1  0
 15 16  2  0
 16 17  1  0
 17 18  2  0
 18 19  1  0
 19 20  2  0
 20  2  1  0
 14  9  1  0
 20 15  1  0
  1 21  1  0
  1 22  1  0
  1 23  1  0
  3 24  1  0
  5 25  1  0
  5 26  1  0
  6 27  1  0
  7 28  1  0
  7 29  1  0
  8 30  1  0
  8 31  1  0
 10 32  1  0
 10 33  1  0
 11 34  1  0
 11 35  1  0
 12 36  1  0
 12 37  1  0
 13 38  1  0
 13 39  1  0
 14 40  1  0
 14 41  1  0
 16 42  1  0
 17 43  1  0
 18 44  1  0
 19 45  1  0
M  CHG  1   3   1
M  END
>  <UniqueID>  (18) 
17

>  <SMILES>  (18) 
Cn1[nH+]c(CNCCN2CCCCC2)c2ccccc21

>  <Energy>  (18) 
91.68751891985588

>  <Genealogy>  (18) 
Cn1[nH+]c(CNCCN2CCCCC2)c2ccccc21 (protonated)
Cn1[nH+]c(CNCCN2CCCCC2)c2ccccc21 (3D coordinates assigned)
Cn1[nH+]c(CNCCN2CCCCC2)c2ccccc21 (nonaromatic ring conformer: 91.68751891985588 kcal/mol)

>  <smiles>  (18) 
Cn1nc(CNCCN2CCCCC2)c2ccccc21

>  <score_type>  (18) 
oracle

>  <origin>  (18) 
adg

>  <m_score__min__energy>  (18) 
-5.71

>  <m_primary>  (18) 
energy

$$$$
18:0
     RDKit          3D

 39 40  0  0  0  0  0  0  0  0999 V2000
   55.1520   24.0370   45.0200 C   0  0  0  0  0  0  0  0  0  0  0  0
   54.2880   25.1410   45.6200 C   0  0  0  0  0  0  0  0  0  0  0  0
   55.0920   26.2560   45.9980 O   0  0  0  0  0  0  0  0  0  0  0  0
   56.4800   26.1800   46.1700 C   0  0  0  0  0  0  0  0  0  0  0  0
   56.9760   25.6010   47.1750 O   0  0  0  0  0  0  0  0  0  0  0  0
   57.3780   26.7500   45.1220 C   0  0  0  0  0  0  0  0  0  0  0  0
   57.5880   28.2170   45.3720 C   0  0  0  0  0  0  0  0  0  0  0  0
   57.1070   29.1670   44.4580 C   0  0  0  0  0  0  0  0  0  0  0  0
   57.3380   30.5290   44.6680 C   0  0  0  0  0  0  0  0  0  0  0  0
   58.0610   30.9610   45.7910 C   0  0  0  0  0  0  0  0  0  0  0  0
   58.2990   32.3600   46.0140 N   0  0  0  0  0  0  0  0  0  0  0  0
   57.5620   33.3820   45.2650 C   0  0  0  0  0  0  0  0  0  0  0  0
   58.4540   34.5830   44.8740 C   0  0  0  0  0  0  0  0  0  0  0  0
   59.5820   34.9510   45.8670 C   0  0  0  0  0  0  0  0  0  0  0  0
   59.2530   34.6350   47.3250 C   0  0  0  0  0  0  0  0  0  0  0  0
   59.0610   32.8760   47.4800 S   0  0  0  0  0  0  0  0  0  0  0  0
   60.4120   32.2350   47.6320 O   0  0  0  0  0  0  0  0  0  0  0  0
   58.1940   32.5470   48.6630 O   0  0  0  0  0  0  0  0  0  0  0  0
   58.5550   30.0090   46.6970 C   0  0  0  0  0  0  0  0  0  0  0  0
   58.3260   28.6470   46.4860 C   0  0  0  0  0  0  0  0  0  0  0  0
   55.6112   23.4502   45.8292 H   0  0  0  0  0  0  0  0  0  0  0  0
   54.5267   23.3787   44.3990 H   0  0  0  0  0  0  0  0  0  0  0  0
   55.9413   24.4857   44.3990 H   0  0  0  0  0  0  0  0  0  0  0  0
   53.5467   25.4655   44.8749 H   0  0  0  0  0  0  0  0  0  0  0  0
   53.7812   24.7491   46.5142 H   0  0  0  0  0  0  0  0  0  0  0  0
   58.3481   26.2323   45.1518 H   0  0  0  0  0  0  0  0  0  0  0  0
   56.9142   26.6135   44.1339 H   0  0  0  0  0  0  0  0  0  0  0  0
   56.5451   28.8377   43.5715 H   0  0  0  0  0  0  0  0  0  0  0  0
   56.9512   31.2666   43.9495 H   0  0  0  0  0  0  0  0  0  0  0  0
   57.1601   32.9268   44.3478 H   0  0  0  0  0  0  0  0  0  0  0  0
   56.7573   33.7586   45.9136 H   0  0  0  0  0  0  0  0  0  0  0  0
   58.9221   34.3516   43.9058 H   0  0  0  0  0  0  0  0  0  0  0  0
   57.7824   35.4540   44.8571 H   0  0  0  0  0  0  0  0  0  0  0  0
   60.4860   34.3904   45.5869 H   0  0  0  0  0  0  0  0  0  0  0  0
   59.7219   36.0401   45.8008 H   0  0  0  0  0  0  0  0  0  0  0  0
   60.0712   34.9792   47.9747 H   0  0  0  0  0  0  0  0  0  0  0  0
   58.3270   35.1469   47.6258 H   0  0  0  0  0  0  0  0  0  0  0  0
   59.1257   30.3374   47.5782 H   0  0  0  0  0  0  0  0  0  0  0  0
   58.7259   27.9082   47.1961 H   0  0  0  0  0  0  0  0  0  0  0  0
  1  2  1  0
  2  3  1  0
  3  4  1  0
  4  5  2  0
  4  6  1  0
  6  7  1  0
  7  8  2  0
  8  9  1  0
  9 10  2  0
 10 11  1  0
 11 12  1  0
 12 13  1  0
 13 14  1  0
 14 15  1  0
 15 16  1  0
 16 17  2  0
 16 18  2  0
 10 19  1  0
 19 20  2  0
 20  7  1  0
 16 11  1  0
  1 21  1  0
  1 22  1  0
  1 23  1  0
  2 24  1  0
  2 25  1  0
  6 26  1  0
  6 27  1  0
  8 28  1  0
  9 29  1  0
 12 30  1  0
 12 31  1  0
 13 32  1  0
 13 33  1  0
 14 34  1  0
 14 35  1  0
 15 36  1  0
 15 37  1  0
 19 38  1  0
 20 39  1  0
M  END
>  <UniqueID>  (19) 
18

>  <SMILES>  (19) 
CCOC(=O)Cc1ccc(N2CCCCS2(=O)=O)cc1

>  <Energy>  (19) 
37.52015419207461

>  <Genealogy>  (19) 
CCOC(=O)Cc1ccc(N2CCCCS2(=O)=O)cc1 (3D coordinates assigned)
CCOC(=O)Cc1ccc(N2CCCCS2(=O)=O)cc1 (nonaromatic ring conformer: 37.52015419207461 kcal/mol)

>  <smiles>  (19) 
CCOC(=O)Cc1ccc(N2CCCCS2(=O)=O)cc1

>  <score_type>  (19) 
oracle

>  <origin>  (19) 
adg

>  <m_score__min__energy>  (19) 
-7.1100000000000003

>  <m_primary>  (19) 
energy

$$$$
19:0
     RDKit          3D

 45 47  0  0  0  0  0  0  0  0999 V2000
   54.9050   24.7570   45.6950 C   0  0  0  0  0  0  0  0  0  0  0  0
   55.4890   26.0690   45.9880 N   0  0  0  0  0  0  0  0  0  0  0  0
   56.8720   25.9480   46.4740 C   0  0  0  0  0  0  0  0  0  0  0  0
   57.6930   25.0390   45.5470 C   0  0  0  0  0  0  0  0  0  0  0  0
   57.6600   25.5030   44.0810 C   0  0  0  0  0  0  0  0  0  0  0  0
   57.4430   26.9570   43.9680 N   0  0  0  0  0  0  0  0  0  0  0  0
   58.6820   27.7190   44.2000 C   0  0  0  0  0  0  0  0  0  0  0  0
   58.4030   29.1710   44.5030 C   0  0  0  0  0  0  0  0  0  0  0  0
   57.3660   29.8580   43.8210 C   0  0  0  0  0  0  0  0  0  0  0  0
   57.1160   31.2190   44.0720 C   0  0  0  0  0  0  0  0  0  0  0  0
   57.9160   31.8730   45.0130 C   0  0  0  0  0  0  0  0  0  0  0  0
   58.9310   31.2060   45.6690 C   0  0  0  0  0  0  0  0  0  0  0  0
   59.2040   29.8600   45.4390 C   0  0  0  0  0  0  0  0  0  0  0  0
   59.5460   32.1330   46.4770 C   0  0  0  0  0  0  0  0  0  0  0  0
   60.6400   32.0280   47.3350 C   0  0  0  0  0  0  0  0  0  0  0  0
   61.0560   33.1890   48.0100 C   0  0  0  0  0  0  0  0  0  0  0  0
   60.3830   34.4140   47.8110 C   0  0  0  0  0  0  0  0  0  0  0  0
   59.2830   34.4940   46.9370 C   0  0  0  0  0  0  0  0  0  0  0  0
   58.8770   33.3260   46.2810 C   0  0  0  0  0  0  0  0  0  0  0  0
   57.8600   33.1750   45.3960 N   0  0  0  0  0  0  0  0  0  0  0  0
   56.9790   34.2170   44.8700 C   0  0  0  0  0  0  0  0  0  0  0  0
   54.6746   24.2394   46.6379 H   0  0  0  0  0  0  0  0  0  0  0  0
   53.9805   24.8887   45.1136 H   0  0  0  0  0  0  0  0  0  0  0  0
   55.6216   24.1582   45.1136 H   0  0  0  0  0  0  0  0  0  0  0  0
   55.5150   26.6010   45.0860 H   0  0  0  0  0  0  0  0  0  0  0  0
   57.3336   26.9460   46.5032 H   0  0  0  0  0  0  0  0  0  0  0  0
   56.8566   25.5063   47.4813 H   0  0  0  0  0  0  0  0  0  0  0  0
   58.7375   25.0357   45.8919 H   0  0  0  0  0  0  0  0  0  0  0  0
   57.2485   24.0336   45.5879 H   0  0  0  0  0  0  0  0  0  0  0  0
   58.6191   25.2488   43.6061 H   0  0  0  0  0  0  0  0  0  0  0  0
   56.8224   24.9940   43.5817 H   0  0  0  0  0  0  0  0  0  0  0  0
   56.7140   27.2680   44.6530 H   0  0  0  0  0  0  0  0  0  0  0  0
   57.1040   27.1800   43.0020 H   0  0  0  0  0  0  0  0  0  0  0  0
   59.2181   27.2749   45.0517 H   0  0  0  0  0  0  0  0  0  0  0  0
   59.2867   27.6730   43.2823 H   0  0  0  0  0  0  0  0  0  0  0  0
   56.7495   29.3192   43.0864 H   0  0  0  0  0  0  0  0  0  0  0  0
   56.3135   31.7536   43.5427 H   0  0  0  0  0  0  0  0  0  0  0  0
   60.0198   29.3488   45.9711 H   0  0  0  0  0  0  0  0  0  0  0  0
   61.1599   31.0694   47.4789 H   0  0  0  0  0  0  0  0  0  0  0  0
   61.9126   33.1425   48.6986 H   0  0  0  0  0  0  0  0  0  0  0  0
   60.7217   35.3145   48.3442 H   0  0  0  0  0  0  0  0  0  0  0  0
   58.7576   35.4466   46.7741 H   0  0  0  0  0  0  0  0  0  0  0  0
   56.5173   34.7631   45.7058 H   0  0  0  0  0  0  0  0  0  0  0  0
   57.5644   34.9157   44.2543 H   0  0  0  0  0  0  0  0  0  0  0  0
   56.1927   33.7559   44.2543 H   0  0  0  0  0  0  0  0  0  0  0  0
  1  2  1  0
  2  3  1  0
  3  4  1  0
  4  5  1  0
  5  6  1  0
  6  7  1  0
  7  8  1  0
  8  9  2  0
  9 10  1  0
 10 11  2  0
 11 12  1  0
 12 13  2  0
 12 14  1  0
 14 15  2  0
 15 16  1  0
 16 17  2  0
 17 18  1  0
 18 19  2  0
 19 20  1  0
 20 21  1  0
 13  8  1  0
 19 14  1  0
 20 11  1  0
  1 22  1  0
  1 23  1  0
  1 24  1  0
  2 25  1  0
  3 26  1  0
  3 27  1  0
  4 28  1  0
  4 29  1  0
  5 30  1  0
  5 31  1  0
  6 32  1  0
  6 33  1  0
  7 34  1  0
  7 35  1  0
  9 36  1  0
 10 37  1  0
 13 38  1  0
 15 39  1  0
 16 40  1  0
 17 41  1  0
 18 42  1  0
 21 43  1  0
 21 44  1  0
 21 45  1  0
M  CHG  1   6   1
M  END
>  <UniqueID>  (20) 
19

>  <SMILES>  (20) 
CNCCC[NH2+]Cc1ccc2c(c1)c1ccccc1n2C

>  <Energy>  (20) 
83.54274888621032

>  <Genealogy>  (20) 
CNCCC[NH2+]Cc1ccc2c(c1)c1ccccc1n2C (protonated)
CNCCC[NH2+]Cc1ccc2c(c1)c1ccccc1n2C (3D coordinates assigned)
CNCCC[NH2+]Cc1ccc2c(c1)c1ccccc1n2C (optimized conformer: 83.54274888621032 kcal/mol)

>  <smiles>  (20) 
CNCCCNCc1ccc2c(c1)c1ccccc1n2C

>  <score_type>  (20) 
oracle

>  <origin>  (20) 
adg

>  <m_score__min__energy>  (20) 
-6.6500000000000004

>  <m_primary>  (20) 
energy

$$$$
20:0
     RDKit          3D

 61 63  0  0  0  0  0  0  0  0999 V2000
   63.0560   32.4860   48.2710 C   0  0  0  0  0  0  0  0  0  0  0  0
   62.1060   31.3060   48.0750 C   0  0  0  0  0  0  0  0  0  0  0  0
   61.5720   30.8380   49.3730 N   0  0  0  0  0  0  0  0  0  0  0  0
   62.3620   31.2760   50.5460 C   0  0  0  0  0  0  0  0  0  0  0  0
   61.7040   32.3980   51.3520 C   0  0  0  0  0  0  0  0  0  0  0  0
   61.1000   29.4300   49.4350 C   0  0  0  0  0  0  0  0  0  0  0  0
   60.1780   29.0070   48.2730 C   0  0  0  0  0  0  0  0  0  0  0  0
   58.9030   29.7220   48.3260 N   0  0  0  0  0  0  0  0  0  0  0  0
   58.5320   30.6840   47.3220 C   0  0  0  0  0  0  0  0  0  0  0  0
   58.0570   30.2210   46.0810 C   0  0  0  0  0  0  0  0  0  0  0  0
   57.7780   28.8500   45.8820 C   0  0  0  0  0  0  0  0  0  0  0  0
   57.3640   28.3790   44.6400 C   0  0  0  0  0  0  0  0  0  0  0  0
   57.2360   29.2570   43.5710 C   0  0  0  0  0  0  0  0  0  0  0  0
   57.5030   30.6140   43.7430 C   0  0  0  0  0  0  0  0  0  0  0  0
   57.8900   31.1330   45.0060 C   0  0  0  0  0  0  0  0  0  0  0  0
   58.1490   32.4770   45.1910 N   0  0  0  0  0  0  0  0  0  0  0  0
   57.7580   33.4530   44.1480 C   0  0  0  0  0  0  0  0  0  0  0  0
   58.7360   32.9160   46.3630 C   0  0  0  0  0  0  0  0  0  0  0  0
   59.2900   34.2160   46.4650 C   0  0  0  0  0  0  0  0  0  0  0  0
   59.7870   34.6920   47.6720 C   0  0  0  0  0  0  0  0  0  0  0  0
   59.7070   33.9120   48.8150 C   0  0  0  0  0  0  0  0  0  0  0  0
   59.2010   32.6060   48.7570 C   0  0  0  0  0  0  0  0  0  0  0  0
   58.9530   31.8980   49.9870 N   0  0  0  0  0  0  0  0  0  0  0  0
   57.9860   32.3400   50.9930 C   0  0  0  0  0  0  0  0  0  0  0  0
   57.2190   31.1490   51.5590 C   0  0  0  0  0  0  0  0  0  0  0  0
   57.7730   29.9500   51.0590 O   0  0  0  0  0  0  0  0  0  0  0  0
   58.6720   29.4210   52.0050 C   0  0  0  0  0  0  0  0  0  0  0  0
   58.8140   32.0590   47.4960 C   0  0  0  0  0  0  0  0  0  0  0  0
   63.2006   32.6656   49.3466 H   0  0  0  0  0  0  0  0  0  0  0  0
   64.0254   32.2578   47.8038 H   0  0  0  0  0  0  0  0  0  0  0  0
   62.6262   33.3843   47.8038 H   0  0  0  0  0  0  0  0  0  0  0  0
   61.2695   31.6196   47.4332 H   0  0  0  0  0  0  0  0  0  0  0  0
   62.6618   30.4811   47.6052 H   0  0  0  0  0  0  0  0  0  0  0  0
   62.5053   30.4107   51.2098 H   0  0  0  0  0  0  0  0  0  0  0  0
   63.3122   31.6743   50.1607 H   0  0  0  0  0  0  0  0  0  0  0  0
   61.8227   32.1956   52.4267 H   0  0  0  0  0  0  0  0  0  0  0  0
   62.1829   33.3568   51.1044 H   0  0  0  0  0  0  0  0  0  0  0  0
   60.6334   32.4481   51.1044 H   0  0  0  0  0  0  0  0  0  0  0  0
   61.9819   28.7725   49.4293 H   0  0  0  0  0  0  0  0  0  0  0  0
   60.5012   29.3435   50.3537 H   0  0  0  0  0  0  0  0  0  0  0  0
   60.6766   29.2317   47.3186 H   0  0  0  0  0  0  0  0  0  0  0  0
   59.9781   27.9288   48.3600 H   0  0  0  0  0  0  0  0  0  0  0  0
   58.2070   29.4640   49.0620 H   0  0  0  0  0  0  0  0  0  0  0  0
   57.8896   28.1461   46.7199 H   0  0  0  0  0  0  0  0  0  0  0  0
   57.1380   27.3110   44.5044 H   0  0  0  0  0  0  0  0  0  0  0  0
   56.9231   28.8801   42.5861 H   0  0  0  0  0  0  0  0  0  0  0  0
   57.4121   31.2953   42.8842 H   0  0  0  0  0  0  0  0  0  0  0  0
   57.3896   34.3726   44.6260 H   0  0  0  0  0  0  0  0  0  0  0  0
   58.6307   33.6896   43.5216 H   0  0  0  0  0  0  0  0  0  0  0  0
   56.9633   33.0216   43.5216 H   0  0  0  0  0  0  0  0  0  0  0  0
   59.3273   34.8593   45.5735 H   0  0  0  0  0  0  0  0  0  0  0  0
   60.2453   35.6908   47.7207 H   0  0  0  0  0  0  0  0  0  0  0  0
   60.0443   34.3224   49.7782 H   0  0  0  0  0  0  0  0  0  0  0  0
   59.4540   30.9980   50.1570 H   0  0  0  0  0  0  0  0  0  0  0  0
   58.5202   32.8474   51.8098 H   0  0  0  0  0  0  0  0  0  0  0  0
   57.2717   33.0298   50.5198 H   0  0  0  0  0  0  0  0  0  0  0  0
   57.2900   31.1556   52.6567 H   0  0  0  0  0  0  0  0  0  0  0  0
   56.1630   31.2175   51.2587 H   0  0  0  0  0  0  0  0  0  0  0  0
   58.3056   29.6366   53.0195 H   0  0  0  0  0  0  0  0  0  0  0  0
   58.7508   28.3325   51.8672 H   0  0  0  0  0  0  0  0  0  0  0  0
   59.6618   29.8807   51.8672 H   0  0  0  0  0  0  0  0  0  0  0  0
  1  2  1  0
  2  3  1  0
  3  4  1  0
  4  5  1  0
  3  6  1  0
  6  7  1  0
  7  8  1  0
  8  9  1  0
  9 10  2  0
 10 11  1  0
 11 12  2  0
 12 13  1  0
 13 14  2  0
 14 15  1  0
 15 16  2  0
 16 17  1  0
 16 18  1  0
 18 19  2  0
 19 20  1  0
 20 21  2  0
 21 22  1  0
 22 23  1  0
 23 24  1  0
 24 25  1  0
 25 26  1  0
 26 27  1  0
 22 28  2  0
 28  9  1  0
 15 10  1  0
 28 18  1  0
  1 29  1  0
  1 30  1  0
  1 31  1  0
  2 32  1  0
  2 33  1  0
  4 34  1  0
  4 35  1  0
  5 36  1  0
  5 37  1  0
  5 38  1  0
  6 39  1  0
  6 40  1  0
  7 41  1  0
  7 42  1  0
  8 43  1  0
 11 44  1  0
 12 45  1  0
 13 46  1  0
 14 47  1  0
 17 48  1  0
 17 49  1  0
 17 50  1  0
 19 51  1  0
 20 52  1  0
 21 53  1  0
 23 54  1  0
 24 55  1  0
 24 56  1  0
 25 57  1  0
 25 58  1  0
 27 59  1  0
 27 60  1  0
 27 61  1  0
M  CHG  1  16   1
M  END
>  <UniqueID>  (21) 
20

>  <SMILES>  (21) 
CCN(CC)CCNc1c2ccccc2[n+](C)c2cccc(NCCOC)c12

>  <Energy>  (21) 
96.83508211863459

>  <Genealogy>  (21) 
CCN(CC)CCNc1c2ccccc2[n+](C)c2cccc(NCCOC)c12 (3D coordinates assigned)
CCN(CC)CCNc1c2ccccc2[n+](C)c2cccc(NCCOC)c12 (optimized conformer: 96.83508211863459 kcal/mol)

>  <smiles>  (21) 
CCN(CC)CCNc1c2ccccc2[n+](C)c2cccc(NCCOC)c12

>  <score_type>  (21) 
oracle

>  <origin>  (21) 
adg

>  <m_score__min__energy>  (21) 
-5.2999999999999998

>  <m_primary>  (21) 
energy

$$$$
21:0
     RDKit          3D

 49 52  0  0  0  0  0  0  0  0999 V2000
   62.3170   30.4460   51.5120 C   0  0  0  0  0  0  0  0  0  0  0  0
   62.0540   30.7180   50.1030 N   0  0  0  0  0  0  0  0  0  0  0  0
   61.1400   30.0960   49.3240 C   0  0  0  0  0  0  0  0  0  0  0  0
   61.1710   30.6160   48.0340 C   0  0  0  0  0  0  0  0  0  0  0  0
   60.3220   30.1540   46.9220 C   0  0  0  0  0  0  0  0  0  0  0  0
   58.9400   30.0660   46.8900 C   0  0  0  0  0  0  0  0  0  0  0  0
   58.6710   29.6100   45.6150 C   0  0  0  0  0  0  0  0  0  0  0  0
   57.3080   29.3910   45.0180 C   0  0  0  0  0  0  0  0  0  0  0  0
   56.6020   30.6580   44.7660 N   0  0  0  0  0  0  0  0  0  0  0  0
   57.0610   31.3400   43.5450 C   0  0  0  0  0  0  0  0  0  0  0  0
   57.7120   32.6900   43.8750 C   0  0  0  0  0  0  0  0  0  0  0  0
   58.2650   32.6990   45.2440 N   0  0  0  0  0  0  0  0  0  0  0  0
   59.5060   33.4740   45.3530 C   0  0  0  0  0  0  0  0  0  0  0  0
   59.5830   33.9930   46.7820 C   0  0  0  0  0  0  0  0  0  0  0  0
   58.1800   33.8420   47.3460 C   0  0  0  0  0  0  0  0  0  0  0  0
   57.3380   33.3210   46.1920 C   0  0  0  0  0  0  0  0  0  0  0  0
   59.8290   29.4530   44.9510 N   0  0  0  0  0  0  0  0  0  0  0  0
   60.7970   29.7880   45.7510 O   0  0  0  0  0  0  0  0  0  0  0  0
   62.1400   31.6100   48.0500 C   0  0  0  0  0  0  0  0  0  0  0  0
   62.5660   32.5170   47.0750 C   0  0  0  0  0  0  0  0  0  0  0  0
   63.5720   33.4380   47.4200 C   0  0  0  0  0  0  0  0  0  0  0  0
   64.1160   33.4480   48.7210 C   0  0  0  0  0  0  0  0  0  0  0  0
   63.6550   32.5450   49.6930 C   0  0  0  0  0  0  0  0  0  0  0  0
   62.6580   31.6380   49.3250 C   0  0  0  0  0  0  0  0  0  0  0  0
   61.6869   31.0977   52.1351 H   0  0  0  0  0  0  0  0  0  0  0  0
   62.0855   29.3933   51.7316 H   0  0  0  0  0  0  0  0  0  0  0  0
   63.3769   30.6419   51.7316 H   0  0  0  0  0  0  0  0  0  0  0  0
   60.4680   29.2935   49.6621 H   0  0  0  0  0  0  0  0  0  0  0  0
   58.2252   30.3035   47.6917 H   0  0  0  0  0  0  0  0  0  0  0  0
   57.4207   28.8526   44.0654 H   0  0  0  0  0  0  0  0  0  0  0  0
   56.7130   28.8099   45.7379 H   0  0  0  0  0  0  0  0  0  0  0  0
   56.7470   31.2970   45.5850 H   0  0  0  0  0  0  0  0  0  0  0  0
   57.7967   30.7025   43.0329 H   0  0  0  0  0  0  0  0  0  0  0  0
   56.1894   31.5221   42.8991 H   0  0  0  0  0  0  0  0  0  0  0  0
   58.5251   32.8802   43.1589 H   0  0  0  0  0  0  0  0  0  0  0  0
   56.9419   33.4725   43.8066 H   0  0  0  0  0  0  0  0  0  0  0  0
   60.3726   32.8317   45.1372 H   0  0  0  0  0  0  0  0  0  0  0  0
   59.5141   34.3053   44.6326 H   0  0  0  0  0  0  0  0  0  0  0  0
   60.2990   33.3987   47.3686 H   0  0  0  0  0  0  0  0  0  0  0  0
   59.9269   35.0372   46.8185 H   0  0  0  0  0  0  0  0  0  0  0  0
   58.1752   33.1256   48.1807 H   0  0  0  0  0  0  0  0  0  0  0  0
   57.7919   34.7927   47.7405 H   0  0  0  0  0  0  0  0  0  0  0  0
   56.6130   32.5783   46.5564 H   0  0  0  0  0  0  0  0  0  0  0  0
   56.7711   34.1347   45.7161 H   0  0  0  0  0  0  0  0  0  0  0  0
   59.9500   29.1390   43.9630 H   0  0  0  0  0  0  0  0  0  0  0  0
   62.1269   32.5107   46.0665 H   0  0  0  0  0  0  0  0  0  0  0  0
   63.9367   34.1551   46.6699 H   0  0  0  0  0  0  0  0  0  0  0  0
   64.9072   34.1683   48.9764 H   0  0  0  0  0  0  0  0  0  0  0  0
   64.0665   32.5517   50.7131 H   0  0  0  0  0  0  0  0  0  0  0  0
  1  2  1  0
  2  3  1  0
  3  4  2  0
  4  5  1  0
  5  6  2  0
  6  7  1  0
  7  8  1  0
  8  9  1  0
  9 10  1  0
 10 11  1  0
 11 12  1  0
 12 13  1  0
 13 14  1  0
 14 15  1  0
 15 16  1  0
  7 17  2  0
 17 18  1  0
  4 19  1  0
 19 20  2  0
 20 21  1  0
 21 22  2  0
 22 23  1  0
 23 24  2  0
 24  2  1  0
 18  5  1  0
 24 19  1  0
 16 12  1  0
  1 25  1  0
  1 26  1  0
  1 27  1  0
  3 28  1  0
  6 29  1  0
  8 30  1  0
  8 31  1  0
  9 32  1  0
 10 33  1  0
 10 34  1  0
 11 35  1  0
 11 36  1  0
 13 37  1  0
 13 38  1  0
 14 39  1  0
 14 40  1  0
 15 41  1  0
 15 42  1  0
 16 43  1  0
 16 44  1  0
 17 45  1  0
 20 46  1  0
 21 47  1  0
 22 48  1  0
 23 49  1  0
M  CHG  1  17   1
M  END
>  <UniqueID>  (22) 
21

>  <SMILES>  (22) 
Cn1cc(-c2cc(CNCCN3CCCC3)[nH+]o2)c2ccccc21

>  <Energy>  (22) 
118.48506981793493

>  <Genealogy>  (22) 
Cn1cc(-c2cc(CNCCN3CCCC3)[nH+]o2)c2ccccc21 (protonated)
Cn1cc(-c2cc(CNCCN3CCCC3)[nH+]o2)c2ccccc21 (3D coordinates assigned)
Cn1cc(-c2cc(CNCCN3CCCC3)[nH+]o2)c2ccccc21 (nonaromatic ring conformer: 118.48506981793493 kcal/mol)

>  <smiles>  (22) 
Cn1cc(-c2cc(CNCCN3CCCC3)no2)c2ccccc21

>  <score_type>  (22) 
oracle

>  <origin>  (22) 
adg

>  <m_score__min__energy>  (22) 
-6.3499999999999996

>  <m_primary>  (22) 
energy

$$$$
22:0
     RDKit          3D

 74 76  0  0  0  0  0  0  0  0999 V2000
   60.0680   34.2040   49.4610 C   0  0  0  0  0  0  0  0  0  0  0  0
   59.2810   32.8920   49.5570 C   0  0  0  0  0  0  0  0  0  0  0  0
   59.5510   32.0890   50.7790 N   0  0  0  0  0  0  0  0  0  0  0  0
   59.8390   32.9260   51.9830 C   0  0  0  0  0  0  0  0  0  0  0  0
   58.6430   33.6970   52.5720 C   0  0  0  0  0  0  0  0  0  0  0  0
   58.5480   31.0080   50.9740 C   0  0  0  0  0  0  0  0  0  0  0  0
   58.7650   29.8270   50.0160 C   0  0  0  0  0  0  0  0  0  0  0  0
   60.1150   29.8230   49.6030 O   0  0  0  0  0  0  0  0  0  0  0  0
   60.7490   28.6430   50.0530 C   0  0  0  0  0  0  0  0  0  0  0  0
   61.4950   28.9400   51.3490 C   0  0  0  0  0  0  0  0  0  0  0  0
   61.6000   30.3440   51.5080 O   0  0  0  0  0  0  0  0  0  0  0  0
   62.9460   30.7750   51.4900 C   0  0  0  0  0  0  0  0  0  0  0  0
   63.1240   32.0590   50.6540 C   0  0  0  0  0  0  0  0  0  0  0  0
   62.2960   32.0670   49.5070 O   0  0  0  0  0  0  0  0  0  0  0  0
   63.0450   32.2420   48.3190 C   0  0  0  0  0  0  0  0  0  0  0  0
   62.3390   31.5980   47.1260 C   0  0  0  0  0  0  0  0  0  0  0  0
   61.0070   31.1190   47.4990 N   0  0  0  0  0  0  0  0  0  0  0  0
   59.9320   31.0450   46.5430 C   0  0  0  0  0  0  0  0  0  0  0  0
   59.3830   32.2230   46.0010 C   0  0  0  0  0  0  0  0  0  0  0  0
   59.8820   33.4920   46.3690 C   0  0  0  0  0  0  0  0  0  0  0  0
   59.3640   34.6540   45.8040 C   0  0  0  0  0  0  0  0  0  0  0  0
   58.3560   34.5750   44.8520 C   0  0  0  0  0  0  0  0  0  0  0  0
   57.8480   33.3360   44.4690 C   0  0  0  0  0  0  0  0  0  0  0  0
   58.3190   32.1350   45.0600 C   0  0  0  0  0  0  0  0  0  0  0  0
   57.7780   30.9040   44.7350 N   0  0  0  0  0  0  0  0  0  0  0  0
   56.5090   30.8340   43.9760 C   0  0  0  0  0  0  0  0  0  0  0  0
   58.3940   29.7400   45.1600 C   0  0  0  0  0  0  0  0  0  0  0  0
   58.0140   28.4680   44.6600 C   0  0  0  0  0  0  0  0  0  0  0  0
   58.5500   27.2870   45.1870 C   0  0  0  0  0  0  0  0  0  0  0  0
   58.1410   25.9540   44.6330 C   0  0  0  0  0  0  0  0  0  0  0  0
   59.5130   27.3580   46.1930 C   0  0  0  0  0  0  0  0  0  0  0  0
   59.9500   28.5950   46.6600 C   0  0  0  0  0  0  0  0  0  0  0  0
   59.4380   29.7960   46.1230 C   0  0  0  0  0  0  0  0  0  0  0  0
   60.2897   34.5735   50.4731 H   0  0  0  0  0  0  0  0  0  0  0  0
   61.0097   34.0280   48.9205 H   0  0  0  0  0  0  0  0  0  0  0  0
   59.4693   34.9520   48.9205 H   0  0  0  0  0  0  0  0  0  0  0  0
   58.2083   33.1346   49.5374 H   0  0  0  0  0  0  0  0  0  0  0  0
   59.6031   32.2755   48.7048 H   0  0  0  0  0  0  0  0  0  0  0  0
   60.4540   31.6040   50.5580 H   0  0  0  0  0  0  0  0  0  0  0  0
   60.2310   32.2626   52.7680 H   0  0  0  0  0  0  0  0  0  0  0  0
   60.5501   33.6947   51.6462 H   0  0  0  0  0  0  0  0  0  0  0  0
   58.6916   33.6657   53.6705 H   0  0  0  0  0  0  0  0  0  0  0  0
   58.6782   34.7429   52.2331 H   0  0  0  0  0  0  0  0  0  0  0  0
   57.7049   33.2331   52.2331 H   0  0  0  0  0  0  0  0  0  0  0  0
   58.6206   30.6414   52.0086 H   0  0  0  0  0  0  0  0  0  0  0  0
   57.5544   31.4311   50.7646 H   0  0  0  0  0  0  0  0  0  0  0  0
   58.5328   28.8838   50.5322 H   0  0  0  0  0  0  0  0  0  0  0  0
   58.1052   29.9269   49.1415 H   0  0  0  0  0  0  0  0  0  0  0  0
   59.9930   27.8646   50.2334 H   0  0  0  0  0  0  0  0  0  0  0  0
   61.4582   28.2896   49.2901 H   0  0  0  0  0  0  0  0  0  0  0  0
   60.9428   28.5126   52.1989 H   0  0  0  0  0  0  0  0  0  0  0  0
   62.4996   28.4936   51.3109 H   0  0  0  0  0  0  0  0  0  0  0  0
   63.2702   30.9741   52.5221 H   0  0  0  0  0  0  0  0  0  0  0  0
   63.5537   29.9809   51.0316 H   0  0  0  0  0  0  0  0  0  0  0  0
   62.8711   32.9275   51.2799 H   0  0  0  0  0  0  0  0  0  0  0  0
   64.1701   32.1008   50.3165 H   0  0  0  0  0  0  0  0  0  0  0  0
   63.1676   33.3180   48.1264 H   0  0  0  0  0  0  0  0  0  0  0  0
   64.0249   31.7593   48.4484 H   0  0  0  0  0  0  0  0  0  0  0  0
   62.2413   32.3420   46.3217 H   0  0  0  0  0  0  0  0  0  0  0  0
   62.9373   30.7394   46.7871 H   0  0  0  0  0  0  0  0  0  0  0  0
   60.7690   31.0760   48.5160 H   0  0  0  0  0  0  0  0  0  0  0  0
   60.6904   33.5630   47.1116 H   0  0  0  0  0  0  0  0  0  0  0  0
   59.7534   35.6356   46.1119 H   0  0  0  0  0  0  0  0  0  0  0  0
   57.9572   35.4945   44.3987 H   0  0  0  0  0  0  0  0  0  0  0  0
   57.0680   33.2876   43.6948 H   0  0  0  0  0  0  0  0  0  0  0  0
   55.6637   30.7874   44.6784 H   0  0  0  0  0  0  0  0  0  0  0  0
   56.4107   31.7281   43.3428 H   0  0  0  0  0  0  0  0  0  0  0  0
   56.5096   29.9345   43.3428 H   0  0  0  0  0  0  0  0  0  0  0  0
   57.2825   28.4084   43.8406 H   0  0  0  0  0  0  0  0  0  0  0  0
   57.9287   25.2621   45.4614 H   0  0  0  0  0  0  0  0  0  0  0  0
   57.2386   26.0747   44.0157 H   0  0  0  0  0  0  0  0  0  0  0  0
   58.9558   25.5478   44.0157 H   0  0  0  0  0  0  0  0  0  0  0  0
   59.9291   26.4333   46.6194 H   0  0  0  0  0  0  0  0  0  0  0  0
   60.7050   28.6369   47.4588 H   0  0  0  0  0  0  0  0  0  0  0  0
  1  2  1  0
  2  3  1  0
  3  4  1  0
  4  5  1  0
  3  6  1  0
  6  7  1  0
  7  8  1  0
  8  9  1  0
  9 10  1  0
 10 11  1  0
 11 12  1  0
 12 13  1  0
 13 14  1  0
 14 15  1  0
 15 16  1  0
 16 17  1  0
 17 18  1  0
 18 19  2  0
 19 20  1  0
 20 21  2  0
 21 22  1  0
 22 23  2  0
 23 24  1  0
 24 25  2  0
 25 26  1  0
 25 27  1  0
 27 28  2  0
 28 29  1  0
 29 30  1  0
 29 31  2  0
 31 32  1  0
 32 33  2  0
 33 18  1  0
 24 19  1  0
 33 27  1  0
  1 34  1  0
  1 35  1  0
  1 36  1  0
  2 37  1  0
  2 38  1  0
  3 39  1  0
  4 40  1  0
  4 41  1  0
  5 42  1  0
  5 43  1  0
  5 44  1  0
  6 45  1  0
  6 46  1  0
  7 47  1  0
  7 48  1  0
  9 49  1  0
  9 50  1  0
 10 51  1  0
 10 52  1  0
 12 53  1  0
 12 54  1  0
 13 55  1  0
 13 56  1  0
 15 57  1  0
 15 58  1  0
 16 59  1  0
 16 60  1  0
 17 61  1  0
 20 62  1  0
 21 63  1  0
 22 64  1  0
 23 65  1  0
 26 66  1  0
 26 67  1  0
 26 68  1  0
 28 69  1  0
 30 70  1  0
 30 71  1  0
 30 72  1  0
 31 73  1  0
 32 74  1  0
M  CHG  2   3   1  25   1
M  END
>  <UniqueID>  (23) 
22

>  <SMILES>  (23) 
CC[NH+](CC)CCOCCOCCOCCNc1c2ccccc2[n+](C)c2cc(C)ccc12

>  <Energy>  (23) 
104.96527533156271

>  <Genealogy>  (23) 
CC[NH+](CC)CCOCCOCCOCCNc1c2ccccc2[n+](C)c2cc(C)ccc12 (protonated)
CC[NH+](CC)CCOCCOCCOCCNc1c2ccccc2[n+](C)c2cc(C)ccc12 (3D coordinates assigned)
CC[NH+](CC)CCOCCOCCOCCNc1c2ccccc2[n+](C)c2cc(C)ccc12 (optimized conformer: 104.96527533156271 kcal/mol)

>  <smiles>  (23) 
CCN(CC)CCOCCOCCOCCNc1c2ccccc2[n+](C)c2cc(C)ccc12

>  <score_type>  (23) 
oracle

>  <origin>  (23) 
adg

>  <m_score__min__energy>  (23) 
-3.3399999999999999

>  <m_primary>  (23) 
energy

$$$$
23:0
     RDKit          3D

 65 68  0  0  0  0  0  0  0  0999 V2000
   62.7060   34.2250   49.1780 C   0  0  0  0  0  0  0  0  0  0  0  0
   62.2530   33.5740   47.8650 C   0  0  0  0  0  0  0  0  0  0  0  0
   63.4070   33.5180   46.8550 C   0  0  0  0  0  0  0  0  0  0  0  0
   60.9710   34.2220   47.2850 C   0  0  0  0  0  0  0  0  0  0  0  0
   59.7700   34.2960   48.2380 C   0  0  0  0  0  0  0  0  0  0  0  0
   58.7040   33.5250   47.7300 O   0  0  0  0  0  0  0  0  0  0  0  0
   59.0710   32.9560   46.4920 C   0  0  0  0  0  0  0  0  0  0  0  0
   58.7790   31.5220   46.5230 N   0  0  0  0  0  0  0  0  0  0  0  0
   59.4060   30.5620   47.2540 C   0  0  0  0  0  0  0  0  0  0  0  0
   60.5890   30.8310   48.1590 C   0  0  0  0  0  0  0  0  0  0  0  0
   60.1460   31.3210   49.5160 C   0  0  0  0  0  0  0  0  0  0  0  0
   61.0980   31.6860   50.4840 C   0  0  0  0  0  0  0  0  0  0  0  0
   60.6880   32.1240   51.7470 C   0  0  0  0  0  0  0  0  0  0  0  0
   59.3270   32.1870   52.0600 C   0  0  0  0  0  0  0  0  0  0  0  0
   58.9320   32.6120   53.2860 F   0  0  0  0  0  0  0  0  0  0  0  0
   58.3740   31.8100   51.1100 C   0  0  0  0  0  0  0  0  0  0  0  0
   58.7800   31.3740   49.8460 C   0  0  0  0  0  0  0  0  0  0  0  0
   58.8620   29.2950   46.9620 C   0  0  0  0  0  0  0  0  0  0  0  0
   59.2460   27.9820   47.6010 C   0  0  0  0  0  0  0  0  0  0  0  0
   60.0670   27.2690   46.7510 F   0  0  0  0  0  0  0  0  0  0  0  0
   58.1200   27.2430   47.8920 F   0  0  0  0  0  0  0  0  0  0  0  0
   59.9110   28.1900   48.7930 F   0  0  0  0  0  0  0  0  0  0  0  0
   57.9240   29.5170   45.9480 C   0  0  0  0  0  0  0  0  0  0  0  0
   57.1200   28.6730   45.1570 C   0  0  0  0  0  0  0  0  0  0  0  0
   57.2280   27.2430   45.1820 N   0  0  0  0  0  0  0  0  0  0  0  0
   57.8950   26.6030   44.0370 C   0  0  0  0  0  0  0  0  0  0  0  0
   57.7440   25.0770   44.0630 C   0  0  0  0  0  0  0  0  0  0  0  0
   57.9050   24.5580   45.4900 C   0  0  0  0  0  0  0  0  0  0  0  0
   56.8130   25.1130   46.4220 C   0  0  0  0  0  0  0  0  0  0  0  0
   56.2600   26.4870   45.9880 C   0  0  0  0  0  0  0  0  0  0  0  0
   56.2650   29.2830   44.2160 C   0  0  0  0  0  0  0  0  0  0  0  0
   56.2570   30.6810   44.0710 C   0  0  0  0  0  0  0  0  0  0  0  0
   57.0840   31.4570   44.8240 N   0  0  0  0  0  0  0  0  0  0  0  0
   57.8970   30.8760   45.7430 C   0  0  0  0  0  0  0  0  0  0  0  0
   62.3072   33.6520   50.0281 H   0  0  0  0  0  0  0  0  0  0  0  0
   63.8050   34.2319   49.2238 H   0  0  0  0  0  0  0  0  0  0  0  0
   62.3306   35.2579   49.2238 H   0  0  0  0  0  0  0  0  0  0  0  0
   61.9700   32.5357   48.0924 H   0  0  0  0  0  0  0  0  0  0  0  0
   64.3645   33.4715   47.3945 H   0  0  0  0  0  0  0  0  0  0  0  0
   63.2983   32.6241   46.2233 H   0  0  0  0  0  0  0  0  0  0  0  0
   63.3854   34.4183   46.2233 H   0  0  0  0  0  0  0  0  0  0  0  0
   61.2211   35.2479   46.9770 H   0  0  0  0  0  0  0  0  0  0  0  0
   60.6554   33.5705   46.4568 H   0  0  0  0  0  0  0  0  0  0  0  0
   60.0631   33.9074   49.2245 H   0  0  0  0  0  0  0  0  0  0  0  0
   59.4464   35.3432   48.3311 H   0  0  0  0  0  0  0  0  0  0  0  0
   58.4979   33.4319   45.6827 H   0  0  0  0  0  0  0  0  0  0  0  0
   60.1450   33.1134   46.3137 H   0  0  0  0  0  0  0  0  0  0  0  0
   61.1622   29.9005   48.2844 H   0  0  0  0  0  0  0  0  0  0  0  0
   61.2085   31.6125   47.6948 H   0  0  0  0  0  0  0  0  0  0  0  0
   62.1705   31.6267   50.2467 H   0  0  0  0  0  0  0  0  0  0  0  0
   61.4378   32.4195   52.4957 H   0  0  0  0  0  0  0  0  0  0  0  0
   57.3032   31.8565   51.3575 H   0  0  0  0  0  0  0  0  0  0  0  0
   58.0264   31.0703   49.1045 H   0  0  0  0  0  0  0  0  0  0  0  0
   57.4512   26.9879   43.1070 H   0  0  0  0  0  0  0  0  0  0  0  0
   58.9679   26.8391   44.0936 H   0  0  0  0  0  0  0  0  0  0  0  0
   56.7472   24.8036   43.6867 H   0  0  0  0  0  0  0  0  0  0  0  0
   58.5205   24.6275   43.4267 H   0  0  0  0  0  0  0  0  0  0  0  0
   57.8411   23.4599   45.4797 H   0  0  0  0  0  0  0  0  0  0  0  0
   58.8824   24.8914   45.8689 H   0  0  0  0  0  0  0  0  0  0  0  0
   55.9795   24.3956   46.4447 H   0  0  0  0  0  0  0  0  0  0  0  0
   57.2767   25.2527   47.4097 H   0  0  0  0  0  0  0  0  0  0  0  0
   55.3484   26.3304   45.3927 H   0  0  0  0  0  0  0  0  0  0  0  0
   56.0482   27.0692   46.8969 H   0  0  0  0  0  0  0  0  0  0  0  0
   55.6026   28.6631   43.5939 H   0  0  0  0  0  0  0  0  0  0  0  0
   55.5781   31.1511   43.3443 H   0  0  0  0  0  0  0  0  0  0  0  0
  1  2  1  0
  2  3  1  0
  2  4  1  0
  4  5  1  0
  5  6  1  0
  6  7  1  0
  7  8  1  0
  8  9  1  0
  9 10  1  0
 10 11  1  0
 11 12  2  0
 12 13  1  0
 13 14  2  0
 14 15  1  0
 14 16  1  0
 16 17  2  0
  9 18  2  0
 18 19  1  0
 19 20  1  0
 19 21  1  0
 19 22  1  0
 18 23  1  0
 23 24  2  0
 24 25  1  0
 25 26  1  0
 26 27  1  0
 27 28  1  0
 28 29  1  0
 29 30  1  0
 24 31  1  0
 31 32  2  0
 32 33  1  0
 33 34  2  0
 34  8  1  0
 17 11  1  0
 34 23  1  0
 30 25  1  0
  1 35  1  0
  1 36  1  0
  1 37  1  0
  2 38  1  0
  3 39  1  0
  3 40  1  0
  3 41  1  0
  4 42  1  0
  4 43  1  0
  5 44  1  0
  5 45  1  0
  7 46  1  0
  7 47  1  0
 10 48  1  0
 10 49  1  0
 12 50  1  0
 13 51  1  0
 16 52  1  0
 17 53  1  0
 26 54  1  0
 26 55  1  0
 27 56  1  0
 27 57  1  0
 28 58  1  0
 28 59  1  0
 29 60  1  0
 29 61  1  0
 30 62  1  0
 30 63  1  0
 31 64  1  0
 32 65  1  0
M  END
>  <UniqueID>  (24) 
23

>  <SMILES>  (24) 
CC(C)CCOCn1c(Cc2ccc(F)cc2)c(C(F)(F)F)c2c(N3CCCCC3)ccnc21

>  <Energy>  (24) 
106.17115352368467

>  <Genealogy>  (24) 
CC(C)CCOCn1c(Cc2ccc(F)cc2)c(C(F)(F)F)c2c(N3CCCCC3)ccnc21 (3D coordinates assigned)
CC(C)CCOCn1c(Cc2ccc(F)cc2)c(C(F)(F)F)c2c(N3CCCCC3)ccnc21 (nonaromatic ring conformer: 106.17115352368467 kcal/mol)

>  <smiles>  (24) 
CC(C)CCOCn1c(Cc2ccc(F)cc2)c(C(F)(F)F)c2c(N3CCCCC3)ccnc21

>  <score_type>  (24) 
oracle

>  <origin>  (24) 
adg

>  <m_score__min__energy>  (24) 
-7.6500000000000004

>  <m_primary>  (24) 
energy

$$$$
24:0
     RDKit          3D

 50 52  0  0  0  0  0  0  0  0999 V2000
   58.8620   32.5460   50.2430 C   0  0  0  0  0  0  0  0  0  0  0  0
   57.8560   31.6110   50.9200 C   0  0  0  0  0  0  0  0  0  0  0  0
   58.1920   30.1880   50.7320 N   0  0  0  0  0  0  0  0  0  0  0  0
   59.4040   30.0050   49.9190 C   0  0  0  0  0  0  0  0  0  0  0  0
   59.0840   29.2390   48.6280 C   0  0  0  0  0  0  0  0  0  0  0  0
   60.1120   29.4670   47.6110 N   0  0  0  0  0  0  0  0  0  0  0  0
   60.1910   30.7230   46.9180 C   0  0  0  0  0  0  0  0  0  0  0  0
   61.2070   31.6280   47.2610 C   0  0  0  0  0  0  0  0  0  0  0  0
   62.3350   31.2040   47.9940 C   0  0  0  0  0  0  0  0  0  0  0  0
   63.3680   32.0940   48.2840 C   0  0  0  0  0  0  0  0  0  0  0  0
   63.2980   33.4100   47.8410 C   0  0  0  0  0  0  0  0  0  0  0  0
   62.1790   33.8530   47.1350 C   0  0  0  0  0  0  0  0  0  0  0  0
   61.0940   32.9820   46.8640 C   0  0  0  0  0  0  0  0  0  0  0  0
   59.9380   33.4220   46.2510 N   0  0  0  0  0  0  0  0  0  0  0  0
   59.6520   34.8730   46.1760 C   0  0  0  0  0  0  0  0  0  0  0  0
   59.0420   32.5060   45.7270 C   0  0  0  0  0  0  0  0  0  0  0  0
   57.9720   32.9200   44.9020 C   0  0  0  0  0  0  0  0  0  0  0  0
   57.0300   32.0160   44.4340 C   0  0  0  0  0  0  0  0  0  0  0  0
   57.1630   30.6510   44.6810 C   0  0  0  0  0  0  0  0  0  0  0  0
   56.1180   29.7200   44.1190 C   0  0  0  0  0  0  0  0  0  0  0  0
   58.3060   30.1760   45.3720 C   0  0  0  0  0  0  0  0  0  0  0  0
   58.6340   28.6970   45.3150 C   0  0  0  0  0  0  0  0  0  0  0  0
   59.1820   31.1150   46.0060 C   0  0  0  0  0  0  0  0  0  0  0  0
   59.4388   33.0821   51.0111 H   0  0  0  0  0  0  0  0  0  0  0  0
   59.5464   31.9559   49.6158 H   0  0  0  0  0  0  0  0  0  0  0  0
   58.3235   33.2717   49.6158 H   0  0  0  0  0  0  0  0  0  0  0  0
   57.8407   31.8303   51.9978 H   0  0  0  0  0  0  0  0  0  0  0  0
   56.8735   31.7861   50.4573 H   0  0  0  0  0  0  0  0  0  0  0  0
   58.3540   29.7720   51.6800 H   0  0  0  0  0  0  0  0  0  0  0  0
   57.3860   29.6870   50.2900 H   0  0  0  0  0  0  0  0  0  0  0  0
   59.8169   30.9912   49.6602 H   0  0  0  0  0  0  0  0  0  0  0  0
   60.1348   29.4246   50.5013 H   0  0  0  0  0  0  0  0  0  0  0  0
   59.0326   28.1633   48.8519 H   0  0  0  0  0  0  0  0  0  0  0  0
   58.1207   29.5993   48.2378 H   0  0  0  0  0  0  0  0  0  0  0  0
   60.9460   28.8380   47.6080 H   0  0  0  0  0  0  0  0  0  0  0  0
   62.4002   30.1618   48.3399 H   0  0  0  0  0  0  0  0  0  0  0  0
   64.2391   31.7548   48.8637 H   0  0  0  0  0  0  0  0  0  0  0  0
   64.1266   34.1034   48.0475 H   0  0  0  0  0  0  0  0  0  0  0  0
   62.1382   34.8944   46.7832 H   0  0  0  0  0  0  0  0  0  0  0  0
   59.5710   35.2838   47.1932 H   0  0  0  0  0  0  0  0  0  0  0  0
   60.4675   35.3802   45.6395 H   0  0  0  0  0  0  0  0  0  0  0  0
   58.7051   35.0328   45.6395 H   0  0  0  0  0  0  0  0  0  0  0  0
   57.8844   33.9810   44.6253 H   0  0  0  0  0  0  0  0  0  0  0  0
   56.1659   32.3816   43.8599 H   0  0  0  0  0  0  0  0  0  0  0  0
   55.5754   29.2366   44.9448 H   0  0  0  0  0  0  0  0  0  0  0  0
   55.4108   30.2928   43.5012 H   0  0  0  0  0  0  0  0  0  0  0  0
   56.6057   28.9516   43.5012 H   0  0  0  0  0  0  0  0  0  0  0  0
   58.7218   28.3012   46.3376 H   0  0  0  0  0  0  0  0  0  0  0  0
   57.8323   28.1639   44.7830 H   0  0  0  0  0  0  0  0  0  0  0  0
   59.5860   28.5528   44.7830 H   0  0  0  0  0  0  0  0  0  0  0  0
  1  2  1  0
  2  3  1  0
  3  4  1  0
  4  5  1  0
  5  6  1  0
  6  7  1  0
  7  8  2  0
  8  9  1  0
  9 10  2  0
 10 11  1  0
 11 12  2  0
 12 13  1  0
 13 14  2  0
 14 15  1  0
 14 16  1  0
 16 17  2  0
 17 18  1  0
 18 19  2  0
 19 20  1  0
 19 21  1  0
 21 22  1  0
 21 23  2  0
 23  7  1  0
 13  8  1  0
 23 16  1  0
  1 24  1  0
  1 25  1  0
  1 26  1  0
  2 27  1  0
  2 28  1  0
  3 29  1  0
  3 30  1  0
  4 31  1  0
  4 32  1  0
  5 33  1  0
  5 34  1  0
  6 35  1  0
  9 36  1  0
 10 37  1  0
 11 38  1  0
 12 39  1  0
 15 40  1  0
 15 41  1  0
 15 42  1  0
 17 43  1  0
 18 44  1  0
 20 45  1  0
 20 46  1  0
 20 47  1  0
 22 48  1  0
 22 49  1  0
 22 50  1  0
M  CHG  2   3   1  14   1
M  END
>  <UniqueID>  (25) 
24

>  <SMILES>  (25) 
CC[NH2+]CCNc1c2ccccc2[n+](C)c2ccc(C)c(C)c12

>  <Energy>  (25) 
84.5862933783787

>  <Genealogy>  (25) 
CC[NH2+]CCNc1c2ccccc2[n+](C)c2ccc(C)c(C)c12 (protonated)
CC[NH2+]CCNc1c2ccccc2[n+](C)c2ccc(C)c(C)c12 (3D coordinates assigned)
CC[NH2+]CCNc1c2ccccc2[n+](C)c2ccc(C)c(C)c12 (optimized conformer: 84.5862933783787 kcal/mol)

>  <smiles>  (25) 
CCNCCNc1c2ccccc2[n+](C)c2ccc(C)c(C)c12

>  <score_type>  (25) 
oracle

>  <origin>  (25) 
adg

>  <m_score__min__energy>  (25) 
-4.8200000000000003

>  <m_primary>  (25) 
energy

$$$$
25:0
     RDKit          3D

 53 55  0  0  0  0  0  0  0  0999 V2000
   63.6780   33.3450   46.7660 C   0  0  0  0  0  0  0  0  0  0  0  0
   62.3270   33.7480   47.3820 C   0  0  0  0  0  0  0  0  0  0  0  0
   61.6040   32.6250   48.0350 N   0  0  0  0  0  0  0  0  0  0  0  0
   62.2970   32.1250   49.2390 C   0  0  0  0  0  0  0  0  0  0  0  0
   60.1750   32.9380   48.2890 C   0  0  0  0  0  0  0  0  0  0  0  0
   59.7170   34.1400   47.4550 C   0  0  0  0  0  0  0  0  0  0  0  0
   59.9130   33.8550   46.0870 O   0  0  0  0  0  0  0  0  0  0  0  0
   59.2520   34.8180   45.2950 C   0  0  0  0  0  0  0  0  0  0  0  0
   57.9150   34.2500   44.8150 C   0  0  0  0  0  0  0  0  0  0  0  0
   58.1050   32.9770   44.1930 O   0  0  0  0  0  0  0  0  0  0  0  0
   57.8300   31.7320   44.7830 C   0  0  0  0  0  0  0  0  0  0  0  0
   56.8020   30.8900   44.3330 C   0  0  0  0  0  0  0  0  0  0  0  0
   56.5560   29.6520   44.9460 C   0  0  0  0  0  0  0  0  0  0  0  0
   55.4410   28.9370   44.4910 O   0  0  0  0  0  0  0  0  0  0  0  0
   57.4170   29.2020   45.9920 C   0  0  0  0  0  0  0  0  0  0  0  0
   57.3650   27.9130   46.5800 C   0  0  0  0  0  0  0  0  0  0  0  0
   56.5680   27.0220   46.1700 O   0  0  0  0  0  0  0  0  0  0  0  0
   58.2460   27.5890   47.6170 C   0  0  0  0  0  0  0  0  0  0  0  0
   59.1870   28.5350   48.0490 C   0  0  0  0  0  0  0  0  0  0  0  0
   60.1550   28.2430   49.1360 C   0  0  0  0  0  0  0  0  0  0  0  0
   60.8000   29.3130   49.7900 C   0  0  0  0  0  0  0  0  0  0  0  0
   61.7310   29.0710   50.8110 C   0  0  0  0  0  0  0  0  0  0  0  0
   62.0200   27.7610   51.2000 C   0  0  0  0  0  0  0  0  0  0  0  0
   61.3750   26.6890   50.5720 C   0  0  0  0  0  0  0  0  0  0  0  0
   60.4450   26.9260   49.5500 C   0  0  0  0  0  0  0  0  0  0  0  0
   59.2420   29.7220   47.4470 O   0  0  0  0  0  0  0  0  0  0  0  0
   58.4310   30.0790   46.4570 C   0  0  0  0  0  0  0  0  0  0  0  0
   58.6090   31.3320   45.8680 C   0  0  0  0  0  0  0  0  0  0  0  0
   64.3979   33.1303   47.5695 H   0  0  0  0  0  0  0  0  0  0  0  0
   63.5443   32.4476   46.1440 H   0  0  0  0  0  0  0  0  0  0  0  0
   64.0578   34.1690   46.1440 H   0  0  0  0  0  0  0  0  0  0  0  0
   62.5090   34.5279   48.1361 H   0  0  0  0  0  0  0  0  0  0  0  0
   61.6915   34.0996   46.5559 H   0  0  0  0  0  0  0  0  0  0  0  0
   61.7833   32.4957   50.1383 H   0  0  0  0  0  0  0  0  0  0  0  0
   62.2865   31.0251   49.2379 H   0  0  0  0  0  0  0  0  0  0  0  0
   63.3375   32.4818   49.2379 H   0  0  0  0  0  0  0  0  0  0  0  0
   59.5630   32.0631   48.0246 H   0  0  0  0  0  0  0  0  0  0  0  0
   60.0554   33.1856   49.3541 H   0  0  0  0  0  0  0  0  0  0  0  0
   58.6503   34.3328   47.6418 H   0  0  0  0  0  0  0  0  0  0  0  0
   60.3006   35.0293   47.7354 H   0  0  0  0  0  0  0  0  0  0  0  0
   59.0726   35.7240   45.8924 H   0  0  0  0  0  0  0  0  0  0  0  0
   59.8771   35.0708   44.4259 H   0  0  0  0  0  0  0  0  0  0  0  0
   57.2407   34.1347   45.6764 H   0  0  0  0  0  0  0  0  0  0  0  0
   57.4779   34.9425   44.0806 H   0  0  0  0  0  0  0  0  0  0  0  0
   56.1776   31.2060   43.4843 H   0  0  0  0  0  0  0  0  0  0  0  0
   55.1210   28.0610   44.8770 H   0  0  0  0  0  0  0  0  0  0  0  0
   58.2010   26.5975   48.0912 H   0  0  0  0  0  0  0  0  0  0  0  0
   60.5707   30.3480   49.4965 H   0  0  0  0  0  0  0  0  0  0  0  0
   62.2344   29.9144   51.3062 H   0  0  0  0  0  0  0  0  0  0  0  0
   62.7529   27.5721   51.9982 H   0  0  0  0  0  0  0  0  0  0  0  0
   61.5986   25.6573   50.8814 H   0  0  0  0  0  0  0  0  0  0  0  0
   59.9373   26.0781   49.0670 H   0  0  0  0  0  0  0  0  0  0  0  0
   59.3751   32.0138   46.2657 H   0  0  0  0  0  0  0  0  0  0  0  0
  1  2  1  0
  2  3  1  0
  3  4  1  0
  3  5  1  0
  5  6  1  0
  6  7  1  0
  7  8  1  0
  8  9  1  0
  9 10  1  0
 10 11  1  0
 11 12  2  0
 12 13  1  0
 13 14  1  0
 13 15  2  0
 15 16  1  0
 16 17  2  0
 16 18  1  0
 18 19  2  0
 19 20  1  0
 20 21  2  0
 21 22  1  0
 22 23  2  0
 23 24  1  0
 24 25  2  0
 19 26  1  0
 26 27  1  0
 27 28  2  0
 28 11  1  0
 27 15  1  0
 25 20  1  0
  1 29  1  0
  1 30  1  0
  1 31  1  0
  2 32  1  0
  2 33  1  0
  4 34  1  0
  4 35  1  0
  4 36  1  0
  5 37  1  0
  5 38  1  0
  6 39  1  0
  6 40  1  0
  8 41  1  0
  8 42  1  0
  9 43  1  0
  9 44  1  0
 12 45  1  0
 14 46  1  0
 18 47  1  0
 21 48  1  0
 22 49  1  0
 23 50  1  0
 24 51  1  0
 25 52  1  0
 28 53  1  0
M  END
>  <UniqueID>  (26) 
25

>  <SMILES>  (26) 
CCN(C)CCOCCOc1cc(O)c2c(=O)cc(-c3ccccc3)oc2c1

>  <Energy>  (26) 
66.24730982864695

>  <Genealogy>  (26) 
CCN(C)CCOCCOc1cc(O)c2c(=O)cc(-c3ccccc3)oc2c1 (3D coordinates assigned)
CCN(C)CCOCCOc1cc(O)c2c(=O)cc(-c3ccccc3)oc2c1 (optimized conformer: 66.24730982864695 kcal/mol)

>  <smiles>  (26) 
CCN(C)CCOCCOc1cc(O)c2c(=O)cc(-c3ccccc3)oc2c1

>  <score_type>  (26) 
oracle

>  <origin>  (26) 
adg

>  <m_score__min__energy>  (26) 
-6.5999999999999996

>  <m_primary>  (26) 
energy

$$$$
26:0
     RDKit          3D

 42 45  0  0  0  0  0  0  0  0999 V2000
   59.6440   35.6030   45.6230 C   0  0  0  0  0  0  0  0  0  0  0  0
   59.2830   34.2870   46.1480 N   0  0  0  0  0  0  0  0  0  0  0  0
   59.4090   33.8460   47.4260 C   0  0  0  0  0  0  0  0  0  0  0  0
   59.9590   34.5210   48.5200 C   0  0  0  0  0  0  0  0  0  0  0  0
   59.9760   33.8630   49.7640 C   0  0  0  0  0  0  0  0  0  0  0  0
   59.4450   32.5620   49.8970 C   0  0  0  0  0  0  0  0  0  0  0  0
   58.8870   31.9020   48.7880 C   0  0  0  0  0  0  0  0  0  0  0  0
   58.8850   32.5740   47.5670 C   0  0  0  0  0  0  0  0  0  0  0  0
   58.3970   32.2180   46.3310 C   0  0  0  0  0  0  0  0  0  0  0  0
   57.7460   31.0650   45.8970 C   0  0  0  0  0  0  0  0  0  0  0  0
   57.3320   31.0090   44.5510 C   0  0  0  0  0  0  0  0  0  0  0  0
   56.5350   29.5680   43.9260 S   0  0  0  0  0  0  0  0  0  0  0  0
   55.1490   29.4620   44.5020 O   0  0  0  0  0  0  0  0  0  0  0  0
   56.4240   29.6850   42.4320 O   0  0  0  0  0  0  0  0  0  0  0  0
   57.4660   28.1470   44.3400 N   0  0  0  0  0  0  0  0  0  0  0  0
   58.9090   28.4690   44.3290 C   0  0  0  0  0  0  0  0  0  0  0  0
   59.6980   27.4700   45.1930 C   0  0  0  0  0  0  0  0  0  0  0  0
   59.3020   27.4480   46.5600 O   0  0  0  0  0  0  0  0  0  0  0  0
   57.9790   27.9160   46.7820 C   0  0  0  0  0  0  0  0  0  0  0  0
   57.0140   27.5740   45.6340 C   0  0  0  0  0  0  0  0  0  0  0  0
   57.5840   32.1000   43.6850 C   0  0  0  0  0  0  0  0  0  0  0  0
   58.2390   33.2550   44.1540 C   0  0  0  0  0  0  0  0  0  0  0  0
   58.6440   33.2850   45.4910 C   0  0  0  0  0  0  0  0  0  0  0  0
   59.8330   36.2921   46.4593 H   0  0  0  0  0  0  0  0  0  0  0  0
   60.5514   35.5159   45.0074 H   0  0  0  0  0  0  0  0  0  0  0  0
   58.8191   35.9911   45.0074 H   0  0  0  0  0  0  0  0  0  0  0  0
   60.3666   35.5369   48.4115 H   0  0  0  0  0  0  0  0  0  0  0  0
   60.4073   34.3675   50.6412 H   0  0  0  0  0  0  0  0  0  0  0  0
   59.4679   32.0606   50.8758 H   0  0  0  0  0  0  0  0  0  0  0  0
   58.4664   30.8898   48.8809 H   0  0  0  0  0  0  0  0  0  0  0  0
   57.5611   30.2253   46.5831 H   0  0  0  0  0  0  0  0  0  0  0  0
   57.2830   27.4410   43.5890 H   0  0  0  0  0  0  0  0  0  0  0  0
   59.2808   28.4236   43.2947 H   0  0  0  0  0  0  0  0  0  0  0  0
   59.0481   29.4791   44.7418 H   0  0  0  0  0  0  0  0  0  0  0  0
   59.5546   26.4626   44.7751 H   0  0  0  0  0  0  0  0  0  0  0  0
   60.7497   27.7918   45.1714 H   0  0  0  0  0  0  0  0  0  0  0  0
   57.5974   27.4594   47.7071 H   0  0  0  0  0  0  0  0  0  0  0  0
   58.0279   29.0127   46.8518 H   0  0  0  0  0  0  0  0  0  0  0  0
   56.9517   26.4802   45.5360 H   0  0  0  0  0  0  0  0  0  0  0  0
   56.0320   28.0077   45.8740 H   0  0  0  0  0  0  0  0  0  0  0  0
   57.2646   32.0450   42.6338 H   0  0  0  0  0  0  0  0  0  0  0  0
   58.4265   34.1093   43.4868 H   0  0  0  0  0  0  0  0  0  0  0  0
  1  2  1  0
  2  3  1  0
  3  4  2  0
  4  5  1  0
  5  6  2  0
  6  7  1  0
  7  8  2  0
  8  9  1  0
  9 10  2  0
 10 11  1  0
 11 12  1  0
 12 13  2  0
 12 14  2  0
 12 15  1  0
 15 16  1  0
 16 17  1  0
 17 18  1  0
 18 19  1  0
 19 20  1  0
 11 21  2  0
 21 22  1  0
 22 23  2  0
 23  2  1  0
  8  3  1  0
 23  9  1  0
 20 15  1  0
  1 24  1  0
  1 25  1  0
  1 26  1  0
  4 27  1  0
  5 28  1  0
  6 29  1  0
  7 30  1  0
 10 31  1  0
 15 32  1  0
 16 33  1  0
 16 34  1  0
 17 35  1  0
 17 36  1  0
 19 37  1  0
 19 38  1  0
 20 39  1  0
 20 40  1  0
 21 41  1  0
 22 42  1  0
M  CHG  1  15   1
M  END
>  <UniqueID>  (27) 
26

>  <SMILES>  (27) 
Cn1c2ccccc2c2cc(S(=O)(=O)[NH+]3CCOCC3)ccc21

>  <Energy>  (27) 
98.83607058293839

>  <Genealogy>  (27) 
Cn1c2ccccc2c2cc(S(=O)(=O)[NH+]3CCOCC3)ccc21 (protonated)
Cn1c2ccccc2c2cc(S(=O)(=O)[NH+]3CCOCC3)ccc21 (3D coordinates assigned)
Cn1c2ccccc2c2cc(S(=O)(=O)[NH+]3CCOCC3)ccc21 (nonaromatic ring conformer: 98.83607058293839 kcal/mol)

>  <smiles>  (27) 
Cn1c2ccccc2c2cc(S(=O)(=O)N3CCOCC3)ccc21

>  <score_type>  (27) 
oracle

>  <origin>  (27) 
adg

>  <m_score__min__energy>  (27) 
-7.1200000000000001

>  <m_primary>  (27) 
energy

$$$$
27:0
     RDKit          3D

 58 62  0  0  0  0  0  0  0  0999 V2000
   58.9760   34.9060   44.9950 C   0  0  0  0  0  0  0  0  0  0  0  0
   59.9970   35.3630   46.0390 C   0  0  0  0  0  0  0  0  0  0  0  0
   60.6130   34.2200   46.7480 N   0  0  0  0  0  0  0  0  0  0  0  0
   61.9890   33.8380   46.3640 C   0  0  0  0  0  0  0  0  0  0  0  0
   62.9400   33.7850   47.5710 C   0  0  0  0  0  0  0  0  0  0  0  0
   63.4130   32.4250   47.8320 N   0  0  0  0  0  0  0  0  0  0  0  0
   63.3020   31.8760   49.1510 C   0  0  0  0  0  0  0  0  0  0  0  0
   64.2730   32.2220   50.1100 C   0  0  0  0  0  0  0  0  0  0  0  0
   65.4170   32.9670   49.7470 C   0  0  0  0  0  0  0  0  0  0  0  0
   66.4020   33.2630   50.6850 C   0  0  0  0  0  0  0  0  0  0  0  0
   66.2700   32.8190   51.9950 C   0  0  0  0  0  0  0  0  0  0  0  0
   65.1360   32.1070   52.3820 C   0  0  0  0  0  0  0  0  0  0  0  0
   64.0960   31.8280   51.4590 C   0  0  0  0  0  0  0  0  0  0  0  0
   62.9330   31.1940   51.8450 N   0  0  0  0  0  0  0  0  0  0  0  0
   62.5930   31.0930   53.2810 C   0  0  0  0  0  0  0  0  0  0  0  0
   62.0770   30.6760   50.8900 C   0  0  0  0  0  0  0  0  0  0  0  0
   61.0400   29.7790   51.2550 C   0  0  0  0  0  0  0  0  0  0  0  0
   60.1550   29.2790   50.3110 C   0  0  0  0  0  0  0  0  0  0  0  0
   60.2920   29.6190   48.9760 C   0  0  0  0  0  0  0  0  0  0  0  0
   61.3250   30.4600   48.5560 C   0  0  0  0  0  0  0  0  0  0  0  0
   61.4440   30.6570   46.8080 Cl  0  0  0  0  0  0  0  0  0  0  0  0
   62.2330   31.0160   49.5100 C   0  0  0  0  0  0  0  0  0  0  0  0
   59.9810   33.6480   47.9410 C   0  0  0  0  0  0  0  0  0  0  0  0
   58.9060   32.7330   47.8410 C   0  0  0  0  0  0  0  0  0  0  0  0
   58.3300   32.2040   48.9520 N   0  0  0  0  0  0  0  0  0  0  0  0
   58.7450   32.5250   50.2030 C   0  0  0  0  0  0  0  0  0  0  0  0
   58.1230   31.9520   51.3190 C   0  0  0  0  0  0  0  0  0  0  0  0
   58.5490   32.2920   52.6070 C   0  0  0  0  0  0  0  0  0  0  0  0
   57.7690   31.5740   54.0060 Cl  0  0  0  0  0  0  0  0  0  0  0  0
   59.5940   33.2050   52.7820 C   0  0  0  0  0  0  0  0  0  0  0  0
   60.2190   33.7810   51.6710 C   0  0  0  0  0  0  0  0  0  0  0  0
   59.7980   33.4430   50.3750 C   0  0  0  0  0  0  0  0  0  0  0  0
   60.4030   34.0040   49.2440 C   0  0  0  0  0  0  0  0  0  0  0  0
   58.0855   34.5074   45.5030 H   0  0  0  0  0  0  0  0  0  0  0  0
   58.6873   35.7608   44.3657 H   0  0  0  0  0  0  0  0  0  0  0  0
   59.4212   34.1213   44.3657 H   0  0  0  0  0  0  0  0  0  0  0  0
   60.7886   35.9365   45.5345 H   0  0  0  0  0  0  0  0  0  0  0  0
   59.4707   35.9804   46.7819 H   0  0  0  0  0  0  0  0  0  0  0  0
   61.9614   32.8448   45.8919 H   0  0  0  0  0  0  0  0  0  0  0  0
   62.3687   34.6029   45.6706 H   0  0  0  0  0  0  0  0  0  0  0  0
   63.8073   34.4309   47.3694 H   0  0  0  0  0  0  0  0  0  0  0  0
   62.3869   34.1301   48.4570 H   0  0  0  0  0  0  0  0  0  0  0  0
   64.0810   31.9700   47.1710 H   0  0  0  0  0  0  0  0  0  0  0  0
   65.5308   33.3175   48.7106 H   0  0  0  0  0  0  0  0  0  0  0  0
   67.2850   33.8485   50.3891 H   0  0  0  0  0  0  0  0  0  0  0  0
   67.0623   33.0299   52.7283 H   0  0  0  0  0  0  0  0  0  0  0  0
   65.0462   31.7557   53.4205 H   0  0  0  0  0  0  0  0  0  0  0  0
   63.4739   31.3547   53.8856 H   0  0  0  0  0  0  0  0  0  0  0  0
   61.7704   31.7856   53.5126 H   0  0  0  0  0  0  0  0  0  0  0  0
   62.2819   30.0636   53.5126 H   0  0  0  0  0  0  0  0  0  0  0  0
   60.9358   29.4742   52.3068 H   0  0  0  0  0  0  0  0  0  0  0  0
   59.3407   28.6093   50.6246 H   0  0  0  0  0  0  0  0  0  0  0  0
   59.5794   29.2224   48.2378 H   0  0  0  0  0  0  0  0  0  0  0  0
   58.5307   32.4455   46.8478 H   0  0  0  0  0  0  0  0  0  0  0  0
   57.3000   31.2350   51.1828 H   0  0  0  0  0  0  0  0  0  0  0  0
   59.9255   33.4710   53.7966 H   0  0  0  0  0  0  0  0  0  0  0  0
   61.0404   34.4988   51.8128 H   0  0  0  0  0  0  0  0  0  0  0  0
   61.2180   34.7319   49.3700 H   0  0  0  0  0  0  0  0  0  0  0  0
  1  2  1  0
  2  3  1  0
  3  4  1  0
  4  5  1  0
  5  6  1  0
  6  7  1  0
  7  8  1  0
  8  9  2  0
  9 10  1  0
 10 11  2  0
 11 12  1  0
 12 13  2  0
 13 14  1  0
 14 15  1  0
 14 16  2  0
 16 17  1  0
 17 18  2  0
 18 19  1  0
 19 20  2  0
 20 21  1  0
 20 22  1  0
  3 23  1  0
 23 24  2  0
 24 25  1  0
 25 26  2  0
 26 27  1  0
 27 28  2  0
 28 29  1  0
 28 30  1  0
 30 31  2  0
 31 32  1  0
 32 33  2  0
 22  7  2  0
 33 23  1  0
 13  8  1  0
 22 16  1  0
 32 26  1  0
  1 34  1  0
  1 35  1  0
  1 36  1  0
  2 37  1  0
  2 38  1  0
  4 39  1  0
  4 40  1  0
  5 41  1  0
  5 42  1  0
  6 43  1  0
  9 44  1  0
 10 45  1  0
 11 46  1  0
 12 47  1  0
 15 48  1  0
 15 49  1  0
 15 50  1  0
 17 51  1  0
 18 52  1  0
 19 53  1  0
 24 54  1  0
 27 55  1  0
 30 56  1  0
 31 57  1  0
 33 58  1  0
M  CHG  1  14   1
M  END
>  <UniqueID>  (28) 
27

>  <SMILES>  (28) 
CCN(CCNc1c2ccccc2[n+](C)c2cccc(Cl)c12)c1cnc2cc(Cl)ccc2c1

>  <Energy>  (28) 
101.1228217491126

>  <Genealogy>  (28) 
CCN(CCNc1c2ccccc2[n+](C)c2cccc(Cl)c12)c1cnc2cc(Cl)ccc2c1 (3D coordinates assigned)
CCN(CCNc1c2ccccc2[n+](C)c2cccc(Cl)c12)c1cnc2cc(Cl)ccc2c1 (optimized conformer: 101.1228217491126 kcal/mol)

>  <smiles>  (28) 
CCN(CCNc1c2ccccc2[n+](C)c2cccc(Cl)c12)c1cnc2cc(Cl)ccc2c1

>  <score_type>  (28) 
oracle

>  <origin>  (28) 
adg

>  <m_score__min__energy>  (28) 
-7.96

>  <m_primary>  (28) 
energy

$$$$
28:0
     RDKit          3D

 73 76  0  0  0  0  0  0  0  0999 V2000
   52.0440   29.7000   49.3270 C   0  0  0  0  0  0  0  0  0  0  0  0
   51.4100   30.9400   49.9550 C   0  0  0  0  0  0  0  0  0  0  0  0
   52.2590   31.4920   51.0400 N   0  0  0  0  0  0  0  0  0  0  0  0
   51.4400   32.3110   51.9640 C   0  0  0  0  0  0  0  0  0  0  0  0
   50.8190   31.4400   53.0580 C   0  0  0  0  0  0  0  0  0  0  0  0
   52.9960   30.4230   51.7660 C   0  0  0  0  0  0  0  0  0  0  0  0
   54.3610   30.9330   52.2300 C   0  0  0  0  0  0  0  0  0  0  0  0
   55.3630   29.9740   51.9420 O   0  0  0  0  0  0  0  0  0  0  0  0
   56.3940   29.9920   52.9130 C   0  0  0  0  0  0  0  0  0  0  0  0
   57.6830   29.3710   52.3720 C   0  0  0  0  0  0  0  0  0  0  0  0
   58.0240   29.9810   51.1380 O   0  0  0  0  0  0  0  0  0  0  0  0
   58.1870   31.3800   51.2880 C   0  0  0  0  0  0  0  0  0  0  0  0
   59.6620   31.7710   51.5170 C   0  0  0  0  0  0  0  0  0  0  0  0
   60.6180   30.8470   50.8660 N   0  0  0  0  0  0  0  0  0  0  0  0
   61.2840   31.4070   49.6930 C   0  0  0  0  0  0  0  0  0  0  0  0
   60.5360   31.7180   48.5320 C   0  0  0  0  0  0  0  0  0  0  0  0
   59.3370   31.0420   48.2410 C   0  0  0  0  0  0  0  0  0  0  0  0
   58.5240   31.4450   47.1890 C   0  0  0  0  0  0  0  0  0  0  0  0
   58.8400   32.5910   46.4610 C   0  0  0  0  0  0  0  0  0  0  0  0
   57.9210   33.0940   45.5260 C   0  0  0  0  0  0  0  0  0  0  0  0
   58.1550   34.3140   44.8960 C   0  0  0  0  0  0  0  0  0  0  0  0
   59.2960   35.0530   45.2090 C   0  0  0  0  0  0  0  0  0  0  0  0
   60.2290   34.5530   46.1180 C   0  0  0  0  0  0  0  0  0  0  0  0
   60.0600   33.2780   46.7120 C   0  0  0  0  0  0  0  0  0  0  0  0
   61.0010   32.7240   47.6430 C   0  0  0  0  0  0  0  0  0  0  0  0
   62.3210   33.1270   47.7180 N   0  0  0  0  0  0  0  0  0  0  0  0
   63.0230   33.6270   46.5140 C   0  0  0  0  0  0  0  0  0  0  0  0
   63.0850   32.8090   48.8210 C   0  0  0  0  0  0  0  0  0  0  0  0
   64.3430   33.4220   49.0280 C   0  0  0  0  0  0  0  0  0  0  0  0
   65.1860   33.0040   50.0520 C   0  0  0  0  0  0  0  0  0  0  0  0
   64.8430   31.9100   50.8280 C   0  0  0  0  0  0  0  0  0  0  0  0
   63.6100   31.2650   50.6480 C   0  0  0  0  0  0  0  0  0  0  0  0
   63.4840   29.8930   51.2670 C   0  0  0  0  0  0  0  0  0  0  0  0
   62.6420   31.8280   49.7530 C   0  0  0  0  0  0  0  0  0  0  0  0
   52.3902   29.0228   50.1217 H   0  0  0  0  0  0  0  0  0  0  0  0
   51.2994   29.1833   48.7036 H   0  0  0  0  0  0  0  0  0  0  0  0
   52.8988   30.0010   48.7036 H   0  0  0  0  0  0  0  0  0  0  0  0
   51.2787   31.7073   49.1779 H   0  0  0  0  0  0  0  0  0  0  0  0
   50.4403   30.6518   50.3870 H   0  0  0  0  0  0  0  0  0  0  0  0
   52.0787   33.0752   52.4308 H   0  0  0  0  0  0  0  0  0  0  0  0
   50.6307   32.7863   51.3903 H   0  0  0  0  0  0  0  0  0  0  0  0
   51.1007   31.8350   54.0452 H   0  0  0  0  0  0  0  0  0  0  0  0
   49.7236   31.4508   52.9576 H   0  0  0  0  0  0  0  0  0  0  0  0
   51.1863   30.4080   52.9576 H   0  0  0  0  0  0  0  0  0  0  0  0
   52.4095   30.1103   52.6425 H   0  0  0  0  0  0  0  0  0  0  0  0
   53.1469   29.5711   51.0867 H   0  0  0  0  0  0  0  0  0  0  0  0
   54.5953   31.8721   51.7073 H   0  0  0  0  0  0  0  0  0  0  0  0
   54.3303   31.1064   53.3158 H   0  0  0  0  0  0  0  0  0  0  0  0
   56.5935   31.0340   53.2035 H   0  0  0  0  0  0  0  0  0  0  0  0
   56.0629   29.4010   53.7796 H   0  0  0  0  0  0  0  0  0  0  0  0
   58.4967   29.5284   53.0953 H   0  0  0  0  0  0  0  0  0  0  0  0
   57.5315   28.2926   52.2167 H   0  0  0  0  0  0  0  0  0  0  0  0
   57.8251   31.8790   50.3770 H   0  0  0  0  0  0  0  0  0  0  0  0
   57.6118   31.6954   52.1710 H   0  0  0  0  0  0  0  0  0  0  0  0
   59.8225   32.7816   51.1134 H   0  0  0  0  0  0  0  0  0  0  0  0
   59.8482   31.7243   52.6001 H   0  0  0  0  0  0  0  0  0  0  0  0
   60.1310   29.9600   50.6030 H   0  0  0  0  0  0  0  0  0  0  0  0
   61.2930   30.6120   51.6210 H   0  0  0  0  0  0  0  0  0  0  0  0
   59.0384   30.1805   48.8563 H   0  0  0  0  0  0  0  0  0  0  0  0
   57.6298   30.8590   46.9302 H   0  0  0  0  0  0  0  0  0  0  0  0
   57.0118   32.5217   45.2899 H   0  0  0  0  0  0  0  0  0  0  0  0
   57.4401   34.6947   44.1517 H   0  0  0  0  0  0  0  0  0  0  0  0
   59.4607   36.0331   44.7376 H   0  0  0  0  0  0  0  0  0  0  0  0
   61.1099   35.1585   46.3776 H   0  0  0  0  0  0  0  0  0  0  0  0
   63.8837   34.2400   46.8195 H   0  0  0  0  0  0  0  0  0  0  0  0
   63.3744   32.7746   45.9140 H   0  0  0  0  0  0  0  0  0  0  0  0
   62.3323   34.2378   45.9140 H   0  0  0  0  0  0  0  0  0  0  0  0
   64.6597   34.2430   48.3680 H   0  0  0  0  0  0  0  0  0  0  0  0
   66.1254   33.5426   50.2454 H   0  0  0  0  0  0  0  0  0  0  0  0
   65.5435   31.5431   51.5926 H   0  0  0  0  0  0  0  0  0  0  0  0
   63.4923   29.9832   52.3633 H   0  0  0  0  0  0  0  0  0  0  0  0
   62.5396   29.4305   50.9443 H   0  0  0  0  0  0  0  0  0  0  0  0
   64.3284   29.2662   50.9443 H   0  0  0  0  0  0  0  0  0  0  0  0
  1  2  1  0
  2  3  1  0
  3  4  1  0
  4  5  1  0
  3  6  1  0
  6  7  1  0
  7  8  1  0
  8  9  1  0
  9 10  1  0
 10 11  1  0
 11 12  1  0
 12 13  1  0
 13 14  1  0
 14 15  1  0
 15 16  2  0
 16 17  1  0
 17 18  2  0
 18 19  1  0
 19 20  2  0
 20 21  1  0
 21 22  2  0
 22 23  1  0
 23 24  2  0
 24 25  1  0
 25 26  2  0
 26 27  1  0
 26 28  1  0
 28 29  2  0
 29 30  1  0
 30 31  2  0
 31 32  1  0
 32 33  1  0
 32 34  2  0
 34 15  1  0
 25 16  1  0
 34 28  1  0
 24 19  1  0
  1 35  1  0
  1 36  1  0
  1 37  1  0
  2 38  1  0
  2 39  1  0
  4 40  1  0
  4 41  1  0
  5 42  1  0
  5 43  1  0
  5 44  1  0
  6 45  1  0
  6 46  1  0
  7 47  1  0
  7 48  1  0
  9 49  1  0
  9 50  1  0
 10 51  1  0
 10 52  1  0
 12 53  1  0
 12 54  1  0
 13 55  1  0
 13 56  1  0
 14 57  1  0
 14 58  1  0
 17 59  1  0
 18 60  1  0
 20 61  1  0
 21 62  1  0
 22 63  1  0
 23 64  1  0
 27 65  1  0
 27 66  1  0
 27 67  1  0
 29 68  1  0
 30 69  1  0
 31 70  1  0
 33 71  1  0
 33 72  1  0
 33 73  1  0
M  CHG  2  14   1  26   1
M  END
>  <UniqueID>  (29) 
28

>  <SMILES>  (29) 
CCN(CC)CCOCCOCC[NH2+]c1c2ccc3ccccc3c2[n+](C)c2cccc(C)c12

>  <Energy>  (29) 
135.13074417441564

>  <Genealogy>  (29) 
CCN(CC)CCOCCOCC[NH2+]c1c2ccc3ccccc3c2[n+](C)c2cccc(C)c12 (protonated)
CCN(CC)CCOCCOCC[NH2+]c1c2ccc3ccccc3c2[n+](C)c2cccc(C)c12 (3D coordinates assigned)
CCN(CC)CCOCCOCC[NH2+]c1c2ccc3ccccc3c2[n+](C)c2cccc(C)c12 (optimized conformer: 135.13074417441564 kcal/mol)

>  <smiles>  (29) 
CCN(CC)CCOCCOCCNc1c2ccc3ccccc3c2[n+](C)c2cccc(C)c12

>  <score_type>  (29) 
oracle

>  <origin>  (29) 
adg

>  <m_score__min__energy>  (29) 
-5.5300000000000002

>  <m_primary>  (29) 
energy

$$$$
29:0
     RDKit          3D

 49 51  0  0  0  0  0  0  0  0999 V2000
   57.0640   22.2070   43.5250 C   0  0  0  0  0  0  0  0  0  0  0  0
   58.4510   21.9920   44.1180 C   0  0  0  0  0  0  0  0  0  0  0  0
   58.3910   22.0600   45.5820 N   0  0  0  0  0  0  0  0  0  0  0  0
   57.6030   20.9440   46.1160 C   0  0  0  0  0  0  0  0  0  0  0  0
   56.6460   21.4380   47.2050 C   0  0  0  0  0  0  0  0  0  0  0  0
   57.1620   22.6030   47.8260 O   0  0  0  0  0  0  0  0  0  0  0  0
   56.2150   23.6550   47.8320 C   0  0  0  0  0  0  0  0  0  0  0  0
   56.6520   24.7790   46.8770 C   0  0  0  0  0  0  0  0  0  0  0  0
   58.1180   24.8260   46.7130 N   0  0  0  0  0  0  0  0  0  0  0  0
   58.5470   25.5220   45.4890 C   0  0  0  0  0  0  0  0  0  0  0  0
   58.9390   26.9560   45.7520 C   0  0  0  0  0  0  0  0  0  0  0  0
   60.0270   27.2570   46.5760 C   0  0  0  0  0  0  0  0  0  0  0  0
   60.3410   28.5470   46.8470 N   0  0  0  0  0  0  0  0  0  0  0  0
   59.6300   29.5930   46.3440 C   0  0  0  0  0  0  0  0  0  0  0  0
   60.0010   30.9030   46.6780 C   0  0  0  0  0  0  0  0  0  0  0  0
   61.5150   31.1520   47.8510 Br  0  0  0  0  0  0  0  0  0  0  0  0
   59.2650   31.9950   46.1720 C   0  0  0  0  0  0  0  0  0  0  0  0
   59.6170   33.3220   46.4990 C   0  0  0  0  0  0  0  0  0  0  0  0
   58.8760   34.3970   46.0090 C   0  0  0  0  0  0  0  0  0  0  0  0
   57.7770   34.1710   45.1870 C   0  0  0  0  0  0  0  0  0  0  0  0
   57.4090   32.8700   44.8480 C   0  0  0  0  0  0  0  0  0  0  0  0
   58.1400   31.7610   45.3310 C   0  0  0  0  0  0  0  0  0  0  0  0
   57.7640   30.4350   45.0030 C   0  0  0  0  0  0  0  0  0  0  0  0
   56.2170   30.1040   43.8820 Br  0  0  0  0  0  0  0  0  0  0  0  0
   58.5160   29.3490   45.5070 C   0  0  0  0  0  0  0  0  0  0  0  0
   58.1890   28.0100   45.2130 C   0  0  0  0  0  0  0  0  0  0  0  0
   56.3314   22.3206   44.3376 H   0  0  0  0  0  0  0  0  0  0  0  0
   57.0672   23.1154   42.9046 H   0  0  0  0  0  0  0  0  0  0  0  0
   56.7921   21.3403   42.9046 H   0  0  0  0  0  0  0  0  0  0  0  0
   58.8267   21.0035   43.8151 H   0  0  0  0  0  0  0  0  0  0  0  0
   59.1255   22.7787   43.7490 H   0  0  0  0  0  0  0  0  0  0  0  0
   57.8990   22.9460   45.8420 H   0  0  0  0  0  0  0  0  0  0  0  0
   57.0207   20.4890   45.3012 H   0  0  0  0  0  0  0  0  0  0  0  0
   58.2870   20.2014   46.5526 H   0  0  0  0  0  0  0  0  0  0  0  0
   55.6709   21.6705   46.7521 H   0  0  0  0  0  0  0  0  0  0  0  0
   56.5325   20.6500   47.9640 H   0  0  0  0  0  0  0  0  0  0  0  0
   55.2385   23.2649   47.5090 H   0  0  0  0  0  0  0  0  0  0  0  0
   56.1424   24.0624   48.8512 H   0  0  0  0  0  0  0  0  0  0  0  0
   56.1898   24.6091   45.8934 H   0  0  0  0  0  0  0  0  0  0  0  0
   56.3274   25.7372   47.3088 H   0  0  0  0  0  0  0  0  0  0  0  0
   58.5420   23.8680   46.7490 H   0  0  0  0  0  0  0  0  0  0  0  0
   59.4120   24.9910   45.0650 H   0  0  0  0  0  0  0  0  0  0  0  0
   57.6973   25.5284   44.7905 H   0  0  0  0  0  0  0  0  0  0  0  0
   60.6304   26.4440   47.0060 H   0  0  0  0  0  0  0  0  0  0  0  0
   60.4853   33.5104   47.1475 H   0  0  0  0  0  0  0  0  0  0  0  0
   59.1613   35.4260   46.2732 H   0  0  0  0  0  0  0  0  0  0  0  0
   57.1959   35.0224   44.8029 H   0  0  0  0  0  0  0  0  0  0  0  0
   56.5385   32.7043   44.1962 H   0  0  0  0  0  0  0  0  0  0  0  0
   57.3364   27.7900   44.5537 H   0  0  0  0  0  0  0  0  0  0  0  0
  1  2  1  0
  2  3  1  0
  3  4  1  0
  4  5  1  0
  5  6  1  0
  6  7  1  0
  7  8  1  0
  8  9  1  0
  9 10  1  0
 10 11  1  0
 11 12  2  0
 12 13  1  0
 13 14  2  0
 14 15  1  0
 15 16  1  0
 15 17  2  0
 17 18  1  0
 18 19  2  0
 19 20  1  0
 20 21  2  0
 21 22  1  0
 22 23  2  0
 23 24  1  0
 23 25  1  0
 25 26  2  0
 26 11  1  0
 25 14  1  0
 22 17  1  0
  1 27  1  0
  1 28  1  0
  1 29  1  0
  2 30  1  0
  2 31  1  0
  3 32  1  0
  4 33  1  0
  4 34  1  0
  5 35  1  0
  5 36  1  0
  7 37  1  0
  7 38  1  0
  8 39  1  0
  8 40  1  0
  9 41  1  0
 10 42  1  0
 10 43  1  0
 12 44  1  0
 18 45  1  0
 19 46  1  0
 20 47  1  0
 21 48  1  0
 26 49  1  0
M  END
>  <UniqueID>  (30) 
29

>  <SMILES>  (30) 
CCNCCOCCNCc1cnc2c(Br)c3ccccc3c(Br)c2c1

>  <Energy>  (30) 
57.45316008744753

>  <Genealogy>  (30) 
CCNCCOCCNCc1cnc2c(Br)c3ccccc3c(Br)c2c1 (3D coordinates assigned)
CCNCCOCCNCc1cnc2c(Br)c3ccccc3c(Br)c2c1 (optimized conformer: 57.45316008744753 kcal/mol)

>  <smiles>  (30) 
CCNCCOCCNCc1cnc2c(Br)c3ccccc3c(Br)c2c1

>  <score_type>  (30) 
oracle

>  <origin>  (30) 
adg

>  <m_score__min__energy>  (30) 
-9.1999999999999993

>  <m_primary>  (30) 
energy

$$$$
30:0
     RDKit          3D

 37 39  0  0  0  0  0  0  0  0999 V2000
   57.6920   28.4880   43.7900 C   0  0  0  0  0  0  0  0  0  0  0  0
   56.6790   29.6200   43.6590 C   0  0  0  0  0  0  0  0  0  0  0  0
   56.5870   30.3620   44.8740 O   0  0  0  0  0  0  0  0  0  0  0  0
   57.4060   31.4450   45.2370 C   0  0  0  0  0  0  0  0  0  0  0  0
   57.1230   32.7730   44.8610 C   0  0  0  0  0  0  0  0  0  0  0  0
   57.9710   33.8150   45.2470 C   0  0  0  0  0  0  0  0  0  0  0  0
   59.1180   33.5460   46.0120 C   0  0  0  0  0  0  0  0  0  0  0  0
   60.0030   34.5550   46.4210 C   0  0  0  0  0  0  0  0  0  0  0  0
   59.8020   35.7600   46.1100 O   0  0  0  0  0  0  0  0  0  0  0  0
   61.1240   34.2170   47.1800 C   0  0  0  0  0  0  0  0  0  0  0  0
   61.3460   32.8700   47.5240 C   0  0  0  0  0  0  0  0  0  0  0  0
   62.4920   32.4680   48.3070 N   0  0  0  0  0  0  0  0  0  0  0  0
   63.8160   33.0680   48.0850 C   0  0  0  0  0  0  0  0  0  0  0  0
   64.6670   32.9720   49.3550 C   0  0  0  0  0  0  0  0  0  0  0  0
   64.6760   31.6510   49.8580 O   0  0  0  0  0  0  0  0  0  0  0  0
   63.3770   31.3010   50.2880 C   0  0  0  0  0  0  0  0  0  0  0  0
   62.4120   31.2360   49.1010 C   0  0  0  0  0  0  0  0  0  0  0  0
   60.4860   31.9400   47.1110 O   0  0  0  0  0  0  0  0  0  0  0  0
   59.4050   32.2150   46.3870 C   0  0  0  0  0  0  0  0  0  0  0  0
   58.5510   31.1790   45.9960 C   0  0  0  0  0  0  0  0  0  0  0  0
   57.8762   28.2822   44.8548 H   0  0  0  0  0  0  0  0  0  0  0  0
   57.2960   27.5836   43.3049 H   0  0  0  0  0  0  0  0  0  0  0  0
   58.6346   28.7815   43.3049 H   0  0  0  0  0  0  0  0  0  0  0  0
   56.9940   30.2935   42.8483 H   0  0  0  0  0  0  0  0  0  0  0  0
   55.6931   29.1862   43.4358 H   0  0  0  0  0  0  0  0  0  0  0  0
   56.2284   32.9914   44.2594 H   0  0  0  0  0  0  0  0  0  0  0  0
   57.7394   34.8488   44.9508 H   0  0  0  0  0  0  0  0  0  0  0  0
   61.8282   34.9963   47.5068 H   0  0  0  0  0  0  0  0  0  0  0  0
   64.3232   32.5341   47.2679 H   0  0  0  0  0  0  0  0  0  0  0  0
   63.6871   34.1283   47.8219 H   0  0  0  0  0  0  0  0  0  0  0  0
   65.6982   33.2753   49.1212 H   0  0  0  0  0  0  0  0  0  0  0  0
   64.2348   33.6356   50.1184 H   0  0  0  0  0  0  0  0  0  0  0  0
   63.4121   30.3172   50.7788 H   0  0  0  0  0  0  0  0  0  0  0  0
   63.0197   32.0669   50.9921 H   0  0  0  0  0  0  0  0  0  0  0  0
   62.6765   30.3778   48.4657 H   0  0  0  0  0  0  0  0  0  0  0  0
   61.3861   31.1233   49.4816 H   0  0  0  0  0  0  0  0  0  0  0  0
   58.7818   30.1439   46.2882 H   0  0  0  0  0  0  0  0  0  0  0  0
  1  2  1  0
  2  3  1  0
  3  4  1  0
  4  5  2  0
  5  6  1  0
  6  7  2  0
  7  8  1  0
  8  9  2  0
  8 10  1  0
 10 11  2  0
 11 12  1  0
 12 13  1  0
 13 14  1  0
 14 15  1  0
 15 16  1  0
 16 17  1  0
 11 18  1  0
 18 19  1  0
 19 20  2  0
 20  4  1  0
 19  7  1  0
 17 12  1  0
  1 21  1  0
  1 22  1  0
  1 23  1  0
  2 24  1  0
  2 25  1  0
  5 26  1  0
  6 27  1  0
 10 28  1  0
 13 29  1  0
 13 30  1  0
 14 31  1  0
 14 32  1  0
 16 33  1  0
 16 34  1  0
 17 35  1  0
 17 36  1  0
 20 37  1  0
M  END
>  <UniqueID>  (31) 
30

>  <SMILES>  (31) 
CCOc1ccc2c(=O)cc(N3CCOCC3)oc2c1

>  <Energy>  (31) 
44.94615789062367

>  <Genealogy>  (31) 
CCOc1ccc2c(=O)cc(N3CCOCC3)oc2c1 (3D coordinates assigned)
CCOc1ccc2c(=O)cc(N3CCOCC3)oc2c1 (nonaromatic ring conformer: 44.94615789062367 kcal/mol)

>  <smiles>  (31) 
CCOc1ccc2c(=O)cc(N3CCOCC3)oc2c1

>  <score_type>  (31) 
oracle

>  <origin>  (31) 
adg

>  <m_score__min__energy>  (31) 
-6.3700000000000001

>  <m_primary>  (31) 
energy

$$$$
31:0
     RDKit          3D

 47 49  0  0  0  0  0  0  0  0999 V2000
   58.2880   28.3870   44.1180 C   0  0  0  0  0  0  0  0  0  0  0  0
   56.9130   28.6350   44.7320 C   0  0  0  0  0  0  0  0  0  0  0  0
   56.2570   29.8880   44.1450 C   0  0  0  0  0  0  0  0  0  0  0  0
   56.6850   31.0780   44.9030 N   0  0  0  0  0  0  0  0  0  0  0  0
   57.4750   32.0130   44.0880 C   0  0  0  0  0  0  0  0  0  0  0  0
   58.3360   32.8900   44.9550 C   0  0  0  0  0  0  0  0  0  0  0  0
   58.3240   34.2710   44.9280 C   0  0  0  0  0  0  0  0  0  0  0  0
   59.2920   34.6900   45.8150 C   0  0  0  0  0  0  0  0  0  0  0  0
   59.8700   33.5470   46.3400 C   0  0  0  0  0  0  0  0  0  0  0  0
   61.0030   33.5500   47.2920 C   0  0  0  0  0  0  0  0  0  0  0  0
   62.3130   33.3700   46.8220 C   0  0  0  0  0  0  0  0  0  0  0  0
   63.3880   33.3540   47.7130 C   0  0  0  0  0  0  0  0  0  0  0  0
   63.1730   33.5020   49.0950 C   0  0  0  0  0  0  0  0  0  0  0  0
   64.3170   33.4840   50.0430 C   0  0  0  0  0  0  0  0  0  0  0  0
   64.2570   34.2060   51.2500 C   0  0  0  0  0  0  0  0  0  0  0  0
   65.3350   34.1870   52.1410 C   0  0  0  0  0  0  0  0  0  0  0  0
   66.4820   33.4500   51.8380 C   0  0  0  0  0  0  0  0  0  0  0  0
   66.5540   32.7300   50.6440 C   0  0  0  0  0  0  0  0  0  0  0  0
   65.4780   32.7450   49.7500 C   0  0  0  0  0  0  0  0  0  0  0  0
   61.8570   33.6630   49.5640 C   0  0  0  0  0  0  0  0  0  0  0  0
   60.7830   33.6810   48.6710 C   0  0  0  0  0  0  0  0  0  0  0  0
   59.2680   32.4460   45.8300 N   0  0  0  0  0  0  0  0  0  0  0  0
   59.5790   31.0470   46.1290 C   0  0  0  0  0  0  0  0  0  0  0  0
   59.0290   28.2534   44.9199 H   0  0  0  0  0  0  0  0  0  0  0  0
   58.2536   27.4806   43.4958 H   0  0  0  0  0  0  0  0  0  0  0  0
   58.5725   29.2483   43.4958 H   0  0  0  0  0  0  0  0  0  0  0  0
   56.2691   27.7662   44.5307 H   0  0  0  0  0  0  0  0  0  0  0  0
   57.0390   28.7849   45.8144 H   0  0  0  0  0  0  0  0  0  0  0  0
   56.5570   29.9982   43.0925 H   0  0  0  0  0  0  0  0  0  0  0  0
   55.1634   29.7898   44.2106 H   0  0  0  0  0  0  0  0  0  0  0  0
   55.8290   31.5900   45.2190 H   0  0  0  0  0  0  0  0  0  0  0  0
   58.1188   31.4393   43.4051 H   0  0  0  0  0  0  0  0  0  0  0  0
   56.7836   32.6528   43.5200 H   0  0  0  0  0  0  0  0  0  0  0  0
   57.6698   34.9111   44.3179 H   0  0  0  0  0  0  0  0  0  0  0  0
   59.5542   35.7302   46.0584 H   0  0  0  0  0  0  0  0  0  0  0  0
   62.4941   33.2407   45.7447 H   0  0  0  0  0  0  0  0  0  0  0  0
   64.4114   33.2246   47.3309 H   0  0  0  0  0  0  0  0  0  0  0  0
   63.3566   34.7888   51.4940 H   0  0  0  0  0  0  0  0  0  0  0  0
   65.2793   34.7536   53.0822 H   0  0  0  0  0  0  0  0  0  0  0  0
   67.3287   33.4368   52.5401 H   0  0  0  0  0  0  0  0  0  0  0  0
   67.4579   32.1502   50.4059 H   0  0  0  0  0  0  0  0  0  0  0  0
   65.5400   32.1750   48.8113 H   0  0  0  0  0  0  0  0  0  0  0  0
   61.6720   33.7756   50.6425 H   0  0  0  0  0  0  0  0  0  0  0  0
   59.7578   33.7987   49.0519 H   0  0  0  0  0  0  0  0  0  0  0  0
   59.6109   30.9034   47.2191 H   0  0  0  0  0  0  0  0  0  0  0  0
   58.8031   30.3983   45.6963 H   0  0  0  0  0  0  0  0  0  0  0  0
   60.5566   30.7881   45.6963 H   0  0  0  0  0  0  0  0  0  0  0  0
  1  2  1  0
  2  3  1  0
  3  4  1  0
  4  5  1  0
  5  6  1  0
  6  7  2  0
  7  8  1  0
  8  9  2  0
  9 10  1  0
 10 11  2  0
 11 12  1  0
 12 13  2  0
 13 14  1  0
 14 15  2  0
 15 16  1  0
 16 17  2  0
 17 18  1  0
 18 19  2  0
 13 20  1  0
 20 21  2  0
  9 22  1  0
 22 23  1  0
 22  6  1  0
 21 10  1  0
 19 14  1  0
  1 24  1  0
  1 25  1  0
  1 26  1  0
  2 27  1  0
  2 28  1  0
  3 29  1  0
  3 30  1  0
  4 31  1  0
  5 32  1  0
  5 33  1  0
  7 34  1  0
  8 35  1  0
 11 36  1  0
 12 37  1  0
 15 38  1  0
 16 39  1  0
 17 40  1  0
 18 41  1  0
 19 42  1  0
 20 43  1  0
 21 44  1  0
 23 45  1  0
 23 46  1  0
 23 47  1  0
M  END
>  <UniqueID>  (32) 
31

>  <SMILES>  (32) 
CCCNCc1ccc(-c2ccc(-c3ccccc3)cc2)n1C

>  <Energy>  (32) 
79.38448858555861

>  <Genealogy>  (32) 
CCCNCc1ccc(-c2ccc(-c3ccccc3)cc2)n1C (3D coordinates assigned)
CCCNCc1ccc(-c2ccc(-c3ccccc3)cc2)n1C (optimized conformer: 79.38448858555861 kcal/mol)

>  <smiles>  (32) 
CCCNCc1ccc(-c2ccc(-c3ccccc3)cc2)n1C

>  <score_type>  (32) 
oracle

>  <origin>  (32) 
adg

>  <m_score__min__energy>  (32) 
-7.9500000000000002

>  <m_primary>  (32) 
energy

$$$$
32:0
     RDKit          3D

 42 45  0  0  0  0  0  0  0  0999 V2000
   63.0830   32.6530   47.3930 C   0  0  0  0  0  0  0  0  0  0  0  0
   62.3380   33.7210   48.1830 C   0  0  0  0  0  0  0  0  0  0  0  0
   60.9300   33.3350   48.3360 N   0  0  0  0  0  0  0  0  0  0  0  0
   60.0180   34.4870   48.2460 C   0  0  0  0  0  0  0  0  0  0  0  0
   59.5830   34.8080   46.7960 C   0  0  0  0  0  0  0  0  0  0  0  0
   60.1310   33.8330   45.8400 N   0  0  0  0  0  0  0  0  0  0  0  0
   59.1450   32.8240   45.5430 C   0  0  0  0  0  0  0  0  0  0  0  0
   57.9900   33.1290   44.8000 C   0  0  0  0  0  0  0  0  0  0  0  0
   57.0190   32.1410   44.5490 C   0  0  0  0  0  0  0  0  0  0  0  0
   57.1650   30.8170   45.0410 C   0  0  0  0  0  0  0  0  0  0  0  0
   58.3160   30.5500   45.7870 C   0  0  0  0  0  0  0  0  0  0  0  0
   58.8070   29.4330   46.4310 C   0  0  0  0  0  0  0  0  0  0  0  0
   59.9560   29.7760   46.9910 O   0  0  0  0  0  0  0  0  0  0  0  0
   60.2630   31.0220   46.7700 N   0  0  0  0  0  0  0  0  0  0  0  0
   59.2630   31.5180   46.0270 C   0  0  0  0  0  0  0  0  0  0  0  0
   58.2490   28.0700   46.5460 C   0  0  0  0  0  0  0  0  0  0  0  0
   59.0070   27.1360   47.2870 C   0  0  0  0  0  0  0  0  0  0  0  0
   58.5730   25.8220   47.4560 C   0  0  0  0  0  0  0  0  0  0  0  0
   57.3740   25.4100   46.8880 C   0  0  0  0  0  0  0  0  0  0  0  0
   56.6110   26.3130   46.1520 C   0  0  0  0  0  0  0  0  0  0  0  0
   57.0270   27.6410   45.9690 C   0  0  0  0  0  0  0  0  0  0  0  0
   56.1410   28.4570   45.1920 N   0  0  0  0  0  0  0  0  0  0  0  0
   56.1190   29.8160   44.7500 C   0  0  0  0  0  0  0  0  0  0  0  0
   55.1250   30.1720   44.0620 O   0  0  0  0  0  0  0  0  0  0  0  0
   63.5701   31.9547   48.0895 H   0  0  0  0  0  0  0  0  0  0  0  0
   62.3718   32.1026   46.7595 H   0  0  0  0  0  0  0  0  0  0  0  0
   63.8451   33.1303   46.7595 H   0  0  0  0  0  0  0  0  0  0  0  0
   62.7976   33.8272   49.1767 H   0  0  0  0  0  0  0  0  0  0  0  0
   62.3956   34.6780   47.6437 H   0  0  0  0  0  0  0  0  0  0  0  0
   60.6810   32.6370   47.5970 H   0  0  0  0  0  0  0  0  0  0  0  0
   59.1187   34.2683   48.8405 H   0  0  0  0  0  0  0  0  0  0  0  0
   60.5613   35.3646   48.6263 H   0  0  0  0  0  0  0  0  0  0  0  0
   58.4847   34.7858   46.7392 H   0  0  0  0  0  0  0  0  0  0  0  0
   59.9688   35.8039   46.5325 H   0  0  0  0  0  0  0  0  0  0  0  0
   60.4040   34.3260   44.9570 H   0  0  0  0  0  0  0  0  0  0  0  0
   60.9900   33.3790   46.2280 H   0  0  0  0  0  0  0  0  0  0  0  0
   57.8444   34.1479   44.4119 H   0  0  0  0  0  0  0  0  0  0  0  0
   56.1277   32.4004   43.9588 H   0  0  0  0  0  0  0  0  0  0  0  0
   59.9585   27.4519   47.7396 H   0  0  0  0  0  0  0  0  0  0  0  0
   59.1791   25.1124   48.0383 H   0  0  0  0  0  0  0  0  0  0  0  0
   57.0285   24.3739   47.0192 H   0  0  0  0  0  0  0  0  0  0  0  0
   55.6631   25.9788   45.7050 H   0  0  0  0  0  0  0  0  0  0  0  0
  1  2  1  0
  2  3  1  0
  3  4  1  0
  4  5  1  0
  5  6  1  0
  6  7  1  0
  7  8  2  0
  8  9  1  0
  9 10  2  0
 10 11  1  0
 11 12  2  0
 12 13  1  0
 13 14  1  0
 14 15  2  0
 12 16  1  0
 16 17  2  0
 17 18  1  0
 18 19  2  0
 19 20  1  0
 20 21  2  0
 21 22  1  0
 22 23  1  0
 23 24  2  0
 15  7  1  0
 21 16  1  0
 23 10  1  0
 15 11  1  0
  1 25  1  0
  1 26  1  0
  1 27  1  0
  2 28  1  0
  2 29  1  0
  3 30  1  0
  4 31  1  0
  4 32  1  0
  5 33  1  0
  5 34  1  0
  6 35  1  0
  6 36  1  0
  8 37  1  0
  9 38  1  0
 17 39  1  0
 18 40  1  0
 19 41  1  0
 20 42  1  0
M  CHG  2   6   1  22  -1
M  END
>  <UniqueID>  (33) 
32

>  <SMILES>  (33) 
CCNCC[NH2+]c1ccc2c3c(onc13)-c1ccccc1[N-]C2=O

>  <Energy>  (33) 
99.08729942925432

>  <Genealogy>  (33) 
CCNCC[NH2+]c1ccc2c3c(onc13)-c1ccccc1[N-]C2=O (protonated)
CCNCC[NH2+]c1ccc2c3c(onc13)-c1ccccc1[N-]C2=O (3D coordinates assigned)
CCNCC[NH2+]c1ccc2c3c(onc13)-c1ccccc1[N-]C2=O (nonaromatic ring conformer: 99.08729942925432 kcal/mol)

>  <smiles>  (33) 
CCNCCNc1ccc2c3c(onc13)-c1ccccc1NC2=O

>  <score_type>  (33) 
oracle

>  <origin>  (33) 
adg

>  <m_score__min__energy>  (33) 
-8.0600000000000005

>  <m_primary>  (33) 
energy

$$$$
