0:0
     RDKit          3D

 42 44  0  0  0  0  0  0  0  0999 V2000
   57.7180   25.8510   44.8140 C   0  0  0  0  0  0  0  0  0  0  0  0
   58.2860   27.1780   45.2220 C   0  0  0  0  0  0  0  0  0  0  0  0
   57.8460   27.8040   46.3970 C   0  0  0  0  0  0  0  0  0  0  0  0
   58.3470   29.0580   46.7580 C   0  0  0  0  0  0  0  0  0  0  0  0
   59.2820   29.7130   45.9400 C   0  0  0  0  0  0  0  0  0  0  0  0
   59.8180   31.0770   46.3240 C   0  0  0  0  0  0  0  0  0  0  0  0
   58.8240   32.1710   46.1940 N   0  0  2  0  0  0  0  0  0  0  0  0
   58.5190   32.4820   44.7770 C   0  0  0  0  0  0  0  0  0  0  0  0
   57.5050   31.5280   44.2120 C   0  0  0  0  0  0  0  0  0  0  0  0
   57.3540   31.2060   42.8790 C   0  0  0  0  0  0  0  0  0  0  0  0
   56.3340   30.2790   42.8370 C   0  0  0  0  0  0  0  0  0  0  0  0
   55.9310   30.0920   44.1440 C   0  0  0  0  0  0  0  0  0  0  0  0
   56.6490   30.8490   44.9410 O   0  0  0  0  0  0  0  0  0  0  0  0
   59.2420   33.3460   46.9430 C   0  0  0  0  0  0  0  0  0  0  0  0
   58.4060   34.2580   47.2060 O   0  0  0  0  0  0  0  0  0  0  0  0
   60.6570   33.5230   47.3510 C   0  0  0  0  0  0  0  0  0  0  0  0
   61.0070   33.6570   48.7060 C   0  0  0  0  0  0  0  0  0  0  0  0
   62.3480   33.8280   49.0550 C   0  0  0  0  0  0  0  0  0  0  0  0
   63.3270   33.8660   48.0610 C   0  0  0  0  0  0  0  0  0  0  0  0
   62.9470   33.7320   46.7250 C   0  0  0  0  0  0  0  0  0  0  0  0
   61.6360   33.5660   46.4030 N   0  0  0  0  0  0  0  0  0  0  0  0
   59.7130   29.0870   44.7580 C   0  0  0  0  0  0  0  0  0  0  0  0
   59.2130   27.8330   44.3980 C   0  0  0  0  0  0  0  0  0  0  0  0
   57.4682   25.2673   45.7123 H   0  0  0  0  0  0  0  0  0  0  0  0
   56.8090   26.0097   44.2153 H   0  0  0  0  0  0  0  0  0  0  0  0
   58.4603   25.3029   44.2153 H   0  0  0  0  0  0  0  0  0  0  0  0
   57.1032   27.3060   47.0376 H   0  0  0  0  0  0  0  0  0  0  0  0
   58.0067   29.5350   47.6890 H   0  0  0  0  0  0  0  0  0  0  0  0
   60.1528   31.0356   47.3710 H   0  0  0  0  0  0  0  0  0  0  0  0
   60.6382   31.3058   45.6276 H   0  0  0  0  0  0  0  0  0  0  0  0
   57.9360   31.8110   46.6160 H   0  0  0  0  0  0  0  0  0  0  0  0
   58.1218   33.5058   44.7128 H   0  0  0  0  0  0  0  0  0  0  0  0
   59.4469   32.3859   44.1942 H   0  0  0  0  0  0  0  0  0  0  0  0
   57.9267   31.6048   42.0287 H   0  0  0  0  0  0  0  0  0  0  0  0
   55.9241   29.7876   41.9423 H   0  0  0  0  0  0  0  0  0  0  0  0
   55.1297   29.4118   44.4686 H   0  0  0  0  0  0  0  0  0  0  0  0
   60.2307   33.6274   49.4848 H   0  0  0  0  0  0  0  0  0  0  0  0
   62.6327   33.9327   50.1124 H   0  0  0  0  0  0  0  0  0  0  0  0
   64.3858   34.0000   48.3276 H   0  0  0  0  0  0  0  0  0  0  0  0
   63.7084   33.7606   45.9316 H   0  0  0  0  0  0  0  0  0  0  0  0
   60.4490   29.5877   44.1118 H   0  0  0  0  0  0  0  0  0  0  0  0
   59.5478   27.3574   43.4644 H   0  0  0  0  0  0  0  0  0  0  0  0
  1  2  1  0
  2  3  2  0
  3  4  1  0
  4  5  2  0
  5  6  1  0
  6  7  1  0
  7  8  1  0
  8  9  1  0
  9 10  2  0
 10 11  1  0
 11 12  2  0
 12 13  1  0
  7 14  1  0
 14 15  2  0
 14 16  1  0
 16 17  2  0
 17 18  1  0
 18 19  2  0
 19 20  1  0
 20 21  2  0
  5 22  1  0
 22 23  2  0
 23  2  1  0
 13  9  1  0
 21 16  1  0
  1 24  1  0
  1 25  1  0
  1 26  1  0
  3 27  1  0
  4 28  1  0
  6 29  1  0
  6 30  1  0
  7 31  1  1
  8 32  1  0
  8 33  1  0
 10 34  1  0
 11 35  1  0
 12 36  1  0
 17 37  1  0
 18 38  1  0
 19 39  1  0
 20 40  1  0
 22 41  1  0
 23 42  1  0
M  CHG  1   7   1
M  END
>  <UniqueID>  (1) 
1

>  <SMILES>  (1) 
Cc1ccc(C[N@H+](Cc2ccco2)C(=O)c2ccccn2)cc1

>  <Energy>  (1) 
74.55252920367931

>  <Genealogy>  (1) 
Cc1ccc(C[NH+](Cc2ccco2)C(=O)c2ccccn2)cc1 (protonated)
Cc1ccc(C[N@H+](Cc2ccco2)C(=O)c2ccccn2)cc1 (chirality)
Cc1ccc(C[N@H+](Cc2ccco2)C(=O)c2ccccn2)cc1 (3D coordinates assigned)
Cc1ccc(C[N@H+](Cc2ccco2)C(=O)c2ccccn2)cc1 (optimized conformer: 74.55252920367931 kcal/mol)

>  <smiles>  (1) 
Cc1ccc(CN(Cc2ccco2)C(=O)c2ccccn2)cc1

>  <score_type>  (1) 
oracle

>  <origin>  (1) 
adg

>  <m_score__min__energy>  (1) 
-5.9400000000000004

>  <m_primary>  (1) 
energy

$$$$
1:0
     RDKit          3D

 32 34  0  0  0  0  0  0  0  0999 V2000
   57.2790   26.3370   45.5220 C   0  0  0  0  0  0  0  0  0  0  0  0
   56.5040   27.4660   45.9150 O   0  0  0  0  0  0  0  0  0  0  0  0
   56.8330   28.7970   45.6170 C   0  0  0  0  0  0  0  0  0  0  0  0
   58.0200   29.4000   46.0810 C   0  0  0  0  0  0  0  0  0  0  0  0
   58.3070   30.7410   45.7740 C   0  0  0  0  0  0  0  0  0  0  0  0
   59.5570   31.3790   46.2390 C   0  0  0  0  0  0  0  0  0  0  0  0
   60.5800   30.6510   46.7640 N   0  0  0  0  0  0  0  0  0  0  0  0
   61.4940   31.5860   47.0740 C   0  0  0  0  0  0  0  0  0  0  0  0
   62.7440   31.3890   47.6560 C   0  0  0  0  0  0  0  0  0  0  0  0
   63.5400   32.5230   47.8980 C   0  0  0  0  0  0  0  0  0  0  0  0
   63.0720   33.8120   47.5580 C   0  0  0  0  0  0  0  0  0  0  0  0
   61.8050   33.9780   46.9700 C   0  0  0  0  0  0  0  0  0  0  0  0
   61.0410   32.8290   46.7420 C   0  0  0  0  0  0  0  0  0  0  0  0
   59.8190   32.7160   46.1940 N   0  0  0  0  0  0  0  0  0  0  0  0
   58.9890   33.7960   45.6580 C   0  0  0  0  0  0  0  0  0  0  0  0
   57.4180   31.4650   44.9640 C   0  0  0  0  0  0  0  0  0  0  0  0
   56.2430   30.8710   44.5010 C   0  0  0  0  0  0  0  0  0  0  0  0
   55.9480   29.5460   44.8290 C   0  0  0  0  0  0  0  0  0  0  0  0
   54.7710   28.9690   44.3650 O   0  0  0  0  0  0  0  0  0  0  0  0
   57.6404   25.8106   46.4177 H   0  0  0  0  0  0  0  0  0  0  0  0
   56.6570   25.6561   44.9224 H   0  0  0  0  0  0  0  0  0  0  0  0
   58.1380   26.6727   44.9224 H   0  0  0  0  0  0  0  0  0  0  0  0
   58.7272   28.8160   46.6883 H   0  0  0  0  0  0  0  0  0  0  0  0
   63.0968   30.3805   47.9176 H   0  0  0  0  0  0  0  0  0  0  0  0
   64.5336   32.4055   48.3551 H   0  0  0  0  0  0  0  0  0  0  0  0
   63.7026   34.6916   47.7544 H   0  0  0  0  0  0  0  0  0  0  0  0
   61.4287   34.9755   46.6993 H   0  0  0  0  0  0  0  0  0  0  0  0
   58.5497   34.3676   46.4888 H   0  0  0  0  0  0  0  0  0  0  0  0
   59.6089   34.4633   45.0412 H   0  0  0  0  0  0  0  0  0  0  0  0
   58.1847   33.3687   45.0412 H   0  0  0  0  0  0  0  0  0  0  0  0
   57.6486   32.5058   44.6928 H   0  0  0  0  0  0  0  0  0  0  0  0
   55.5467   31.4487   43.8754 H   0  0  0  0  0  0  0  0  0  0  0  0
  1  2  1  0
  2  3  1  0
  3  4  2  0
  4  5  1  0
  5  6  1  0
  6  7  1  0
  7  8  1  0
  8  9  2  0
  9 10  1  0
 10 11  2  0
 11 12  1  0
 12 13  2  0
 13 14  1  0
 14 15  1  0
  5 16  2  0
 16 17  1  0
 17 18  2  0
 18 19  1  0
 18  3  1  0
 14  6  2  0
 13  8  1  0
  1 20  1  0
  1 21  1  0
  1 22  1  0
  4 23  1  0
  9 24  1  0
 10 25  1  0
 11 26  1  0
 12 27  1  0
 15 28  1  0
 15 29  1  0
 15 30  1  0
 16 31  1  0
 17 32  1  0
M  CHG  3   7  -1  14   1  19  -1
M  END
>  <UniqueID>  (2) 
2

>  <SMILES>  (2) 
COc1cc(-c2[n-]c3ccccc3[n+]2C)ccc1[O-]

>  <Energy>  (2) 
76.24668642847007

>  <Genealogy>  (2) 
COc1cc(-c2[n-]c3ccccc3[n+]2C)ccc1[O-] (protonated)
COc1cc(-c2[n-]c3ccccc3[n+]2C)ccc1[O-] (3D coordinates assigned)
COc1cc(-c2[n-]c3ccccc3[n+]2C)ccc1[O-] (optimized conformer: 76.24668642847007 kcal/mol)

>  <smiles>  (2) 
COc1cc(-c2[nH]c3ccccc3[n+]2C)ccc1O

>  <score_type>  (2) 
oracle

>  <origin>  (2) 
adg

>  <m_score__min__energy>  (2) 
-10.44

>  <m_primary>  (2) 
energy

$$$$
2:0
     RDKit          3D

 39 42  0  0  0  0  0  0  0  0999 V2000
   59.5750   34.9690   46.1620 C   0  0  0  0  0  0  0  0  0  0  0  0
   59.6010   33.5910   46.6110 N   0  0  0  0  0  0  0  0  0  0  0  0
   58.2890   32.9860   46.5690 C   0  0  0  0  0  0  0  0  0  0  0  0
   58.0460   32.4570   45.1920 C   0  0  0  0  0  0  0  0  0  0  0  0
   58.4520   32.9830   44.0190 C   0  0  0  0  0  0  0  0  0  0  0  0
   58.1420   32.3700   42.8680 C   0  0  0  0  0  0  0  0  0  0  0  0
   57.3960   31.1910   42.9860 C   0  0  0  0  0  0  0  0  0  0  0  0
   57.1460   30.9800   44.8090 S   0  0  0  0  0  0  0  0  0  0  0  0
   60.2520   33.4850   47.8970 C   0  0  0  0  0  0  0  0  0  0  0  0
   61.5930   32.8940   47.6690 C   0  0  0  0  0  0  0  0  0  0  0  0
   62.8320   33.4960   47.9170 C   0  0  0  0  0  0  0  0  0  0  0  0
   63.7780   32.6020   47.5630 N   0  0  0  0  0  0  0  0  0  0  0  0
   63.1940   31.5060   47.1200 N   0  0  0  0  0  0  0  0  0  0  0  0
   61.8840   31.6650   47.1780 C   0  0  0  0  0  0  0  0  0  0  0  0
   60.9520   30.5850   46.7410 C   0  0  0  0  0  0  0  0  0  0  0  0
   60.6010   29.9700   45.8300 N   0  0  0  0  0  0  0  0  0  0  0  0
   59.6950   29.0190   45.7410 C   0  0  0  0  0  0  0  0  0  0  0  0
   59.2890   28.2890   44.6170 C   0  0  0  0  0  0  0  0  0  0  0  0
   58.3200   27.3410   44.7650 C   0  0  0  0  0  0  0  0  0  0  0  0
   57.6850   27.0220   45.9360 C   0  0  0  0  0  0  0  0  0  0  0  0
   58.0880   27.7500   47.0630 C   0  0  0  0  0  0  0  0  0  0  0  0
   59.0760   28.7160   46.9140 C   0  0  0  0  0  0  0  0  0  0  0  0
   59.8390   29.8260   48.0890 S   0  0  0  0  0  0  0  0  0  0  0  0
   59.5624   35.6388   47.0345 H   0  0  0  0  0  0  0  0  0  0  0  0
   60.4694   35.1739   45.5554 H   0  0  0  0  0  0  0  0  0  0  0  0
   58.6735   35.1400   45.5554 H   0  0  0  0  0  0  0  0  0  0  0  0
   58.2385   32.1619   47.2958 H   0  0  0  0  0  0  0  0  0  0  0  0
   57.5240   33.7348   46.8220 H   0  0  0  0  0  0  0  0  0  0  0  0
   59.0371   33.9144   44.0065 H   0  0  0  0  0  0  0  0  0  0  0  0
   58.4543   32.7684   41.8914 H   0  0  0  0  0  0  0  0  0  0  0  0
   57.0385   30.5367   42.1772 H   0  0  0  0  0  0  0  0  0  0  0  0
   60.3529   34.4821   48.3504 H   0  0  0  0  0  0  0  0  0  0  0  0
   59.6619   32.8562   48.5799 H   0  0  0  0  0  0  0  0  0  0  0  0
   63.0017   34.5043   48.3226 H   0  0  0  0  0  0  0  0  0  0  0  0
   64.8060   32.7440   47.6250 H   0  0  0  0  0  0  0  0  0  0  0  0
   59.7433   28.4768   43.6330 H   0  0  0  0  0  0  0  0  0  0  0  0
   58.0221   26.7834   43.8648 H   0  0  0  0  0  0  0  0  0  0  0  0
   56.9087   26.2444   45.9881 H   0  0  0  0  0  0  0  0  0  0  0  0
   57.6317   27.5609   48.0459 H   0  0  0  0  0  0  0  0  0  0  0  0
  1  2  1  0
  2  3  1  0
  3  4  1  0
  4  5  2  0
  5  6  1  0
  6  7  2  0
  7  8  1  0
  2  9  1  0
  9 10  1  0
 10 11  2  0
 11 12  1  0
 12 13  1  0
 13 14  2  0
 14 15  1  0
 15 16  2  0
 16 17  1  0
 17 18  2  0
 18 19  1  0
 19 20  2  0
 20 21  1  0
 21 22  2  0
 22 23  1  0
  8  4  1  0
 14 10  1  0
 23 15  1  0
 22 17  1  0
  1 24  1  0
  1 25  1  0
  1 26  1  0
  3 27  1  0
  3 28  1  0
  5 29  1  0
  6 30  1  0
  7 31  1  0
  9 32  1  0
  9 33  1  0
 11 34  1  0
 12 35  1  0
 18 36  1  0
 19 37  1  0
 20 38  1  0
 21 39  1  0
M  END
>  <smiles>  (3) 
CN(Cc1cccs1)Cc1c[nH]nc1-c1nc2ccccc2s1

>  <score_type>  (3) 
oracle

>  <origin>  (3) 
adg

>  <m_score__min__energy>  (3) 
-7.4800000000000004

>  <m_primary>  (3) 
energy

$$$$
3:0
     RDKit          3D

 41 43  0  0  0  0  0  0  0  0999 V2000
   56.2650   29.7420   42.6200 C   0  0  0  0  0  0  0  0  0  0  0  0
   57.0210   28.9710   43.6950 C   0  0  0  0  0  0  0  0  0  0  0  0
   57.5940   29.8940   44.6680 N   0  0  0  0  0  0  0  0  0  0  0  0
   57.4920   31.2350   44.6410 C   0  0  0  0  0  0  0  0  0  0  0  0
   58.1980   31.7390   45.7120 C   0  0  0  0  0  0  0  0  0  0  0  0
   58.1830   33.4180   46.2440 S   0  0  0  0  0  0  0  0  0  0  0  0
   57.3570   33.5490   47.4930 O   0  0  0  0  0  0  0  0  0  0  0  0
   57.5770   34.2680   45.1640 O   0  0  0  0  0  0  0  0  0  0  0  0
   59.7980   33.9570   46.5760 N   0  0  0  0  0  0  0  0  0  0  0  0
   60.3690   33.9120   47.8950 C   0  0  0  0  0  0  0  0  0  0  0  0
   59.5410   33.9120   49.0320 C   0  0  0  0  0  0  0  0  0  0  0  0
   60.0940   33.8250   50.3100 C   0  0  0  0  0  0  0  0  0  0  0  0
   59.0470   33.8040   51.7180 Cl  0  0  0  0  0  0  0  0  0  0  0  0
   61.4790   33.7540   50.4690 C   0  0  0  0  0  0  0  0  0  0  0  0
   62.3140   33.7700   49.3500 C   0  0  0  0  0  0  0  0  0  0  0  0
   61.7680   33.8480   48.0530 C   0  0  0  0  0  0  0  0  0  0  0  0
   62.5800   33.8450   46.9080 O   0  0  0  0  0  0  0  0  0  0  0  0
   63.7640   33.0700   46.7590 C   0  0  0  0  0  0  0  0  0  0  0  0
   58.7170   30.6230   46.3590 C   0  0  0  0  0  0  0  0  0  0  0  0
   59.5240   30.5780   47.5910 C   0  0  0  0  0  0  0  0  0  0  0  0
   59.0090   30.5070   48.8800 C   0  0  0  0  0  0  0  0  0  0  0  0
   59.9970   30.4460   49.8710 C   0  0  0  0  0  0  0  0  0  0  0  0
   61.2910   30.4530   49.3690 C   0  0  0  0  0  0  0  0  0  0  0  0
   61.2030   30.5350   47.6920 S   0  0  0  0  0  0  0  0  0  0  0  0
   58.3320   29.5130   45.6990 N   0  0  0  0  0  0  0  0  0  0  0  0
   55.5708   30.4500   43.0963 H   0  0  0  0  0  0  0  0  0  0  0  0
   56.9805   30.2951   41.9938 H   0  0  0  0  0  0  0  0  0  0  0  0
   55.6979   29.0375   41.9938 H   0  0  0  0  0  0  0  0  0  0  0  0
   56.3279   28.2874   44.2071 H   0  0  0  0  0  0  0  0  0  0  0  0
   57.8326   28.3984   43.2223 H   0  0  0  0  0  0  0  0  0  0  0  0
   56.9413   31.8261   43.8945 H   0  0  0  0  0  0  0  0  0  0  0  0
   60.4170   34.1330   45.7530 H   0  0  0  0  0  0  0  0  0  0  0  0
   58.4497   33.9811   48.9128 H   0  0  0  0  0  0  0  0  0  0  0  0
   61.9132   33.6853   51.4773 H   0  0  0  0  0  0  0  0  0  0  0  0
   63.4050   33.7214   49.4816 H   0  0  0  0  0  0  0  0  0  0  0  0
   64.1600   32.8108   47.7520 H   0  0  0  0  0  0  0  0  0  0  0  0
   63.5318   32.1486   46.2049 H   0  0  0  0  0  0  0  0  0  0  0  0
   64.5156   33.6515   46.2049 H   0  0  0  0  0  0  0  0  0  0  0  0
   57.9313   30.4995   49.1003 H   0  0  0  0  0  0  0  0  0  0  0  0
   59.7688   30.3971   50.9460 H   0  0  0  0  0  0  0  0  0  0  0  0
   62.2145   30.4120   49.9653 H   0  0  0  0  0  0  0  0  0  0  0  0
  1  2  1  0
  2  3  1  0
  3  4  1  0
  4  5  2  0
  5  6  1  0
  6  7  2  0
  6  8  2  0
  6  9  1  0
  9 10  1  0
 10 11  2  0
 11 12  1  0
 12 13  1  0
 12 14  2  0
 14 15  1  0
 15 16  2  0
 16 17  1  0
 17 18  1  0
  5 19  1  0
 19 20  1  0
 20 21  2  0
 21 22  1  0
 22 23  2  0
 23 24  1  0
 19 25  2  0
 25  3  1  0
 16 10  1  0
 24 20  1  0
  1 26  1  0
  1 27  1  0
  1 28  1  0
  2 29  1  0
  2 30  1  0
  4 31  1  0
  9 32  1  0
 11 33  1  0
 14 34  1  0
 15 35  1  0
 18 36  1  0
 18 37  1  0
 18 38  1  0
 21 39  1  0
 22 40  1  0
 23 41  1  0
M  END
>  <UniqueID>  (4) 
3

>  <SMILES>  (4) 
CCn1cc(S(=O)(=O)Nc2cc(Cl)ccc2OC)c(-c2cccs2)n1

>  <Energy>  (4) 
97.20146586803604

>  <Genealogy>  (4) 
CCn1cc(S(=O)(=O)Nc2cc(Cl)ccc2OC)c(-c2cccs2)n1 (3D coordinates assigned)
CCn1cc(S(=O)(=O)Nc2cc(Cl)ccc2OC)c(-c2cccs2)n1 (optimized conformer: 97.20146586803604 kcal/mol)

>  <smiles>  (4) 
CCn1cc(S(=O)(=O)Nc2cc(Cl)ccc2OC)c(-c2cccs2)n1

>  <score_type>  (4) 
oracle

>  <origin>  (4) 
adg

>  <m_score__min__energy>  (4) 
-7.5499999999999998

>  <m_primary>  (4) 
energy

$$$$
4:0
     RDKit          3D

 48 50  0  0  0  0  0  0  0  0999 V2000
   53.3000   23.4000   45.6620 C   0  0  0  0  0  0  0  0  0  0  0  0
   54.2430   23.8080   44.5350 C   0  0  0  0  0  0  0  0  0  0  0  0
   55.6410   23.7740   44.9930 N   0  0  0  0  0  0  0  0  0  0  0  0
   56.5030   22.6780   44.5290 C   0  0  0  0  0  0  0  0  0  0  0  0
   56.5800   22.6620   43.0050 C   0  0  0  0  0  0  0  0  0  0  0  0
   56.1140   24.7790   45.9230 C   0  0  0  0  0  0  0  0  0  0  0  0
   55.3220   25.6740   46.3280 O   0  0  0  0  0  0  0  0  0  0  0  0
   57.5510   24.8270   46.3800 C   0  0  0  0  0  0  0  0  0  0  0  0
   58.3230   25.7220   45.5770 O   0  0  0  0  0  0  0  0  0  0  0  0
   58.2760   27.1240   45.6550 C   0  0  0  0  0  0  0  0  0  0  0  0
   57.1010   27.7690   45.2580 C   0  0  0  0  0  0  0  0  0  0  0  0
   56.9870   29.1660   45.3150 C   0  0  0  0  0  0  0  0  0  0  0  0
   55.7970   29.7720   44.9110 O   0  0  0  0  0  0  0  0  0  0  0  0
   58.0750   29.9390   45.7790 C   0  0  0  0  0  0  0  0  0  0  0  0
   58.0390   31.3460   45.8730 C   0  0  0  0  0  0  0  0  0  0  0  0
   57.0120   32.0000   45.5460 O   0  0  0  0  0  0  0  0  0  0  0  0
   59.1590   32.0330   46.3420 C   0  0  0  0  0  0  0  0  0  0  0  0
   60.3080   31.3140   46.7110 C   0  0  0  0  0  0  0  0  0  0  0  0
   61.5280   31.9900   47.2190 C   0  0  0  0  0  0  0  0  0  0  0  0
   61.9360   33.2490   46.7320 C   0  0  0  0  0  0  0  0  0  0  0  0
   63.0970   33.8550   47.2230 C   0  0  0  0  0  0  0  0  0  0  0  0
   63.8660   33.2150   48.1960 C   0  0  0  0  0  0  0  0  0  0  0  0
   63.4800   31.9620   48.6770 C   0  0  0  0  0  0  0  0  0  0  0  0
   62.3210   31.3500   48.1890 C   0  0  0  0  0  0  0  0  0  0  0  0
   60.3050   29.9860   46.6190 O   0  0  0  0  0  0  0  0  0  0  0  0
   59.2640   29.2860   46.1780 C   0  0  0  0  0  0  0  0  0  0  0  0
   59.3590   27.8940   46.1160 C   0  0  0  0  0  0  0  0  0  0  0  0
   53.7767   23.6062   46.6317 H   0  0  0  0  0  0  0  0  0  0  0  0
   52.3649   23.9740   45.5836 H   0  0  0  0  0  0  0  0  0  0  0  0
   53.0782   22.3254   45.5836 H   0  0  0  0  0  0  0  0  0  0  0  0
   54.1215   23.1120   43.6919 H   0  0  0  0  0  0  0  0  0  0  0  0
   53.9974   24.8329   44.2200 H   0  0  0  0  0  0  0  0  0  0  0  0
   57.5140   22.8145   44.9404 H   0  0  0  0  0  0  0  0  0  0  0  0
   56.0776   21.7234   44.8721 H   0  0  0  0  0  0  0  0  0  0  0  0
   57.6126   22.4475   42.6923 H   0  0  0  0  0  0  0  0  0  0  0  0
   55.9088   21.8841   42.6121 H   0  0  0  0  0  0  0  0  0  0  0  0
   56.2742   23.6429   42.6121 H   0  0  0  0  0  0  0  0  0  0  0  0
   57.5830   25.1662   47.4259 H   0  0  0  0  0  0  0  0  0  0  0  0
   57.9791   23.8183   46.2840 H   0  0  0  0  0  0  0  0  0  0  0  0
   56.2519   27.1713   44.8950 H   0  0  0  0  0  0  0  0  0  0  0  0
   55.5310   30.6930   45.2370 H   0  0  0  0  0  0  0  0  0  0  0  0
   59.1425   33.1299   46.4223 H   0  0  0  0  0  0  0  0  0  0  0  0
   61.3377   33.7574   45.9615 H   0  0  0  0  0  0  0  0  0  0  0  0
   63.4050   34.8394   46.8409 H   0  0  0  0  0  0  0  0  0  0  0  0
   64.7755   33.6971   48.5838 H   0  0  0  0  0  0  0  0  0  0  0  0
   64.0885   31.4557   49.4408 H   0  0  0  0  0  0  0  0  0  0  0  0
   62.0269   30.3597   48.5669 H   0  0  0  0  0  0  0  0  0  0  0  0
   60.2881   27.3959   46.4302 H   0  0  0  0  0  0  0  0  0  0  0  0
  1  2  1  0
  2  3  1  0
  3  4  1  0
  4  5  1  0
  3  6  1  0
  6  7  2  0
  6  8  1  0
  8  9  1  0
  9 10  1  0
 10 11  2  0
 11 12  1  0
 12 13  1  0
 12 14  2  0
 14 15  1  0
 15 16  2  0
 15 17  1  0
 17 18  2  0
 18 19  1  0
 19 20  2  0
 20 21  1  0
 21 22  2  0
 22 23  1  0
 23 24  2  0
 18 25  1  0
 25 26  1  0
 26 27  2  0
 27 10  1  0
 26 14  1  0
 24 19  1  0
  1 28  1  0
  1 29  1  0
  1 30  1  0
  2 31  1  0
  2 32  1  0
  4 33  1  0
  4 34  1  0
  5 35  1  0
  5 36  1  0
  5 37  1  0
  8 38  1  0
  8 39  1  0
 11 40  1  0
 13 41  1  0
 17 42  1  0
 20 43  1  0
 21 44  1  0
 22 45  1  0
 23 46  1  0
 24 47  1  0
 27 48  1  0
M  END
>  <UniqueID>  (5) 
4

>  <SMILES>  (5) 
CCN(CC)C(=O)COc1cc(O)c2c(=O)cc(-c3ccccc3)oc2c1

>  <Energy>  (5) 
53.57263768146237

>  <Genealogy>  (5) 
CCN(CC)C(=O)COc1cc(O)c2c(=O)cc(-c3ccccc3)oc2c1 (3D coordinates assigned)
CCN(CC)C(=O)COc1cc(O)c2c(=O)cc(-c3ccccc3)oc2c1 (optimized conformer: 53.57263768146237 kcal/mol)

>  <smiles>  (5) 
CCN(CC)C(=O)COc1cc(O)c2c(=O)cc(-c3ccccc3)oc2c1

>  <score_type>  (5) 
oracle

>  <origin>  (5) 
adg

>  <m_score__min__energy>  (5) 
-7.8899999999999997

>  <m_primary>  (5) 
energy

$$$$
5:0
     RDKit          3D

 23 23  0  0  0  0  0  0  0  0999 V2000
   55.8400   30.2310   44.7580 O   0  0  0  0  0  0  0  0  0  0  0  0
   56.8450   29.8400   43.7110 S   0  0  0  0  0  0  0  0  0  0  0  0
   56.1510   29.7890   42.3780 O   0  0  0  0  0  0  0  0  0  0  0  0
   57.5110   28.2190   44.0740 C   0  0  0  0  0  0  0  0  0  0  0  0
   57.1940   27.7950   45.5050 C   0  0  0  0  0  0  0  0  0  0  0  0
   55.8550   27.4700   45.6230 F   0  0  0  0  0  0  0  0  0  0  0  0
   57.4800   28.8370   46.3680 F   0  0  0  0  0  0  0  0  0  0  0  0
   58.1120   31.0240   43.6370 N   0  0  0  0  0  0  0  0  0  0  0  0
   58.2560   32.1140   44.5650 C   0  0  0  0  0  0  0  0  0  0  0  0
   58.5010   33.4330   44.1370 C   0  0  0  0  0  0  0  0  0  0  0  0
   58.6350   34.4660   45.0690 C   0  0  0  0  0  0  0  0  0  0  0  0
   58.5340   34.1960   46.4360 C   0  0  0  0  0  0  0  0  0  0  0  0
   58.6650   35.2020   47.3360 F   0  0  0  0  0  0  0  0  0  0  0  0
   58.3000   32.8890   46.8740 C   0  0  0  0  0  0  0  0  0  0  0  0
   58.2040   32.6240   48.2000 F   0  0  0  0  0  0  0  0  0  0  0  0
   58.1650   31.8540   45.9430 C   0  0  0  0  0  0  0  0  0  0  0  0
   57.0727   27.4880   43.3786 H   0  0  0  0  0  0  0  0  0  0  0  0
   58.6042   28.2600   43.9590 H   0  0  0  0  0  0  0  0  0  0  0  0
   57.8052   26.9159   45.7572 H   0  0  0  0  0  0  0  0  0  0  0  0
   58.8640   30.8600   42.9310 H   0  0  0  0  0  0  0  0  0  0  0  0
   58.5875   33.6518   43.0624 H   0  0  0  0  0  0  0  0  0  0  0  0
   58.8205   35.4943   44.7252 H   0  0  0  0  0  0  0  0  0  0  0  0
   57.9859   30.8266   46.2928 H   0  0  0  0  0  0  0  0  0  0  0  0
  1  2  2  0
  2  3  2  0
  2  4  1  0
  4  5  1  0
  5  6  1  0
  5  7  1  0
  2  8  1  0
  8  9  1  0
  9 10  2  0
 10 11  1  0
 11 12  2  0
 12 13  1  0
 12 14  1  0
 14 15  1  0
 14 16  2  0
 16  9  1  0
  4 17  1  0
  4 18  1  0
  5 19  1  0
  8 20  1  0
 10 21  1  0
 11 22  1  0
 16 23  1  0
M  END
>  <UniqueID>  (6) 
5

>  <SMILES>  (6) 
O=S(=O)(CC(F)F)Nc1ccc(F)c(F)c1

>  <Energy>  (6) 
17.66833867562176

>  <Genealogy>  (6) 
O=S(=O)(CC(F)F)Nc1ccc(F)c(F)c1 (3D coordinates assigned)
O=S(=O)(CC(F)F)Nc1ccc(F)c(F)c1 (optimized conformer: 17.66833867562176 kcal/mol)

>  <smiles>  (6) 
O=S(=O)(CC(F)F)Nc1ccc(F)c(F)c1

>  <score_type>  (6) 
oracle

>  <origin>  (6) 
adg

>  <m_score__min__energy>  (6) 
-5.5700000000000003

>  <m_primary>  (6) 
energy

$$$$
6:0
     RDKit          3D

 45 48  0  0  0  0  0  0  0  0999 V2000
   58.7510   34.0260   45.9040 O   0  0  0  0  0  0  0  0  0  0  0  0
   59.5120   33.1230   46.3480 C   0  0  0  0  0  0  0  0  0  0  0  0
   59.2140   31.7430   46.0820 N   0  0  0  0  0  0  0  0  0  0  0  0
   58.1190   31.3310   45.2040 C   0  0  0  0  0  0  0  0  0  0  0  0
   57.4570   30.0510   45.7290 C   0  0  1  0  0  0  0  0  0  0  0  0
   57.4310   28.9510   44.6730 C   0  0  0  0  0  0  0  0  0  0  0  0
   57.5840   27.7120   45.5070 C   0  0  2  0  0  0  0  0  0  0  0  0
   58.4030   28.2080   46.6870 C   0  0  0  0  0  0  0  0  0  0  0  0
   58.1430   29.5820   46.8720 O   0  0  0  0  0  0  0  0  0  0  0  0
   58.1810   26.4950   44.7640 C   0  0  0  0  0  0  0  0  0  0  0  0
   57.0860   25.4840   44.9120 C   0  0  0  0  0  0  0  0  0  0  0  0
   57.1250   24.1010   44.3760 C   0  0  0  0  0  0  0  0  0  0  0  0
   58.0560   23.1680   44.8740 C   0  0  0  0  0  0  0  0  0  0  0  0
   58.0930   21.8660   44.3680 C   0  0  0  0  0  0  0  0  0  0  0  0
   57.2040   21.4780   43.3630 C   0  0  0  0  0  0  0  0  0  0  0  0
   56.2760   22.3920   42.8620 C   0  0  0  0  0  0  0  0  0  0  0  0
   56.2340   23.6970   43.3630 C   0  0  0  0  0  0  0  0  0  0  0  0
   56.0780   25.9460   45.5710 N   0  0  0  0  0  0  0  0  0  0  0  0
   56.3160   27.2430   45.9430 O   0  0  0  0  0  0  0  0  0  0  0  0
   60.6860   33.5050   47.1640 C   0  0  0  0  0  0  0  0  0  0  0  0
   61.9700   33.4760   46.5860 C   0  0  0  0  0  0  0  0  0  0  0  0
   63.0920   33.8360   47.3370 C   0  0  0  0  0  0  0  0  0  0  0  0
   62.9500   34.2170   48.6720 C   0  0  0  0  0  0  0  0  0  0  0  0
   61.6840   34.2330   49.2620 C   0  0  0  0  0  0  0  0  0  0  0  0
   60.5550   33.8750   48.5180 C   0  0  0  0  0  0  0  0  0  0  0  0
   59.3480   33.8430   49.1390 F   0  0  0  0  0  0  0  0  0  0  0  0
   59.7720   30.9940   46.5480 H   0  0  0  0  0  0  0  0  0  0  0  0
   57.3687   32.1343   45.1609 H   0  0  0  0  0  0  0  0  0  0  0  0
   58.5246   31.1340   44.2006 H   0  0  0  0  0  0  0  0  0  0  0  0
   56.4185   30.3032   45.9897 H   0  0  0  0  0  0  0  0  0  0  0  0
   56.4782   28.9474   44.1234 H   0  0  0  0  0  0  0  0  0  0  0  0
   58.2043   29.0620   43.8986 H   0  0  0  0  0  0  0  0  0  0  0  0
   58.1204   27.6524   47.5934 H   0  0  0  0  0  0  0  0  0  0  0  0
   59.4743   28.0521   46.4918 H   0  0  0  0  0  0  0  0  0  0  0  0
   58.3737   26.7258   43.7059 H   0  0  0  0  0  0  0  0  0  0  0  0
   59.1526   26.1628   45.1584 H   0  0  0  0  0  0  0  0  0  0  0  0
   58.7583   23.4665   45.6663 H   0  0  0  0  0  0  0  0  0  0  0  0
   58.8241   21.1448   44.7622 H   0  0  0  0  0  0  0  0  0  0  0  0
   57.2353   20.4524   42.9666 H   0  0  0  0  0  0  0  0  0  0  0  0
   55.5758   22.0852   42.0710 H   0  0  0  0  0  0  0  0  0  0  0  0
   55.5003   24.4125   42.9633 H   0  0  0  0  0  0  0  0  0  0  0  0
   62.0903   33.1680   45.5369 H   0  0  0  0  0  0  0  0  0  0  0  0
   64.0900   33.8190   46.8746 H   0  0  0  0  0  0  0  0  0  0  0  0
   63.8345   34.5045   49.2593 H   0  0  0  0  0  0  0  0  0  0  0  0
   61.5745   34.5283   50.3159 H   0  0  0  0  0  0  0  0  0  0  0  0
  1  2  2  0
  2  3  1  0
  3  4  1  0
  4  5  1  0
  5  6  1  0
  6  7  1  0
  7  8  1  0
  8  9  1  0
  7 10  1  0
 10 11  1  0
 11 12  1  0
 12 13  2  0
 13 14  1  0
 14 15  2  0
 15 16  1  0
 16 17  2  0
 11 18  2  0
 18 19  1  0
  2 20  1  0
 20 21  2  0
 21 22  1  0
 22 23  2  0
 23 24  1  0
 24 25  2  0
 25 26  1  0
  9  5  1  0
 17 12  1  0
 25 20  1  0
  7 19  1  1
  3 27  1  0
  4 28  1  0
  4 29  1  0
  5 30  1  1
  6 31  1  0
  6 32  1  0
  8 33  1  0
  8 34  1  0
 10 35  1  0
 10 36  1  0
 13 37  1  0
 14 38  1  0
 15 39  1  0
 16 40  1  0
 17 41  1  0
 21 42  1  0
 22 43  1  0
 23 44  1  0
 24 45  1  0
M  END
>  <UniqueID>  (7) 
6

>  <SMILES>  (7) 
O=C(NC[C@H]1C[C@]2(CO1)CC(c1ccccc1)=NO2)c1ccccc1F

>  <Energy>  (7) 
65.34363857657311

>  <Genealogy>  (7) 
O=C(NC[C@H]1C[C@]2(CO1)CC(c1ccccc1)=NO2)c1ccccc1F (chirality)
O=C(NC[C@H]1C[C@]2(CO1)CC(c1ccccc1)=NO2)c1ccccc1F (3D coordinates assigned)
O=C(NC[C@H]1C[C@]2(CO1)CC(c1ccccc1)=NO2)c1ccccc1F (nonaromatic ring conformer: 65.34363857657311 kcal/mol)

>  <smiles>  (7) 
O=C(NCC1CC2(CO1)CC(c1ccccc1)=NO2)c1ccccc1F

>  <score_type>  (7) 
oracle

>  <origin>  (7) 
adg

>  <m_score__min__energy>  (7) 
-8.9800000000000004

>  <m_primary>  (7) 
energy

$$$$
7:0
     RDKit          3D

 48 51  0  0  0  0  0  0  0  0999 V2000
   57.1600   33.8650   44.1180 O   0  0  0  0  0  0  0  0  0  0  0  0
   57.4210   33.0160   45.0100 C   0  0  0  0  0  0  0  0  0  0  0  0
   56.7560   31.7450   44.9710 N   0  0  0  0  0  0  0  0  0  0  0  0
   57.3990   30.4670   45.0910 C   0  0  0  0  0  0  0  0  0  0  0  0
   57.1760   29.4990   44.1060 C   0  0  0  0  0  0  0  0  0  0  0  0
   57.7760   28.2410   44.1980 C   0  0  0  0  0  0  0  0  0  0  0  0
   58.6270   27.9420   45.2710 C   0  0  0  0  0  0  0  0  0  0  0  0
   59.2300   26.6790   45.3770 C   0  0  0  0  0  0  0  0  0  0  0  0
   60.0850   26.3980   46.4470 C   0  0  0  0  0  0  0  0  0  0  0  0
   60.3490   27.3730   47.4120 C   0  0  0  0  0  0  0  0  0  0  0  0
   59.7570   28.6350   47.3160 C   0  0  0  0  0  0  0  0  0  0  0  0
   58.8860   28.9270   46.2540 C   0  0  0  0  0  0  0  0  0  0  0  0
   58.2730   30.1850   46.1560 C   0  0  0  0  0  0  0  0  0  0  0  0
   58.3700   33.3620   46.0920 C   0  0  0  0  0  0  0  0  0  0  0  0
   59.5880   33.9910   45.7900 C   0  0  0  0  0  0  0  0  0  0  0  0
   60.5070   34.2730   46.8040 C   0  0  0  0  0  0  0  0  0  0  0  0
   60.2210   33.9350   48.1370 C   0  0  0  0  0  0  0  0  0  0  0  0
   61.2360   34.1890   49.2310 C   0  0  0  0  0  0  0  0  0  0  0  0
   62.0850   33.0150   49.5720 N   0  0  0  0  0  0  0  0  0  0  0  0
   61.9670   31.8870   48.6150 C   0  0  0  0  0  0  0  0  0  0  0  0
   62.9680   31.9630   47.4370 C   0  0  0  0  0  0  0  0  0  0  0  0
   63.7980   33.1030   47.4990 O   0  0  0  0  0  0  0  0  0  0  0  0
   64.4710   33.1230   48.7350 C   0  0  0  0  0  0  0  0  0  0  0  0
   63.4920   33.3640   49.9000 C   0  0  0  0  0  0  0  0  0  0  0  0
   58.9790   33.3610   48.4450 C   0  0  0  0  0  0  0  0  0  0  0  0
   58.0630   33.0710   47.4310 C   0  0  0  0  0  0  0  0  0  0  0  0
   56.5227   29.7305   43.2519 H   0  0  0  0  0  0  0  0  0  0  0  0
   57.5801   27.4824   43.4259 H   0  0  0  0  0  0  0  0  0  0  0  0
   59.0296   25.9092   44.6172 H   0  0  0  0  0  0  0  0  0  0  0  0
   60.5516   25.4053   46.5293 H   0  0  0  0  0  0  0  0  0  0  0  0
   61.0249   27.1466   48.2498 H   0  0  0  0  0  0  0  0  0  0  0  0
   59.9738   29.4018   48.0743 H   0  0  0  0  0  0  0  0  0  0  0  0
   58.4769   30.9542   46.9155 H   0  0  0  0  0  0  0  0  0  0  0  0
   59.8202   34.2633   44.7498 H   0  0  0  0  0  0  0  0  0  0  0  0
   61.4604   34.7628   46.5568 H   0  0  0  0  0  0  0  0  0  0  0  0
   61.8957   35.0063   48.9042 H   0  0  0  0  0  0  0  0  0  0  0  0
   60.6631   34.4338   50.1376 H   0  0  0  0  0  0  0  0  0  0  0  0
   61.6710   32.6590   50.4680 H   0  0  0  0  0  0  0  0  0  0  0  0
   62.1438   30.9485   49.1609 H   0  0  0  0  0  0  0  0  0  0  0  0
   60.9570   31.9370   48.1822 H   0  0  0  0  0  0  0  0  0  0  0  0
   63.6024   31.0646   47.4560 H   0  0  0  0  0  0  0  0  0  0  0  0
   62.3827   32.0288   46.5079 H   0  0  0  0  0  0  0  0  0  0  0  0
   64.9753   32.1569   48.8844 H   0  0  0  0  0  0  0  0  0  0  0  0
   65.2023   33.9446   48.7196 H   0  0  0  0  0  0  0  0  0  0  0  0
   63.8122   32.7524   50.7564 H   0  0  0  0  0  0  0  0  0  0  0  0
   63.5149   34.4404   50.1253 H   0  0  0  0  0  0  0  0  0  0  0  0
   58.7246   33.1378   49.4916 H   0  0  0  0  0  0  0  0  0  0  0  0
   57.0956   32.6120   47.6829 H   0  0  0  0  0  0  0  0  0  0  0  0
  1  2  2  0
  2  3  1  0
  3  4  1  0
  4  5  2  0
  5  6  1  0
  6  7  2  0
  7  8  1  0
  8  9  2  0
  9 10  1  0
 10 11  2  0
 11 12  1  0
 12 13  2  0
  2 14  1  0
 14 15  2  0
 15 16  1  0
 16 17  2  0
 17 18  1  0
 18 19  1  0
 19 20  1  0
 20 21  1  0
 21 22  1  0
 22 23  1  0
 23 24  1  0
 17 25  1  0
 25 26  2  0
 13  4  1  0
 26 14  1  0
 12  7  1  0
 24 19  1  0
  5 27  1  0
  6 28  1  0
  8 29  1  0
  9 30  1  0
 10 31  1  0
 11 32  1  0
 13 33  1  0
 15 34  1  0
 16 35  1  0
 18 36  1  0
 18 37  1  0
 19 38  1  0
 20 39  1  0
 20 40  1  0
 21 41  1  0
 21 42  1  0
 23 43  1  0
 23 44  1  0
 24 45  1  0
 24 46  1  0
 25 47  1  0
 26 48  1  0
M  CHG  2   3  -1  19   1
M  END
>  <UniqueID>  (8) 
7

>  <SMILES>  (8) 
O=C([N-]c1ccc2ccccc2c1)c1ccc(C[NH+]2CCOCC2)cc1

>  <Energy>  (8) 
74.60057091774149

>  <Genealogy>  (8) 
O=C([N-]c1ccc2ccccc2c1)c1ccc(C[NH+]2CCOCC2)cc1 (protonated)
O=C([N-]c1ccc2ccccc2c1)c1ccc(C[NH+]2CCOCC2)cc1 (3D coordinates assigned)
O=C([N-]c1ccc2ccccc2c1)c1ccc(C[NH+]2CCOCC2)cc1 (nonaromatic ring conformer: 74.60057091774149 kcal/mol)

>  <smiles>  (8) 
O=C(Nc1ccc2ccccc2c1)c1ccc(CN2CCOCC2)cc1

>  <score_type>  (8) 
oracle

>  <origin>  (8) 
adg

>  <m_score__min__energy>  (8) 
-8.1199999999999992

>  <m_primary>  (8) 
energy

$$$$
8:0
     RDKit          3D

 44 44  0  0  0  0  0  0  0  0999 V2000
   60.6690   30.0550   46.3860 C   0  0  0  0  0  0  0  0  0  0  0  0
   59.4230   30.6020   47.0730 C   0  0  0  0  0  0  0  0  0  0  0  0
   59.1180   32.0000   46.5950 C   0  0  0  0  0  0  0  0  0  0  0  0
   59.9380   33.0650   47.0050 C   0  0  0  0  0  0  0  0  0  0  0  0
   59.6900   34.3630   46.5570 C   0  0  0  0  0  0  0  0  0  0  0  0
   58.6290   34.6110   45.6880 C   0  0  0  0  0  0  0  0  0  0  0  0
   57.8130   33.5610   45.2600 C   0  0  0  0  0  0  0  0  0  0  0  0
   58.0480   32.2440   45.7060 C   0  0  0  0  0  0  0  0  0  0  0  0
   57.2600   31.1590   45.2840 O   0  0  0  0  0  0  0  0  0  0  0  0
   56.3250   31.1740   44.2050 C   0  0  0  0  0  0  0  0  0  0  0  0
   55.9160   29.7420   43.8160 C   0  0  2  0  0  0  0  0  0  0  0  0
   55.6170   28.9870   44.9640 O   0  0  0  0  0  0  0  0  0  0  0  0
   57.0180   29.0610   42.9790 C   0  0  0  0  0  0  0  0  0  0  0  0
   57.3800   27.7480   43.5440 N   0  0  0  0  0  0  0  0  0  0  0  0
   58.7680   27.7120   44.0450 C   0  0  0  0  0  0  0  0  0  0  0  0
   58.8890   27.2200   45.5000 C   0  0  0  0  0  0  0  0  0  0  0  0
   57.6680   27.5440   46.3050 C   0  0  0  0  0  0  0  0  0  0  0  0
   57.7350   28.4010   47.2280 O   0  0  0  0  0  0  0  0  0  0  0  0
   56.4580   26.9120   46.0040 O   0  0  0  0  0  0  0  0  0  0  0  0
   56.2950   25.5010   46.0670 C   0  0  0  0  0  0  0  0  0  0  0  0
   61.3967   29.7355   47.1466 H   0  0  0  0  0  0  0  0  0  0  0  0
   60.3937   29.1950   45.7579 H   0  0  0  0  0  0  0  0  0  0  0  0
   61.1158   30.8398   45.7579 H   0  0  0  0  0  0  0  0  0  0  0  0
   58.5685   29.9481   46.8442 H   0  0  0  0  0  0  0  0  0  0  0  0
   59.6027   30.6316   48.1578 H   0  0  0  0  0  0  0  0  0  0  0  0
   60.7818   32.8739   47.6843 H   0  0  0  0  0  0  0  0  0  0  0  0
   60.3326   35.1914   46.8900 H   0  0  0  0  0  0  0  0  0  0  0  0
   58.4337   35.6355   45.3385 H   0  0  0  0  0  0  0  0  0  0  0  0
   56.9807   33.7631   44.5697 H   0  0  0  0  0  0  0  0  0  0  0  0
   55.4293   31.7341   44.5117 H   0  0  0  0  0  0  0  0  0  0  0  0
   56.7978   31.6541   43.3355 H   0  0  0  0  0  0  0  0  0  0  0  0
   55.0101   29.7988   43.1947 H   0  0  0  0  0  0  0  0  0  0  0  0
   56.3440   29.1410   45.6230 H   0  0  0  0  0  0  0  0  0  0  0  0
   56.6532   28.9212   41.9507 H   0  0  0  0  0  0  0  0  0  0  0  0
   57.9109   29.7034   42.9890 H   0  0  0  0  0  0  0  0  0  0  0  0
   57.3020   27.0250   42.7900 H   0  0  0  0  0  0  0  0  0  0  0  0
   56.7140   27.4890   44.3070 H   0  0  0  0  0  0  0  0  0  0  0  0
   59.3523   27.0383   43.4009 H   0  0  0  0  0  0  0  0  0  0  0  0
   59.1445   28.7453   44.0228 H   0  0  0  0  0  0  0  0  0  0  0  0
   59.0323   26.1294   45.4954 H   0  0  0  0  0  0  0  0  0  0  0  0
   59.7462   27.7319   45.9617 H   0  0  0  0  0  0  0  0  0  0  0  0
   56.2582   25.1828   47.1193 H   0  0  0  0  0  0  0  0  0  0  0  0
   55.3581   25.2174   45.5652 H   0  0  0  0  0  0  0  0  0  0  0  0
   57.1425   25.0112   45.5652 H   0  0  0  0  0  0  0  0  0  0  0  0
  1  2  1  0
  2  3  1  0
  3  4  2  0
  4  5  1  0
  5  6  2  0
  6  7  1  0
  7  8  2  0
  8  9  1  0
  9 10  1  0
 10 11  1  0
 11 12  1  0
 11 13  1  0
 13 14  1  0
 14 15  1  0
 15 16  1  0
 16 17  1  0
 17 18  2  0
 17 19  1  0
 19 20  1  0
  8  3  1  0
  1 21  1  0
  1 22  1  0
  1 23  1  0
  2 24  1  0
  2 25  1  0
  4 26  1  0
  5 27  1  0
  6 28  1  0
  7 29  1  0
 10 30  1  0
 10 31  1  0
 11 32  1  6
 12 33  1  0
 13 34  1  0
 13 35  1  0
 14 36  1  0
 14 37  1  0
 15 38  1  0
 15 39  1  0
 16 40  1  0
 16 41  1  0
 20 42  1  0
 20 43  1  0
 20 44  1  0
M  CHG  1  14   1
M  END
>  <UniqueID>  (9) 
8

>  <SMILES>  (9) 
CCc1ccccc1OC[C@H](O)C[NH2+]CCC(=O)OC

>  <Energy>  (9) 
32.34850053549374

>  <Genealogy>  (9) 
CCc1ccccc1OCC(O)C[NH2+]CCC(=O)OC (protonated)
CCc1ccccc1OC[C@H](O)C[NH2+]CCC(=O)OC (chirality)
CCc1ccccc1OC[C@H](O)C[NH2+]CCC(=O)OC (3D coordinates assigned)
CCc1ccccc1OC[C@H](O)C[NH2+]CCC(=O)OC (optimized conformer: 32.34850053549374 kcal/mol)

>  <smiles>  (9) 
CCc1ccccc1OCC(O)CNCCC(=O)OC

>  <score_type>  (9) 
oracle

>  <origin>  (9) 
adg

>  <m_score__min__energy>  (9) 
-5.7800000000000002

>  <m_primary>  (9) 
energy

$$$$
9:0
     RDKit          3D

 54 56  0  0  0  0  0  0  0  0999 V2000
   59.7254   27.0376   45.2897 H   0  0  0  0  0  0  0  0  0  0  0  0
   59.4300   27.9690   45.7950 C   0  0  0  0  0  0  0  0  0  0  0  0
   59.9880   28.2920   46.9230 N   0  0  0  0  0  0  0  0  0  0  0  0
   60.1630   29.6230   47.4410 C   0  0  0  0  0  0  0  0  0  0  0  0
   61.0100   30.4960   46.7440 C   0  0  0  0  0  0  0  0  0  0  0  0
   61.5238   30.1483   45.8356 H   0  0  0  0  0  0  0  0  0  0  0  0
   61.2070   31.8050   47.1940 C   0  0  0  0  0  0  0  0  0  0  0  0
   61.8804   32.4788   46.6439 H   0  0  0  0  0  0  0  0  0  0  0  0
   60.5500   32.2600   48.3420 C   0  0  0  0  0  0  0  0  0  0  0  0
   60.7470   33.6070   48.7990 N   0  0  0  0  0  0  0  0  0  0  0  0
   59.6740   34.5910   48.6020 C   0  0  0  0  0  0  0  0  0  0  0  0
   58.9200   34.4663   49.3932 H   0  0  0  0  0  0  0  0  0  0  0  0
   60.1082   35.6008   48.6442 H   0  0  0  0  0  0  0  0  0  0  0  0
   59.0180   34.4020   47.2600 C   0  0  0  0  0  0  0  0  0  0  0  0
   59.6080   34.9320   46.1000 C   0  0  0  0  0  0  0  0  0  0  0  0
   60.5289   35.5286   46.1773 H   0  0  0  0  0  0  0  0  0  0  0  0
   59.0290   34.7040   44.8480 C   0  0  0  0  0  0  0  0  0  0  0  0
   59.4938   35.1231   43.9434 H   0  0  0  0  0  0  0  0  0  0  0  0
   57.8600   33.9440   44.7440 C   0  0  0  0  0  0  0  0  0  0  0  0
   57.4066   33.7634   43.7582 H   0  0  0  0  0  0  0  0  0  0  0  0
   57.2680   33.4140   45.8940 C   0  0  0  0  0  0  0  0  0  0  0  0
   56.3468   32.8185   45.8122 H   0  0  0  0  0  0  0  0  0  0  0  0
   57.8440   33.6390   47.1480 C   0  0  0  0  0  0  0  0  0  0  0  0
   57.3763   33.2171   48.0498 H   0  0  0  0  0  0  0  0  0  0  0  0
   62.0920   34.0260   49.2180 C   0  0  0  0  0  0  0  0  0  0  0  0
   62.0866   35.1092   49.4093 H   0  0  0  0  0  0  0  0  0  0  0  0
   62.7998   33.7766   48.4138 H   0  0  0  0  0  0  0  0  0  0  0  0
   62.5310   33.2950   50.4940 C   0  0  0  0  0  0  0  0  0  0  0  0
   61.6838   32.7110   50.8828 H   0  0  0  0  0  0  0  0  0  0  0  0
   62.8555   34.0441   51.2313 H   0  0  0  0  0  0  0  0  0  0  0  0
   63.6630   32.3820   50.2230 N   0  0  0  0  0  0  0  0  0  0  0  0
   64.1110   32.5000   48.8230 C   0  0  0  0  0  0  0  0  0  0  0  0
   65.1745   32.7801   48.8007 H   0  0  0  0  0  0  0  0  0  0  0  0
   63.9751   31.5354   48.3120 H   0  0  0  0  0  0  0  0  0  0  0  0
   63.5176   33.2725   48.3120 H   0  0  0  0  0  0  0  0  0  0  0  0
   63.2730   30.9890   50.4940 C   0  0  0  0  0  0  0  0  0  0  0  0
   63.2273   30.8258   51.5809 H   0  0  0  0  0  0  0  0  0  0  0  0
   62.2852   30.7921   50.0518 H   0  0  0  0  0  0  0  0  0  0  0  0
   64.0150   30.3079   50.0518 H   0  0  0  0  0  0  0  0  0  0  0  0
   59.6890   31.4000   49.0360 C   0  0  0  0  0  0  0  0  0  0  0  0
   59.1677   31.7562   49.9368 H   0  0  0  0  0  0  0  0  0  0  0  0
   59.4900   30.0910   48.5880 C   0  0  0  0  0  0  0  0  0  0  0  0
   58.8058   29.4236   49.1324 H   0  0  0  0  0  0  0  0  0  0  0  0
   58.4040   28.8370   45.1830 C   0  0  0  0  0  0  0  0  0  0  0  0
   58.7570   29.9570   44.4070 C   0  0  0  0  0  0  0  0  0  0  0  0
   59.8180   30.1986   44.2458 H   0  0  0  0  0  0  0  0  0  0  0  0
   57.7660   30.7640   43.8400 C   0  0  0  0  0  0  0  0  0  0  0  0
   58.0490   31.6385   43.2357 H   0  0  0  0  0  0  0  0  0  0  0  0
   56.4160   30.4610   44.0400 C   0  0  0  0  0  0  0  0  0  0  0  0
   55.6374   31.0964   43.5928 H   0  0  0  0  0  0  0  0  0  0  0  0
   56.0560   29.3510   44.8080 C   0  0  0  0  0  0  0  0  0  0  0  0
   54.9936   29.1129   44.9646 H   0  0  0  0  0  0  0  0  0  0  0  0
   57.0440   28.5420   45.3780 C   0  0  0  0  0  0  0  0  0  0  0  0
   56.7549   27.6697   45.9825 H   0  0  0  0  0  0  0  0  0  0  0  0
  1  2  1  0
  2  3  2  0
  3  4  1  0
  4  5  2  0
  5  6  1  0
  5  7  1  0
  7  8  1  0
  7  9  2  0
  9 10  1  0
 10 11  1  0
 11 12  1  0
 11 13  1  0
 11 14  1  0
 14 15  2  0
 15 16  1  0
 15 17  1  0
 17 18  1  0
 17 19  2  0
 19 20  1  0
 19 21  1  0
 21 22  1  0
 21 23  2  0
 23 24  1  0
 10 25  1  0
 25 26  1  0
 25 27  1  0
 25 28  1  0
 28 29  1  0
 28 30  1  0
 28 31  1  0
 31 32  1  0
 32 33  1  0
 32 34  1  0
 32 35  1  0
 31 36  1  0
 36 37  1  0
 36 38  1  0
 36 39  1  0
  9 40  1  0
 40 41  1  0
 40 42  2  0
 42 43  1  0
  2 44  1  0
 44 45  2  0
 45 46  1  0
 45 47  1  0
 47 48  1  0
 47 49  2  0
 49 50  1  0
 49 51  1  0
 51 52  1  0
 51 53  2  0
 53 54  1  0
 42  4  1  0
 53 44  1  0
 23 14  1  0
M  END
>  <UniqueID>  (10) 
9

>  <SMILES>  (10) 
CN(C)CCN(Cc1ccccc1)c1ccc(/N=C/c2ccccc2)cc1

>  <Energy>  (10) 
58.462850203241885

>  <Genealogy>  (10) 
CN(C)CCN(Cc1ccccc1)c1ccc(/N=C/c2ccccc2)cc1 (cis-trans isomerization)
CN(C)CCN(Cc1ccccc1)c1ccc(/N=C/c2ccccc2)cc1 (3D coordinates assigned)
CN(C)CCN(Cc1ccccc1)c1ccc(/N=C/c2ccccc2)cc1 (optimized conformer: 58.462850203241885 kcal/mol)

>  <smiles>  (10) 
CN(C)CCN(Cc1ccccc1)c1ccc(N=Cc2ccccc2)cc1

>  <score_type>  (10) 
oracle

>  <origin>  (10) 
adg

>  <m_score__min__energy>  (10) 
-7.75

>  <m_primary>  (10) 
energy

$$$$
10:0
     RDKit          3D

 41 44  0  0  0  0  0  0  0  0999 V2000
   63.9220   32.4850   49.8810 C   0  0  0  0  0  0  0  0  0  0  0  0
   63.1210   31.6680   48.8740 C   0  0  0  0  0  0  0  0  0  0  0  0
   62.7620   32.4930   47.7210 N   0  0  0  0  0  0  0  0  0  0  0  0
   63.6270   33.0460   46.8900 N   0  0  0  0  0  0  0  0  0  0  0  0
   62.9870   33.7980   46.0110 N   0  0  0  0  0  0  0  0  0  0  0  0
   61.6840   33.7540   46.2600 N   0  0  0  0  0  0  0  0  0  0  0  0
   61.5520   32.9380   47.3270 C   0  0  0  0  0  0  0  0  0  0  0  0
   60.2400   32.6530   48.0010 C   0  0  0  0  0  0  0  0  0  0  0  0
   59.4470   31.7310   47.1890 N   0  0  0  0  0  0  0  0  0  0  0  0
   58.7130   32.0720   46.0140 C   0  0  0  0  0  0  0  0  0  0  0  0
   58.4340   33.2610   45.7080 O   0  0  0  0  0  0  0  0  0  0  0  0
   58.2950   30.8680   45.2050 C   0  0  0  0  0  0  0  0  0  0  0  0
   58.8690   30.9050   43.9000 O   0  0  0  0  0  0  0  0  0  0  0  0
   58.0270   31.5920   42.9980 C   0  0  0  0  0  0  0  0  0  0  0  0
   56.6990   30.8580   42.8300 C   0  0  0  0  0  0  0  0  0  0  0  0
   56.3780   30.0770   44.1030 C   0  0  0  0  0  0  0  0  0  0  0  0
   56.8750   30.7440   45.2440 O   0  0  0  0  0  0  0  0  0  0  0  0
   58.9520   29.7860   46.0240 C   0  0  0  0  0  0  0  0  0  0  0  0
   59.0450   28.4180   45.7430 C   0  0  0  0  0  0  0  0  0  0  0  0
   59.7620   27.5920   46.6250 C   0  0  0  0  0  0  0  0  0  0  0  0
   59.8610   26.2640   46.3750 F   0  0  0  0  0  0  0  0  0  0  0  0
   60.3900   28.1400   47.7580 C   0  0  0  0  0  0  0  0  0  0  0  0
   60.3130   29.5170   48.0140 C   0  0  0  0  0  0  0  0  0  0  0  0
   59.5860   30.3190   47.1310 C   0  0  0  0  0  0  0  0  0  0  0  0
   63.6350   32.1923   50.9018 H   0  0  0  0  0  0  0  0  0  0  0  0
   64.9959   32.2974   49.7340 H   0  0  0  0  0  0  0  0  0  0  0  0
   63.7132   33.5550   49.7340 H   0  0  0  0  0  0  0  0  0  0  0  0
   63.7270   30.8149   48.5350 H   0  0  0  0  0  0  0  0  0  0  0  0
   62.2004   31.3084   49.3569 H   0  0  0  0  0  0  0  0  0  0  0  0
   64.6640   32.9240   46.9260 H   0  0  0  0  0  0  0  0  0  0  0  0
   60.4278   32.2008   48.9860 H   0  0  0  0  0  0  0  0  0  0  0  0
   59.6851   33.5952   48.1210 H   0  0  0  0  0  0  0  0  0  0  0  0
   57.8336   32.6036   43.3843 H   0  0  0  0  0  0  0  0  0  0  0  0
   58.5269   31.6449   42.0196 H   0  0  0  0  0  0  0  0  0  0  0  0
   55.8993   31.5884   42.6376 H   0  0  0  0  0  0  0  0  0  0  0  0
   56.7731   30.1599   41.9832 H   0  0  0  0  0  0  0  0  0  0  0  0
   55.2870   29.9712   44.1948 H   0  0  0  0  0  0  0  0  0  0  0  0
   56.8566   29.0887   44.0382 H   0  0  0  0  0  0  0  0  0  0  0  0
   58.5651   27.9969   44.8473 H   0  0  0  0  0  0  0  0  0  0  0  0
   60.9443   27.4855   48.4467 H   0  0  0  0  0  0  0  0  0  0  0  0
   60.8136   29.9553   48.8900 H   0  0  0  0  0  0  0  0  0  0  0  0
  1  2  1  0
  2  3  1  0
  3  4  1  0
  4  5  2  0
  5  6  1  0
  6  7  2  0
  7  8  1  0
  8  9  1  0
  9 10  1  0
 10 11  2  0
 10 12  1  0
 12 13  1  0
 13 14  1  0
 14 15  1  0
 15 16  1  0
 16 17  1  0
 12 18  1  0
 18 19  2  0
 19 20  1  0
 20 21  1  0
 20 22  2  0
 22 23  1  0
 23 24  2  0
  7  3  1  0
 24  9  1  0
 17 12  1  0
 24 18  1  0
  1 25  1  0
  1 26  1  0
  1 27  1  0
  2 28  1  0
  2 29  1  0
  4 30  1  0
  8 31  1  0
  8 32  1  0
 14 33  1  0
 14 34  1  0
 15 35  1  0
 15 36  1  0
 16 37  1  0
 16 38  1  0
 19 39  1  0
 22 40  1  0
 23 41  1  0
M  CHG  1   4   1
M  END
>  <UniqueID>  (11) 
10

>  <SMILES>  (11) 
CCn1[nH+]nnc1CN1C(=O)C2(OCCCO2)c2cc(F)ccc21

>  <Energy>  (11) 
109.85089625884072

>  <Genealogy>  (11) 
CCn1[nH+]nnc1CN1C(=O)C2(OCCCO2)c2cc(F)ccc21 (protonated)
CCn1[nH+]nnc1CN1C(=O)C2(OCCCO2)c2cc(F)ccc21 (3D coordinates assigned)
CCn1[nH+]nnc1CN1C(=O)C2(OCCCO2)c2cc(F)ccc21 (nonaromatic ring conformer: 109.85089625884072 kcal/mol)

>  <smiles>  (11) 
CCn1nnnc1CN1C(=O)C2(OCCCO2)c2cc(F)ccc21

>  <score_type>  (11) 
oracle

>  <origin>  (11) 
adg

>  <m_score__min__energy>  (11) 
-6.79

>  <m_primary>  (11) 
energy

$$$$
11:0
     RDKit          3D

 53 57  0  0  0  0  0  0  0  0999 V2000
   56.5850   30.9090   44.4690 O   0  0  0  0  0  0  0  0  0  0  0  0
   57.6020   30.6480   45.1710 C   0  0  0  0  0  0  0  0  0  0  0  0
   58.2840   31.6830   45.8220 C   0  0  0  0  0  0  0  0  0  0  0  0
   57.8150   33.1120   45.7280 C   0  0  0  0  0  0  0  0  0  0  0  0
   57.7980   33.7050   47.0760 N   0  0  0  0  0  0  0  0  0  0  0  0
   58.9150   34.6270   47.3680 C   0  0  0  0  0  0  0  0  0  0  0  0
   59.6370   34.2590   48.6880 C   0  0  0  0  0  0  0  0  0  0  0  0
   61.0040   33.8920   48.2500 C   0  0  0  0  0  0  0  0  0  0  0  0
   62.0290   33.3840   49.0520 C   0  0  0  0  0  0  0  0  0  0  0  0
   63.2690   33.0970   48.4610 C   0  0  0  0  0  0  0  0  0  0  0  0
   63.4680   33.3250   47.0880 C   0  0  0  0  0  0  0  0  0  0  0  0
   62.4260   33.8400   46.3000 C   0  0  0  0  0  0  0  0  0  0  0  0
   61.1970   34.1140   46.9070 C   0  0  0  0  0  0  0  0  0  0  0  0
   59.9910   34.6700   46.2500 C   0  0  0  0  0  0  0  0  0  0  0  0
   59.3850   31.3710   46.6260 C   0  0  0  0  0  0  0  0  0  0  0  0
   59.8330   30.0850   46.7650 N   0  0  0  0  0  0  0  0  0  0  0  0
   61.0260   29.8700   47.6140 C   0  0  0  0  0  0  0  0  0  0  0  0
   60.6910   30.0360   49.0770 C   0  0  0  0  0  0  0  0  0  0  0  0
   59.3510   30.0550   49.5010 C   0  0  0  0  0  0  0  0  0  0  0  0
   59.0420   30.2270   50.8540 C   0  0  0  0  0  0  0  0  0  0  0  0
   60.0650   30.3950   51.7910 C   0  0  0  0  0  0  0  0  0  0  0  0
   61.3990   30.3960   51.3750 C   0  0  0  0  0  0  0  0  0  0  0  0
   61.7130   30.2240   50.0240 C   0  0  0  0  0  0  0  0  0  0  0  0
   59.1920   29.0500   46.1110 C   0  0  0  0  0  0  0  0  0  0  0  0
   59.6310   27.7080   46.2180 C   0  0  0  0  0  0  0  0  0  0  0  0
   58.9640   26.6800   45.5510 C   0  0  0  0  0  0  0  0  0  0  0  0
   57.8500   26.9590   44.7650 C   0  0  0  0  0  0  0  0  0  0  0  0
   57.3950   28.2690   44.6390 C   0  0  0  0  0  0  0  0  0  0  0  0
   58.0550   29.3230   45.3010 C   0  0  0  0  0  0  0  0  0  0  0  0
   58.5000   33.6825   45.0835 H   0  0  0  0  0  0  0  0  0  0  0  0
   56.8029   33.1416   45.2981 H   0  0  0  0  0  0  0  0  0  0  0  0
   56.8980   34.2270   47.1960 H   0  0  0  0  0  0  0  0  0  0  0  0
   58.4373   35.6148   47.4458 H   0  0  0  0  0  0  0  0  0  0  0  0
   59.6624   35.1185   49.3740 H   0  0  0  0  0  0  0  0  0  0  0  0
   59.1339   33.4500   49.2379 H   0  0  0  0  0  0  0  0  0  0  0  0
   61.8671   33.2122   50.1264 H   0  0  0  0  0  0  0  0  0  0  0  0
   64.0879   32.6924   49.0739 H   0  0  0  0  0  0  0  0  0  0  0  0
   64.4423   33.0994   46.6299 H   0  0  0  0  0  0  0  0  0  0  0  0
   62.5741   34.0243   45.2257 H   0  0  0  0  0  0  0  0  0  0  0  0
   60.1674   35.7024   45.9139 H   0  0  0  0  0  0  0  0  0  0  0  0
   59.6965   34.1088   45.3509 H   0  0  0  0  0  0  0  0  0  0  0  0
   59.9044   32.1800   47.1605 H   0  0  0  0  0  0  0  0  0  0  0  0
   61.4072   28.8519   47.4463 H   0  0  0  0  0  0  0  0  0  0  0  0
   61.7860   30.6177   47.3433 H   0  0  0  0  0  0  0  0  0  0  0  0
   58.5420   29.9341   48.7655 H   0  0  0  0  0  0  0  0  0  0  0  0
   57.9918   30.2300   51.1812 H   0  0  0  0  0  0  0  0  0  0  0  0
   59.8203   30.5264   52.8554 H   0  0  0  0  0  0  0  0  0  0  0  0
   62.2037   30.5325   52.1124 H   0  0  0  0  0  0  0  0  0  0  0  0
   62.7642   30.2358   49.7003 H   0  0  0  0  0  0  0  0  0  0  0  0
   60.5103   27.4727   46.8357 H   0  0  0  0  0  0  0  0  0  0  0  0
   59.3205   25.6438   45.6469 H   0  0  0  0  0  0  0  0  0  0  0  0
   57.3282   26.1436   44.2426 H   0  0  0  0  0  0  0  0  0  0  0  0
   56.5129   28.4826   44.0174 H   0  0  0  0  0  0  0  0  0  0  0  0
  1  2  2  0
  2  3  1  0
  3  4  1  0
  4  5  1  0
  5  6  1  0
  6  7  1  0
  7  8  1  0
  8  9  2  0
  9 10  1  0
 10 11  2  0
 11 12  1  0
 12 13  2  0
 13 14  1  0
  3 15  2  0
 15 16  1  0
 16 17  1  0
 17 18  1  0
 18 19  2  0
 19 20  1  0
 20 21  2  0
 21 22  1  0
 22 23  2  0
 16 24  1  0
 24 25  2  0
 25 26  1  0
 26 27  2  0
 27 28  1  0
 28 29  2  0
 29  2  1  0
 14  6  1  0
 23 18  1  0
 29 24  1  0
 13  8  1  0
  4 30  1  0
  4 31  1  0
  5 32  1  0
  6 33  1  0
  7 34  1  0
  7 35  1  0
  9 36  1  0
 10 37  1  0
 11 38  1  0
 12 39  1  0
 14 40  1  0
 14 41  1  0
 15 42  1  0
 17 43  1  0
 17 44  1  0
 19 45  1  0
 20 46  1  0
 21 47  1  0
 22 48  1  0
 23 49  1  0
 25 50  1  0
 26 51  1  0
 27 52  1  0
 28 53  1  0
M  END
>  <UniqueID>  (12) 
11

>  <SMILES>  (12) 
O=c1c(CNC2Cc3ccccc3C2)cn(Cc2ccccc2)c2ccccc12

>  <Energy>  (12) 
79.92040854365621

>  <Genealogy>  (12) 
O=c1c(CNC2Cc3ccccc3C2)cn(Cc2ccccc2)c2ccccc12 (3D coordinates assigned)
O=c1c(CNC2Cc3ccccc3C2)cn(Cc2ccccc2)c2ccccc12 (nonaromatic ring conformer: 79.92040854365621 kcal/mol)

>  <smiles>  (12) 
O=c1c(CNC2Cc3ccccc3C2)cn(Cc2ccccc2)c2ccccc12

>  <score_type>  (12) 
oracle

>  <origin>  (12) 
adg

>  <m_score__min__energy>  (12) 
-9.0600000000000005

>  <m_primary>  (12) 
energy

$$$$
12:0
     RDKit          3D

 45 48  0  0  0  0  0  0  0  0999 V2000
   57.1560   32.2640   52.4550 F   0  0  0  0  0  0  0  0  0  0  0  0
   58.1750   32.4160   51.5740 C   0  0  0  0  0  0  0  0  0  0  0  0
   58.9100   33.6060   51.5530 C   0  0  0  0  0  0  0  0  0  0  0  0
   59.9530   33.7680   50.6360 C   0  0  0  0  0  0  0  0  0  0  0  0
   60.2570   32.7460   49.7230 C   0  0  0  0  0  0  0  0  0  0  0  0
   61.3790   32.9150   48.7820 C   0  0  0  0  0  0  0  0  0  0  0  0
   62.6140   32.5220   49.1920 N   0  0  0  0  0  0  0  0  0  0  0  0
   63.7070   32.6550   48.4000 C   0  0  0  0  0  0  0  0  0  0  0  0
   63.5700   33.2150   47.1350 C   0  0  0  0  0  0  0  0  0  0  0  0
   62.3460   33.6280   46.7110 N   0  0  0  0  0  0  0  0  0  0  0  0
   61.2330   33.5030   47.4960 C   0  0  0  0  0  0  0  0  0  0  0  0
   59.9010   34.0150   46.9710 C   0  0  2  0  0  0  0  0  0  0  0  0
   58.8140   32.8950   46.9780 C   0  0  0  0  0  0  0  0  0  0  0  0
   58.2780   32.6160   45.6340 N   0  0  0  0  0  0  0  0  0  0  0  0
   57.7250   31.3190   45.3310 C   0  0  0  0  0  0  0  0  0  0  0  0
   56.6620   31.2010   44.4870 N   0  0  0  0  0  0  0  0  0  0  0  0
   56.1080   29.9910   44.2200 C   0  0  0  0  0  0  0  0  0  0  0  0
   56.6230   28.8420   44.8170 C   0  0  0  0  0  0  0  0  0  0  0  0
   57.7170   28.9700   45.6790 C   0  0  0  0  0  0  0  0  0  0  0  0
   58.2960   27.7640   46.3580 C   0  0  0  0  0  0  0  0  0  0  0  0
   58.8950   28.1210   47.5540 F   0  0  0  0  0  0  0  0  0  0  0  0
   57.2890   26.8510   46.6170 F   0  0  0  0  0  0  0  0  0  0  0  0
   59.2430   27.1780   45.5390 F   0  0  0  0  0  0  0  0  0  0  0  0
   58.2410   30.2030   45.9140 N   0  0  0  0  0  0  0  0  0  0  0  0
   58.1960   33.6770   44.6230 C   0  0  0  0  0  0  0  0  0  0  0  0
   58.8750   34.9490   45.1140 C   0  0  0  0  0  0  0  0  0  0  0  0
   60.1080   34.6110   45.7030 O   0  0  0  0  0  0  0  0  0  0  0  0
   59.5400   31.5410   49.7720 C   0  0  0  0  0  0  0  0  0  0  0  0
   58.4950   31.3820   50.6880 C   0  0  0  0  0  0  0  0  0  0  0  0
   58.6673   34.4146   52.2582 H   0  0  0  0  0  0  0  0  0  0  0  0
   60.5375   34.6998   50.6300 H   0  0  0  0  0  0  0  0  0  0  0  0
   64.6934   32.3226   48.7556 H   0  0  0  0  0  0  0  0  0  0  0  0
   64.4474   33.3234   46.4804 H   0  0  0  0  0  0  0  0  0  0  0  0
   62.2770   34.0530   45.7590 H   0  0  0  0  0  0  0  0  0  0  0  0
   59.5017   34.7917   47.6398 H   0  0  0  0  0  0  0  0  0  0  0  0
   59.2612   31.9727   47.3772 H   0  0  0  0  0  0  0  0  0  0  0  0
   57.9793   33.2452   47.6031 H   0  0  0  0  0  0  0  0  0  0  0  0
   55.2526   29.9174   43.5324 H   0  0  0  0  0  0  0  0  0  0  0  0
   56.1790   27.8561   44.6148 H   0  0  0  0  0  0  0  0  0  0  0  0
   58.6921   33.3363   43.7022 H   0  0  0  0  0  0  0  0  0  0  0  0
   57.1357   33.8968   44.4293 H   0  0  0  0  0  0  0  0  0  0  0  0
   59.0452   35.6276   44.2652 H   0  0  0  0  0  0  0  0  0  0  0  0
   58.2343   35.4510   45.8540 H   0  0  0  0  0  0  0  0  0  0  0  0
   59.8003   30.7194   49.0885 H   0  0  0  0  0  0  0  0  0  0  0  0
   57.9238   30.4422   50.7117 H   0  0  0  0  0  0  0  0  0  0  0  0
  1  2  1  0
  2  3  2  0
  3  4  1  0
  4  5  2  0
  5  6  1  0
  6  7  2  0
  7  8  1  0
  8  9  2  0
  9 10  1  0
 10 11  2  0
 11 12  1  0
 12 13  1  0
 13 14  1  0
 14 15  1  0
 15 16  2  0
 16 17  1  0
 17 18  2  0
 18 19  1  0
 19 20  1  0
 20 21  1  0
 20 22  1  0
 20 23  1  0
 19 24  2  0
 14 25  1  0
 25 26  1  0
 26 27  1  0
  5 28  1  0
 28 29  2  0
 29  2  1  0
 11  6  1  0
 27 12  1  0
 24 15  1  0
  3 30  1  0
  4 31  1  0
  8 32  1  0
  9 33  1  0
 10 34  1  0
 12 35  1  1
 13 36  1  0
 13 37  1  0
 17 38  1  0
 18 39  1  0
 25 40  1  0
 25 41  1  0
 26 42  1  0
 26 43  1  0
 28 44  1  0
 29 45  1  0
M  CHG  1  10   1
M  END
>  <UniqueID>  (13) 
12

>  <SMILES>  (13) 
Fc1ccc(-c2ncc[nH+]c2[C@@H]2CN(c3nccc(C(F)(F)F)n3)CCO2)cc1

>  <Energy>  (13) 
61.79741206928341

>  <Genealogy>  (13) 
Fc1ccc(-c2ncc[nH+]c2C2CN(c3nccc(C(F)(F)F)n3)CCO2)cc1 (protonated)
Fc1ccc(-c2ncc[nH+]c2[C@@H]2CN(c3nccc(C(F)(F)F)n3)CCO2)cc1 (chirality)
Fc1ccc(-c2ncc[nH+]c2[C@@H]2CN(c3nccc(C(F)(F)F)n3)CCO2)cc1 (3D coordinates assigned)
Fc1ccc(-c2ncc[nH+]c2[C@@H]2CN(c3nccc(C(F)(F)F)n3)CCO2)cc1 (nonaromatic ring conformer: 61.79741206928341 kcal/mol)

>  <smiles>  (13) 
Fc1ccc(-c2nccnc2C2CN(c3nccc(C(F)(F)F)n3)CCO2)cc1

>  <score_type>  (13) 
oracle

>  <origin>  (13) 
adg

>  <m_score__min__energy>  (13) 
-6.1799999999999997

>  <m_primary>  (13) 
energy

$$$$
13:0
     RDKit          3D

 55 57  0  0  0  0  0  0  0  0999 V2000
   61.1030   28.6310   44.5850 C   0  0  0  0  0  0  0  0  0  0  0  0
   60.2310   29.6070   45.1510 O   0  0  0  0  0  0  0  0  0  0  0  0
   58.8810   29.7780   44.7890 C   0  0  0  0  0  0  0  0  0  0  0  0
   58.4690   30.8180   43.9340 C   0  0  0  0  0  0  0  0  0  0  0  0
   57.1180   30.9750   43.6080 C   0  0  0  0  0  0  0  0  0  0  0  0
   56.1640   30.1040   44.1320 C   0  0  0  0  0  0  0  0  0  0  0  0
   56.5590   29.0620   44.9690 C   0  0  0  0  0  0  0  0  0  0  0  0
   57.9160   28.8820   45.2970 C   0  0  0  0  0  0  0  0  0  0  0  0
   58.3180   27.7650   46.2280 C   0  0  0  0  0  0  0  0  0  0  0  0
   59.3520   28.2340   47.1530 N   0  0  0  0  0  0  0  0  0  0  0  0
   59.2320   29.4700   47.8760 C   0  0  0  0  0  0  0  0  0  0  0  0
   58.1860   30.1660   47.7670 O   0  0  0  0  0  0  0  0  0  0  0  0
   60.3180   29.9100   48.7070 N   0  0  0  0  0  0  0  0  0  0  0  0
   60.2450   31.0470   49.5870 C   0  0  0  0  0  0  0  0  0  0  0  0
   59.1770   31.6970   49.7070 O   0  0  0  0  0  0  0  0  0  0  0  0
   61.4310   31.4380   50.4320 C   0  0  0  0  0  0  0  0  0  0  0  0
   62.4610   32.1510   49.6320 N   0  0  0  0  0  0  0  0  0  0  0  0
   62.5530   31.6280   48.2340 C   0  0  0  0  0  0  0  0  0  0  0  0
   61.8770   32.5150   47.1630 C   0  0  0  0  0  0  0  0  0  0  0  0
   60.7500   33.2860   47.7160 N   0  0  0  0  0  0  0  0  0  0  0  0
   59.6100   33.6040   46.8860 C   0  0  0  0  0  0  0  0  0  0  0  0
   59.7760   34.3300   45.6890 C   0  0  0  0  0  0  0  0  0  0  0  0
   58.6790   34.6080   44.8680 C   0  0  0  0  0  0  0  0  0  0  0  0
   57.4030   34.1650   45.2310 C   0  0  0  0  0  0  0  0  0  0  0  0
   57.2230   33.4520   46.4180 C   0  0  0  0  0  0  0  0  0  0  0  0
   58.3180   33.1710   47.2440 C   0  0  0  0  0  0  0  0  0  0  0  0
   60.9280   34.0070   48.9850 C   0  0  0  0  0  0  0  0  0  0  0  0
   62.2490   33.6160   49.6630 C   0  0  0  0  0  0  0  0  0  0  0  0
   61.6015   28.0731   45.3914 H   0  0  0  0  0  0  0  0  0  0  0  0
   60.5203   27.9351   43.9635 H   0  0  0  0  0  0  0  0  0  0  0  0
   61.8599   29.1319   43.9635 H   0  0  0  0  0  0  0  0  0  0  0  0
   59.2150   31.5120   43.5194 H   0  0  0  0  0  0  0  0  0  0  0  0
   56.8072   31.7885   42.9359 H   0  0  0  0  0  0  0  0  0  0  0  0
   55.1006   30.2390   43.8851 H   0  0  0  0  0  0  0  0  0  0  0  0
   55.8037   28.3742   45.3769 H   0  0  0  0  0  0  0  0  0  0  0  0
   57.4393   27.4338   46.8009 H   0  0  0  0  0  0  0  0  0  0  0  0
   58.7146   26.9264   45.6369 H   0  0  0  0  0  0  0  0  0  0  0  0
   60.2290   27.6690   47.2520 H   0  0  0  0  0  0  0  0  0  0  0  0
   61.2160   29.3720   48.6610 H   0  0  0  0  0  0  0  0  0  0  0  0
   61.0894   32.0975   51.2434 H   0  0  0  0  0  0  0  0  0  0  0  0
   61.8833   30.5203   50.8360 H   0  0  0  0  0  0  0  0  0  0  0  0
   63.3920   31.9900   50.0910 H   0  0  0  0  0  0  0  0  0  0  0  0
   63.6175   31.5302   47.9748 H   0  0  0  0  0  0  0  0  0  0  0  0
   62.0140   30.6691   48.2265 H   0  0  0  0  0  0  0  0  0  0  0  0
   62.6229   33.2158   46.7599 H   0  0  0  0  0  0  0  0  0  0  0  0
   61.4836   31.8560   46.3750 H   0  0  0  0  0  0  0  0  0  0  0  0
   60.7773   34.6808   45.3984 H   0  0  0  0  0  0  0  0  0  0  0  0
   58.8195   35.1754   43.9362 H   0  0  0  0  0  0  0  0  0  0  0  0
   56.5413   34.3783   44.5814 H   0  0  0  0  0  0  0  0  0  0  0  0
   56.2177   33.1100   46.7051 H   0  0  0  0  0  0  0  0  0  0  0  0
   58.1687   32.6090   48.1777 H   0  0  0  0  0  0  0  0  0  0  0  0
   60.9330   35.0888   48.7858 H   0  0  0  0  0  0  0  0  0  0  0  0
   60.0986   33.7411   49.6569 H   0  0  0  0  0  0  0  0  0  0  0  0
   63.0802   34.1088   49.1375 H   0  0  0  0  0  0  0  0  0  0  0  0
   62.2059   33.9367   50.7143 H   0  0  0  0  0  0  0  0  0  0  0  0
  1  2  1  0
  2  3  1  0
  3  4  2  0
  4  5  1  0
  5  6  2  0
  6  7  1  0
  7  8  2  0
  8  9  1  0
  9 10  1  0
 10 11  1  0
 11 12  2  0
 11 13  1  0
 13 14  1  0
 14 15  2  0
 14 16  1  0
 16 17  1  0
 17 18  1  0
 18 19  1  0
 19 20  1  0
 20 21  1  0
 21 22  2  0
 22 23  1  0
 23 24  2  0
 24 25  1  0
 25 26  2  0
 20 27  1  0
 27 28  1  0
  8  3  1  0
 28 17  1  0
 26 21  1  0
  1 29  1  0
  1 30  1  0
  1 31  1  0
  4 32  1  0
  5 33  1  0
  6 34  1  0
  7 35  1  0
  9 36  1  0
  9 37  1  0
 10 38  1  0
 13 39  1  0
 16 40  1  0
 16 41  1  0
 17 42  1  0
 18 43  1  0
 18 44  1  0
 19 45  1  0
 19 46  1  0
 22 47  1  0
 23 48  1  0
 24 49  1  0
 25 50  1  0
 26 51  1  0
 27 52  1  0
 27 53  1  0
 28 54  1  0
 28 55  1  0
M  CHG  1  17   1
M  END
>  <UniqueID>  (14) 
13

>  <SMILES>  (14) 
COc1ccccc1CNC(=O)NC(=O)C[NH+]1CCN(c2ccccc2)CC1

>  <Energy>  (14) 
66.22375484402967

>  <Genealogy>  (14) 
COc1ccccc1CNC(=O)NC(=O)C[NH+]1CCN(c2ccccc2)CC1 (protonated)
COc1ccccc1CNC(=O)NC(=O)C[NH+]1CCN(c2ccccc2)CC1 (3D coordinates assigned)
COc1ccccc1CNC(=O)NC(=O)C[NH+]1CCN(c2ccccc2)CC1 (nonaromatic ring conformer: 66.22375484402967 kcal/mol)

>  <smiles>  (14) 
COc1ccccc1CNC(=O)NC(=O)CN1CCN(c2ccccc2)CC1

>  <score_type>  (14) 
oracle

>  <origin>  (14) 
adg

>  <m_score__min__energy>  (14) 
-6.7999999999999998

>  <m_primary>  (14) 
energy

$$$$
14:0
     RDKit          3D

 38 41  0  0  0  0  0  0  0  0999 V2000
   56.6630   30.4530   42.8070 C   0  0  0  0  0  0  0  0  0  0  0  0
   57.0430   29.9110   44.1070 N   0  0  0  0  0  0  0  0  0  0  0  0
   56.8240   28.6480   44.4460 N   0  0  0  0  0  0  0  0  0  0  0  0
   57.2580   28.4420   45.7040 C   0  0  0  0  0  0  0  0  0  0  0  0
   57.2160   27.1340   46.3820 C   0  0  0  0  0  0  0  0  0  0  0  0
   58.2290   26.7450   47.0190 O   0  0  0  0  0  0  0  0  0  0  0  0
   56.0540   26.2960   46.3510 N   0  0  0  0  0  0  0  0  0  0  0  0
   55.8470   25.1640   45.4920 C   0  0  0  0  0  0  0  0  0  0  0  0
   56.8740   24.7850   44.6180 C   0  0  0  0  0  0  0  0  0  0  0  0
   56.7080   23.6880   43.7650 C   0  0  0  0  0  0  0  0  0  0  0  0
   55.5080   22.9720   43.7720 C   0  0  0  0  0  0  0  0  0  0  0  0
   54.4700   23.3580   44.6240 C   0  0  0  0  0  0  0  0  0  0  0  0
   54.6330   24.4530   45.4780 C   0  0  0  0  0  0  0  0  0  0  0  0
   57.7790   29.6330   46.1830 C   0  0  0  0  0  0  0  0  0  0  0  0
   57.6550   30.5330   45.1490 C   0  0  0  0  0  0  0  0  0  0  0  0
   58.1830   31.9180   45.2830 C   0  0  0  0  0  0  0  0  0  0  0  0
   58.1970   32.8800   44.2550 C   0  0  0  0  0  0  0  0  0  0  0  0
   58.6820   34.1680   44.5010 C   0  0  0  0  0  0  0  0  0  0  0  0
   59.1600   34.5120   45.7650 C   0  0  0  0  0  0  0  0  0  0  0  0
   59.1690   33.5640   46.7900 C   0  0  0  0  0  0  0  0  0  0  0  0
   58.7010   32.2680   46.5540 C   0  0  0  0  0  0  0  0  0  0  0  0
   58.7400   31.3280   47.6000 O   0  0  0  0  0  0  0  0  0  0  0  0
   58.5960   29.9140   47.4060 C   0  0  0  0  0  0  0  0  0  0  0  0
   56.0369   31.3460   42.9508 H   0  0  0  0  0  0  0  0  0  0  0  0
   57.5682   30.7265   42.2450 H   0  0  0  0  0  0  0  0  0  0  0  0
   56.0974   29.6953   42.2450 H   0  0  0  0  0  0  0  0  0  0  0  0
   56.3800   27.9320   43.8270 H   0  0  0  0  0  0  0  0  0  0  0  0
   57.8161   25.3527   44.6021 H   0  0  0  0  0  0  0  0  0  0  0  0
   57.5225   23.3892   43.0887 H   0  0  0  0  0  0  0  0  0  0  0  0
   55.3806   22.1050   43.1071 H   0  0  0  0  0  0  0  0  0  0  0  0
   53.5225   22.7992   44.6229 H   0  0  0  0  0  0  0  0  0  0  0  0
   53.8101   24.7593   46.1405 H   0  0  0  0  0  0  0  0  0  0  0  0
   57.8247   32.6170   43.2539 H   0  0  0  0  0  0  0  0  0  0  0  0
   58.6866   34.9143   43.6929 H   0  0  0  0  0  0  0  0  0  0  0  0
   59.5300   35.5304   45.9546 H   0  0  0  0  0  0  0  0  0  0  0  0
   59.5456   33.8378   47.7866 H   0  0  0  0  0  0  0  0  0  0  0  0
   59.5917   29.4615   47.2880 H   0  0  0  0  0  0  0  0  0  0  0  0
   58.0858   29.4850   48.2810 H   0  0  0  0  0  0  0  0  0  0  0  0
  1  2  1  0
  2  3  1  0
  3  4  2  0
  4  5  1  0
  5  6  2  0
  5  7  1  0
  7  8  1  0
  8  9  2  0
  9 10  1  0
 10 11  2  0
 11 12  1  0
 12 13  2  0
  4 14  1  0
 14 15  2  0
 15 16  1  0
 16 17  2  0
 17 18  1  0
 18 19  2  0
 19 20  1  0
 20 21  2  0
 21 22  1  0
 22 23  1  0
 15  2  1  0
 21 16  1  0
 13  8  1  0
 23 14  1  0
  1 24  1  0
  1 25  1  0
  1 26  1  0
  3 27  1  0
  9 28  1  0
 10 29  1  0
 11 30  1  0
 12 31  1  0
 13 32  1  0
 17 33  1  0
 18 34  1  0
 19 35  1  0
 20 36  1  0
 23 37  1  0
 23 38  1  0
M  CHG  2   3   1   7  -1
M  END
>  <UniqueID>  (15) 
14

>  <SMILES>  (15) 
Cn1[nH+]c(C(=O)[N-]c2ccccc2)c2c1-c1ccccc1OC2

>  <Energy>  (15) 
91.55199443802546

>  <Genealogy>  (15) 
Cn1[nH+]c(C(=O)[N-]c2ccccc2)c2c1-c1ccccc1OC2 (protonated)
Cn1[nH+]c(C(=O)[N-]c2ccccc2)c2c1-c1ccccc1OC2 (3D coordinates assigned)
Cn1[nH+]c(C(=O)[N-]c2ccccc2)c2c1-c1ccccc1OC2 (nonaromatic ring conformer: 91.55199443802546 kcal/mol)

>  <smiles>  (15) 
Cn1nc(C(=O)Nc2ccccc2)c2c1-c1ccccc1OC2

>  <score_type>  (15) 
oracle

>  <origin>  (15) 
adg

>  <m_score__min__energy>  (15) 
-7.7800000000000002

>  <m_primary>  (15) 
energy

$$$$
15:0
     RDKit          3D

 42 45  0  0  0  0  0  0  0  0999 V2000
   56.4520   26.9090   45.8160 C   0  0  0  0  0  0  0  0  0  0  0  0
   57.5990   27.5760   46.4560 N   0  0  0  0  0  0  0  0  0  0  0  0
   57.7890   28.9270   46.2800 C   0  0  0  0  0  0  0  0  0  0  0  0
   56.9960   29.6080   45.5730 O   0  0  0  0  0  0  0  0  0  0  0  0
   58.8900   29.5270   46.8790 C   0  0  0  0  0  0  0  0  0  0  0  0
   59.3820   30.8260   46.8740 C   0  0  0  0  0  0  0  0  0  0  0  0
   58.7860   31.9840   46.1750 C   0  0  0  0  0  0  0  0  0  0  0  0
   58.4430   33.1400   46.8940 C   0  0  0  0  0  0  0  0  0  0  0  0
   57.8500   34.2250   46.2400 C   0  0  0  0  0  0  0  0  0  0  0  0
   57.5940   34.1600   44.8670 C   0  0  0  0  0  0  0  0  0  0  0  0
   57.9290   33.0100   44.1470 C   0  0  0  0  0  0  0  0  0  0  0  0
   58.5210   31.9230   44.7980 C   0  0  0  0  0  0  0  0  0  0  0  0
   60.5610   30.8510   47.5550 N   0  0  0  0  0  0  0  0  0  0  0  0
   61.4010   31.9900   47.8160 C   0  0  0  0  0  0  0  0  0  0  0  0
   61.9460   32.7240   46.7500 C   0  0  0  0  0  0  0  0  0  0  0  0
   62.7610   33.8330   47.0000 C   0  0  0  0  0  0  0  0  0  0  0  0
   63.0410   34.2150   48.3140 C   0  0  0  0  0  0  0  0  0  0  0  0
   62.5140   33.4830   49.3830 C   0  0  0  0  0  0  0  0  0  0  0  0
   62.8750   33.9540   51.0330 Cl  0  0  0  0  0  0  0  0  0  0  0  0
   61.7030   32.3700   49.1360 C   0  0  0  0  0  0  0  0  0  0  0  0
   60.8120   29.5910   47.9850 C   0  0  0  0  0  0  0  0  0  0  0  0
   59.7780   28.7680   47.5770 C   0  0  0  0  0  0  0  0  0  0  0  0
   59.6170   27.4270   47.7500 N   0  0  0  0  0  0  0  0  0  0  0  0
   60.6270   26.6490   48.4850 C   0  0  0  0  0  0  0  0  0  0  0  0
   58.5240   26.8260   47.1620 C   0  0  0  0  0  0  0  0  0  0  0  0
   58.3710   25.5750   47.2600 O   0  0  0  0  0  0  0  0  0  0  0  0
   55.7770   26.5165   46.5908 H   0  0  0  0  0  0  0  0  0  0  0  0
   55.9098   27.6326   45.1897 H   0  0  0  0  0  0  0  0  0  0  0  0
   56.8127   26.0798   45.1897 H   0  0  0  0  0  0  0  0  0  0  0  0
   58.6411   33.1927   47.9747 H   0  0  0  0  0  0  0  0  0  0  0  0
   57.5849   35.1300   46.8063 H   0  0  0  0  0  0  0  0  0  0  0  0
   57.1288   35.0143   44.3534 H   0  0  0  0  0  0  0  0  0  0  0  0
   57.7268   32.9598   43.0669 H   0  0  0  0  0  0  0  0  0  0  0  0
   58.7797   31.0177   44.2293 H   0  0  0  0  0  0  0  0  0  0  0  0
   61.7309   32.4254   45.7134 H   0  0  0  0  0  0  0  0  0  0  0  0
   63.1821   34.4053   46.1603 H   0  0  0  0  0  0  0  0  0  0  0  0
   63.6762   35.0918   48.5082 H   0  0  0  0  0  0  0  0  0  0  0  0
   61.2995   31.7892   49.9785 H   0  0  0  0  0  0  0  0  0  0  0  0
   61.6927   29.2747   48.5632 H   0  0  0  0  0  0  0  0  0  0  0  0
   60.4683   26.7712   49.5666 H   0  0  0  0  0  0  0  0  0  0  0  0
   60.5357   25.5856   48.2189 H   0  0  0  0  0  0  0  0  0  0  0  0
   61.6319   27.0086   48.2189 H   0  0  0  0  0  0  0  0  0  0  0  0
  1  2  1  0
  2  3  1  0
  3  4  2  0
  3  5  1  0
  5  6  2  0
  6  7  1  0
  7  8  2  0
  8  9  1  0
  9 10  2  0
 10 11  1  0
 11 12  2  0
  6 13  1  0
 13 14  1  0
 14 15  2  0
 15 16  1  0
 16 17  2  0
 17 18  1  0
 18 19  1  0
 18 20  2  0
 13 21  1  0
 21 22  2  0
 22 23  1  0
 23 24  1  0
 23 25  1  0
 25 26  2  0
 25  2  1  0
 22  5  1  0
 12  7  1  0
 20 14  1  0
  1 27  1  0
  1 28  1  0
  1 29  1  0
  8 30  1  0
  9 31  1  0
 10 32  1  0
 11 33  1  0
 12 34  1  0
 15 35  1  0
 16 36  1  0
 17 37  1  0
 20 38  1  0
 21 39  1  0
 24 40  1  0
 24 41  1  0
 24 42  1  0
M  END
>  <UniqueID>  (16) 
15

>  <SMILES>  (16) 
Cn1c(=O)c2c(-c3ccccc3)n(-c3cccc(Cl)c3)cc2n(C)c1=O

>  <Energy>  (16) 
99.72436468261992

>  <Genealogy>  (16) 
Cn1c(=O)c2c(-c3ccccc3)n(-c3cccc(Cl)c3)cc2n(C)c1=O (3D coordinates assigned)
Cn1c(=O)c2c(-c3ccccc3)n(-c3cccc(Cl)c3)cc2n(C)c1=O (optimized conformer: 99.72436468261992 kcal/mol)

>  <smiles>  (16) 
Cn1c(=O)c2c(-c3ccccc3)n(-c3cccc(Cl)c3)cc2n(C)c1=O

>  <score_type>  (16) 
oracle

>  <origin>  (16) 
adg

>  <m_score__min__energy>  (16) 
-7.5999999999999996

>  <m_primary>  (16) 
energy

$$$$
16:0
     RDKit          3D

 52 53  0  0  0  0  0  0  0  0999 V2000
   63.7080   31.9750   48.2580 C   0  0  0  0  0  0  0  0  0  0  0  0
   62.9990   32.6010   47.5100 C   0  0  0  0  0  0  0  0  0  0  0  0
   62.1720   33.3880   46.5900 C   0  0  0  0  0  0  0  0  0  0  0  0
   61.1570   34.2670   47.3360 C   0  0  0  0  0  0  0  0  0  0  0  0
   59.7330   34.0580   46.8500 C   0  0  0  0  0  0  0  0  0  0  0  0
   59.4450   34.4740   45.5350 C   0  0  0  0  0  0  0  0  0  0  0  0
   58.2120   34.2010   44.9490 C   0  0  0  0  0  0  0  0  0  0  0  0
   57.2540   33.4800   45.6510 C   0  0  0  0  0  0  0  0  0  0  0  0
   57.5080   33.0670   46.9570 C   0  0  0  0  0  0  0  0  0  0  0  0
   58.7160   33.4040   47.6090 C   0  0  0  0  0  0  0  0  0  0  0  0
   58.9280   32.9540   49.0510 C   0  0  0  0  0  0  0  0  0  0  0  0
   58.8590   31.4230   49.2910 C   0  0  0  0  0  0  0  0  0  0  0  0
   60.1890   30.7610   49.3130 N   0  0  1  0  0  0  0  0  0  0  0  0
   60.9730   31.1070   50.5180 C   0  0  0  0  0  0  0  0  0  0  0  0
   60.0930   29.2900   49.1180 C   0  0  0  0  0  0  0  0  0  0  0  0
   60.1280   28.8120   47.6470 C   0  0  0  0  0  0  0  0  0  0  0  0
   60.1350   29.9490   46.7080 N   0  0  0  0  0  0  0  0  0  0  0  0
   59.9420   29.5380   45.3090 C   0  0  0  0  0  0  0  0  0  0  0  0
   58.5430   29.8480   44.8500 C   0  0  0  0  0  0  0  0  0  0  0  0
   58.3130   30.7400   43.7920 C   0  0  0  0  0  0  0  0  0  0  0  0
   57.0050   31.0460   43.4120 C   0  0  0  0  0  0  0  0  0  0  0  0
   55.9380   30.4490   44.0860 C   0  0  0  0  0  0  0  0  0  0  0  0
   56.1750   29.5870   45.1090 N   0  0  0  0  0  0  0  0  0  0  0  0
   57.4400   29.2800   45.5060 C   0  0  0  0  0  0  0  0  0  0  0  0
   64.3548   31.4039   48.9403 H   0  0  0  0  0  0  0  0  0  0  0  0
   62.8275   34.0350   45.9885 H   0  0  0  0  0  0  0  0  0  0  0  0
   61.6113   32.6874   45.9538 H   0  0  0  0  0  0  0  0  0  0  0  0
   61.2023   34.0247   48.4080 H   0  0  0  0  0  0  0  0  0  0  0  0
   61.4228   35.3172   47.1452 H   0  0  0  0  0  0  0  0  0  0  0  0
   60.2066   35.0233   44.9622 H   0  0  0  0  0  0  0  0  0  0  0  0
   57.9963   34.5560   43.9305 H   0  0  0  0  0  0  0  0  0  0  0  0
   56.2933   33.2348   45.1747 H   0  0  0  0  0  0  0  0  0  0  0  0
   56.7551   32.4680   47.4903 H   0  0  0  0  0  0  0  0  0  0  0  0
   59.9206   33.3028   49.3722 H   0  0  0  0  0  0  0  0  0  0  0  0
   58.0972   33.3872   49.6273 H   0  0  0  0  0  0  0  0  0  0  0  0
   58.3665   31.2450   50.2584 H   0  0  0  0  0  0  0  0  0  0  0  0
   58.2988   30.9907   48.4488 H   0  0  0  0  0  0  0  0  0  0  0  0
   60.7290   31.1090   48.4880 H   0  0  0  0  0  0  0  0  0  0  0  0
   60.3942   30.8516   51.4179 H   0  0  0  0  0  0  0  0  0  0  0  0
   61.9166   30.5417   50.5163 H   0  0  0  0  0  0  0  0  0  0  0  0
   61.1914   32.1851   50.5163 H   0  0  0  0  0  0  0  0  0  0  0  0
   60.9361   28.8218   49.6471 H   0  0  0  0  0  0  0  0  0  0  0  0
   59.1077   28.9961   49.5089 H   0  0  0  0  0  0  0  0  0  0  0  0
   61.0360   28.2118   47.4880 H   0  0  0  0  0  0  0  0  0  0  0  0
   59.2244   28.2141   47.4574 H   0  0  0  0  0  0  0  0  0  0  0  0
   59.3320   30.5740   46.9540 H   0  0  0  0  0  0  0  0  0  0  0  0
   60.6585   30.0777   44.6723 H   0  0  0  0  0  0  0  0  0  0  0  0
   60.1057   28.4528   45.2342 H   0  0  0  0  0  0  0  0  0  0  0  0
   59.1618   31.1975   43.2627 H   0  0  0  0  0  0  0  0  0  0  0  0
   56.8167   31.7511   42.5890 H   0  0  0  0  0  0  0  0  0  0  0  0
   54.9039   30.6769   43.7883 H   0  0  0  0  0  0  0  0  0  0  0  0
   57.5984   28.5846   46.3435 H   0  0  0  0  0  0  0  0  0  0  0  0
  1  2  3  0
  2  3  1  0
  3  4  1  0
  4  5  1  0
  5  6  2  0
  6  7  1  0
  7  8  2  0
  8  9  1  0
  9 10  2  0
 10 11  1  0
 11 12  1  0
 12 13  1  0
 13 14  1  0
 13 15  1  0
 15 16  1  0
 16 17  1  0
 17 18  1  0
 18 19  1  0
 19 20  2  0
 20 21  1  0
 21 22  2  0
 22 23  1  0
 23 24  2  0
 10  5  1  0
 24 19  1  0
  1 25  1  0
  3 26  1  0
  3 27  1  0
  4 28  1  0
  4 29  1  0
  6 30  1  0
  7 31  1  0
  8 32  1  0
  9 33  1  0
 11 34  1  0
 11 35  1  0
 12 36  1  0
 12 37  1  0
 13 38  1  6
 14 39  1  0
 14 40  1  0
 14 41  1  0
 15 42  1  0
 15 43  1  0
 16 44  1  0
 16 45  1  0
 17 46  1  0
 18 47  1  0
 18 48  1  0
 20 49  1  0
 21 50  1  0
 22 51  1  0
 24 52  1  0
M  CHG  1  13   1
M  END
>  <UniqueID>  (17) 
16

>  <SMILES>  (17) 
C#CCCc1ccccc1CC[N@@H+](C)CCNCc1cccnc1

>  <Energy>  (17) 
58.64756806694433

>  <Genealogy>  (17) 
C#CCCc1ccccc1CC[NH+](C)CCNCc1cccnc1 (protonated)
C#CCCc1ccccc1CC[N@@H+](C)CCNCc1cccnc1 (chirality)
C#CCCc1ccccc1CC[N@@H+](C)CCNCc1cccnc1 (3D coordinates assigned)
C#CCCc1ccccc1CC[N@@H+](C)CCNCc1cccnc1 (optimized conformer: 58.64756806694433 kcal/mol)

>  <smiles>  (17) 
C#CCCc1ccccc1CCN(C)CCNCc1cccnc1

>  <score_type>  (17) 
oracle

>  <origin>  (17) 
adg

>  <m_score__min__energy>  (17) 
-5.4900000000000002

>  <m_primary>  (17) 
energy

$$$$
17:0
     RDKit          3D

 35 37  0  0  0  0  0  0  0  0999 V2000
   68.2440   33.4490   50.1700 C   0  0  0  0  0  0  0  0  0  0  0  0
   66.8440   33.5620   50.6740 C   0  0  0  0  0  0  0  0  0  0  0  0
   66.4240   34.3520   51.7280 C   0  0  0  0  0  0  0  0  0  0  0  0
   65.0580   34.1700   51.7680 C   0  0  0  0  0  0  0  0  0  0  0  0
   64.7120   33.3300   50.7740 N   0  0  0  0  0  0  0  0  0  0  0  0
   63.3640   32.8490   50.4920 C   0  0  0  0  0  0  0  0  0  0  0  0
   63.0180   33.1050   49.0550 C   0  0  0  0  0  0  0  0  0  0  0  0
   63.8940   32.9640   48.0440 N   0  0  0  0  0  0  0  0  0  0  0  0
   63.2970   33.3330   46.9230 N   0  0  0  0  0  0  0  0  0  0  0  0
   62.0440   33.7020   47.2640 C   0  0  0  0  0  0  0  0  0  0  0  0
   61.8420   33.5870   48.5970 N   0  0  0  0  0  0  0  0  0  0  0  0
   60.6360   33.9340   49.3500 C   0  0  0  0  0  0  0  0  0  0  0  0
   59.4590   33.0220   48.9680 C   0  0  0  0  0  0  0  0  0  0  0  0
   59.0800   33.0520   47.4740 C   0  0  0  0  0  0  0  0  0  0  0  0
   59.5830   34.3110   46.7450 C   0  0  0  0  0  0  0  0  0  0  0  0
   61.0430   34.2060   46.2530 C   0  0  0  0  0  0  0  0  0  0  0  0
   65.7880   32.9550   50.1000 N   0  0  0  0  0  0  0  0  0  0  0  0
   68.9371   33.3931   51.0223 H   0  0  0  0  0  0  0  0  0  0  0  0
   68.3412   32.5401   49.5581 H   0  0  0  0  0  0  0  0  0  0  0  0
   68.4857   34.3306   49.5581 H   0  0  0  0  0  0  0  0  0  0  0  0
   67.0401   34.9828   52.3856 H   0  0  0  0  0  0  0  0  0  0  0  0
   64.3680   34.6323   52.4893 H   0  0  0  0  0  0  0  0  0  0  0  0
   63.3135   31.7685   50.6919 H   0  0  0  0  0  0  0  0  0  0  0  0
   62.6486   33.3814   51.1360 H   0  0  0  0  0  0  0  0  0  0  0  0
   64.8830   32.6360   48.1090 H   0  0  0  0  0  0  0  0  0  0  0  0
   60.8406   33.8240   50.4252 H   0  0  0  0  0  0  0  0  0  0  0  0
   60.3633   34.9724   49.1106 H   0  0  0  0  0  0  0  0  0  0  0  0
   59.7262   31.9884   49.2331 H   0  0  0  0  0  0  0  0  0  0  0  0
   58.5836   33.3972   49.5184 H   0  0  0  0  0  0  0  0  0  0  0  0
   59.5153   32.1679   46.9853 H   0  0  0  0  0  0  0  0  0  0  0  0
   57.9816   33.0580   47.4159 H   0  0  0  0  0  0  0  0  0  0  0  0
   58.9356   34.4890   45.8737 H   0  0  0  0  0  0  0  0  0  0  0  0
   59.5487   35.1364   47.4713 H   0  0  0  0  0  0  0  0  0  0  0  0
   61.0602   33.5220   45.3917 H   0  0  0  0  0  0  0  0  0  0  0  0
   61.3519   35.2346   46.0150 H   0  0  0  0  0  0  0  0  0  0  0  0
  1  2  1  0
  2  3  1  0
  3  4  2  0
  4  5  1  0
  5  6  1  0
  6  7  1  0
  7  8  2  0
  8  9  1  0
  9 10  2  0
 10 11  1  0
 11 12  1  0
 12 13  1  0
 13 14  1  0
 14 15  1  0
 15 16  1  0
  5 17  1  0
 17  2  2  0
 11  7  1  0
 16 10  1  0
  1 18  1  0
  1 19  1  0
  1 20  1  0
  3 21  1  0
  4 22  1  0
  6 23  1  0
  6 24  1  0
  8 25  1  0
 12 26  1  0
 12 27  1  0
 13 28  1  0
 13 29  1  0
 14 30  1  0
 14 31  1  0
 15 32  1  0
 15 33  1  0
 16 34  1  0
 16 35  1  0
M  CHG  1   8   1
M  END
>  <UniqueID>  (18) 
17

>  <SMILES>  (18) 
Cc1ccn(Cc2[nH+]nc3n2CCCCC3)n1

>  <Energy>  (18) 
101.12514131510974

>  <Genealogy>  (18) 
Cc1ccn(Cc2[nH+]nc3n2CCCCC3)n1 (protonated)
Cc1ccn(Cc2[nH+]nc3n2CCCCC3)n1 (3D coordinates assigned)
Cc1ccn(Cc2[nH+]nc3n2CCCCC3)n1 (nonaromatic ring conformer: 101.12514131510974 kcal/mol)

>  <smiles>  (18) 
Cc1ccn(Cc2nnc3n2CCCCC3)n1

>  <score_type>  (18) 
oracle

>  <origin>  (18) 
adg

>  <m_score__min__energy>  (18) 
-3.8999999999999999

>  <m_primary>  (18) 
energy

$$$$
18:0
     RDKit          3D

 53 55  0  0  0  0  0  0  0  0999 V2000
   57.9800   22.6050   44.4150 C   0  0  0  0  0  0  0  0  0  0  0  0
   58.8610   23.4600   45.2750 C   0  0  0  0  0  0  0  0  0  0  0  0
   59.9900   23.0110   45.6190 O   0  0  0  0  0  0  0  0  0  0  0  0
   58.4330   24.7640   45.7260 N   0  0  0  0  0  0  0  0  0  0  0  0
   59.3930   25.6850   46.3520 C   0  0  0  0  0  0  0  0  0  0  0  0
   59.1690   27.1070   45.8250 C   0  0  0  0  0  0  0  0  0  0  0  0
   57.6950   27.5900   45.9700 C   0  0  0  0  0  0  0  0  0  0  0  0
   57.2050   28.2770   44.6810 C   0  0  0  0  0  0  0  0  0  0  0  0
   55.8450   28.8060   44.8720 N   0  0  0  0  0  0  0  0  0  0  0  0
   55.4620   29.7490   43.8100 C   0  0  0  0  0  0  0  0  0  0  0  0
   56.5030   30.8250   43.5940 C   0  0  0  0  0  0  0  0  0  0  0  0
   56.9950   31.0820   42.3110 C   0  0  0  0  0  0  0  0  0  0  0  0
   57.9640   32.0640   42.1170 C   0  0  0  0  0  0  0  0  0  0  0  0
   58.4620   32.7880   43.2030 C   0  0  0  0  0  0  0  0  0  0  0  0
   58.0050   32.5360   44.5180 C   0  0  0  0  0  0  0  0  0  0  0  0
   58.5390   33.2720   45.6610 N   0  0  0  0  0  0  0  0  0  0  0  0
   59.1310   34.6120   45.4510 C   0  0  0  0  0  0  0  0  0  0  0  0
   59.6860   35.2560   46.7320 C   0  0  0  0  0  0  0  0  0  0  0  0
   58.9270   34.9040   47.8660 O   0  0  0  0  0  0  0  0  0  0  0  0
   59.0840   33.5240   48.0950 C   0  0  0  0  0  0  0  0  0  0  0  0
   58.3510   32.7240   47.0210 C   0  0  0  0  0  0  0  0  0  0  0  0
   57.0090   31.5450   44.6870 C   0  0  0  0  0  0  0  0  0  0  0  0
   56.7310   26.4530   46.3870 C   0  0  0  0  0  0  0  0  0  0  0  0
   57.0140   25.1490   45.6330 C   0  0  0  0  0  0  0  0  0  0  0  0
   57.3375   21.9815   45.0540 H   0  0  0  0  0  0  0  0  0  0  0  0
   57.3525   23.2476   43.7799 H   0  0  0  0  0  0  0  0  0  0  0  0
   58.6035   21.9585   43.7799 H   0  0  0  0  0  0  0  0  0  0  0  0
   59.2518   25.6735   47.4428 H   0  0  0  0  0  0  0  0  0  0  0  0
   60.4163   25.3642   46.1069 H   0  0  0  0  0  0  0  0  0  0  0  0
   59.8190   27.7943   46.3863 H   0  0  0  0  0  0  0  0  0  0  0  0
   59.4062   27.0987   44.7509 H   0  0  0  0  0  0  0  0  0  0  0  0
   57.6884   28.3288   46.7849 H   0  0  0  0  0  0  0  0  0  0  0  0
   57.8847   29.1045   44.4295 H   0  0  0  0  0  0  0  0  0  0  0  0
   57.1919   27.5401   43.8644 H   0  0  0  0  0  0  0  0  0  0  0  0
   55.1690   28.0070   44.8800 H   0  0  0  0  0  0  0  0  0  0  0  0
   55.3308   29.1904   42.8715 H   0  0  0  0  0  0  0  0  0  0  0  0
   54.5282   30.2417   44.1185 H   0  0  0  0  0  0  0  0  0  0  0  0
   56.6162   30.5076   41.4527 H   0  0  0  0  0  0  0  0  0  0  0  0
   58.3388   32.2703   41.1036 H   0  0  0  0  0  0  0  0  0  0  0  0
   59.2210   33.5658   43.0331 H   0  0  0  0  0  0  0  0  0  0  0  0
   59.9534   34.5176   44.7266 H   0  0  0  0  0  0  0  0  0  0  0  0
   58.3227   35.2649   45.0899 H   0  0  0  0  0  0  0  0  0  0  0  0
   60.7229   34.9196   46.8792 H   0  0  0  0  0  0  0  0  0  0  0  0
   59.6377   36.3486   46.6140 H   0  0  0  0  0  0  0  0  0  0  0  0
   60.1542   33.2710   48.0694 H   0  0  0  0  0  0  0  0  0  0  0  0
   58.6620   33.2735   49.0795 H   0  0  0  0  0  0  0  0  0  0  0  0
   58.7265   31.6902   47.0370 H   0  0  0  0  0  0  0  0  0  0  0  0
   57.2763   32.7751   47.2498 H   0  0  0  0  0  0  0  0  0  0  0  0
   56.6236   31.3348   45.6956 H   0  0  0  0  0  0  0  0  0  0  0  0
   56.8442   26.2703   47.4658 H   0  0  0  0  0  0  0  0  0  0  0  0
   55.7071   26.7706   46.1403 H   0  0  0  0  0  0  0  0  0  0  0  0
   56.3977   24.3465   46.0645 H   0  0  0  0  0  0  0  0  0  0  0  0
   56.7696   25.3058   44.5720 H   0  0  0  0  0  0  0  0  0  0  0  0
  1  2  1  0
  2  3  2  0
  2  4  1  0
  4  5  1  0
  5  6  1  0
  6  7  1  0
  7  8  1  0
  8  9  1  0
  9 10  1  0
 10 11  1  0
 11 12  2  0
 12 13  1  0
 13 14  2  0
 14 15  1  0
 15 16  1  0
 16 17  1  0
 17 18  1  0
 18 19  1  0
 19 20  1  0
 20 21  1  0
 15 22  2  0
  7 23  1  0
 23 24  1  0
 24  4  1  0
 22 11  1  0
 21 16  1  0
  1 25  1  0
  1 26  1  0
  1 27  1  0
  5 28  1  0
  5 29  1  0
  6 30  1  0
  6 31  1  0
  7 32  1  0
  8 33  1  0
  8 34  1  0
  9 35  1  0
 10 36  1  0
 10 37  1  0
 12 38  1  0
 13 39  1  0
 14 40  1  0
 17 41  1  0
 17 42  1  0
 18 43  1  0
 18 44  1  0
 20 45  1  0
 20 46  1  0
 21 47  1  0
 21 48  1  0
 22 49  1  0
 23 50  1  0
 23 51  1  0
 24 52  1  0
 24 53  1  0
M  END
>  <UniqueID>  (19) 
18

>  <SMILES>  (19) 
CC(=O)N1CCC(CNCc2cccc(N3CCOCC3)c2)CC1

>  <Energy>  (19) 
60.096035673698786

>  <Genealogy>  (19) 
CC(=O)N1CCC(CNCc2cccc(N3CCOCC3)c2)CC1 (3D coordinates assigned)
CC(=O)N1CCC(CNCc2cccc(N3CCOCC3)c2)CC1 (nonaromatic ring conformer: 60.096035673698786 kcal/mol)

>  <smiles>  (19) 
CC(=O)N1CCC(CNCc2cccc(N3CCOCC3)c2)CC1

>  <score_type>  (19) 
oracle

>  <origin>  (19) 
adg

>  <m_score__min__energy>  (19) 
-8.5800000000000001

>  <m_primary>  (19) 
energy

$$$$
19:0
     RDKit          3D

 34 35  0  0  0  0  0  0  0  0999 V2000
   56.5010   29.7220   42.8930 C   0  0  0  0  0  0  0  0  0  0  0  0
   55.9720   30.4530   44.1260 C   0  0  0  0  0  0  0  0  0  0  0  0
   57.0630   31.1220   44.8710 N   0  0  0  0  0  0  0  0  0  0  0  0
   56.9850   32.6080   44.8540 C   0  0  0  0  0  0  0  0  0  0  0  0
   57.9720   33.3010   45.7720 C   0  0  0  0  0  0  0  0  0  0  0  0
   58.8260   34.3040   45.2870 C   0  0  0  0  0  0  0  0  0  0  0  0
   59.7190   34.9430   46.1490 C   0  0  0  0  0  0  0  0  0  0  0  0
   59.7410   34.5850   47.4970 C   0  0  0  0  0  0  0  0  0  0  0  0
   58.8930   33.6310   47.9620 N   0  0  0  0  0  0  0  0  0  0  0  0
   58.0170   32.9920   47.1420 C   0  0  0  0  0  0  0  0  0  0  0  0
   58.3880   30.6030   44.4620 C   0  0  0  0  0  0  0  0  0  0  0  0
   58.9060   29.5760   45.4380 C   0  0  0  0  0  0  0  0  0  0  0  0
   59.8320   28.6040   45.0290 C   0  0  0  0  0  0  0  0  0  0  0  0
   60.3230   27.6760   45.9480 C   0  0  0  0  0  0  0  0  0  0  0  0
   59.8970   27.7380   47.2760 C   0  0  0  0  0  0  0  0  0  0  0  0
   59.0190   28.6990   47.6650 N   0  0  0  0  0  0  0  0  0  0  0  0
   58.5240   29.6130   46.7880 C   0  0  0  0  0  0  0  0  0  0  0  0
   57.1186   28.8686   43.2096 H   0  0  0  0  0  0  0  0  0  0  0  0
   55.6550   29.3590   42.2909 H   0  0  0  0  0  0  0  0  0  0  0  0
   57.1102   30.4121   42.2909 H   0  0  0  0  0  0  0  0  0  0  0  0
   55.2411   31.2103   43.8062 H   0  0  0  0  0  0  0  0  0  0  0  0
   55.5038   29.7126   44.7913 H   0  0  0  0  0  0  0  0  0  0  0  0
   57.1741   32.9500   43.8257 H   0  0  0  0  0  0  0  0  0  0  0  0
   55.9812   32.8722   45.2182 H   0  0  0  0  0  0  0  0  0  0  0  0
   58.7914   34.5873   44.2247 H   0  0  0  0  0  0  0  0  0  0  0  0
   60.3981   35.7206   45.7692 H   0  0  0  0  0  0  0  0  0  0  0  0
   60.4458   35.0757   48.1843 H   0  0  0  0  0  0  0  0  0  0  0  0
   57.3398   32.2289   47.5532 H   0  0  0  0  0  0  0  0  0  0  0  0
   58.2988   30.1388   43.4688 H   0  0  0  0  0  0  0  0  0  0  0  0
   59.0958   31.4447   44.4393 H   0  0  0  0  0  0  0  0  0  0  0  0
   60.1710   28.5737   43.9830 H   0  0  0  0  0  0  0  0  0  0  0  0
   61.0384   26.9035   45.6294 H   0  0  0  0  0  0  0  0  0  0  0  0
   60.2726   27.0080   48.0082 H   0  0  0  0  0  0  0  0  0  0  0  0
   57.8218   30.3840   47.1380 H   0  0  0  0  0  0  0  0  0  0  0  0
  1  2  1  0
  2  3  1  0
  3  4  1  0
  4  5  1  0
  5  6  2  0
  6  7  1  0
  7  8  2  0
  8  9  1  0
  9 10  2  0
  3 11  1  0
 11 12  1  0
 12 13  2  0
 13 14  1  0
 14 15  2  0
 15 16  1  0
 16 17  2  0
 10  5  1  0
 17 12  1  0
  1 18  1  0
  1 19  1  0
  1 20  1  0
  2 21  1  0
  2 22  1  0
  4 23  1  0
  4 24  1  0
  6 25  1  0
  7 26  1  0
  8 27  1  0
 10 28  1  0
 11 29  1  0
 11 30  1  0
 13 31  1  0
 14 32  1  0
 15 33  1  0
 17 34  1  0
M  END
>  <UniqueID>  (20) 
19

>  <SMILES>  (20) 
CCN(Cc1cccnc1)Cc1cccnc1

>  <Energy>  (20) 
39.45293689825013

>  <Genealogy>  (20) 
CCN(Cc1cccnc1)Cc1cccnc1 (3D coordinates assigned)
CCN(Cc1cccnc1)Cc1cccnc1 (optimized conformer: 39.45293689825013 kcal/mol)

>  <smiles>  (20) 
CCN(Cc1cccnc1)Cc1cccnc1

>  <score_type>  (20) 
oracle

>  <origin>  (20) 
adg

>  <m_score__min__energy>  (20) 
-5.9400000000000004

>  <m_primary>  (20) 
energy

$$$$
20:0
     RDKit          3D

 46 48  0  0  0  0  0  0  0  0999 V2000
   64.8670   32.3730   49.7710 C   0  0  0  0  0  0  0  0  0  0  0  0
   63.8310   32.5590   48.7020 C   0  0  0  0  0  0  0  0  0  0  0  0
   63.7640   33.7620   47.9860 C   0  0  0  0  0  0  0  0  0  0  0  0
   62.7770   33.9500   47.0180 C   0  0  0  0  0  0  0  0  0  0  0  0
   61.8390   32.9450   46.7660 C   0  0  0  0  0  0  0  0  0  0  0  0
   61.8750   31.7370   47.4890 C   0  0  0  0  0  0  0  0  0  0  0  0
   60.9070   30.6960   47.2340 N   0  0  0  0  0  0  0  0  0  0  0  0
   61.1340   29.7090   46.1710 C   0  0  0  0  0  0  0  0  0  0  0  0
   59.7970   29.2880   45.5330 C   0  0  0  0  0  0  0  0  0  0  0  0
   58.7290   28.9530   46.5250 N   0  0  0  0  0  0  0  0  0  0  0  0
   58.1250   27.6150   46.2950 C   0  0  0  0  0  0  0  0  0  0  0  0
   56.6870   27.6390   45.8050 C   0  0  0  0  0  0  0  0  0  0  0  0
   56.0750   26.5600   45.5880 O   0  0  0  0  0  0  0  0  0  0  0  0
   56.0550   28.8650   45.4120 N   0  0  0  0  0  0  0  0  0  0  0  0
   56.5330   29.7700   44.4110 C   0  0  0  0  0  0  0  0  0  0  0  0
   56.2090   29.5340   43.0680 C   0  0  0  0  0  0  0  0  0  0  0  0
   56.6410   30.4150   42.0730 C   0  0  0  0  0  0  0  0  0  0  0  0
   57.3820   31.5510   42.4150 C   0  0  0  0  0  0  0  0  0  0  0  0
   57.9210   32.6590   41.1670 Cl  0  0  0  0  0  0  0  0  0  0  0  0
   57.6800   31.8100   43.7580 C   0  0  0  0  0  0  0  0  0  0  0  0
   57.2490   30.9300   44.7550 C   0  0  0  0  0  0  0  0  0  0  0  0
   57.4920   31.2290   46.0550 F   0  0  0  0  0  0  0  0  0  0  0  0
   59.1160   29.1470   47.9420 C   0  0  0  0  0  0  0  0  0  0  0  0
   59.7710   30.5180   48.1460 C   0  0  0  0  0  0  0  0  0  0  0  0
   62.8780   31.5570   48.4610 C   0  0  0  0  0  0  0  0  0  0  0  0
   64.3928   32.4581   50.7599 H   0  0  0  0  0  0  0  0  0  0  0  0
   65.3252   31.3782   49.6685 H   0  0  0  0  0  0  0  0  0  0  0  0
   65.6426   33.1463   49.6685 H   0  0  0  0  0  0  0  0  0  0  0  0
   64.4925   34.5611   48.1880 H   0  0  0  0  0  0  0  0  0  0  0  0
   62.7370   34.8920   46.4514 H   0  0  0  0  0  0  0  0  0  0  0  0
   61.0671   33.0987   45.9975 H   0  0  0  0  0  0  0  0  0  0  0  0
   61.7807   30.1508   45.3986 H   0  0  0  0  0  0  0  0  0  0  0  0
   61.6162   28.8213   46.6062 H   0  0  0  0  0  0  0  0  0  0  0  0
   59.4378   30.1160   44.9042 H   0  0  0  0  0  0  0  0  0  0  0  0
   59.9939   28.3726   44.9557 H   0  0  0  0  0  0  0  0  0  0  0  0
   57.9490   29.6340   46.3540 H   0  0  0  0  0  0  0  0  0  0  0  0
   58.7334   27.0898   45.5440 H   0  0  0  0  0  0  0  0  0  0  0  0
   58.1099   27.1107   47.2725 H   0  0  0  0  0  0  0  0  0  0  0  0
   55.6119   28.6512   42.7959 H   0  0  0  0  0  0  0  0  0  0  0  0
   56.3979   30.2148   41.0190 H   0  0  0  0  0  0  0  0  0  0  0  0
   58.2546   32.7079   44.0294 H   0  0  0  0  0  0  0  0  0  0  0  0
   58.2178   29.0791   48.5734 H   0  0  0  0  0  0  0  0  0  0  0  0
   59.8397   28.3664   48.2193 H   0  0  0  0  0  0  0  0  0  0  0  0
   59.0271   31.3050   47.9527 H   0  0  0  0  0  0  0  0  0  0  0  0
   60.1376   30.5821   49.1811 H   0  0  0  0  0  0  0  0  0  0  0  0
   62.9150   30.6210   49.0376 H   0  0  0  0  0  0  0  0  0  0  0  0
  1  2  1  0
  2  3  2  0
  3  4  1  0
  4  5  2  0
  5  6  1  0
  6  7  1  0
  7  8  1  0
  8  9  1  0
  9 10  1  0
 10 11  1  0
 11 12  1  0
 12 13  2  0
 12 14  1  0
 14 15  1  0
 15 16  2  0
 16 17  1  0
 17 18  2  0
 18 19  1  0
 18 20  1  0
 20 21  2  0
 21 22  1  0
 10 23  1  0
 23 24  1  0
  6 25  2  0
 25  2  1  0
 24  7  1  0
 21 15  1  0
  1 26  1  0
  1 27  1  0
  1 28  1  0
  3 29  1  0
  4 30  1  0
  5 31  1  0
  8 32  1  0
  8 33  1  0
  9 34  1  0
  9 35  1  0
 10 36  1  0
 11 37  1  0
 11 38  1  0
 16 39  1  0
 17 40  1  0
 20 41  1  0
 23 42  1  0
 23 43  1  0
 24 44  1  0
 24 45  1  0
 25 46  1  0
M  CHG  2  10   1  14  -1
M  END
>  <UniqueID>  (21) 
20

>  <SMILES>  (21) 
Cc1cccc(N2CC[NH+](CC(=O)[N-]c3ccc(Cl)cc3F)CC2)c1

>  <Energy>  (21) 
67.56168591491496

>  <Genealogy>  (21) 
Cc1cccc(N2CC[NH+](CC(=O)[N-]c3ccc(Cl)cc3F)CC2)c1 (protonated)
Cc1cccc(N2CC[NH+](CC(=O)[N-]c3ccc(Cl)cc3F)CC2)c1 (3D coordinates assigned)
Cc1cccc(N2CC[NH+](CC(=O)[N-]c3ccc(Cl)cc3F)CC2)c1 (nonaromatic ring conformer: 67.56168591491496 kcal/mol)

>  <smiles>  (21) 
Cc1cccc(N2CCN(CC(=O)Nc3ccc(Cl)cc3F)CC2)c1

>  <score_type>  (21) 
oracle

>  <origin>  (21) 
adg

>  <m_score__min__energy>  (21) 
-8.2599999999999998

>  <m_primary>  (21) 
energy

$$$$
21:0
     RDKit          3D

 59 62  0  0  0  0  0  0  0  0999 V2000
   59.1560   29.6430   50.3000 C   0  0  0  0  0  0  0  0  0  0  0  0
   59.1150   30.9250   49.5280 C   0  0  0  0  0  0  0  0  0  0  0  0
   58.5390   31.0530   48.3090 N   0  0  0  0  0  0  0  0  0  0  0  0
   58.7970   32.3250   47.9370 C   0  0  0  0  0  0  0  0  0  0  0  0
   58.4480   32.9210   46.7250 C   0  0  0  0  0  0  0  0  0  0  0  0
   57.6820   32.2020   45.8020 O   0  0  0  0  0  0  0  0  0  0  0  0
   57.6880   32.4220   44.3900 C   0  0  0  0  0  0  0  0  0  0  0  0
   58.0390   31.1230   43.6380 C   0  0  0  0  0  0  0  0  0  0  0  0
   58.8530   30.1260   44.5160 C   0  0  0  0  0  0  0  0  0  0  0  0
   58.1240   28.7980   44.7840 C   0  0  0  0  0  0  0  0  0  0  0  0
   56.6460   29.0250   45.1350 C   0  0  0  0  0  0  0  0  0  0  0  0
   55.8730   29.7780   44.0270 C   0  0  0  0  0  0  0  0  0  0  0  0
   56.7830   30.4780   42.9990 C   0  0  0  0  0  0  0  0  0  0  0  0
   58.8610   34.2560   46.5140 C   0  0  0  0  0  0  0  0  0  0  0  0
   59.5710   34.9470   47.5170 C   0  0  0  0  0  0  0  0  0  0  0  0
   59.8890   34.2970   48.7160 C   0  0  0  0  0  0  0  0  0  0  0  0
   59.4990   33.0030   48.8660 N   0  0  0  0  0  0  0  0  0  0  0  0
   59.6920   32.1400   49.8790 C   0  0  0  0  0  0  0  0  0  0  0  0
   60.4560   32.4180   51.0640 N   0  0  0  0  0  0  0  0  0  0  0  0
   60.0280   33.5110   51.9390 C   0  0  0  0  0  0  0  0  0  0  0  0
   61.6550   31.6790   51.3730 C   0  0  0  0  0  0  0  0  0  0  0  0
   61.5700   30.6120   52.0420 O   0  0  0  0  0  0  0  0  0  0  0  0
   63.0180   32.1460   50.9280 C   0  0  0  0  0  0  0  0  0  0  0  0
   63.0240   32.5350   49.4720 C   0  0  0  0  0  0  0  0  0  0  0  0
   63.3930   33.8370   49.0860 C   0  0  0  0  0  0  0  0  0  0  0  0
   63.3940   34.2030   47.7360 C   0  0  0  0  0  0  0  0  0  0  0  0
   63.0250   33.2730   46.7610 C   0  0  0  0  0  0  0  0  0  0  0  0
   62.6520   31.9770   47.1340 C   0  0  0  0  0  0  0  0  0  0  0  0
   62.6450   31.6120   48.4840 C   0  0  0  0  0  0  0  0  0  0  0  0
   59.1489   29.8635   51.3776 H   0  0  0  0  0  0  0  0  0  0  0  0
   58.2769   29.0330   50.0448 H   0  0  0  0  0  0  0  0  0  0  0  0
   60.0723   29.0904   50.0448 H   0  0  0  0  0  0  0  0  0  0  0  0
   58.0410   30.3140   47.7630 H   0  0  0  0  0  0  0  0  0  0  0  0
   56.6917   32.7645   44.0736 H   0  0  0  0  0  0  0  0  0  0  0  0
   58.4460   33.1834   44.1538 H   0  0  0  0  0  0  0  0  0  0  0  0
   58.7076   31.3996   42.8095 H   0  0  0  0  0  0  0  0  0  0  0  0
   59.8000   29.9044   44.0021 H   0  0  0  0  0  0  0  0  0  0  0  0
   59.0072   30.6099   45.4917 H   0  0  0  0  0  0  0  0  0  0  0  0
   58.1845   28.1695   43.8833 H   0  0  0  0  0  0  0  0  0  0  0  0
   58.6092   28.3059   45.6398 H   0  0  0  0  0  0  0  0  0  0  0  0
   56.1686   28.0467   45.2932 H   0  0  0  0  0  0  0  0  0  0  0  0
   56.6138   29.6476   46.0413 H   0  0  0  0  0  0  0  0  0  0  0  0
   55.2395   29.0543   43.4932 H   0  0  0  0  0  0  0  0  0  0  0  0
   55.2868   30.5650   44.5239 H   0  0  0  0  0  0  0  0  0  0  0  0
   57.1103   29.7342   42.2576 H   0  0  0  0  0  0  0  0  0  0  0  0
   56.1966   31.2874   42.5396 H   0  0  0  0  0  0  0  0  0  0  0  0
   58.6276   34.7579   45.5634 H   0  0  0  0  0  0  0  0  0  0  0  0
   59.8740   35.9925   47.3584 H   0  0  0  0  0  0  0  0  0  0  0  0
   60.4386   34.8183   49.5136 H   0  0  0  0  0  0  0  0  0  0  0  0
   60.1468   33.2076   52.9896 H   0  0  0  0  0  0  0  0  0  0  0  0
   60.6441   34.4008   51.7424 H   0  0  0  0  0  0  0  0  0  0  0  0
   58.9715   33.7458   51.7424 H   0  0  0  0  0  0  0  0  0  0  0  0
   63.3111   33.0177   51.5315 H   0  0  0  0  0  0  0  0  0  0  0  0
   63.7272   31.3164   51.0651 H   0  0  0  0  0  0  0  0  0  0  0  0
   63.6827   34.5721   49.8513 H   0  0  0  0  0  0  0  0  0  0  0  0
   63.6851   35.2223   47.4423 H   0  0  0  0  0  0  0  0  0  0  0  0
   63.0277   33.5598   45.6991 H   0  0  0  0  0  0  0  0  0  0  0  0
   62.3642   31.2450   46.3651 H   0  0  0  0  0  0  0  0  0  0  0  0
   62.3407   30.5954   48.7737 H   0  0  0  0  0  0  0  0  0  0  0  0
  1  2  1  0
  2  3  1  0
  3  4  2  0
  4  5  1  0
  5  6  1  0
  6  7  1  0
  7  8  1  0
  8  9  1  0
  9 10  1  0
 10 11  1  0
 11 12  1  0
 12 13  1  0
  5 14  2  0
 14 15  1  0
 15 16  2  0
 16 17  1  0
 17 18  1  0
 18 19  1  0
 19 20  1  0
 19 21  1  0
 21 22  2  0
 21 23  1  0
 23 24  1  0
 24 25  2  0
 25 26  1  0
 26 27  2  0
 27 28  1  0
 28 29  2  0
 18  2  2  0
 29 24  1  0
 17  4  1  0
 13  8  1  0
  1 30  1  0
  1 31  1  0
  1 32  1  0
  3 33  1  0
  7 34  1  0
  7 35  1  0
  8 36  1  0
  9 37  1  0
  9 38  1  0
 10 39  1  0
 10 40  1  0
 11 41  1  0
 11 42  1  0
 12 43  1  0
 12 44  1  0
 13 45  1  0
 13 46  1  0
 14 47  1  0
 15 48  1  0
 16 49  1  0
 20 50  1  0
 20 51  1  0
 20 52  1  0
 23 53  1  0
 23 54  1  0
 25 55  1  0
 26 56  1  0
 27 57  1  0
 28 58  1  0
 29 59  1  0
M  CHG  1   3   1
M  END
>  <UniqueID>  (22) 
21

>  <SMILES>  (22) 
Cc1[nH+]c2c(OCC3CCCCC3)cccn2c1N(C)C(=O)Cc1ccccc1

>  <Energy>  (22) 
103.03675879299121

>  <Genealogy>  (22) 
Cc1[nH+]c2c(OCC3CCCCC3)cccn2c1N(C)C(=O)Cc1ccccc1 (protonated)
Cc1[nH+]c2c(OCC3CCCCC3)cccn2c1N(C)C(=O)Cc1ccccc1 (3D coordinates assigned)
Cc1[nH+]c2c(OCC3CCCCC3)cccn2c1N(C)C(=O)Cc1ccccc1 (nonaromatic ring conformer: 103.03675879299121 kcal/mol)

>  <smiles>  (22) 
Cc1nc2c(OCC3CCCCC3)cccn2c1N(C)C(=O)Cc1ccccc1

>  <score_type>  (22) 
oracle

>  <origin>  (22) 
adg

>  <m_score__min__energy>  (22) 
-7.5300000000000002

>  <m_primary>  (22) 
energy

$$$$
22:0
     RDKit          3D

 56 57  0  0  0  0  0  0  0  0999 V2000
   57.3240   34.1990   45.5450 C   0  0  0  0  0  0  0  0  0  0  0  0
   58.4340   33.9810   46.5740 C   0  0  0  0  0  0  0  0  0  0  0  0
   59.8370   34.1850   45.9840 C   0  0  0  0  0  0  0  0  0  0  0  0
   60.9280   34.2290   47.0670 C   0  0  0  0  0  0  0  0  0  0  0  0
   62.3090   33.8230   46.5260 C   0  0  0  0  0  0  0  0  0  0  0  0
   63.2780   33.4020   47.6470 C   0  0  0  0  0  0  0  0  0  0  0  0
   63.2130   31.8880   47.9370 C   0  0  0  0  0  0  0  0  0  0  0  0
   61.8040   31.2920   47.7790 C   0  0  0  0  0  0  0  0  0  0  0  0
   61.3930   30.4700   48.9750 C   0  0  0  0  0  0  0  0  0  0  0  0
   60.8900   29.2270   48.9170 C   0  0  0  0  0  0  0  0  0  0  0  0
   59.8140   28.8010   48.0000 C   0  0  0  0  0  0  0  0  0  0  0  0
   59.1670   29.7500   47.2100 C   0  0  0  0  0  0  0  0  0  0  0  0
   58.1620   29.3970   46.3420 N   0  0  0  0  0  0  0  0  0  0  0  0
   57.4700   30.4690   45.5710 C   0  0  1  0  0  0  0  0  0  0  0  0
   58.3900   31.1670   44.5670 C   0  0  0  0  0  0  0  0  0  0  0  0
   57.4350   31.5970   43.4960 C   0  0  1  0  0  0  0  0  0  0  0  0
   58.0850   31.7120   42.1910 N   0  0  0  0  0  0  0  0  0  0  0  0
   57.5460   32.3290   41.2700 N   0  0  0  0  0  0  0  0  0  0  0  0
   57.0110   32.9440   40.3490 N   0  0  0  0  0  0  0  0  0  0  0  0
   56.3730   30.4970   43.5490 C   0  0  1  0  0  0  0  0  0  0  0  0
   56.6130   29.3480   42.5560 C   0  0  0  0  0  0  0  0  0  0  0  0
   57.3780   28.3450   43.1680 O   0  0  0  0  0  0  0  0  0  0  0  0
   56.3500   29.9710   44.8590 O   0  0  0  0  0  0  0  0  0  0  0  0
   57.7200   28.0920   46.3460 C   0  0  0  0  0  0  0  0  0  0  0  0
   56.7380   27.7290   45.6460 O   0  0  0  0  0  0  0  0  0  0  0  0
   58.3230   27.1650   47.1350 N   0  0  0  0  0  0  0  0  0  0  0  0
   59.3530   27.4830   47.9530 C   0  0  0  0  0  0  0  0  0  0  0  0
   59.8610   26.5920   48.6830 O   0  0  0  0  0  0  0  0  0  0  0  0
   56.3731   34.3858   46.0654 H   0  0  0  0  0  0  0  0  0  0  0  0
   57.5733   35.0653   44.9147 H   0  0  0  0  0  0  0  0  0  0  0  0
   57.2271   33.3027   44.9147 H   0  0  0  0  0  0  0  0  0  0  0  0
   58.2927   34.6932   47.4004 H   0  0  0  0  0  0  0  0  0  0  0  0
   58.3670   32.9388   46.9194 H   0  0  0  0  0  0  0  0  0  0  0  0
   60.0552   33.3546   45.2964 H   0  0  0  0  0  0  0  0  0  0  0  0
   59.8436   35.1532   45.4619 H   0  0  0  0  0  0  0  0  0  0  0  0
   60.9911   35.2532   47.4632 H   0  0  0  0  0  0  0  0  0  0  0  0
   60.6507   33.5093   47.8513 H   0  0  0  0  0  0  0  0  0  0  0  0
   62.1825   32.9784   45.8327 H   0  0  0  0  0  0  0  0  0  0  0  0
   62.7417   34.6985   46.0198 H   0  0  0  0  0  0  0  0  0  0  0  0
   64.3034   33.6608   47.3443 H   0  0  0  0  0  0  0  0  0  0  0  0
   62.9843   33.9339   48.5640 H   0  0  0  0  0  0  0  0  0  0  0  0
   63.8896   31.3710   47.2407 H   0  0  0  0  0  0  0  0  0  0  0  0
   63.5074   31.7473   48.9875 H   0  0  0  0  0  0  0  0  0  0  0  0
   61.0845   32.1141   47.6506 H   0  0  0  0  0  0  0  0  0  0  0  0
   61.8158   30.6279   46.9021 H   0  0  0  0  0  0  0  0  0  0  0  0
   61.5147   30.9234   49.9698 H   0  0  0  0  0  0  0  0  0  0  0  0
   61.3085   28.4732   49.6001 H   0  0  0  0  0  0  0  0  0  0  0  0
   59.4679   30.8055   47.2832 H   0  0  0  0  0  0  0  0  0  0  0  0
   57.1443   31.1958   46.3297 H   0  0  0  0  0  0  0  0  0  0  0  0
   58.8918   32.0331   45.0232 H   0  0  0  0  0  0  0  0  0  0  0  0
   59.2029   30.5247   44.1973 H   0  0  0  0  0  0  0  0  0  0  0  0
   57.0148   32.6018   43.6506 H   0  0  0  0  0  0  0  0  0  0  0  0
   55.4152   30.9574   43.2649 H   0  0  0  0  0  0  0  0  0  0  0  0
   55.6458   28.9291   42.2412 H   0  0  0  0  0  0  0  0  0  0  0  0
   57.1529   29.7327   41.6782 H   0  0  0  0  0  0  0  0  0  0  0  0
   56.8600   28.0530   43.9640 H   0  0  0  0  0  0  0  0  0  0  0  0
  1  2  1  0
  2  3  1  0
  3  4  1  0
  4  5  1  0
  5  6  1  0
  6  7  1  0
  7  8  1  0
  8  9  1  0
  9 10  2  3
 10 11  1  0
 11 12  2  0
 12 13  1  0
 13 14  1  0
 14 15  1  0
 15 16  1  0
 16 17  1  0
 17 18  2  0
 18 19  2  0
 16 20  1  0
 20 21  1  0
 21 22  1  0
 20 23  1  0
 13 24  1  0
 24 25  2  0
 24 26  1  0
 26 27  1  0
 27 28  2  0
 27 11  1  0
 23 14  1  0
  1 29  1  0
  1 30  1  0
  1 31  1  0
  2 32  1  0
  2 33  1  0
  3 34  1  0
  3 35  1  0
  4 36  1  0
  4 37  1  0
  5 38  1  0
  5 39  1  0
  6 40  1  0
  6 41  1  0
  7 42  1  0
  7 43  1  0
  8 44  1  0
  8 45  1  0
  9 46  1  0
 10 47  1  0
 12 48  1  0
 14 49  1  1
 15 50  1  0
 15 51  1  0
 16 52  1  1
 20 53  1  6
 21 54  1  0
 21 55  1  0
 22 56  1  0
M  CHG  3  18   1  19  -1  26  -1
M  END
>  <UniqueID>  (23) 
22

>  <SMILES>  (23) 
CCCCCCCCC=Cc1cn([C@H]2C[C@@H](N=[N+]=[N-])C(CO)O2)c(=O)[n-]c1=O

>  <Energy>  (23) 
60.16759775548585

>  <Genealogy>  (23) 
CCCCCCCCC=Cc1cn(C2CC(N=[N+]=[N-])C(CO)O2)c(=O)[n-]c1=O (protonated)
CCCCCCCCC=Cc1cn([C@H]2C[C@@H](N=[N+]=[N-])C(CO)O2)c(=O)[n-]c1=O (chirality)
CCCCCCCCC=Cc1cn([C@H]2C[C@@H](N=[N+]=[N-])C(CO)O2)c(=O)[n-]c1=O (3D coordinates assigned)
CCCCCCCCC=Cc1cn([C@H]2C[C@@H](N=[N+]=[N-])C(CO)O2)c(=O)[n-]c1=O (nonaromatic ring conformer: 60.16759775548585 kcal/mol)

>  <smiles>  (23) 
CCCCCCCCC=Cc1cn(C2CC(N=[N+]=[N-])C(CO)O2)c(=O)[nH]c1=O

>  <score_type>  (23) 
oracle

>  <origin>  (23) 
adg

>  <m_score__min__energy>  (23) 
-9.3900000000000006

>  <m_primary>  (23) 
energy

$$$$
23:0
     RDKit          3D

 50 53  0  0  0  0  0  0  0  0999 V2000
   63.7610   33.8460   47.7490 C   0  0  0  0  0  0  0  0  0  0  0  0
   63.0190   33.6270   49.0370 C   0  0  0  0  0  0  0  0  0  0  0  0
   63.5810   33.6180   50.3060 C   0  0  0  0  0  0  0  0  0  0  0  0
   65.0350   33.7880   50.6720 C   0  0  0  0  0  0  0  0  0  0  0  0
   65.8920   32.7670   50.0170 N   0  0  0  0  0  0  0  0  0  0  0  0
   65.6210   31.3920   50.5140 C   0  0  0  0  0  0  0  0  0  0  0  0
   66.5360   30.9930   51.6900 C   0  0  0  0  0  0  0  0  0  0  0  0
   66.9490   32.1340   52.4100 O   0  0  0  0  0  0  0  0  0  0  0  0
   67.8190   32.9220   51.6160 C   0  0  0  0  0  0  0  0  0  0  0  0
   67.3270   33.1010   50.1590 C   0  0  0  0  0  0  0  0  0  0  0  0
   62.5520   33.3930   51.1990 C   0  0  0  0  0  0  0  0  0  0  0  0
   61.4010   33.2550   50.4450 C   0  0  0  0  0  0  0  0  0  0  0  0
   60.0650   32.9530   51.0100 C   0  0  0  0  0  0  0  0  0  0  0  0
   59.4000   31.7700   50.6460 C   0  0  0  0  0  0  0  0  0  0  0  0
   58.1370   31.4790   51.1720 C   0  0  0  0  0  0  0  0  0  0  0  0
   57.5240   32.3710   52.0560 C   0  0  0  0  0  0  0  0  0  0  0  0
   56.2990   32.0890   52.5650 F   0  0  0  0  0  0  0  0  0  0  0  0
   58.1700   33.5580   52.4100 C   0  0  0  0  0  0  0  0  0  0  0  0
   59.4330   33.8520   51.8860 C   0  0  0  0  0  0  0  0  0  0  0  0
   61.6880   33.3920   49.1260 N   0  0  0  0  0  0  0  0  0  0  0  0
   60.7500   33.3940   48.0360 C   0  0  0  0  0  0  0  0  0  0  0  0
   60.4570   32.2040   47.3500 C   0  0  0  0  0  0  0  0  0  0  0  0
   59.5340   32.2060   46.3010 C   0  0  0  0  0  0  0  0  0  0  0  0
   58.8970   33.3950   45.9280 C   0  0  0  0  0  0  0  0  0  0  0  0
   57.6340   33.3950   44.4950 Br  0  0  0  0  0  0  0  0  0  0  0  0
   59.1860   34.5830   46.6080 C   0  0  0  0  0  0  0  0  0  0  0  0
   60.1080   34.5840   47.6580 C   0  0  0  0  0  0  0  0  0  0  0  0
   64.7948   34.1511   47.9687 H   0  0  0  0  0  0  0  0  0  0  0  0
   63.7700   32.9122   47.1677 H   0  0  0  0  0  0  0  0  0  0  0  0
   63.2615   34.6350   47.1677 H   0  0  0  0  0  0  0  0  0  0  0  0
   65.3672   34.7877   50.3555 H   0  0  0  0  0  0  0  0  0  0  0  0
   65.1298   33.6660   51.7611 H   0  0  0  0  0  0  0  0  0  0  0  0
   65.6870   32.7810   48.9890 H   0  0  0  0  0  0  0  0  0  0  0  0
   64.5745   31.3386   50.8486 H   0  0  0  0  0  0  0  0  0  0  0  0
   65.8197   30.6946   49.6869 H   0  0  0  0  0  0  0  0  0  0  0  0
   65.9852   30.3205   52.3640 H   0  0  0  0  0  0  0  0  0  0  0  0
   67.4263   30.4863   51.2892 H   0  0  0  0  0  0  0  0  0  0  0  0
   67.9090   33.9160   52.0784 H   0  0  0  0  0  0  0  0  0  0  0  0
   68.7841   32.3960   51.5710 H   0  0  0  0  0  0  0  0  0  0  0  0
   67.4802   34.1478   49.8578 H   0  0  0  0  0  0  0  0  0  0  0  0
   67.9018   32.4163   49.5181 H   0  0  0  0  0  0  0  0  0  0  0  0
   62.6321   33.3350   52.2945 H   0  0  0  0  0  0  0  0  0  0  0  0
   59.8750   31.0691   49.9438 H   0  0  0  0  0  0  0  0  0  0  0  0
   57.6257   30.5469   50.8895 H   0  0  0  0  0  0  0  0  0  0  0  0
   57.6847   34.2623   53.1017 H   0  0  0  0  0  0  0  0  0  0  0  0
   59.9342   34.7918   52.1610 H   0  0  0  0  0  0  0  0  0  0  0  0
   60.9558   31.2673   47.6395 H   0  0  0  0  0  0  0  0  0  0  0  0
   59.3076   31.2712   45.7673 H   0  0  0  0  0  0  0  0  0  0  0  0
   58.6864   35.5183   46.3155 H   0  0  0  0  0  0  0  0  0  0  0  0
   60.3316   35.5203   48.1902 H   0  0  0  0  0  0  0  0  0  0  0  0
  1  2  1  0
  2  3  2  0
  3  4  1  0
  4  5  1  0
  5  6  1  0
  6  7  1  0
  7  8  1  0
  8  9  1  0
  9 10  1  0
  3 11  1  0
 11 12  2  0
 12 13  1  0
 13 14  2  0
 14 15  1  0
 15 16  2  0
 16 17  1  0
 16 18  1  0
 18 19  2  0
 12 20  1  0
 20 21  1  0
 21 22  2  0
 22 23  1  0
 23 24  2  0
 24 25  1  0
 24 26  1  0
 26 27  2  0
 20  2  1  0
 27 21  1  0
 10  5  1  0
 19 13  1  0
  1 28  1  0
  1 29  1  0
  1 30  1  0
  4 31  1  0
  4 32  1  0
  5 33  1  0
  6 34  1  0
  6 35  1  0
  7 36  1  0
  7 37  1  0
  9 38  1  0
  9 39  1  0
 10 40  1  0
 10 41  1  0
 11 42  1  0
 14 43  1  0
 15 44  1  0
 18 45  1  0
 19 46  1  0
 22 47  1  0
 23 48  1  0
 26 49  1  0
 27 50  1  0
M  CHG  1   5   1
M  END
>  <UniqueID>  (24) 
23

>  <SMILES>  (24) 
Cc1c(C[NH+]2CCOCC2)cc(-c2ccc(F)cc2)n1-c1ccc(Br)cc1

>  <Energy>  (24) 
100.79035200398448

>  <Genealogy>  (24) 
Cc1c(C[NH+]2CCOCC2)cc(-c2ccc(F)cc2)n1-c1ccc(Br)cc1 (protonated)
Cc1c(C[NH+]2CCOCC2)cc(-c2ccc(F)cc2)n1-c1ccc(Br)cc1 (3D coordinates assigned)
Cc1c(C[NH+]2CCOCC2)cc(-c2ccc(F)cc2)n1-c1ccc(Br)cc1 (nonaromatic ring conformer: 100.79035200398448 kcal/mol)

>  <smiles>  (24) 
Cc1c(CN2CCOCC2)cc(-c2ccc(F)cc2)n1-c1ccc(Br)cc1

>  <score_type>  (24) 
oracle

>  <origin>  (24) 
adg

>  <m_score__min__energy>  (24) 
-6.3099999999999996

>  <m_primary>  (24) 
energy

$$$$
24:0
     RDKit          3D

 41 42  0  0  0  0  0  0  0  0999 V2000
   62.9790   33.4770   46.7750 C   0  0  0  0  0  0  0  0  0  0  0  0
   62.5500   32.4570   47.8300 C   0  0  0  0  0  0  0  0  0  0  0  0
   61.7390   31.2910   47.2390 C   0  0  0  0  0  0  0  0  0  0  0  0
   60.5310   31.0110   48.0300 N   0  0  0  0  0  0  0  0  0  0  0  0
   60.3130   32.0530   49.0480 C   0  0  0  0  0  0  0  0  0  0  0  0
   59.0400   32.8690   48.7640 C   0  0  0  0  0  0  0  0  0  0  0  0
   59.0560   33.4840   47.3830 C   0  0  0  0  0  0  0  0  0  0  0  0
   59.6430   34.7480   47.1960 C   0  0  0  0  0  0  0  0  0  0  0  0
   59.6370   35.3510   45.9360 C   0  0  0  0  0  0  0  0  0  0  0  0
   59.0430   34.7030   44.8530 C   0  0  0  0  0  0  0  0  0  0  0  0
   58.4450   33.4530   45.0270 C   0  0  0  0  0  0  0  0  0  0  0  0
   58.4330   32.8420   46.2920 C   0  0  0  0  0  0  0  0  0  0  0  0
   57.8350   31.5860   46.4740 O   0  0  0  0  0  0  0  0  0  0  0  0
   57.8070   30.5570   45.5220 C   0  0  0  0  0  0  0  0  0  0  0  0
   56.8620   30.5240   44.4770 C   0  0  0  0  0  0  0  0  0  0  0  0
   56.8450   29.4530   43.5770 C   0  0  0  0  0  0  0  0  0  0  0  0
   57.7650   28.4100   43.7110 C   0  0  0  0  0  0  0  0  0  0  0  0
   58.7000   28.4330   44.7500 C   0  0  0  0  0  0  0  0  0  0  0  0
   58.7180   29.5000   45.6530 C   0  0  0  0  0  0  0  0  0  0  0  0
   63.3593   34.3813   47.2726 H   0  0  0  0  0  0  0  0  0  0  0  0
   63.7711   33.0436   46.1467 H   0  0  0  0  0  0  0  0  0  0  0  0
   62.1153   33.7400   46.1467 H   0  0  0  0  0  0  0  0  0  0  0  0
   63.4512   32.0495   48.3114 H   0  0  0  0  0  0  0  0  0  0  0  0
   61.9023   32.9787   48.5500 H   0  0  0  0  0  0  0  0  0  0  0  0
   61.4406   31.5490   46.2122 H   0  0  0  0  0  0  0  0  0  0  0  0
   62.3727   30.3920   47.2519 H   0  0  0  0  0  0  0  0  0  0  0  0
   60.6460   30.0890   48.5080 H   0  0  0  0  0  0  0  0  0  0  0  0
   59.7020   30.9830   47.3920 H   0  0  0  0  0  0  0  0  0  0  0  0
   60.2168   31.5739   50.0335 H   0  0  0  0  0  0  0  0  0  0  0  0
   61.1723   32.7394   49.0254 H   0  0  0  0  0  0  0  0  0  0  0  0
   58.1670   32.2049   48.8466 H   0  0  0  0  0  0  0  0  0  0  0  0
   58.9901   33.6862   49.4986 H   0  0  0  0  0  0  0  0  0  0  0  0
   60.1098   35.2652   48.0472 H   0  0  0  0  0  0  0  0  0  0  0  0
   60.1015   36.3385   45.7976 H   0  0  0  0  0  0  0  0  0  0  0  0
   59.0456   35.1772   43.8605 H   0  0  0  0  0  0  0  0  0  0  0  0
   57.9810   32.9442   44.1692 H   0  0  0  0  0  0  0  0  0  0  0  0
   56.1355   31.3428   44.3686 H   0  0  0  0  0  0  0  0  0  0  0  0
   56.1060   29.4320   42.7624 H   0  0  0  0  0  0  0  0  0  0  0  0
   57.7536   27.5713   42.9994 H   0  0  0  0  0  0  0  0  0  0  0  0
   59.4225   27.6105   44.8571 H   0  0  0  0  0  0  0  0  0  0  0  0
   59.4522   29.5101   46.4720 H   0  0  0  0  0  0  0  0  0  0  0  0
  1  2  1  0
  2  3  1  0
  3  4  1  0
  4  5  1  0
  5  6  1  0
  6  7  1  0
  7  8  2  0
  8  9  1  0
  9 10  2  0
 10 11  1  0
 11 12  2  0
 12 13  1  0
 13 14  1  0
 14 15  2  0
 15 16  1  0
 16 17  2  0
 17 18  1  0
 18 19  2  0
 12  7  1  0
 19 14  1  0
  1 20  1  0
  1 21  1  0
  1 22  1  0
  2 23  1  0
  2 24  1  0
  3 25  1  0
  3 26  1  0
  4 27  1  0
  4 28  1  0
  5 29  1  0
  5 30  1  0
  6 31  1  0
  6 32  1  0
  8 33  1  0
  9 34  1  0
 10 35  1  0
 11 36  1  0
 15 37  1  0
 16 38  1  0
 17 39  1  0
 18 40  1  0
 19 41  1  0
M  CHG  1   4   1
M  END
>  <UniqueID>  (25) 
24

>  <SMILES>  (25) 
CCC[NH2+]CCc1ccccc1Oc1ccccc1

>  <Energy>  (25) 
38.01802278592367

>  <Genealogy>  (25) 
CCC[NH2+]CCc1ccccc1Oc1ccccc1 (protonated)
CCC[NH2+]CCc1ccccc1Oc1ccccc1 (3D coordinates assigned)
CCC[NH2+]CCc1ccccc1Oc1ccccc1 (optimized conformer: 38.01802278592367 kcal/mol)

>  <smiles>  (25) 
CCCNCCc1ccccc1Oc1ccccc1

>  <score_type>  (25) 
oracle

>  <origin>  (25) 
adg

>  <m_score__min__energy>  (25) 
-5.1200000000000001

>  <m_primary>  (25) 
energy

$$$$
25:0
     RDKit          3D

 49 52  0  0  1  0  0  0  0  0999 V2000
   58.3820   26.9080   46.8670 C   0  0  0  0  0  0  0  0  0  0  0  0
   57.0350   26.9740   46.1860 C   0  0  0  0  0  0  0  0  0  0  0  0
   57.0620   28.1120   45.2760 N   0  0  0  0  0  0  0  0  0  0  0  0
   57.5030   28.1200   44.0000 C   0  0  0  0  0  0  0  0  0  0  0  0
   57.3610   29.4010   43.4690 C   0  0  0  0  0  0  0  0  0  0  0  0
   56.8150   30.1590   44.4840 C   0  0  0  0  0  0  0  0  0  0  0  0
   60.7220   34.5850   49.0630 N   0  0  0  0  0  0  0  0  0  0  0  0
   59.9310   34.1910   48.1100 C   0  0  0  0  0  0  0  0  0  0  0  0
   57.8510   32.1090   46.2530 N   0  0  0  0  0  0  0  0  0  0  0  0
   58.6260   33.0190   46.8600 C   0  0  0  0  0  0  0  0  0  0  0  0
   58.7420   34.2590   46.2660 C   0  0  0  0  0  0  0  0  0  0  0  0
   58.1010   34.5880   45.0900 C   0  0  0  0  0  0  0  0  0  0  0  0
   57.3340   33.6290   44.5240 N   0  0  0  0  0  0  0  0  0  0  0  0
   59.5660   34.9620   47.0780 N   0  0  0  0  0  0  0  0  0  0  0  0
   57.2130   32.4070   45.1000 C   0  0  0  0  0  0  0  0  0  0  0  0
   56.4580   31.5370   44.4960 N   0  0  0  0  0  0  0  0  0  0  0  0
   62.0650   34.0700   49.1680 C   0  0  0  0  0  0  0  0  0  0  0  0
   62.6960   34.0690   50.3930 C   0  0  0  0  0  0  0  0  0  0  0  0
   63.9820   33.5620   50.4310 C   0  0  0  0  0  0  0  0  0  0  0  0
   64.6230   33.0770   49.3120 C   0  0  0  0  0  0  0  0  0  0  0  0
   63.9790   33.0840   48.0890 C   0  0  0  0  0  0  0  0  0  0  0  0
   62.6860   33.5850   48.0120 C   0  0  0  0  0  0  0  0  0  0  0  0
   59.3490   32.9620   47.9930 N   0  0  0  0  0  0  0  0  0  0  0  0
   59.5190   31.8670   48.9290 C   0  0  0  0  0  0  0  0  0  0  0  0
   58.5210   31.8330   50.0330 C   0  0  0  0  0  0  0  0  0  0  0  0
   59.6430   30.5430   48.1830 C   0  0  0  0  0  0  0  0  0  0  0  0
   56.6520   29.3390   45.5540 N   0  0  0  0  0  0  0  0  0  0  0  0
   58.2420   26.9149   47.9580 H   0  0  0  0  0  0  0  0  0  0  0  0
   58.8984   25.9835   46.5694 H   0  0  0  0  0  0  0  0  0  0  0  0
   58.9863   27.7776   46.5694 H   0  0  0  0  0  0  0  0  0  0  0  0
   56.8524   26.0467   45.6231 H   0  0  0  0  0  0  0  0  0  0  0  0
   56.2303   27.0884   46.9272 H   0  0  0  0  0  0  0  0  0  0  0  0
   57.9109   27.2509   43.4630 H   0  0  0  0  0  0  0  0  0  0  0  0
   57.6277   29.7362   42.4558 H   0  0  0  0  0  0  0  0  0  0  0  0
   58.2086   35.5833   44.6341 H   0  0  0  0  0  0  0  0  0  0  0  0
   56.8400   33.8560   43.6340 H   0  0  0  0  0  0  0  0  0  0  0  0
   59.8780   35.9550   46.9320 H   0  0  0  0  0  0  0  0  0  0  0  0
   62.2007   34.4530   51.2970 H   0  0  0  0  0  0  0  0  0  0  0  0
   64.5146   33.5452   51.3933 H   0  0  0  0  0  0  0  0  0  0  0  0
   65.6474   32.6842   49.3919 H   0  0  0  0  0  0  0  0  0  0  0  0
   64.4829   32.6986   47.1904 H   0  0  0  0  0  0  0  0  0  0  0  0
   62.1541   33.6004   47.0493 H   0  0  0  0  0  0  0  0  0  0  0  0
   60.4669   32.0499   49.4563 H   0  0  0  0  0  0  0  0  0  0  0  0
   59.0439   31.8508   51.0006 H   0  0  0  0  0  0  0  0  0  0  0  0
   57.8603   32.7092   49.9571 H   0  0  0  0  0  0  0  0  0  0  0  0
   57.9214   30.9139   49.9571 H   0  0  0  0  0  0  0  0  0  0  0  0
   59.7201   29.7194   48.9081 H   0  0  0  0  0  0  0  0  0  0  0  0
   58.7549   30.3935   47.5514 H   0  0  0  0  0  0  0  0  0  0  0  0
   60.5434   30.5610   47.5514 H   0  0  0  0  0  0  0  0  0  0  0  0
  1  2  1  0
  2  3  1  0
  3  4  1  0
  4  5  2  0
  5  6  1  0
  6  7  1  0
  7  8  2  0
  8  9  1  0
  9 10  2  0
 10 11  1  0
 11 12  2  0
 12 13  1  0
 11 14  1  0
 14 15  1  0
 15 16  2  0
 16 17  1  0
 17 18  2  0
 18 19  1  0
 19 20  2  0
 20 21  1  0
 21 22  2  0
 15 23  1  0
 23 24  1  0
 24 25  1  0
 24 26  1  0
  6 27  2  0
 27  3  1  0
 13  8  1  0
 22 17  1  0
 23 10  1  0
  1 28  1  0
  1 29  1  0
  1 30  1  0
  2 31  1  0
  2 32  1  0
  4 33  1  0
  5 34  1  0
 12 35  1  0
 13 36  1  0
 14 37  1  0
 18 38  1  0
 19 39  1  0
 20 40  1  0
 21 41  1  0
 22 42  1  0
 24 43  1  0
 25 44  1  0
 25 45  1  0
 25 46  1  0
 26 47  1  0
 26 48  1  0
 26 49  1  0
M  END
>  <smiles>  (26) 
CCn1ccc(N=c2nc3c(c[nH]2)[nH]c(=Nc2ccccc2)n3C(C)C)n1

>  <score_type>  (26) 
oracle

>  <origin>  (26) 
adg

>  <m_score__min__energy>  (26) 
-7.9800000000000004

>  <m_primary>  (26) 
energy

$$$$
26:0
     RDKit          3D

 57 59  0  0  0  0  0  0  0  0999 V2000
   59.5430   31.9288   48.0154 H   0  0  0  0  0  0  0  0  0  0  0  0
   60.1190   31.8580   47.0810 C   0  0  0  0  0  0  0  0  0  0  0  0
   59.5060   31.8980   45.9380 N   0  0  0  0  0  0  0  0  0  0  0  0
   58.1470   31.4870   45.7280 C   0  0  0  0  0  0  0  0  0  0  0  0
   57.2660   32.3720   45.5640 O   0  0  0  0  0  0  0  0  0  0  0  0
   57.7460   30.0650   45.6850 C   0  0  0  0  0  0  0  0  0  0  0  0
   58.2050   29.0300   46.4920 C   0  0  0  0  0  0  0  0  0  0  0  0
   59.2130   29.1210   47.5980 C   0  0  0  0  0  0  0  0  0  0  0  0
   58.6975   29.0745   48.5686 H   0  0  0  0  0  0  0  0  0  0  0  0
   59.9213   28.2831   47.5184 H   0  0  0  0  0  0  0  0  0  0  0  0
   59.7598   30.0722   47.5184 H   0  0  0  0  0  0  0  0  0  0  0  0
   57.5540   27.8810   46.0570 C   0  0  0  0  0  0  0  0  0  0  0  0
   57.7960   26.4820   46.5540 C   0  0  0  0  0  0  0  0  0  0  0  0
   58.8461   26.2115   46.3691 H   0  0  0  0  0  0  0  0  0  0  0  0
   57.5727   26.4498   47.6306 H   0  0  0  0  0  0  0  0  0  0  0  0
   56.9050   25.4980   45.8520 C   0  0  0  0  0  0  0  0  0  0  0  0
   55.5390   25.6180   45.6290 C   0  0  0  0  0  0  0  0  0  0  0  0
   54.7710   26.7140   45.9990 O   0  0  0  0  0  0  0  0  0  0  0  0
   55.0210   24.5320   45.0090 N   0  0  0  0  0  0  0  0  0  0  0  0
   56.0780   23.7140   44.8450 C   0  0  0  0  0  0  0  0  0  0  0  0
   56.0640   22.4500   44.2560 C   0  0  0  0  0  0  0  0  0  0  0  0
   55.1331   22.0231   43.8546 H   0  0  0  0  0  0  0  0  0  0  0  0
   57.2740   21.7370   44.1900 C   0  0  0  0  0  0  0  0  0  0  0  0
   57.2954   20.7386   43.7287 H   0  0  0  0  0  0  0  0  0  0  0  0
   58.4620   22.2940   44.7120 C   0  0  0  0  0  0  0  0  0  0  0  0
   59.4021   21.7255   44.6573 H   0  0  0  0  0  0  0  0  0  0  0  0
   58.4510   23.5700   45.3010 C   0  0  0  0  0  0  0  0  0  0  0  0
   59.5910   24.1040   45.8030 F   0  0  0  0  0  0  0  0  0  0  0  0
   57.2360   24.2590   45.3490 C   0  0  0  0  0  0  0  0  0  0  0  0
   56.7300   28.1770   45.0300 N   0  0  0  0  0  0  0  0  0  0  0  0
   56.1400   27.5050   44.4930 H   0  0  0  0  0  0  0  0  0  0  0  0
   56.8290   29.5020   44.8120 C   0  0  0  0  0  0  0  0  0  0  0  0
   56.0780   30.2240   43.7390 C   0  0  0  0  0  0  0  0  0  0  0  0
   55.3575   30.9167   44.1984 H   0  0  0  0  0  0  0  0  0  0  0  0
   56.7845   30.7906   43.1147 H   0  0  0  0  0  0  0  0  0  0  0  0
   55.5396   29.4957   43.1147 H   0  0  0  0  0  0  0  0  0  0  0  0
   61.6160   31.7150   47.1310 C   0  0  0  0  0  0  0  0  0  0  0  0
   61.9292   31.0198   46.3382 H   0  0  0  0  0  0  0  0  0  0  0  0
   61.8794   31.3396   48.1308 H   0  0  0  0  0  0  0  0  0  0  0  0
   62.3220   33.0010   46.9380 N   0  0  0  0  0  0  0  0  0  0  0  0
   63.6760   32.9870   47.5360 C   0  0  0  0  0  0  0  0  0  0  0  0
   64.4084   32.7165   46.7611 H   0  0  0  0  0  0  0  0  0  0  0  0
   63.8913   33.9880   47.9380 H   0  0  0  0  0  0  0  0  0  0  0  0
   63.7610   31.9770   48.6770 C   0  0  0  0  0  0  0  0  0  0  0  0
   63.7164   32.5070   49.6399 H   0  0  0  0  0  0  0  0  0  0  0  0
   62.9190   31.2727   48.6067 H   0  0  0  0  0  0  0  0  0  0  0  0
   64.7089   31.4234   48.6067 H   0  0  0  0  0  0  0  0  0  0  0  0
   61.5060   34.1670   47.3610 C   0  0  0  0  0  0  0  0  0  0  0  0
   60.4992   34.0824   46.9261 H   0  0  0  0  0  0  0  0  0  0  0  0
   61.9911   35.0899   47.0103 H   0  0  0  0  0  0  0  0  0  0  0  0
   61.3950   34.2110   48.8890 C   0  0  0  0  0  0  0  0  0  0  0  0
   61.8823   35.1272   49.2538 H   0  0  0  0  0  0  0  0  0  0  0  0
   61.8848   33.3115   49.2902 H   0  0  0  0  0  0  0  0  0  0  0  0
   59.9420   34.2050   49.3600 C   0  0  0  0  0  0  0  0  0  0  0  0
   59.9130   34.2049   50.4596 H   0  0  0  0  0  0  0  0  0  0  0  0
   59.4296   35.1010   48.9798 H   0  0  0  0  0  0  0  0  0  0  0  0
   59.4370   33.3048   48.9798 H   0  0  0  0  0  0  0  0  0  0  0  0
  1  2  1  0
  2  3  2  0
  3  4  1  0
  4  5  2  0
  4  6  1  0
  6  7  1  0
  7  8  1  0
  8  9  1  0
  8 10  1  0
  8 11  1  0
  7 12  2  0
 12 13  1  0
 13 14  1  0
 13 15  1  0
 13 16  1  0
 16 17  2  0
 17 18  1  0
 17 19  1  0
 19 20  1  0
 20 21  2  0
 21 22  1  0
 21 23  1  0
 23 24  1  0
 23 25  2  0
 25 26  1  0
 25 27  1  0
 27 28  1  0
 27 29  2  0
 12 30  1  0
 30 31  1  0
 30 32  1  0
 32 33  1  0
 33 34  1  0
 33 35  1  0
 33 36  1  0
  2 37  1  0
 37 38  1  0
 37 39  1  0
 37 40  1  0
 40 41  1  0
 41 42  1  0
 41 43  1  0
 41 44  1  0
 44 45  1  0
 44 46  1  0
 44 47  1  0
 40 48  1  0
 48 49  1  0
 48 50  1  0
 48 51  1  0
 51 52  1  0
 51 53  1  0
 51 54  1  0
 54 55  1  0
 54 56  1  0
 54 57  1  0
 32  6  2  0
 29 16  1  0
 29 20  1  0
M  CHG  2  18  -1  19  -1
M  END
>  <UniqueID>  (27) 
25

>  <SMILES>  (27) 
CCCN(CC)C/C=N/C(=O)c1c(C)[nH]c(Cc2c([O-])[n-]c3cccc(F)c23)c1C

>  <Energy>  (27) 
116.75445238364786

>  <Genealogy>  (27) 
CCCN(CC)CC=NC(=O)c1c(C)[nH]c(Cc2c([O-])[n-]c3cccc(F)c23)c1C (protonated)
CCCN(CC)C/C=N/C(=O)c1c(C)[nH]c(Cc2c([O-])[n-]c3cccc(F)c23)c1C (cis-trans isomerization)
CCCN(CC)C/C=N/C(=O)c1c(C)[nH]c(Cc2c([O-])[n-]c3cccc(F)c23)c1C (3D coordinates assigned)
CCCN(CC)C/C=N/C(=O)c1c(C)[nH]c(Cc2c([O-])[n-]c3cccc(F)c23)c1C (optimized conformer: 116.75445238364786 kcal/mol)

>  <smiles>  (27) 
CCCN(CC)CC=NC(=O)c1c(C)[nH]c(Cc2c(O)[nH]c3cccc(F)c23)c1C

>  <score_type>  (27) 
oracle

>  <origin>  (27) 
adg

>  <m_score__min__energy>  (27) 
-14.32

>  <m_primary>  (27) 
energy

$$$$
27:0
     RDKit          3D

 78 80  0  0  0  0  0  0  0  0999 V2000
   60.3384   36.1991   45.9958 H   0  0  0  0  0  0  0  0  0  0  0  0
   59.6660   35.3320   45.9180 C   0  0  0  0  0  0  0  0  0  0  0  0
   58.9880   34.8710   47.0520 C   0  0  0  0  0  0  0  0  0  0  0  0
   59.1276   35.3781   48.0181 H   0  0  0  0  0  0  0  0  0  0  0  0
   58.1330   33.7670   46.9610 C   0  0  0  0  0  0  0  0  0  0  0  0
   57.5977   33.4088   47.8527 H   0  0  0  0  0  0  0  0  0  0  0  0
   57.9610   33.1200   45.7320 C   0  0  0  0  0  0  0  0  0  0  0  0
   57.1490   32.0360   45.6260 N   0  0  0  0  0  0  0  0  0  0  0  0
   56.9770   31.3830   44.4460 C   0  0  0  0  0  0  0  0  0  0  0  0
   56.2080   30.3300   44.4240 N   0  0  0  0  0  0  0  0  0  0  0  0
   56.5750   28.9520   44.7630 C   0  0  0  0  0  0  0  0  0  0  0  0
   55.6897   28.3079   44.6567 H   0  0  0  0  0  0  0  0  0  0  0  0
   56.9443   28.9334   45.7990 H   0  0  0  0  0  0  0  0  0  0  0  0
   57.6870   28.4330   43.8390 C   0  0  0  0  0  0  0  0  0  0  0  0
   57.6932   29.0358   42.9189 H   0  0  0  0  0  0  0  0  0  0  0  0
   57.4799   27.3745   43.6228 H   0  0  0  0  0  0  0  0  0  0  0  0
   59.0770   28.5180   44.4970 C   0  0  0  0  0  0  0  0  0  0  0  0
   59.6596   29.3168   44.0149 H   0  0  0  0  0  0  0  0  0  0  0  0
   59.5925   27.5538   44.3758 H   0  0  0  0  0  0  0  0  0  0  0  0
   58.9390   28.8150   45.9370 N   0  0  0  0  0  0  0  0  0  0  0  0
   59.7880   29.9630   46.3180 C   0  0  0  0  0  0  0  0  0  0  0  0
   60.8111   29.5953   46.4855 H   0  0  0  0  0  0  0  0  0  0  0  0
   59.7268   30.6896   45.4944 H   0  0  0  0  0  0  0  0  0  0  0  0
   59.3220   30.6960   47.5930 C   0  0  0  0  0  0  0  0  0  0  0  0
   60.1247   31.3749   47.9165 H   0  0  0  0  0  0  0  0  0  0  0  0
   58.3971   31.2331   47.3358 H   0  0  0  0  0  0  0  0  0  0  0  0
   58.9970   29.7860   48.7170 N   0  0  0  0  0  0  0  0  0  0  0  0
   58.7100   30.5650   49.9440 C   0  0  0  0  0  0  0  0  0  0  0  0
   57.6956   30.3265   50.2962 H   0  0  0  0  0  0  0  0  0  0  0  0
   58.7863   31.6377   49.7127 H   0  0  0  0  0  0  0  0  0  0  0  0
   59.7240   30.2180   51.0460 C   0  0  0  0  0  0  0  0  0  0  0  0
   60.6212   29.7877   50.5770 H   0  0  0  0  0  0  0  0  0  0  0  0
   59.2428   29.5034   51.7299 H   0  0  0  0  0  0  0  0  0  0  0  0
   60.1410   31.4490   51.8730 C   0  0  0  0  0  0  0  0  0  0  0  0
   60.0969   31.1877   52.9406 H   0  0  0  0  0  0  0  0  0  0  0  0
   59.4475   32.2666   51.6267 H   0  0  0  0  0  0  0  0  0  0  0  0
   61.5280   31.9170   51.5500 N   0  0  1  0  0  0  0  0  0  0  0  0
   62.0730   32.0360   52.4320 H   0  0  0  0  0  0  0  0  0  0  0  0
   62.2380   30.8970   50.7330 C   0  0  0  0  0  0  0  0  0  0  0  0
   61.7471   30.8297   49.7509 H   0  0  0  0  0  0  0  0  0  0  0  0
   62.1904   29.9437   51.2798 H   0  0  0  0  0  0  0  0  0  0  0  0
   63.7200   31.2320   50.5180 C   0  0  0  0  0  0  0  0  0  0  0  0
   64.2158   31.3441   51.4935 H   0  0  0  0  0  0  0  0  0  0  0  0
   64.2013   30.4200   49.9532 H   0  0  0  0  0  0  0  0  0  0  0  0
   63.8052   32.1721   49.9532 H   0  0  0  0  0  0  0  0  0  0  0  0
   61.4990   33.2280   50.8460 C   0  0  0  0  0  0  0  0  0  0  0  0
   60.7874   33.8879   51.3638 H   0  0  0  0  0  0  0  0  0  0  0  0
   62.5220   33.6320   50.8625 H   0  0  0  0  0  0  0  0  0  0  0  0
   61.0730   33.1110   49.3640 C   0  0  0  0  0  0  0  0  0  0  0  0
   61.1223   32.0534   49.0656 H   0  0  0  0  0  0  0  0  0  0  0  0
   60.0512   33.5092   49.2783 H   0  0  0  0  0  0  0  0  0  0  0  0
   61.9790   33.9360   48.4180 C   0  0  0  0  0  0  0  0  0  0  0  0
   61.5056   34.9154   48.2545 H   0  0  0  0  0  0  0  0  0  0  0  0
   62.9605   34.0131   48.9086 H   0  0  0  0  0  0  0  0  0  0  0  0
   62.2120   33.3070   47.0980 N   0  0  0  0  0  0  0  0  0  0  0  0
   63.2790   33.9620   46.3260 C   0  0  0  0  0  0  0  0  0  0  0  0
   64.0089   34.4101   47.0163 H   0  0  0  0  0  0  0  0  0  0  0  0
   63.7829   33.2175   45.6922 H   0  0  0  0  0  0  0  0  0  0  0  0
   62.8432   34.7483   45.6922 H   0  0  0  0  0  0  0  0  0  0  0  0
   62.4320   31.8530   47.1850 C   0  0  0  0  0  0  0  0  0  0  0  0
   62.4776   31.5517   48.2419 H   0  0  0  0  0  0  0  0  0  0  0  0
   61.6033   31.3264   46.6890 H   0  0  0  0  0  0  0  0  0  0  0  0
   63.3794   31.5952   46.6890 H   0  0  0  0  0  0  0  0  0  0  0  0
   59.9970   28.7100   48.9780 C   0  0  0  0  0  0  0  0  0  0  0  0
   60.9123   29.1815   49.3652 H   0  0  0  0  0  0  0  0  0  0  0  0
   59.5256   28.0191   49.6924 H   0  0  0  0  0  0  0  0  0  0  0  0
   60.3800   27.8610   47.7450 C   0  0  0  0  0  0  0  0  0  0  0  0
   61.1840   28.3808   47.2034 H   0  0  0  0  0  0  0  0  0  0  0  0
   60.6912   26.8754   48.1215 H   0  0  0  0  0  0  0  0  0  0  0  0
   59.2120   27.6160   46.7630 C   0  0  0  0  0  0  0  0  0  0  0  0
   59.4714   26.7768   46.1008 H   0  0  0  0  0  0  0  0  0  0  0  0
   58.3097   27.3868   47.3489 H   0  0  0  0  0  0  0  0  0  0  0  0
   57.6480   31.8660   43.3010 C   0  0  0  0  0  0  0  0  0  0  0  0
   57.5122   31.3675   42.3299 H   0  0  0  0  0  0  0  0  0  0  0  0
   58.4620   32.9490   43.4040 N   0  0  0  0  0  0  0  0  0  0  0  0
   58.6410   33.5850   44.5890 C   0  0  0  0  0  0  0  0  0  0  0  0
   59.4910   34.6930   44.6850 C   0  0  0  0  0  0  0  0  0  0  0  0
   60.0202   35.0607   43.7935 H   0  0  0  0  0  0  0  0  0  0  0  0
  1  2  1  0
  2  3  2  0
  3  4  1  0
  3  5  1  0
  5  6  1  0
  5  7  2  0
  7  8  1  0
  8  9  1  0
  9 10  2  0
 10 11  1  0
 11 12  1  0
 11 13  1  0
 11 14  1  0
 14 15  1  0
 14 16  1  0
 14 17  1  0
 17 18  1  0
 17 19  1  0
 17 20  1  0
 20 21  1  0
 21 22  1  0
 21 23  1  0
 21 24  1  0
 24 25  1  0
 24 26  1  0
 24 27  1  0
 27 28  1  0
 28 29  1  0
 28 30  1  0
 28 31  1  0
 31 32  1  0
 31 33  1  0
 31 34  1  0
 34 35  1  0
 34 36  1  0
 34 37  1  0
 37 38  1  1
 37 39  1  0
 39 40  1  0
 39 41  1  0
 39 42  1  0
 42 43  1  0
 42 44  1  0
 42 45  1  0
 37 46  1  0
 46 47  1  0
 46 48  1  0
 46 49  1  0
 49 50  1  0
 49 51  1  0
 49 52  1  0
 52 53  1  0
 52 54  1  0
 52 55  1  0
 55 56  1  0
 56 57  1  0
 56 58  1  0
 56 59  1  0
 55 60  1  0
 60 61  1  0
 60 62  1  0
 60 63  1  0
 27 64  1  0
 64 65  1  0
 64 66  1  0
 64 67  1  0
 67 68  1  0
 67 69  1  0
 67 70  1  0
 70 71  1  0
 70 72  1  0
  9 73  1  0
 73 74  1  0
 73 75  2  0
 75 76  1  0
 76 77  2  0
 77 78  1  0
 77  2  1  0
 76  7  1  0
 70 20  1  0
M  CHG  2   8  -1  37   1
M  END
>  <UniqueID>  (28) 
26

>  <SMILES>  (28) 
CC[N@@H+](CCCN(C)C)CCCN1CCCN(CCC/N=c2\cnc3ccccc3[n-]2)CC1

>  <Energy>  (28) 
103.19720548086359

>  <Genealogy>  (28) 
CC[NH+](CCCN(C)C)CCCN1CCCN(CCCN=c2cnc3ccccc3[n-]2)CC1 (protonated)
CC[N@@H+](CCCN(C)C)CCCN1CCCN(CCCN=c2cnc3ccccc3[n-]2)CC1 (chirality)
CC[N@@H+](CCCN(C)C)CCCN1CCCN(CCC/N=c2\cnc3ccccc3[n-]2)CC1 (cis-trans isomerization)
CC[N@@H+](CCCN(C)C)CCCN1CCCN(CCC/N=c2\cnc3ccccc3[n-]2)CC1 (3D coordinates assigned)
CC[N@@H+](CCCN(C)C)CCCN1CCCN(CCC/N=c2\cnc3ccccc3[n-]2)CC1 (nonaromatic ring conformer: 103.19720548086359 kcal/mol)

>  <smiles>  (28) 
CCN(CCCN(C)C)CCCN1CCCN(CCCN=c2cnc3ccccc3[nH]2)CC1

>  <score_type>  (28) 
oracle

>  <origin>  (28) 
adg

>  <m_score__min__energy>  (28) 
-5.7699999999999996

>  <m_primary>  (28) 
energy

$$$$
28:0
     RDKit          3D

 31 33  0  0  0  0  0  0  0  0999 V2000
   57.6750   26.2400   46.1040 C   0  0  0  0  0  0  0  0  0  0  0  0
   57.5630   27.4510   46.8450 O   0  0  0  0  0  0  0  0  0  0  0  0
   58.5620   28.4320   46.9240 C   0  0  0  0  0  0  0  0  0  0  0  0
   59.5400   28.4210   47.9320 C   0  0  0  0  0  0  0  0  0  0  0  0
   60.4590   29.4180   48.0110 N   0  0  0  0  0  0  0  0  0  0  0  0
   60.4530   30.4510   47.1210 C   0  0  0  0  0  0  0  0  0  0  0  0
   61.4480   31.5450   47.2190 C   0  0  0  0  0  0  0  0  0  0  0  0
   61.1600   32.8350   46.7400 C   0  0  0  0  0  0  0  0  0  0  0  0
   62.1220   33.8410   46.8490 C   0  0  0  0  0  0  0  0  0  0  0  0
   63.3590   33.5610   47.4310 C   0  0  0  0  0  0  0  0  0  0  0  0
   63.6150   32.2710   47.8980 C   0  0  0  0  0  0  0  0  0  0  0  0
   62.6660   31.3040   47.7830 N   0  0  0  0  0  0  0  0  0  0  0  0
   59.5200   30.4700   46.1310 N   0  0  0  0  0  0  0  0  0  0  0  0
   58.5890   29.4890   45.9940 C   0  0  0  0  0  0  0  0  0  0  0  0
   57.6400   29.5840   44.9190 N   0  0  0  0  0  0  0  0  0  0  0  0
   57.6480   28.9020   43.7550 C   0  0  0  0  0  0  0  0  0  0  0  0
   56.6000   29.3500   42.9810 C   0  0  0  0  0  0  0  0  0  0  0  0
   55.9940   30.3290   43.7400 C   0  0  0  0  0  0  0  0  0  0  0  0
   56.6490   30.4620   44.9100 N   0  0  0  0  0  0  0  0  0  0  0  0
   57.7535   25.3909   46.7989 H   0  0  0  0  0  0  0  0  0  0  0  0
   56.7847   26.1142   45.4704 H   0  0  0  0  0  0  0  0  0  0  0  0
   58.5733   26.2796   45.4704 H   0  0  0  0  0  0  0  0  0  0  0  0
   59.5618   27.5991   48.6627 H   0  0  0  0  0  0  0  0  0  0  0  0
   61.1680   29.3770   48.7770 H   0  0  0  0  0  0  0  0  0  0  0  0
   60.1832   33.0503   46.2824 H   0  0  0  0  0  0  0  0  0  0  0  0
   61.9051   34.8530   46.4766 H   0  0  0  0  0  0  0  0  0  0  0  0
   64.1229   34.3474   47.5206 H   0  0  0  0  0  0  0  0  0  0  0  0
   64.5855   32.0363   48.3596 H   0  0  0  0  0  0  0  0  0  0  0  0
   58.3689   28.1208   43.4720 H   0  0  0  0  0  0  0  0  0  0  0  0
   56.3103   29.0031   41.9781 H   0  0  0  0  0  0  0  0  0  0  0  0
   55.1116   30.9117   43.4369 H   0  0  0  0  0  0  0  0  0  0  0  0
  1  2  1  0
  2  3  1  0
  3  4  2  0
  4  5  1  0
  5  6  2  0
  6  7  1  0
  7  8  2  0
  8  9  1  0
  9 10  2  0
 10 11  1  0
 11 12  2  0
  6 13  1  0
 13 14  2  0
 14 15  1  0
 15 16  1  0
 16 17  2  0
 17 18  1  0
 18 19  2  0
 14  3  1  0
 19 15  1  0
 12  7  1  0
  1 20  1  0
  1 21  1  0
  1 22  1  0
  4 23  1  0
  5 24  1  0
  8 25  1  0
  9 26  1  0
 10 27  1  0
 11 28  1  0
 16 29  1  0
 17 30  1  0
 18 31  1  0
M  CHG  1   5   1
M  END
>  <UniqueID>  (29) 
27

>  <SMILES>  (29) 
COc1c[nH+]c(-c2ccccn2)nc1-n1cccn1

>  <Energy>  (29) 
68.48486732837162

>  <Genealogy>  (29) 
COc1c[nH+]c(-c2ccccn2)nc1-n1cccn1 (protonated)
COc1c[nH+]c(-c2ccccn2)nc1-n1cccn1 (3D coordinates assigned)
COc1c[nH+]c(-c2ccccn2)nc1-n1cccn1 (optimized conformer: 68.48486732837162 kcal/mol)

>  <smiles>  (29) 
COc1cnc(-c2ccccn2)nc1-n1cccn1

>  <score_type>  (29) 
oracle

>  <origin>  (29) 
adg

>  <m_score__min__energy>  (29) 
-5

>  <m_primary>  (29) 
energy

$$$$
29:0
     RDKit          3D

 37 40  0  0  1  0  0  0  0  0999 V2000
   61.0190   34.2970   48.4850 C   0  0  0  0  0  0  0  0  0  0  0  0
   61.7110   33.2680   47.8800 C   0  0  0  0  0  0  0  0  0  0  0  0
   61.1070   32.3020   47.1110 C   0  0  0  0  0  0  0  0  0  0  0  0
   59.7430   32.3230   46.9060 C   0  0  0  0  0  0  0  0  0  0  0  0
   59.0250   31.3490   46.1130 C   0  0  0  0  0  0  0  0  0  0  0  0
   59.5040   30.0940   45.8080 C   0  0  0  0  0  0  0  0  0  0  0  0
   58.7710   29.1870   45.0360 C   0  0  0  0  0  0  0  0  0  0  0  0
   59.2580   28.0760   44.8080 N   0  0  0  0  0  0  0  0  0  0  0  0
   59.2320   26.8920   45.5610 C   0  0  0  0  0  0  0  0  0  0  0  0
   57.9000   26.2160   45.5890 C   0  0  0  0  0  0  0  0  0  0  0  0
   57.6390   25.0700   44.8230 C   0  0  0  0  0  0  0  0  0  0  0  0
   56.4110   24.4420   44.8370 C   0  0  0  0  0  0  0  0  0  0  0  0
   55.3900   24.9340   45.6180 C   0  0  0  0  0  0  0  0  0  0  0  0
   55.6300   26.0260   46.3520 N   0  0  0  0  0  0  0  0  0  0  0  0
   56.8360   26.6550   46.3470 C   0  0  0  0  0  0  0  0  0  0  0  0
   57.5650   29.5210   44.5660 N   0  0  0  0  0  0  0  0  0  0  0  0
   56.7210   28.8660   43.8410 N   0  0  0  0  0  0  0  0  0  0  0  0
   55.6600   29.7220   43.6720 C   0  0  0  0  0  0  0  0  0  0  0  0
   55.9090   30.8770   44.3110 N   0  0  0  0  0  0  0  0  0  0  0  0
   57.1180   30.7500   44.8780 C   0  0  0  0  0  0  0  0  0  0  0  0
   57.7940   31.6430   45.6140 N   0  0  0  0  0  0  0  0  0  0  0  0
   59.0440   33.3500   47.5080 C   0  0  0  0  0  0  0  0  0  0  0  0
   59.6420   34.3230   48.2810 C   0  0  0  0  0  0  0  0  0  0  0  0
   61.5283   35.0566   49.0962 H   0  0  0  0  0  0  0  0  0  0  0  0
   62.8009   33.2182   48.0201 H   0  0  0  0  0  0  0  0  0  0  0  0
   61.7155   31.5067   46.6559 H   0  0  0  0  0  0  0  0  0  0  0  0
   60.4940   29.7959   46.1834 H   0  0  0  0  0  0  0  0  0  0  0  0
   59.9650   26.1933   45.1315 H   0  0  0  0  0  0  0  0  0  0  0  0
   59.4681   27.1707   46.5986 H   0  0  0  0  0  0  0  0  0  0  0  0
   58.4397   24.6589   44.1907 H   0  0  0  0  0  0  0  0  0  0  0  0
   56.2471   23.5449   44.2219 H   0  0  0  0  0  0  0  0  0  0  0  0
   54.4056   24.4435   45.6379 H   0  0  0  0  0  0  0  0  0  0  0  0
   56.9673   27.5499   46.9730 H   0  0  0  0  0  0  0  0  0  0  0  0
   56.6560   27.9460   43.3890 H   0  0  0  0  0  0  0  0  0  0  0  0
   54.7471   29.4964   43.1013 H   0  0  0  0  0  0  0  0  0  0  0  0
   57.9544   33.3945   47.3638 H   0  0  0  0  0  0  0  0  0  0  0  0
   59.0324   35.1179   48.7354 H   0  0  0  0  0  0  0  0  0  0  0  0
  1  2  2  0
  2  3  1  0
  3  4  2  0
  4  5  1  0
  5  6  2  0
  6  7  1  0
  7  8  2  0
  8  9  1  0
  9 10  1  0
 10 11  2  0
 11 12  1  0
 12 13  2  0
 13 14  1  0
 14 15  2  0
  7 16  1  0
 16 17  1  0
 17 18  1  0
 18 19  2  0
 19 20  1  0
 20 21  2  0
  4 22  1  0
 22 23  2  0
 23  1  1  0
 21  5  1  0
 15 10  1  0
 20 16  1  0
  1 24  1  0
  2 25  1  0
  3 26  1  0
  6 27  1  0
  9 28  1  0
  9 29  1  0
 11 30  1  0
 12 31  1  0
 13 32  1  0
 15 33  1  0
 17 34  1  0
 18 35  1  0
 22 36  1  0
 23 37  1  0
M  END
>  <smiles>  (30) 
c1ccc(-c2cc(=NCc3cccnc3)n3[nH]cnc3n2)cc1

>  <score_type>  (30) 
oracle

>  <origin>  (30) 
adg

>  <m_score__min__energy>  (30) 
-7.75

>  <m_primary>  (30) 
energy

$$$$
30:0
     RDKit          3D

 40 43  0  0  0  0  0  0  0  0999 V2000
   58.8140   31.6710   47.5600 O   0  0  0  0  0  0  0  0  0  0  0  0
   58.4680   32.0580   46.4080 C   0  0  0  0  0  0  0  0  0  0  0  0
   57.9840   31.1250   45.4740 C   0  0  0  0  0  0  0  0  0  0  0  0
   57.8690   29.7550   45.7740 C   0  0  0  0  0  0  0  0  0  0  0  0
   57.3800   28.8510   44.8140 C   0  0  0  0  0  0  0  0  0  0  0  0
   57.2580   27.4050   45.1330 C   0  0  0  0  0  0  0  0  0  0  0  0
   58.1440   26.4660   44.5760 C   0  0  0  0  0  0  0  0  0  0  0  0
   58.0190   25.1100   44.8860 C   0  0  0  0  0  0  0  0  0  0  0  0
   57.0050   24.6990   45.7520 C   0  0  0  0  0  0  0  0  0  0  0  0
   56.8240   23.0040   46.1580 Cl  0  0  0  0  0  0  0  0  0  0  0  0
   56.1520   25.6130   46.2840 N   0  0  0  0  0  0  0  0  0  0  0  0
   56.2550   26.9390   46.0000 C   0  0  0  0  0  0  0  0  0  0  0  0
   57.0090   29.3330   43.5470 C   0  0  0  0  0  0  0  0  0  0  0  0
   57.1200   30.6910   43.2430 C   0  0  0  0  0  0  0  0  0  0  0  0
   57.6060   31.5930   44.2000 C   0  0  0  0  0  0  0  0  0  0  0  0
   57.7130   32.9170   43.9080 N   0  0  0  0  0  0  0  0  0  0  0  0
   58.1820   33.8020   44.8260 C   0  0  0  0  0  0  0  0  0  0  0  0
   58.5650   33.3840   46.0700 N   0  0  0  0  0  0  0  0  0  0  0  0
   59.0390   34.3810   47.0450 C   0  0  0  0  0  0  0  0  0  0  0  0
   60.4750   34.1110   47.4190 C   0  0  0  0  0  0  0  0  0  0  0  0
   61.4160   33.8370   46.4110 C   0  0  0  0  0  0  0  0  0  0  0  0
   62.7560   33.6100   46.7360 C   0  0  0  0  0  0  0  0  0  0  0  0
   63.1700   33.6560   48.0700 C   0  0  0  0  0  0  0  0  0  0  0  0
   64.4700   33.4360   48.3840 F   0  0  0  0  0  0  0  0  0  0  0  0
   62.2440   33.9290   49.0790 C   0  0  0  0  0  0  0  0  0  0  0  0
   60.9010   34.1580   48.7600 C   0  0  0  0  0  0  0  0  0  0  0  0
   60.0210   34.4160   49.7610 F   0  0  0  0  0  0  0  0  0  0  0  0
   58.1641   29.3879   46.7680 H   0  0  0  0  0  0  0  0  0  0  0  0
   58.9389   26.8008   43.8933 H   0  0  0  0  0  0  0  0  0  0  0  0
   58.7122   24.3742   44.4523 H   0  0  0  0  0  0  0  0  0  0  0  0
   55.5488   27.6512   46.4518 H   0  0  0  0  0  0  0  0  0  0  0  0
   56.6277   28.6339   42.7881 H   0  0  0  0  0  0  0  0  0  0  0  0
   56.8247   31.0551   42.2479 H   0  0  0  0  0  0  0  0  0  0  0  0
   57.4320   33.2750   42.9670 H   0  0  0  0  0  0  0  0  0  0  0  0
   58.2544   34.8681   44.5650 H   0  0  0  0  0  0  0  0  0  0  0  0
   58.9626   35.3852   46.6025 H   0  0  0  0  0  0  0  0  0  0  0  0
   58.4171   34.3178   47.9502 H   0  0  0  0  0  0  0  0  0  0  0  0
   61.0953   33.8011   45.3594 H   0  0  0  0  0  0  0  0  0  0  0  0
   63.4855   33.3950   45.9413 H   0  0  0  0  0  0  0  0  0  0  0  0
   62.5716   33.9642   50.1285 H   0  0  0  0  0  0  0  0  0  0  0  0
  1  2  2  0
  2  3  1  0
  3  4  2  0
  4  5  1  0
  5  6  1  0
  6  7  2  0
  7  8  1  0
  8  9  2  0
  9 10  1  0
  9 11  1  0
 11 12  2  0
  5 13  2  0
 13 14  1  0
 14 15  2  0
 15 16  1  0
 16 17  2  0
 17 18  1  0
 18 19  1  0
 19 20  1  0
 20 21  2  0
 21 22  1  0
 22 23  2  0
 23 24  1  0
 23 25  1  0
 25 26  2  0
 26 27  1  0
 18  2  1  0
 26 20  1  0
 15  3  1  0
 12  6  1  0
  4 28  1  0
  7 29  1  0
  8 30  1  0
 12 31  1  0
 13 32  1  0
 14 33  1  0
 16 34  1  0
 17 35  1  0
 19 36  1  0
 19 37  1  0
 21 38  1  0
 22 39  1  0
 25 40  1  0
M  CHG  1  16   1
M  END
>  <UniqueID>  (31) 
28

>  <SMILES>  (31) 
O=c1c2cc(-c3ccc(Cl)nc3)ccc2[nH+]cn1Cc1ccc(F)cc1F

>  <Energy>  (31) 
57.11932291855041

>  <Genealogy>  (31) 
O=c1c2cc(-c3ccc(Cl)nc3)ccc2[nH+]cn1Cc1ccc(F)cc1F (protonated)
O=c1c2cc(-c3ccc(Cl)nc3)ccc2[nH+]cn1Cc1ccc(F)cc1F (3D coordinates assigned)
O=c1c2cc(-c3ccc(Cl)nc3)ccc2[nH+]cn1Cc1ccc(F)cc1F (optimized conformer: 57.11932291855041 kcal/mol)

>  <smiles>  (31) 
O=c1c2cc(-c3ccc(Cl)nc3)ccc2ncn1Cc1ccc(F)cc1F

>  <score_type>  (31) 
oracle

>  <origin>  (31) 
adg

>  <m_score__min__energy>  (31) 
-7.04

>  <m_primary>  (31) 
energy

$$$$
31:0
     RDKit          3D

 49 53  0  0  0  0  0  0  0  0999 V2000
   60.0530   33.5770   50.3590 C   0  0  0  0  0  0  0  0  0  0  0  0
   59.9050   34.3470   49.1700 O   0  0  0  0  0  0  0  0  0  0  0  0
   59.4450   33.8330   47.9480 C   0  0  0  0  0  0  0  0  0  0  0  0
   58.2560   33.0970   47.9430 C   0  0  0  0  0  0  0  0  0  0  0  0
   57.7530   32.5650   46.7520 C   0  0  0  0  0  0  0  0  0  0  0  0
   58.4320   32.7730   45.5380 C   0  0  0  0  0  0  0  0  0  0  0  0
   57.9240   32.2050   44.2680 C   0  0  0  0  0  0  0  0  0  0  0  0
   58.0220   32.9440   43.1270 N   0  0  0  0  0  0  0  0  0  0  0  0
   57.5850   32.4740   41.9300 C   0  0  0  0  0  0  0  0  0  0  0  0
   57.0190   31.2020   41.8610 C   0  0  0  0  0  0  0  0  0  0  0  0
   56.8980   30.4630   42.9940 N   0  0  0  0  0  0  0  0  0  0  0  0
   57.3270   30.9310   44.1980 C   0  0  0  0  0  0  0  0  0  0  0  0
   57.1520   30.1650   45.3560 O   0  0  0  0  0  0  0  0  0  0  0  0
   58.1390   29.2600   45.8450 C   0  0  0  0  0  0  0  0  0  0  0  0
   59.5280   29.7970   45.7140 C   0  0  0  0  0  0  0  0  0  0  0  0
   59.7570   29.9780   47.1590 N   0  0  0  0  0  0  0  0  0  0  0  0
   60.8060   30.4510   48.0010 C   0  0  0  0  0  0  0  0  0  0  0  0
   60.9840   29.9100   49.2810 C   0  0  0  0  0  0  0  0  0  0  0  0
   62.0150   30.3870   50.0940 C   0  0  0  0  0  0  0  0  0  0  0  0
   62.8600   31.3990   49.6240 C   0  0  0  0  0  0  0  0  0  0  0  0
   63.9050   31.9020   50.4130 C   0  0  0  0  0  0  0  0  0  0  0  0
   64.7330   32.9130   49.9130 C   0  0  0  0  0  0  0  0  0  0  0  0
   64.5200   33.4260   48.6290 C   0  0  0  0  0  0  0  0  0  0  0  0
   63.4810   32.9310   47.8360 C   0  0  0  0  0  0  0  0  0  0  0  0
   62.6490   31.9190   48.3270 C   0  0  0  0  0  0  0  0  0  0  0  0
   61.6350   31.4340   47.5580 N   0  0  0  0  0  0  0  0  0  0  0  0
   58.3900   29.4470   47.3050 C   0  0  0  0  0  0  0  0  0  0  0  0
   59.6360   33.4970   45.5460 C   0  0  0  0  0  0  0  0  0  0  0  0
   60.1370   34.0280   46.7380 C   0  0  0  0  0  0  0  0  0  0  0  0
   59.9277   34.2290   51.2360 H   0  0  0  0  0  0  0  0  0  0  0  0
   59.2908   32.7841   50.3796 H   0  0  0  0  0  0  0  0  0  0  0  0
   61.0548   33.1232   50.3796 H   0  0  0  0  0  0  0  0  0  0  0  0
   57.7114   32.9351   48.8849 H   0  0  0  0  0  0  0  0  0  0  0  0
   56.8212   31.9806   46.7645 H   0  0  0  0  0  0  0  0  0  0  0  0
   57.6768   33.0910   41.0240 H   0  0  0  0  0  0  0  0  0  0  0  0
   56.6733   30.8002   40.8971 H   0  0  0  0  0  0  0  0  0  0  0  0
   57.7990   28.3201   45.3856 H   0  0  0  0  0  0  0  0  0  0  0  0
   60.2224   29.0745   45.2604 H   0  0  0  0  0  0  0  0  0  0  0  0
   59.6683   30.6766   45.0685 H   0  0  0  0  0  0  0  0  0  0  0  0
   60.3162   29.1147   49.6435 H   0  0  0  0  0  0  0  0  0  0  0  0
   62.1623   29.9685   51.1006 H   0  0  0  0  0  0  0  0  0  0  0  0
   64.0734   31.5020   51.4238 H   0  0  0  0  0  0  0  0  0  0  0  0
   65.5538   33.3056   50.5312 H   0  0  0  0  0  0  0  0  0  0  0  0
   65.1729   34.2222   48.2420 H   0  0  0  0  0  0  0  0  0  0  0  0
   63.3175   33.3367   46.8267 H   0  0  0  0  0  0  0  0  0  0  0  0
   58.3590   28.5014   47.8661 H   0  0  0  0  0  0  0  0  0  0  0  0
   57.6694   30.0625   47.8635 H   0  0  0  0  0  0  0  0  0  0  0  0
   60.1887   33.6472   44.6069 H   0  0  0  0  0  0  0  0  0  0  0  0
   61.0761   34.6007   46.7304 H   0  0  0  0  0  0  0  0  0  0  0  0
  1  2  1  0
  2  3  1  0
  3  4  2  0
  4  5  1  0
  5  6  2  0
  6  7  1  0
  7  8  2  0
  8  9  1  0
  9 10  2  0
 10 11  1  0
 11 12  2  0
 12 13  1  0
 13 14  1  0
 14 15  1  0
 15 16  1  0
 16 17  1  0
 17 18  2  0
 18 19  1  0
 19 20  2  0
 20 21  1  0
 21 22  2  0
 22 23  1  0
 23 24  2  0
 24 25  1  0
 25 26  2  0
 16 27  1  0
  6 28  1  0
 28 29  2  0
 29  3  1  0
 12  7  1  0
 27 14  1  0
 26 17  1  0
 25 20  1  0
  1 30  1  0
  1 31  1  0
  1 32  1  0
  4 33  1  0
  5 34  1  0
  9 35  1  0
 10 36  1  0
 14 37  1  0
 15 38  1  0
 15 39  1  0
 18 40  1  0
 19 41  1  0
 21 42  1  0
 22 43  1  0
 23 44  1  0
 24 45  1  0
 27 46  1  0
 27 47  1  0
 28 48  1  0
 29 49  1  0
M  END
>  <UniqueID>  (32) 
29

>  <SMILES>  (32) 
COc1ccc(-c2nccnc2OC2CN(c3ccc4ccccc4n3)C2)cc1

>  <Energy>  (32) 
106.39915916874001

>  <Genealogy>  (32) 
COc1ccc(-c2nccnc2OC2CN(c3ccc4ccccc4n3)C2)cc1 (3D coordinates assigned)
COc1ccc(-c2nccnc2OC2CN(c3ccc4ccccc4n3)C2)cc1 (nonaromatic ring conformer: 106.39915916874001 kcal/mol)

>  <smiles>  (32) 
COc1ccc(-c2nccnc2OC2CN(c3ccc4ccccc4n3)C2)cc1

>  <score_type>  (32) 
oracle

>  <origin>  (32) 
adg

>  <m_score__min__energy>  (32) 
-9.3699999999999992

>  <m_primary>  (32) 
energy

$$$$
32:0
     RDKit          3D

 51 54  0  0  0  0  0  0  0  0999 V2000
   64.6950   34.5800   51.6790 C   0  0  0  0  0  0  0  0  0  0  0  0
   64.0670   33.3850   51.1160 N   0  0  0  0  0  0  0  0  0  0  0  0
   64.9210   32.2670   50.7190 C   0  0  0  0  0  0  0  0  0  0  0  0
   62.7460   33.4950   50.5590 C   0  0  0  0  0  0  0  0  0  0  0  0
   61.6410   33.4780   51.4170 C   0  0  0  0  0  0  0  0  0  0  0  0
   60.3500   33.5730   50.9080 C   0  0  0  0  0  0  0  0  0  0  0  0
   60.1390   33.6730   49.5330 C   0  0  0  0  0  0  0  0  0  0  0  0
   61.2260   33.6740   48.6330 C   0  0  0  0  0  0  0  0  0  0  0  0
   61.0370   33.7610   47.2240 C   0  0  0  0  0  0  0  0  0  0  0  0
   59.4200   33.7340   46.4790 S   0  0  0  0  0  0  0  0  0  0  0  0
   58.5870   34.8470   47.0520 O   0  0  0  0  0  0  0  0  0  0  0  0
   59.5710   33.9470   44.9980 O   0  0  0  0  0  0  0  0  0  0  0  0
   58.5740   32.2300   46.7350 N   0  0  0  0  0  0  0  0  0  0  0  0
   58.7220   31.3010   45.5930 C   0  0  1  0  0  0  0  0  0  0  0  0
   59.7270   30.1940   45.9540 C   0  0  0  0  0  0  0  0  0  0  0  0
   59.9640   30.1200   47.4390 C   0  0  0  0  0  0  0  0  0  0  0  0
   61.2160   30.4730   47.9720 C   0  0  0  0  0  0  0  0  0  0  0  0
   61.4250   30.4460   49.3550 C   0  0  0  0  0  0  0  0  0  0  0  0
   60.3870   30.0710   50.2130 C   0  0  0  0  0  0  0  0  0  0  0  0
   59.1370   29.7260   49.6910 C   0  0  0  0  0  0  0  0  0  0  0  0
   58.9240   29.7520   48.3090 C   0  0  0  0  0  0  0  0  0  0  0  0
   57.4040   30.6700   45.2270 C   0  0  0  0  0  0  0  0  0  0  0  0
   57.0440   29.4200   45.5720 N   0  0  0  0  0  0  0  0  0  0  0  0
   55.8260   29.2740   45.0740 N   0  0  0  0  0  0  0  0  0  0  0  0
   55.4580   30.3860   44.4570 N   0  0  0  0  0  0  0  0  0  0  0  0
   56.4250   31.2840   44.5380 N   0  0  0  0  0  0  0  0  0  0  0  0
   62.1620   33.8780   46.3940 C   0  0  0  0  0  0  0  0  0  0  0  0
   63.4500   33.8400   46.9190 C   0  0  0  0  0  0  0  0  0  0  0  0
   63.6460   33.6960   48.2880 C   0  0  0  0  0  0  0  0  0  0  0  0
   62.5490   33.6130   49.1620 C   0  0  0  0  0  0  0  0  0  0  0  0
   64.6667   34.5262   52.7773 H   0  0  0  0  0  0  0  0  0  0  0  0
   65.7403   34.6384   51.3415 H   0  0  0  0  0  0  0  0  0  0  0  0
   64.1502   35.4741   51.3415 H   0  0  0  0  0  0  0  0  0  0  0  0
   65.3062   31.7627   51.6175 H   0  0  0  0  0  0  0  0  0  0  0  0
   64.3360   31.5533   50.1204 H   0  0  0  0  0  0  0  0  0  0  0  0
   65.7635   32.6437   50.1204 H   0  0  0  0  0  0  0  0  0  0  0  0
   61.7944   33.3888   52.5026 H   0  0  0  0  0  0  0  0  0  0  0  0
   59.4902   33.5692   51.5941 H   0  0  0  0  0  0  0  0  0  0  0  0
   59.1126   33.7521   49.1453 H   0  0  0  0  0  0  0  0  0  0  0  0
   57.5760   32.4450   46.9610 H   0  0  0  0  0  0  0  0  0  0  0  0
   59.0854   31.8782   44.7300 H   0  0  0  0  0  0  0  0  0  0  0  0
   59.3325   29.2275   45.6073 H   0  0  0  0  0  0  0  0  0  0  0  0
   60.6844   30.4271   45.4651 H   0  0  0  0  0  0  0  0  0  0  0  0
   62.0338   30.7714   47.2996 H   0  0  0  0  0  0  0  0  0  0  0  0
   62.4071   30.7201   49.7677 H   0  0  0  0  0  0  0  0  0  0  0  0
   60.5540   30.0474   51.3000 H   0  0  0  0  0  0  0  0  0  0  0  0
   58.3204   29.4339   50.3676 H   0  0  0  0  0  0  0  0  0  0  0  0
   57.9382   29.4832   47.9015 H   0  0  0  0  0  0  0  0  0  0  0  0
   62.0235   34.0019   45.3098 H   0  0  0  0  0  0  0  0  0  0  0  0
   64.3174   33.9243   46.2478 H   0  0  0  0  0  0  0  0  0  0  0  0
   64.6686   33.6466   48.6902 H   0  0  0  0  0  0  0  0  0  0  0  0
  1  2  1  0
  2  3  1  0
  2  4  1  0
  4  5  2  0
  5  6  1  0
  6  7  2  0
  7  8  1  0
  8  9  2  0
  9 10  1  0
 10 11  2  0
 10 12  2  0
 10 13  1  0
 13 14  1  0
 14 15  1  0
 15 16  1  0
 16 17  2  0
 17 18  1  0
 18 19  2  0
 19 20  1  0
 20 21  2  0
 14 22  1  0
 22 23  1  0
 23 24  2  0
 24 25  1  0
 25 26  1  0
  9 27  1  0
 27 28  2  0
 28 29  1  0
 29 30  2  0
 30  4  1  0
 30  8  1  0
 21 16  1  0
 26 22  2  0
  1 31  1  0
  1 32  1  0
  1 33  1  0
  3 34  1  0
  3 35  1  0
  3 36  1  0
  5 37  1  0
  6 38  1  0
  7 39  1  0
 13 40  1  0
 14 41  1  6
 15 42  1  0
 15 43  1  0
 17 44  1  0
 18 45  1  0
 19 46  1  0
 20 47  1  0
 21 48  1  0
 27 49  1  0
 28 50  1  0
 29 51  1  0
M  CHG  1  25  -1
M  END
>  <UniqueID>  (33) 
30

>  <SMILES>  (33) 
CN(C)c1cccc2c(S(=O)(=O)N[C@@H](Cc3ccccc3)c3nn[n-]n3)cccc12

>  <Energy>  (33) 
103.88592372147515

>  <Genealogy>  (33) 
CN(C)c1cccc2c(S(=O)(=O)NC(Cc3ccccc3)c3nn[n-]n3)cccc12 (protonated)
CN(C)c1cccc2c(S(=O)(=O)N[C@@H](Cc3ccccc3)c3nn[n-]n3)cccc12 (chirality)
CN(C)c1cccc2c(S(=O)(=O)N[C@@H](Cc3ccccc3)c3nn[n-]n3)cccc12 (3D coordinates assigned)
CN(C)c1cccc2c(S(=O)(=O)N[C@@H](Cc3ccccc3)c3nn[n-]n3)cccc12 (optimized conformer: 103.88592372147515 kcal/mol)

>  <smiles>  (33) 
CN(C)c1cccc2c(S(=O)(=O)NC(Cc3ccccc3)c3nn[nH]n3)cccc12

>  <score_type>  (33) 
oracle

>  <origin>  (33) 
adg

>  <m_score__min__energy>  (33) 
-11.27

>  <m_primary>  (33) 
energy

$$$$
33:0
     RDKit          3D

 55 58  0  0  0  0  0  0  0  0999 V2000
   56.8970   26.8870   46.0400 C   0  0  0  0  0  0  0  0  0  0  0  0
   56.8100   28.2730   45.3760 C   0  0  0  0  0  0  0  0  0  0  0  0
   57.5510   28.3900   44.0970 N   0  0  0  0  0  0  0  0  0  0  0  0
   58.3280   27.1910   43.7070 C   0  0  0  0  0  0  0  0  0  0  0  0
   58.1200   26.7520   42.2550 C   0  0  0  0  0  0  0  0  0  0  0  0
   56.8330   29.0680   42.9950 C   0  0  0  0  0  0  0  0  0  0  0  0
   56.2440   30.4170   43.4370 C   0  0  0  0  0  0  0  0  0  0  0  0
   57.3070   31.4950   43.7090 C   0  0  0  0  0  0  0  0  0  0  0  0
   58.5350   30.9410   44.2950 N   0  0  0  0  0  0  0  0  0  0  0  0
   59.0230   31.3210   45.5940 C   0  0  0  0  0  0  0  0  0  0  0  0
   59.1790   32.6700   45.9940 C   0  0  0  0  0  0  0  0  0  0  0  0
   59.1070   33.7180   45.0550 C   0  0  0  0  0  0  0  0  0  0  0  0
   59.2770   35.0430   45.4500 C   0  0  0  0  0  0  0  0  0  0  0  0
   59.5580   35.3460   46.7780 C   0  0  0  0  0  0  0  0  0  0  0  0
   59.6810   34.3290   47.7240 C   0  0  0  0  0  0  0  0  0  0  0  0
   59.4890   32.9730   47.3650 C   0  0  0  0  0  0  0  0  0  0  0  0
   59.6340   31.9500   48.2910 N   0  0  0  0  0  0  0  0  0  0  0  0
   59.6830   32.2130   49.7390 C   0  0  0  0  0  0  0  0  0  0  0  0
   59.6870   30.6630   47.8210 C   0  0  0  0  0  0  0  0  0  0  0  0
   59.3680   30.3410   46.5190 C   0  0  0  0  0  0  0  0  0  0  0  0
   59.4350   29.0080   46.3060 N   0  0  0  0  0  0  0  0  0  0  0  0
   59.8200   28.4860   47.4860 C   0  0  0  0  0  0  0  0  0  0  0  0
   60.0730   27.1470   47.7630 C   0  0  0  0  0  0  0  0  0  0  0  0
   60.5280   26.8180   49.0070 N   0  0  0  0  0  0  0  0  0  0  0  0
   60.7480   27.7640   49.9720 C   0  0  0  0  0  0  0  0  0  0  0  0
   60.5040   29.1240   49.7100 C   0  0  0  0  0  0  0  0  0  0  0  0
   60.0020   29.4580   48.4480 C   0  0  0  0  0  0  0  0  0  0  0  0
   56.8897   27.0033   47.1338 H   0  0  0  0  0  0  0  0  0  0  0  0
   56.0354   26.2773   45.7303 H   0  0  0  0  0  0  0  0  0  0  0  0
   57.8281   26.3899   45.7303 H   0  0  0  0  0  0  0  0  0  0  0  0
   55.7504   28.4944   45.1806 H   0  0  0  0  0  0  0  0  0  0  0  0
   57.2765   28.9839   46.0738 H   0  0  0  0  0  0  0  0  0  0  0  0
   59.3962   27.4105   43.8512 H   0  0  0  0  0  0  0  0  0  0  0  0
   57.9728   26.3649   44.3405 H   0  0  0  0  0  0  0  0  0  0  0  0
   57.6491   25.7581   42.2363 H   0  0  0  0  0  0  0  0  0  0  0  0
   57.4691   27.4758   41.7428 H   0  0  0  0  0  0  0  0  0  0  0  0
   59.0924   26.7067   41.7428 H   0  0  0  0  0  0  0  0  0  0  0  0
   57.5357   29.2414   42.1667 H   0  0  0  0  0  0  0  0  0  0  0  0
   56.0013   28.4200   42.6814 H   0  0  0  0  0  0  0  0  0  0  0  0
   55.5751   30.7810   42.6432 H   0  0  0  0  0  0  0  0  0  0  0  0
   55.7133   30.2417   44.3844 H   0  0  0  0  0  0  0  0  0  0  0  0
   57.5609   31.9874   42.7587 H   0  0  0  0  0  0  0  0  0  0  0  0
   56.8832   32.2062   44.4332 H   0  0  0  0  0  0  0  0  0  0  0  0
   58.9420   30.0910   43.8440 H   0  0  0  0  0  0  0  0  0  0  0  0
   58.9142   33.4871   43.9969 H   0  0  0  0  0  0  0  0  0  0  0  0
   59.1888   35.8518   44.7096 H   0  0  0  0  0  0  0  0  0  0  0  0
   59.6841   36.3950   47.0841 H   0  0  0  0  0  0  0  0  0  0  0  0
   59.9309   34.5840   48.7645 H   0  0  0  0  0  0  0  0  0  0  0  0
   59.5084   31.2759   50.2880 H   0  0  0  0  0  0  0  0  0  0  0  0
   60.6715   32.6153   50.0054 H   0  0  0  0  0  0  0  0  0  0  0  0
   58.9056   32.9443   50.0054 H   0  0  0  0  0  0  0  0  0  0  0  0
   59.2630   28.4890   45.4170 H   0  0  0  0  0  0  0  0  0  0  0  0
   59.9105   26.3726   46.9989 H   0  0  0  0  0  0  0  0  0  0  0  0
   61.1190   27.4575   50.9612 H   0  0  0  0  0  0  0  0  0  0  0  0
   60.7005   29.8958   50.4688 H   0  0  0  0  0  0  0  0  0  0  0  0
  1  2  1  0
  2  3  1  0
  3  4  1  0
  4  5  1  0
  3  6  1  0
  6  7  1  0
  7  8  1  0
  8  9  1  0
  9 10  1  0
 10 11  2  0
 11 12  1  0
 12 13  2  0
 13 14  1  0
 14 15  2  0
 15 16  1  0
 16 17  2  0
 17 18  1  0
 17 19  1  0
 19 20  2  0
 20 21  1  0
 21 22  1  0
 22 23  2  0
 23 24  1  0
 24 25  2  0
 25 26  1  0
 26 27  2  0
 20 10  1  0
 27 22  1  0
 16 11  1  0
 27 19  1  0
  1 28  1  0
  1 29  1  0
  1 30  1  0
  2 31  1  0
  2 32  1  0
  4 33  1  0
  4 34  1  0
  5 35  1  0
  5 36  1  0
  5 37  1  0
  6 38  1  0
  6 39  1  0
  7 40  1  0
  7 41  1  0
  8 42  1  0
  8 43  1  0
  9 44  1  0
 12 45  1  0
 13 46  1  0
 14 47  1  0
 15 48  1  0
 18 49  1  0
 18 50  1  0
 18 51  1  0
 21 52  1  0
 23 53  1  0
 25 54  1  0
 26 55  1  0
M  CHG  1  17   1
M  END
>  <UniqueID>  (34) 
31

>  <SMILES>  (34) 
CCN(CC)CCCNc1c2ccccc2[n+](C)c2c1[nH]c1cnccc12

>  <Energy>  (34) 
123.70159330498517

>  <Genealogy>  (34) 
CCN(CC)CCCNc1c2ccccc2[n+](C)c2c1[nH]c1cnccc12 (3D coordinates assigned)
CCN(CC)CCCNc1c2ccccc2[n+](C)c2c1[nH]c1cnccc12 (optimized conformer: 123.70159330498517 kcal/mol)

>  <smiles>  (34) 
CCN(CC)CCCNc1c2ccccc2[n+](C)c2c1[nH]c1cnccc12

>  <score_type>  (34) 
oracle

>  <origin>  (34) 
adg

>  <m_score__min__energy>  (34) 
-6.71

>  <m_primary>  (34) 
energy

$$$$
34:0
     RDKit          3D

 24 24  0  0  0  0  0  0  0  0999 V2000
   58.1340   32.3360   42.4510 C   0  0  0  0  0  0  0  0  0  0  0  0
   57.7240   32.3600   43.8600 N   0  0  0  0  0  0  0  0  0  0  0  0
   57.3980   33.6330   44.5090 C   0  0  0  0  0  0  0  0  0  0  0  0
   57.6750   31.1420   44.6320 C   0  0  0  0  0  0  0  0  0  0  0  0
   57.4000   31.1950   45.8630 O   0  0  0  0  0  0  0  0  0  0  0  0
   57.9080   29.8640   44.0140 N   0  0  0  0  0  0  0  0  0  0  0  0
   58.1700   28.6660   44.7620 C   0  0  0  0  0  0  0  0  0  0  0  0
   59.4990   28.2610   44.9680 C   0  0  0  0  0  0  0  0  0  0  0  0
   59.7820   27.1070   45.7040 C   0  0  0  0  0  0  0  0  0  0  0  0
   58.7400   26.3560   46.2560 C   0  0  0  0  0  0  0  0  0  0  0  0
   59.0160   25.2380   46.9720 F   0  0  0  0  0  0  0  0  0  0  0  0
   57.4160   26.7640   46.0800 C   0  0  0  0  0  0  0  0  0  0  0  0
   57.1270   27.9180   45.3430 C   0  0  0  0  0  0  0  0  0  0  0  0
   55.8370   28.3270   45.2390 F   0  0  0  0  0  0  0  0  0  0  0  0
   59.2304   32.2718   42.3892 H   0  0  0  0  0  0  0  0  0  0  0  0
   57.6870   31.4625   41.9539 H   0  0  0  0  0  0  0  0  0  0  0  0
   57.7919   33.2557   41.9539 H   0  0  0  0  0  0  0  0  0  0  0  0
   57.4304   33.5066   45.6012 H   0  0  0  0  0  0  0  0  0  0  0  0
   58.1295   34.3967   44.2064 H   0  0  0  0  0  0  0  0  0  0  0  0
   56.3894   33.9511   44.2064 H   0  0  0  0  0  0  0  0  0  0  0  0
   57.7350   29.7630   42.9890 H   0  0  0  0  0  0  0  0  0  0  0  0
   60.3228   28.8562   44.5472 H   0  0  0  0  0  0  0  0  0  0  0  0
   60.8252   26.7895   45.8490 H   0  0  0  0  0  0  0  0  0  0  0  0
   56.5978   26.1765   46.5220 H   0  0  0  0  0  0  0  0  0  0  0  0
  1  2  1  0
  2  3  1  0
  2  4  1  0
  4  5  2  0
  4  6  1  0
  6  7  1  0
  7  8  2  0
  8  9  1  0
  9 10  2  0
 10 11  1  0
 10 12  1  0
 12 13  2  0
 13 14  1  0
 13  7  1  0
  1 15  1  0
  1 16  1  0
  1 17  1  0
  3 18  1  0
  3 19  1  0
  3 20  1  0
  6 21  1  0
  8 22  1  0
  9 23  1  0
 12 24  1  0
M  END
>  <UniqueID>  (35) 
32

>  <SMILES>  (35) 
CN(C)C(=O)Nc1ccc(F)cc1F

>  <Energy>  (35) 
24.467176351930256

>  <Genealogy>  (35) 
CN(C)C(=O)Nc1ccc(F)cc1F (3D coordinates assigned)
CN(C)C(=O)Nc1ccc(F)cc1F (optimized conformer: 24.467176351930256 kcal/mol)

>  <smiles>  (35) 
CN(C)C(=O)Nc1ccc(F)cc1F

>  <score_type>  (35) 
oracle

>  <origin>  (35) 
adg

>  <m_score__min__energy>  (35) 
-4.9900000000000002

>  <m_primary>  (35) 
energy

$$$$
35:0
     RDKit          3D

 29 31  0  0  0  0  0  0  0  0999 V2000
   55.1710   25.2440   45.6470 C   0  0  0  0  0  0  0  0  0  0  0  0
   55.3930   26.6240   45.9180 O   0  0  0  0  0  0  0  0  0  0  0  0
   56.5980   27.2970   45.6670 C   0  0  0  0  0  0  0  0  0  0  0  0
   57.7990   26.6020   45.8490 C   0  0  0  0  0  0  0  0  0  0  0  0
   59.0240   27.2250   45.6000 C   0  0  0  0  0  0  0  0  0  0  0  0
   59.0590   28.5550   45.1760 C   0  0  0  0  0  0  0  0  0  0  0  0
   57.8690   29.2780   45.0110 C   0  0  0  0  0  0  0  0  0  0  0  0
   57.9180   30.6410   44.5560 N   0  0  0  0  0  0  0  0  0  0  0  0
   57.6310   31.0050   43.3110 N   0  0  0  0  0  0  0  0  0  0  0  0
   57.7660   32.3490   43.2130 C   0  0  0  0  0  0  0  0  0  0  0  0
   58.1600   32.8330   44.4410 C   0  0  0  0  0  0  0  0  0  0  0  0
   58.4710   34.1200   44.8730 C   0  0  0  0  0  0  0  0  0  0  0  0
   58.9030   34.2720   46.2040 C   0  0  0  0  0  0  0  0  0  0  0  0
   59.2200   35.5040   46.6720 F   0  0  0  0  0  0  0  0  0  0  0  0
   59.0240   33.1460   47.0510 C   0  0  0  0  0  0  0  0  0  0  0  0
   58.7050   31.8580   46.5780 C   0  0  0  0  0  0  0  0  0  0  0  0
   58.2510   31.7430   45.2600 C   0  0  0  0  0  0  0  0  0  0  0  0
   56.6380   28.6380   45.2390 C   0  0  0  0  0  0  0  0  0  0  0  0
   55.0825   24.6937   46.5953 H   0  0  0  0  0  0  0  0  0  0  0  0
   54.2428   25.1287   45.0681 H   0  0  0  0  0  0  0  0  0  0  0  0
   56.0162   24.8434   45.0681 H   0  0  0  0  0  0  0  0  0  0  0  0
   57.7780   25.5567   46.1909 H   0  0  0  0  0  0  0  0  0  0  0  0
   59.9621   26.6674   45.7380 H   0  0  0  0  0  0  0  0  0  0  0  0
   60.0255   29.0382   44.9703 H   0  0  0  0  0  0  0  0  0  0  0  0
   57.5912   32.9504   42.3087 H   0  0  0  0  0  0  0  0  0  0  0  0
   58.3824   34.9851   44.1994 H   0  0  0  0  0  0  0  0  0  0  0  0
   59.3698   33.2769   48.0870 H   0  0  0  0  0  0  0  0  0  0  0  0
   58.8094   30.9731   47.2230 H   0  0  0  0  0  0  0  0  0  0  0  0
   55.6990   29.1890   45.0818 H   0  0  0  0  0  0  0  0  0  0  0  0
  1  2  1  0
  2  3  1  0
  3  4  2  0
  4  5  1  0
  5  6  2  0
  6  7  1  0
  7  8  1  0
  8  9  1  0
  9 10  2  0
 10 11  1  0
 11 12  2  0
 12 13  1  0
 13 14  1  0
 13 15  2  0
 15 16  1  0
 16 17  2  0
  7 18  2  0
 18  3  1  0
 17  8  1  0
 17 11  1  0
  1 19  1  0
  1 20  1  0
  1 21  1  0
  4 22  1  0
  5 23  1  0
  6 24  1  0
 10 25  1  0
 12 26  1  0
 15 27  1  0
 16 28  1  0
 18 29  1  0
M  END
>  <UniqueID>  (36) 
33

>  <SMILES>  (36) 
COc1cccc(-n2ncc3cc(F)ccc32)c1

>  <Energy>  (36) 
75.18684545790104

>  <Genealogy>  (36) 
COc1cccc(-n2ncc3cc(F)ccc32)c1 (3D coordinates assigned)
COc1cccc(-n2ncc3cc(F)ccc32)c1 (optimized conformer: 75.18684545790104 kcal/mol)

>  <smiles>  (36) 
COc1cccc(-n2ncc3cc(F)ccc32)c1

>  <score_type>  (36) 
oracle

>  <origin>  (36) 
adg

>  <m_score__min__energy>  (36) 
-6.71

>  <m_primary>  (36) 
energy

$$$$
36:0
     RDKit          3D

 37 38  0  0  0  0  0  0  0  0999 V2000
   58.9160   34.8270   44.9100 C   0  0  0  0  0  0  0  0  0  0  0  0
   57.7930   34.0650   45.6070 C   0  0  0  0  0  0  0  0  0  0  0  0
   57.9490   32.5780   45.4040 C   0  0  0  0  0  0  0  0  0  0  0  0
   57.1740   31.9240   44.4330 C   0  0  0  0  0  0  0  0  0  0  0  0
   57.2850   30.5420   44.2470 C   0  0  0  0  0  0  0  0  0  0  0  0
   56.2980   29.7690   43.0130 Cl  0  0  0  0  0  0  0  0  0  0  0  0
   58.1760   29.7990   45.0360 C   0  0  0  0  0  0  0  0  0  0  0  0
   58.3570   28.0640   44.8200 Cl  0  0  0  0  0  0  0  0  0  0  0  0
   58.9400   30.4440   46.0140 C   0  0  0  0  0  0  0  0  0  0  0  0
   58.8160   31.8290   46.2220 C   0  0  0  0  0  0  0  0  0  0  0  0
   59.5760   32.4860   47.2000 O   0  0  0  0  0  0  0  0  0  0  0  0
   60.9720   32.6390   47.1870 C   0  0  0  0  0  0  0  0  0  0  0  0
   61.5840   33.7290   46.5390 C   0  0  0  0  0  0  0  0  0  0  0  0
   62.9760   33.8490   46.5210 C   0  0  0  0  0  0  0  0  0  0  0  0
   63.7700   32.8790   47.1330 C   0  0  0  0  0  0  0  0  0  0  0  0
   63.1760   31.7820   47.7600 C   0  0  0  0  0  0  0  0  0  0  0  0
   61.7770   31.6510   47.7900 C   0  0  0  0  0  0  0  0  0  0  0  0
   61.1510   30.4390   48.4470 C   0  0  0  0  0  0  0  0  0  0  0  0
   60.0290   30.7990   49.3260 N   0  0  0  0  0  0  0  0  0  0  0  0
   59.0420   29.7210   49.4200 C   0  0  0  0  0  0  0  0  0  0  0  0
   59.5780   35.2762   45.6650 H   0  0  0  0  0  0  0  0  0  0  0  0
   59.4942   34.1339   44.2812 H   0  0  0  0  0  0  0  0  0  0  0  0
   58.4856   35.6203   44.2812 H   0  0  0  0  0  0  0  0  0  0  0  0
   57.8208   34.2869   46.6840 H   0  0  0  0  0  0  0  0  0  0  0  0
   56.8316   34.3811   45.1759 H   0  0  0  0  0  0  0  0  0  0  0  0
   56.4736   32.5032   43.8133 H   0  0  0  0  0  0  0  0  0  0  0  0
   59.6446   29.8621   46.6263 H   0  0  0  0  0  0  0  0  0  0  0  0
   60.9629   34.4902   46.0442 H   0  0  0  0  0  0  0  0  0  0  0  0
   63.4465   34.7098   46.0234 H   0  0  0  0  0  0  0  0  0  0  0  0
   64.8654   32.9785   47.1216 H   0  0  0  0  0  0  0  0  0  0  0  0
   63.8070   31.0154   48.2335 H   0  0  0  0  0  0  0  0  0  0  0  0
   60.7827   29.7618   47.6623 H   0  0  0  0  0  0  0  0  0  0  0  0
   61.9216   29.9553   49.0653 H   0  0  0  0  0  0  0  0  0  0  0  0
   59.5520   31.6560   48.9580 H   0  0  0  0  0  0  0  0  0  0  0  0
   58.8399   29.5002   50.4785 H   0  0  0  0  0  0  0  0  0  0  0  0
   58.1100   30.0331   48.9261 H   0  0  0  0  0  0  0  0  0  0  0  0
   59.4349   28.8201   48.9261 H   0  0  0  0  0  0  0  0  0  0  0  0
  1  2  1  0
  2  3  1  0
  3  4  2  0
  4  5  1  0
  5  6  1  0
  5  7  2  0
  7  8  1  0
  7  9  1  0
  9 10  2  0
 10 11  1  0
 11 12  1  0
 12 13  2  0
 13 14  1  0
 14 15  2  0
 15 16  1  0
 16 17  2  0
 17 18  1  0
 18 19  1  0
 19 20  1  0
 10  3  1  0
 17 12  1  0
  1 21  1  0
  1 22  1  0
  1 23  1  0
  2 24  1  0
  2 25  1  0
  4 26  1  0
  9 27  1  0
 13 28  1  0
 14 29  1  0
 15 30  1  0
 16 31  1  0
 18 32  1  0
 18 33  1  0
 19 34  1  0
 20 35  1  0
 20 36  1  0
 20 37  1  0
M  END
>  <UniqueID>  (37) 
34

>  <SMILES>  (37) 
CCc1cc(Cl)c(Cl)cc1Oc1ccccc1CNC

>  <Energy>  (37) 
40.155451562515495

>  <Genealogy>  (37) 
CCc1cc(Cl)c(Cl)cc1Oc1ccccc1CNC (3D coordinates assigned)
CCc1cc(Cl)c(Cl)cc1Oc1ccccc1CNC (optimized conformer: 40.155451562515495 kcal/mol)

>  <smiles>  (37) 
CCc1cc(Cl)c(Cl)cc1Oc1ccccc1CNC

>  <score_type>  (37) 
oracle

>  <origin>  (37) 
adg

>  <m_score__min__energy>  (37) 
-6.9100000000000001

>  <m_primary>  (37) 
energy

$$$$
37:0
     RDKit          3D

 34 36  0  0  0  0  0  0  0  0999 V2000
   57.7570   32.0260   42.1330 C   0  0  0  0  0  0  0  0  0  0  0  0
   57.1350   31.5690   43.3300 O   0  0  0  0  0  0  0  0  0  0  0  0
   57.5750   31.8900   44.6230 C   0  0  0  0  0  0  0  0  0  0  0  0
   58.1360   30.8740   45.4060 C   0  0  0  0  0  0  0  0  0  0  0  0
   58.5910   31.1440   46.6990 C   0  0  0  0  0  0  0  0  0  0  0  0
   58.5030   32.4430   47.2250 C   0  0  0  0  0  0  0  0  0  0  0  0
   58.9510   32.7240   48.5610 N   0  0  0  0  0  0  0  0  0  0  0  0
   58.1440   32.7040   49.6120 N   0  0  0  0  0  0  0  0  0  0  0  0
   58.8780   32.8910   50.7240 C   0  0  0  0  0  0  0  0  0  0  0  0
   58.3330   32.8340   52.1170 C   0  0  0  0  0  0  0  0  0  0  0  0
   57.0920   32.2230   52.1190 F   0  0  0  0  0  0  0  0  0  0  0  0
   59.1890   32.1110   52.9290 F   0  0  0  0  0  0  0  0  0  0  0  0
   58.2110   34.1170   52.6140 F   0  0  0  0  0  0  0  0  0  0  0  0
   60.2110   33.0170   50.3740 C   0  0  0  0  0  0  0  0  0  0  0  0
   60.2200   32.9260   48.9930 C   0  0  0  0  0  0  0  0  0  0  0  0
   61.4190   33.0930   48.1490 C   0  0  0  0  0  0  0  0  0  0  0  0
   61.5190   33.8460   46.9830 C   0  0  0  0  0  0  0  0  0  0  0  0
   62.8090   33.8560   46.4390 C   0  0  0  0  0  0  0  0  0  0  0  0
   63.7340   33.1290   47.1790 C   0  0  0  0  0  0  0  0  0  0  0  0
   62.9430   32.4790   48.5120 S   0  0  0  0  0  0  0  0  0  0  0  0
   57.9240   33.4580   46.4510 C   0  0  0  0  0  0  0  0  0  0  0  0
   57.4690   33.1880   45.1570 C   0  0  0  0  0  0  0  0  0  0  0  0
   58.6195   32.6597   42.3869 H   0  0  0  0  0  0  0  0  0  0  0  0
   58.0977   31.1618   41.5438 H   0  0  0  0  0  0  0  0  0  0  0  0
   57.0341   32.6094   41.5438 H   0  0  0  0  0  0  0  0  0  0  0  0
   58.2192   29.8551   44.9999 H   0  0  0  0  0  0  0  0  0  0  0  0
   59.0204   30.3349   47.3081 H   0  0  0  0  0  0  0  0  0  0  0  0
   57.1160   32.5190   49.5740 H   0  0  0  0  0  0  0  0  0  0  0  0
   61.0718   33.1581   51.0442 H   0  0  0  0  0  0  0  0  0  0  0  0
   60.6690   34.3802   46.5334 H   0  0  0  0  0  0  0  0  0  0  0  0
   63.0665   34.3896   45.5122 H   0  0  0  0  0  0  0  0  0  0  0  0
   64.7989   33.0012   46.9347 H   0  0  0  0  0  0  0  0  0  0  0  0
   57.8271   34.4729   46.8641 H   0  0  0  0  0  0  0  0  0  0  0  0
   57.0260   33.9938   44.5533 H   0  0  0  0  0  0  0  0  0  0  0  0
  1  2  1  0
  2  3  1  0
  3  4  2  0
  4  5  1  0
  5  6  2  0
  6  7  1  0
  7  8  1  0
  8  9  2  0
  9 10  1  0
 10 11  1  0
 10 12  1  0
 10 13  1  0
  9 14  1  0
 14 15  2  0
 15 16  1  0
 16 17  2  0
 17 18  1  0
 18 19  2  0
 19 20  1  0
  6 21  1  0
 21 22  2  0
 22  3  1  0
 15  7  1  0
 20 16  1  0
  1 23  1  0
  1 24  1  0
  1 25  1  0
  4 26  1  0
  5 27  1  0
  8 28  1  0
 14 29  1  0
 17 30  1  0
 18 31  1  0
 19 32  1  0
 21 33  1  0
 22 34  1  0
M  CHG  1   8   1
M  END
>  <UniqueID>  (38) 
35

>  <SMILES>  (38) 
COc1ccc(-n2[nH+]c(C(F)(F)F)cc2-c2cccs2)cc1

>  <Energy>  (38) 
98.73209537086514

>  <Genealogy>  (38) 
COc1ccc(-n2[nH+]c(C(F)(F)F)cc2-c2cccs2)cc1 (protonated)
COc1ccc(-n2[nH+]c(C(F)(F)F)cc2-c2cccs2)cc1 (3D coordinates assigned)
COc1ccc(-n2[nH+]c(C(F)(F)F)cc2-c2cccs2)cc1 (optimized conformer: 98.73209537086514 kcal/mol)

>  <smiles>  (38) 
COc1ccc(-n2nc(C(F)(F)F)cc2-c2cccs2)cc1

>  <score_type>  (38) 
oracle

>  <origin>  (38) 
adg

>  <m_score__min__energy>  (38) 
-4.6600000000000001

>  <m_primary>  (38) 
energy

$$$$
38:0
     RDKit          3D

 52 54  0  0  0  0  0  0  0  0999 V2000
   56.8130   24.0980   42.9960 C   0  0  0  0  0  0  0  0  0  0  0  0
   57.4120   24.6040   44.2690 C   0  0  0  0  0  0  0  0  0  0  0  0
   57.3900   25.8890   44.6660 N   0  0  0  0  0  0  0  0  0  0  0  0
   58.0900   25.8980   45.8180 C   0  0  0  0  0  0  0  0  0  0  0  0
   58.3210   27.1230   46.6450 C   0  0  0  0  0  0  0  0  0  0  0  0
   59.0070   28.1510   45.8510 N   0  0  0  0  0  0  0  0  0  0  0  0
   60.4460   28.0360   45.6000 C   0  0  0  0  0  0  0  0  0  0  0  0
   58.2690   29.1630   45.1380 C   0  0  0  0  0  0  0  0  0  0  0  0
   57.2460   28.8280   44.4810 O   0  0  0  0  0  0  0  0  0  0  0  0
   58.6950   30.6160   45.1160 C   0  0  1  0  0  0  0  0  0  0  0  0
   58.4100   31.2970   43.7430 C   0  0  0  0  0  0  0  0  0  0  0  0
   57.7560   32.6890   43.8360 C   0  0  0  0  0  0  0  0  0  0  0  0
   58.3130   33.4710   44.9860 C   0  0  0  0  0  0  0  0  0  0  0  0
   58.5240   34.7070   44.8660 O   0  0  0  0  0  0  0  0  0  0  0  0
   58.5570   32.7980   46.2320 N   0  0  0  0  0  0  0  0  0  0  0  0
   59.2610   33.4620   47.3350 C   0  0  0  0  0  0  0  0  0  0  0  0
   60.7340   33.1400   47.2850 C   0  0  0  0  0  0  0  0  0  0  0  0
   61.6410   34.0730   46.7550 C   0  0  0  0  0  0  0  0  0  0  0  0
   63.0030   33.7650   46.6700 C   0  0  0  0  0  0  0  0  0  0  0  0
   63.4680   32.5240   47.1080 C   0  0  0  0  0  0  0  0  0  0  0  0
   62.5740   31.5880   47.6340 C   0  0  0  0  0  0  0  0  0  0  0  0
   61.2110   31.8900   47.7220 C   0  0  0  0  0  0  0  0  0  0  0  0
   60.3630   30.9660   48.2390 F   0  0  0  0  0  0  0  0  0  0  0  0
   58.1460   31.3940   46.3290 C   0  0  0  0  0  0  0  0  0  0  0  0
   58.5320   24.7000   46.1400 O   0  0  0  0  0  0  0  0  0  0  0  0
   58.1370   23.8790   45.1940 C   0  0  0  0  0  0  0  0  0  0  0  0
   58.4350   22.4170   45.1600 C   0  0  0  0  0  0  0  0  0  0  0  0
   55.9915   23.4041   43.2277 H   0  0  0  0  0  0  0  0  0  0  0  0
   56.4238   24.9449   42.4119 H   0  0  0  0  0  0  0  0  0  0  0  0
   57.5830   23.5727   42.4119 H   0  0  0  0  0  0  0  0  0  0  0  0
   56.9390   26.6990   44.1850 H   0  0  0  0  0  0  0  0  0  0  0  0
   57.3532   27.5162   46.9896 H   0  0  0  0  0  0  0  0  0  0  0  0
   58.9490   26.8590   47.5087 H   0  0  0  0  0  0  0  0  0  0  0  0
   60.9832   27.9931   46.5589 H   0  0  0  0  0  0  0  0  0  0  0  0
   60.6460   27.1190   45.0263 H   0  0  0  0  0  0  0  0  0  0  0  0
   60.7891   28.9096   45.0263 H   0  0  0  0  0  0  0  0  0  0  0  0
   59.7896   30.6402   45.2223 H   0  0  0  0  0  0  0  0  0  0  0  0
   59.3656   31.4028   43.2085 H   0  0  0  0  0  0  0  0  0  0  0  0
   57.6897   30.6506   43.2201 H   0  0  0  0  0  0  0  0  0  0  0  0
   57.9463   33.2384   42.9022 H   0  0  0  0  0  0  0  0  0  0  0  0
   56.6754   32.5574   43.9938 H   0  0  0  0  0  0  0  0  0  0  0  0
   59.1243   34.5502   47.2500 H   0  0  0  0  0  0  0  0  0  0  0  0
   58.8486   33.1040   48.2899 H   0  0  0  0  0  0  0  0  0  0  0  0
   61.2783   35.0507   46.4051 H   0  0  0  0  0  0  0  0  0  0  0  0
   63.7082   34.5016   46.2575 H   0  0  0  0  0  0  0  0  0  0  0  0
   64.5390   32.2827   47.0390 H   0  0  0  0  0  0  0  0  0  0  0  0
   62.9429   30.6111   47.9798 H   0  0  0  0  0  0  0  0  0  0  0  0
   58.5453   30.9577   47.2564 H   0  0  0  0  0  0  0  0  0  0  0  0
   57.0478   31.3319   46.3396 H   0  0  0  0  0  0  0  0  0  0  0  0
   58.5129   22.0347   46.1885 H   0  0  0  0  0  0  0  0  0  0  0  0
   57.6258   21.8900   44.6332 H   0  0  0  0  0  0  0  0  0  0  0  0
   59.3859   22.2488   44.6332 H   0  0  0  0  0  0  0  0  0  0  0  0
  1  2  1  0
  2  3  1  0
  3  4  2  0
  4  5  1  0
  5  6  1  0
  6  7  1  0
  6  8  1  0
  8  9  2  0
  8 10  1  0
 10 11  1  0
 11 12  1  0
 12 13  1  0
 13 14  2  0
 13 15  1  0
 15 16  1  0
 16 17  1  0
 17 18  2  0
 18 19  1  0
 19 20  2  0
 20 21  1  0
 21 22  2  0
 22 23  1  0
 15 24  1  0
  4 25  1  0
 25 26  1  0
 26 27  1  0
 26  2  2  0
 24 10  1  0
 22 17  1  0
  1 28  1  0
  1 29  1  0
  1 30  1  0
  3 31  1  0
  5 32  1  0
  5 33  1  0
  7 34  1  0
  7 35  1  0
  7 36  1  0
 10 37  1  1
 11 38  1  0
 11 39  1  0
 12 40  1  0
 12 41  1  0
 16 42  1  0
 16 43  1  0
 18 44  1  0
 19 45  1  0
 20 46  1  0
 21 47  1  0
 24 48  1  0
 24 49  1  0
 27 50  1  0
 27 51  1  0
 27 52  1  0
M  CHG  1   3   1
M  END
>  <UniqueID>  (39) 
36

>  <SMILES>  (39) 
Cc1[nH+]c(CN(C)C(=O)[C@H]2CCC(=O)N(Cc3ccccc3F)C2)oc1C

>  <Energy>  (39) 
82.30229470679747

>  <Genealogy>  (39) 
Cc1[nH+]c(CN(C)C(=O)C2CCC(=O)N(Cc3ccccc3F)C2)oc1C (protonated)
Cc1[nH+]c(CN(C)C(=O)[C@H]2CCC(=O)N(Cc3ccccc3F)C2)oc1C (chirality)
Cc1[nH+]c(CN(C)C(=O)[C@H]2CCC(=O)N(Cc3ccccc3F)C2)oc1C (3D coordinates assigned)
Cc1[nH+]c(CN(C)C(=O)[C@H]2CCC(=O)N(Cc3ccccc3F)C2)oc1C (nonaromatic ring conformer: 82.30229470679747 kcal/mol)

>  <smiles>  (39) 
Cc1nc(CN(C)C(=O)C2CCC(=O)N(Cc3ccccc3F)C2)oc1C

>  <score_type>  (39) 
oracle

>  <origin>  (39) 
adg

>  <m_score__min__energy>  (39) 
-6.8799999999999999

>  <m_primary>  (39) 
energy

$$$$
39:0
     RDKit          3D

 42 45  0  0  0  0  0  0  0  0999 V2000
   64.0480   33.4140   48.5250 C   0  0  0  0  0  0  0  0  0  0  0  0
   62.6280   33.6350   48.0940 C   0  0  0  0  0  0  0  0  0  0  0  0
   61.6140   33.7480   49.0550 C   0  0  0  0  0  0  0  0  0  0  0  0
   60.2830   33.9190   48.6620 C   0  0  0  0  0  0  0  0  0  0  0  0
   59.9490   33.9700   47.3000 C   0  0  0  0  0  0  0  0  0  0  0  0
   58.5100   34.1310   46.8820 C   0  0  0  0  0  0  0  0  0  0  0  0
   58.1630   33.1650   45.8290 N   0  0  0  0  0  0  0  0  0  0  0  0
   57.4770   33.6380   44.6220 C   0  0  0  0  0  0  0  0  0  0  0  0
   57.7900   32.7270   43.4440 C   0  0  0  0  0  0  0  0  0  0  0  0
   57.4160   31.2880   43.7960 C   0  0  0  0  0  0  0  0  0  0  0  0
   58.0670   30.8420   45.0430 N   0  0  0  0  0  0  0  0  0  0  0  0
   58.3980   31.7520   46.0220 C   0  0  0  0  0  0  0  0  0  0  0  0
   58.9730   31.3240   47.1780 N   0  0  0  0  0  0  0  0  0  0  0  0
   59.2100   30.0140   47.4180 C   0  0  0  0  0  0  0  0  0  0  0  0
   59.7960   29.6200   48.6270 C   0  0  0  0  0  0  0  0  0  0  0  0
   60.0320   28.2660   48.8800 C   0  0  0  0  0  0  0  0  0  0  0  0
   60.7670   27.7720   50.3950 Cl  0  0  0  0  0  0  0  0  0  0  0  0
   59.6810   27.3030   47.9280 C   0  0  0  0  0  0  0  0  0  0  0  0
   59.0940   27.6920   46.7190 C   0  0  0  0  0  0  0  0  0  0  0  0
   58.8550   29.0540   46.4560 C   0  0  0  0  0  0  0  0  0  0  0  0
   58.2670   29.4990   45.2600 C   0  0  0  0  0  0  0  0  0  0  0  0
   57.9180   28.6570   44.3850 O   0  0  0  0  0  0  0  0  0  0  0  0
   60.9630   33.8440   46.3370 C   0  0  0  0  0  0  0  0  0  0  0  0
   62.2930   33.6700   46.7320 C   0  0  0  0  0  0  0  0  0  0  0  0
   64.1006   33.4058   49.6237 H   0  0  0  0  0  0  0  0  0  0  0  0
   64.4041   32.4496   48.1336 H   0  0  0  0  0  0  0  0  0  0  0  0
   64.6803   34.2245   48.1336 H   0  0  0  0  0  0  0  0  0  0  0  0
   61.8667   33.7019   50.1246 H   0  0  0  0  0  0  0  0  0  0  0  0
   59.4948   34.0139   49.4234 H   0  0  0  0  0  0  0  0  0  0  0  0
   57.8600   33.9640   47.7536 H   0  0  0  0  0  0  0  0  0  0  0  0
   58.3678   35.1485   46.4890 H   0  0  0  0  0  0  0  0  0  0  0  0
   56.3914   33.6412   44.7996 H   0  0  0  0  0  0  0  0  0  0  0  0
   57.8243   34.6554   44.3891 H   0  0  0  0  0  0  0  0  0  0  0  0
   57.2116   33.0514   42.5664 H   0  0  0  0  0  0  0  0  0  0  0  0
   58.8649   32.7801   43.2164 H   0  0  0  0  0  0  0  0  0  0  0  0
   56.3250   31.2241   43.9213 H   0  0  0  0  0  0  0  0  0  0  0  0
   57.7589   30.6360   42.9791 H   0  0  0  0  0  0  0  0  0  0  0  0
   60.0705   30.3759   49.3774 H   0  0  0  0  0  0  0  0  0  0  0  0
   59.8669   26.2379   48.1303 H   0  0  0  0  0  0  0  0  0  0  0  0
   58.8188   26.9322   45.9727 H   0  0  0  0  0  0  0  0  0  0  0  0
   60.7100   33.8823   45.2672 H   0  0  0  0  0  0  0  0  0  0  0  0
   63.0801   33.5601   45.9715 H   0  0  0  0  0  0  0  0  0  0  0  0
  1  2  1  0
  2  3  2  0
  3  4  1  0
  4  5  2  0
  5  6  1  0
  6  7  1  0
  7  8  1  0
  8  9  1  0
  9 10  1  0
 10 11  1  0
 11 12  1  0
 12 13  2  0
 13 14  1  0
 14 15  2  0
 15 16  1  0
 16 17  1  0
 16 18  2  0
 18 19  1  0
 19 20  2  0
 20 21  1  0
 21 22  2  0
  5 23  1  0
 23 24  2  0
 24  2  1  0
 12  7  1  0
 20 14  1  0
 21 11  1  0
  1 25  1  0
  1 26  1  0
  1 27  1  0
  3 28  1  0
  4 29  1  0
  6 30  1  0
  6 31  1  0
  8 32  1  0
  8 33  1  0
  9 34  1  0
  9 35  1  0
 10 36  1  0
 10 37  1  0
 15 38  1  0
 18 39  1  0
 19 40  1  0
 23 41  1  0
 24 42  1  0
M  END
>  <UniqueID>  (40) 
37

>  <SMILES>  (40) 
Cc1ccc(CN2CCCn3c2nc2cc(Cl)ccc2c3=O)cc1

>  <Energy>  (40) 
48.78630252116953

>  <Genealogy>  (40) 
Cc1ccc(CN2CCCn3c2nc2cc(Cl)ccc2c3=O)cc1 (3D coordinates assigned)
Cc1ccc(CN2CCCn3c2nc2cc(Cl)ccc2c3=O)cc1 (nonaromatic ring conformer: 48.78630252116953 kcal/mol)

>  <smiles>  (40) 
Cc1ccc(CN2CCCn3c2nc2cc(Cl)ccc2c3=O)cc1

>  <score_type>  (40) 
oracle

>  <origin>  (40) 
adg

>  <m_score__min__energy>  (40) 
-8.0700000000000003

>  <m_primary>  (40) 
energy

$$$$
40:0
     RDKit          3D

 41 44  0  0  0  0  0  0  0  0999 V2000
   59.1119   24.3669   46.4040 H   0  0  0  0  0  0  0  0  0  0  0  0
   58.6060   25.3280   46.2300 C   0  0  0  0  0  0  0  0  0  0  0  0
   59.3600   26.4840   46.0060 C   0  0  0  0  0  0  0  0  0  0  0  0
   60.4586   26.4305   45.9951 H   0  0  0  0  0  0  0  0  0  0  0  0
   58.7180   27.7070   45.7960 C   0  0  0  0  0  0  0  0  0  0  0  0
   59.3128   28.6112   45.5993 H   0  0  0  0  0  0  0  0  0  0  0  0
   57.3140   27.7870   45.8350 C   0  0  0  0  0  0  0  0  0  0  0  0
   56.6340   29.0210   45.5610 N   0  0  0  0  0  0  0  0  0  0  0  0
   56.8190   29.8250   44.5460 C   0  0  0  0  0  0  0  0  0  0  0  0
   57.4420   31.0750   44.7490 C   0  0  0  0  0  0  0  0  0  0  0  0
   57.8630   31.4880   46.0310 C   0  0  0  0  0  0  0  0  0  0  0  0
   57.7114   30.8228   46.8938 H   0  0  0  0  0  0  0  0  0  0  0  0
   58.4720   32.7360   46.2170 C   0  0  0  0  0  0  0  0  0  0  0  0
   58.8900   33.1420   47.4950 C   0  0  0  0  0  0  0  0  0  0  0  0
   58.7384   32.4756   48.3569 H   0  0  0  0  0  0  0  0  0  0  0  0
   59.5020   34.3970   47.6800 C   0  0  0  0  0  0  0  0  0  0  0  0
   59.9350   34.8460   48.9350 O   0  0  0  0  0  0  0  0  0  0  0  0
   60.9470   34.2120   49.7120 C   0  0  0  0  0  0  0  0  0  0  0  0
   60.7281   34.3491   50.7813 H   0  0  0  0  0  0  0  0  0  0  0  0
   60.9703   33.1376   49.4773 H   0  0  0  0  0  0  0  0  0  0  0  0
   61.9239   34.6598   49.4773 H   0  0  0  0  0  0  0  0  0  0  0  0
   59.6880   35.2370   46.5760 C   0  0  0  0  0  0  0  0  0  0  0  0
   60.1642   36.2190   46.7134 H   0  0  0  0  0  0  0  0  0  0  0  0
   59.2750   34.8410   45.3010 C   0  0  0  0  0  0  0  0  0  0  0  0
   59.4282   35.5115   44.4425 H   0  0  0  0  0  0  0  0  0  0  0  0
   58.6660   33.5920   45.1120 C   0  0  0  0  0  0  0  0  0  0  0  0
   58.2490   33.1900   43.8370 C   0  0  0  0  0  0  0  0  0  0  0  0
   58.4003   33.8611   42.9786 H   0  0  0  0  0  0  0  0  0  0  0  0
   57.6370   31.9340   43.6410 C   0  0  0  0  0  0  0  0  0  0  0  0
   57.2110   31.5030   42.3670 C   0  0  0  0  0  0  0  0  0  0  0  0
   57.3710   32.3420   41.1320 C   0  0  0  0  0  0  0  0  0  0  0  0
   57.5699   33.3847   41.4203 H   0  0  0  0  0  0  0  0  0  0  0  0
   58.2124   31.9597   40.5355 H   0  0  0  0  0  0  0  0  0  0  0  0
   56.4479   32.2962   40.5355 H   0  0  0  0  0  0  0  0  0  0  0  0
   56.6450   30.2770   42.2410 N   0  0  0  0  0  0  0  0  0  0  0  0
   56.4560   29.4640   43.2780 N   0  0  0  0  0  0  0  0  0  0  0  0
   56.0520   28.5230   43.0770 H   0  0  0  0  0  0  0  0  0  0  0  0
   56.5640   26.6160   46.0240 C   0  0  0  0  0  0  0  0  0  0  0  0
   55.2080   26.6670   46.0170 F   0  0  0  0  0  0  0  0  0  0  0  0
   57.2090   25.3930   46.2330 C   0  0  0  0  0  0  0  0  0  0  0  0
   56.6169   24.4811   46.4000 H   0  0  0  0  0  0  0  0  0  0  0  0
  1  2  1  0
  2  3  2  0
  3  4  1  0
  3  5  1  0
  5  6  1  0
  5  7  2  0
  7  8  1  0
  8  9  2  0
  9 10  1  0
 10 11  2  0
 11 12  1  0
 11 13  1  0
 13 14  2  0
 14 15  1  0
 14 16  1  0
 16 17  1  0
 17 18  1  0
 18 19  1  0
 18 20  1  0
 18 21  1  0
 16 22  2  0
 22 23  1  0
 22 24  1  0
 24 25  1  0
 24 26  2  0
 26 27  1  0
 27 28  1  0
 27 29  2  0
 29 30  1  0
 30 31  1  0
 31 32  1  0
 31 33  1  0
 31 34  1  0
 30 35  2  0
 35 36  1  0
 36 37  1  0
  7 38  1  0
 38 39  1  0
 38 40  2  0
 40 41  1  0
 40  2  1  0
 36  9  1  0
 29 10  1  0
 26 13  1  0
M  END
>  <UniqueID>  (41) 
38

>  <SMILES>  (41) 
COc1ccc2cc3c(C)n[nH]/c(=N\c4ccccc4F)c3cc2c1

>  <Energy>  (41) 
63.64355314798732

>  <Genealogy>  (41) 
COc1ccc2cc3c(C)n[nH]/c(=N\c4ccccc4F)c3cc2c1 (cis-trans isomerization)
COc1ccc2cc3c(C)n[nH]/c(=N\c4ccccc4F)c3cc2c1 (3D coordinates assigned)
COc1ccc2cc3c(C)n[nH]/c(=N\c4ccccc4F)c3cc2c1 (optimized conformer: 63.64355314798732 kcal/mol)

>  <smiles>  (41) 
COc1ccc2cc3c(C)n[nH]c(=Nc4ccccc4F)c3cc2c1

>  <score_type>  (41) 
oracle

>  <origin>  (41) 
adg

>  <m_score__min__energy>  (41) 
-9.5500000000000007

>  <m_primary>  (41) 
energy

$$$$
41:0
     RDKit          3D

 44 47  0  0  0  0  0  0  0  0999 V2000
   64.5260   32.2980   49.3720 C   0  0  0  0  0  0  0  0  0  0  0  0
   63.4960   32.9330   48.5030 C   0  0  0  0  0  0  0  0  0  0  0  0
   62.3060   33.3770   48.9600 N   0  0  0  0  0  0  0  0  0  0  0  0
   61.5280   33.8680   47.9560 C   0  0  0  0  0  0  0  0  0  0  0  0
   60.1530   34.4140   48.2190 C   0  0  0  0  0  0  0  0  0  0  0  0
   59.0540   33.4320   48.0290 N   0  0  2  0  0  0  0  0  0  0  0  0
   59.5270   32.0100   47.9640 C   0  0  0  0  0  0  0  0  0  0  0  0
   59.6760   31.4180   46.5390 C   0  0  0  0  0  0  0  0  0  0  0  0
   58.3980   31.7240   45.7560 C   0  0  1  0  0  0  0  0  0  0  0  0
   58.3610   33.2260   45.6330 C   0  0  1  0  0  0  0  0  0  0  0  0
   57.4000   33.4450   44.5010 C   0  0  0  0  0  0  0  0  0  0  0  0
   57.8040   32.3140   43.5520 C   0  0  0  0  0  0  0  0  0  0  0  0
   58.3580   31.2070   44.3710 N   0  0  0  0  0  0  0  0  0  0  0  0
   57.5850   29.9540   44.1180 C   0  0  0  0  0  0  0  0  0  0  0  0
   56.1230   30.1270   43.7410 C   0  0  0  0  0  0  0  0  0  0  0  0
   55.6780   29.4290   44.8810 O   0  0  0  0  0  0  0  0  0  0  0  0
   57.0030   29.2240   45.3140 C   0  0  0  0  0  0  0  0  0  0  0  0
   58.0520   33.8440   46.9970 C   0  0  0  0  0  0  0  0  0  0  0  0
   62.0850   33.7780   46.6820 C   0  0  0  0  0  0  0  0  0  0  0  0
   63.6090   33.0870   46.8330 S   0  0  0  0  0  0  0  0  0  0  0  0
   64.2645   32.4592   50.4282 H   0  0  0  0  0  0  0  0  0  0  0  0
   64.5657   31.2184   49.1647 H   0  0  0  0  0  0  0  0  0  0  0  0
   65.5083   32.7475   49.1647 H   0  0  0  0  0  0  0  0  0  0  0  0
   60.1183   34.7718   49.2586 H   0  0  0  0  0  0  0  0  0  0  0  0
   59.9881   35.2148   47.4832 H   0  0  0  0  0  0  0  0  0  0  0  0
   58.5280   33.4910   48.9350 H   0  0  0  0  0  0  0  0  0  0  0  0
   60.5090   31.9572   48.4568 H   0  0  0  0  0  0  0  0  0  0  0  0
   58.7483   31.4110   48.4587 H   0  0  0  0  0  0  0  0  0  0  0  0
   60.5399   31.8755   46.0346 H   0  0  0  0  0  0  0  0  0  0  0  0
   59.8353   30.3310   46.5948 H   0  0  0  0  0  0  0  0  0  0  0  0
   57.5645   31.2490   46.2943 H   0  0  0  0  0  0  0  0  0  0  0  0
   59.3009   33.7389   45.3808 H   0  0  0  0  0  0  0  0  0  0  0  0
   56.3560   33.3414   44.8316 H   0  0  0  0  0  0  0  0  0  0  0  0
   57.4461   34.4494   44.0549 H   0  0  0  0  0  0  0  0  0  0  0  0
   56.9238   31.9619   42.9942 H   0  0  0  0  0  0  0  0  0  0  0  0
   58.5543   32.6692   42.8302 H   0  0  0  0  0  0  0  0  0  0  0  0
   58.3517   29.5175   43.4611 H   0  0  0  0  0  0  0  0  0  0  0  0
   55.7981   31.1776   43.7156 H   0  0  0  0  0  0  0  0  0  0  0  0
   55.7861   29.7949   42.7479 H   0  0  0  0  0  0  0  0  0  0  0  0
   57.2295   29.7081   46.2754 H   0  0  0  0  0  0  0  0  0  0  0  0
   57.3402   28.1988   45.5269 H   0  0  0  0  0  0  0  0  0  0  0  0
   58.0660   34.9399   46.9036 H   0  0  0  0  0  0  0  0  0  0  0  0
   57.0617   33.4893   47.3186 H   0  0  0  0  0  0  0  0  0  0  0  0
   61.6110   34.1019   45.7437 H   0  0  0  0  0  0  0  0  0  0  0  0
  1  2  1  0
  2  3  2  0
  3  4  1  0
  4  5  1  0
  5  6  1  0
  6  7  1  0
  7  8  1  0
  8  9  1  0
  9 10  1  0
 10 11  1  0
 11 12  1  0
 12 13  1  0
 13 14  1  0
 14 15  1  0
 15 16  1  0
 16 17  1  0
 10 18  1  0
  4 19  2  0
 19 20  1  0
 20  2  1  0
 18  6  1  0
 13  9  1  0
 17 14  1  0
  1 21  1  0
  1 22  1  0
  1 23  1  0
  5 24  1  0
  5 25  1  0
  6 26  1  1
  7 27  1  0
  7 28  1  0
  8 29  1  0
  8 30  1  0
  9 31  1  1
 10 32  1  6
 11 33  1  0
 11 34  1  0
 12 35  1  0
 12 36  1  0
 14 37  1  0
 15 38  1  0
 15 39  1  0
 17 40  1  0
 17 41  1  0
 18 42  1  0
 18 43  1  0
 19 44  1  0
M  CHG  1   6   1
M  END
>  <UniqueID>  (42) 
39

>  <SMILES>  (42) 
Cc1nc(C[N@@H+]2CC[C@H]3C(CCN3C3COC3)C2)cs1

>  <Energy>  (42) 
165.5775445663491

>  <Genealogy>  (42) 
Cc1nc(C[NH+]2CCC3C(CCN3C3COC3)C2)cs1 (protonated)
Cc1nc(C[N@@H+]2CC[C@H]3C(CCN3C3COC3)C2)cs1 (chirality)
Cc1nc(C[N@@H+]2CC[C@H]3C(CCN3C3COC3)C2)cs1 (3D coordinates assigned)
Cc1nc(C[N@@H+]2CC[C@H]3C(CCN3C3COC3)C2)cs1 (nonaromatic ring conformer: 165.5775445663491 kcal/mol)

>  <smiles>  (42) 
Cc1nc(CN2CCC3C(CCN3C3COC3)C2)cs1

>  <score_type>  (42) 
oracle

>  <origin>  (42) 
adg

>  <m_score__min__energy>  (42) 
-6.5

>  <m_primary>  (42) 
energy

$$$$
42:0
     RDKit          3D

 26 27  0  0  0  0  0  0  0  0999 V2000
   58.4238   29.7676   45.7118 H   0  0  0  0  0  0  0  0  0  0  0  0
   57.9610   30.7650   45.7420 C   0  0  0  0  0  0  0  0  0  0  0  0
   56.9470   31.0330   44.9730 N   0  0  0  0  0  0  0  0  0  0  0  0
   56.0400   30.0940   44.5070 O   0  0  0  0  0  0  0  0  0  0  0  0
   55.9310   29.7120   43.1380 C   0  0  0  0  0  0  0  0  0  0  0  0
   55.6297   28.6560   43.0749 H   0  0  0  0  0  0  0  0  0  0  0  0
   55.1759   30.3391   42.6414 H   0  0  0  0  0  0  0  0  0  0  0  0
   56.9033   29.8462   42.6414 H   0  0  0  0  0  0  0  0  0  0  0  0
   58.4900   31.7910   46.6510 C   0  0  0  0  0  0  0  0  0  0  0  0
   58.7380   31.6570   48.0170 C   0  0  0  0  0  0  0  0  0  0  0  0
   58.5649   30.7415   48.6018 H   0  0  0  0  0  0  0  0  0  0  0  0
   59.2230   32.8180   48.5190 N   0  0  0  0  0  0  0  0  0  0  0  0
   59.6030   33.0770   49.9040 C   0  0  0  0  0  0  0  0  0  0  0  0
   58.8852   32.5877   50.5788 H   0  0  0  0  0  0  0  0  0  0  0  0
   60.6110   32.6771   50.0886 H   0  0  0  0  0  0  0  0  0  0  0  0
   59.5993   34.1614   50.0886 H   0  0  0  0  0  0  0  0  0  0  0  0
   59.2820   33.6760   47.4830 C   0  0  0  0  0  0  0  0  0  0  0  0
   58.8430   33.0870   46.3290 C   0  0  0  0  0  0  0  0  0  0  0  0
   58.8160   33.7930   45.1280 C   0  0  0  0  0  0  0  0  0  0  0  0
   58.4630   33.3241   44.1976 H   0  0  0  0  0  0  0  0  0  0  0  0
   59.2570   35.1270   45.1510 C   0  0  0  0  0  0  0  0  0  0  0  0
   59.2559   35.7240   44.2271 H   0  0  0  0  0  0  0  0  0  0  0  0
   59.7020   35.7000   46.3640 C   0  0  0  0  0  0  0  0  0  0  0  0
   60.0450   36.7451   46.3797 H   0  0  0  0  0  0  0  0  0  0  0  0
   59.7100   34.9670   47.5180 N   0  0  0  0  0  0  0  0  0  0  0  0
   60.0410   35.4000   48.4080 H   0  0  0  0  0  0  0  0  0  0  0  0
  1  2  1  0
  2  3  2  0
  3  4  1  0
  4  5  1  0
  5  6  1  0
  5  7  1  0
  5  8  1  0
  2  9  1  0
  9 10  2  0
 10 11  1  0
 10 12  1  0
 12 13  1  0
 13 14  1  0
 13 15  1  0
 13 16  1  0
 12 17  1  0
 17 18  2  0
 18 19  1  0
 19 20  1  0
 19 21  2  0
 21 22  1  0
 21 23  1  0
 23 24  1  0
 23 25  2  0
 25 26  1  0
 18  9  1  0
 25 17  1  0
M  CHG  1  25   1
M  END
>  <UniqueID>  (43) 
40

>  <SMILES>  (43) 
CO/N=C/c1cn(C)c2[nH+]cccc12

>  <Energy>  (43) 
59.686232436979594

>  <Genealogy>  (43) 
CON=Cc1cn(C)c2[nH+]cccc12 (protonated)
CO/N=C/c1cn(C)c2[nH+]cccc12 (cis-trans isomerization)
CO/N=C/c1cn(C)c2[nH+]cccc12 (3D coordinates assigned)
CO/N=C/c1cn(C)c2[nH+]cccc12 (optimized conformer: 59.686232436979594 kcal/mol)

>  <smiles>  (43) 
CON=Cc1cn(C)c2ncccc12

>  <score_type>  (43) 
oracle

>  <origin>  (43) 
adg

>  <m_score__min__energy>  (43) 
-3.9399999999999999

>  <m_primary>  (43) 
energy

$$$$
43:0
     RDKit          3D

 45 47  0  0  0  0  0  0  0  0999 V2000
   63.4110   31.7770   47.7560 C   0  0  0  0  0  0  0  0  0  0  0  0
   61.9760   31.5670   47.3010 C   0  0  0  0  0  0  0  0  0  0  0  0
   61.4650   32.7810   46.7640 O   0  0  0  0  0  0  0  0  0  0  0  0
   61.1770   33.8950   47.5550 C   0  0  0  0  0  0  0  0  0  0  0  0
   62.0380   34.3400   48.3640 O   0  0  0  0  0  0  0  0  0  0  0  0
   59.8270   34.5650   47.4060 C   0  0  1  0  0  0  0  0  0  0  0  0
   59.6390   35.1040   46.0080 C   0  0  0  0  0  0  0  0  0  0  0  0
   60.0130   36.2350   45.7350 O   0  0  0  0  0  0  0  0  0  0  0  0
   59.0330   34.2470   44.9360 C   0  0  0  0  0  0  0  0  0  0  0  0
   58.7320   32.8400   45.4800 C   0  0  2  0  0  0  0  0  0  0  0  0
   58.0080   31.9890   44.4520 C   0  0  0  0  0  0  0  0  0  0  0  0
   57.9410   32.3770   43.0990 C   0  0  0  0  0  0  0  0  0  0  0  0
   57.2670   31.5830   42.1660 C   0  0  0  0  0  0  0  0  0  0  0  0
   56.6510   30.3970   42.5700 C   0  0  0  0  0  0  0  0  0  0  0  0
   56.7070   30.0020   43.9080 C   0  0  0  0  0  0  0  0  0  0  0  0
   57.3810   30.7920   44.8450 C   0  0  0  0  0  0  0  0  0  0  0  0
   57.9540   32.9150   46.7280 N   0  0  0  0  0  0  0  0  0  0  0  0
   58.6110   33.6670   47.8280 C   0  0  1  0  0  0  0  0  0  0  0  0
   58.9390   32.7350   48.9820 C   0  0  0  0  0  0  0  0  0  0  0  0
   58.9280   31.3360   48.8160 C   0  0  0  0  0  0  0  0  0  0  0  0
   59.2990   30.4960   49.8700 C   0  0  0  0  0  0  0  0  0  0  0  0
   59.6940   31.0380   51.0940 C   0  0  0  0  0  0  0  0  0  0  0  0
   59.7230   32.4240   51.2660 C   0  0  0  0  0  0  0  0  0  0  0  0
   59.3540   33.2700   50.2170 C   0  0  0  0  0  0  0  0  0  0  0  0
   63.4500   31.7827   48.8553 H   0  0  0  0  0  0  0  0  0  0  0  0
   64.0408   30.9615   47.3710 H   0  0  0  0  0  0  0  0  0  0  0  0
   63.7807   32.7388   47.3710 H   0  0  0  0  0  0  0  0  0  0  0  0
   61.9473   30.7841   46.5289 H   0  0  0  0  0  0  0  0  0  0  0  0
   61.3611   31.2590   48.1595 H   0  0  0  0  0  0  0  0  0  0  0  0
   59.8371   35.4034   48.1180 H   0  0  0  0  0  0  0  0  0  0  0  0
   58.0972   34.7090   44.5885 H   0  0  0  0  0  0  0  0  0  0  0  0
   59.7453   34.1621   44.1021 H   0  0  0  0  0  0  0  0  0  0  0  0
   59.6961   32.3575   45.6982 H   0  0  0  0  0  0  0  0  0  0  0  0
   58.4224   33.3113   42.7744 H   0  0  0  0  0  0  0  0  0  0  0  0
   57.2220   31.8934   41.1117 H   0  0  0  0  0  0  0  0  0  0  0  0
   56.1216   29.7738   41.8342 H   0  0  0  0  0  0  0  0  0  0  0  0
   56.2203   29.0681   44.2257 H   0  0  0  0  0  0  0  0  0  0  0  0
   57.4213   30.4751   45.8976 H   0  0  0  0  0  0  0  0  0  0  0  0
   57.0270   33.3600   46.5270 H   0  0  0  0  0  0  0  0  0  0  0  0
   57.8700   34.4067   48.1653 H   0  0  0  0  0  0  0  0  0  0  0  0
   58.6257   30.9022   47.8514 H   0  0  0  0  0  0  0  0  0  0  0  0
   59.2796   29.4046   49.7343 H   0  0  0  0  0  0  0  0  0  0  0  0
   59.9822   30.3743   51.9225 H   0  0  0  0  0  0  0  0  0  0  0  0
   60.0372   32.8506   52.2300 H   0  0  0  0  0  0  0  0  0  0  0  0
   59.3878   34.3606   50.3566 H   0  0  0  0  0  0  0  0  0  0  0  0
  1  2  1  0
  2  3  1  0
  3  4  1  0
  4  5  2  0
  4  6  1  0
  6  7  1  0
  7  8  2  0
  7  9  1  0
  9 10  1  0
 10 11  1  0
 11 12  2  0
 12 13  1  0
 13 14  2  0
 14 15  1  0
 15 16  2  0
 10 17  1  0
 17 18  1  0
 18 19  1  0
 19 20  2  0
 20 21  1  0
 21 22  2  0
 22 23  1  0
 23 24  2  0
 18  6  1  0
 24 19  1  0
 16 11  1  0
  1 25  1  0
  1 26  1  0
  1 27  1  0
  2 28  1  0
  2 29  1  0
  6 30  1  1
  9 31  1  0
  9 32  1  0
 10 33  1  1
 12 34  1  0
 13 35  1  0
 14 36  1  0
 15 37  1  0
 16 38  1  0
 17 39  1  0
 18 40  1  1
 20 41  1  0
 21 42  1  0
 22 43  1  0
 23 44  1  0
 24 45  1  0
M  END
>  <UniqueID>  (44) 
41

>  <SMILES>  (44) 
CCOC(=O)[C@H]1C(=O)C[C@H](c2ccccc2)NC1c1ccccc1

>  <Energy>  (44) 
50.7468655682549

>  <Genealogy>  (44) 
CCOC(=O)[C@H]1C(=O)C[C@H](c2ccccc2)NC1c1ccccc1 (chirality)
CCOC(=O)[C@H]1C(=O)C[C@H](c2ccccc2)NC1c1ccccc1 (3D coordinates assigned)
CCOC(=O)[C@H]1C(=O)C[C@H](c2ccccc2)NC1c1ccccc1 (nonaromatic ring conformer: 50.7468655682549 kcal/mol)

>  <smiles>  (44) 
CCOC(=O)C1C(=O)CC(c2ccccc2)NC1c1ccccc1

>  <score_type>  (44) 
oracle

>  <origin>  (44) 
adg

>  <m_score__min__energy>  (44) 
-7.5199999999999996

>  <m_primary>  (44) 
energy

$$$$
44:0
     RDKit          3D

 20 20  0  0  0  0  0  0  0  0999 V2000
   57.7760   33.2490   45.0370 C   0  0  0  0  0  0  0  0  0  0  0  0
   57.4470   31.9870   45.6080 O   0  0  0  0  0  0  0  0  0  0  0  0
   57.3120   30.8050   44.8660 C   0  0  0  0  0  0  0  0  0  0  0  0
   56.5350   30.8350   43.7770 C   0  0  0  0  0  0  0  0  0  0  0  0
   56.2690   29.6100   42.9410 C   0  0  0  0  0  0  0  0  0  0  0  0
   57.3220   28.5960   43.0990 N   0  0  0  0  0  0  0  0  0  0  0  0
   57.5510   28.3060   44.5200 C   0  0  0  0  0  0  0  0  0  0  0  0
   58.0730   29.5520   45.2470 C   0  0  0  0  0  0  0  0  0  0  0  0
   57.9657   33.9765   45.8400 H   0  0  0  0  0  0  0  0  0  0  0  0
   58.6774   33.1462   44.4149 H   0  0  0  0  0  0  0  0  0  0  0  0
   56.9392   33.5993   44.4149 H   0  0  0  0  0  0  0  0  0  0  0  0
   56.0736   31.7888   43.4813 H   0  0  0  0  0  0  0  0  0  0  0  0
   55.3068   29.1734   43.2468 H   0  0  0  0  0  0  0  0  0  0  0  0
   56.2488   29.9172   41.8850 H   0  0  0  0  0  0  0  0  0  0  0  0
   57.0200   27.7170   42.6170 H   0  0  0  0  0  0  0  0  0  0  0  0
   58.2090   28.9320   42.6540 H   0  0  0  0  0  0  0  0  0  0  0  0
   56.6044   27.9880   44.9814 H   0  0  0  0  0  0  0  0  0  0  0  0
   58.3016   27.5061   44.6027 H   0  0  0  0  0  0  0  0  0  0  0  0
   57.9748   29.3952   46.3313 H   0  0  0  0  0  0  0  0  0  0  0  0
   59.1234   29.6957   44.9536 H   0  0  0  0  0  0  0  0  0  0  0  0
  1  2  1  0
  2  3  1  0
  3  4  2  0
  4  5  1  0
  5  6  1  0
  6  7  1  0
  7  8  1  0
  8  3  1  0
  1  9  1  0
  1 10  1  0
  1 11  1  0
  4 12  1  0
  5 13  1  0
  5 14  1  0
  6 15  1  0
  6 16  1  0
  7 17  1  0
  7 18  1  0
  8 19  1  0
  8 20  1  0
M  CHG  1   6   1
M  END
>  <UniqueID>  (45) 
42

>  <SMILES>  (45) 
COC1=CC[NH2+]CC1

>  <Energy>  (45) 
15.748902899825257

>  <Genealogy>  (45) 
COC1=CC[NH2+]CC1 (protonated)
COC1=CC[NH2+]CC1 (3D coordinates assigned)
COC1=CC[NH2+]CC1 (nonaromatic ring conformer: 15.748902899825257 kcal/mol)

>  <smiles>  (45) 
COC1=CCNCC1

>  <score_type>  (45) 
oracle

>  <origin>  (45) 
adg

>  <m_score__min__energy>  (45) 
-2.8100000000000001

>  <m_primary>  (45) 
energy

$$$$
45:0
     RDKit          3D

 39 41  0  0  0  0  0  0  0  0999 V2000
   57.2191   34.9089   44.3825 H   0  0  0  0  0  0  0  0  0  0  0  0
   57.8000   34.2290   45.0230 C   0  0  0  0  0  0  0  0  0  0  0  0
   58.8760   34.7030   45.7090 N   0  0  0  0  0  0  0  0  0  0  0  0
   59.6000   33.8750   46.5050 C   0  0  0  0  0  0  0  0  0  0  0  0
   60.7190   34.2780   47.2410 C   0  0  0  0  0  0  0  0  0  0  0  0
   61.1096   35.3063   47.2417 H   0  0  0  0  0  0  0  0  0  0  0  0
   61.2880   33.2330   47.9760 C   0  0  0  0  0  0  0  0  0  0  0  0
   62.4810   33.3130   48.8580 C   0  0  0  0  0  0  0  0  0  0  0  0
   62.4390   34.0700   50.0460 C   0  0  0  0  0  0  0  0  0  0  0  0
   61.5166   34.6032   50.3197 H   0  0  0  0  0  0  0  0  0  0  0  0
   63.5580   34.1500   50.8800 C   0  0  0  0  0  0  0  0  0  0  0  0
   63.5113   34.7412   51.8064 H   0  0  0  0  0  0  0  0  0  0  0  0
   64.7340   33.4810   50.5390 C   0  0  0  0  0  0  0  0  0  0  0  0
   65.6138   33.5454   51.1961 H   0  0  0  0  0  0  0  0  0  0  0  0
   64.7940   32.7300   49.3640 C   0  0  0  0  0  0  0  0  0  0  0  0
   65.7220   32.2037   49.0961 H   0  0  0  0  0  0  0  0  0  0  0  0
   63.6780   32.6450   48.5270 C   0  0  0  0  0  0  0  0  0  0  0  0
   63.7338   32.0520   47.6022 H   0  0  0  0  0  0  0  0  0  0  0  0
   60.3790   31.8340   47.6840 S   0  0  0  0  0  0  0  0  0  0  0  0
   59.2620   32.5340   46.6350 C   0  0  0  0  0  0  0  0  0  0  0  0
   58.1550   31.9970   45.9420 C   0  0  0  0  0  0  0  0  0  0  0  0
   57.7650   30.7530   46.0080 N   0  0  0  0  0  0  0  0  0  0  0  0
   58.3520   29.5810   45.3660 C   0  0  0  0  0  0  0  0  0  0  0  0
   59.0047   29.0623   46.0837 H   0  0  0  0  0  0  0  0  0  0  0  0
   58.9369   29.9055   44.4927 H   0  0  0  0  0  0  0  0  0  0  0  0
   57.2460   28.6210   44.9000 C   0  0  0  0  0  0  0  0  0  0  0  0
   57.3308   27.6858   45.4730 H   0  0  0  0  0  0  0  0  0  0  0  0
   57.3872   28.4594   43.8211 H   0  0  0  0  0  0  0  0  0  0  0  0
   55.8890   29.1630   45.0870 N   0  0  0  0  0  0  0  0  0  0  0  0
   55.8500   29.7090   45.9810 H   0  0  0  0  0  0  0  0  0  0  0  0
   55.4630   30.0240   43.9780 C   0  0  0  0  0  0  0  0  0  0  0  0
   55.5801   31.0785   44.2683 H   0  0  0  0  0  0  0  0  0  0  0  0
   54.4079   29.8197   43.7435 H   0  0  0  0  0  0  0  0  0  0  0  0
   56.3160   29.7400   42.7490 C   0  0  0  0  0  0  0  0  0  0  0  0
   57.3156   29.4072   43.0654 H   0  0  0  0  0  0  0  0  0  0  0  0
   55.8406   28.9517   42.1469 H   0  0  0  0  0  0  0  0  0  0  0  0
   56.4080   30.6560   42.1469 H   0  0  0  0  0  0  0  0  0  0  0  0
   57.4250   32.8790   45.1260 C   0  0  0  0  0  0  0  0  0  0  0  0
   56.5543   32.5095   44.5644 H   0  0  0  0  0  0  0  0  0  0  0  0
  1  2  1  0
  2  3  1  0
  3  4  1  0
  4  5  1  0
  5  6  1  0
  5  7  2  0
  7  8  1  0
  8  9  2  0
  9 10  1  0
  9 11  1  0
 11 12  1  0
 11 13  2  0
 13 14  1  0
 13 15  1  0
 15 16  1  0
 15 17  2  0
 17 18  1  0
  7 19  1  0
 19 20  1  0
 20 21  1  0
 21 22  2  0
 22 23  1  0
 23 24  1  0
 23 25  1  0
 23 26  1  0
 26 27  1  0
 26 28  1  0
 26 29  1  0
 29 30  1  0
 29 31  1  0
 31 32  1  0
 31 33  1  0
 31 34  1  0
 34 35  1  0
 34 36  1  0
 34 37  1  0
 21 38  1  0
 38 39  1  0
 38  2  2  0
 20  4  2  0
 17  8  1  0
M  CHG  1   3  -1
M  END
>  <UniqueID>  (46) 
43

>  <SMILES>  (46) 
CCNCC/N=c1/cc[n-]c2cc(-c3ccccc3)sc12

>  <Energy>  (46) 
76.46983885188739

>  <Genealogy>  (46) 
CCNCCN=c1cc[n-]c2cc(-c3ccccc3)sc12 (protonated)
CCNCC/N=c1/cc[n-]c2cc(-c3ccccc3)sc12 (cis-trans isomerization)
CCNCC/N=c1/cc[n-]c2cc(-c3ccccc3)sc12 (3D coordinates assigned)
CCNCC/N=c1/cc[n-]c2cc(-c3ccccc3)sc12 (optimized conformer: 76.46983885188739 kcal/mol)

>  <smiles>  (46) 
CCNCCN=c1cc[nH]c2cc(-c3ccccc3)sc12

>  <score_type>  (46) 
oracle

>  <origin>  (46) 
adg

>  <m_score__min__energy>  (46) 
-8.2200000000000006

>  <m_primary>  (46) 
energy

$$$$
46:0
     RDKit          3D

 63 66  0  0  0  0  0  0  0  0999 V2000
   63.4120   33.6950   47.2400 C   0  0  0  0  0  0  0  0  0  0  0  0
   63.3570   32.3770   48.0160 C   0  0  0  0  0  0  0  0  0  0  0  0
   63.6440   32.5650   49.5160 C   0  0  0  0  0  0  0  0  0  0  0  0
   63.2000   33.9510   50.0450 C   0  0  0  0  0  0  0  0  0  0  0  0
   62.0930   33.8380   51.1100 C   0  0  0  0  0  0  0  0  0  0  0  0
   60.7510   33.7830   50.4840 N   0  0  0  0  0  0  0  0  0  0  0  0
   60.6940   34.1320   49.1620 C   0  0  0  0  0  0  0  0  0  0  0  0
   59.6890   33.6460   48.3210 C   0  0  0  0  0  0  0  0  0  0  0  0
   59.7320   33.9910   46.8800 C   0  0  0  0  0  0  0  0  0  0  0  0
   60.4200   34.9800   46.5050 O   0  0  0  0  0  0  0  0  0  0  0  0
   59.0340   33.1990   45.9060 N   0  0  0  0  0  0  0  0  0  0  0  0
   58.8140   33.6660   44.5380 C   0  0  0  0  0  0  0  0  0  0  0  0
   58.0960   32.6110   43.7440 C   0  0  0  0  0  0  0  0  0  0  0  0
   57.4200   31.5720   44.4060 C   0  0  0  0  0  0  0  0  0  0  0  0
   56.6970   30.6230   43.6740 C   0  0  0  0  0  0  0  0  0  0  0  0
   56.6390   30.7080   42.2790 C   0  0  0  0  0  0  0  0  0  0  0  0
   57.3110   31.7390   41.6140 C   0  0  0  0  0  0  0  0  0  0  0  0
   58.0320   32.6910   42.3420 C   0  0  0  0  0  0  0  0  0  0  0  0
   58.6990   32.8140   48.8650 C   0  0  0  0  0  0  0  0  0  0  0  0
   57.7940   32.3380   48.1240 O   0  0  0  0  0  0  0  0  0  0  0  0
   58.6890   32.5540   50.2480 C   0  0  0  0  0  0  0  0  0  0  0  0
   57.7140   31.7130   50.8140 C   0  0  0  0  0  0  0  0  0  0  0  0
   57.6430   31.5250   52.2000 C   0  0  0  0  0  0  0  0  0  0  0  0
   56.6670   30.6240   52.7650 N   0  0  0  0  0  0  0  0  0  0  0  0
   56.8440   29.7400   53.7720 C   0  0  0  0  0  0  0  0  0  0  0  0
   55.7290   29.0280   54.0430 N   0  0  0  0  0  0  0  0  0  0  0  0
   54.8180   29.5030   53.1710 C   0  0  0  0  0  0  0  0  0  0  0  0
   53.4360   28.9570   53.0300 C   0  0  0  0  0  0  0  0  0  0  0  0
   55.3860   30.4750   52.3780 C   0  0  0  0  0  0  0  0  0  0  0  0
   58.4920   32.2720   53.0270 C   0  0  0  0  0  0  0  0  0  0  0  0
   59.4490   33.1440   52.4870 C   0  0  0  0  0  0  0  0  0  0  0  0
   60.0320   34.1700   53.4280 C   0  0  0  0  0  0  0  0  0  0  0  0
   59.6650   33.1670   51.0770 C   0  0  0  0  0  0  0  0  0  0  0  0
   63.4471   34.5361   47.9480 H   0  0  0  0  0  0  0  0  0  0  0  0
   64.3116   33.7106   46.6071 H   0  0  0  0  0  0  0  0  0  0  0  0
   62.5168   33.7855   46.6071 H   0  0  0  0  0  0  0  0  0  0  0  0
   62.3537   31.9411   47.9006 H   0  0  0  0  0  0  0  0  0  0  0  0
   64.1345   31.7151   47.6069 H   0  0  0  0  0  0  0  0  0  0  0  0
   63.1060   31.7864   50.0767 H   0  0  0  0  0  0  0  0  0  0  0  0
   64.7326   32.4914   49.6557 H   0  0  0  0  0  0  0  0  0  0  0  0
   64.0700   34.4560   50.4901 H   0  0  0  0  0  0  0  0  0  0  0  0
   62.7965   34.5236   49.1969 H   0  0  0  0  0  0  0  0  0  0  0  0
   62.2526   32.9220   51.6977 H   0  0  0  0  0  0  0  0  0  0  0  0
   62.1396   34.7266   51.7566 H   0  0  0  0  0  0  0  0  0  0  0  0
   61.4565   34.8105   48.7519 H   0  0  0  0  0  0  0  0  0  0  0  0
   58.7110   32.2380   46.1590 H   0  0  0  0  0  0  0  0  0  0  0  0
   58.2062   34.5826   44.5593 H   0  0  0  0  0  0  0  0  0  0  0  0
   59.7859   33.8738   44.0666 H   0  0  0  0  0  0  0  0  0  0  0  0
   57.4592   31.5043   45.5032 H   0  0  0  0  0  0  0  0  0  0  0  0
   56.1735   29.8089   44.1967 H   0  0  0  0  0  0  0  0  0  0  0  0
   56.0655   29.9649   41.7055 H   0  0  0  0  0  0  0  0  0  0  0  0
   57.2723   31.8011   40.5164 H   0  0  0  0  0  0  0  0  0  0  0  0
   58.5510   33.5055   41.8155 H   0  0  0  0  0  0  0  0  0  0  0  0
   56.9974   31.1958   50.1590 H   0  0  0  0  0  0  0  0  0  0  0  0
   57.7938   29.6141   54.3125 H   0  0  0  0  0  0  0  0  0  0  0  0
   53.0054   28.7869   54.0278 H   0  0  0  0  0  0  0  0  0  0  0  0
   52.8120   29.6762   52.4791 H   0  0  0  0  0  0  0  0  0  0  0  0
   53.4721   28.0056   52.4791 H   0  0  0  0  0  0  0  0  0  0  0  0
   54.8832   31.0303   51.5725 H   0  0  0  0  0  0  0  0  0  0  0  0
   58.4067   32.1730   54.1192 H   0  0  0  0  0  0  0  0  0  0  0  0
   59.8542   33.8571   54.4675 H   0  0  0  0  0  0  0  0  0  0  0  0
   61.1142   34.2566   53.2512 H   0  0  0  0  0  0  0  0  0  0  0  0
   59.5525   35.1441   53.2512 H   0  0  0  0  0  0  0  0  0  0  0  0
  1  2  1  0
  2  3  1  0
  3  4  1  0
  4  5  1  0
  5  6  1  0
  6  7  1  0
  7  8  2  0
  8  9  1  0
  9 10  2  0
  9 11  1  0
 11 12  1  0
 12 13  1  0
 13 14  2  0
 14 15  1  0
 15 16  2  0
 16 17  1  0
 17 18  2  0
  8 19  1  0
 19 20  2  0
 19 21  1  0
 21 22  2  0
 22 23  1  0
 23 24  1  0
 24 25  1  0
 25 26  2  0
 26 27  1  0
 27 28  1  0
 27 29  2  0
 23 30  2  0
 30 31  1  0
 31 32  1  0
 31 33  2  0
 33  6  1  0
 18 13  1  0
 33 21  1  0
 29 24  1  0
  1 34  1  0
  1 35  1  0
  1 36  1  0
  2 37  1  0
  2 38  1  0
  3 39  1  0
  3 40  1  0
  4 41  1  0
  4 42  1  0
  5 43  1  0
  5 44  1  0
  7 45  1  0
 11 46  1  0
 12 47  1  0
 12 48  1  0
 14 49  1  0
 15 50  1  0
 16 51  1  0
 17 52  1  0
 18 53  1  0
 22 54  1  0
 25 55  1  0
 28 56  1  0
 28 57  1  0
 28 58  1  0
 29 59  1  0
 30 60  1  0
 32 61  1  0
 32 62  1  0
 32 63  1  0
M  END
>  <UniqueID>  (47) 
44

>  <SMILES>  (47) 
CCCCCn1cc(C(=O)NCc2ccccc2)c(=O)c2cc(-n3cnc(C)c3)cc(C)c21

>  <Energy>  (47) 
119.27149774087917

>  <Genealogy>  (47) 
CCCCCn1cc(C(=O)NCc2ccccc2)c(=O)c2cc(-n3cnc(C)c3)cc(C)c21 (3D coordinates assigned)
CCCCCn1cc(C(=O)NCc2ccccc2)c(=O)c2cc(-n3cnc(C)c3)cc(C)c21 (optimized conformer: 119.27149774087917 kcal/mol)

>  <smiles>  (47) 
CCCCCn1cc(C(=O)NCc2ccccc2)c(=O)c2cc(-n3cnc(C)c3)cc(C)c21

>  <score_type>  (47) 
oracle

>  <origin>  (47) 
adg

>  <m_score__min__energy>  (47) 
-9.3000000000000007

>  <m_primary>  (47) 
energy

$$$$
47:0
     RDKit          3D

 38 39  0  0  0  0  0  0  0  0999 V2000
   59.4640   30.4680   48.4420 C   0  0  0  0  0  0  0  0  0  0  0  0
   60.4880   29.9130   47.4650 C   0  0  0  0  0  0  0  0  0  0  0  0
   59.8740   29.4790   46.2120 N   0  0  0  0  0  0  0  0  0  0  0  0
   60.3670   28.3030   45.5440 C   0  0  0  0  0  0  0  0  0  0  0  0
   60.3370   27.0460   46.3520 C   0  0  0  0  0  0  0  0  0  0  0  0
   58.7930   30.2160   45.6110 C   0  0  0  0  0  0  0  0  0  0  0  0
   57.6910   29.4620   45.3130 N   0  0  0  0  0  0  0  0  0  0  0  0
   56.6060   30.0440   44.7940 C   0  0  0  0  0  0  0  0  0  0  0  0
   55.5310   29.3340   44.5120 N   0  0  0  0  0  0  0  0  0  0  0  0
   56.6470   31.3560   44.5880 N   0  0  0  0  0  0  0  0  0  0  0  0
   57.7590   32.1350   44.8840 C   0  0  0  0  0  0  0  0  0  0  0  0
   57.5130   33.5640   44.6270 C   0  0  0  0  0  0  0  0  0  0  0  0
   58.8080   34.7220   44.8980 S   0  0  0  0  0  0  0  0  0  0  0  0
   59.7060   34.3790   46.3860 C   0  0  0  0  0  0  0  0  0  0  0  0
   59.3330   34.6000   47.6700 C   0  0  0  0  0  0  0  0  0  0  0  0
   60.1830   34.2130   48.7050 C   0  0  0  0  0  0  0  0  0  0  0  0
   61.4040   33.6040   48.4310 C   0  0  0  0  0  0  0  0  0  0  0  0
   61.7650   33.3890   47.1180 C   0  0  0  0  0  0  0  0  0  0  0  0
   60.9280   33.7720   46.1700 N   0  0  0  0  0  0  0  0  0  0  0  0
   58.8330   31.5470   45.3980 N   0  0  0  0  0  0  0  0  0  0  0  0
   59.8030   30.2843   49.4722 H   0  0  0  0  0  0  0  0  0  0  0  0
   59.3520   31.5503   48.2804 H   0  0  0  0  0  0  0  0  0  0  0  0
   58.4961   29.9710   48.2804 H   0  0  0  0  0  0  0  0  0  0  0  0
   61.2285   30.6960   47.2445 H   0  0  0  0  0  0  0  0  0  0  0  0
   60.9608   29.0363   47.9318 H   0  0  0  0  0  0  0  0  0  0  0  0
   59.7552   28.1425   44.6440 H   0  0  0  0  0  0  0  0  0  0  0  0
   61.4277   28.4993   45.3287 H   0  0  0  0  0  0  0  0  0  0  0  0
   60.3430   27.2981   47.4227 H   0  0  0  0  0  0  0  0  0  0  0  0
   59.4251   26.4788   46.1140 H   0  0  0  0  0  0  0  0  0  0  0  0
   61.2208   26.4359   46.1140 H   0  0  0  0  0  0  0  0  0  0  0  0
   55.6120   28.6380   43.7470 H   0  0  0  0  0  0  0  0  0  0  0  0
   57.2176   33.6540   43.5712 H   0  0  0  0  0  0  0  0  0  0  0  0
   56.7573   33.8376   45.3780 H   0  0  0  0  0  0  0  0  0  0  0  0
   58.3688   35.0801   47.8934 H   0  0  0  0  0  0  0  0  0  0  0  0
   59.8855   34.3908   49.7490 H   0  0  0  0  0  0  0  0  0  0  0  0
   62.0714   33.2986   49.2503 H   0  0  0  0  0  0  0  0  0  0  0  0
   62.7236   32.9117   46.8664 H   0  0  0  0  0  0  0  0  0  0  0  0
   59.6780   32.1070   45.6220 H   0  0  0  0  0  0  0  0  0  0  0  0
  1  2  1  0
  2  3  1  0
  3  4  1  0
  4  5  1  0
  3  6  1  0
  6  7  2  0
  7  8  1  0
  8  9  2  3
  8 10  1  0
 10 11  2  0
 11 12  1  0
 12 13  1  0
 13 14  1  0
 14 15  2  0
 15 16  1  0
 16 17  2  0
 17 18  1  0
 18 19  2  0
 11 20  1  0
 20  6  1  0
 19 14  1  0
  1 21  1  0
  1 22  1  0
  1 23  1  0
  2 24  1  0
  2 25  1  0
  4 26  1  0
  4 27  1  0
  5 28  1  0
  5 29  1  0
  5 30  1  0
  9 31  1  0
 12 32  1  0
 12 33  1  0
 15 34  1  0
 16 35  1  0
 17 36  1  0
 18 37  1  0
 20 38  1  0
M  END
>  <smiles>  (48) 
CCN(CC)c1nc(=N)nc(CSc2ccccn2)[nH]1

>  <score_type>  (48) 
oracle

>  <origin>  (48) 
adg

>  <m_score__min__energy>  (48) 
-6.4199999999999999

>  <m_primary>  (48) 
energy

$$$$
