0:0
     RDKit          3D

 42 44  0  0  0  0  0  0  0  0999 V2000
   64.5210   32.5230   49.0070 C   0  0  0  0  0  0  0  0  0  0  0  0
   63.5790   33.5360   48.5040 N   0  0  0  0  0  0  0  0  0  0  0  0
   62.5430   33.8230   49.5260 C   0  0  0  0  0  0  0  0  0  0  0  0
   61.3230   34.5170   48.9090 C   0  0  0  0  0  0  0  0  0  0  0  0
   60.6150   33.6060   47.8570 C   0  0  0  0  0  0  0  0  0  0  0  0
   61.6220   32.5700   47.2540 C   0  0  0  0  0  0  0  0  0  0  0  0
   63.0390   33.1580   47.1720 C   0  0  0  0  0  0  0  0  0  0  0  0
   60.0120   34.4590   46.7170 C   0  0  0  0  0  0  0  0  0  0  0  0
   58.7970   33.7650   46.3110 N   0  0  0  0  0  0  0  0  0  0  0  0
   58.1970   33.9340   45.0140 C   0  0  0  0  0  0  0  0  0  0  0  0
   58.0840   35.0900   44.5250 O   0  0  0  0  0  0  0  0  0  0  0  0
   57.7160   32.7780   44.2300 C   0  0  0  0  0  0  0  0  0  0  0  0
   57.9670   32.6920   42.8510 C   0  0  0  0  0  0  0  0  0  0  0  0
   57.5260   31.5840   42.1220 C   0  0  0  0  0  0  0  0  0  0  0  0
   56.8430   30.5480   42.7650 C   0  0  0  0  0  0  0  0  0  0  0  0
   56.6070   30.6160   44.1400 C   0  0  0  0  0  0  0  0  0  0  0  0
   55.9520   29.6060   44.7650 F   0  0  0  0  0  0  0  0  0  0  0  0
   57.0480   31.7220   44.8730 C   0  0  0  0  0  0  0  0  0  0  0  0
   58.4310   32.7100   47.2430 C   0  0  0  0  0  0  0  0  0  0  0  0
   59.3550   32.9060   48.4380 C   0  0  1  0  0  0  0  0  0  0  0  0
   59.6270   31.6800   49.0660 O   0  0  0  0  0  0  0  0  0  0  0  0
   64.5143   32.5302   50.1070 H   0  0  0  0  0  0  0  0  0  0  0  0
   64.2186   31.5293   48.6450 H   0  0  0  0  0  0  0  0  0  0  0  0
   65.5341   32.7525   48.6450 H   0  0  0  0  0  0  0  0  0  0  0  0
   62.2217   32.8764   49.9851 H   0  0  0  0  0  0  0  0  0  0  0  0
   62.9784   34.4955   50.2798 H   0  0  0  0  0  0  0  0  0  0  0  0
   60.6083   34.7606   49.7089 H   0  0  0  0  0  0  0  0  0  0  0  0
   61.6671   35.4287   48.3988 H   0  0  0  0  0  0  0  0  0  0  0  0
   61.6412   31.6744   47.8924 H   0  0  0  0  0  0  0  0  0  0  0  0
   61.2913   32.3132   46.2368 H   0  0  0  0  0  0  0  0  0  0  0  0
   63.7060   32.4083   46.7213 H   0  0  0  0  0  0  0  0  0  0  0  0
   62.9855   34.0722   46.5626 H   0  0  0  0  0  0  0  0  0  0  0  0
   59.7743   35.4704   47.0783 H   0  0  0  0  0  0  0  0  0  0  0  0
   60.7149   34.5746   45.8788 H   0  0  0  0  0  0  0  0  0  0  0  0
   58.5130   33.5001   42.3423 H   0  0  0  0  0  0  0  0  0  0  0  0
   57.7169   31.5273   41.0402 H   0  0  0  0  0  0  0  0  0  0  0  0
   56.4915   29.6796   42.1886 H   0  0  0  0  0  0  0  0  0  0  0  0
   56.8713   31.7657   45.9578 H   0  0  0  0  0  0  0  0  0  0  0  0
   57.3785   32.8098   47.5469 H   0  0  0  0  0  0  0  0  0  0  0  0
   58.5354   31.7094   46.7981 H   0  0  0  0  0  0  0  0  0  0  0  0
   58.9102   33.5225   49.2330 H   0  0  0  0  0  0  0  0  0  0  0  0
   60.5010   31.7850   49.5220 H   0  0  0  0  0  0  0  0  0  0  0  0
  1  2  1  0
  2  3  1  0
  3  4  1  0
  4  5  1  0
  5  6  1  0
  6  7  1  0
  5  8  1  0
  8  9  1  0
  9 10  1  0
 10 11  2  0
 10 12  1  0
 12 13  2  0
 13 14  1  0
 14 15  2  0
 15 16  1  0
 16 17  1  0
 16 18  2  0
  9 19  1  0
 19 20  1  0
 20 21  1  0
  7  2  1  0
 18 12  1  0
 20  5  1  0
  1 22  1  0
  1 23  1  0
  1 24  1  0
  3 25  1  0
  3 26  1  0
  4 27  1  0
  4 28  1  0
  6 29  1  0
  6 30  1  0
  7 31  1  0
  7 32  1  0
  8 33  1  0
  8 34  1  0
 13 35  1  0
 14 36  1  0
 15 37  1  0
 18 38  1  0
 19 39  1  0
 19 40  1  0
 20 41  1  1
 21 42  1  0
M  END
>  <UniqueID>  (1) 
1

>  <SMILES>  (1) 
CN1CCC2(CC1)CN(C(=O)c1cccc(F)c1)C[C@H]2O

>  <Energy>  (1) 
61.88806489214654

>  <Genealogy>  (1) 
CN1CCC2(CC1)CN(C(=O)c1cccc(F)c1)C[C@H]2O (chirality)
CN1CCC2(CC1)CN(C(=O)c1cccc(F)c1)C[C@H]2O (3D coordinates assigned)
CN1CCC2(CC1)CN(C(=O)c1cccc(F)c1)C[C@H]2O (nonaromatic ring conformer: 61.88806489214654 kcal/mol)

>  <smiles>  (1) 
CN1CCC2(CC1)CN(C(=O)c1cccc(F)c1)CC2O

>  <score_type>  (1) 
oracle

>  <origin>  (1) 
adg

>  <m_score__min__energy>  (1) 
-7.0899999999999999

>  <m_primary>  (1) 
energy

$$$$
1:0
     RDKit          3D

 33 36  0  0  0  0  0  0  0  0999 V2000
   59.5350   33.8090   48.7400 C   0  0  0  0  0  0  0  0  0  0  0  0
   58.8990   32.5530   48.7070 C   0  0  0  0  0  0  0  0  0  0  0  0
   58.4170   32.0360   47.4940 C   0  0  0  0  0  0  0  0  0  0  0  0
   58.5970   32.7930   46.3310 C   0  0  0  0  0  0  0  0  0  0  0  0
   59.2020   34.0190   46.3650 C   0  0  0  0  0  0  0  0  0  0  0  0
   59.6860   34.5560   47.5600 C   0  0  0  0  0  0  0  0  0  0  0  0
   59.2270   34.6300   45.0090 C   0  0  0  0  0  0  0  0  0  0  0  0
   58.5240   33.5700   44.1260 C   0  0  0  0  0  0  0  0  0  0  0  0
   58.1640   32.4660   45.0190 N   0  0  0  0  0  0  0  0  0  0  0  0
   57.7940   31.1550   44.5590 C   0  0  0  0  0  0  0  0  0  0  0  0
   56.6330   30.9790   43.7920 C   0  0  0  0  0  0  0  0  0  0  0  0
   56.2680   29.7000   43.3680 C   0  0  0  0  0  0  0  0  0  0  0  0
   57.0280   28.6210   43.6970 N   0  0  0  0  0  0  0  0  0  0  0  0
   58.1610   28.7540   44.4440 C   0  0  0  0  0  0  0  0  0  0  0  0
   58.9420   27.6390   44.7760 C   0  0  0  0  0  0  0  0  0  0  0  0
   60.1020   27.8040   45.5340 C   0  0  0  0  0  0  0  0  0  0  0  0
   60.4740   29.0830   45.9520 C   0  0  0  0  0  0  0  0  0  0  0  0
   59.7080   30.1580   45.6260 N   0  0  0  0  0  0  0  0  0  0  0  0
   58.5660   30.0300   44.8940 C   0  0  0  0  0  0  0  0  0  0  0  0
   59.9148   34.2064   49.6928 H   0  0  0  0  0  0  0  0  0  0  0  0
   58.7794   31.9748   49.6351 H   0  0  0  0  0  0  0  0  0  0  0  0
   57.9105   31.0602   47.4587 H   0  0  0  0  0  0  0  0  0  0  0  0
   60.1744   35.5415   47.5768 H   0  0  0  0  0  0  0  0  0  0  0  0
   58.6758   35.5818   44.9957 H   0  0  0  0  0  0  0  0  0  0  0  0
   60.2436   34.8706   44.6646 H   0  0  0  0  0  0  0  0  0  0  0  0
   57.6213   33.9966   43.6643 H   0  0  0  0  0  0  0  0  0  0  0  0
   59.1800   33.2286   43.3117 H   0  0  0  0  0  0  0  0  0  0  0  0
   56.0116   31.8466   43.5252 H   0  0  0  0  0  0  0  0  0  0  0  0
   55.3592   29.5638   42.7634 H   0  0  0  0  0  0  0  0  0  0  0  0
   56.7260   27.6770   43.3640 H   0  0  0  0  0  0  0  0  0  0  0  0
   58.6414   26.6357   44.4398 H   0  0  0  0  0  0  0  0  0  0  0  0
   60.7186   26.9328   45.8001 H   0  0  0  0  0  0  0  0  0  0  0  0
   61.3891   29.2214   46.5466 H   0  0  0  0  0  0  0  0  0  0  0  0
  1  2  2  0
  2  3  1  0
  3  4  2  0
  4  5  1  0
  5  6  2  0
  5  7  1  0
  7  8  1  0
  8  9  1  0
  9 10  1  0
 10 11  2  0
 11 12  1  0
 12 13  2  0
 13 14  1  0
 14 15  2  0
 15 16  1  0
 16 17  2  0
 17 18  1  0
 18 19  2  0
  6  1  1  0
 19 10  1  0
  9  4  1  0
 19 14  1  0
  1 20  1  0
  2 21  1  0
  3 22  1  0
  6 23  1  0
  7 24  1  0
  7 25  1  0
  8 26  1  0
  8 27  1  0
 11 28  1  0
 12 29  1  0
 13 30  1  0
 15 31  1  0
 16 32  1  0
 17 33  1  0
M  CHG  1  13   1
M  END
>  <UniqueID>  (2) 
2

>  <SMILES>  (2) 
c1ccc2c(c1)CCN2c1cc[nH+]c2cccnc12

>  <Energy>  (2) 
60.85245346594984

>  <Genealogy>  (2) 
c1ccc2c(c1)CCN2c1cc[nH+]c2cccnc12 (protonated)
c1ccc2c(c1)CCN2c1cc[nH+]c2cccnc12 (3D coordinates assigned)
c1ccc2c(c1)CCN2c1cc[nH+]c2cccnc12 (nonaromatic ring conformer: 60.85245346594984 kcal/mol)

>  <smiles>  (2) 
c1ccc2c(c1)CCN2c1ccnc2cccnc12

>  <score_type>  (2) 
oracle

>  <origin>  (2) 
adg

>  <m_score__min__energy>  (2) 
-5.9800000000000004

>  <m_primary>  (2) 
energy

$$$$
2:0
     RDKit          3D

 58 61  0  0  0  0  0  0  0  0999 V2000
   63.3120   33.8210   46.4780 C   0  0  0  0  0  0  0  0  0  0  0  0
   63.3430   32.5390   47.1850 N   0  0  0  0  0  0  0  0  0  0  0  0
   62.5310   32.6130   48.4050 C   0  0  0  0  0  0  0  0  0  0  0  0
   61.4810   33.7200   48.2690 C   0  0  0  0  0  0  0  0  0  0  0  0
   60.1230   33.1580   48.3370 N   0  0  0  0  0  0  0  0  0  0  0  0
   59.5120   32.9360   49.6250 C   0  0  0  0  0  0  0  0  0  0  0  0
   58.7050   31.8070   49.8320 C   0  0  0  0  0  0  0  0  0  0  0  0
   58.1080   31.5700   51.0740 C   0  0  0  0  0  0  0  0  0  0  0  0
   57.3150   30.4220   51.2220 O   0  0  0  0  0  0  0  0  0  0  0  0
   56.3680   30.2290   52.2670 C   0  0  0  0  0  0  0  0  0  0  0  0
   58.3220   32.4810   52.1250 C   0  0  0  0  0  0  0  0  0  0  0  0
   59.1180   33.6160   51.9360 C   0  0  0  0  0  0  0  0  0  0  0  0
   59.2940   34.4920   53.0180 O   0  0  0  0  0  0  0  0  0  0  0  0
   58.9930   34.1720   54.3710 C   0  0  0  0  0  0  0  0  0  0  0  0
   59.7130   33.8410   50.6800 C   0  0  0  0  0  0  0  0  0  0  0  0
   59.4310   32.7450   47.1370 C   0  0  0  0  0  0  0  0  0  0  0  0
   58.8420   33.7080   46.2950 C   0  0  0  0  0  0  0  0  0  0  0  0
   58.1620   33.3250   45.1350 C   0  0  0  0  0  0  0  0  0  0  0  0
   58.0590   31.9700   44.7980 C   0  0  0  0  0  0  0  0  0  0  0  0
   57.4000   31.5720   43.6720 N   0  0  0  0  0  0  0  0  0  0  0  0
   57.3000   30.2550   43.3470 C   0  0  0  0  0  0  0  0  0  0  0  0
   57.8820   29.2830   44.1790 C   0  0  0  0  0  0  0  0  0  0  0  0
   57.8010   27.8410   43.8680 C   0  0  0  0  0  0  0  0  0  0  0  0
   57.8700   27.2640   42.6110 C   0  0  0  0  0  0  0  0  0  0  0  0
   57.7710   25.9260   42.7290 N   0  0  0  0  0  0  0  0  0  0  0  0
   57.6280   25.6470   44.0150 N   0  0  0  0  0  0  0  0  0  0  0  0
   57.5580   24.2940   44.5490 C   0  0  0  0  0  0  0  0  0  0  0  0
   57.6550   26.7790   44.7410 C   0  0  0  0  0  0  0  0  0  0  0  0
   58.5380   29.6860   45.3010 N   0  0  0  0  0  0  0  0  0  0  0  0
   58.6440   30.9990   45.6330 C   0  0  0  0  0  0  0  0  0  0  0  0
   59.3230   31.3840   46.7920 C   0  0  0  0  0  0  0  0  0  0  0  0
   63.2921   34.6426   47.2092 H   0  0  0  0  0  0  0  0  0  0  0  0
   64.2082   33.9134   45.8469 H   0  0  0  0  0  0  0  0  0  0  0  0
   62.4124   33.8700   45.8469 H   0  0  0  0  0  0  0  0  0  0  0  0
   64.3360   32.3610   47.4640 H   0  0  0  0  0  0  0  0  0  0  0  0
   62.0256   31.6492   48.5652 H   0  0  0  0  0  0  0  0  0  0  0  0
   63.1845   32.8383   49.2607 H   0  0  0  0  0  0  0  0  0  0  0  0
   61.6131   34.4456   49.0852 H   0  0  0  0  0  0  0  0  0  0  0  0
   61.6115   34.2143   47.2950 H   0  0  0  0  0  0  0  0  0  0  0  0
   58.5398   31.0991   49.0064 H   0  0  0  0  0  0  0  0  0  0  0  0
   56.8701   30.3313   53.2404 H   0  0  0  0  0  0  0  0  0  0  0  0
   55.5717   30.9833   52.1841 H   0  0  0  0  0  0  0  0  0  0  0  0
   55.9304   29.2232   52.1841 H   0  0  0  0  0  0  0  0  0  0  0  0
   57.8584   32.2988   53.1058 H   0  0  0  0  0  0  0  0  0  0  0  0
   59.5912   34.8080   55.0400 H   0  0  0  0  0  0  0  0  0  0  0  0
   57.9233   34.3456   54.5596 H   0  0  0  0  0  0  0  0  0  0  0  0
   59.2317   33.1149   54.5596 H   0  0  0  0  0  0  0  0  0  0  0  0
   60.3395   34.7316   50.5239 H   0  0  0  0  0  0  0  0  0  0  0  0
   58.9179   34.7746   46.5531 H   0  0  0  0  0  0  0  0  0  0  0  0
   57.7076   34.0887   44.4867 H   0  0  0  0  0  0  0  0  0  0  0  0
   56.9600   32.2800   43.0420 H   0  0  0  0  0  0  0  0  0  0  0  0
   56.7649   29.9513   42.4352 H   0  0  0  0  0  0  0  0  0  0  0  0
   57.9873   27.8124   41.6647 H   0  0  0  0  0  0  0  0  0  0  0  0
   57.5600   24.3331   45.6483 H   0  0  0  0  0  0  0  0  0  0  0  0
   56.6336   23.8098   44.2010 H   0  0  0  0  0  0  0  0  0  0  0  0
   58.4275   23.7170   44.2010 H   0  0  0  0  0  0  0  0  0  0  0  0
   57.5750   26.8476   45.8359 H   0  0  0  0  0  0  0  0  0  0  0  0
   59.7762   30.6187   47.4393 H   0  0  0  0  0  0  0  0  0  0  0  0
  1  2  1  0
  2  3  1  0
  3  4  1  0
  4  5  1  0
  5  6  1  0
  6  7  2  0
  7  8  1  0
  8  9  1  0
  9 10  1  0
  8 11  2  0
 11 12  1  0
 12 13  1  0
 13 14  1  0
 12 15  2  0
  5 16  1  0
 16 17  2  0
 17 18  1  0
 18 19  2  0
 19 20  1  0
 20 21  2  0
 21 22  1  0
 22 23  1  0
 23 24  1  0
 24 25  2  0
 25 26  1  0
 26 27  1  0
 26 28  1  0
 22 29  2  0
 29 30  1  0
 30 31  2  0
 15  6  1  0
 31 16  1  0
 30 19  1  0
 28 23  2  0
  1 32  1  0
  1 33  1  0
  1 34  1  0
  2 35  1  0
  3 36  1  0
  3 37  1  0
  4 38  1  0
  4 39  1  0
  7 40  1  0
 10 41  1  0
 10 42  1  0
 10 43  1  0
 11 44  1  0
 14 45  1  0
 14 46  1  0
 14 47  1  0
 15 48  1  0
 17 49  1  0
 18 50  1  0
 20 51  1  0
 21 52  1  0
 24 53  1  0
 27 54  1  0
 27 55  1  0
 27 56  1  0
 28 57  1  0
 31 58  1  0
M  CHG  1  20   1
M  END
>  <UniqueID>  (3) 
3

>  <SMILES>  (3) 
CNCCN(c1cc(OC)cc(OC)c1)c1ccc2[nH+]cc(-c3cnn(C)c3)nc2c1

>  <Energy>  (3) 
97.64311396125477

>  <Genealogy>  (3) 
CNCCN(c1cc(OC)cc(OC)c1)c1ccc2[nH+]cc(-c3cnn(C)c3)nc2c1 (protonated)
CNCCN(c1cc(OC)cc(OC)c1)c1ccc2[nH+]cc(-c3cnn(C)c3)nc2c1 (3D coordinates assigned)
CNCCN(c1cc(OC)cc(OC)c1)c1ccc2[nH+]cc(-c3cnn(C)c3)nc2c1 (optimized conformer: 97.64311396125477 kcal/mol)

>  <smiles>  (3) 
CNCCN(c1cc(OC)cc(OC)c1)c1ccc2ncc(-c3cnn(C)c3)nc2c1

>  <score_type>  (3) 
oracle

>  <origin>  (3) 
adg

>  <m_score__min__energy>  (3) 
-6.7199999999999998

>  <m_primary>  (3) 
energy

$$$$
3:0
     RDKit          3D

 34 37  0  0  0  0  0  0  0  0999 V2000
   59.1970   35.1260   44.9830 C   0  0  0  0  0  0  0  0  0  0  0  0
   58.1770   34.2390   44.6470 O   0  0  0  0  0  0  0  0  0  0  0  0
   58.1700   32.8760   44.8200 C   0  0  0  0  0  0  0  0  0  0  0  0
   57.9980   32.0670   43.7020 C   0  0  0  0  0  0  0  0  0  0  0  0
   57.9840   30.6750   43.8300 C   0  0  0  0  0  0  0  0  0  0  0  0
   58.1420   30.0840   45.0830 C   0  0  0  0  0  0  0  0  0  0  0  0
   58.1370   28.6930   45.2870 N   0  0  0  0  0  0  0  0  0  0  0  0
   59.3510   28.0880   45.4120 C   0  0  0  0  0  0  0  0  0  0  0  0
   60.7450   28.9510   45.3260 S   0  0  0  0  0  0  0  0  0  0  0  0
   59.4660   26.7600   45.6110 N   0  0  0  0  0  0  0  0  0  0  0  0
   58.3220   26.0490   45.6810 C   0  0  0  0  0  0  0  0  0  0  0  0
   58.1650   24.7180   45.8720 N   0  0  0  0  0  0  0  0  0  0  0  0
   56.8540   24.4290   45.8760 N   0  0  0  0  0  0  0  0  0  0  0  0
   56.2290   23.2460   46.0310 C   0  0  0  0  0  0  0  0  0  0  0  0
   54.8420   23.2260   45.9940 C   0  0  0  0  0  0  0  0  0  0  0  0
   54.1370   24.4100   45.7990 C   0  0  0  0  0  0  0  0  0  0  0  0
   54.8160   25.5860   45.6460 N   0  0  0  0  0  0  0  0  0  0  0  0
   56.1750   25.5870   45.6860 C   0  0  0  0  0  0  0  0  0  0  0  0
   57.0740   26.6260   45.5600 C   0  0  0  0  0  0  0  0  0  0  0  0
   57.0080   27.9710   45.3600 C   0  0  0  0  0  0  0  0  0  0  0  0
   55.8890   28.5160   45.2460 O   0  0  0  0  0  0  0  0  0  0  0  0
   58.3130   30.8890   46.2040 C   0  0  0  0  0  0  0  0  0  0  0  0
   58.3260   32.2750   46.0740 C   0  0  0  0  0  0  0  0  0  0  0  0
   59.2767   35.1953   46.0779 H   0  0  0  0  0  0  0  0  0  0  0  0
   60.1493   34.7639   44.5682 H   0  0  0  0  0  0  0  0  0  0  0  0
   58.9705   36.1193   44.5682 H   0  0  0  0  0  0  0  0  0  0  0  0
   57.8721   32.5256   42.7101 H   0  0  0  0  0  0  0  0  0  0  0  0
   57.8479   30.0439   42.9394 H   0  0  0  0  0  0  0  0  0  0  0  0
   60.3800   26.2720   45.7090 H   0  0  0  0  0  0  0  0  0  0  0  0
   56.8030   22.3200   46.1829 H   0  0  0  0  0  0  0  0  0  0  0  0
   54.3009   22.2764   46.1185 H   0  0  0  0  0  0  0  0  0  0  0  0
   53.0375   24.3992   45.7682 H   0  0  0  0  0  0  0  0  0  0  0  0
   58.4383   30.4296   47.1956 H   0  0  0  0  0  0  0  0  0  0  0  0
   58.4603   32.9042   46.9662 H   0  0  0  0  0  0  0  0  0  0  0  0
  1  2  1  0
  2  3  1  0
  3  4  2  0
  4  5  1  0
  5  6  2  0
  6  7  1  0
  7  8  1  0
  8  9  2  0
  8 10  1  0
 10 11  1  0
 11 12  2  0
 12 13  1  0
 13 14  1  0
 14 15  2  0
 15 16  1  0
 16 17  2  0
 17 18  1  0
 18 19  2  0
 19 20  1  0
 20 21  2  0
  6 22  1  0
 22 23  2  0
 23  3  1  0
 20  7  1  0
 19 11  1  0
 18 13  1  0
  1 24  1  0
  1 25  1  0
  1 26  1  0
  4 27  1  0
  5 28  1  0
 10 29  1  0
 14 30  1  0
 15 31  1  0
 16 32  1  0
 22 33  1  0
 23 34  1  0
M  END
>  <smiles>  (4) 
COc1ccc(-n2c(=S)[nH]c3nn4cccnc4c3c2=O)cc1

>  <score_type>  (4) 
oracle

>  <origin>  (4) 
adg

>  <m_score__min__energy>  (4) 
-6.79

>  <m_primary>  (4) 
energy

$$$$
4:0
     RDKit          3D

 47 50  0  0  0  0  0  0  0  0999 V2000
   60.7760   25.9700   46.3400 C   0  0  0  0  0  0  0  0  0  0  0  0
   60.5600   27.2230   46.9820 O   0  0  0  0  0  0  0  0  0  0  0  0
   59.7640   28.2540   46.4630 C   0  0  0  0  0  0  0  0  0  0  0  0
   58.8910   28.0590   45.3820 C   0  0  0  0  0  0  0  0  0  0  0  0
   58.1290   29.1250   44.8910 C   0  0  0  0  0  0  0  0  0  0  0  0
   58.2690   30.4140   45.4330 C   0  0  0  0  0  0  0  0  0  0  0  0
   59.0710   30.5970   46.5900 C   0  0  0  0  0  0  0  0  0  0  0  0
   59.8340   29.5120   47.0650 C   0  0  0  0  0  0  0  0  0  0  0  0
   59.0010   31.8460   47.4430 C   0  0  0  0  0  0  0  0  0  0  0  0
   59.6200   33.0310   46.8080 N   0  0  0  0  0  0  0  0  0  0  0  0
   59.4720   34.2160   47.6850 C   0  0  0  0  0  0  0  0  0  0  0  0
   60.2780   34.0400   48.9450 C   0  0  0  0  0  0  0  0  0  0  0  0
   61.6740   34.1840   48.9100 C   0  0  0  0  0  0  0  0  0  0  0  0
   62.4280   34.0280   50.0770 C   0  0  0  0  0  0  0  0  0  0  0  0
   61.7940   33.7260   51.2860 C   0  0  0  0  0  0  0  0  0  0  0  0
   60.4040   33.5800   51.3280 C   0  0  0  0  0  0  0  0  0  0  0  0
   59.6470   33.7350   50.1620 C   0  0  0  0  0  0  0  0  0  0  0  0
   59.1460   33.3150   45.4310 C   0  0  0  0  0  0  0  0  0  0  0  0
   57.6710   32.9420   45.1850 C   0  0  0  0  0  0  0  0  0  0  0  0
   57.5340   31.5000   44.6600 C   0  0  2  0  0  0  0  0  0  0  0  0
   56.1170   31.1210   44.5370 N   0  0  0  0  0  0  0  0  0  0  0  0
   55.9020   29.7890   43.9140 C   0  0  0  0  0  0  0  0  0  0  0  0
   57.1790   28.9280   43.7400 C   0  0  0  0  0  0  0  0  0  0  0  0
   60.9110   25.1868   47.1005 H   0  0  0  0  0  0  0  0  0  0  0  0
   59.9068   25.7252   45.7118 H   0  0  0  0  0  0  0  0  0  0  0  0
   61.6770   26.0303   45.7118 H   0  0  0  0  0  0  0  0  0  0  0  0
   58.8053   27.0649   44.9190 H   0  0  0  0  0  0  0  0  0  0  0  0
   60.4992   29.6590   47.9287 H   0  0  0  0  0  0  0  0  0  0  0  0
   57.9432   32.0715   47.6438 H   0  0  0  0  0  0  0  0  0  0  0  0
   59.5663   31.6405   48.3640 H   0  0  0  0  0  0  0  0  0  0  0  0
   59.8261   35.1095   47.1500 H   0  0  0  0  0  0  0  0  0  0  0  0
   58.4114   34.3317   47.9529 H   0  0  0  0  0  0  0  0  0  0  0  0
   62.1767   34.4205   47.9606 H   0  0  0  0  0  0  0  0  0  0  0  0
   63.5215   34.1430   50.0439 H   0  0  0  0  0  0  0  0  0  0  0  0
   62.3883   33.6033   52.2035 H   0  0  0  0  0  0  0  0  0  0  0  0
   59.9051   33.3429   52.2793 H   0  0  0  0  0  0  0  0  0  0  0  0
   58.5539   33.6176   50.1984 H   0  0  0  0  0  0  0  0  0  0  0  0
   59.2670   34.3913   45.2389 H   0  0  0  0  0  0  0  0  0  0  0  0
   59.7484   32.6926   44.7530 H   0  0  0  0  0  0  0  0  0  0  0  0
   57.1168   33.0323   46.1309 H   0  0  0  0  0  0  0  0  0  0  0  0
   57.2636   33.6261   44.4260 H   0  0  0  0  0  0  0  0  0  0  0  0
   58.0341   31.5447   43.6813 H   0  0  0  0  0  0  0  0  0  0  0  0
   55.6250   31.8370   43.9520 H   0  0  0  0  0  0  0  0  0  0  0  0
   55.1967   29.2281   44.5449 H   0  0  0  0  0  0  0  0  0  0  0  0
   55.5247   29.9839   42.8993 H   0  0  0  0  0  0  0  0  0  0  0  0
   56.8924   27.8672   43.6888 H   0  0  0  0  0  0  0  0  0  0  0  0
   57.6848   29.2381   42.8137 H   0  0  0  0  0  0  0  0  0  0  0  0
  1  2  1  0
  2  3  1  0
  3  4  2  0
  4  5  1  0
  5  6  2  0
  6  7  1  0
  7  8  2  0
  7  9  1  0
  9 10  1  0
 10 11  1  0
 11 12  1  0
 12 13  2  0
 13 14  1  0
 14 15  2  0
 15 16  1  0
 16 17  2  0
 10 18  1  0
 18 19  1  0
 19 20  1  0
 20 21  1  0
 21 22  1  0
 22 23  1  0
  8  3  1  0
 17 12  1  0
 23  5  1  0
 20  6  1  0
  1 24  1  0
  1 25  1  0
  1 26  1  0
  4 27  1  0
  8 28  1  0
  9 29  1  0
  9 30  1  0
 11 31  1  0
 11 32  1  0
 13 33  1  0
 14 34  1  0
 15 35  1  0
 16 36  1  0
 17 37  1  0
 18 38  1  0
 18 39  1  0
 19 40  1  0
 19 41  1  0
 20 42  1  6
 21 43  1  0
 22 44  1  0
 22 45  1  0
 23 46  1  0
 23 47  1  0
M  END
>  <UniqueID>  (5) 
4

>  <SMILES>  (5) 
COc1cc2c3c(c1)CN(Cc1ccccc1)CC[C@@H]3NCC2

>  <Energy>  (5) 
77.16262833356203

>  <Genealogy>  (5) 
COc1cc2c3c(c1)CN(Cc1ccccc1)CC[C@@H]3NCC2 (chirality)
COc1cc2c3c(c1)CN(Cc1ccccc1)CC[C@@H]3NCC2 (3D coordinates assigned)
COc1cc2c3c(c1)CN(Cc1ccccc1)CC[C@@H]3NCC2 (nonaromatic ring conformer: 77.16262833356203 kcal/mol)

>  <smiles>  (5) 
COc1cc2c3c(c1)CN(Cc1ccccc1)CCC3NCC2

>  <score_type>  (5) 
oracle

>  <origin>  (5) 
adg

>  <m_score__min__energy>  (5) 
-6.3200000000000003

>  <m_primary>  (5) 
energy

$$$$
5:0
     RDKit          3D

 47 48  0  0  0  0  0  0  0  0999 V2000
   55.3811   28.8804   43.8310 H   0  0  0  0  0  0  0  0  0  0  0  0
   56.2630   29.4860   44.0870 C   0  0  0  0  0  0  0  0  0  0  0  0
   56.2700   30.7740   43.7280 C   0  0  0  0  0  0  0  0  0  0  0  0
   55.3277   31.3414   43.7154 H   0  0  0  0  0  0  0  0  0  0  0  0
   58.3530   33.2760   44.8380 C   0  0  0  0  0  0  0  0  0  0  0  0
   59.1120   34.4770   44.8560 C   0  0  0  0  0  0  0  0  0  0  0  0
   59.2668   35.0384   43.9228 H   0  0  0  0  0  0  0  0  0  0  0  0
   59.6670   34.9540   46.0570 C   0  0  0  0  0  0  0  0  0  0  0  0
   60.2418   35.8915   46.0844 H   0  0  0  0  0  0  0  0  0  0  0  0
   59.4650   34.2010   47.2090 C   0  0  0  0  0  0  0  0  0  0  0  0
   58.7650   33.0400   47.1950 C   0  0  0  0  0  0  0  0  0  0  0  0
   58.1990   32.5330   46.0290 C   0  0  0  0  0  0  0  0  0  0  0  0
   57.6477   31.5811   46.0350 H   0  0  0  0  0  0  0  0  0  0  0  0
   58.7340   32.5060   48.4690 O   0  0  0  0  0  0  0  0  0  0  0  0
   59.4590   33.3870   49.3370 C   0  0  0  0  0  0  0  0  0  0  0  0
   58.8030   33.7729   50.1312 H   0  0  0  0  0  0  0  0  0  0  0  0
   60.2948   32.8767   49.8379 H   0  0  0  0  0  0  0  0  0  0  0  0
   59.9100   34.4560   48.4920 O   0  0  0  0  0  0  0  0  0  0  0  0
   57.7990   32.7360   43.5790 C   0  0  0  0  0  0  0  0  0  0  0  0
   57.5895   33.4501   42.7690 H   0  0  0  0  0  0  0  0  0  0  0  0
   57.5320   31.4420   43.3480 C   0  0  0  0  0  0  0  0  0  0  0  0
   58.3017   30.8396   42.8434 H   0  0  0  0  0  0  0  0  0  0  0  0
   57.3730   28.8310   44.8080 C   0  0  0  0  0  0  0  0  0  0  0  0
   57.1220   28.2860   45.9160 O   0  0  0  0  0  0  0  0  0  0  0  0
   58.7080   28.7780   44.2730 N   0  0  0  0  0  0  0  0  0  0  0  0
   58.9040   29.1200   43.3080 H   0  0  0  0  0  0  0  0  0  0  0  0
   59.8300   28.2240   45.0280 C   0  0  0  0  0  0  0  0  0  0  0  0
   60.4485   27.6082   44.3585 H   0  0  0  0  0  0  0  0  0  0  0  0
   59.4373   27.6094   45.8515 H   0  0  0  0  0  0  0  0  0  0  0  0
   60.6880   29.3510   45.6140 C   0  0  0  0  0  0  0  0  0  0  0  0
   60.6974   30.1981   44.9123 H   0  0  0  0  0  0  0  0  0  0  0  0
   61.7078   28.9699   45.7712 H   0  0  0  0  0  0  0  0  0  0  0  0
   60.1280   29.8230   46.9640 C   0  0  0  0  0  0  0  0  0  0  0  0
   59.7451   28.9515   47.5153 H   0  0  0  0  0  0  0  0  0  0  0  0
   59.3254   30.5490   46.7671 H   0  0  0  0  0  0  0  0  0  0  0  0
   61.2000   30.5150   47.8120 C   0  0  0  0  0  0  0  0  0  0  0  0
   62.1289   29.9273   47.7711 H   0  0  0  0  0  0  0  0  0  0  0  0
   60.8415   30.5863   48.8495 H   0  0  0  0  0  0  0  0  0  0  0  0
   61.4620   31.8690   47.3060 N   0  0  0  0  0  0  0  0  0  0  0  0
   60.8740   32.5330   47.8620 H   0  0  0  0  0  0  0  0  0  0  0  0
   62.8690   32.2510   47.4950 C   0  0  0  0  0  0  0  0  0  0  0  0
   63.5166   31.4532   47.1024 H   0  0  0  0  0  0  0  0  0  0  0  0
   63.0566   32.3977   48.5689 H   0  0  0  0  0  0  0  0  0  0  0  0
   63.1730   33.5520   46.7590 C   0  0  0  0  0  0  0  0  0  0  0  0
   63.3599   34.3520   47.4905 H   0  0  0  0  0  0  0  0  0  0  0  0
   64.0637   33.4167   46.1279 H   0  0  0  0  0  0  0  0  0  0  0  0
   62.3146   33.8255   46.1279 H   0  0  0  0  0  0  0  0  0  0  0  0
  1  2  1  0
  2  3  2  0
  3  4  1  0
  3  5  1  0
  5  6  2  0
  6  7  1  0
  6  8  1  0
  8  9  1  0
  8 10  2  0
 10 11  1  0
 11 12  2  0
 12 13  1  0
 11 14  1  0
 14 15  1  0
 15 16  1  0
 15 17  1  0
 15 18  1  0
  2 19  1  0
 19 20  1  0
 19 21  2  0
 21 22  1  0
 21 23  1  0
 23 24  2  0
 23 25  1  0
 25 26  1  0
 25 27  1  0
 27 28  1  0
 27 29  1  0
 27 30  1  0
 30 31  1  0
 30 32  1  0
 30 33  1  0
 33 34  1  0
 33 35  1  0
 33 36  1  0
 36 37  1  0
 36 38  1  0
 36 39  1  0
 39 40  1  0
 39 41  1  0
 41 42  1  0
 41 43  1  0
 41 44  1  0
 44 45  1  0
 44 46  1  0
 44 47  1  0
 12  5  1  0
 18 10  1  0
M  END
>  <UniqueID>  (6) 
5

>  <SMILES>  (6) 
CCNCCCCNC(=O)/C=C/C=Cc1ccc2c(c1)OCO2

>  <Energy>  (6) 
67.8387258574542

>  <Genealogy>  (6) 
CCNCCCCNC(=O)/C=C/C=Cc1ccc2c(c1)OCO2 (cis-trans isomerization)
CCNCCCCNC(=O)/C=C/C=Cc1ccc2c(c1)OCO2 (3D coordinates assigned)
CCNCCCCNC(=O)/C=C/C=Cc1ccc2c(c1)OCO2 (nonaromatic ring conformer: 67.8387258574542 kcal/mol)

>  <smiles>  (6) 
CCNCCCCNC(=O)C=CC=Cc1ccc2c(c1)OCO2

>  <score_type>  (6) 
oracle

>  <origin>  (6) 
adg

>  <m_score__min__energy>  (6) 
-7.5999999999999996

>  <m_primary>  (6) 
energy

$$$$
6:0
     RDKit          3D

 47 47  0  0  0  0  0  0  0  0999 V2000
   57.7570   26.2120   44.9060 C   0  0  0  0  0  0  0  0  0  0  0  0
   56.7180   26.5680   45.9650 C   0  0  0  0  0  0  0  0  0  0  0  0
   56.0010   27.7450   45.5950 O   0  0  0  0  0  0  0  0  0  0  0  0
   56.5770   28.9590   45.1820 C   0  0  0  0  0  0  0  0  0  0  0  0
   57.6980   29.5260   45.8180 C   0  0  0  0  0  0  0  0  0  0  0  0
   58.2270   30.7380   45.3640 C   0  0  0  0  0  0  0  0  0  0  0  0
   57.6500   31.3990   44.2690 C   0  0  0  0  0  0  0  0  0  0  0  0
   58.1940   32.7260   43.8060 C   0  0  0  0  0  0  0  0  0  0  0  0
   57.6090   33.8840   44.6230 C   0  0  0  0  0  0  0  0  0  0  0  0
   58.2390   33.9490   45.9470 N   0  0  0  0  0  0  0  0  0  0  0  0
   59.2980   34.9660   45.9650 C   0  0  0  0  0  0  0  0  0  0  0  0
   60.6080   34.3590   46.4770 C   0  0  0  0  0  0  0  0  0  0  0  0
   60.3410   33.1550   47.2970 N   0  0  0  0  0  0  0  0  0  0  0  0
   61.5630   32.3360   47.4850 C   0  0  0  0  0  0  0  0  0  0  0  0
   62.8260   33.1150   47.1220 C   0  0  0  0  0  0  0  0  0  0  0  0
   59.6280   33.4770   48.5570 C   0  0  0  0  0  0  0  0  0  0  0  0
   58.7630   32.3310   49.1000 C   0  0  0  0  0  0  0  0  0  0  0  0
   56.5240   30.8410   43.6460 C   0  0  0  0  0  0  0  0  0  0  0  0
   55.9960   29.6290   44.0990 C   0  0  0  0  0  0  0  0  0  0  0  0
   58.6877   25.8931   45.3981 H   0  0  0  0  0  0  0  0  0  0  0  0
   57.3751   25.3935   44.2782 H   0  0  0  0  0  0  0  0  0  0  0  0
   57.9573   27.0928   44.2782 H   0  0  0  0  0  0  0  0  0  0  0  0
   56.0101   25.7327   46.0710 H   0  0  0  0  0  0  0  0  0  0  0  0
   57.2350   26.7546   46.9178 H   0  0  0  0  0  0  0  0  0  0  0  0
   58.1592   29.0136   46.6751 H   0  0  0  0  0  0  0  0  0  0  0  0
   59.1009   31.1761   45.8684 H   0  0  0  0  0  0  0  0  0  0  0  0
   59.2881   32.7241   43.9199 H   0  0  0  0  0  0  0  0  0  0  0  0
   57.9124   32.8678   42.7521 H   0  0  0  0  0  0  0  0  0  0  0  0
   57.7880   34.8296   44.0902 H   0  0  0  0  0  0  0  0  0  0  0  0
   56.5290   33.7191   44.7508 H   0  0  0  0  0  0  0  0  0  0  0  0
   58.6830   33.0190   46.1350 H   0  0  0  0  0  0  0  0  0  0  0  0
   59.4499   35.3501   44.9455 H   0  0  0  0  0  0  0  0  0  0  0  0
   58.9968   35.7850   46.6347 H   0  0  0  0  0  0  0  0  0  0  0  0
   61.2363   34.0793   45.6185 H   0  0  0  0  0  0  0  0  0  0  0  0
   61.1237   35.1044   47.1002 H   0  0  0  0  0  0  0  0  0  0  0  0
   61.6258   32.0258   48.5385 H   0  0  0  0  0  0  0  0  0  0  0  0
   61.4960   31.4621   46.8204 H   0  0  0  0  0  0  0  0  0  0  0  0
   63.3389   33.4313   48.0423 H   0  0  0  0  0  0  0  0  0  0  0  0
   63.4958   32.4729   46.5312 H   0  0  0  0  0  0  0  0  0  0  0  0
   62.5528   34.0017   46.5312 H   0  0  0  0  0  0  0  0  0  0  0  0
   60.3763   33.7362   49.3204 H   0  0  0  0  0  0  0  0  0  0  0  0
   58.9451   34.3090   48.3305 H   0  0  0  0  0  0  0  0  0  0  0  0
   58.7774   32.3501   50.1997 H   0  0  0  0  0  0  0  0  0  0  0  0
   57.7290   32.4519   48.7447 H   0  0  0  0  0  0  0  0  0  0  0  0
   59.1627   31.3698   48.7447 H   0  0  0  0  0  0  0  0  0  0  0  0
   56.0545   31.3597   42.7971 H   0  0  0  0  0  0  0  0  0  0  0  0
   55.1158   29.1976   43.5999 H   0  0  0  0  0  0  0  0  0  0  0  0
  1  2  1  0
  2  3  1  0
  3  4  1  0
  4  5  2  0
  5  6  1  0
  6  7  2  0
  7  8  1  0
  8  9  1  0
  9 10  1  0
 10 11  1  0
 11 12  1  0
 12 13  1  0
 13 14  1  0
 14 15  1  0
 13 16  1  0
 16 17  1  0
  7 18  1  0
 18 19  2  0
 19  4  1  0
  1 20  1  0
  1 21  1  0
  1 22  1  0
  2 23  1  0
  2 24  1  0
  5 25  1  0
  6 26  1  0
  8 27  1  0
  8 28  1  0
  9 29  1  0
  9 30  1  0
 10 31  1  0
 11 32  1  0
 11 33  1  0
 12 34  1  0
 12 35  1  0
 14 36  1  0
 14 37  1  0
 15 38  1  0
 15 39  1  0
 15 40  1  0
 16 41  1  0
 16 42  1  0
 17 43  1  0
 17 44  1  0
 17 45  1  0
 18 46  1  0
 19 47  1  0
M  END
>  <UniqueID>  (7) 
6

>  <SMILES>  (7) 
CCOc1ccc(CCNCCN(CC)CC)cc1

>  <Energy>  (7) 
37.44380277691999

>  <Genealogy>  (7) 
CCOc1ccc(CCNCCN(CC)CC)cc1 (3D coordinates assigned)
CCOc1ccc(CCNCCN(CC)CC)cc1 (optimized conformer: 37.44380277691999 kcal/mol)

>  <smiles>  (7) 
CCOc1ccc(CCNCCN(CC)CC)cc1

>  <score_type>  (7) 
oracle

>  <origin>  (7) 
adg

>  <m_score__min__energy>  (7) 
-5.5700000000000003

>  <m_primary>  (7) 
energy

$$$$
7:0
     RDKit          3D

 55 58  0  0  0  0  0  0  0  0999 V2000
   60.7210   29.0020   45.3450 C   0  0  0  0  0  0  0  0  0  0  0  0
   60.1440   29.7390   46.5280 C   0  0  0  0  0  0  0  0  0  0  0  0
   60.7540   29.6220   47.7440 N   0  0  0  0  0  0  0  0  0  0  0  0
   60.2460   30.2320   48.8530 C   0  0  0  0  0  0  0  0  0  0  0  0
   60.8710   30.1000   50.1020 C   0  0  0  0  0  0  0  0  0  0  0  0
   60.3250   30.7260   51.2280 C   0  0  0  0  0  0  0  0  0  0  0  0
   59.1540   31.4840   51.1130 C   0  0  0  0  0  0  0  0  0  0  0  0
   58.5270   31.6230   49.8710 C   0  0  0  0  0  0  0  0  0  0  0  0
   59.0730   31.0030   48.7400 C   0  0  0  0  0  0  0  0  0  0  0  0
   58.4840   31.1450   47.5260 N   0  0  0  0  0  0  0  0  0  0  0  0
   58.9900   30.5540   46.4110 C   0  0  0  0  0  0  0  0  0  0  0  0
   58.3060   30.7840   45.1210 C   0  0  0  0  0  0  0  0  0  0  0  0
   57.5330   29.7600   44.5490 C   0  0  0  0  0  0  0  0  0  0  0  0
   56.8860   29.9610   43.3280 C   0  0  0  0  0  0  0  0  0  0  0  0
   57.0150   31.1780   42.6620 C   0  0  0  0  0  0  0  0  0  0  0  0
   57.7970   32.1980   43.2080 C   0  0  0  0  0  0  0  0  0  0  0  0
   58.4520   32.0130   44.4440 C   0  0  0  0  0  0  0  0  0  0  0  0
   59.2450   33.0170   45.0290 O   0  0  0  0  0  0  0  0  0  0  0  0
   58.7850   34.3080   45.4300 C   0  0  0  0  0  0  0  0  0  0  0  0
   58.7320   34.4060   46.9600 C   0  0  0  0  0  0  0  0  0  0  0  0
   59.9930   33.9210   47.5650 N   0  0  0  0  0  0  0  0  0  0  0  0
   61.1790   34.2000   46.7050 C   0  0  0  0  0  0  0  0  0  0  0  0
   62.3380   33.1860   46.8200 C   0  0  0  0  0  0  0  0  0  0  0  0
   63.2750   33.3880   48.0390 C   0  0  0  0  0  0  0  0  0  0  0  0
   62.6930   34.2170   49.1980 C   0  0  0  0  0  0  0  0  0  0  0  0
   61.3380   33.7120   49.7160 C   0  0  0  0  0  0  0  0  0  0  0  0
   60.1010   34.2870   48.9980 C   0  0  0  0  0  0  0  0  0  0  0  0
   61.3626   28.1825   45.7010 H   0  0  0  0  0  0  0  0  0  0  0  0
   59.9034   28.5894   44.7357 H   0  0  0  0  0  0  0  0  0  0  0  0
   61.3178   29.6967   44.7357 H   0  0  0  0  0  0  0  0  0  0  0  0
   61.6210   29.0430   47.8290 H   0  0  0  0  0  0  0  0  0  0  0  0
   61.7908   29.5041   50.1962 H   0  0  0  0  0  0  0  0  0  0  0  0
   60.8174   30.6221   52.2062 H   0  0  0  0  0  0  0  0  0  0  0  0
   58.7261   31.9713   52.0015 H   0  0  0  0  0  0  0  0  0  0  0  0
   57.6063   32.2184   49.7823 H   0  0  0  0  0  0  0  0  0  0  0  0
   57.4368   28.7939   45.0661 H   0  0  0  0  0  0  0  0  0  0  0  0
   56.2740   29.1579   42.8916 H   0  0  0  0  0  0  0  0  0  0  0  0
   56.4993   31.3358   41.7033 H   0  0  0  0  0  0  0  0  0  0  0  0
   57.9031   33.1521   42.6709 H   0  0  0  0  0  0  0  0  0  0  0  0
   59.4719   35.0742   45.0414 H   0  0  0  0  0  0  0  0  0  0  0  0
   57.7738   34.4672   45.0273 H   0  0  0  0  0  0  0  0  0  0  0  0
   58.5748   35.4558   47.2483 H   0  0  0  0  0  0  0  0  0  0  0  0
   57.9043   33.7793   47.3236 H   0  0  0  0  0  0  0  0  0  0  0  0
   60.8426   34.2126   45.6578 H   0  0  0  0  0  0  0  0  0  0  0  0
   61.5841   35.1618   47.0527 H   0  0  0  0  0  0  0  0  0  0  0  0
   61.9026   32.1782   46.8891 H   0  0  0  0  0  0  0  0  0  0  0  0
   62.9630   33.3350   45.9272 H   0  0  0  0  0  0  0  0  0  0  0  0
   63.5369   32.3946   48.4322 H   0  0  0  0  0  0  0  0  0  0  0  0
   64.1361   33.9604   47.6637 H   0  0  0  0  0  0  0  0  0  0  0  0
   63.4105   34.1956   50.0315 H   0  0  0  0  0  0  0  0  0  0  0  0
   62.5235   35.2311   48.8069 H   0  0  0  0  0  0  0  0  0  0  0  0
   61.3178   32.6179   49.6036 H   0  0  0  0  0  0  0  0  0  0  0  0
   61.2672   34.0499   50.7604 H   0  0  0  0  0  0  0  0  0  0  0  0
   59.2024   33.9188   49.5148 H   0  0  0  0  0  0  0  0  0  0  0  0
   60.2011   35.3819   49.0333 H   0  0  0  0  0  0  0  0  0  0  0  0
  1  2  1  0
  2  3  2  0
  3  4  1  0
  4  5  2  0
  5  6  1  0
  6  7  2  0
  7  8  1  0
  8  9  2  0
  9 10  1  0
 10 11  2  0
 11 12  1  0
 12 13  2  0
 13 14  1  0
 14 15  2  0
 15 16  1  0
 16 17  2  0
 17 18  1  0
 18 19  1  0
 19 20  1  0
 20 21  1  0
 21 22  1  0
 22 23  1  0
 23 24  1  0
 24 25  1  0
 25 26  1  0
 26 27  1  0
 11  2  1  0
 17 12  1  0
 27 21  1  0
  9  4  1  0
  1 28  1  0
  1 29  1  0
  1 30  1  0
  3 31  1  0
  5 32  1  0
  6 33  1  0
  7 34  1  0
  8 35  1  0
 13 36  1  0
 14 37  1  0
 15 38  1  0
 16 39  1  0
 19 40  1  0
 19 41  1  0
 20 42  1  0
 20 43  1  0
 22 44  1  0
 22 45  1  0
 23 46  1  0
 23 47  1  0
 24 48  1  0
 24 49  1  0
 25 50  1  0
 25 51  1  0
 26 52  1  0
 26 53  1  0
 27 54  1  0
 27 55  1  0
M  CHG  1   3   1
M  END
>  <UniqueID>  (8) 
7

>  <SMILES>  (8) 
Cc1[nH+]c2ccccc2nc1-c1ccccc1OCCN1CCCCCC1

>  <Energy>  (8) 
82.1120746785942

>  <Genealogy>  (8) 
Cc1[nH+]c2ccccc2nc1-c1ccccc1OCCN1CCCCCC1 (protonated)
Cc1[nH+]c2ccccc2nc1-c1ccccc1OCCN1CCCCCC1 (3D coordinates assigned)
Cc1[nH+]c2ccccc2nc1-c1ccccc1OCCN1CCCCCC1 (nonaromatic ring conformer: 82.1120746785942 kcal/mol)

>  <smiles>  (8) 
Cc1nc2ccccc2nc1-c1ccccc1OCCN1CCCCCC1

>  <score_type>  (8) 
oracle

>  <origin>  (8) 
adg

>  <m_score__min__energy>  (8) 
-4.8600000000000003

>  <m_primary>  (8) 
energy

$$$$
8:0
     RDKit          3D

 57 61  0  0  0  0  0  0  0  0999 V2000
   56.8550   20.7250   42.9860 C   0  0  0  0  0  0  0  0  0  0  0  0
   55.9190   21.7130   43.4030 O   0  0  0  0  0  0  0  0  0  0  0  0
   56.3070   22.9620   43.8980 C   0  0  0  0  0  0  0  0  0  0  0  0
   55.9680   23.3190   45.2030 C   0  0  0  0  0  0  0  0  0  0  0  0
   56.3520   24.5660   45.6980 C   0  0  0  0  0  0  0  0  0  0  0  0
   57.0870   25.4530   44.8920 C   0  0  0  0  0  0  0  0  0  0  0  0
   57.5040   26.7930   45.3800 C   0  0  0  0  0  0  0  0  0  0  0  0
   58.1760   26.9580   46.6030 C   0  0  0  0  0  0  0  0  0  0  0  0
   58.5450   28.2410   47.0340 C   0  0  0  0  0  0  0  0  0  0  0  0
   59.2760   28.3700   48.3120 C   0  0  0  0  0  0  0  0  0  0  0  0
   60.3280   27.4970   48.6240 C   0  0  0  0  0  0  0  0  0  0  0  0
   60.9960   27.6220   49.8430 C   0  0  0  0  0  0  0  0  0  0  0  0
   60.5970   28.6100   50.7450 C   0  0  0  0  0  0  0  0  0  0  0  0
   59.5620   29.4400   50.4360 N   0  0  0  0  0  0  0  0  0  0  0  0
   58.8970   29.3380   49.2530 C   0  0  0  0  0  0  0  0  0  0  0  0
   58.2230   29.3580   46.2290 C   0  0  0  0  0  0  0  0  0  0  0  0
   57.5860   29.1460   45.0060 C   0  0  0  0  0  0  0  0  0  0  0  0
   57.2340   27.8910   44.6210 N   0  0  0  0  0  0  0  0  0  0  0  0
   57.1680   30.3240   44.1860 C   0  0  0  0  0  0  0  0  0  0  0  0
   58.1630   31.5080   44.2760 C   0  0  0  0  0  0  0  0  0  0  0  0
   59.0840   31.5010   45.4550 N   0  0  0  0  0  0  0  0  0  0  0  0
   59.5420   32.8910   45.7740 C   0  0  0  0  0  0  0  0  0  0  0  0
   59.0010   33.9540   44.7810 C   0  0  0  0  0  0  0  0  0  0  0  0
   59.2860   35.4010   45.2490 C   0  0  0  0  0  0  0  0  0  0  0  0
   59.9530   35.4480   46.4960 O   0  0  0  0  0  0  0  0  0  0  0  0
   59.1660   34.7980   47.4700 C   0  0  0  0  0  0  0  0  0  0  0  0
   59.0990   33.2820   47.2090 C   0  0  0  0  0  0  0  0  0  0  0  0
   58.4890   30.7920   46.6130 C   0  0  0  0  0  0  0  0  0  0  0  0
   57.3910   25.0550   43.5770 C   0  0  0  0  0  0  0  0  0  0  0  0
   57.0070   23.8340   43.1210 N   0  0  0  0  0  0  0  0  0  0  0  0
   57.3051   20.2499   43.8702 H   0  0  0  0  0  0  0  0  0  0  0  0
   56.3396   19.9631   42.3828 H   0  0  0  0  0  0  0  0  0  0  0  0
   57.6436   21.1985   42.3828 H   0  0  0  0  0  0  0  0  0  0  0  0
   55.4015   22.6220   45.8380 H   0  0  0  0  0  0  0  0  0  0  0  0
   56.0785   24.8562   46.7232 H   0  0  0  0  0  0  0  0  0  0  0  0
   58.4128   26.0806   47.2228 H   0  0  0  0  0  0  0  0  0  0  0  0
   60.6261   26.7154   47.9096 H   0  0  0  0  0  0  0  0  0  0  0  0
   61.8294   26.9481   50.0908 H   0  0  0  0  0  0  0  0  0  0  0  0
   61.1193   28.7184   51.7070 H   0  0  0  0  0  0  0  0  0  0  0  0
   59.2720   30.1720   51.1230 H   0  0  0  0  0  0  0  0  0  0  0  0
   58.0596   30.0170   49.0343 H   0  0  0  0  0  0  0  0  0  0  0  0
   57.0913   30.0097   43.1346 H   0  0  0  0  0  0  0  0  0  0  0  0
   56.2031   30.6743   44.5813 H   0  0  0  0  0  0  0  0  0  0  0  0
   58.7808   31.4986   43.3660 H   0  0  0  0  0  0  0  0  0  0  0  0
   57.5427   32.4094   44.3889 H   0  0  0  0  0  0  0  0  0  0  0  0
   60.6387   32.8806   45.6901 H   0  0  0  0  0  0  0  0  0  0  0  0
   59.4796   33.7989   43.8028 H   0  0  0  0  0  0  0  0  0  0  0  0
   57.9096   33.8308   44.7212 H   0  0  0  0  0  0  0  0  0  0  0  0
   59.9137   35.8981   44.4947 H   0  0  0  0  0  0  0  0  0  0  0  0
   58.3178   35.9090   45.3696 H   0  0  0  0  0  0  0  0  0  0  0  0
   59.6069   34.9723   48.4626 H   0  0  0  0  0  0  0  0  0  0  0  0
   58.1454   35.2056   47.4226 H   0  0  0  0  0  0  0  0  0  0  0  0
   59.7567   32.7734   47.9292 H   0  0  0  0  0  0  0  0  0  0  0  0
   58.0486   32.9758   47.3228 H   0  0  0  0  0  0  0  0  0  0  0  0
   59.1874   30.8226   47.4623 H   0  0  0  0  0  0  0  0  0  0  0  0
   57.5463   31.2796   46.9020 H   0  0  0  0  0  0  0  0  0  0  0  0
   57.9432   25.7370   42.9137 H   0  0  0  0  0  0  0  0  0  0  0  0
  1  2  1  0
  2  3  1  0
  3  4  2  0
  4  5  1  0
  5  6  2  0
  6  7  1  0
  7  8  2  0
  8  9  1  0
  9 10  1  0
 10 11  2  0
 11 12  1  0
 12 13  2  0
 13 14  1  0
 14 15  2  0
  9 16  2  0
 16 17  1  0
 17 18  2  0
 17 19  1  0
 19 20  1  0
 20 21  1  0
 21 22  1  0
 22 23  1  0
 23 24  1  0
 24 25  1  0
 25 26  1  0
 26 27  1  0
 21 28  1  0
  6 29  1  0
 29 30  2  0
 30  3  1  0
 18  7  1  0
 27 22  1  0
 15 10  1  0
 28 16  1  0
  1 31  1  0
  1 32  1  0
  1 33  1  0
  4 34  1  0
  5 35  1  0
  8 36  1  0
 11 37  1  0
 12 38  1  0
 13 39  1  0
 14 40  1  0
 15 41  1  0
 19 42  1  0
 19 43  1  0
 20 44  1  0
 20 45  1  0
 22 46  1  0
 23 47  1  0
 23 48  1  0
 24 49  1  0
 24 50  1  0
 26 51  1  0
 26 52  1  0
 27 53  1  0
 27 54  1  0
 28 55  1  0
 28 56  1  0
 29 57  1  0
M  CHG  1  14   1
M  END
>  <UniqueID>  (9) 
8

>  <SMILES>  (9) 
COc1ccc(-c2cc(-c3ccc[nH+]c3)c3c(n2)CCN(C2CCOCC2)C3)cn1

>  <Energy>  (9) 
94.85483926909414

>  <Genealogy>  (9) 
COc1ccc(-c2cc(-c3ccc[nH+]c3)c3c(n2)CCN(C2CCOCC2)C3)cn1 (protonated)
COc1ccc(-c2cc(-c3ccc[nH+]c3)c3c(n2)CCN(C2CCOCC2)C3)cn1 (3D coordinates assigned)
COc1ccc(-c2cc(-c3ccc[nH+]c3)c3c(n2)CCN(C2CCOCC2)C3)cn1 (nonaromatic ring conformer: 94.85483926909414 kcal/mol)

>  <smiles>  (9) 
COc1ccc(-c2cc(-c3cccnc3)c3c(n2)CCN(C2CCOCC2)C3)cn1

>  <score_type>  (9) 
oracle

>  <origin>  (9) 
adg

>  <m_score__min__energy>  (9) 
-7.1799999999999997

>  <m_primary>  (9) 
energy

$$$$
9:0
     RDKit          3D

 29 30  0  0  0  0  0  0  0  0999 V2000
   55.1520   28.6010   45.6360 H   0  0  0  0  0  0  0  0  0  0  0  0
   55.3980   29.2870   44.8880 N   0  0  0  0  0  0  0  0  0  0  0  0
   56.7560   29.4920   44.4960 C   0  0  0  0  0  0  0  0  0  0  0  0
   57.3290   28.5990   43.8150 O   0  0  0  0  0  0  0  0  0  0  0  0
   57.4760   30.7330   44.8970 C   0  0  0  0  0  0  0  0  0  0  0  0
   57.0490   31.9680   44.3680 C   0  0  0  0  0  0  0  0  0  0  0  0
   56.2006   31.9944   43.6683 H   0  0  0  0  0  0  0  0  0  0  0  0
   57.6880   33.1570   44.7200 C   0  0  0  0  0  0  0  0  0  0  0  0
   57.3356   34.1131   44.3056 H   0  0  0  0  0  0  0  0  0  0  0  0
   58.7700   33.1360   45.5940 C   0  0  0  0  0  0  0  0  0  0  0  0
   59.2751   34.0750   45.8647 H   0  0  0  0  0  0  0  0  0  0  0  0
   59.2160   31.9270   46.1280 C   0  0  0  0  0  0  0  0  0  0  0  0
   60.0782   31.9182   46.8110 H   0  0  0  0  0  0  0  0  0  0  0  0
   58.5710   30.7140   45.8000 C   0  0  0  0  0  0  0  0  0  0  0  0
   59.0480   29.4590   46.3200 N   0  0  0  0  0  0  0  0  0  0  0  0
   58.4060   28.6640   47.1230 C   0  0  0  0  0  0  0  0  0  0  0  0
   58.0913   29.0156   48.1166 H   0  0  0  0  0  0  0  0  0  0  0  0
   58.0960   27.2560   46.6820 C   0  0  0  0  0  0  0  0  0  0  0  0
   58.3315   26.6164   47.5454 H   0  0  0  0  0  0  0  0  0  0  0  0
   58.9110   26.8550   45.5350 N   0  0  0  0  0  0  0  0  0  0  0  0
   58.9930   27.6690   44.8780 H   0  0  0  0  0  0  0  0  0  0  0  0
   58.1100   25.8370   44.8640 C   0  0  0  0  0  0  0  0  0  0  0  0
   58.1238   26.0017   43.7765 H   0  0  0  0  0  0  0  0  0  0  0  0
   58.5108   24.8312   45.0583 H   0  0  0  0  0  0  0  0  0  0  0  0
   56.6900   25.9670   45.3940 C   0  0  0  0  0  0  0  0  0  0  0  0
   55.9934   26.1625   44.5654 H   0  0  0  0  0  0  0  0  0  0  0  0
   56.3690   25.0399   45.8915 H   0  0  0  0  0  0  0  0  0  0  0  0
   56.6870   27.0870   46.3260 N   0  0  0  0  0  0  0  0  0  0  0  0
   56.3690   27.9300   45.7880 H   0  0  0  0  0  0  0  0  0  0  0  0
  1  2  1  0
  2  3  1  0
  3  4  2  0
  3  5  1  0
  5  6  2  0
  6  7  1  0
  6  8  1  0
  8  9  1  0
  8 10  2  0
 10 11  1  0
 10 12  1  0
 12 13  1  0
 12 14  2  0
 14 15  1  0
 15 16  2  0
 16 17  1  0
 16 18  1  0
 18 19  1  0
 18 20  1  0
 20 21  1  0
 20 22  1  0
 22 23  1  0
 22 24  1  0
 22 25  1  0
 25 26  1  0
 25 27  1  0
 25 28  1  0
 28 29  1  0
 14  5  1  0
 28 18  1  0
M  CHG  1   2  -1
M  END
>  <UniqueID>  (10) 
9

>  <SMILES>  (10) 
[NH-]C(=O)c1ccccc1/N=C/C1NCCN1

>  <Energy>  (10) 
32.94168571037654

>  <Genealogy>  (10) 
[NH-]C(=O)c1ccccc1N=CC1NCCN1 (protonated)
[NH-]C(=O)c1ccccc1/N=C/C1NCCN1 (cis-trans isomerization)
[NH-]C(=O)c1ccccc1/N=C/C1NCCN1 (3D coordinates assigned)
[NH-]C(=O)c1ccccc1/N=C/C1NCCN1 (nonaromatic ring conformer: 32.94168571037654 kcal/mol)

>  <smiles>  (10) 
NC(=O)c1ccccc1N=CC1NCCN1

>  <score_type>  (10) 
oracle

>  <origin>  (10) 
adg

>  <m_score__min__energy>  (10) 
-9.2400000000000002

>  <m_primary>  (10) 
energy

$$$$
10:0
     RDKit          3D

 33 35  0  0  0  0  0  0  0  0999 V2000
   57.0640   24.3910   44.4900 C   0  0  0  0  0  0  0  0  0  0  0  0
   57.1870   24.1380   45.9880 C   0  0  0  0  0  0  0  0  0  0  0  0
   56.6930   25.2520   46.7290 O   0  0  0  0  0  0  0  0  0  0  0  0
   56.0340   26.3370   46.1420 C   0  0  0  0  0  0  0  0  0  0  0  0
   54.7820   26.3230   45.9960 O   0  0  0  0  0  0  0  0  0  0  0  0
   56.8240   27.4930   45.6910 C   0  0  0  0  0  0  0  0  0  0  0  0
   56.2670   28.6170   45.1830 N   0  0  0  0  0  0  0  0  0  0  0  0
   57.2380   29.4710   44.8760 N   0  0  0  0  0  0  0  0  0  0  0  0
   57.0060   30.7550   44.2680 C   0  0  0  0  0  0  0  0  0  0  0  0
   56.2810   30.8390   43.2410 O   0  0  0  0  0  0  0  0  0  0  0  0
   57.5800   31.9910   44.8370 C   0  0  0  0  0  0  0  0  0  0  0  0
   57.7910   33.1770   44.1390 C   0  0  0  0  0  0  0  0  0  0  0  0
   58.3840   34.1820   44.9160 C   0  0  0  0  0  0  0  0  0  0  0  0
   58.6490   33.7950   46.2220 C   0  0  0  0  0  0  0  0  0  0  0  0
   58.1480   32.2020   46.4090 S   0  0  0  0  0  0  0  0  0  0  0  0
   58.4230   28.8980   45.1800 C   0  0  0  0  0  0  0  0  0  0  0  0
   59.7170   29.4170   45.0620 C   0  0  0  0  0  0  0  0  0  0  0  0
   60.7910   28.6080   45.4740 C   0  0  0  0  0  0  0  0  0  0  0  0
   60.5570   27.3170   45.9950 C   0  0  0  0  0  0  0  0  0  0  0  0
   59.2460   26.8230   46.1160 C   0  0  0  0  0  0  0  0  0  0  0  0
   58.2000   27.6480   45.6990 C   0  0  0  0  0  0  0  0  0  0  0  0
   56.5887   25.3685   44.3211 H   0  0  0  0  0  0  0  0  0  0  0  0
   58.0650   24.3862   44.0339 H   0  0  0  0  0  0  0  0  0  0  0  0
   56.4495   23.6008   44.0339 H   0  0  0  0  0  0  0  0  0  0  0  0
   56.6057   23.2422   46.2520 H   0  0  0  0  0  0  0  0  0  0  0  0
   58.2485   23.9906   46.2361 H   0  0  0  0  0  0  0  0  0  0  0  0
   57.5191   33.3122   43.0817 H   0  0  0  0  0  0  0  0  0  0  0  0
   58.6175   35.1840   44.5267 H   0  0  0  0  0  0  0  0  0  0  0  0
   59.1077   34.4225   47.0003 H   0  0  0  0  0  0  0  0  0  0  0  0
   59.8889   30.4262   44.6596 H   0  0  0  0  0  0  0  0  0  0  0  0
   61.8213   28.9840   45.3896 H   0  0  0  0  0  0  0  0  0  0  0  0
   61.4066   26.6927   46.3087 H   0  0  0  0  0  0  0  0  0  0  0  0
   59.0514   25.8207   46.5253 H   0  0  0  0  0  0  0  0  0  0  0  0
  1  2  1  0
  2  3  1  0
  3  4  1  0
  4  5  2  0
  4  6  1  0
  6  7  2  0
  7  8  1  0
  8  9  1  0
  9 10  2  0
  9 11  1  0
 11 12  2  0
 12 13  1  0
 13 14  2  0
 14 15  1  0
  8 16  1  0
 16 17  2  0
 17 18  1  0
 18 19  2  0
 19 20  1  0
 20 21  2  0
 21  6  1  0
 15 11  1  0
 21 16  1  0
  1 22  1  0
  1 23  1  0
  1 24  1  0
  2 25  1  0
  2 26  1  0
 12 27  1  0
 13 28  1  0
 14 29  1  0
 17 30  1  0
 18 31  1  0
 19 32  1  0
 20 33  1  0
M  END
>  <UniqueID>  (11) 
10

>  <SMILES>  (11) 
CCOC(=O)c1nn(C(=O)c2cccs2)c2ccccc12

>  <Energy>  (11) 
99.59055287551021

>  <Genealogy>  (11) 
CCOC(=O)c1nn(C(=O)c2cccs2)c2ccccc12 (3D coordinates assigned)
CCOC(=O)c1nn(C(=O)c2cccs2)c2ccccc12 (optimized conformer: 99.59055287551021 kcal/mol)

>  <smiles>  (11) 
CCOC(=O)c1nn(C(=O)c2cccs2)c2ccccc12

>  <score_type>  (11) 
oracle

>  <origin>  (11) 
adg

>  <m_score__min__energy>  (11) 
-7.4500000000000002

>  <m_primary>  (11) 
energy

$$$$
11:0
     RDKit          3D

 43 45  0  0  0  0  0  0  0  0999 V2000
   59.0060   28.9740   44.5420 C   0  0  0  0  0  0  0  0  0  0  0  0
   58.7790   30.2190   45.2950 N   0  0  0  0  0  0  0  0  0  0  0  0
   57.3960   30.7160   45.0880 C   0  0  0  0  0  0  0  0  0  0  0  0
   57.4370   32.0840   44.3980 C   0  0  0  0  0  0  0  0  0  0  0  0
   58.0860   33.1110   45.2860 C   0  0  0  0  0  0  0  0  0  0  0  0
   57.8840   33.0800   46.6750 C   0  0  0  0  0  0  0  0  0  0  0  0
   58.5170   34.0140   47.5000 C   0  0  0  0  0  0  0  0  0  0  0  0
   59.3630   34.9790   46.9440 C   0  0  0  0  0  0  0  0  0  0  0  0
   59.5780   35.0090   45.5640 C   0  0  0  0  0  0  0  0  0  0  0  0
   58.9470   34.0770   44.7360 C   0  0  0  0  0  0  0  0  0  0  0  0
   59.0830   30.0010   46.7270 C   0  0  0  0  0  0  0  0  0  0  0  0
   60.3100   30.7740   47.1340 C   0  0  0  0  0  0  0  0  0  0  0  0
   60.7690   31.8250   46.4100 N   0  0  0  0  0  0  0  0  0  0  0  0
   61.7710   32.3270   47.1480 C   0  0  0  0  0  0  0  0  0  0  0  0
   62.5480   33.4530   46.8880 C   0  0  0  0  0  0  0  0  0  0  0  0
   63.5100   33.8180   47.8470 C   0  0  0  0  0  0  0  0  0  0  0  0
   63.6610   33.0630   49.0310 C   0  0  0  0  0  0  0  0  0  0  0  0
   62.8540   31.9340   49.2680 C   0  0  0  0  0  0  0  0  0  0  0  0
   61.9170   31.5910   48.2890 C   0  0  0  0  0  0  0  0  0  0  0  0
   61.0120   30.5890   48.2880 N   0  0  0  0  0  0  0  0  0  0  0  0
   60.7730   29.6140   49.3540 C   0  0  0  0  0  0  0  0  0  0  0  0
   59.1576   28.1423   45.2458 H   0  0  0  0  0  0  0  0  0  0  0  0
   58.1314   28.7638   43.9089 H   0  0  0  0  0  0  0  0  0  0  0  0
   59.8985   29.0860   43.9089 H   0  0  0  0  0  0  0  0  0  0  0  0
   56.8423   30.0048   44.4574 H   0  0  0  0  0  0  0  0  0  0  0  0
   56.8943   30.8140   46.0620 H   0  0  0  0  0  0  0  0  0  0  0  0
   58.0120   31.9998   43.4640 H   0  0  0  0  0  0  0  0  0  0  0  0
   56.4059   32.4027   44.1854 H   0  0  0  0  0  0  0  0  0  0  0  0
   57.2249   32.3176   47.1158 H   0  0  0  0  0  0  0  0  0  0  0  0
   58.3497   33.9901   48.5869 H   0  0  0  0  0  0  0  0  0  0  0  0
   59.8594   35.7148   47.5937 H   0  0  0  0  0  0  0  0  0  0  0  0
   60.2451   35.7675   45.1285 H   0  0  0  0  0  0  0  0  0  0  0  0
   59.1244   34.0991   43.6506 H   0  0  0  0  0  0  0  0  0  0  0  0
   58.2279   30.3356   47.3327 H   0  0  0  0  0  0  0  0  0  0  0  0
   59.2698   28.9293   46.8899 H   0  0  0  0  0  0  0  0  0  0  0  0
   60.3910   32.1960   45.5100 H   0  0  0  0  0  0  0  0  0  0  0  0
   62.4141   34.0364   45.9651 H   0  0  0  0  0  0  0  0  0  0  0  0
   64.1486   34.6968   47.6738 H   0  0  0  0  0  0  0  0  0  0  0  0
   64.4156   33.3596   49.7744 H   0  0  0  0  0  0  0  0  0  0  0  0
   62.9571   31.3432   50.1901 H   0  0  0  0  0  0  0  0  0  0  0  0
   60.8929   30.1032   50.3319 H   0  0  0  0  0  0  0  0  0  0  0  0
   59.7510   29.2170   49.2654 H   0  0  0  0  0  0  0  0  0  0  0  0
   61.4956   28.7894   49.2654 H   0  0  0  0  0  0  0  0  0  0  0  0
  1  2  1  0
  2  3  1  0
  3  4  1  0
  4  5  1  0
  5  6  2  0
  6  7  1  0
  7  8  2  0
  8  9  1  0
  9 10  2  0
  2 11  1  0
 11 12  1  0
 12 13  2  0
 13 14  1  0
 14 15  2  0
 15 16  1  0
 16 17  2  0
 17 18  1  0
 18 19  2  0
 19 20  1  0
 20 21  1  0
 10  5  1  0
 20 12  1  0
 19 14  1  0
  1 22  1  0
  1 23  1  0
  1 24  1  0
  3 25  1  0
  3 26  1  0
  4 27  1  0
  4 28  1  0
  6 29  1  0
  7 30  1  0
  8 31  1  0
  9 32  1  0
 10 33  1  0
 11 34  1  0
 11 35  1  0
 13 36  1  0
 15 37  1  0
 16 38  1  0
 17 39  1  0
 18 40  1  0
 21 41  1  0
 21 42  1  0
 21 43  1  0
M  CHG  1  13   1
M  END
>  <UniqueID>  (12) 
11

>  <SMILES>  (12) 
CN(CCc1ccccc1)Cc1[nH+]c2ccccc2n1C

>  <Energy>  (12) 
81.83912595158094

>  <Genealogy>  (12) 
CN(CCc1ccccc1)Cc1[nH+]c2ccccc2n1C (protonated)
CN(CCc1ccccc1)Cc1[nH+]c2ccccc2n1C (3D coordinates assigned)
CN(CCc1ccccc1)Cc1[nH+]c2ccccc2n1C (optimized conformer: 81.83912595158094 kcal/mol)

>  <smiles>  (12) 
CN(CCc1ccccc1)Cc1nc2ccccc2n1C

>  <score_type>  (12) 
oracle

>  <origin>  (12) 
adg

>  <m_score__min__energy>  (12) 
-5.3099999999999996

>  <m_primary>  (12) 
energy

$$$$
12:0
     RDKit          3D

 59 60  0  0  0  0  0  0  0  0999 V2000
   62.7360   33.8320   46.3990 C   0  0  0  0  0  0  0  0  0  0  0  0
   63.7050   32.8910   47.1370 C   0  0  0  0  0  0  0  0  0  0  0  0
   63.1340   31.4680   47.1560 C   0  0  0  0  0  0  0  0  0  0  0  0
   63.9060   33.2980   48.4780 O   0  0  0  0  0  0  0  0  0  0  0  0
   62.8920   34.1860   48.9090 C   0  0  0  0  0  0  0  0  0  0  0  0
   62.8150   34.1600   50.4330 C   0  0  0  0  0  0  0  0  0  0  0  0
   61.5870   33.4980   50.8830 N   0  0  0  0  0  0  0  0  0  0  0  0
   60.7300   32.7440   50.0030 C   0  0  0  0  0  0  0  0  0  0  0  0
   59.6030   33.3220   49.3860 C   0  0  0  0  0  0  0  0  0  0  0  0
   58.8070   32.5710   48.5130 C   0  0  0  0  0  0  0  0  0  0  0  0
   59.1190   31.2340   48.2540 C   0  0  0  0  0  0  0  0  0  0  0  0
   60.2260   30.6430   48.8720 C   0  0  0  0  0  0  0  0  0  0  0  0
   60.6130   28.9200   48.5640 S   0  0  0  0  0  0  0  0  0  0  0  0
   59.6190   28.8590   47.0700 C   0  0  0  0  0  0  0  0  0  0  0  0
   58.3110   28.3690   47.1200 C   0  0  0  0  0  0  0  0  0  0  0  0
   57.5300   28.3340   45.9630 C   0  0  0  0  0  0  0  0  0  0  0  0
   58.0430   28.8000   44.7400 C   0  0  0  0  0  0  0  0  0  0  0  0
   57.2030   28.7670   43.5700 N   0  0  0  0  0  0  0  0  0  0  0  0
   56.5300   29.9370   43.0010 C   0  0  0  0  0  0  0  0  0  0  0  0
   57.2400   31.1640   43.3710 C   0  0  0  0  0  0  0  0  0  0  0  0
   57.8180   32.1810   43.6720 C   0  0  0  0  0  0  0  0  0  0  0  0
   58.5130   33.4110   44.0640 C   0  0  0  0  0  0  0  0  0  0  0  0
   58.4900   33.5690   45.5340 N   0  0  0  0  0  0  0  0  0  0  0  0
   59.3350   34.7020   45.9540 C   0  0  0  0  0  0  0  0  0  0  0  0
   57.1080   33.7930   45.9990 C   0  0  0  0  0  0  0  0  0  0  0  0
   59.3610   29.3010   44.7010 C   0  0  0  0  0  0  0  0  0  0  0  0
   60.1420   29.3240   45.8590 C   0  0  0  0  0  0  0  0  0  0  0  0
   61.0320   31.3960   49.7400 C   0  0  0  0  0  0  0  0  0  0  0  0
   62.1484   34.4026   47.1333 H   0  0  0  0  0  0  0  0  0  0  0  0
   63.3092   34.5273   45.7681 H   0  0  0  0  0  0  0  0  0  0  0  0
   62.0578   33.2386   45.7681 H   0  0  0  0  0  0  0  0  0  0  0  0
   64.6650   32.9235   46.6010 H   0  0  0  0  0  0  0  0  0  0  0  0
   63.0022   31.1397   48.1976 H   0  0  0  0  0  0  0  0  0  0  0  0
   62.1615   31.4562   46.6420 H   0  0  0  0  0  0  0  0  0  0  0  0
   63.8286   30.7873   46.6420 H   0  0  0  0  0  0  0  0  0  0  0  0
   63.1277   35.2056   48.5701 H   0  0  0  0  0  0  0  0  0  0  0  0
   61.9254   33.8760   48.4853 H   0  0  0  0  0  0  0  0  0  0  0  0
   63.6842   33.6140   50.8283 H   0  0  0  0  0  0  0  0  0  0  0  0
   62.8117   35.1960   50.8027 H   0  0  0  0  0  0  0  0  0  0  0  0
   61.3340   33.5390   51.8990 H   0  0  0  0  0  0  0  0  0  0  0  0
   59.3465   34.3717   49.5919 H   0  0  0  0  0  0  0  0  0  0  0  0
   57.9341   33.0345   48.0300 H   0  0  0  0  0  0  0  0  0  0  0  0
   58.4946   30.6466   47.5647 H   0  0  0  0  0  0  0  0  0  0  0  0
   57.8957   28.0100   48.0732 H   0  0  0  0  0  0  0  0  0  0  0  0
   56.5046   27.9384   46.0090 H   0  0  0  0  0  0  0  0  0  0  0  0
   56.9800   27.8430   43.1410 H   0  0  0  0  0  0  0  0  0  0  0  0
   56.5098   29.8463   41.9049 H   0  0  0  0  0  0  0  0  0  0  0  0
   55.5041   29.9855   43.3949 H   0  0  0  0  0  0  0  0  0  0  0  0
   59.5570   33.3627   43.7208 H   0  0  0  0  0  0  0  0  0  0  0  0
   58.0038   34.2709   43.6044 H   0  0  0  0  0  0  0  0  0  0  0  0
   59.3685   34.7469   47.0526 H   0  0  0  0  0  0  0  0  0  0  0  0
   60.3534   34.5652   45.5614 H   0  0  0  0  0  0  0  0  0  0  0  0
   58.9135   35.6391   45.5614 H   0  0  0  0  0  0  0  0  0  0  0  0
   57.0872   33.7964   47.0988 H   0  0  0  0  0  0  0  0  0  0  0  0
   56.7469   34.7614   45.6225 H   0  0  0  0  0  0  0  0  0  0  0  0
   56.4595   32.9882   45.6225 H   0  0  0  0  0  0  0  0  0  0  0  0
   59.7761   29.6756   43.7537 H   0  0  0  0  0  0  0  0  0  0  0  0
   61.1716   29.7090   45.8183 H   0  0  0  0  0  0  0  0  0  0  0  0
   61.9057   30.9286   50.2177 H   0  0  0  0  0  0  0  0  0  0  0  0
  1  2  1  0
  2  3  1  0
  2  4  1  0
  4  5  1  0
  5  6  1  0
  6  7  1  0
  7  8  1  0
  8  9  2  0
  9 10  1  0
 10 11  2  0
 11 12  1  0
 12 13  1  0
 13 14  1  0
 14 15  2  0
 15 16  1  0
 16 17  2  0
 17 18  1  0
 18 19  1  0
 19 20  1  0
 20 21  3  0
 21 22  1  0
 22 23  1  0
 23 24  1  0
 23 25  1  0
 17 26  1  0
 26 27  2  0
 12 28  2  0
 28  8  1  0
 27 14  1  0
  1 29  1  0
  1 30  1  0
  1 31  1  0
  2 32  1  0
  3 33  1  0
  3 34  1  0
  3 35  1  0
  5 36  1  0
  5 37  1  0
  6 38  1  0
  6 39  1  0
  7 40  1  0
  9 41  1  0
 10 42  1  0
 11 43  1  0
 15 44  1  0
 16 45  1  0
 18 46  1  0
 19 47  1  0
 19 48  1  0
 22 49  1  0
 22 50  1  0
 24 51  1  0
 24 52  1  0
 24 53  1  0
 25 54  1  0
 25 55  1  0
 25 56  1  0
 26 57  1  0
 27 58  1  0
 28 59  1  0
M  END
>  <UniqueID>  (13) 
12

>  <SMILES>  (13) 
CC(C)OCCNc1cccc(Sc2ccc(NCC#CCN(C)C)cc2)c1

>  <Energy>  (13) 
44.24694838641142

>  <Genealogy>  (13) 
CC(C)OCCNc1cccc(Sc2ccc(NCC#CCN(C)C)cc2)c1 (3D coordinates assigned)
CC(C)OCCNc1cccc(Sc2ccc(NCC#CCN(C)C)cc2)c1 (optimized conformer: 44.24694838641142 kcal/mol)

>  <smiles>  (13) 
CC(C)OCCNc1cccc(Sc2ccc(NCC#CCN(C)C)cc2)c1

>  <score_type>  (13) 
oracle

>  <origin>  (13) 
adg

>  <m_score__min__energy>  (13) 
-6.9199999999999999

>  <m_primary>  (13) 
energy

$$$$
13:0
     RDKit          3D

 56 59  0  0  0  0  0  0  0  0999 V2000
   63.2550   32.2090   47.8320 C   0  0  0  0  0  0  0  0  0  0  0  0
   62.1100   31.9760   47.0120 O   0  0  0  0  0  0  0  0  0  0  0  0
   60.9260   32.7370   47.0520 C   0  0  0  0  0  0  0  0  0  0  0  0
   60.9370   34.1370   46.8820 C   0  0  0  0  0  0  0  0  0  0  0  0
   59.7460   34.8540   46.8390 C   0  0  0  0  0  0  0  0  0  0  0  0
   58.5250   34.1890   46.9800 C   0  0  0  0  0  0  0  0  0  0  0  0
   58.5010   32.8090   47.1880 C   0  0  0  0  0  0  0  0  0  0  0  0
   59.6950   32.0760   47.2410 C   0  0  0  0  0  0  0  0  0  0  0  0
   59.6440   30.6660   47.5140 N   0  0  0  0  0  0  0  0  0  0  0  0
   58.5480   30.1790   48.3770 C   0  0  0  0  0  0  0  0  0  0  0  0
   58.7680   28.7510   48.9100 C   0  0  0  0  0  0  0  0  0  0  0  0
   59.4940   27.9400   47.9410 N   0  0  0  0  0  0  0  0  0  0  0  0
   58.9000   26.7630   47.3770 C   0  0  0  0  0  0  0  0  0  0  0  0
   58.3110   25.9400   48.1340 O   0  0  0  0  0  0  0  0  0  0  0  0
   58.8810   26.5180   45.8940 C   0  0  0  0  0  0  0  0  0  0  0  0
   57.8860   27.3810   45.2600 N   0  0  0  0  0  0  0  0  0  0  0  0
   56.5220   27.5110   45.6260 C   0  0  0  0  0  0  0  0  0  0  0  0
   55.9120   26.6790   46.3500 O   0  0  0  0  0  0  0  0  0  0  0  0
   55.8970   28.6760   45.1020 N   0  0  0  0  0  0  0  0  0  0  0  0
   56.9160   29.4360   44.3690 C   0  0  0  0  0  0  0  0  0  0  0  0
   57.1290   30.7880   45.0880 C   0  0  0  0  0  0  0  0  0  0  0  0
   58.0810   31.7360   44.3390 C   0  0  0  0  0  0  0  0  0  0  0  0
   58.0000   31.6190   42.8020 C   0  0  0  0  0  0  0  0  0  0  0  0
   56.6670   31.0240   42.3350 C   0  0  0  0  0  0  0  0  0  0  0  0
   56.4790   29.5990   42.8820 C   0  0  0  0  0  0  0  0  0  0  0  0
   58.1420   28.5540   44.4990 C   0  0  0  0  0  0  0  0  0  0  0  0
   59.2720   28.8130   44.0150 O   0  0  0  0  0  0  0  0  0  0  0  0
   60.7770   28.4670   47.4930 C   0  0  0  0  0  0  0  0  0  0  0  0
   60.5330   29.7690   46.7510 C   0  0  0  0  0  0  0  0  0  0  0  0
   62.9653   32.1501   48.8915 H   0  0  0  0  0  0  0  0  0  0  0  0
   64.0201   31.4481   47.6182 H   0  0  0  0  0  0  0  0  0  0  0  0
   63.6619   33.2084   47.6182 H   0  0  0  0  0  0  0  0  0  0  0  0
   61.8960   34.6666   46.7825 H   0  0  0  0  0  0  0  0  0  0  0  0
   59.7651   35.9442   46.6940 H   0  0  0  0  0  0  0  0  0  0  0  0
   57.5823   34.7534   46.9270 H   0  0  0  0  0  0  0  0  0  0  0  0
   57.5377   32.2924   47.3113 H   0  0  0  0  0  0  0  0  0  0  0  0
   58.4537   30.8597   49.2360 H   0  0  0  0  0  0  0  0  0  0  0  0
   57.6384   30.1550   47.7589 H   0  0  0  0  0  0  0  0  0  0  0  0
   59.3470   28.8005   49.8440 H   0  0  0  0  0  0  0  0  0  0  0  0
   57.7865   28.2882   49.0903 H   0  0  0  0  0  0  0  0  0  0  0  0
   59.8742   26.7376   45.4753 H   0  0  0  0  0  0  0  0  0  0  0  0
   58.6218   25.4660   45.7040 H   0  0  0  0  0  0  0  0  0  0  0  0
   56.1531   31.2848   45.1922 H   0  0  0  0  0  0  0  0  0  0  0  0
   57.5903   30.5681   46.0621 H   0  0  0  0  0  0  0  0  0  0  0  0
   57.8328   32.7698   44.6211 H   0  0  0  0  0  0  0  0  0  0  0  0
   59.1043   31.4534   44.6269 H   0  0  0  0  0  0  0  0  0  0  0  0
   58.1128   32.6218   42.3642 H   0  0  0  0  0  0  0  0  0  0  0  0
   58.8042   30.9448   42.4723 H   0  0  0  0  0  0  0  0  0  0  0  0
   55.8438   31.6590   42.6944 H   0  0  0  0  0  0  0  0  0  0  0  0
   56.6679   30.9807   41.2359 H   0  0  0  0  0  0  0  0  0  0  0  0
   55.4144   29.3339   42.8018 H   0  0  0  0  0  0  0  0  0  0  0  0
   57.1225   28.9374   42.2835 H   0  0  0  0  0  0  0  0  0  0  0  0
   61.4257   28.6516   48.3620 H   0  0  0  0  0  0  0  0  0  0  0  0
   61.2697   27.7421   46.8283 H   0  0  0  0  0  0  0  0  0  0  0  0
   61.4966   30.2740   46.5882 H   0  0  0  0  0  0  0  0  0  0  0  0
   60.0476   29.5348   45.7920 H   0  0  0  0  0  0  0  0  0  0  0  0
  1  2  1  0
  2  3  1  0
  3  4  2  0
  4  5  1  0
  5  6  2  0
  6  7  1  0
  7  8  2  0
  8  9  1  0
  9 10  1  0
 10 11  1  0
 11 12  1  0
 12 13  1  0
 13 14  2  0
 13 15  1  0
 15 16  1  0
 16 17  1  0
 17 18  2  0
 17 19  1  0
 19 20  1  0
 20 21  1  0
 21 22  1  0
 22 23  1  0
 23 24  1  0
 24 25  1  0
 20 26  1  0
 26 27  2  0
 12 28  1  0
 28 29  1  0
  8  3  1  0
 29  9  1  0
 26 16  1  0
 25 20  1  0
  1 30  1  0
  1 31  1  0
  1 32  1  0
  4 33  1  0
  5 34  1  0
  6 35  1  0
  7 36  1  0
 10 37  1  0
 10 38  1  0
 11 39  1  0
 11 40  1  0
 15 41  1  0
 15 42  1  0
 21 43  1  0
 21 44  1  0
 22 45  1  0
 22 46  1  0
 23 47  1  0
 23 48  1  0
 24 49  1  0
 24 50  1  0
 25 51  1  0
 25 52  1  0
 28 53  1  0
 28 54  1  0
 29 55  1  0
 29 56  1  0
M  CHG  1  19  -1
M  END
>  <UniqueID>  (14) 
13

>  <SMILES>  (14) 
COc1ccccc1N1CCN(C(=O)CN2C(=O)[N-]C3(CCCCC3)C2=O)CC1

>  <Energy>  (14) 
87.18665174056329

>  <Genealogy>  (14) 
COc1ccccc1N1CCN(C(=O)CN2C(=O)[N-]C3(CCCCC3)C2=O)CC1 (protonated)
COc1ccccc1N1CCN(C(=O)CN2C(=O)[N-]C3(CCCCC3)C2=O)CC1 (3D coordinates assigned)
COc1ccccc1N1CCN(C(=O)CN2C(=O)[N-]C3(CCCCC3)C2=O)CC1 (nonaromatic ring conformer: 87.18665174056329 kcal/mol)

>  <smiles>  (14) 
COc1ccccc1N1CCN(C(=O)CN2C(=O)NC3(CCCCC3)C2=O)CC1

>  <score_type>  (14) 
oracle

>  <origin>  (14) 
adg

>  <m_score__min__energy>  (14) 
-10.529999999999999

>  <m_primary>  (14) 
energy

$$$$
14:0
     RDKit          3D

 52 55  0  0  0  0  0  0  0  0999 V2000
   59.2460   34.9400   45.2810 C   0  0  0  0  0  0  0  0  0  0  0  0
   59.8260   34.5990   46.2850 C   0  0  0  0  0  0  0  0  0  0  0  0
   60.5350   34.2080   47.5000 C   0  0  0  0  0  0  0  0  0  0  0  0
   59.6150   34.1160   48.6740 C   0  0  0  0  0  0  0  0  0  0  0  0
   59.3160   32.7230   49.1350 C   0  0  0  0  0  0  0  0  0  0  0  0
   58.9460   31.8160   48.0780 N   0  0  0  0  0  0  0  0  0  0  0  0
   59.1000   30.4780   48.1770 C   0  0  0  0  0  0  0  0  0  0  0  0
   58.6580   29.8720   46.9940 C   0  0  0  0  0  0  0  0  0  0  0  0
   58.6620   28.4400   46.7340 C   0  0  0  0  0  0  0  0  0  0  0  0
   57.5540   27.6640   46.6700 N   0  0  0  0  0  0  0  0  0  0  0  0
   57.8680   26.3880   46.3950 C   0  0  0  0  0  0  0  0  0  0  0  0
   57.0790   25.2670   46.2330 C   0  0  0  0  0  0  0  0  0  0  0  0
   55.8250   25.2920   46.3370 O   0  0  0  0  0  0  0  0  0  0  0  0
   57.7100   24.0890   45.9490 N   0  0  0  0  0  0  0  0  0  0  0  0
   56.8880   22.9060   45.7660 C   0  0  0  0  0  0  0  0  0  0  0  0
   56.9590   22.3930   44.3460 C   0  0  0  0  0  0  0  0  0  0  0  0
   56.3800   23.4630   43.4500 C   0  0  0  0  0  0  0  0  0  0  0  0
   59.0660   24.0380   45.8310 C   0  0  0  0  0  0  0  0  0  0  0  0
   59.5930   22.9240   45.5690 O   0  0  0  0  0  0  0  0  0  0  0  0
   59.8040   25.1660   45.9990 N   0  0  0  0  0  0  0  0  0  0  0  0
   59.2390   26.3480   46.2780 C   0  0  0  0  0  0  0  0  0  0  0  0
   59.6790   27.6000   46.4890 N   0  0  0  0  0  0  0  0  0  0  0  0
   58.2420   30.8960   46.2070 C   0  0  0  0  0  0  0  0  0  0  0  0
   57.6770   30.8500   44.8900 C   0  0  0  0  0  0  0  0  0  0  0  0
   56.7600   29.9050   44.4570 C   0  0  0  0  0  0  0  0  0  0  0  0
   56.2530   29.9020   43.1670 C   0  0  0  0  0  0  0  0  0  0  0  0
   56.6470   30.8530   42.2510 C   0  0  0  0  0  0  0  0  0  0  0  0
   57.5720   31.8170   42.6630 C   0  0  0  0  0  0  0  0  0  0  0  0
   58.0750   31.8150   43.9550 C   0  0  0  0  0  0  0  0  0  0  0  0
   58.4270   32.0650   46.8880 N   0  0  0  0  0  0  0  0  0  0  0  0
   58.7181   35.2504   44.3672 H   0  0  0  0  0  0  0  0  0  0  0  0
   61.0047   33.2266   47.3380 H   0  0  0  0  0  0  0  0  0  0  0  0
   61.2909   34.9770   47.7173 H   0  0  0  0  0  0  0  0  0  0  0  0
   60.0745   34.6615   49.5114 H   0  0  0  0  0  0  0  0  0  0  0  0
   58.6560   34.5448   48.3479 H   0  0  0  0  0  0  0  0  0  0  0  0
   60.2125   32.3248   49.6328 H   0  0  0  0  0  0  0  0  0  0  0  0
   58.4491   32.7929   49.8085 H   0  0  0  0  0  0  0  0  0  0  0  0
   59.5084   29.9473   49.0497 H   0  0  0  0  0  0  0  0  0  0  0  0
   57.2397   22.1180   46.4482 H   0  0  0  0  0  0  0  0  0  0  0  0
   55.8438   23.1759   45.9824 H   0  0  0  0  0  0  0  0  0  0  0  0
   58.0052   22.1962   44.0691 H   0  0  0  0  0  0  0  0  0  0  0  0
   56.3957   21.4537   44.2436 H   0  0  0  0  0  0  0  0  0  0  0  0
   55.9468   24.2635   44.0676 H   0  0  0  0  0  0  0  0  0  0  0  0
   57.1757   23.8797   42.8150 H   0  0  0  0  0  0  0  0  0  0  0  0
   55.5959   23.0248   42.8150 H   0  0  0  0  0  0  0  0  0  0  0  0
   60.8600   25.1270   45.9070 H   0  0  0  0  0  0  0  0  0  0  0  0
   60.6900   27.8440   46.4630 H   0  0  0  0  0  0  0  0  0  0  0  0
   56.4229   29.1305   45.1617 H   0  0  0  0  0  0  0  0  0  0  0  0
   55.5269   29.1306   42.8707 H   0  0  0  0  0  0  0  0  0  0  0  0
   56.2459   30.8537   41.2267 H   0  0  0  0  0  0  0  0  0  0  0  0
   57.9053   32.5876   41.9523 H   0  0  0  0  0  0  0  0  0  0  0  0
   58.8009   32.5862   44.2520 H   0  0  0  0  0  0  0  0  0  0  0  0
  1  2  3  0
  2  3  1  0
  3  4  1  0
  4  5  1  0
  5  6  1  0
  6  7  1  0
  7  8  2  0
  8  9  1  0
  9 10  2  0
 10 11  1  0
 11 12  1  0
 12 13  2  0
 12 14  1  0
 14 15  1  0
 15 16  1  0
 16 17  1  0
 14 18  1  0
 18 19  2  0
 18 20  1  0
 20 21  1  0
 21 22  1  0
  8 23  1  0
 23 24  1  0
 24 25  2  0
 25 26  1  0
 26 27  2  0
 27 28  1  0
 28 29  2  0
 23 30  2  0
 30  6  1  0
 22  9  1  0
 29 24  1  0
 21 11  2  0
  1 31  1  0
  3 32  1  0
  3 33  1  0
  4 34  1  0
  4 35  1  0
  5 36  1  0
  5 37  1  0
  7 38  1  0
 15 39  1  0
 15 40  1  0
 16 41  1  0
 16 42  1  0
 17 43  1  0
 17 44  1  0
 17 45  1  0
 20 46  1  0
 22 47  1  0
 25 48  1  0
 26 49  1  0
 27 50  1  0
 28 51  1  0
 29 52  1  0
M  END
>  <smiles>  (15) 
C#CCCCn1cc(-c2nc3c(=O)n(CCC)c(=O)[nH]c3[nH]2)c(-c2ccccc2)n1

>  <score_type>  (15) 
oracle

>  <origin>  (15) 
adg

>  <m_score__min__energy>  (15) 
-8.1400000000000006

>  <m_primary>  (15) 
energy

$$$$
15:0
     RDKit          3D

 49 52  0  0  0  0  0  0  0  0999 V2000
   55.9490   29.3560   44.0970 C   0  0  0  0  0  0  0  0  0  0  0  0
   56.0530   28.5720   45.2810 O   0  0  0  0  0  0  0  0  0  0  0  0
   57.1070   27.6860   45.5620 C   0  0  0  0  0  0  0  0  0  0  0  0
   56.9660   26.2930   45.4060 C   0  0  0  0  0  0  0  0  0  0  0  0
   58.0360   25.4380   45.6790 C   0  0  0  0  0  0  0  0  0  0  0  0
   59.2530   25.9580   46.1160 C   0  0  0  0  0  0  0  0  0  0  0  0
   59.4080   27.3350   46.2780 C   0  0  0  0  0  0  0  0  0  0  0  0
   58.3430   28.2110   45.9990 C   0  0  0  0  0  0  0  0  0  0  0  0
   58.5120   29.6700   46.1980 C   0  0  0  0  0  0  0  0  0  0  0  0
   58.3330   30.4970   45.1410 N   0  0  0  0  0  0  0  0  0  0  0  0
   58.4460   31.8370   45.2610 C   0  0  0  0  0  0  0  0  0  0  0  0
   58.2060   32.6520   44.1510 C   0  0  0  0  0  0  0  0  0  0  0  0
   58.2450   34.0010   44.2750 N   0  0  0  0  0  0  0  0  0  0  0  0
   58.5060   34.5950   45.4660 C   0  0  0  0  0  0  0  0  0  0  0  0
   58.7580   33.8240   46.6020 C   0  0  0  0  0  0  0  0  0  0  0  0
   58.7750   32.4110   46.5110 C   0  0  0  0  0  0  0  0  0  0  0  0
   59.0670   31.5790   47.5800 N   0  0  0  0  0  0  0  0  0  0  0  0
   59.6130   32.0870   48.8700 C   0  0  0  0  0  0  0  0  0  0  0  0
   61.1460   32.3660   48.8510 C   0  0  0  0  0  0  0  0  0  0  0  0
   61.5290   33.8030   48.4000 C   0  0  0  0  0  0  0  0  0  0  0  0
   62.0820   33.8360   46.9710 C   0  0  0  0  0  0  0  0  0  0  0  0
   63.3630   32.9820   46.8470 C   0  0  0  0  0  0  0  0  0  0  0  0
   63.3830   31.7660   47.7980 C   0  0  0  0  0  0  0  0  0  0  0  0
   61.9640   31.2770   48.1040 C   0  0  0  0  0  0  0  0  0  0  0  0
   58.8770   30.2170   47.4410 C   0  0  0  0  0  0  0  0  0  0  0  0
   59.0670   29.4420   48.4200 O   0  0  0  0  0  0  0  0  0  0  0  0
   55.8088   30.4128   44.3682 H   0  0  0  0  0  0  0  0  0  0  0  0
   56.8693   29.2486   43.5041 H   0  0  0  0  0  0  0  0  0  0  0  0
   55.0886   29.0123   43.5041 H   0  0  0  0  0  0  0  0  0  0  0  0
   56.0064   25.8758   45.0668 H   0  0  0  0  0  0  0  0  0  0  0  0
   57.9180   24.3521   45.5489 H   0  0  0  0  0  0  0  0  0  0  0  0
   60.0927   25.2816   46.3335 H   0  0  0  0  0  0  0  0  0  0  0  0
   60.3700   27.7388   46.6265 H   0  0  0  0  0  0  0  0  0  0  0  0
   57.9849   32.1972   43.1742 H   0  0  0  0  0  0  0  0  0  0  0  0
   58.5192   35.6926   45.5373 H   0  0  0  0  0  0  0  0  0  0  0  0
   58.9436   34.3146   47.5689 H   0  0  0  0  0  0  0  0  0  0  0  0
   59.0950   33.0252   49.1179 H   0  0  0  0  0  0  0  0  0  0  0  0
   59.4455   31.2966   49.6164 H   0  0  0  0  0  0  0  0  0  0  0  0
   61.4398   32.3038   49.9092 H   0  0  0  0  0  0  0  0  0  0  0  0
   60.6329   34.4393   48.4474 H   0  0  0  0  0  0  0  0  0  0  0  0
   62.3173   34.1686   49.0745 H   0  0  0  0  0  0  0  0  0  0  0  0
   61.3201   33.4418   46.2824 H   0  0  0  0  0  0  0  0  0  0  0  0
   62.3321   34.8770   46.7186 H   0  0  0  0  0  0  0  0  0  0  0  0
   63.4399   32.6168   45.8122 H   0  0  0  0  0  0  0  0  0  0  0  0
   64.2108   33.6256   47.1246 H   0  0  0  0  0  0  0  0  0  0  0  0
   63.9492   30.9501   47.3250 H   0  0  0  0  0  0  0  0  0  0  0  0
   63.8570   32.0711   48.7426 H   0  0  0  0  0  0  0  0  0  0  0  0
   61.4569   31.0318   47.1591 H   0  0  0  0  0  0  0  0  0  0  0  0
   62.0322   30.3880   48.7482 H   0  0  0  0  0  0  0  0  0  0  0  0
  1  2  1  0
  2  3  1  0
  3  4  2  0
  4  5  1  0
  5  6  2  0
  6  7  1  0
  7  8  2  0
  8  9  1  0
  9 10  2  0
 10 11  1  0
 11 12  2  0
 12 13  1  0
 13 14  2  0
 14 15  1  0
 15 16  2  0
 16 17  1  0
 17 18  1  0
 18 19  1  0
 19 20  1  0
 20 21  1  0
 21 22  1  0
 22 23  1  0
 23 24  1  0
 17 25  1  0
 25 26  2  0
  8  3  1  0
 25  9  1  0
 16 11  1  0
 24 19  1  0
  1 27  1  0
  1 28  1  0
  1 29  1  0
  4 30  1  0
  5 31  1  0
  6 32  1  0
  7 33  1  0
 12 34  1  0
 14 35  1  0
 15 36  1  0
 18 37  1  0
 18 38  1  0
 19 39  1  0
 20 40  1  0
 20 41  1  0
 21 42  1  0
 21 43  1  0
 22 44  1  0
 22 45  1  0
 23 46  1  0
 23 47  1  0
 24 48  1  0
 24 49  1  0
M  END
>  <UniqueID>  (16) 
14

>  <SMILES>  (16) 
COc1ccccc1-c1nc2cnccc2n(CC2CCCCC2)c1=O

>  <Energy>  (16) 
76.25700947875805

>  <Genealogy>  (16) 
COc1ccccc1-c1nc2cnccc2n(CC2CCCCC2)c1=O (3D coordinates assigned)
COc1ccccc1-c1nc2cnccc2n(CC2CCCCC2)c1=O (nonaromatic ring conformer: 76.25700947875805 kcal/mol)

>  <smiles>  (16) 
COc1ccccc1-c1nc2cnccc2n(CC2CCCCC2)c1=O

>  <score_type>  (16) 
oracle

>  <origin>  (16) 
adg

>  <m_score__min__energy>  (16) 
-8.1999999999999993

>  <m_primary>  (16) 
energy

$$$$
16:0
     RDKit          3D

 58 60  0  0  0  0  0  0  0  0999 V2000
   55.6730   30.9460   52.0030 C   0  0  0  0  0  0  0  0  0  0  0  0
   56.7710   31.8980   52.4880 C   0  0  0  0  0  0  0  0  0  0  0  0
   58.0290   31.7950   51.7050 N   0  0  0  0  0  0  0  0  0  0  0  0
   58.1720   30.4060   51.1950 C   0  0  0  0  0  0  0  0  0  0  0  0
   59.6270   29.9250   51.1340 C   0  0  0  0  0  0  0  0  0  0  0  0
   59.2330   32.3000   52.4270 C   0  0  0  0  0  0  0  0  0  0  0  0
   60.1800   33.1990   51.6110 C   0  0  0  0  0  0  0  0  0  0  0  0
   59.4960   33.7870   50.5120 O   0  0  0  0  0  0  0  0  0  0  0  0
   59.2590   33.1100   49.3110 C   0  0  0  0  0  0  0  0  0  0  0  0
   58.1250   32.6030   49.0820 O   0  0  0  0  0  0  0  0  0  0  0  0
   60.3980   32.9610   48.3150 C   0  0  0  0  0  0  0  0  0  0  0  0
   59.7580   32.8510   46.9130 C   0  0  0  0  0  0  0  0  0  0  0  0
   59.6530   33.9430   46.0190 C   0  0  0  0  0  0  0  0  0  0  0  0
   59.0120   33.8060   44.7860 C   0  0  0  0  0  0  0  0  0  0  0  0
   58.4430   32.5830   44.4140 C   0  0  0  0  0  0  0  0  0  0  0  0
   57.7740   32.4470   43.1880 C   0  0  0  0  0  0  0  0  0  0  0  0
   57.2000   31.2240   42.8340 C   0  0  0  0  0  0  0  0  0  0  0  0
   57.2910   30.1300   43.6990 C   0  0  0  0  0  0  0  0  0  0  0  0
   57.9570   30.2540   44.9220 C   0  0  0  0  0  0  0  0  0  0  0  0
   58.5380   31.4780   45.2880 C   0  0  0  0  0  0  0  0  0  0  0  0
   59.1940   31.6160   46.5180 C   0  0  0  0  0  0  0  0  0  0  0  0
   61.2310   31.6840   48.6210 C   0  0  0  0  0  0  0  0  0  0  0  0
   62.4010   31.4850   47.6370 C   0  0  0  0  0  0  0  0  0  0  0  0
   62.9870   32.8000   47.0910 C   0  0  0  0  0  0  0  0  0  0  0  0
   62.7990   33.9840   48.0450 C   0  0  0  0  0  0  0  0  0  0  0  0
   61.3380   34.1920   48.5190 C   0  0  0  0  0  0  0  0  0  0  0  0
   55.1622   30.5031   52.8707 H   0  0  0  0  0  0  0  0  0  0  0  0
   54.9459   31.5043   51.3950 H   0  0  0  0  0  0  0  0  0  0  0  0
   56.1226   30.1471   51.3950 H   0  0  0  0  0  0  0  0  0  0  0  0
   56.3966   32.9296   52.4123 H   0  0  0  0  0  0  0  0  0  0  0  0
   57.0096   31.6174   53.5245 H   0  0  0  0  0  0  0  0  0  0  0  0
   57.9070   32.4090   50.8650 H   0  0  0  0  0  0  0  0  0  0  0  0
   57.6096   29.7318   51.8578 H   0  0  0  0  0  0  0  0  0  0  0  0
   57.7842   30.3971   50.1657 H   0  0  0  0  0  0  0  0  0  0  0  0
   60.0140   29.7971   52.1557 H   0  0  0  0  0  0  0  0  0  0  0  0
   59.6734   28.9637   50.6013 H   0  0  0  0  0  0  0  0  0  0  0  0
   60.2372   30.6692   50.6013 H   0  0  0  0  0  0  0  0  0  0  0  0
   58.8866   32.8775   53.2968 H   0  0  0  0  0  0  0  0  0  0  0  0
   59.8207   31.4069   52.6858 H   0  0  0  0  0  0  0  0  0  0  0  0
   60.5700   33.9960   52.2612 H   0  0  0  0  0  0  0  0  0  0  0  0
   61.0048   32.5826   51.2239 H   0  0  0  0  0  0  0  0  0  0  0  0
   60.0833   34.9156   46.3000 H   0  0  0  0  0  0  0  0  0  0  0  0
   58.9540   34.6657   44.1022 H   0  0  0  0  0  0  0  0  0  0  0  0
   57.7015   33.3056   42.5042 H   0  0  0  0  0  0  0  0  0  0  0  0
   56.6753   31.1216   41.8726 H   0  0  0  0  0  0  0  0  0  0  0  0
   56.8373   29.1685   43.4167 H   0  0  0  0  0  0  0  0  0  0  0  0
   58.0258   29.3899   45.5992 H   0  0  0  0  0  0  0  0  0  0  0  0
   59.2718   30.7477   47.1889 H   0  0  0  0  0  0  0  0  0  0  0  0
   61.6382   31.7655   49.6396 H   0  0  0  0  0  0  0  0  0  0  0  0
   60.5604   30.8181   48.5182 H   0  0  0  0  0  0  0  0  0  0  0  0
   63.2017   30.9384   48.1568 H   0  0  0  0  0  0  0  0  0  0  0  0
   62.0024   30.9305   46.7746 H   0  0  0  0  0  0  0  0  0  0  0  0
   64.0639   32.6579   46.9175 H   0  0  0  0  0  0  0  0  0  0  0  0
   62.4479   33.0385   46.1623 H   0  0  0  0  0  0  0  0  0  0  0  0
   63.4287   33.8163   48.9312 H   0  0  0  0  0  0  0  0  0  0  0  0
   63.0819   34.8883   47.4862 H   0  0  0  0  0  0  0  0  0  0  0  0
   61.3580   34.4323   49.5922 H   0  0  0  0  0  0  0  0  0  0  0  0
   60.9250   35.0012   47.8988 H   0  0  0  0  0  0  0  0  0  0  0  0
  1  2  1  0
  2  3  1  0
  3  4  1  0
  4  5  1  0
  3  6  1  0
  6  7  1  0
  7  8  1  0
  8  9  1  0
  9 10  2  0
  9 11  1  0
 11 12  1  0
 12 13  2  0
 13 14  1  0
 14 15  2  0
 15 16  1  0
 16 17  2  0
 17 18  1  0
 18 19  2  0
 19 20  1  0
 20 21  2  0
 11 22  1  0
 22 23  1  0
 23 24  1  0
 24 25  1  0
 25 26  1  0
 26 11  1  0
 21 12  1  0
 20 15  1  0
  1 27  1  0
  1 28  1  0
  1 29  1  0
  2 30  1  0
  2 31  1  0
  3 32  1  0
  4 33  1  0
  4 34  1  0
  5 35  1  0
  5 36  1  0
  5 37  1  0
  6 38  1  0
  6 39  1  0
  7 40  1  0
  7 41  1  0
 13 42  1  0
 14 43  1  0
 16 44  1  0
 17 45  1  0
 18 46  1  0
 19 47  1  0
 21 48  1  0
 22 49  1  0
 22 50  1  0
 23 51  1  0
 23 52  1  0
 24 53  1  0
 24 54  1  0
 25 55  1  0
 25 56  1  0
 26 57  1  0
 26 58  1  0
M  CHG  1   3   1
M  END
>  <UniqueID>  (17) 
15

>  <SMILES>  (17) 
CC[NH+](CC)CCOC(=O)C1(c2ccc3ccccc3c2)CCCCC1

>  <Energy>  (17) 
71.28952795344405

>  <Genealogy>  (17) 
CC[NH+](CC)CCOC(=O)C1(c2ccc3ccccc3c2)CCCCC1 (protonated)
CC[NH+](CC)CCOC(=O)C1(c2ccc3ccccc3c2)CCCCC1 (3D coordinates assigned)
CC[NH+](CC)CCOC(=O)C1(c2ccc3ccccc3c2)CCCCC1 (nonaromatic ring conformer: 71.28952795344405 kcal/mol)

>  <smiles>  (17) 
CCN(CC)CCOC(=O)C1(c2ccc3ccccc3c2)CCCCC1

>  <score_type>  (17) 
oracle

>  <origin>  (17) 
adg

>  <m_score__min__energy>  (17) 
-6.29

>  <m_primary>  (17) 
energy

$$$$
17:0
     RDKit          3D

 59 61  0  0  0  0  0  0  0  0999 V2000
   59.6910   29.1540   47.8300 C   0  0  0  0  0  0  0  0  0  0  0  0
   59.8050   30.3120   48.8170 C   0  0  0  0  0  0  0  0  0  0  0  0
   58.8990   31.4060   48.4510 N   0  0  0  0  0  0  0  0  0  0  0  0
   58.4090   32.3230   49.4860 C   0  0  0  0  0  0  0  0  0  0  0  0
   58.5110   31.6810   50.8640 C   0  0  0  0  0  0  0  0  0  0  0  0
   58.7860   31.7900   47.0720 C   0  0  0  0  0  0  0  0  0  0  0  0
   57.9940   31.0490   46.2530 N   0  0  0  0  0  0  0  0  0  0  0  0
   57.8020   31.3560   44.9430 C   0  0  0  0  0  0  0  0  0  0  0  0
   57.0020   30.5340   44.1270 C   0  0  0  0  0  0  0  0  0  0  0  0
   56.3560   29.2970   44.6880 C   0  0  0  0  0  0  0  0  0  0  0  0
   56.8230   30.8700   42.7750 C   0  0  0  0  0  0  0  0  0  0  0  0
   57.4240   32.0210   42.2380 C   0  0  0  0  0  0  0  0  0  0  0  0
   57.2680   32.3380   40.7800 C   0  0  0  0  0  0  0  0  0  0  0  0
   58.2310   32.8300   43.0530 C   0  0  0  0  0  0  0  0  0  0  0  0
   58.4160   32.5050   44.4050 C   0  0  0  0  0  0  0  0  0  0  0  0
   59.2150   33.3010   45.2330 C   0  0  0  0  0  0  0  0  0  0  0  0
   59.4510   32.9310   46.5680 C   0  0  0  0  0  0  0  0  0  0  0  0
   60.3220   33.7980   47.4610 C   0  0  0  0  0  0  0  0  0  0  0  0
   61.8160   33.8080   47.0820 C   0  0  0  0  0  0  0  0  0  0  0  0
   62.5320   32.5140   47.3970 C   0  0  0  0  0  0  0  0  0  0  0  0
   62.1510   31.4790   46.8650 O   0  0  0  0  0  0  0  0  0  0  0  0
   63.6160   32.4880   48.3690 N   0  0  0  0  0  0  0  0  0  0  0  0
   63.3530   31.5080   49.4430 C   0  0  0  0  0  0  0  0  0  0  0  0
   62.2630   31.9910   50.4300 C   0  0  0  0  0  0  0  0  0  0  0  0
   61.9770   33.3750   50.3200 O   0  0  0  0  0  0  0  0  0  0  0  0
   63.1760   34.1160   50.2430 C   0  0  0  0  0  0  0  0  0  0  0  0
   63.9070   33.8390   48.9110 C   0  0  0  0  0  0  0  0  0  0  0  0
   59.5979   28.2081   48.3837 H   0  0  0  0  0  0  0  0  0  0  0  0
   58.8026   29.2975   47.1974 H   0  0  0  0  0  0  0  0  0  0  0  0
   60.5903   29.1215   47.1974 H   0  0  0  0  0  0  0  0  0  0  0  0
   59.5469   29.9529   49.8242 H   0  0  0  0  0  0  0  0  0  0  0  0
   60.8377   30.6903   48.7956 H   0  0  0  0  0  0  0  0  0  0  0  0
   59.0131   33.2421   49.4699 H   0  0  0  0  0  0  0  0  0  0  0  0
   57.3539   32.5572   49.2813 H   0  0  0  0  0  0  0  0  0  0  0  0
   58.3884   32.4528   51.6381 H   0  0  0  0  0  0  0  0  0  0  0  0
   57.7221   30.9224   50.9744 H   0  0  0  0  0  0  0  0  0  0  0  0
   59.4962   31.2043   50.9744 H   0  0  0  0  0  0  0  0  0  0  0  0
   56.3776   29.3383   45.7870 H   0  0  0  0  0  0  0  0  0  0  0  0
   55.3129   29.2398   44.3436 H   0  0  0  0  0  0  0  0  0  0  0  0
   56.9051   28.4082   44.3436 H   0  0  0  0  0  0  0  0  0  0  0  0
   56.2066   30.2261   42.1305 H   0  0  0  0  0  0  0  0  0  0  0  0
   56.7848   33.3198   40.6679 H   0  0  0  0  0  0  0  0  0  0  0  0
   58.2582   32.3599   40.3015 H   0  0  0  0  0  0  0  0  0  0  0  0
   56.6465   31.5667   40.3015 H   0  0  0  0  0  0  0  0  0  0  0  0
   58.7193   33.7206   42.6307 H   0  0  0  0  0  0  0  0  0  0  0  0
   59.6622   34.2241   44.8357 H   0  0  0  0  0  0  0  0  0  0  0  0
   59.9473   34.8308   47.4081 H   0  0  0  0  0  0  0  0  0  0  0  0
   60.2587   33.3685   48.4717 H   0  0  0  0  0  0  0  0  0  0  0  0
   61.8988   33.9965   46.0014 H   0  0  0  0  0  0  0  0  0  0  0  0
   62.2948   34.5948   47.6834 H   0  0  0  0  0  0  0  0  0  0  0  0
   64.4810   32.1670   47.8720 H   0  0  0  0  0  0  0  0  0  0  0  0
   63.0221   30.5637   48.9860 H   0  0  0  0  0  0  0  0  0  0  0  0
   64.2853   31.3762   50.0118 H   0  0  0  0  0  0  0  0  0  0  0  0
   61.3393   31.4273   50.2324 H   0  0  0  0  0  0  0  0  0  0  0  0
   62.6461   31.8185   51.4466 H   0  0  0  0  0  0  0  0  0  0  0  0
   62.9419   35.1887   50.3097 H   0  0  0  0  0  0  0  0  0  0  0  0
   63.8308   33.8147   51.0740 H   0  0  0  0  0  0  0  0  0  0  0  0
   63.5902   34.5903   48.1727 H   0  0  0  0  0  0  0  0  0  0  0  0
   64.9880   33.8929   49.1073 H   0  0  0  0  0  0  0  0  0  0  0  0
  1  2  1  0
  2  3  1  0
  3  4  1  0
  4  5  1  0
  3  6  1  0
  6  7  2  0
  7  8  1  0
  8  9  2  0
  9 10  1  0
  9 11  1  0
 11 12  2  0
 12 13  1  0
 12 14  1  0
 14 15  2  0
 15 16  1  0
 16 17  2  0
 17 18  1  0
 18 19  1  0
 19 20  1  0
 20 21  2  0
 20 22  1  0
 22 23  1  0
 23 24  1  0
 24 25  1  0
 25 26  1  0
 26 27  1  0
 17  6  1  0
 27 22  1  0
 15  8  1  0
  1 28  1  0
  1 29  1  0
  1 30  1  0
  2 31  1  0
  2 32  1  0
  4 33  1  0
  4 34  1  0
  5 35  1  0
  5 36  1  0
  5 37  1  0
 10 38  1  0
 10 39  1  0
 10 40  1  0
 11 41  1  0
 13 42  1  0
 13 43  1  0
 13 44  1  0
 14 45  1  0
 16 46  1  0
 18 47  1  0
 18 48  1  0
 19 49  1  0
 19 50  1  0
 22 51  1  0
 23 52  1  0
 23 53  1  0
 24 54  1  0
 24 55  1  0
 26 56  1  0
 26 57  1  0
 27 58  1  0
 27 59  1  0
M  CHG  1  22   1
M  END
>  <UniqueID>  (18) 
16

>  <SMILES>  (18) 
CCN(CC)c1nc2c(C)cc(C)cc2cc1CCC(=O)[NH+]1CCOCC1

>  <Energy>  (18) 
70.97705428129561

>  <Genealogy>  (18) 
CCN(CC)c1nc2c(C)cc(C)cc2cc1CCC(=O)[NH+]1CCOCC1 (protonated)
CCN(CC)c1nc2c(C)cc(C)cc2cc1CCC(=O)[NH+]1CCOCC1 (3D coordinates assigned)
CCN(CC)c1nc2c(C)cc(C)cc2cc1CCC(=O)[NH+]1CCOCC1 (nonaromatic ring conformer: 70.97705428129561 kcal/mol)

>  <smiles>  (18) 
CCN(CC)c1nc2c(C)cc(C)cc2cc1CCC(=O)N1CCOCC1

>  <score_type>  (18) 
oracle

>  <origin>  (18) 
adg

>  <m_score__min__energy>  (18) 
-6.2999999999999998

>  <m_primary>  (18) 
energy

$$$$
18:0
     RDKit          3D

 49 52  0  0  0  0  0  0  0  0999 V2000
   58.3550   28.6280   53.1410 C   0  0  0  0  0  0  0  0  0  0  0  0
   58.5520   29.8650   52.2660 C   0  0  1  0  0  0  0  0  0  0  0  0
   59.7550   29.6720   51.3220 C   0  0  0  0  0  0  0  0  0  0  0  0
   59.7970   30.7590   50.2900 C   0  0  0  0  0  0  0  0  0  0  0  0
   60.9280   30.9420   49.5490 N   0  0  0  0  0  0  0  0  0  0  0  0
   60.9540   31.8930   48.5840 C   0  0  0  0  0  0  0  0  0  0  0  0
   62.2350   32.2570   47.5730 S   0  0  0  0  0  0  0  0  0  0  0  0
   61.4110   33.4750   46.7360 C   0  0  0  0  0  0  0  0  0  0  0  0
   60.1160   33.6010   47.2480 C   0  0  0  0  0  0  0  0  0  0  0  0
   59.1180   34.5670   46.6620 C   0  0  0  0  0  0  0  0  0  0  0  0
   58.4490   33.9900   45.4770 N   0  0  0  0  0  0  0  0  0  0  0  0
   56.9880   34.1430   45.5520 C   0  0  0  0  0  0  0  0  0  0  0  0
   58.8660   32.6070   45.1310 C   0  0  0  0  0  0  0  0  0  0  0  0
   57.7950   31.7500   44.4820 C   0  0  0  0  0  0  0  0  0  0  0  0
   57.3810   32.0250   43.3260 O   0  0  0  0  0  0  0  0  0  0  0  0
   57.0930   30.7470   45.2300 N   0  0  0  0  0  0  0  0  0  0  0  0
   57.6790   29.6400   45.9230 C   0  0  0  0  0  0  0  0  0  0  0  0
   58.6430   29.8340   46.9260 C   0  0  0  0  0  0  0  0  0  0  0  0
   59.2310   28.7350   47.5610 C   0  0  0  0  0  0  0  0  0  0  0  0
   58.8710   27.4360   47.1890 C   0  0  0  0  0  0  0  0  0  0  0  0
   59.4420   26.3700   47.8040 F   0  0  0  0  0  0  0  0  0  0  0  0
   57.9330   27.2370   46.1710 C   0  0  0  0  0  0  0  0  0  0  0  0
   57.3460   28.3350   45.5340 C   0  0  0  0  0  0  0  0  0  0  0  0
   59.8640   32.6960   48.2980 C   0  0  0  0  0  0  0  0  0  0  0  0
   58.6810   32.5240   49.0320 C   0  0  0  0  0  0  0  0  0  0  0  0
   58.6420   31.5340   50.0310 C   0  0  0  0  0  0  0  0  0  0  0  0
   57.4200   31.3650   50.8970 C   0  0  0  0  0  0  0  0  0  0  0  0
   57.3770   30.0850   51.5070 O   0  0  0  0  0  0  0  0  0  0  0  0
   58.4011   28.9177   54.2012 H   0  0  0  0  0  0  0  0  0  0  0  0
   57.3741   28.1791   52.9259 H   0  0  0  0  0  0  0  0  0  0  0  0
   59.1480   27.8966   52.9259 H   0  0  0  0  0  0  0  0  0  0  0  0
   58.7510   30.7352   52.9088 H   0  0  0  0  0  0  0  0  0  0  0  0
   60.6839   29.6966   51.9107 H   0  0  0  0  0  0  0  0  0  0  0  0
   59.6529   28.7029   50.8117 H   0  0  0  0  0  0  0  0  0  0  0  0
   61.8298   34.0755   45.9151 H   0  0  0  0  0  0  0  0  0  0  0  0
   58.3594   34.8046   47.4223 H   0  0  0  0  0  0  0  0  0  0  0  0
   59.6537   35.4763   46.3517 H   0  0  0  0  0  0  0  0  0  0  0  0
   56.6764   34.1756   46.6064 H   0  0  0  0  0  0  0  0  0  0  0  0
   56.6910   35.0772   45.0528 H   0  0  0  0  0  0  0  0  0  0  0  0
   56.5040   33.2906   45.0528 H   0  0  0  0  0  0  0  0  0  0  0  0
   59.7163   32.6722   44.4362 H   0  0  0  0  0  0  0  0  0  0  0  0
   59.1122   32.1161   46.0841 H   0  0  0  0  0  0  0  0  0  0  0  0
   58.9368   30.8544   47.2133 H   0  0  0  0  0  0  0  0  0  0  0  0
   59.9772   28.8928   48.3536 H   0  0  0  0  0  0  0  0  0  0  0  0
   57.6565   26.2155   45.8709 H   0  0  0  0  0  0  0  0  0  0  0  0
   56.6195   28.1738   44.7239 H   0  0  0  0  0  0  0  0  0  0  0  0
   57.8003   33.1514   48.8303 H   0  0  0  0  0  0  0  0  0  0  0  0
   57.4326   32.1337   51.6838 H   0  0  0  0  0  0  0  0  0  0  0  0
   56.5315   31.4676   50.2567 H   0  0  0  0  0  0  0  0  0  0  0  0
  1  2  1  0
  2  3  1  0
  3  4  1  0
  4  5  2  0
  5  6  1  0
  6  7  1  0
  7  8  1  0
  8  9  2  0
  9 10  1  0
 10 11  1  0
 11 12  1  0
 11 13  1  0
 13 14  1  0
 14 15  2  0
 14 16  1  0
 16 17  1  0
 17 18  2  0
 18 19  1  0
 19 20  2  0
 20 21  1  0
 20 22  1  0
 22 23  2  0
  9 24  1  0
 24 25  1  0
 25 26  2  0
 26 27  1  0
 27 28  1  0
 28  2  1  0
 26  4  1  0
 24  6  2  0
 23 17  1  0
  1 29  1  0
  1 30  1  0
  1 31  1  0
  2 32  1  1
  3 33  1  0
  3 34  1  0
  8 35  1  0
 10 36  1  0
 10 37  1  0
 12 38  1  0
 12 39  1  0
 12 40  1  0
 13 41  1  0
 13 42  1  0
 18 43  1  0
 19 44  1  0
 22 45  1  0
 23 46  1  0
 25 47  1  0
 27 48  1  0
 27 49  1  0
M  CHG  1  16  -1
M  END
>  <UniqueID>  (19) 
17

>  <SMILES>  (19) 
C[C@H]1Cc2nc3scc(CN(C)CC(=O)[N-]c4ccc(F)cc4)c3cc2CO1

>  <Energy>  (19) 
98.20002036564712

>  <Genealogy>  (19) 
CC1Cc2nc3scc(CN(C)CC(=O)[N-]c4ccc(F)cc4)c3cc2CO1 (protonated)
C[C@H]1Cc2nc3scc(CN(C)CC(=O)[N-]c4ccc(F)cc4)c3cc2CO1 (chirality)
C[C@H]1Cc2nc3scc(CN(C)CC(=O)[N-]c4ccc(F)cc4)c3cc2CO1 (3D coordinates assigned)
C[C@H]1Cc2nc3scc(CN(C)CC(=O)[N-]c4ccc(F)cc4)c3cc2CO1 (nonaromatic ring conformer: 98.20002036564712 kcal/mol)

>  <smiles>  (19) 
CC1Cc2nc3scc(CN(C)CC(=O)Nc4ccc(F)cc4)c3cc2CO1

>  <score_type>  (19) 
oracle

>  <origin>  (19) 
adg

>  <m_score__min__energy>  (19) 
-10.029999999999999

>  <m_primary>  (19) 
energy

$$$$
19:0
     RDKit          3D

 25 27  0  0  0  0  0  0  0  0999 V2000
   58.8940   30.2300   47.7680 C   0  0  0  0  0  0  0  0  0  0  0  0
   58.5760   31.1070   46.6410 N   0  0  0  0  0  0  0  0  0  0  0  0
   58.0040   30.7580   45.4620 C   0  0  0  0  0  0  0  0  0  0  0  0
   57.5360   29.4990   45.0700 C   0  0  0  0  0  0  0  0  0  0  0  0
   56.9840   29.3690   43.7830 C   0  0  0  0  0  0  0  0  0  0  0  0
   56.9130   30.4800   42.9150 C   0  0  0  0  0  0  0  0  0  0  0  0
   57.3990   31.7350   43.3200 C   0  0  0  0  0  0  0  0  0  0  0  0
   57.9370   31.8380   44.6020 C   0  0  0  0  0  0  0  0  0  0  0  0
   58.5090   32.8990   45.2670 C   0  0  0  0  0  0  0  0  0  0  0  0
   58.7370   34.2170   44.8780 C   0  0  0  0  0  0  0  0  0  0  0  0
   59.3850   35.0670   45.7900 C   0  0  0  0  0  0  0  0  0  0  0  0
   59.7930   34.5840   47.0520 C   0  0  0  0  0  0  0  0  0  0  0  0
   59.5550   33.2460   47.4200 C   0  0  0  0  0  0  0  0  0  0  0  0
   58.8990   32.4180   46.5030 C   0  0  0  0  0  0  0  0  0  0  0  0
   58.7014   30.7613   48.7117 H   0  0  0  0  0  0  0  0  0  0  0  0
   58.2655   29.3285   47.7198 H   0  0  0  0  0  0  0  0  0  0  0  0
   59.9542   29.9408   47.7198 H   0  0  0  0  0  0  0  0  0  0  0  0
   57.5980   28.6357   45.7489 H   0  0  0  0  0  0  0  0  0  0  0  0
   56.6039   28.3921   43.4495 H   0  0  0  0  0  0  0  0  0  0  0  0
   56.4737   30.3625   41.9134 H   0  0  0  0  0  0  0  0  0  0  0  0
   57.3564   32.6055   42.6489 H   0  0  0  0  0  0  0  0  0  0  0  0
   58.4201   34.5804   43.8893 H   0  0  0  0  0  0  0  0  0  0  0  0
   59.5756   36.1158   45.5187 H   0  0  0  0  0  0  0  0  0  0  0  0
   60.3020   35.2597   47.7550 H   0  0  0  0  0  0  0  0  0  0  0  0
   59.8756   32.8629   48.4000 H   0  0  0  0  0  0  0  0  0  0  0  0
  1  2  1  0
  2  3  1  0
  3  4  2  0
  4  5  1  0
  5  6  2  0
  6  7  1  0
  7  8  2  0
  8  9  1  0
  9 10  2  0
 10 11  1  0
 11 12  2  0
 12 13  1  0
 13 14  2  0
 14  2  1  0
  8  3  1  0
 14  9  1  0
  1 15  1  0
  1 16  1  0
  1 17  1  0
  4 18  1  0
  5 19  1  0
  6 20  1  0
  7 21  1  0
 10 22  1  0
 11 23  1  0
 12 24  1  0
 13 25  1  0
M  END
>  <UniqueID>  (20) 
18

>  <SMILES>  (20) 
Cn1c2ccccc2c2ccccc21

>  <Energy>  (20) 
69.44380423769557

>  <Genealogy>  (20) 
Cn1c2ccccc2c2ccccc21 (3D coordinates assigned)
Cn1c2ccccc2c2ccccc21 (optimized conformer: 69.44380423769557 kcal/mol)

>  <smiles>  (20) 
Cn1c2ccccc2c2ccccc21

>  <score_type>  (20) 
oracle

>  <origin>  (20) 
adg

>  <m_score__min__energy>  (20) 
-6.0599999999999996

>  <m_primary>  (20) 
energy

$$$$
20:0
     RDKit          3D

 40 42  0  0  0  0  0  0  0  0999 V2000
   57.0190   20.8900   46.7790 C   0  0  0  0  0  0  0  0  0  0  0  0
   57.3770   22.0980   47.4440 O   0  0  0  0  0  0  0  0  0  0  0  0
   57.3270   23.3700   46.8570 C   0  0  0  0  0  0  0  0  0  0  0  0
   57.2190   23.4560   45.4650 C   0  0  0  0  0  0  0  0  0  0  0  0
   57.1700   24.7010   44.8320 C   0  0  0  0  0  0  0  0  0  0  0  0
   57.2330   25.8860   45.5800 C   0  0  0  0  0  0  0  0  0  0  0  0
   57.1860   27.1520   44.8960 N   0  0  0  0  0  0  0  0  0  0  0  0
   58.3560   27.9870   44.6150 C   0  0  0  0  0  0  0  0  0  0  0  0
   58.0640   29.4360   44.9220 C   0  0  0  0  0  0  0  0  0  0  0  0
   59.0230   30.2270   45.5740 C   0  0  0  0  0  0  0  0  0  0  0  0
   58.7580   31.5740   45.8470 C   0  0  0  0  0  0  0  0  0  0  0  0
   59.7070   32.3870   46.4860 C   0  0  0  0  0  0  0  0  0  0  0  0
   59.4180   33.7410   46.7500 C   0  0  0  0  0  0  0  0  0  0  0  0
   60.3310   34.5960   47.3850 O   0  0  0  0  0  0  0  0  0  0  0  0
   61.1680   34.2140   48.4720 C   0  0  0  0  0  0  0  0  0  0  0  0
   58.1760   34.2640   46.3670 C   0  0  0  0  0  0  0  0  0  0  0  0
   57.2270   33.4570   45.7310 C   0  0  0  0  0  0  0  0  0  0  0  0
   57.5130   32.1150   45.4680 C   0  0  0  0  0  0  0  0  0  0  0  0
   56.5920   31.3300   44.8510 N   0  0  0  0  0  0  0  0  0  0  0  0
   56.8300   30.0200   44.5730 C   0  0  0  0  0  0  0  0  0  0  0  0
   55.9360   29.3400   44.0030 O   0  0  0  0  0  0  0  0  0  0  0  0
   57.3310   25.8000   46.9820 C   0  0  0  0  0  0  0  0  0  0  0  0
   57.3810   24.5540   47.6140 C   0  0  0  0  0  0  0  0  0  0  0  0
   56.7893   20.1150   47.5250 H   0  0  0  0  0  0  0  0  0  0  0  0
   56.1345   21.0664   46.1493 H   0  0  0  0  0  0  0  0  0  0  0  0
   57.8568   20.5560   46.1493 H   0  0  0  0  0  0  0  0  0  0  0  0
   57.1723   22.5361   44.8636 H   0  0  0  0  0  0  0  0  0  0  0  0
   57.0812   24.7522   43.7368 H   0  0  0  0  0  0  0  0  0  0  0  0
   56.2680   27.4780   44.5150 H   0  0  0  0  0  0  0  0  0  0  0  0
   59.1984   27.6490   45.2364 H   0  0  0  0  0  0  0  0  0  0  0  0
   58.6076   27.8954   43.5481 H   0  0  0  0  0  0  0  0  0  0  0  0
   59.9862   29.7867   45.8714 H   0  0  0  0  0  0  0  0  0  0  0  0
   60.6793   31.9661   46.7817 H   0  0  0  0  0  0  0  0  0  0  0  0
   60.6634   34.4443   49.4219 H   0  0  0  0  0  0  0  0  0  0  0  0
   61.3707   33.1342   48.4169 H   0  0  0  0  0  0  0  0  0  0  0  0
   62.1165   34.7684   48.4169 H   0  0  0  0  0  0  0  0  0  0  0  0
   57.9447   35.3204   46.5686 H   0  0  0  0  0  0  0  0  0  0  0  0
   56.2546   33.8793   45.4376 H   0  0  0  0  0  0  0  0  0  0  0  0
   57.3685   26.7197   47.5843 H   0  0  0  0  0  0  0  0  0  0  0  0
   57.4630   24.4994   48.7096 H   0  0  0  0  0  0  0  0  0  0  0  0
  1  2  1  0
  2  3  1  0
  3  4  2  0
  4  5  1  0
  5  6  2  0
  6  7  1  0
  7  8  1  0
  8  9  1  0
  9 10  2  0
 10 11  1  0
 11 12  2  0
 12 13  1  0
 13 14  1  0
 14 15  1  0
 13 16  2  0
 16 17  1  0
 17 18  2  0
 18 19  1  0
 19 20  1  0
 20 21  2  0
  6 22  1  0
 22 23  2  0
 23  3  1  0
 20  9  1  0
 18 11  1  0
  1 24  1  0
  1 25  1  0
  1 26  1  0
  4 27  1  0
  5 28  1  0
  7 29  1  0
  8 30  1  0
  8 31  1  0
 10 32  1  0
 12 33  1  0
 15 34  1  0
 15 35  1  0
 15 36  1  0
 16 37  1  0
 17 38  1  0
 22 39  1  0
 23 40  1  0
M  CHG  1  19  -1
M  END
>  <UniqueID>  (21) 
19

>  <SMILES>  (21) 
COc1ccc(NCc2cc3cc(OC)ccc3[n-]c2=O)cc1

>  <Energy>  (21) 
44.47603450622156

>  <Genealogy>  (21) 
COc1ccc(NCc2cc3cc(OC)ccc3[n-]c2=O)cc1 (protonated)
COc1ccc(NCc2cc3cc(OC)ccc3[n-]c2=O)cc1 (3D coordinates assigned)
COc1ccc(NCc2cc3cc(OC)ccc3[n-]c2=O)cc1 (optimized conformer: 44.47603450622156 kcal/mol)

>  <smiles>  (21) 
COc1ccc(NCc2cc3cc(OC)ccc3[nH]c2=O)cc1

>  <score_type>  (21) 
oracle

>  <origin>  (21) 
adg

>  <m_score__min__energy>  (21) 
-9.25

>  <m_primary>  (21) 
energy

$$$$
21:0
     RDKit          3D

 32 34  0  0  0  0  0  0  0  0999 V2000
   65.7750   32.6030   50.1070 C   0  0  0  0  0  0  0  0  0  0  0  0
   64.7400   33.5800   50.0820 O   0  0  0  0  0  0  0  0  0  0  0  0
   63.6430   33.5490   49.2080 C   0  0  0  0  0  0  0  0  0  0  0  0
   63.6920   32.9040   47.9590 C   0  0  0  0  0  0  0  0  0  0  0  0
   62.5710   32.9000   47.1230 C   0  0  0  0  0  0  0  0  0  0  0  0
   61.3830   33.5380   47.5170 C   0  0  0  0  0  0  0  0  0  0  0  0
   60.2100   33.5210   46.6140 C   0  0  0  0  0  0  0  0  0  0  0  0
   59.3860   34.5750   46.2690 C   0  0  0  0  0  0  0  0  0  0  0  0
   58.4390   34.1290   45.4230 N   0  0  0  0  0  0  0  0  0  0  0  0
   58.7240   32.8150   45.2870 C   0  0  0  0  0  0  0  0  0  0  0  0
   57.9470   31.8880   44.4420 C   0  0  0  0  0  0  0  0  0  0  0  0
   57.7590   32.1660   43.0760 C   0  0  0  0  0  0  0  0  0  0  0  0
   57.0240   31.2910   42.2710 C   0  0  0  0  0  0  0  0  0  0  0  0
   56.4710   30.1310   42.8210 C   0  0  0  0  0  0  0  0  0  0  0  0
   56.6530   29.8450   44.1760 C   0  0  0  0  0  0  0  0  0  0  0  0
   57.3870   30.7180   44.9860 C   0  0  0  0  0  0  0  0  0  0  0  0
   59.7740   32.4540   45.9920 O   0  0  0  0  0  0  0  0  0  0  0  0
   61.3390   34.1820   48.7660 C   0  0  0  0  0  0  0  0  0  0  0  0
   62.4610   34.1840   49.6000 C   0  0  0  0  0  0  0  0  0  0  0  0
   66.0284   32.3638   51.1504 H   0  0  0  0  0  0  0  0  0  0  0  0
   65.4317   31.6920   49.5950 H   0  0  0  0  0  0  0  0  0  0  0  0
   66.6647   32.9982   49.5950 H   0  0  0  0  0  0  0  0  0  0  0  0
   64.6160   32.4006   47.6385 H   0  0  0  0  0  0  0  0  0  0  0  0
   62.6199   32.3928   46.1482 H   0  0  0  0  0  0  0  0  0  0  0  0
   59.4874   35.6100   46.6274 H   0  0  0  0  0  0  0  0  0  0  0  0
   58.1929   33.0773   42.6387 H   0  0  0  0  0  0  0  0  0  0  0  0
   56.8806   31.5155   41.2037 H   0  0  0  0  0  0  0  0  0  0  0  0
   55.8924   29.4433   42.1867 H   0  0  0  0  0  0  0  0  0  0  0  0
   56.2182   28.9312   44.6072 H   0  0  0  0  0  0  0  0  0  0  0  0
   57.5268   30.4885   46.0527 H   0  0  0  0  0  0  0  0  0  0  0  0
   60.4167   34.6871   49.0888 H   0  0  0  0  0  0  0  0  0  0  0  0
   62.4132   34.6907   50.5752 H   0  0  0  0  0  0  0  0  0  0  0  0
  1  2  1  0
  2  3  1  0
  3  4  2  0
  4  5  1  0
  5  6  2  0
  6  7  1  0
  7  8  2  0
  8  9  1  0
  9 10  2  0
 10 11  1  0
 11 12  2  0
 12 13  1  0
 13 14  2  0
 14 15  1  0
 15 16  2  0
 10 17  1  0
  6 18  1  0
 18 19  2  0
 19  3  1  0
 17  7  1  0
 16 11  1  0
  1 20  1  0
  1 21  1  0
  1 22  1  0
  4 23  1  0
  5 24  1  0
  8 25  1  0
 12 26  1  0
 13 27  1  0
 14 28  1  0
 15 29  1  0
 16 30  1  0
 18 31  1  0
 19 32  1  0
M  END
>  <UniqueID>  (22) 
20

>  <SMILES>  (22) 
COc1ccc(-c2cnc(-c3ccccc3)o2)cc1

>  <Energy>  (22) 
64.72067385721687

>  <Genealogy>  (22) 
COc1ccc(-c2cnc(-c3ccccc3)o2)cc1 (3D coordinates assigned)
COc1ccc(-c2cnc(-c3ccccc3)o2)cc1 (optimized conformer: 64.72067385721687 kcal/mol)

>  <smiles>  (22) 
COc1ccc(-c2cnc(-c3ccccc3)o2)cc1

>  <score_type>  (22) 
oracle

>  <origin>  (22) 
adg

>  <m_score__min__energy>  (22) 
-6.4800000000000004

>  <m_primary>  (22) 
energy

$$$$
22:0
     RDKit          3D

 50 52  0  0  0  0  0  0  0  0999 V2000
   59.1760   24.8520   46.0190 C   0  0  0  0  0  0  0  0  0  0  0  0
   58.5270   25.9110   46.7140 O   0  0  0  0  0  0  0  0  0  0  0  0
   58.5470   27.2620   46.3300 C   0  0  0  0  0  0  0  0  0  0  0  0
   59.7440   27.9960   46.3700 C   0  0  0  0  0  0  0  0  0  0  0  0
   59.7750   29.3270   45.9730 C   0  0  0  0  0  0  0  0  0  0  0  0
   58.6180   29.9590   45.5130 C   0  0  0  0  0  0  0  0  0  0  0  0
   58.6800   31.4240   45.1410 C   0  0  0  0  0  0  0  0  0  0  0  0
   57.4620   32.1180   45.5910 N   0  0  0  0  0  0  0  0  0  0  0  0
   57.7240   33.5140   45.9890 C   0  0  0  0  0  0  0  0  0  0  0  0
   59.1890   33.9480   45.7900 C   0  0  0  0  0  0  0  0  0  0  0  0
   59.9270   34.0510   47.0940 C   0  0  0  0  0  0  0  0  0  0  0  0
   59.3640   34.2810   48.3450 C   0  0  0  0  0  0  0  0  0  0  0  0
   60.3140   34.2320   49.3080 N   0  0  0  0  0  0  0  0  0  0  0  0
   61.4700   33.9640   48.6770 C   0  0  0  0  0  0  0  0  0  0  0  0
   62.7280   33.7950   49.2560 C   0  0  0  0  0  0  0  0  0  0  0  0
   63.8080   33.4990   48.4050 C   0  0  0  0  0  0  0  0  0  0  0  0
   63.6080   33.3770   47.0120 C   0  0  0  0  0  0  0  0  0  0  0  0
   62.3280   33.5520   46.4570 C   0  0  0  0  0  0  0  0  0  0  0  0
   61.2760   33.8450   47.3240 C   0  0  0  0  0  0  0  0  0  0  0  0
   57.3960   29.2560   45.4770 C   0  0  0  0  0  0  0  0  0  0  0  0
   56.2650   29.9700   45.0300 O   0  0  0  0  0  0  0  0  0  0  0  0
   55.5910   29.8250   43.7860 C   0  0  0  0  0  0  0  0  0  0  0  0
   57.3530   27.8940   45.8890 C   0  0  0  0  0  0  0  0  0  0  0  0
   56.1190   27.2200   45.8430 O   0  0  0  0  0  0  0  0  0  0  0  0
   55.8950   25.8190   45.9590 C   0  0  0  0  0  0  0  0  0  0  0  0
   59.6078   24.1474   46.7450 H   0  0  0  0  0  0  0  0  0  0  0  0
   58.4451   24.3258   45.3874 H   0  0  0  0  0  0  0  0  0  0  0  0
   59.9767   25.2644   45.3874 H   0  0  0  0  0  0  0  0  0  0  0  0
   60.6675   27.5113   46.7197 H   0  0  0  0  0  0  0  0  0  0  0  0
   60.7198   29.8882   46.0215 H   0  0  0  0  0  0  0  0  0  0  0  0
   59.5572   31.8832   45.6202 H   0  0  0  0  0  0  0  0  0  0  0  0
   58.7584   31.5122   44.0474 H   0  0  0  0  0  0  0  0  0  0  0  0
   56.7800   32.1380   44.7980 H   0  0  0  0  0  0  0  0  0  0  0  0
   57.0180   31.5870   46.3750 H   0  0  0  0  0  0  0  0  0  0  0  0
   57.0812   34.1735   45.3874 H   0  0  0  0  0  0  0  0  0  0  0  0
   57.5091   33.5881   47.0653 H   0  0  0  0  0  0  0  0  0  0  0  0
   59.6953   33.2079   45.1528 H   0  0  0  0  0  0  0  0  0  0  0  0
   59.1880   34.9428   45.3205 H   0  0  0  0  0  0  0  0  0  0  0  0
   58.2966   34.4754   48.5263 H   0  0  0  0  0  0  0  0  0  0  0  0
   60.1700   34.3580   50.3350 H   0  0  0  0  0  0  0  0  0  0  0  0
   62.8706   33.8901   50.3426 H   0  0  0  0  0  0  0  0  0  0  0  0
   64.8146   33.3617   48.8268 H   0  0  0  0  0  0  0  0  0  0  0  0
   64.4599   33.1434   46.3566 H   0  0  0  0  0  0  0  0  0  0  0  0
   62.1619   33.4607   45.3735 H   0  0  0  0  0  0  0  0  0  0  0  0
   54.5304   29.5968   43.9680 H   0  0  0  0  0  0  0  0  0  0  0  0
   55.6717   30.7611   43.2139 H   0  0  0  0  0  0  0  0  0  0  0  0
   56.0495   29.0050   43.2139 H   0  0  0  0  0  0  0  0  0  0  0  0
   55.8506   25.5416   47.0225 H   0  0  0  0  0  0  0  0  0  0  0  0
   54.9438   25.5582   45.4721 H   0  0  0  0  0  0  0  0  0  0  0  0
   56.7175   25.2746   45.4721 H   0  0  0  0  0  0  0  0  0  0  0  0
  1  2  1  0
  2  3  1  0
  3  4  2  0
  4  5  1  0
  5  6  2  0
  6  7  1  0
  7  8  1  0
  8  9  1  0
  9 10  1  0
 10 11  1  0
 11 12  2  0
 12 13  1  0
 13 14  1  0
 14 15  2  0
 15 16  1  0
 16 17  2  0
 17 18  1  0
 18 19  2  0
  6 20  1  0
 20 21  1  0
 21 22  1  0
 20 23  2  0
 23 24  1  0
 24 25  1  0
 23  3  1  0
 19 11  1  0
 19 14  1  0
  1 26  1  0
  1 27  1  0
  1 28  1  0
  4 29  1  0
  5 30  1  0
  7 31  1  0
  7 32  1  0
  8 33  1  0
  8 34  1  0
  9 35  1  0
  9 36  1  0
 10 37  1  0
 10 38  1  0
 12 39  1  0
 13 40  1  0
 15 41  1  0
 16 42  1  0
 17 43  1  0
 18 44  1  0
 22 45  1  0
 22 46  1  0
 22 47  1  0
 25 48  1  0
 25 49  1  0
 25 50  1  0
M  CHG  1   8   1
M  END
>  <UniqueID>  (23) 
21

>  <SMILES>  (23) 
COc1ccc(C[NH2+]CCc2c[nH]c3ccccc23)c(OC)c1OC

>  <Energy>  (23) 
86.98465591992112

>  <Genealogy>  (23) 
COc1ccc(C[NH2+]CCc2c[nH]c3ccccc23)c(OC)c1OC (protonated)
COc1ccc(C[NH2+]CCc2c[nH]c3ccccc23)c(OC)c1OC (3D coordinates assigned)
COc1ccc(C[NH2+]CCc2c[nH]c3ccccc23)c(OC)c1OC (optimized conformer: 86.98465591992112 kcal/mol)

>  <smiles>  (23) 
COc1ccc(CNCCc2c[nH]c3ccccc23)c(OC)c1OC

>  <score_type>  (23) 
oracle

>  <origin>  (23) 
adg

>  <m_score__min__energy>  (23) 
-5.9199999999999999

>  <m_primary>  (23) 
energy

$$$$
23:0
     RDKit          3D

 41 43  0  0  0  0  0  0  0  0999 V2000
   59.7440   33.9110   49.7540 C   0  0  0  0  0  0  0  0  0  0  0  0
   59.5000   32.8320   51.2000 S   0  0  0  0  0  0  0  0  0  0  0  0
   59.7000   31.3180   50.2580 C   0  0  0  0  0  0  0  0  0  0  0  0
   58.5800   30.6760   49.7180 C   0  0  0  0  0  0  0  0  0  0  0  0
   58.7340   29.5000   48.9760 C   0  0  0  0  0  0  0  0  0  0  0  0
   60.0140   28.9580   48.7670 C   0  0  0  0  0  0  0  0  0  0  0  0
   60.1770   27.7090   47.9420 C   0  0  0  0  0  0  0  0  0  0  0  0
   59.3830   27.8030   46.7230 N   0  0  0  0  0  0  0  0  0  0  0  0
   59.5340   28.8530   45.7580 C   0  0  0  0  0  0  0  0  0  0  0  0
   60.6870   29.2850   45.4890 O   0  0  0  0  0  0  0  0  0  0  0  0
   58.3380   29.4210   45.0820 C   0  0  0  0  0  0  0  0  0  0  0  0
   57.7710   28.7520   43.9860 C   0  0  0  0  0  0  0  0  0  0  0  0
   56.6440   29.2800   43.3610 C   0  0  0  0  0  0  0  0  0  0  0  0
   56.1050   30.4380   43.8190 N   0  0  0  0  0  0  0  0  0  0  0  0
   56.6340   31.0880   44.8560 N   0  0  0  0  0  0  0  0  0  0  0  0
   57.7410   30.6290   45.5050 C   0  0  0  0  0  0  0  0  0  0  0  0
   58.2510   31.3260   46.6100 O   0  0  0  0  0  0  0  0  0  0  0  0
   59.2960   32.2630   46.5740 C   0  0  0  0  0  0  0  0  0  0  0  0
   60.6020   31.9350   46.9840 C   0  0  0  0  0  0  0  0  0  0  0  0
   61.6140   32.9020   46.9600 C   0  0  0  0  0  0  0  0  0  0  0  0
   63.2350   32.4880   47.4870 Cl  0  0  0  0  0  0  0  0  0  0  0  0
   61.3300   34.2020   46.5320 C   0  0  0  0  0  0  0  0  0  0  0  0
   60.0330   34.5390   46.1360 C   0  0  0  0  0  0  0  0  0  0  0  0
   59.0150   33.5760   46.1630 C   0  0  0  0  0  0  0  0  0  0  0  0
   57.3900   34.0270   45.6710 Cl  0  0  0  0  0  0  0  0  0  0  0  0
   61.1350   29.6110   49.3060 C   0  0  0  0  0  0  0  0  0  0  0  0
   60.9770   30.7820   50.0540 C   0  0  0  0  0  0  0  0  0  0  0  0
   59.9748   34.9317   50.0929 H   0  0  0  0  0  0  0  0  0  0  0  0
   60.5783   33.5285   49.1477 H   0  0  0  0  0  0  0  0  0  0  0  0
   58.8263   33.9247   49.1477 H   0  0  0  0  0  0  0  0  0  0  0  0
   57.5763   31.0969   49.8773 H   0  0  0  0  0  0  0  0  0  0  0  0
   57.8506   28.9979   48.5548 H   0  0  0  0  0  0  0  0  0  0  0  0
   61.2372   27.5850   47.6763 H   0  0  0  0  0  0  0  0  0  0  0  0
   59.8329   26.8443   48.5284 H   0  0  0  0  0  0  0  0  0  0  0  0
   58.2153   27.8139   43.6220 H   0  0  0  0  0  0  0  0  0  0  0  0
   56.1937   28.7617   42.5016 H   0  0  0  0  0  0  0  0  0  0  0  0
   60.8285   30.9140   47.3249 H   0  0  0  0  0  0  0  0  0  0  0  0
   62.1272   34.9595   46.5069 H   0  0  0  0  0  0  0  0  0  0  0  0
   59.8103   35.5632   45.8021 H   0  0  0  0  0  0  0  0  0  0  0  0
   62.1413   29.1995   49.1390 H   0  0  0  0  0  0  0  0  0  0  0  0
   61.8576   31.2827   50.4828 H   0  0  0  0  0  0  0  0  0  0  0  0
  1  2  1  0
  2  3  1  0
  3  4  2  0
  4  5  1  0
  5  6  2  0
  6  7  1  0
  7  8  1  0
  8  9  1  0
  9 10  2  0
  9 11  1  0
 11 12  2  0
 12 13  1  0
 13 14  2  0
 14 15  1  0
 15 16  2  0
 16 17  1  0
 17 18  1  0
 18 19  2  0
 19 20  1  0
 20 21  1  0
 20 22  2  0
 22 23  1  0
 23 24  2  0
 24 25  1  0
  6 26  1  0
 26 27  2  0
 27  3  1  0
 16 11  1  0
 24 18  1  0
  1 28  1  0
  1 29  1  0
  1 30  1  0
  4 31  1  0
  5 32  1  0
  7 33  1  0
  7 34  1  0
 12 35  1  0
 13 36  1  0
 19 37  1  0
 22 38  1  0
 23 39  1  0
 26 40  1  0
 27 41  1  0
M  CHG  1   8  -1
M  END
>  <UniqueID>  (24) 
22

>  <SMILES>  (24) 
CSc1ccc(C[N-]C(=O)c2ccnnc2Oc2cc(Cl)ccc2Cl)cc1

>  <Energy>  (24) 
45.28633770725055

>  <Genealogy>  (24) 
CSc1ccc(C[N-]C(=O)c2ccnnc2Oc2cc(Cl)ccc2Cl)cc1 (protonated)
CSc1ccc(C[N-]C(=O)c2ccnnc2Oc2cc(Cl)ccc2Cl)cc1 (3D coordinates assigned)
CSc1ccc(C[N-]C(=O)c2ccnnc2Oc2cc(Cl)ccc2Cl)cc1 (optimized conformer: 45.28633770725055 kcal/mol)

>  <smiles>  (24) 
CSc1ccc(CNC(=O)c2ccnnc2Oc2cc(Cl)ccc2Cl)cc1

>  <score_type>  (24) 
oracle

>  <origin>  (24) 
adg

>  <m_score__min__energy>  (24) 
-9.8800000000000008

>  <m_primary>  (24) 
energy

$$$$
24:0
     RDKit          3D

 61 63  0  0  0  0  0  0  0  0999 V2000
   57.4000   31.7520   41.8820 C   0  0  0  0  0  0  0  0  0  0  0  0
   57.8770   32.3440   42.8180 C   0  0  0  0  0  0  0  0  0  0  0  0
   58.4890   33.0390   43.9630 C   0  0  0  0  0  0  0  0  0  0  0  0
   58.1340   32.4450   45.2750 N   0  0  1  0  0  0  0  0  0  0  0  0
   57.0310   33.1700   45.9330 C   0  0  0  0  0  0  0  0  0  0  0  0
   58.0060   30.9890   45.1880 C   0  0  0  0  0  0  0  0  0  0  0  0
   56.8930   30.5320   44.9580 O   0  0  0  0  0  0  0  0  0  0  0  0
   59.1410   29.9660   45.3280 C   0  0  1  0  0  0  0  0  0  0  0  0
   60.0560   30.2010   46.5490 C   0  0  0  0  0  0  0  0  0  0  0  0
   59.5200   31.2300   47.3640 O   0  0  0  0  0  0  0  0  0  0  0  0
   60.0890   31.2040   48.6550 C   0  0  0  0  0  0  0  0  0  0  0  0
   61.4500   31.8330   48.5940 C   0  0  0  0  0  0  0  0  0  0  0  0
   61.7750   32.7010   47.5390 C   0  0  0  0  0  0  0  0  0  0  0  0
   63.0630   33.2470   47.4380 C   0  0  0  0  0  0  0  0  0  0  0  0
   63.3920   34.2010   46.3270 C   0  0  0  0  0  0  0  0  0  0  0  0
   64.0220   32.9430   48.4160 C   0  0  0  0  0  0  0  0  0  0  0  0
   63.7080   32.0790   49.4760 C   0  0  0  0  0  0  0  0  0  0  0  0
   64.7510   31.7100   50.4880 C   0  0  0  0  0  0  0  0  0  0  0  0
   62.4280   31.5070   49.5460 C   0  0  0  0  0  0  0  0  0  0  0  0
   58.6940   28.5280   45.1040 C   0  0  0  0  0  0  0  0  0  0  0  0
   58.5100   28.0810   43.7850 C   0  0  0  0  0  0  0  0  0  0  0  0
   58.1470   26.7580   43.5200 C   0  0  0  0  0  0  0  0  0  0  0  0
   57.9530   25.8480   44.5730 C   0  0  0  0  0  0  0  0  0  0  0  0
   57.5480   24.4470   44.2950 C   0  0  0  0  0  0  0  0  0  0  0  0
   58.0640   23.3870   45.0650 C   0  0  0  0  0  0  0  0  0  0  0  0
   57.6800   22.0690   44.8000 C   0  0  0  0  0  0  0  0  0  0  0  0
   56.7810   21.7940   43.7680 C   0  0  0  0  0  0  0  0  0  0  0  0
   56.2630   22.8360   42.9970 C   0  0  0  0  0  0  0  0  0  0  0  0
   56.6420   24.1570   43.2570 C   0  0  0  0  0  0  0  0  0  0  0  0
   58.1460   26.2880   45.8930 C   0  0  0  0  0  0  0  0  0  0  0  0
   58.5190   27.6080   46.1580 C   0  0  0  0  0  0  0  0  0  0  0  0
   56.9649   31.2120   41.0282 H   0  0  0  0  0  0  0  0  0  0  0  0
   59.5824   33.0021   43.8486 H   0  0  0  0  0  0  0  0  0  0  0  0
   58.1034   34.0692   43.9596 H   0  0  0  0  0  0  0  0  0  0  0  0
   58.9650   32.6120   45.8910 H   0  0  0  0  0  0  0  0  0  0  0  0
   57.1434   33.0961   47.0247 H   0  0  0  0  0  0  0  0  0  0  0  0
   57.0568   34.2278   45.6325 H   0  0  0  0  0  0  0  0  0  0  0  0
   56.0701   32.7268   45.6325 H   0  0  0  0  0  0  0  0  0  0  0  0
   59.8162   30.1585   44.4812 H   0  0  0  0  0  0  0  0  0  0  0  0
   60.1282   29.2726   47.1345 H   0  0  0  0  0  0  0  0  0  0  0  0
   61.0554   30.4997   46.1999 H   0  0  0  0  0  0  0  0  0  0  0  0
   59.4515   31.7680   49.3518 H   0  0  0  0  0  0  0  0  0  0  0  0
   60.1718   30.1652   49.0071 H   0  0  0  0  0  0  0  0  0  0  0  0
   61.0139   32.9545   46.7864 H   0  0  0  0  0  0  0  0  0  0  0  0
   63.7227   35.1598   46.7529 H   0  0  0  0  0  0  0  0  0  0  0  0
   64.1963   33.7784   45.7069 H   0  0  0  0  0  0  0  0  0  0  0  0
   62.4982   34.3640   45.7069 H   0  0  0  0  0  0  0  0  0  0  0  0
   65.0271   33.3852   48.3513 H   0  0  0  0  0  0  0  0  0  0  0  0
   64.3462   31.8532   51.5007 H   0  0  0  0  0  0  0  0  0  0  0  0
   65.0365   30.6563   50.3529 H   0  0  0  0  0  0  0  0  0  0  0  0
   65.6356   32.3497   50.3529 H   0  0  0  0  0  0  0  0  0  0  0  0
   62.1899   30.7982   50.3528 H   0  0  0  0  0  0  0  0  0  0  0  0
   58.6536   28.7820   42.9495 H   0  0  0  0  0  0  0  0  0  0  0  0
   58.0122   26.4265   42.4798 H   0  0  0  0  0  0  0  0  0  0  0  0
   58.7730   23.5970   45.8794 H   0  0  0  0  0  0  0  0  0  0  0  0
   58.0874   21.2465   45.4063 H   0  0  0  0  0  0  0  0  0  0  0  0
   56.4807   20.7559   43.5623 H   0  0  0  0  0  0  0  0  0  0  0  0
   55.5555   22.6178   42.1835 H   0  0  0  0  0  0  0  0  0  0  0  0
   56.2298   24.9742   42.6469 H   0  0  0  0  0  0  0  0  0  0  0  0
   58.0019   25.5855   46.7271 H   0  0  0  0  0  0  0  0  0  0  0  0
   58.6774   27.9321   47.1972 H   0  0  0  0  0  0  0  0  0  0  0  0
  1  2  3  0
  2  3  1  0
  3  4  1  0
  4  5  1  0
  4  6  1  0
  6  7  2  0
  6  8  1  0
  8  9  1  0
  9 10  1  0
 10 11  1  0
 11 12  1  0
 12 13  2  0
 13 14  1  0
 14 15  1  0
 14 16  2  0
 16 17  1  0
 17 18  1  0
 17 19  2  0
  8 20  1  0
 20 21  2  0
 21 22  1  0
 22 23  2  0
 23 24  1  0
 24 25  2  0
 25 26  1  0
 26 27  2  0
 27 28  1  0
 28 29  2  0
 23 30  1  0
 30 31  2  0
 19 12  1  0
 31 20  1  0
 29 24  1  0
  1 32  1  0
  3 33  1  0
  3 34  1  0
  4 35  1  1
  5 36  1  0
  5 37  1  0
  5 38  1  0
  8 39  1  6
  9 40  1  0
  9 41  1  0
 11 42  1  0
 11 43  1  0
 13 44  1  0
 15 45  1  0
 15 46  1  0
 15 47  1  0
 16 48  1  0
 18 49  1  0
 18 50  1  0
 18 51  1  0
 19 52  1  0
 21 53  1  0
 22 54  1  0
 25 55  1  0
 26 56  1  0
 27 57  1  0
 28 58  1  0
 29 59  1  0
 30 60  1  0
 31 61  1  0
M  CHG  1   4   1
M  END
>  <UniqueID>  (25) 
23

>  <SMILES>  (25) 
C#CC[N@@H+](C)C(=O)[C@@H](COCc1cc(C)cc(C)c1)c1ccc(-c2ccccc2)cc1

>  <Energy>  (25) 
79.1230563050066

>  <Genealogy>  (25) 
C#CC[NH+](C)C(=O)C(COCc1cc(C)cc(C)c1)c1ccc(-c2ccccc2)cc1 (protonated)
C#CC[N@@H+](C)C(=O)[C@@H](COCc1cc(C)cc(C)c1)c1ccc(-c2ccccc2)cc1 (chirality)
C#CC[N@@H+](C)C(=O)[C@@H](COCc1cc(C)cc(C)c1)c1ccc(-c2ccccc2)cc1 (3D coordinates assigned)
C#CC[N@@H+](C)C(=O)[C@@H](COCc1cc(C)cc(C)c1)c1ccc(-c2ccccc2)cc1 (optimized conformer: 79.1230563050066 kcal/mol)

>  <smiles>  (25) 
C#CCN(C)C(=O)C(COCc1cc(C)cc(C)c1)c1ccc(-c2ccccc2)cc1

>  <score_type>  (25) 
oracle

>  <origin>  (25) 
adg

>  <m_score__min__energy>  (25) 
-7.2400000000000002

>  <m_primary>  (25) 
energy

$$$$
25:0
     RDKit          3D

 25 27  0  0  0  0  0  0  0  0999 V2000
   58.1720   25.2260   46.5060 Cl  0  0  0  0  0  0  0  0  0  0  0  0
   58.2140   26.9710   46.2830 C   0  0  0  0  0  0  0  0  0  0  0  0
   57.3810   27.5500   45.3230 C   0  0  0  0  0  0  0  0  0  0  0  0
   57.3950   28.9350   45.1120 C   0  0  0  0  0  0  0  0  0  0  0  0
   58.2240   29.7640   45.8930 C   0  0  0  0  0  0  0  0  0  0  0  0
   59.0810   29.1660   46.8420 C   0  0  0  0  0  0  0  0  0  0  0  0
   59.0750   27.7810   47.0380 C   0  0  0  0  0  0  0  0  0  0  0  0
   60.1580   27.0860   48.2380 Cl  0  0  0  0  0  0  0  0  0  0  0  0
   58.1550   31.2420   45.6830 C   0  0  0  0  0  0  0  0  0  0  0  0
   58.7070   32.1590   46.6050 C   0  0  0  0  0  0  0  0  0  0  0  0
   58.6170   33.5340   46.3830 C   0  0  0  0  0  0  0  0  0  0  0  0
   57.9710   34.0220   45.2480 C   0  0  0  0  0  0  0  0  0  0  0  0
   57.4010   33.1350   44.3360 C   0  0  0  0  0  0  0  0  0  0  0  0
   57.4670   31.7490   44.5530 C   0  0  0  0  0  0  0  0  0  0  0  0
   56.8670   30.8210   43.5270 C   0  0  0  0  0  0  0  0  0  0  0  0
   56.5660   29.5110   44.0960 N   0  0  0  0  0  0  0  0  0  0  0  0
   56.7090   26.9139   44.7282 H   0  0  0  0  0  0  0  0  0  0  0  0
   59.7611   29.7961   47.4339 H   0  0  0  0  0  0  0  0  0  0  0  0
   59.2131   31.7854   47.5074 H   0  0  0  0  0  0  0  0  0  0  0  0
   59.0576   34.2356   47.1066 H   0  0  0  0  0  0  0  0  0  0  0  0
   57.9111   35.1062   45.0722 H   0  0  0  0  0  0  0  0  0  0  0  0
   56.8957   33.5236   43.4396 H   0  0  0  0  0  0  0  0  0  0  0  0
   55.9366   31.2660   43.1444 H   0  0  0  0  0  0  0  0  0  0  0  0
   57.5996   30.6839   42.7180 H   0  0  0  0  0  0  0  0  0  0  0  0
   55.8820   28.9040   43.5890 H   0  0  0  0  0  0  0  0  0  0  0  0
  1  2  1  0
  2  3  2  0
  3  4  1  0
  4  5  2  0
  5  6  1  0
  6  7  2  0
  7  8  1  0
  5  9  1  0
  9 10  2  0
 10 11  1  0
 11 12  2  0
 12 13  1  0
 13 14  2  0
 14 15  1  0
 15 16  1  0
  7  2  1  0
 14  9  1  0
 16  4  1  0
  3 17  1  0
  6 18  1  0
 10 19  1  0
 11 20  1  0
 12 21  1  0
 13 22  1  0
 15 23  1  0
 15 24  1  0
 16 25  1  0
M  END
>  <UniqueID>  (26) 
24

>  <SMILES>  (26) 
Clc1cc2c(cc1Cl)-c1ccccc1CN2

>  <Energy>  (26) 
34.87496076907719

>  <Genealogy>  (26) 
Clc1cc2c(cc1Cl)-c1ccccc1CN2 (3D coordinates assigned)
Clc1cc2c(cc1Cl)-c1ccccc1CN2 (nonaromatic ring conformer: 34.87496076907719 kcal/mol)

>  <smiles>  (26) 
Clc1cc2c(cc1Cl)-c1ccccc1CN2

>  <score_type>  (26) 
oracle

>  <origin>  (26) 
adg

>  <m_score__min__energy>  (26) 
-6.7400000000000002

>  <m_primary>  (26) 
energy

$$$$
26:0
     RDKit          3D

 49 51  0  0  0  0  0  0  0  0999 V2000
   60.7430   27.3070   49.0890 C   0  0  0  0  0  0  0  0  0  0  0  0
   60.3900   26.9590   47.6440 C   0  0  0  0  0  0  0  0  0  0  0  0
   59.8880   28.1370   46.9220 N   0  0  0  0  0  0  0  0  0  0  0  0
   59.2300   27.9530   45.6180 C   0  0  0  0  0  0  0  0  0  0  0  0
   57.7150   27.8240   45.7910 C   0  0  0  0  0  0  0  0  0  0  0  0
   57.0990   29.1430   45.8910 N   0  0  0  0  0  0  0  0  0  0  0  0
   56.3370   29.7460   44.8370 C   0  0  0  0  0  0  0  0  0  0  0  0
   55.1340   29.4080   44.6730 O   0  0  0  0  0  0  0  0  0  0  0  0
   56.9680   30.7740   43.9650 C   0  0  0  0  0  0  0  0  0  0  0  0
   56.8120   30.6640   42.5710 C   0  0  0  0  0  0  0  0  0  0  0  0
   57.3830   31.6030   41.7150 C   0  0  0  0  0  0  0  0  0  0  0  0
   58.1100   32.6610   42.2500 C   0  0  0  0  0  0  0  0  0  0  0  0
   58.2600   32.7750   43.5960 N   0  0  0  0  0  0  0  0  0  0  0  0
   57.7200   31.8710   44.4640 C   0  0  0  0  0  0  0  0  0  0  0  0
   57.9610   32.1630   46.2270 S   0  0  0  0  0  0  0  0  0  0  0  0
   57.9020   33.9730   46.0560 C   0  0  0  0  0  0  0  0  0  0  0  0
   60.0470   29.4580   47.4860 C   0  0  0  0  0  0  0  0  0  0  0  0
   59.1490   29.9330   48.4600 C   0  0  0  0  0  0  0  0  0  0  0  0
   59.2960   31.2130   49.0020 C   0  0  0  0  0  0  0  0  0  0  0  0
   60.3450   32.0410   48.5810 C   0  0  0  0  0  0  0  0  0  0  0  0
   60.5000   33.3290   49.1190 C   0  0  0  0  0  0  0  0  0  0  0  0
   61.5510   34.1460   48.6920 C   0  0  0  0  0  0  0  0  0  0  0  0
   62.4510   33.6860   47.7270 C   0  0  0  0  0  0  0  0  0  0  0  0
   62.3060   32.4060   47.1840 C   0  0  0  0  0  0  0  0  0  0  0  0
   61.2560   31.5750   47.6050 C   0  0  0  0  0  0  0  0  0  0  0  0
   61.1020   30.2890   47.0670 C   0  0  0  0  0  0  0  0  0  0  0  0
   60.1291   26.7018   49.7723 H   0  0  0  0  0  0  0  0  0  0  0  0
   61.8076   27.0953   49.2676 H   0  0  0  0  0  0  0  0  0  0  0  0
   60.5465   28.3745   49.2676 H   0  0  0  0  0  0  0  0  0  0  0  0
   61.2898   26.5827   47.1353 H   0  0  0  0  0  0  0  0  0  0  0  0
   59.6008   26.1927   47.6526 H   0  0  0  0  0  0  0  0  0  0  0  0
   59.4479   28.8206   44.9778 H   0  0  0  0  0  0  0  0  0  0  0  0
   59.6132   27.0317   45.1550 H   0  0  0  0  0  0  0  0  0  0  0  0
   57.2953   27.2931   44.9238 H   0  0  0  0  0  0  0  0  0  0  0  0
   57.5084   27.2634   46.7146 H   0  0  0  0  0  0  0  0  0  0  0  0
   56.2329   29.8275   42.1526 H   0  0  0  0  0  0  0  0  0  0  0  0
   57.2600   31.5085   40.6260 H   0  0  0  0  0  0  0  0  0  0  0  0
   58.5648   33.4074   41.5821 H   0  0  0  0  0  0  0  0  0  0  0  0
   58.8050   33.5830   43.9690 H   0  0  0  0  0  0  0  0  0  0  0  0
   57.8869   34.4353   47.0540 H   0  0  0  0  0  0  0  0  0  0  0  0
   58.7894   34.3184   45.5053 H   0  0  0  0  0  0  0  0  0  0  0  0
   56.9940   34.2599   45.5053 H   0  0  0  0  0  0  0  0  0  0  0  0
   58.3229   29.2903   48.7982 H   0  0  0  0  0  0  0  0  0  0  0  0
   58.5857   31.5715   49.7616 H   0  0  0  0  0  0  0  0  0  0  0  0
   59.7931   33.6957   49.8778 H   0  0  0  0  0  0  0  0  0  0  0  0
   61.6698   35.1537   49.1168 H   0  0  0  0  0  0  0  0  0  0  0  0
   63.2759   34.3329   47.3937 H   0  0  0  0  0  0  0  0  0  0  0  0
   63.0170   32.0489   46.4244 H   0  0  0  0  0  0  0  0  0  0  0  0
   61.8131   29.9266   46.3100 H   0  0  0  0  0  0  0  0  0  0  0  0
  1  2  1  0
  2  3  1  0
  3  4  1  0
  4  5  1  0
  5  6  1  0
  6  7  1  0
  7  8  2  0
  7  9  1  0
  9 10  2  0
 10 11  1  0
 11 12  2  0
 12 13  1  0
 13 14  2  0
 14 15  1  0
 15 16  1  0
  3 17  1  0
 17 18  2  0
 18 19  1  0
 19 20  2  0
 20 21  1  0
 21 22  2  0
 22 23  1  0
 23 24  2  0
 24 25  1  0
 25 26  2  0
 14  9  1  0
 26 17  1  0
 25 20  1  0
  1 27  1  0
  1 28  1  0
  1 29  1  0
  2 30  1  0
  2 31  1  0
  4 32  1  0
  4 33  1  0
  5 34  1  0
  5 35  1  0
 10 36  1  0
 11 37  1  0
 12 38  1  0
 13 39  1  0
 16 40  1  0
 16 41  1  0
 16 42  1  0
 18 43  1  0
 19 44  1  0
 21 45  1  0
 22 46  1  0
 23 47  1  0
 24 48  1  0
 26 49  1  0
M  CHG  2   6  -1  13   1
M  END
>  <UniqueID>  (27) 
25

>  <SMILES>  (27) 
CCN(CC[N-]C(=O)c1ccc[nH+]c1SC)c1ccc2ccccc2c1

>  <Energy>  (27) 
50.79246538262571

>  <Genealogy>  (27) 
CCN(CC[N-]C(=O)c1ccc[nH+]c1SC)c1ccc2ccccc2c1 (protonated)
CCN(CC[N-]C(=O)c1ccc[nH+]c1SC)c1ccc2ccccc2c1 (3D coordinates assigned)
CCN(CC[N-]C(=O)c1ccc[nH+]c1SC)c1ccc2ccccc2c1 (optimized conformer: 50.79246538262571 kcal/mol)

>  <smiles>  (27) 
CCN(CCNC(=O)c1cccnc1SC)c1ccc2ccccc2c1

>  <score_type>  (27) 
oracle

>  <origin>  (27) 
adg

>  <m_score__min__energy>  (27) 
-8.6500000000000004

>  <m_primary>  (27) 
energy

$$$$
27:0
     RDKit          3D

 64 67  0  0  0  0  0  0  0  0999 V2000
   60.1790   29.5820   50.3330 C   0  0  0  0  0  0  0  0  0  0  0  0
   60.1700   30.6500   49.3120 N   0  0  0  0  0  0  0  0  0  0  0  0
   58.9190   30.6030   48.5190 C   0  0  0  0  0  0  0  0  0  0  0  0
   58.9970   29.5010   47.4390 C   0  0  0  0  0  0  0  0  0  0  0  0
   59.0330   30.0250   46.0540 N   0  0  0  0  0  0  0  0  0  0  0  0
   57.9540   31.0050   45.7970 C   0  0  0  0  0  0  0  0  0  0  0  0
   58.5140   32.3980   45.6880 C   0  0  0  0  0  0  0  0  0  0  0  0
   57.8410   33.3680   44.9260 C   0  0  0  0  0  0  0  0  0  0  0  0
   58.3300   34.6770   44.8620 C   0  0  0  0  0  0  0  0  0  0  0  0
   59.4970   35.0230   45.5500 C   0  0  0  0  0  0  0  0  0  0  0  0
   60.1790   34.0600   46.2970 C   0  0  0  0  0  0  0  0  0  0  0  0
   59.6930   32.7510   46.3650 C   0  0  0  0  0  0  0  0  0  0  0  0
   59.0940   28.9450   45.0390 C   0  0  0  0  0  0  0  0  0  0  0  0
   58.3200   27.7400   45.5050 C   0  0  0  0  0  0  0  0  0  0  0  0
   58.9890   26.5820   45.9370 C   0  0  0  0  0  0  0  0  0  0  0  0
   58.2640   25.4830   46.4040 C   0  0  0  0  0  0  0  0  0  0  0  0
   56.8680   25.5260   46.4350 C   0  0  0  0  0  0  0  0  0  0  0  0
   56.1930   26.6670   45.9920 C   0  0  0  0  0  0  0  0  0  0  0  0
   54.8050   26.7070   46.0200 O   0  0  0  0  0  0  0  0  0  0  0  0
   56.9150   27.7680   45.5210 C   0  0  0  0  0  0  0  0  0  0  0  0
   61.3500   30.5190   48.4280 C   0  0  0  0  0  0  0  0  0  0  0  0
   62.5280   31.2680   48.9940 C   0  0  0  0  0  0  0  0  0  0  0  0
   63.1260   32.3130   48.2720 C   0  0  0  0  0  0  0  0  0  0  0  0
   64.2290   32.9930   48.7960 C   0  0  0  0  0  0  0  0  0  0  0  0
   64.7540   32.6410   50.0530 C   0  0  0  0  0  0  0  0  0  0  0  0
   65.9250   33.3640   50.6120 C   0  0  0  0  0  0  0  0  0  0  0  0
   65.7570   34.3240   51.6270 C   0  0  0  0  0  0  0  0  0  0  0  0
   66.8610   35.0020   52.1500 C   0  0  0  0  0  0  0  0  0  0  0  0
   68.1430   34.7300   51.6680 C   0  0  0  0  0  0  0  0  0  0  0  0
   68.3240   33.7800   50.6620 C   0  0  0  0  0  0  0  0  0  0  0  0
   67.2230   33.0980   50.1340 C   0  0  0  0  0  0  0  0  0  0  0  0
   64.1520   31.5910   50.7720 C   0  0  0  0  0  0  0  0  0  0  0  0
   63.0520   30.9110   50.2450 C   0  0  0  0  0  0  0  0  0  0  0  0
   60.1752   30.0336   51.3360 H   0  0  0  0  0  0  0  0  0  0  0  0
   59.2861   28.9511   50.2115 H   0  0  0  0  0  0  0  0  0  0  0  0
   61.0824   28.9662   50.2115 H   0  0  0  0  0  0  0  0  0  0  0  0
   58.0738   30.3912   49.1904 H   0  0  0  0  0  0  0  0  0  0  0  0
   58.7786   31.5746   48.0228 H   0  0  0  0  0  0  0  0  0  0  0  0
   59.9092   28.9107   47.6106 H   0  0  0  0  0  0  0  0  0  0  0  0
   58.0823   28.8968   47.5301 H   0  0  0  0  0  0  0  0  0  0  0  0
   57.4470   30.7452   44.8560 H   0  0  0  0  0  0  0  0  0  0  0  0
   57.2425   30.9749   46.6353 H   0  0  0  0  0  0  0  0  0  0  0  0
   56.9265   33.0971   44.3780 H   0  0  0  0  0  0  0  0  0  0  0  0
   57.7960   35.4348   44.2699 H   0  0  0  0  0  0  0  0  0  0  0  0
   59.8780   36.0538   45.5029 H   0  0  0  0  0  0  0  0  0  0  0  0
   61.1003   34.3320   46.8329 H   0  0  0  0  0  0  0  0  0  0  0  0
   60.2359   31.9947   46.9508 H   0  0  0  0  0  0  0  0  0  0  0  0
   58.6623   29.3100   44.0954 H   0  0  0  0  0  0  0  0  0  0  0  0
   60.1448   28.6568   44.8883 H   0  0  0  0  0  0  0  0  0  0  0  0
   60.0878   26.5409   45.9073 H   0  0  0  0  0  0  0  0  0  0  0  0
   58.7933   24.5821   46.7479 H   0  0  0  0  0  0  0  0  0  0  0  0
   56.2996   24.6614   46.8083 H   0  0  0  0  0  0  0  0  0  0  0  0
   56.3809   28.6599   45.1614 H   0  0  0  0  0  0  0  0  0  0  0  0
   61.6118   29.4550   48.3313 H   0  0  0  0  0  0  0  0  0  0  0  0
   61.1022   30.9433   47.4438 H   0  0  0  0  0  0  0  0  0  0  0  0
   62.7243   32.5982   47.2885 H   0  0  0  0  0  0  0  0  0  0  0  0
   64.6902   33.8097   48.2212 H   0  0  0  0  0  0  0  0  0  0  0  0
   64.7497   34.5421   52.0113 H   0  0  0  0  0  0  0  0  0  0  0  0
   66.7200   35.7514   52.9428 H   0  0  0  0  0  0  0  0  0  0  0  0
   69.0107   35.2649   52.0815 H   0  0  0  0  0  0  0  0  0  0  0  0
   69.3346   33.5671   50.2835 H   0  0  0  0  0  0  0  0  0  0  0  0
   67.3715   32.3500   49.3413 H   0  0  0  0  0  0  0  0  0  0  0  0
   64.5510   31.3041   51.7561 H   0  0  0  0  0  0  0  0  0  0  0  0
   62.5933   30.0896   50.8150 H   0  0  0  0  0  0  0  0  0  0  0  0
  1  2  1  0
  2  3  1  0
  3  4  1  0
  4  5  1  0
  5  6  1  0
  6  7  1  0
  7  8  2  0
  8  9  1  0
  9 10  2  0
 10 11  1  0
 11 12  2  0
  5 13  1  0
 13 14  1  0
 14 15  2  0
 15 16  1  0
 16 17  2  0
 17 18  1  0
 18 19  1  0
 18 20  2  0
  2 21  1  0
 21 22  1  0
 22 23  2  0
 23 24  1  0
 24 25  2  0
 25 26  1  0
 26 27  2  0
 27 28  1  0
 28 29  2  0
 29 30  1  0
 30 31  2  0
 25 32  1  0
 32 33  2  0
 12  7  1  0
 20 14  1  0
 33 22  1  0
 31 26  1  0
  1 34  1  0
  1 35  1  0
  1 36  1  0
  3 37  1  0
  3 38  1  0
  4 39  1  0
  4 40  1  0
  6 41  1  0
  6 42  1  0
  8 43  1  0
  9 44  1  0
 10 45  1  0
 11 46  1  0
 12 47  1  0
 13 48  1  0
 13 49  1  0
 15 50  1  0
 16 51  1  0
 17 52  1  0
 20 53  1  0
 21 54  1  0
 21 55  1  0
 23 56  1  0
 24 57  1  0
 27 58  1  0
 28 59  1  0
 29 60  1  0
 30 61  1  0
 31 62  1  0
 32 63  1  0
 33 64  1  0
M  CHG  1  19  -1
M  END
>  <UniqueID>  (28) 
26

>  <SMILES>  (28) 
CN(CCN(Cc1ccccc1)Cc1cccc([O-])c1)Cc1ccc(-c2ccccc2)cc1

>  <Energy>  (28) 
75.99238085653434

>  <Genealogy>  (28) 
CN(CCN(Cc1ccccc1)Cc1cccc([O-])c1)Cc1ccc(-c2ccccc2)cc1 (protonated)
CN(CCN(Cc1ccccc1)Cc1cccc([O-])c1)Cc1ccc(-c2ccccc2)cc1 (3D coordinates assigned)
CN(CCN(Cc1ccccc1)Cc1cccc([O-])c1)Cc1ccc(-c2ccccc2)cc1 (optimized conformer: 75.99238085653434 kcal/mol)

>  <smiles>  (28) 
CN(CCN(Cc1ccccc1)Cc1cccc(O)c1)Cc1ccc(-c2ccccc2)cc1

>  <score_type>  (28) 
oracle

>  <origin>  (28) 
adg

>  <m_score__min__energy>  (28) 
-12.960000000000001

>  <m_primary>  (28) 
energy

$$$$
28:0
     RDKit          3D

 45 48  0  0  0  0  0  0  0  0999 V2000
   56.0400   24.5250   45.2070 C   0  0  0  0  0  0  0  0  0  0  0  0
   56.0530   25.3770   46.3480 O   0  0  0  0  0  0  0  0  0  0  0  0
   57.0580   26.3150   46.6280 C   0  0  0  0  0  0  0  0  0  0  0  0
   58.1270   25.9170   47.4360 C   0  0  0  0  0  0  0  0  0  0  0  0
   59.1540   26.8100   47.7490 C   0  0  0  0  0  0  0  0  0  0  0  0
   59.1290   28.1220   47.2540 C   0  0  0  0  0  0  0  0  0  0  0  0
   60.1310   28.9930   47.5660 N   0  0  0  0  0  0  0  0  0  0  0  0
   60.1380   30.2770   47.1050 C   0  0  0  0  0  0  0  0  0  0  0  0
   61.2430   31.2000   47.4700 C   0  0  0  0  0  0  0  0  0  0  0  0
   62.1500   30.8630   48.4930 C   0  0  0  0  0  0  0  0  0  0  0  0
   63.1900   31.7340   48.8320 C   0  0  0  0  0  0  0  0  0  0  0  0
   63.3360   32.9470   48.1550 C   0  0  0  0  0  0  0  0  0  0  0  0
   62.4420   33.2910   47.1380 C   0  0  0  0  0  0  0  0  0  0  0  0
   61.4010   32.4230   46.7950 C   0  0  0  0  0  0  0  0  0  0  0  0
   59.0940   30.7220   46.2790 C   0  0  0  0  0  0  0  0  0  0  0  0
   58.0360   29.8590   45.9460 C   0  0  0  0  0  0  0  0  0  0  0  0
   56.9600   30.2800   45.1420 O   0  0  0  0  0  0  0  0  0  0  0  0
   57.0210   31.2970   44.1410 C   0  0  0  0  0  0  0  0  0  0  0  0
   57.6500   32.5460   44.6880 C   0  0  0  0  0  0  0  0  0  0  0  0
   57.1810   33.1180   45.8790 C   0  0  0  0  0  0  0  0  0  0  0  0
   57.7950   34.2720   46.3720 C   0  0  0  0  0  0  0  0  0  0  0  0
   58.8610   34.8430   45.6740 C   0  0  0  0  0  0  0  0  0  0  0  0
   59.2980   34.2510   44.4880 C   0  0  0  0  0  0  0  0  0  0  0  0
   58.6880   33.1270   44.0240 N   0  0  0  0  0  0  0  0  0  0  0  0
   58.0560   28.5390   46.4330 C   0  0  0  0  0  0  0  0  0  0  0  0
   57.0240   27.6300   46.1260 C   0  0  0  0  0  0  0  0  0  0  0  0
   56.0240   23.4748   45.5338 H   0  0  0  0  0  0  0  0  0  0  0  0
   55.1450   24.7348   44.6029 H   0  0  0  0  0  0  0  0  0  0  0  0
   56.9410   24.7073   44.6029 H   0  0  0  0  0  0  0  0  0  0  0  0
   58.1596   24.8902   47.8292 H   0  0  0  0  0  0  0  0  0  0  0  0
   59.9876   26.4824   48.3876 H   0  0  0  0  0  0  0  0  0  0  0  0
   60.9020   28.6740   48.1970 H   0  0  0  0  0  0  0  0  0  0  0  0
   62.0397   29.9087   49.0288 H   0  0  0  0  0  0  0  0  0  0  0  0
   63.8940   31.4636   49.6328 H   0  0  0  0  0  0  0  0  0  0  0  0
   64.1547   33.6313   48.4225 H   0  0  0  0  0  0  0  0  0  0  0  0
   62.5574   34.2468   46.6060 H   0  0  0  0  0  0  0  0  0  0  0  0
   60.7014   32.6987   45.9922 H   0  0  0  0  0  0  0  0  0  0  0  0
   59.1040   31.7511   45.8905 H   0  0  0  0  0  0  0  0  0  0  0  0
   57.6199   30.9331   43.2931 H   0  0  0  0  0  0  0  0  0  0  0  0
   55.9974   31.5317   43.8138 H   0  0  0  0  0  0  0  0  0  0  0  0
   56.3382   32.6628   46.4198 H   0  0  0  0  0  0  0  0  0  0  0  0
   57.4397   34.7294   47.3072 H   0  0  0  0  0  0  0  0  0  0  0  0
   59.3517   35.7507   46.0552 H   0  0  0  0  0  0  0  0  0  0  0  0
   60.1355   34.6932   43.9285 H   0  0  0  0  0  0  0  0  0  0  0  0
   56.1858   27.9501   45.4896 H   0  0  0  0  0  0  0  0  0  0  0  0
  1  2  1  0
  2  3  1  0
  3  4  2  0
  4  5  1  0
  5  6  2  0
  6  7  1  0
  7  8  2  0
  8  9  1  0
  9 10  2  0
 10 11  1  0
 11 12  2  0
 12 13  1  0
 13 14  2  0
  8 15  1  0
 15 16  2  0
 16 17  1  0
 17 18  1  0
 18 19  1  0
 19 20  2  0
 20 21  1  0
 21 22  2  0
 22 23  1  0
 23 24  2  0
 16 25  1  0
 25 26  2  0
 26  3  1  0
 25  6  1  0
 14  9  1  0
 24 19  1  0
  1 27  1  0
  1 28  1  0
  1 29  1  0
  4 30  1  0
  5 31  1  0
  7 32  1  0
 10 33  1  0
 11 34  1  0
 12 35  1  0
 13 36  1  0
 14 37  1  0
 15 38  1  0
 18 39  1  0
 18 40  1  0
 20 41  1  0
 21 42  1  0
 22 43  1  0
 23 44  1  0
 26 45  1  0
M  CHG  1   7   1
M  END
>  <UniqueID>  (29) 
27

>  <SMILES>  (29) 
COc1ccc2[nH+]c(-c3ccccc3)cc(OCc3ccccn3)c2c1

>  <Energy>  (29) 
57.504094435884646

>  <Genealogy>  (29) 
COc1ccc2[nH+]c(-c3ccccc3)cc(OCc3ccccn3)c2c1 (protonated)
COc1ccc2[nH+]c(-c3ccccc3)cc(OCc3ccccn3)c2c1 (3D coordinates assigned)
COc1ccc2[nH+]c(-c3ccccc3)cc(OCc3ccccn3)c2c1 (optimized conformer: 57.504094435884646 kcal/mol)

>  <smiles>  (29) 
COc1ccc2nc(-c3ccccc3)cc(OCc3ccccn3)c2c1

>  <score_type>  (29) 
oracle

>  <origin>  (29) 
adg

>  <m_score__min__energy>  (29) 
-6.5300000000000002

>  <m_primary>  (29) 
energy

$$$$
29:0
     RDKit          3D

 52 55  0  0  0  0  0  0  0  0999 V2000
   56.0450   30.3980   43.9370 C   0  0  0  0  0  0  0  0  0  0  0  0
   56.2540   31.5800   44.7030 O   0  0  0  0  0  0  0  0  0  0  0  0
   57.4910   31.9730   45.2340 C   0  0  0  0  0  0  0  0  0  0  0  0
   58.0430   33.2420   44.9920 C   0  0  0  0  0  0  0  0  0  0  0  0
   59.2760   33.5910   45.5390 C   0  0  0  0  0  0  0  0  0  0  0  0
   59.9810   32.6800   46.3390 C   0  0  0  0  0  0  0  0  0  0  0  0
   61.2200   33.0460   46.8810 C   0  0  0  0  0  0  0  0  0  0  0  0
   61.9300   32.1510   47.6780 C   0  0  0  0  0  0  0  0  0  0  0  0
   61.4130   30.8850   47.9440 C   0  0  0  0  0  0  0  0  0  0  0  0
   60.1720   30.4840   47.4180 C   0  0  0  0  0  0  0  0  0  0  0  0
   59.6560   29.1000   47.7770 C   0  0  0  0  0  0  0  0  0  0  0  0
   59.8490   28.1260   46.6730 N   0  0  2  0  0  0  0  0  0  0  0  0
   58.7940   28.2780   45.6300 C   0  0  0  0  0  0  0  0  0  0  0  0
   58.5530   26.9690   44.8650 C   0  0  0  0  0  0  0  0  0  0  0  0
   57.9550   25.8780   45.8080 C   0  0  1  0  0  0  0  0  0  0  0  0
   56.5030   26.1370   45.9260 C   0  0  0  0  0  0  0  0  0  0  0  0
   55.3680   26.3400   46.0180 N   0  0  0  0  0  0  0  0  0  0  0  0
   58.1040   24.4470   45.2520 C   0  0  0  0  0  0  0  0  0  0  0  0
   57.1760   23.9740   44.2920 C   0  0  0  0  0  0  0  0  0  0  0  0
   57.2930   22.6960   43.7420 C   0  0  0  0  0  0  0  0  0  0  0  0
   58.3520   21.8680   44.1130 C   0  0  0  0  0  0  0  0  0  0  0  0
   59.3060   22.3250   45.0200 C   0  0  0  0  0  0  0  0  0  0  0  0
   59.1970   23.6040   45.5750 C   0  0  0  0  0  0  0  0  0  0  0  0
   58.6040   26.0070   47.2330 C   0  0  0  0  0  0  0  0  0  0  0  0
   59.9580   26.7360   47.2010 C   0  0  0  0  0  0  0  0  0  0  0  0
   59.4400   31.3930   46.6000 C   0  0  0  0  0  0  0  0  0  0  0  0
   58.1900   31.0600   46.0320 C   0  0  0  0  0  0  0  0  0  0  0  0
   55.8940   29.5443   44.6140 H   0  0  0  0  0  0  0  0  0  0  0  0
   55.1553   30.5247   43.3026 H   0  0  0  0  0  0  0  0  0  0  0  0
   56.9242   30.2119   43.3026 H   0  0  0  0  0  0  0  0  0  0  0  0
   57.4983   33.9647   44.3667 H   0  0  0  0  0  0  0  0  0  0  0  0
   59.6991   34.5871   45.3422 H   0  0  0  0  0  0  0  0  0  0  0  0
   61.6339   34.0444   46.6763 H   0  0  0  0  0  0  0  0  0  0  0  0
   62.9028   32.4450   48.0990 H   0  0  0  0  0  0  0  0  0  0  0  0
   61.9843   30.1884   48.5752 H   0  0  0  0  0  0  0  0  0  0  0  0
   60.1957   28.7401   48.6654 H   0  0  0  0  0  0  0  0  0  0  0  0
   58.5762   29.1817   47.9705 H   0  0  0  0  0  0  0  0  0  0  0  0
   60.7670   28.3380   46.2150 H   0  0  0  0  0  0  0  0  0  0  0  0
   57.8556   28.5843   46.1153 H   0  0  0  0  0  0  0  0  0  0  0  0
   59.1336   29.0366   44.9094 H   0  0  0  0  0  0  0  0  0  0  0  0
   57.8500   27.1575   44.0402 H   0  0  0  0  0  0  0  0  0  0  0  0
   59.5151   26.6074   44.4730 H   0  0  0  0  0  0  0  0  0  0  0  0
   56.3484   24.6252   43.9741 H   0  0  0  0  0  0  0  0  0  0  0  0
   56.5481   22.3415   43.0144 H   0  0  0  0  0  0  0  0  0  0  0  0
   58.4341   20.8558   43.6903 H   0  0  0  0  0  0  0  0  0  0  0  0
   60.1490   21.6766   45.3008 H   0  0  0  0  0  0  0  0  0  0  0  0
   59.9699   23.9608   46.2717 H   0  0  0  0  0  0  0  0  0  0  0  0
   57.9170   26.5677   47.8838 H   0  0  0  0  0  0  0  0  0  0  0  0
   58.7815   24.9898   47.6122 H   0  0  0  0  0  0  0  0  0  0  0  0
   60.3595   26.7784   48.2242 H   0  0  0  0  0  0  0  0  0  0  0  0
   60.6223   26.1750   46.5272 H   0  0  0  0  0  0  0  0  0  0  0  0
   57.7586   30.0658   46.2202 H   0  0  0  0  0  0  0  0  0  0  0  0
  1  2  1  0
  2  3  1  0
  3  4  2  0
  4  5  1  0
  5  6  2  0
  6  7  1  0
  7  8  2  0
  8  9  1  0
  9 10  2  0
 10 11  1  0
 11 12  1  0
 12 13  1  0
 13 14  1  0
 14 15  1  0
 15 16  1  1
 16 17  3  0
 15 18  1  0
 18 19  2  0
 19 20  1  0
 20 21  2  0
 21 22  1  0
 22 23  2  0
 15 24  1  0
 24 25  1  0
 10 26  1  0
 26 27  2  0
 27  3  1  0
 26  6  1  0
 25 12  1  0
 23 18  1  0
  1 28  1  0
  1 29  1  0
  1 30  1  0
  4 31  1  0
  5 32  1  0
  7 33  1  0
  8 34  1  0
  9 35  1  0
 11 36  1  0
 11 37  1  0
 12 38  1  6
 13 39  1  0
 13 40  1  0
 14 41  1  0
 14 42  1  0
 19 43  1  0
 20 44  1  0
 21 45  1  0
 22 46  1  0
 23 47  1  0
 24 48  1  0
 24 49  1  0
 25 50  1  0
 25 51  1  0
 27 52  1  0
M  CHG  1  12   1
M  END
>  <UniqueID>  (30) 
28

>  <SMILES>  (30) 
COc1ccc2cccc(C[NH+]3CCC(C#N)(c4ccccc4)CC3)c2c1

>  <Energy>  (30) 
78.99867120317117

>  <Genealogy>  (30) 
COc1ccc2cccc(C[NH+]3CCC(C#N)(c4ccccc4)CC3)c2c1 (protonated)
COc1ccc2cccc(C[NH+]3CCC(C#N)(c4ccccc4)CC3)c2c1 (3D coordinates assigned)
COc1ccc2cccc(C[NH+]3CCC(C#N)(c4ccccc4)CC3)c2c1 (nonaromatic ring conformer: 78.99867120317117 kcal/mol)

>  <smiles>  (30) 
COc1ccc2cccc(CN3CCC(C#N)(c4ccccc4)CC3)c2c1

>  <score_type>  (30) 
oracle

>  <origin>  (30) 
adg

>  <m_score__min__energy>  (30) 
-7.2300000000000004

>  <m_primary>  (30) 
energy

$$$$
30:0
     RDKit          3D

 56 58  0  0  0  0  0  0  0  0999 V2000
   63.0831   35.4150   51.1064 H   0  0  0  0  0  0  0  0  0  0  0  0
   63.0000   34.5260   50.4640 C   0  0  0  0  0  0  0  0  0  0  0  0
   63.8280   33.4950   50.7210 C   0  0  0  0  0  0  0  0  0  0  0  0
   64.2239   33.4138   51.7441 H   0  0  0  0  0  0  0  0  0  0  0  0
   64.2630   32.4370   49.7270 C   0  0  0  0  0  0  0  0  0  0  0  0
   64.8707   31.6883   50.2564 H   0  0  0  0  0  0  0  0  0  0  0  0
   64.8328   32.9457   48.9355 H   0  0  0  0  0  0  0  0  0  0  0  0
   63.1200   31.7430   49.0740 N   0  0  0  0  0  0  0  0  0  0  0  0
   62.3470   30.8480   49.8040 C   0  0  0  0  0  0  0  0  0  0  0  0
   62.6920   30.4540   51.2270 C   0  0  0  0  0  0  0  0  0  0  0  0
   62.1343   31.0910   51.9293 H   0  0  0  0  0  0  0  0  0  0  0  0
   62.4203   29.4009   51.3920 H   0  0  0  0  0  0  0  0  0  0  0  0
   63.7717   30.5843   51.3920 H   0  0  0  0  0  0  0  0  0  0  0  0
   61.1620   30.3120   49.2530 C   0  0  0  0  0  0  0  0  0  0  0  0
   60.3260   29.5280   50.0690 O   0  0  0  0  0  0  0  0  0  0  0  0
   58.9390   29.7700   50.3140 C   0  0  0  0  0  0  0  0  0  0  0  0
   58.4315   29.9656   49.3579 H   0  0  0  0  0  0  0  0  0  0  0  0
   58.5044   28.8843   50.8005 H   0  0  0  0  0  0  0  0  0  0  0  0
   58.7620   30.9590   51.2210 C   0  0  0  0  0  0  0  0  0  0  0  0
   59.7770   31.3350   52.1150 C   0  0  0  0  0  0  0  0  0  0  0  0
   60.7159   30.7629   52.1501 H   0  0  0  0  0  0  0  0  0  0  0  0
   59.5990   32.4340   52.9610 C   0  0  0  0  0  0  0  0  0  0  0  0
   60.3975   32.7250   53.6594 H   0  0  0  0  0  0  0  0  0  0  0  0
   58.4090   33.1620   52.9200 C   0  0  0  0  0  0  0  0  0  0  0  0
   58.2720   34.0291   53.5829 H   0  0  0  0  0  0  0  0  0  0  0  0
   57.3910   32.7900   52.0370 C   0  0  0  0  0  0  0  0  0  0  0  0
   56.4524   33.3629   52.0075 H   0  0  0  0  0  0  0  0  0  0  0  0
   57.5650   31.6910   51.1920 C   0  0  0  0  0  0  0  0  0  0  0  0
   56.7605   31.3983   50.5012 H   0  0  0  0  0  0  0  0  0  0  0  0
   60.8670   30.5580   47.9060 C   0  0  0  0  0  0  0  0  0  0  0  0
   59.8610   30.0390   47.3520 O   0  0  0  0  0  0  0  0  0  0  0  0
   61.7200   31.3410   47.1480 C   0  0  0  0  0  0  0  0  0  0  0  0
   61.5114   31.4963   46.0792 H   0  0  0  0  0  0  0  0  0  0  0  0
   62.8470   31.9380   47.7290 C   0  0  0  0  0  0  0  0  0  0  0  0
   63.7630   32.7070   46.7870 C   0  0  0  0  0  0  0  0  0  0  0  0
   63.9321   32.1065   45.8810 H   0  0  0  0  0  0  0  0  0  0  0  0
   64.7133   32.9012   47.3059 H   0  0  0  0  0  0  0  0  0  0  0  0
   63.1470   34.0440   46.3900 C   0  0  0  0  0  0  0  0  0  0  0  0
   62.8859   34.6108   47.2958 H   0  0  0  0  0  0  0  0  0  0  0  0
   63.8711   34.6187   45.7939 H   0  0  0  0  0  0  0  0  0  0  0  0
   62.2396   33.8671   45.7939 H   0  0  0  0  0  0  0  0  0  0  0  0
   61.9730   34.5570   49.3700 C   0  0  0  0  0  0  0  0  0  0  0  0
   61.8027   35.5972   49.0555 H   0  0  0  0  0  0  0  0  0  0  0  0
   62.3318   33.9702   48.5116 H   0  0  0  0  0  0  0  0  0  0  0  0
   60.4140   33.8450   49.9860 S   0  0  0  0  0  0  0  0  0  0  0  0
   59.6030   33.8570   48.3890 C   0  0  0  0  0  0  0  0  0  0  0  0
   58.5660   32.9560   48.1290 C   0  0  0  0  0  0  0  0  0  0  0  0
   58.2322   32.2613   48.9138 H   0  0  0  0  0  0  0  0  0  0  0  0
   57.9520   32.9370   46.8710 C   0  0  0  0  0  0  0  0  0  0  0  0
   57.1364   32.2276   46.6673 H   0  0  0  0  0  0  0  0  0  0  0  0
   58.3760   33.8200   45.8740 C   0  0  0  0  0  0  0  0  0  0  0  0
   57.8970   33.8018   44.8839 H   0  0  0  0  0  0  0  0  0  0  0  0
   59.4090   34.7270   46.1340 C   0  0  0  0  0  0  0  0  0  0  0  0
   59.7347   35.4293   45.3525 H   0  0  0  0  0  0  0  0  0  0  0  0
   60.0270   34.7400   47.3880 C   0  0  0  0  0  0  0  0  0  0  0  0
   60.8474   35.4447   47.5887 H   0  0  0  0  0  0  0  0  0  0  0  0
  1  2  1  0
  2  3  2  0
  3  4  1  0
  3  5  1  0
  5  6  1  0
  5  7  1  0
  5  8  1  0
  8  9  1  0
  9 10  1  0
 10 11  1  0
 10 12  1  0
 10 13  1  0
  9 14  2  0
 14 15  1  0
 15 16  1  0
 16 17  1  0
 16 18  1  0
 16 19  1  0
 19 20  2  0
 20 21  1  0
 20 22  1  0
 22 23  1  0
 22 24  2  0
 24 25  1  0
 24 26  1  0
 26 27  1  0
 26 28  2  0
 28 29  1  0
 14 30  1  0
 30 31  2  0
 30 32  1  0
 32 33  1  0
 32 34  2  0
 34 35  1  0
 35 36  1  0
 35 37  1  0
 35 38  1  0
 38 39  1  0
 38 40  1  0
 38 41  1  0
  2 42  1  0
 42 43  1  0
 42 44  1  0
 42 45  1  0
 45 46  1  0
 46 47  2  0
 47 48  1  0
 47 49  1  0
 49 50  1  0
 49 51  2  0
 51 52  1  0
 51 53  1  0
 53 54  1  0
 53 55  2  0
 55 56  1  0
 34  8  1  0
 55 46  1  0
 28 19  1  0
M  END
>  <UniqueID>  (31) 
29

>  <SMILES>  (31) 
CCc1cc(=O)c(OCc2ccccc2)c(C)n1C/C=C\CSc1ccccc1

>  <Energy>  (31) 
59.122671679018254

>  <Genealogy>  (31) 
CCc1cc(=O)c(OCc2ccccc2)c(C)n1C/C=C\CSc1ccccc1 (cis-trans isomerization)
CCc1cc(=O)c(OCc2ccccc2)c(C)n1C/C=C\CSc1ccccc1 (3D coordinates assigned)
CCc1cc(=O)c(OCc2ccccc2)c(C)n1C/C=C\CSc1ccccc1 (optimized conformer: 59.122671679018254 kcal/mol)

>  <smiles>  (31) 
CCc1cc(=O)c(OCc2ccccc2)c(C)n1CC=CCSc1ccccc1

>  <score_type>  (31) 
oracle

>  <origin>  (31) 
adg

>  <m_score__min__energy>  (31) 
-8.4700000000000006

>  <m_primary>  (31) 
energy

$$$$
31:0
     RDKit          3D

 56 58  0  0  0  0  0  0  0  0999 V2000
   62.9600   33.8410   46.4280 C   0  0  0  0  0  0  0  0  0  0  0  0
   63.7340   32.6660   47.0160 C   0  0  0  0  0  0  0  0  0  0  0  0
   63.8820   32.8100   48.5370 C   0  0  0  0  0  0  0  0  0  0  0  0
   62.7850   32.0540   49.3080 C   0  0  0  0  0  0  0  0  0  0  0  0
   61.4280   32.5280   48.9490 N   0  0  0  0  0  0  0  0  0  0  0  0
   61.1900   33.9010   49.4500 C   0  0  0  0  0  0  0  0  0  0  0  0
   59.6940   34.1350   49.6450 C   0  0  0  0  0  0  0  0  0  0  0  0
   60.3810   31.5940   49.4230 C   0  0  0  0  0  0  0  0  0  0  0  0
   60.3690   30.3210   48.5530 C   0  0  0  0  0  0  0  0  0  0  0  0
   60.8600   30.5610   47.1810 N   0  0  0  0  0  0  0  0  0  0  0  0
   59.7670   30.5770   46.2100 C   0  0  0  0  0  0  0  0  0  0  0  0
   59.2800   29.3790   45.6020 C   0  0  0  0  0  0  0  0  0  0  0  0
   59.7610   28.0900   45.9590 C   0  0  0  0  0  0  0  0  0  0  0  0
   59.2310   26.9350   45.3900 C   0  0  0  0  0  0  0  0  0  0  0  0
   58.2000   27.0200   44.4710 C   0  0  0  0  0  0  0  0  0  0  0  0
   57.7120   28.2640   44.0880 C   0  0  0  0  0  0  0  0  0  0  0  0
   58.2630   29.4660   44.6050 C   0  0  0  0  0  0  0  0  0  0  0  0
   57.8150   30.6940   44.1650 N   0  0  0  0  0  0  0  0  0  0  0  0
   57.0110   30.7930   42.9240 C   0  0  0  0  0  0  0  0  0  0  0  0
   58.1290   31.8370   44.8690 C   0  0  0  0  0  0  0  0  0  0  0  0
   57.4480   33.0590   44.6220 C   0  0  0  0  0  0  0  0  0  0  0  0
   57.8040   34.2300   45.2820 C   0  0  0  0  0  0  0  0  0  0  0  0
   58.8330   34.2180   46.2100 C   0  0  0  0  0  0  0  0  0  0  0  0
   59.4900   33.0280   46.5090 C   0  0  0  0  0  0  0  0  0  0  0  0
   59.1380   31.8110   45.8700 C   0  0  0  0  0  0  0  0  0  0  0  0
   62.5539   34.4575   47.2435 H   0  0  0  0  0  0  0  0  0  0  0  0
   63.6339   34.4506   45.8082 H   0  0  0  0  0  0  0  0  0  0  0  0
   62.1338   33.4625   45.8082 H   0  0  0  0  0  0  0  0  0  0  0  0
   63.1951   31.7331   46.7938 H   0  0  0  0  0  0  0  0  0  0  0  0
   64.7379   32.6479   46.5666 H   0  0  0  0  0  0  0  0  0  0  0  0
   64.8626   32.4109   48.8358 H   0  0  0  0  0  0  0  0  0  0  0  0
   63.7892   33.8781   48.7831 H   0  0  0  0  0  0  0  0  0  0  0  0
   62.8604   30.9820   49.0734 H   0  0  0  0  0  0  0  0  0  0  0  0
   62.9362   32.2376   50.3820 H   0  0  0  0  0  0  0  0  0  0  0  0
   61.7074   34.0324   50.4118 H   0  0  0  0  0  0  0  0  0  0  0  0
   61.5755   34.6244   48.7164 H   0  0  0  0  0  0  0  0  0  0  0  0
   59.4656   34.1707   50.7204 H   0  0  0  0  0  0  0  0  0  0  0  0
   59.4081   35.0888   49.1775 H   0  0  0  0  0  0  0  0  0  0  0  0
   59.1305   33.3141   49.1775 H   0  0  0  0  0  0  0  0  0  0  0  0
   60.5863   31.3180   50.4678 H   0  0  0  0  0  0  0  0  0  0  0  0
   59.4005   32.0874   49.3504 H   0  0  0  0  0  0  0  0  0  0  0  0
   61.0103   29.5643   49.0285 H   0  0  0  0  0  0  0  0  0  0  0  0
   59.3254   29.9817   48.4767 H   0  0  0  0  0  0  0  0  0  0  0  0
   61.4600   31.4090   47.1690 H   0  0  0  0  0  0  0  0  0  0  0  0
   61.5420   29.8140   46.9200 H   0  0  0  0  0  0  0  0  0  0  0  0
   60.5690   28.0031   46.7004 H   0  0  0  0  0  0  0  0  0  0  0  0
   59.6335   25.9509   45.6722 H   0  0  0  0  0  0  0  0  0  0  0  0
   57.7668   26.1036   44.0437 H   0  0  0  0  0  0  0  0  0  0  0  0
   56.8812   28.3183   43.3691 H   0  0  0  0  0  0  0  0  0  0  0  0
   55.9501   30.9236   43.1838 H   0  0  0  0  0  0  0  0  0  0  0  0
   57.3528   31.6558   42.3335 H   0  0  0  0  0  0  0  0  0  0  0  0
   57.1333   29.8730   42.3335 H   0  0  0  0  0  0  0  0  0  0  0  0
   56.6231   33.0793   43.8946 H   0  0  0  0  0  0  0  0  0  0  0  0
   57.2684   35.1665   45.0673 H   0  0  0  0  0  0  0  0  0  0  0  0
   59.1311   35.1507   46.7113 H   0  0  0  0  0  0  0  0  0  0  0  0
   60.2980   33.0310   47.2554 H   0  0  0  0  0  0  0  0  0  0  0  0
  1  2  1  0
  2  3  1  0
  3  4  1  0
  4  5  1  0
  5  6  1  0
  6  7  1  0
  5  8  1  0
  8  9  1  0
  9 10  1  0
 10 11  1  0
 11 12  2  0
 12 13  1  0
 13 14  2  0
 14 15  1  0
 15 16  2  0
 16 17  1  0
 17 18  2  0
 18 19  1  0
 18 20  1  0
 20 21  2  0
 21 22  1  0
 22 23  2  0
 23 24  1  0
 24 25  2  0
 25 11  1  0
 17 12  1  0
 25 20  1  0
  1 26  1  0
  1 27  1  0
  1 28  1  0
  2 29  1  0
  2 30  1  0
  3 31  1  0
  3 32  1  0
  4 33  1  0
  4 34  1  0
  6 35  1  0
  6 36  1  0
  7 37  1  0
  7 38  1  0
  7 39  1  0
  8 40  1  0
  8 41  1  0
  9 42  1  0
  9 43  1  0
 10 44  1  0
 10 45  1  0
 13 46  1  0
 14 47  1  0
 15 48  1  0
 16 49  1  0
 19 50  1  0
 19 51  1  0
 19 52  1  0
 21 53  1  0
 22 54  1  0
 23 55  1  0
 24 56  1  0
M  CHG  2  10   1  18   1
M  END
>  <UniqueID>  (32) 
30

>  <SMILES>  (32) 
CCCCN(CC)CC[NH2+]c1c2ccccc2[n+](C)c2ccccc12

>  <Energy>  (32) 
80.07057400437729

>  <Genealogy>  (32) 
CCCCN(CC)CC[NH2+]c1c2ccccc2[n+](C)c2ccccc12 (protonated)
CCCCN(CC)CC[NH2+]c1c2ccccc2[n+](C)c2ccccc12 (3D coordinates assigned)
CCCCN(CC)CC[NH2+]c1c2ccccc2[n+](C)c2ccccc12 (optimized conformer: 80.07057400437729 kcal/mol)

>  <smiles>  (32) 
CCCCN(CC)CCNc1c2ccccc2[n+](C)c2ccccc12

>  <score_type>  (32) 
oracle

>  <origin>  (32) 
adg

>  <m_score__min__energy>  (32) 
-4.1299999999999999

>  <m_primary>  (32) 
energy

$$$$
32:0
     RDKit          3D

 90 93  0  0  0  0  0  0  0  0999 V2000
   57.4740   31.6100   42.5990 C   0  0  0  0  0  0  0  0  0  0  0  0
   56.6350   30.6130   43.3920 C   0  0  0  0  0  0  0  0  0  0  0  0
   56.8680   30.8130   44.8500 N   0  0  0  0  0  0  0  0  0  0  0  0
   57.7880   31.9470   45.1040 C   0  0  0  0  0  0  0  0  0  0  0  0
   57.0110   33.1770   45.5740 C   0  0  0  0  0  0  0  0  0  0  0  0
   57.3720   29.5820   45.5010 C   0  0  0  0  0  0  0  0  0  0  0  0
   57.7490   28.5130   44.4560 C   0  0  0  0  0  0  0  0  0  0  0  0
   57.4210   27.0940   44.9430 C   0  0  0  0  0  0  0  0  0  0  0  0
   57.9680   26.8690   46.3010 N   0  0  0  0  0  0  0  0  0  0  0  0
   57.4230   25.6330   46.9060 C   0  0  0  0  0  0  0  0  0  0  0  0
   57.0370   24.6660   45.8190 C   0  0  0  0  0  0  0  0  0  0  0  0
   55.6940   24.5650   45.4190 C   0  0  0  0  0  0  0  0  0  0  0  0
   55.3350   23.7130   44.3700 C   0  0  0  0  0  0  0  0  0  0  0  0
   56.3110   22.9540   43.7180 C   0  0  0  0  0  0  0  0  0  0  0  0
   55.9620   22.1340   42.6960 F   0  0  0  0  0  0  0  0  0  0  0  0
   57.6460   23.0430   44.1180 C   0  0  0  0  0  0  0  0  0  0  0  0
   58.0130   23.8960   45.1630 C   0  0  0  0  0  0  0  0  0  0  0  0
   59.4460   26.8610   46.2930 C   0  0  0  0  0  0  0  0  0  0  0  0
   59.9780   27.9180   47.2250 C   0  0  0  0  0  0  0  0  0  0  0  0
   60.3260   29.1870   46.7380 C   0  0  0  0  0  0  0  0  0  0  0  0
   60.8830   30.1410   47.5940 C   0  0  0  0  0  0  0  0  0  0  0  0
   61.0940   29.8390   48.9500 C   0  0  0  0  0  0  0  0  0  0  0  0
   61.7310   30.8380   49.8350 C   0  0  0  0  0  0  0  0  0  0  0  0
   63.0130   31.3030   49.4990 C   0  0  0  0  0  0  0  0  0  0  0  0
   63.6520   32.2640   50.2860 C   0  0  0  0  0  0  0  0  0  0  0  0
   63.0130   32.7790   51.4130 C   0  0  0  0  0  0  0  0  0  0  0  0
   61.7320   32.3370   51.7580 C   0  0  0  0  0  0  0  0  0  0  0  0
   61.0760   31.3620   50.9800 C   0  0  0  0  0  0  0  0  0  0  0  0
   59.6720   30.9440   51.3660 C   0  0  0  0  0  0  0  0  0  0  0  0
   58.7500   31.0550   50.2280 N   0  0  0  0  0  0  0  0  0  0  0  0
   58.4410   32.4600   49.9280 C   0  0  0  0  0  0  0  0  0  0  0  0
   58.8680   32.7930   48.4920 C   0  0  0  0  0  0  0  0  0  0  0  0
   59.5390   34.1850   48.3540 C   0  0  0  0  0  0  0  0  0  0  0  0
   60.9500   34.1910   49.0120 C   0  0  0  0  0  0  0  0  0  0  0  0
   62.1180   34.1950   48.0040 C   0  0  0  0  0  0  0  0  0  0  0  0
   61.8050   33.3400   46.7710 C   0  0  0  0  0  0  0  0  0  0  0  0
   60.5490   33.8310   46.0190 C   0  0  0  0  0  0  0  0  0  0  0  0
   59.6090   34.6840   46.8910 C   0  0  0  0  0  0  0  0  0  0  0  0
   60.7400   28.5740   49.4380 C   0  0  0  0  0  0  0  0  0  0  0  0
   60.1730   27.6250   48.5850 C   0  0  0  0  0  0  0  0  0  0  0  0
   58.0228   32.2622   43.2943 H   0  0  0  0  0  0  0  0  0  0  0  0
   58.1893   31.0651   41.9654 H   0  0  0  0  0  0  0  0  0  0  0  0
   56.8149   32.2217   41.9654 H   0  0  0  0  0  0  0  0  0  0  0  0
   55.5698   30.7697   43.1665 H   0  0  0  0  0  0  0  0  0  0  0  0
   56.9234   29.5889   43.1128 H   0  0  0  0  0  0  0  0  0  0  0  0
   58.5116   31.6583   45.8806 H   0  0  0  0  0  0  0  0  0  0  0  0
   58.3113   32.1948   44.1687 H   0  0  0  0  0  0  0  0  0  0  0  0
   56.9949   33.2024   46.6736 H   0  0  0  0  0  0  0  0  0  0  0  0
   57.4989   34.0864   45.1933 H   0  0  0  0  0  0  0  0  0  0  0  0
   55.9802   33.1271   45.1933 H   0  0  0  0  0  0  0  0  0  0  0  0
   58.2622   29.8303   46.0975 H   0  0  0  0  0  0  0  0  0  0  0  0
   56.5759   29.1764   46.1427 H   0  0  0  0  0  0  0  0  0  0  0  0
   57.1896   28.7089   43.5293 H   0  0  0  0  0  0  0  0  0  0  0  0
   58.8340   28.5719   44.2848 H   0  0  0  0  0  0  0  0  0  0  0  0
   56.3290   26.9635   44.9670 H   0  0  0  0  0  0  0  0  0  0  0  0
   57.8761   26.3683   44.2528 H   0  0  0  0  0  0  0  0  0  0  0  0
   58.1868   25.1734   47.5505 H   0  0  0  0  0  0  0  0  0  0  0  0
   56.5352   25.8810   47.5062 H   0  0  0  0  0  0  0  0  0  0  0  0
   54.9227   25.1579   45.9325 H   0  0  0  0  0  0  0  0  0  0  0  0
   54.2829   23.6399   44.0574 H   0  0  0  0  0  0  0  0  0  0  0  0
   58.4118   22.4395   43.6088 H   0  0  0  0  0  0  0  0  0  0  0  0
   59.0664   23.9647   45.4722 H   0  0  0  0  0  0  0  0  0  0  0  0
   59.8056   25.8742   46.6200 H   0  0  0  0  0  0  0  0  0  0  0  0
   59.8001   27.0713   45.2730 H   0  0  0  0  0  0  0  0  0  0  0  0
   60.1598   29.4319   45.6786 H   0  0  0  0  0  0  0  0  0  0  0  0
   61.1574   31.1325   47.2046 H   0  0  0  0  0  0  0  0  0  0  0  0
   63.5192   30.9062   48.6066 H   0  0  0  0  0  0  0  0  0  0  0  0
   64.6593   32.6144   50.0166 H   0  0  0  0  0  0  0  0  0  0  0  0
   63.5178   33.5350   52.0324 H   0  0  0  0  0  0  0  0  0  0  0  0
   61.2319   32.7540   52.6445 H   0  0  0  0  0  0  0  0  0  0  0  0
   59.6912   29.8997   51.7110 H   0  0  0  0  0  0  0  0  0  0  0  0
   59.3185   31.6117   52.1655 H   0  0  0  0  0  0  0  0  0  0  0  0
   57.8570   30.5800   50.5050 H   0  0  0  0  0  0  0  0  0  0  0  0
   57.3589   32.6264   50.0347 H   0  0  0  0  0  0  0  0  0  0  0  0
   58.9876   33.1088   50.6283 H   0  0  0  0  0  0  0  0  0  0  0  0
   59.5818   32.0272   48.1544 H   0  0  0  0  0  0  0  0  0  0  0  0
   57.9551   32.8111   47.8785 H   0  0  0  0  0  0  0  0  0  0  0  0
   58.8940   34.8944   48.8932 H   0  0  0  0  0  0  0  0  0  0  0  0
   61.0337   35.0899   49.6405 H   0  0  0  0  0  0  0  0  0  0  0  0
   61.0336   33.2582   49.5889 H   0  0  0  0  0  0  0  0  0  0  0  0
   62.3074   35.2296   47.6818 H   0  0  0  0  0  0  0  0  0  0  0  0
   63.0019   33.7692   48.5014 H   0  0  0  0  0  0  0  0  0  0  0  0
   62.6649   33.3792   46.0861 H   0  0  0  0  0  0  0  0  0  0  0  0
   61.6107   32.3133   47.1148 H   0  0  0  0  0  0  0  0  0  0  0  0
   60.8717   34.4362   45.1590 H   0  0  0  0  0  0  0  0  0  0  0  0
   59.9852   32.9382   45.7107 H   0  0  0  0  0  0  0  0  0  0  0  0
   59.9727   35.7221   46.8898 H   0  0  0  0  0  0  0  0  0  0  0  0
   58.5980   34.6080   46.4642 H   0  0  0  0  0  0  0  0  0  0  0  0
   60.9094   28.3278   50.4966 H   0  0  0  0  0  0  0  0  0  0  0  0
   59.8772   26.6420   48.9803 H   0  0  0  0  0  0  0  0  0  0  0  0
  1  2  1  0
  2  3  1  0
  3  4  1  0
  4  5  1  0
  3  6  1  0
  6  7  1  0
  7  8  1  0
  8  9  1  0
  9 10  1  0
 10 11  1  0
 11 12  2  0
 12 13  1  0
 13 14  2  0
 14 15  1  0
 14 16  1  0
 16 17  2  0
  9 18  1  0
 18 19  1  0
 19 20  2  0
 20 21  1  0
 21 22  2  0
 22 23  1  0
 23 24  2  0
 24 25  1  0
 25 26  2  0
 26 27  1  0
 27 28  2  0
 28 29  1  0
 29 30  1  0
 30 31  1  0
 31 32  1  0
 32 33  1  0
 33 34  1  0
 34 35  1  0
 35 36  1  0
 36 37  1  0
 37 38  1  0
 22 39  1  0
 39 40  2  0
 17 11  1  0
 40 19  1  0
 28 23  1  0
 38 33  1  0
  1 41  1  0
  1 42  1  0
  1 43  1  0
  2 44  1  0
  2 45  1  0
  4 46  1  0
  4 47  1  0
  5 48  1  0
  5 49  1  0
  5 50  1  0
  6 51  1  0
  6 52  1  0
  7 53  1  0
  7 54  1  0
  8 55  1  0
  8 56  1  0
 10 57  1  0
 10 58  1  0
 12 59  1  0
 13 60  1  0
 16 61  1  0
 17 62  1  0
 18 63  1  0
 18 64  1  0
 20 65  1  0
 21 66  1  0
 24 67  1  0
 25 68  1  0
 26 69  1  0
 27 70  1  0
 29 71  1  0
 29 72  1  0
 30 73  1  0
 31 74  1  0
 31 75  1  0
 32 76  1  0
 32 77  1  0
 33 78  1  0
 34 79  1  0
 34 80  1  0
 35 81  1  0
 35 82  1  0
 36 83  1  0
 36 84  1  0
 37 85  1  0
 37 86  1  0
 38 87  1  0
 38 88  1  0
 39 89  1  0
 40 90  1  0
M  END
>  <UniqueID>  (33) 
31

>  <SMILES>  (33) 
CCN(CC)CCCN(Cc1ccc(F)cc1)Cc1ccc(-c2ccccc2CNCCC2CCCCC2)cc1

>  <Energy>  (33) 
94.46314451376071

>  <Genealogy>  (33) 
CCN(CC)CCCN(Cc1ccc(F)cc1)Cc1ccc(-c2ccccc2CNCCC2CCCCC2)cc1 (3D coordinates assigned)
CCN(CC)CCCN(Cc1ccc(F)cc1)Cc1ccc(-c2ccccc2CNCCC2CCCCC2)cc1 (nonaromatic ring conformer: 94.46314451376071 kcal/mol)

>  <smiles>  (33) 
CCN(CC)CCCN(Cc1ccc(F)cc1)Cc1ccc(-c2ccccc2CNCCC2CCCCC2)cc1

>  <score_type>  (33) 
oracle

>  <origin>  (33) 
adg

>  <m_score__min__energy>  (33) 
-9.9100000000000001

>  <m_primary>  (33) 
energy

$$$$
33:0
     RDKit          3D

 52 55  0  0  0  0  0  0  0  0999 V2000
   56.6190   26.5660   46.0330 C   0  0  0  0  0  0  0  0  0  0  0  0
   55.9040   27.7230   45.6110 O   0  0  0  0  0  0  0  0  0  0  0  0
   56.5020   28.8680   45.0670 C   0  0  0  0  0  0  0  0  0  0  0  0
   55.7470   29.6670   44.2020 C   0  0  0  0  0  0  0  0  0  0  0  0
   56.2830   30.8410   43.6690 C   0  0  0  0  0  0  0  0  0  0  0  0
   57.5860   31.2480   44.0080 C   0  0  0  0  0  0  0  0  0  0  0  0
   58.1240   32.5770   43.5110 C   0  0  0  0  0  0  0  0  0  0  0  0
   57.9890   33.6850   44.4880 N   0  0  0  0  0  0  0  0  0  0  0  0
   57.1300   33.3920   45.6570 C   0  0  0  0  0  0  0  0  0  0  0  0
   57.9580   32.9770   46.8840 C   0  0  0  0  0  0  0  0  0  0  0  0
   58.9900   33.9790   47.2680 N   0  0  0  0  0  0  0  0  0  0  0  0
   60.2490   33.3390   47.7140 C   0  0  0  0  0  0  0  0  0  0  0  0
   60.0690   31.8600   47.9560 C   0  0  0  0  0  0  0  0  0  0  0  0
   59.3800   31.4070   49.0940 C   0  0  0  0  0  0  0  0  0  0  0  0
   59.1890   30.0370   49.3050 C   0  0  0  0  0  0  0  0  0  0  0  0
   59.6860   29.1140   48.3810 C   0  0  0  0  0  0  0  0  0  0  0  0
   60.3500   29.5600   47.2310 C   0  0  0  0  0  0  0  0  0  0  0  0
   60.5570   30.9250   47.0270 C   0  0  0  0  0  0  0  0  0  0  0  0
   60.7970   28.6220   46.2960 O   0  0  0  0  0  0  0  0  0  0  0  0
   60.3560   27.2630   46.3460 C   0  0  0  0  0  0  0  0  0  0  0  0
   60.2580   26.7900   47.8020 C   0  0  0  0  0  0  0  0  0  0  0  0
   59.5290   27.7390   48.5840 O   0  0  0  0  0  0  0  0  0  0  0  0
   59.2540   34.9870   46.2150 C   0  0  0  0  0  0  0  0  0  0  0  0
   59.2680   34.3600   44.8120 C   0  0  0  0  0  0  0  0  0  0  0  0
   58.3660   30.4140   44.8250 C   0  0  0  0  0  0  0  0  0  0  0  0
   57.8280   29.2400   45.3610 C   0  0  0  0  0  0  0  0  0  0  0  0
   56.6415   26.5295   47.1322 H   0  0  0  0  0  0  0  0  0  0  0  0
   56.1199   25.6652   45.6464 H   0  0  0  0  0  0  0  0  0  0  0  0
   57.6479   26.6095   45.6464 H   0  0  0  0  0  0  0  0  0  0  0  0
   54.7216   29.3677   43.9393 H   0  0  0  0  0  0  0  0  0  0  0  0
   55.6821   31.4518   42.9792 H   0  0  0  0  0  0  0  0  0  0  0  0
   59.1911   32.4519   43.2749 H   0  0  0  0  0  0  0  0  0  0  0  0
   57.5255   32.8538   42.6306 H   0  0  0  0  0  0  0  0  0  0  0  0
   56.5496   34.2924   45.9070 H   0  0  0  0  0  0  0  0  0  0  0  0
   56.4669   32.5550   45.3929 H   0  0  0  0  0  0  0  0  0  0  0  0
   57.2746   32.8370   47.7345 H   0  0  0  0  0  0  0  0  0  0  0  0
   58.4882   32.0503   46.6193 H   0  0  0  0  0  0  0  0  0  0  0  0
   61.0159   33.4825   46.9385 H   0  0  0  0  0  0  0  0  0  0  0  0
   60.5540   33.8066   48.6618 H   0  0  0  0  0  0  0  0  0  0  0  0
   58.9890   32.1328   49.8223 H   0  0  0  0  0  0  0  0  0  0  0  0
   58.6485   29.6871   50.1968 H   0  0  0  0  0  0  0  0  0  0  0  0
   61.1035   31.2700   46.1369 H   0  0  0  0  0  0  0  0  0  0  0  0
   59.3668   27.1845   45.8713 H   0  0  0  0  0  0  0  0  0  0  0  0
   61.0807   26.6310   45.8118 H   0  0  0  0  0  0  0  0  0  0  0  0
   59.7410   25.8196   47.8343 H   0  0  0  0  0  0  0  0  0  0  0  0
   61.2727   26.6903   48.2149 H   0  0  0  0  0  0  0  0  0  0  0  0
   58.4679   35.7555   46.2532 H   0  0  0  0  0  0  0  0  0  0  0  0
   60.2457   35.4244   46.4028 H   0  0  0  0  0  0  0  0  0  0  0  0
   59.4476   35.1531   44.0713 H   0  0  0  0  0  0  0  0  0  0  0  0
   60.0652   33.6024   44.7885 H   0  0  0  0  0  0  0  0  0  0  0  0
   59.4087   30.6864   45.0452 H   0  0  0  0  0  0  0  0  0  0  0  0
   58.4430   28.6044   46.0150 H   0  0  0  0  0  0  0  0  0  0  0  0
  1  2  1  0
  2  3  1  0
  3  4  2  0
  4  5  1  0
  5  6  2  0
  6  7  1  0
  7  8  1  0
  8  9  1  0
  9 10  1  0
 10 11  1  0
 11 12  1  0
 12 13  1  0
 13 14  2  0
 14 15  1  0
 15 16  2  0
 16 17  1  0
 17 18  2  0
 17 19  1  0
 19 20  1  0
 20 21  1  0
 21 22  1  0
 11 23  1  0
 23 24  1  0
  6 25  1  0
 25 26  2  0
 26  3  1  0
 24  8  1  0
 18 13  1  0
 22 16  1  0
  1 27  1  0
  1 28  1  0
  1 29  1  0
  4 30  1  0
  5 31  1  0
  7 32  1  0
  7 33  1  0
  9 34  1  0
  9 35  1  0
 10 36  1  0
 10 37  1  0
 12 38  1  0
 12 39  1  0
 14 40  1  0
 15 41  1  0
 18 42  1  0
 20 43  1  0
 20 44  1  0
 21 45  1  0
 21 46  1  0
 23 47  1  0
 23 48  1  0
 24 49  1  0
 24 50  1  0
 25 51  1  0
 26 52  1  0
M  END
>  <UniqueID>  (34) 
32

>  <SMILES>  (34) 
COc1ccc(CN2CCN(Cc3ccc4c(c3)OCCO4)CC2)cc1

>  <Energy>  (34) 
69.04717908825533

>  <Genealogy>  (34) 
COc1ccc(CN2CCN(Cc3ccc4c(c3)OCCO4)CC2)cc1 (3D coordinates assigned)
COc1ccc(CN2CCN(Cc3ccc4c(c3)OCCO4)CC2)cc1 (nonaromatic ring conformer: 69.04717908825533 kcal/mol)

>  <smiles>  (34) 
COc1ccc(CN2CCN(Cc3ccc4c(c3)OCCO4)CC2)cc1

>  <score_type>  (34) 
oracle

>  <origin>  (34) 
adg

>  <m_score__min__energy>  (34) 
-8.4299999999999997

>  <m_primary>  (34) 
energy

$$$$
34:0
     RDKit          3D

 35 37  0  0  0  0  0  0  0  0999 V2000
   55.2400   29.7460   43.5180 C   0  0  0  0  0  0  0  0  0  0  0  0
   55.5400   29.4360   44.8760 O   0  0  0  0  0  0  0  0  0  0  0  0
   56.6640   28.7070   45.3010 C   0  0  0  0  0  0  0  0  0  0  0  0
   56.5800   27.3360   45.6150 C   0  0  0  0  0  0  0  0  0  0  0  0
   57.7200   26.6120   46.0070 C   0  0  0  0  0  0  0  0  0  0  0  0
   57.6230   25.1660   46.3310 C   0  0  0  0  0  0  0  0  0  0  0  0
   56.9960   24.7350   47.5130 C   0  0  0  0  0  0  0  0  0  0  0  0
   56.9170   23.3700   47.7960 C   0  0  0  0  0  0  0  0  0  0  0  0
   57.4450   22.4620   46.9350 N   0  0  0  0  0  0  0  0  0  0  0  0
   58.0580   22.8450   45.7840 C   0  0  0  0  0  0  0  0  0  0  0  0
   58.1580   24.2000   45.4600 C   0  0  0  0  0  0  0  0  0  0  0  0
   58.9530   27.2780   46.0860 C   0  0  0  0  0  0  0  0  0  0  0  0
   59.0460   28.6350   45.7840 C   0  0  0  0  0  0  0  0  0  0  0  0
   57.9090   29.3640   45.3990 C   0  0  0  0  0  0  0  0  0  0  0  0
   58.0390   30.8110   45.0970 C   0  0  0  0  0  0  0  0  0  0  0  0
   58.1590   31.7450   46.1410 C   0  0  0  0  0  0  0  0  0  0  0  0
   58.2730   33.1100   45.8580 C   0  0  0  0  0  0  0  0  0  0  0  0
   58.2630   33.5540   44.5340 C   0  0  0  0  0  0  0  0  0  0  0  0
   58.1350   32.6340   43.4890 C   0  0  0  0  0  0  0  0  0  0  0  0
   58.0220   31.2680   43.7680 C   0  0  0  0  0  0  0  0  0  0  0  0
   54.4754   30.5361   43.4825 H   0  0  0  0  0  0  0  0  0  0  0  0
   56.1519   30.0952   43.0115 H   0  0  0  0  0  0  0  0  0  0  0  0
   54.8611   28.8460   43.0115 H   0  0  0  0  0  0  0  0  0  0  0  0
   55.6082   26.8244   45.5526 H   0  0  0  0  0  0  0  0  0  0  0  0
   56.5695   25.4697   48.2118 H   0  0  0  0  0  0  0  0  0  0  0  0
   56.4256   23.0290   48.7192 H   0  0  0  0  0  0  0  0  0  0  0  0
   58.4762   22.0863   45.1062 H   0  0  0  0  0  0  0  0  0  0  0  0
   58.6529   24.5101   44.5279 H   0  0  0  0  0  0  0  0  0  0  0  0
   59.8536   26.7238   46.3889 H   0  0  0  0  0  0  0  0  0  0  0  0
   60.0207   29.1409   45.8478 H   0  0  0  0  0  0  0  0  0  0  0  0
   58.1633   31.4005   47.1857 H   0  0  0  0  0  0  0  0  0  0  0  0
   58.3707   33.8349   46.6796 H   0  0  0  0  0  0  0  0  0  0  0  0
   58.3558   34.6276   44.3133 H   0  0  0  0  0  0  0  0  0  0  0  0
   58.1231   32.9847   42.4465 H   0  0  0  0  0  0  0  0  0  0  0  0
   57.9193   30.5477   42.9430 H   0  0  0  0  0  0  0  0  0  0  0  0
  1  2  1  0
  2  3  1  0
  3  4  2  0
  4  5  1  0
  5  6  1  0
  6  7  2  0
  7  8  1  0
  8  9  2  0
  9 10  1  0
 10 11  2  0
  5 12  2  0
 12 13  1  0
 13 14  2  0
 14 15  1  0
 15 16  2  0
 16 17  1  0
 17 18  2  0
 18 19  1  0
 19 20  2  0
 14  3  1  0
 20 15  1  0
 11  6  1  0
  1 21  1  0
  1 22  1  0
  1 23  1  0
  4 24  1  0
  7 25  1  0
  8 26  1  0
 10 27  1  0
 11 28  1  0
 12 29  1  0
 13 30  1  0
 16 31  1  0
 17 32  1  0
 18 33  1  0
 19 34  1  0
 20 35  1  0
M  END
>  <UniqueID>  (35) 
33

>  <SMILES>  (35) 
COc1cc(-c2ccncc2)ccc1-c1ccccc1

>  <Energy>  (35) 
49.89228428085526

>  <Genealogy>  (35) 
COc1cc(-c2ccncc2)ccc1-c1ccccc1 (3D coordinates assigned)
COc1cc(-c2ccncc2)ccc1-c1ccccc1 (optimized conformer: 49.89228428085526 kcal/mol)

>  <smiles>  (35) 
COc1cc(-c2ccncc2)ccc1-c1ccccc1

>  <score_type>  (35) 
oracle

>  <origin>  (35) 
adg

>  <m_score__min__energy>  (35) 
-6.9000000000000004

>  <m_primary>  (35) 
energy

$$$$
35:0
     RDKit          3D

 46 50  0  0  0  0  0  0  0  0999 V2000
   57.8200   33.7310   45.0480 C   0  0  0  0  0  0  0  0  0  0  0  0
   58.3290   34.2350   46.1760 C   0  0  0  0  0  0  0  0  0  0  0  0
   59.5830   33.6860   46.8040 C   0  0  0  0  0  0  0  0  0  0  0  0
   59.6670   32.2100   46.7890 N   0  0  0  0  0  0  0  0  0  0  0  0
   61.0250   31.6460   46.7590 C   0  0  0  0  0  0  0  0  0  0  0  0
   60.9680   30.1740   46.3300 C   0  0  0  0  0  0  0  0  0  0  0  0
   59.8830   29.3520   47.0870 C   0  0  2  0  0  0  0  0  0  0  0  0
   60.2440   29.1550   48.5030 C   0  0  0  0  0  0  0  0  0  0  0  0
   59.9890   30.0850   49.5160 C   0  0  0  0  0  0  0  0  0  0  0  0
   60.2010   29.6720   50.8460 C   0  0  0  0  0  0  0  0  0  0  0  0
   60.5380   28.3290   51.1230 C   0  0  0  0  0  0  0  0  0  0  0  0
   60.5830   27.3810   50.0820 C   0  0  0  0  0  0  0  0  0  0  0  0
   60.7810   26.0340   50.3520 O   0  0  0  0  0  0  0  0  0  0  0  0
   60.3830   27.8270   48.7770 C   0  0  0  0  0  0  0  0  0  0  0  0
   60.1540   27.0520   47.6510 O   0  0  0  0  0  0  0  0  0  0  0  0
   59.8210   27.8840   46.5320 C   0  0  1  0  0  0  0  0  0  0  0  0
   58.4410   27.5280   45.9020 C   0  0  1  0  0  0  0  0  0  0  0  0
   57.5330   27.1470   46.9190 O   0  0  0  0  0  0  0  0  0  0  0  0
   56.4420   25.9910   46.3280 S   0  0  0  0  0  0  0  0  0  0  0  0
   56.2660   24.8940   47.3410 O   0  0  0  0  0  0  0  0  0  0  0  0
   56.9950   25.4030   45.0610 O   0  0  0  0  0  0  0  0  0  0  0  0
   54.9530   26.6970   45.9960 O   0  0  0  0  0  0  0  0  0  0  0  0
   57.8660   28.7390   45.1760 C   0  0  0  0  0  0  0  0  0  0  0  0
   57.8930   29.9580   45.7510 C   0  0  0  0  0  0  0  0  0  0  0  0
   58.5150   30.0680   47.1140 C   0  0  2  0  0  0  0  0  0  0  0  0
   58.7380   31.4870   47.6890 C   0  0  1  0  0  0  0  0  0  0  0  0
   59.2610   31.3850   49.1820 C   0  0  0  0  0  0  0  0  0  0  0  0
   56.9018   34.1591   44.6195 H   0  0  0  0  0  0  0  0  0  0  0  0
   58.3192   32.8880   44.5479 H   0  0  0  0  0  0  0  0  0  0  0  0
   57.8156   35.0780   46.6615 H   0  0  0  0  0  0  0  0  0  0  0  0
   60.4484   34.0872   46.2561 H   0  0  0  0  0  0  0  0  0  0  0  0
   59.5706   33.9932   47.8602 H   0  0  0  0  0  0  0  0  0  0  0  0
   61.6393   32.2114   46.0428 H   0  0  0  0  0  0  0  0  0  0  0  0
   61.4685   31.7143   47.7633 H   0  0  0  0  0  0  0  0  0  0  0  0
   60.7487   30.1327   45.2529 H   0  0  0  0  0  0  0  0  0  0  0  0
   61.9432   29.7265   46.5725 H   0  0  0  0  0  0  0  0  0  0  0  0
   60.1040   30.3957   51.6687 H   0  0  0  0  0  0  0  0  0  0  0  0
   60.7660   28.0222   52.1545 H   0  0  0  0  0  0  0  0  0  0  0  0
   60.5231   27.7401   45.6975 H   0  0  0  0  0  0  0  0  0  0  0  0
   58.5870   26.7005   45.1921 H   0  0  0  0  0  0  0  0  0  0  0  0
   57.4257   28.6172   44.1753 H   0  0  0  0  0  0  0  0  0  0  0  0
   57.4754   30.8388   45.2414 H   0  0  0  0  0  0  0  0  0  0  0  0
   57.7713   29.6089   47.7819 H   0  0  0  0  0  0  0  0  0  0  0  0
   57.7985   32.0575   47.7320 H   0  0  0  0  0  0  0  0  0  0  0  0
   59.9534   32.2209   49.3603 H   0  0  0  0  0  0  0  0  0  0  0  0
   58.3698   31.4161   49.8260 H   0  0  0  0  0  0  0  0  0  0  0  0
  1  2  2  0
  2  3  1  0
  3  4  1  0
  4  5  1  0
  5  6  1  0
  7  6  1  6
  7  8  1  0
  8  9  2  0
  9 10  1  0
 10 11  2  0
 11 12  1  0
 12 13  1  0
 12 14  2  0
 14 15  1  0
 15 16  1  0
 16 17  1  0
 17 18  1  0
 18 19  1  0
 19 20  2  0
 19 21  2  0
 19 22  1  0
 17 23  1  0
 23 24  2  0
 24 25  1  0
 25 26  1  0
 26 27  1  0
 26  4  1  0
 16  7  1  0
 25  7  1  0
 14  8  1  0
 27  9  1  0
  1 28  1  0
  1 29  1  0
  2 30  1  0
  3 31  1  0
  3 32  1  0
  5 33  1  0
  5 34  1  0
  6 35  1  0
  6 36  1  0
 10 37  1  0
 11 38  1  0
 16 39  1  6
 17 40  1  6
 23 41  1  0
 24 42  1  0
 25 43  1  1
 26 44  1  1
 27 45  1  0
 27 46  1  0
M  CHG  2  13  -1  22  -1
M  END
>  <UniqueID>  (36) 
34

>  <SMILES>  (36) 
C=CCN1CC[C@]23c4c5ccc([O-])c4O[C@H]2C(OS(=O)(=O)[O-])C=CC3C1C5

>  <Energy>  (36) 
97.52780531420005

>  <Genealogy>  (36) 
C=CCN1CCC23c4c5ccc([O-])c4OC2C(OS(=O)(=O)[O-])C=CC3C1C5 (protonated)
C=CCN1CC[C@]23c4c5ccc([O-])c4O[C@H]2C(OS(=O)(=O)[O-])C=CC3C1C5 (chirality)
C=CCN1CC[C@]23c4c5ccc([O-])c4O[C@H]2C(OS(=O)(=O)[O-])C=CC3C1C5 (3D coordinates assigned)
C=CCN1CC[C@]23c4c5ccc([O-])c4O[C@H]2C(OS(=O)(=O)[O-])C=CC3C1C5 (nonaromatic ring conformer: 97.52780531420005 kcal/mol)

>  <smiles>  (36) 
C=CCN1CCC23c4c5ccc(O)c4OC2C(OS(=O)(=O)O)C=CC3C1C5

>  <score_type>  (36) 
oracle

>  <origin>  (36) 
adg

>  <m_score__min__energy>  (36) 
-12.27

>  <m_primary>  (36) 
energy

$$$$
36:0
     RDKit          3D

 52 54  0  0  0  0  0  0  0  0999 V2000
   60.8100   29.8020   49.3680 C   0  0  0  0  0  0  0  0  0  0  0  0
   60.3140   30.8810   50.3340 C   0  0  0  0  0  0  0  0  0  0  0  0
   61.2990   31.9540   50.6410 N   0  0  0  0  0  0  0  0  0  0  0  0
   60.7120   33.0800   51.4230 C   0  0  0  0  0  0  0  0  0  0  0  0
   59.2780   33.4800   51.0340 C   0  0  0  0  0  0  0  0  0  0  0  0
   62.6050   31.4770   51.1720 C   0  0  0  0  0  0  0  0  0  0  0  0
   63.7730   31.5910   50.1700 C   0  0  0  0  0  0  0  0  0  0  0  0
   63.3070   31.7780   48.8460 O   0  0  0  0  0  0  0  0  0  0  0  0
   64.0580   32.7760   48.1850 C   0  0  0  0  0  0  0  0  0  0  0  0
   63.3530   34.1280   48.3090 C   0  0  0  0  0  0  0  0  0  0  0  0
   61.9830   33.9640   48.6800 O   0  0  0  0  0  0  0  0  0  0  0  0
   60.9360   33.6200   47.8100 C   0  0  0  0  0  0  0  0  0  0  0  0
   59.9460   34.5760   47.5590 C   0  0  0  0  0  0  0  0  0  0  0  0
   58.8400   34.2680   46.7640 C   0  0  0  0  0  0  0  0  0  0  0  0
   58.7140   32.9880   46.1960 C   0  0  0  0  0  0  0  0  0  0  0  0
   57.5990   32.6210   45.4210 C   0  0  0  0  0  0  0  0  0  0  0  0
   56.6690   33.4470   45.2090 O   0  0  0  0  0  0  0  0  0  0  0  0
   57.5310   31.3200   44.8920 C   0  0  0  0  0  0  0  0  0  0  0  0
   56.4410   30.8840   44.1160 C   0  0  0  0  0  0  0  0  0  0  0  0
   56.4150   29.5800   43.6130 C   0  0  0  0  0  0  0  0  0  0  0  0
   57.4690   28.7030   43.8770 C   0  0  0  0  0  0  0  0  0  0  0  0
   58.5570   29.1250   44.6460 C   0  0  0  0  0  0  0  0  0  0  0  0
   58.5950   30.4270   45.1560 C   0  0  0  0  0  0  0  0  0  0  0  0
   59.6330   30.8140   45.8890 O   0  0  0  0  0  0  0  0  0  0  0  0
   59.7310   32.0310   46.4120 C   0  0  0  0  0  0  0  0  0  0  0  0
   60.8410   32.3550   47.1990 C   0  0  0  0  0  0  0  0  0  0  0  0
   61.2021   28.9489   49.9412 H   0  0  0  0  0  0  0  0  0  0  0  0
   59.9761   29.4657   48.7344 H   0  0  0  0  0  0  0  0  0  0  0  0
   61.6082   30.2160   48.7344 H   0  0  0  0  0  0  0  0  0  0  0  0
   59.4239   31.3519   49.8912 H   0  0  0  0  0  0  0  0  0  0  0  0
   60.1107   30.3698   51.2865 H   0  0  0  0  0  0  0  0  0  0  0  0
   61.5160   32.3800   49.7110 H   0  0  0  0  0  0  0  0  0  0  0  0
   60.7068   32.7893   52.4839 H   0  0  0  0  0  0  0  0  0  0  0  0
   61.3394   33.9573   51.2067 H   0  0  0  0  0  0  0  0  0  0  0  0
   58.6837   33.6458   51.9447 H   0  0  0  0  0  0  0  0  0  0  0  0
   59.3039   34.4052   50.4396 H   0  0  0  0  0  0  0  0  0  0  0  0
   58.8212   32.6750   50.4396 H   0  0  0  0  0  0  0  0  0  0  0  0
   62.8543   32.0732   52.0622 H   0  0  0  0  0  0  0  0  0  0  0  0
   62.4838   30.4071   51.3969 H   0  0  0  0  0  0  0  0  0  0  0  0
   64.4025   32.4481   50.4514 H   0  0  0  0  0  0  0  0  0  0  0  0
   64.3480   30.6538   50.2034 H   0  0  0  0  0  0  0  0  0  0  0  0
   65.0568   32.8426   48.6411 H   0  0  0  0  0  0  0  0  0  0  0  0
   64.1511   32.5131   47.1210 H   0  0  0  0  0  0  0  0  0  0  0  0
   63.8629   34.7296   49.0759 H   0  0  0  0  0  0  0  0  0  0  0  0
   63.3915   34.6319   47.3320 H   0  0  0  0  0  0  0  0  0  0  0  0
   60.0399   35.5824   47.9931 H   0  0  0  0  0  0  0  0  0  0  0  0
   58.0660   35.0281   46.5818 H   0  0  0  0  0  0  0  0  0  0  0  0
   55.6079   31.5706   43.9049 H   0  0  0  0  0  0  0  0  0  0  0  0
   55.5610   29.2435   43.0069 H   0  0  0  0  0  0  0  0  0  0  0  0
   57.4429   27.6779   43.4789 H   0  0  0  0  0  0  0  0  0  0  0  0
   59.3858   28.4313   44.8508 H   0  0  0  0  0  0  0  0  0  0  0  0
   61.6444   31.6173   47.3414 H   0  0  0  0  0  0  0  0  0  0  0  0
  1  2  1  0
  2  3  1  0
  3  4  1  0
  4  5  1  0
  3  6  1  0
  6  7  1  0
  7  8  1  0
  8  9  1  0
  9 10  1  0
 10 11  1  0
 11 12  1  0
 12 13  2  0
 13 14  1  0
 14 15  2  0
 15 16  1  0
 16 17  2  0
 16 18  1  0
 18 19  2  0
 19 20  1  0
 20 21  2  0
 21 22  1  0
 22 23  2  0
 23 24  1  0
 24 25  1  0
 25 26  2  0
 26 12  1  0
 25 15  1  0
 23 18  1  0
  1 27  1  0
  1 28  1  0
  1 29  1  0
  2 30  1  0
  2 31  1  0
  3 32  1  0
  4 33  1  0
  4 34  1  0
  5 35  1  0
  5 36  1  0
  5 37  1  0
  6 38  1  0
  6 39  1  0
  7 40  1  0
  7 41  1  0
  9 42  1  0
  9 43  1  0
 10 44  1  0
 10 45  1  0
 13 46  1  0
 14 47  1  0
 19 48  1  0
 20 49  1  0
 21 50  1  0
 22 51  1  0
 26 52  1  0
M  CHG  1   3   1
M  END
>  <UniqueID>  (37) 
35

>  <SMILES>  (37) 
CC[NH+](CC)CCOCCOc1ccc2c(=O)c3ccccc3oc2c1

>  <Energy>  (37) 
66.44339865250264

>  <Genealogy>  (37) 
CC[NH+](CC)CCOCCOc1ccc2c(=O)c3ccccc3oc2c1 (protonated)
CC[NH+](CC)CCOCCOc1ccc2c(=O)c3ccccc3oc2c1 (3D coordinates assigned)
CC[NH+](CC)CCOCCOc1ccc2c(=O)c3ccccc3oc2c1 (optimized conformer: 66.44339865250264 kcal/mol)

>  <smiles>  (37) 
CCN(CC)CCOCCOc1ccc2c(=O)c3ccccc3oc2c1

>  <score_type>  (37) 
oracle

>  <origin>  (37) 
adg

>  <m_score__min__energy>  (37) 
-5.0499999999999998

>  <m_primary>  (37) 
energy

$$$$
37:0
     RDKit          3D

 50 53  0  0  0  0  0  0  0  0999 V2000
   57.8890   22.5150   44.1570 C   0  0  0  0  0  0  0  0  0  0  0  0
   56.8830   23.5110   43.9990 O   0  0  0  0  0  0  0  0  0  0  0  0
   57.0250   24.8530   44.3830 C   0  0  0  0  0  0  0  0  0  0  0  0
   57.7600   25.7050   43.5530 C   0  0  0  0  0  0  0  0  0  0  0  0
   57.9510   27.0460   43.8970 C   0  0  0  0  0  0  0  0  0  0  0  0
   57.4030   27.5630   45.0860 C   0  0  0  0  0  0  0  0  0  0  0  0
   57.6410   28.9770   45.4700 C   0  0  0  0  0  0  0  0  0  0  0  0
   56.9550   29.9870   44.8690 N   0  0  0  0  0  0  0  0  0  0  0  0
   57.1290   31.2540   45.2440 N   0  0  0  0  0  0  0  0  0  0  0  0
   58.0070   31.5900   46.2260 C   0  0  0  0  0  0  0  0  0  0  0  0
   58.0460   33.3000   46.7970 S   0  0  0  0  0  0  0  0  0  0  0  0
   59.5360   33.9020   45.8970 C   0  0  1  0  0  0  0  0  0  0  0  0
   59.3450   35.2720   45.2270 C   0  0  0  0  0  0  0  0  0  0  0  0
   60.6950   33.9520   46.8720 C   0  0  0  0  0  0  0  0  0  0  0  0
   62.0180   33.7340   46.4280 C   0  0  0  0  0  0  0  0  0  0  0  0
   63.0890   33.7820   47.3290 C   0  0  0  0  0  0  0  0  0  0  0  0
   62.8540   34.0570   48.6800 C   0  0  0  0  0  0  0  0  0  0  0  0
   61.5470   34.2830   49.1330 C   0  0  0  0  0  0  0  0  0  0  0  0
   60.4700   34.2350   48.2330 C   0  0  0  0  0  0  0  0  0  0  0  0
   58.7390   30.5630   46.8460 C   0  0  0  0  0  0  0  0  0  0  0  0
   59.7040   30.8170   47.9270 C   0  0  0  0  0  0  0  0  0  0  0  0
   59.2460   31.1130   49.2210 C   0  0  0  0  0  0  0  0  0  0  0  0
   60.1590   31.2830   50.2680 C   0  0  0  0  0  0  0  0  0  0  0  0
   61.5300   31.1490   50.0310 C   0  0  0  0  0  0  0  0  0  0  0  0
   62.4130   31.3040   51.0490 F   0  0  0  0  0  0  0  0  0  0  0  0
   61.9900   30.8400   48.7460 C   0  0  0  0  0  0  0  0  0  0  0  0
   61.0790   30.6660   47.6970 C   0  0  0  0  0  0  0  0  0  0  0  0
   58.5260   29.2810   46.4550 N   0  0  0  0  0  0  0  0  0  0  0  0
   56.6500   26.7090   45.9150 C   0  0  0  0  0  0  0  0  0  0  0  0
   56.4640   25.3650   45.5690 C   0  0  0  0  0  0  0  0  0  0  0  0
   58.0662   22.3396   45.2284 H   0  0  0  0  0  0  0  0  0  0  0  0
   57.5569   21.5799   43.6823 H   0  0  0  0  0  0  0  0  0  0  0  0
   58.8207   22.8564   43.6823 H   0  0  0  0  0  0  0  0  0  0  0  0
   58.1924   25.3157   42.6195 H   0  0  0  0  0  0  0  0  0  0  0  0
   58.5338   27.7022   43.2338 H   0  0  0  0  0  0  0  0  0  0  0  0
   59.7346   33.1973   45.0760 H   0  0  0  0  0  0  0  0  0  0  0  0
   59.2370   36.0466   46.0005 H   0  0  0  0  0  0  0  0  0  0  0  0
   60.2202   35.4990   44.6005 H   0  0  0  0  0  0  0  0  0  0  0  0
   58.4411   35.2509   44.6005 H   0  0  0  0  0  0  0  0  0  0  0  0
   62.2088   33.5247   45.3651 H   0  0  0  0  0  0  0  0  0  0  0  0
   64.1148   33.6035   46.9742 H   0  0  0  0  0  0  0  0  0  0  0  0
   63.6954   34.0959   49.3875 H   0  0  0  0  0  0  0  0  0  0  0  0
   61.3644   34.4985   50.1961 H   0  0  0  0  0  0  0  0  0  0  0  0
   59.4469   34.4192   48.5925 H   0  0  0  0  0  0  0  0  0  0  0  0
   58.1672   31.2115   49.4122 H   0  0  0  0  0  0  0  0  0  0  0  0
   59.7972   31.5224   51.2788 H   0  0  0  0  0  0  0  0  0  0  0  0
   63.0689   30.7336   48.5597 H   0  0  0  0  0  0  0  0  0  0  0  0
   61.4426   30.4104   46.6908 H   0  0  0  0  0  0  0  0  0  0  0  0
   56.2046   27.1008   46.8413 H   0  0  0  0  0  0  0  0  0  0  0  0
   55.8773   24.7064   46.2262 H   0  0  0  0  0  0  0  0  0  0  0  0
  1  2  1  0
  2  3  1  0
  3  4  2  0
  4  5  1  0
  5  6  2  0
  6  7  1  0
  7  8  2  0
  8  9  1  0
  9 10  2  0
 10 11  1  0
 11 12  1  0
 12 13  1  0
 12 14  1  0
 14 15  2  0
 15 16  1  0
 16 17  2  0
 17 18  1  0
 18 19  2  0
 10 20  1  0
 20 21  1  0
 21 22  2  0
 22 23  1  0
 23 24  2  0
 24 25  1  0
 24 26  1  0
 26 27  2  0
 20 28  2  0
  6 29  1  0
 29 30  2  0
 30  3  1  0
 28  7  1  0
 19 14  1  0
 27 21  1  0
  1 31  1  0
  1 32  1  0
  1 33  1  0
  4 34  1  0
  5 35  1  0
 12 36  1  6
 13 37  1  0
 13 38  1  0
 13 39  1  0
 15 40  1  0
 16 41  1  0
 17 42  1  0
 18 43  1  0
 19 44  1  0
 22 45  1  0
 23 46  1  0
 26 47  1  0
 27 48  1  0
 29 49  1  0
 30 50  1  0
M  END
>  <UniqueID>  (38) 
36

>  <SMILES>  (38) 
COc1ccc(-c2nnc(S[C@@H](C)c3ccccc3)c(-c3ccc(F)cc3)n2)cc1

>  <Energy>  (38) 
64.00856702429878

>  <Genealogy>  (38) 
COc1ccc(-c2nnc(S[C@@H](C)c3ccccc3)c(-c3ccc(F)cc3)n2)cc1 (chirality)
COc1ccc(-c2nnc(S[C@@H](C)c3ccccc3)c(-c3ccc(F)cc3)n2)cc1 (3D coordinates assigned)
COc1ccc(-c2nnc(S[C@@H](C)c3ccccc3)c(-c3ccc(F)cc3)n2)cc1 (optimized conformer: 64.00856702429878 kcal/mol)

>  <smiles>  (38) 
COc1ccc(-c2nnc(SC(C)c3ccccc3)c(-c3ccc(F)cc3)n2)cc1

>  <score_type>  (38) 
oracle

>  <origin>  (38) 
adg

>  <m_score__min__energy>  (38) 
-8.5999999999999996

>  <m_primary>  (38) 
energy

$$$$
38:0
     RDKit          3D

 44 46  0  0  0  0  0  0  0  0999 V2000
   61.2090   30.9490   48.8880 N   0  0  0  0  0  0  0  0  0  0  0  0
   62.6410   31.0900   49.1450 C   0  0  0  0  0  0  0  0  0  0  0  0
   63.3880   31.5950   47.8930 C   0  0  0  0  0  0  0  0  0  0  0  0
   63.7320   33.0390   47.9920 N   0  0  0  0  0  0  0  0  0  0  0  0
   63.0630   33.6970   49.1540 C   0  0  0  0  0  0  0  0  0  0  0  0
   61.8170   34.5240   48.7760 C   0  0  0  0  0  0  0  0  0  0  0  0
   61.1550   33.9380   47.6080 N   0  0  0  0  0  0  0  0  0  0  0  0
   59.8450   33.3470   47.7260 C   0  0  0  0  0  0  0  0  0  0  0  0
   59.4580   32.9180   48.8450 O   0  0  0  0  0  0  0  0  0  0  0  0
   58.9410   33.2400   46.5590 C   0  0  0  0  0  0  0  0  0  0  0  0
   58.3010   34.5530   45.7190 S   0  0  0  0  0  0  0  0  0  0  0  0
   57.4280   33.6730   44.5880 C   0  0  0  0  0  0  0  0  0  0  0  0
   57.6310   32.3240   44.8480 C   0  0  0  0  0  0  0  0  0  0  0  0
   58.4450   32.0700   45.9710 C   0  0  0  0  0  0  0  0  0  0  0  0
   58.8510   30.6690   46.3630 C   0  0  0  0  0  0  0  0  0  0  0  0
   57.9550   29.6030   45.7140 C   0  0  0  0  0  0  0  0  0  0  0  0
   57.7210   29.8980   44.2260 C   0  0  0  0  0  0  0  0  0  0  0  0
   56.9830   31.2300   44.0470 C   0  0  0  0  0  0  0  0  0  0  0  0
   61.9510   33.7580   46.3870 C   0  0  0  0  0  0  0  0  0  0  0  0
   63.4550   33.7450   46.7170 C   0  0  0  0  0  0  0  0  0  0  0  0
   60.9590   31.5170   48.0460 H   0  0  0  0  0  0  0  0  0  0  0  0
   60.6800   31.3380   49.7020 H   0  0  0  0  0  0  0  0  0  0  0  0
   62.7889   31.8085   49.9647 H   0  0  0  0  0  0  0  0  0  0  0  0
   63.0441   30.1029   49.4153 H   0  0  0  0  0  0  0  0  0  0  0  0
   64.3162   31.0163   47.7761 H   0  0  0  0  0  0  0  0  0  0  0  0
   62.7241   31.4633   47.0259 H   0  0  0  0  0  0  0  0  0  0  0  0
   64.7680   33.1120   48.1390 H   0  0  0  0  0  0  0  0  0  0  0  0
   62.7565   32.9152   49.8646 H   0  0  0  0  0  0  0  0  0  0  0  0
   63.7920   34.3993   49.5845 H   0  0  0  0  0  0  0  0  0  0  0  0
   61.1163   34.5333   49.6239 H   0  0  0  0  0  0  0  0  0  0  0  0
   62.1282   35.5510   48.5340 H   0  0  0  0  0  0  0  0  0  0  0  0
   56.8052   34.0907   43.7832 H   0  0  0  0  0  0  0  0  0  0  0  0
   59.8905   30.4993   46.0456 H   0  0  0  0  0  0  0  0  0  0  0  0
   58.7465   30.5796   47.4544 H   0  0  0  0  0  0  0  0  0  0  0  0
   58.4395   28.6203   45.8121 H   0  0  0  0  0  0  0  0  0  0  0  0
   56.9813   29.6111   46.2257 H   0  0  0  0  0  0  0  0  0  0  0  0
   58.6918   29.9511   43.7114 H   0  0  0  0  0  0  0  0  0  0  0  0
   57.1058   29.0926   43.7983 H   0  0  0  0  0  0  0  0  0  0  0  0
   56.9979   31.5079   42.9828 H   0  0  0  0  0  0  0  0  0  0  0  0
   55.9493   31.1051   44.4017 H   0  0  0  0  0  0  0  0  0  0  0  0
   61.6765   32.8036   45.9140 H   0  0  0  0  0  0  0  0  0  0  0  0
   61.7454   34.5948   45.7033 H   0  0  0  0  0  0  0  0  0  0  0  0
   63.9938   33.2365   45.9039 H   0  0  0  0  0  0  0  0  0  0  0  0
   63.7915   34.7870   46.8224 H   0  0  0  0  0  0  0  0  0  0  0  0
  1  2  1  0
  2  3  1  0
  3  4  1  0
  4  5  1  0
  5  6  1  0
  6  7  1  0
  7  8  1  0
  8  9  2  0
  8 10  1  0
 10 11  1  0
 11 12  1  0
 12 13  2  0
 13 14  1  0
 14 15  1  0
 15 16  1  0
 16 17  1  0
 17 18  1  0
  7 19  1  0
 19 20  1  0
 20  4  1  0
 14 10  2  0
 18 13  1  0
  1 21  1  0
  1 22  1  0
  2 23  1  0
  2 24  1  0
  3 25  1  0
  3 26  1  0
  4 27  1  0
  5 28  1  0
  5 29  1  0
  6 30  1  0
  6 31  1  0
 12 32  1  0
 15 33  1  0
 15 34  1  0
 16 35  1  0
 16 36  1  0
 17 37  1  0
 17 38  1  0
 18 39  1  0
 18 40  1  0
 19 41  1  0
 19 42  1  0
 20 43  1  0
 20 44  1  0
M  CHG  1   4   1
M  END
>  <UniqueID>  (39) 
37

>  <SMILES>  (39) 
NCC[NH+]1CCN(C(=O)c2scc3c2CCCC3)CC1

>  <Energy>  (39) 
80.18753751583296

>  <Genealogy>  (39) 
NCC[NH+]1CCN(C(=O)c2scc3c2CCCC3)CC1 (protonated)
NCC[NH+]1CCN(C(=O)c2scc3c2CCCC3)CC1 (3D coordinates assigned)
NCC[NH+]1CCN(C(=O)c2scc3c2CCCC3)CC1 (nonaromatic ring conformer: 80.18753751583296 kcal/mol)

>  <smiles>  (39) 
NCCN1CCN(C(=O)c2scc3c2CCCC3)CC1

>  <score_type>  (39) 
oracle

>  <origin>  (39) 
adg

>  <m_score__min__energy>  (39) 
-5.6699999999999999

>  <m_primary>  (39) 
energy

$$$$
39:0
     RDKit          3D

 46 48  0  0  0  0  0  0  0  0999 V2000
   60.1960   34.5920   49.0840 C   0  0  0  0  0  0  0  0  0  0  0  0
   59.6770   34.1540   47.7390 C   0  0  0  0  0  0  0  0  0  0  0  0
   59.8230   35.0210   46.6410 C   0  0  0  0  0  0  0  0  0  0  0  0
   59.3440   34.6640   45.3800 C   0  0  0  0  0  0  0  0  0  0  0  0
   58.7250   33.4290   45.1930 C   0  0  0  0  0  0  0  0  0  0  0  0
   58.2700   33.0720   43.9620 N   0  0  0  0  0  0  0  0  0  0  0  0
   57.6790   31.8660   43.7450 C   0  0  0  0  0  0  0  0  0  0  0  0
   57.2150   31.5030   42.4660 C   0  0  0  0  0  0  0  0  0  0  0  0
   57.3360   32.4520   41.3060 C   0  0  0  0  0  0  0  0  0  0  0  0
   56.6030   30.2490   42.2890 C   0  0  0  0  0  0  0  0  0  0  0  0
   56.4720   29.3650   43.3650 C   0  0  0  0  0  0  0  0  0  0  0  0
   56.9400   29.7210   44.6320 C   0  0  0  0  0  0  0  0  0  0  0  0
   57.5410   30.9680   44.8260 C   0  0  0  0  0  0  0  0  0  0  0  0
   57.9940   31.3270   46.0540 N   0  0  0  0  0  0  0  0  0  0  0  0
   58.5770   32.5380   46.2760 C   0  0  0  0  0  0  0  0  0  0  0  0
   59.0530   32.8930   47.5580 C   0  0  0  0  0  0  0  0  0  0  0  0
   58.9020   31.9400   48.6830 C   0  0  0  0  0  0  0  0  0  0  0  0
   58.6030   32.3700   49.8300 O   0  0  0  0  0  0  0  0  0  0  0  0
   59.1040   30.5350   48.4710 N   0  0  0  0  0  0  0  0  0  0  0  0
   59.2420   29.5890   49.5750 C   0  0  0  0  0  0  0  0  0  0  0  0
   59.6500   28.2110   49.0440 C   0  0  0  0  0  0  0  0  0  0  0  0
   59.2080   28.0420   47.6430 N   0  0  0  0  0  0  0  0  0  0  0  0
   60.3470   28.2000   46.7240 C   0  0  0  0  0  0  0  0  0  0  0  0
   58.5960   26.7170   47.4400 C   0  0  0  0  0  0  0  0  0  0  0  0
   59.6148   34.1015   49.8787 H   0  0  0  0  0  0  0  0  0  0  0  0
   61.2553   34.3107   49.1776 H   0  0  0  0  0  0  0  0  0  0  0  0
   60.0968   35.6835   49.1776 H   0  0  0  0  0  0  0  0  0  0  0  0
   60.3209   35.9923   46.7781 H   0  0  0  0  0  0  0  0  0  0  0  0
   59.4549   35.3573   44.5332 H   0  0  0  0  0  0  0  0  0  0  0  0
   57.4667   33.4771   41.6830 H   0  0  0  0  0  0  0  0  0  0  0  0
   58.2058   32.1730   40.6932 H   0  0  0  0  0  0  0  0  0  0  0  0
   56.4240   32.4002   40.6932 H   0  0  0  0  0  0  0  0  0  0  0  0
   56.2246   29.9614   41.2970 H   0  0  0  0  0  0  0  0  0  0  0  0
   55.9979   28.3842   43.2126 H   0  0  0  0  0  0  0  0  0  0  0  0
   56.8359   29.0219   45.4749 H   0  0  0  0  0  0  0  0  0  0  0  0
   59.1370   30.1690   47.4930 H   0  0  0  0  0  0  0  0  0  0  0  0
   60.0123   29.9528   50.2709 H   0  0  0  0  0  0  0  0  0  0  0  0
   58.2767   29.5015   50.0951 H   0  0  0  0  0  0  0  0  0  0  0  0
   60.7447   28.1146   49.0919 H   0  0  0  0  0  0  0  0  0  0  0  0
   59.1727   27.4367   49.6626 H   0  0  0  0  0  0  0  0  0  0  0  0
   61.2720   28.3283   47.3052 H   0  0  0  0  0  0  0  0  0  0  0  0
   60.4335   27.3052   46.0900 H   0  0  0  0  0  0  0  0  0  0  0  0
   60.1866   29.0845   46.0900 H   0  0  0  0  0  0  0  0  0  0  0  0
   58.3838   26.2576   48.4167 H   0  0  0  0  0  0  0  0  0  0  0  0
   57.6583   26.8288   46.8759 H   0  0  0  0  0  0  0  0  0  0  0  0
   59.2890   26.0755   46.8759 H   0  0  0  0  0  0  0  0  0  0  0  0
  1  2  1  0
  2  3  2  0
  3  4  1  0
  4  5  2  0
  5  6  1  0
  6  7  2  0
  7  8  1  0
  8  9  1  0
  8 10  2  0
 10 11  1  0
 11 12  2  0
 12 13  1  0
 13 14  2  0
 14 15  1  0
 15 16  2  0
 16 17  1  0
 17 18  2  0
 17 19  1  0
 19 20  1  0
 20 21  1  0
 21 22  1  0
 22 23  1  0
 22 24  1  0
 16  2  1  0
 15  5  1  0
 13  7  1  0
  1 25  1  0
  1 26  1  0
  1 27  1  0
  3 28  1  0
  4 29  1  0
  9 30  1  0
  9 31  1  0
  9 32  1  0
 10 33  1  0
 11 34  1  0
 12 35  1  0
 19 36  1  0
 20 37  1  0
 20 38  1  0
 21 39  1  0
 21 40  1  0
 23 41  1  0
 23 42  1  0
 23 43  1  0
 24 44  1  0
 24 45  1  0
 24 46  1  0
M  END
>  <UniqueID>  (40) 
38

>  <SMILES>  (40) 
Cc1ccc2nc3c(C)cccc3nc2c1C(=O)NCCN(C)C

>  <Energy>  (40) 
56.01624324333405

>  <Genealogy>  (40) 
Cc1ccc2nc3c(C)cccc3nc2c1C(=O)NCCN(C)C (3D coordinates assigned)
Cc1ccc2nc3c(C)cccc3nc2c1C(=O)NCCN(C)C (optimized conformer: 56.01624324333405 kcal/mol)

>  <smiles>  (40) 
Cc1ccc2nc3c(C)cccc3nc2c1C(=O)NCCN(C)C

>  <score_type>  (40) 
oracle

>  <origin>  (40) 
adg

>  <m_score__min__energy>  (40) 
-7.4199999999999999

>  <m_primary>  (40) 
energy

$$$$
40:0
     RDKit          3D

 37 38  0  0  0  0  0  0  0  0999 V2000
   60.4120   29.3040   47.1150 C   0  0  0  0  0  0  0  0  0  0  0  0
   60.1430   30.7720   46.7430 C   0  0  1  0  0  0  0  0  0  0  0  0
   58.8170   31.2890   47.3390 C   0  0  0  0  0  0  0  0  0  0  0  0
   57.9770   31.9110   46.3020 N   0  0  0  0  0  0  0  0  0  0  0  0
   57.5560   33.3100   46.4780 C   0  0  0  0  0  0  0  0  0  0  0  0
   57.2640   33.9770   45.1270 C   0  0  0  0  0  0  0  0  0  0  0  0
   58.3280   33.7580   44.1320 N   0  0  0  0  0  0  0  0  0  0  0  0
   58.1030   32.6450   43.1920 C   0  0  0  0  0  0  0  0  0  0  0  0
   58.2800   31.2590   43.8250 C   0  0  0  0  0  0  0  0  0  0  0  0
   57.5730   31.1400   45.1480 C   0  0  0  0  0  0  0  0  0  0  0  0
   56.6500   30.2880   45.2590 O   0  0  0  0  0  0  0  0  0  0  0  0
   61.2740   31.6370   47.1590 N   0  0  0  0  0  0  0  0  0  0  0  0
   62.2470   31.1250   47.9830 C   0  0  0  0  0  0  0  0  0  0  0  0
   63.3230   31.9110   48.3990 C   0  0  0  0  0  0  0  0  0  0  0  0
   63.4090   33.2330   47.9800 C   0  0  0  0  0  0  0  0  0  0  0  0
   62.4210   33.7570   47.1510 C   0  0  0  0  0  0  0  0  0  0  0  0
   61.3530   32.9480   46.7460 C   0  0  0  0  0  0  0  0  0  0  0  0
   60.4680   33.4490   46.0000 O   0  0  0  0  0  0  0  0  0  0  0  0
   60.4309   29.2008   48.2100 H   0  0  0  0  0  0  0  0  0  0  0  0
   59.6153   28.6688   46.7005 H   0  0  0  0  0  0  0  0  0  0  0  0
   61.3822   28.9926   46.7005 H   0  0  0  0  0  0  0  0  0  0  0  0
   60.0490   30.8157   45.6479 H   0  0  0  0  0  0  0  0  0  0  0  0
   58.2706   30.4452   47.7856 H   0  0  0  0  0  0  0  0  0  0  0  0
   59.0487   32.0467   48.1021 H   0  0  0  0  0  0  0  0  0  0  0  0
   56.6456   33.3356   47.0948 H   0  0  0  0  0  0  0  0  0  0  0  0
   58.3728   33.8600   46.9682 H   0  0  0  0  0  0  0  0  0  0  0  0
   56.3237   33.5667   44.7300 H   0  0  0  0  0  0  0  0  0  0  0  0
   57.1985   35.0607   45.3038 H   0  0  0  0  0  0  0  0  0  0  0  0
   59.2180   33.5730   44.6540 H   0  0  0  0  0  0  0  0  0  0  0  0
   57.0769   32.7208   42.8030 H   0  0  0  0  0  0  0  0  0  0  0  0
   58.8598   32.7356   42.3989 H   0  0  0  0  0  0  0  0  0  0  0  0
   57.8741   30.5020   43.1378 H   0  0  0  0  0  0  0  0  0  0  0  0
   59.3546   31.1055   44.0031 H   0  0  0  0  0  0  0  0  0  0  0  0
   62.1770   30.0802   48.3199 H   0  0  0  0  0  0  0  0  0  0  0  0
   64.0978   31.4865   49.0543 H   0  0  0  0  0  0  0  0  0  0  0  0
   64.2525   33.8616   48.3013 H   0  0  0  0  0  0  0  0  0  0  0  0
   62.4794   34.8030   46.8155 H   0  0  0  0  0  0  0  0  0  0  0  0
  1  2  1  0
  2  3  1  0
  3  4  1  0
  4  5  1  0
  5  6  1  0
  6  7  1  0
  7  8  1  0
  8  9  1  0
  9 10  1  0
 10 11  2  0
  2 12  1  0
 12 13  1  0
 13 14  2  0
 14 15  1  0
 15 16  2  0
 16 17  1  0
 17 18  2  0
 10  4  1  0
 17 12  1  0
  1 19  1  0
  1 20  1  0
  1 21  1  0
  2 22  1  6
  3 23  1  0
  3 24  1  0
  5 25  1  0
  5 26  1  0
  6 27  1  0
  6 28  1  0
  7 29  1  0
  8 30  1  0
  8 31  1  0
  9 32  1  0
  9 33  1  0
 13 34  1  0
 14 35  1  0
 15 36  1  0
 16 37  1  0
M  END
>  <UniqueID>  (41) 
39

>  <SMILES>  (41) 
C[C@@H](CN1CCNCCC1=O)n1ccccc1=O

>  <Energy>  (41) 
44.28399061869185

>  <Genealogy>  (41) 
C[C@@H](CN1CCNCCC1=O)n1ccccc1=O (chirality)
C[C@@H](CN1CCNCCC1=O)n1ccccc1=O (3D coordinates assigned)
C[C@@H](CN1CCNCCC1=O)n1ccccc1=O (nonaromatic ring conformer: 44.28399061869185 kcal/mol)

>  <smiles>  (41) 
CC(CN1CCNCCC1=O)n1ccccc1=O

>  <score_type>  (41) 
oracle

>  <origin>  (41) 
adg

>  <m_score__min__energy>  (41) 
-4.7599999999999998

>  <m_primary>  (41) 
energy

$$$$
41:0
     RDKit          3D

 47 48  0  0  0  0  0  0  0  0999 V2000
   62.8260   33.8850   48.3510 C   0  0  0  0  0  0  0  0  0  0  0  0
   61.5260   33.3170   47.9560 N   0  0  0  0  0  0  0  0  0  0  0  0
   60.4750   34.3530   48.0340 C   0  0  0  0  0  0  0  0  0  0  0  0
   59.4820   34.1760   46.9150 C   0  0  0  0  0  0  0  0  0  0  0  0
   59.8820   34.3840   45.5840 C   0  0  0  0  0  0  0  0  0  0  0  0
   58.9710   34.2030   44.5390 C   0  0  0  0  0  0  0  0  0  0  0  0
   57.6560   33.8170   44.8140 C   0  0  0  0  0  0  0  0  0  0  0  0
   57.2510   33.6090   46.1350 C   0  0  0  0  0  0  0  0  0  0  0  0
   58.1600   33.7880   47.1840 C   0  0  0  0  0  0  0  0  0  0  0  0
   61.1910   32.1510   48.8020 C   0  0  0  0  0  0  0  0  0  0  0  0
   60.5120   31.0920   47.9760 C   0  0  0  0  0  0  0  0  0  0  0  0
   61.1940   30.4510   46.9310 C   0  0  0  0  0  0  0  0  0  0  0  0
   60.5460   29.4890   46.1540 C   0  0  0  0  0  0  0  0  0  0  0  0
   59.2000   29.1640   46.3940 C   0  0  0  0  0  0  0  0  0  0  0  0
   58.4980   28.1140   45.5540 C   0  0  0  0  0  0  0  0  0  0  0  0
   58.0830   28.5750   44.2100 N   0  0  0  0  0  0  0  0  0  0  0  0
   57.8470   27.4770   43.2640 C   0  0  0  0  0  0  0  0  0  0  0  0
   56.7150   29.6610   44.2390 S   0  0  0  0  0  0  0  0  0  0  0  0
   56.2600   30.1510   42.5870 C   0  0  0  0  0  0  0  0  0  0  0  0
   57.0200   30.8810   45.0630 O   0  0  0  0  0  0  0  0  0  0  0  0
   55.5380   28.9520   44.8480 O   0  0  0  0  0  0  0  0  0  0  0  0
   58.5290   29.7910   47.4570 C   0  0  0  0  0  0  0  0  0  0  0  0
   59.1750   30.7540   48.2350 C   0  0  0  0  0  0  0  0  0  0  0  0
   62.8948   33.9150   49.4484 H   0  0  0  0  0  0  0  0  0  0  0  0
   63.6367   33.2591   47.9498 H   0  0  0  0  0  0  0  0  0  0  0  0
   62.9175   34.9051   47.9498 H   0  0  0  0  0  0  0  0  0  0  0  0
   59.9533   34.2687   48.9988 H   0  0  0  0  0  0  0  0  0  0  0  0
   60.9427   35.3445   47.9437 H   0  0  0  0  0  0  0  0  0  0  0  0
   60.9153   34.6902   45.3636 H   0  0  0  0  0  0  0  0  0  0  0  0
   59.2896   34.3646   43.4986 H   0  0  0  0  0  0  0  0  0  0  0  0
   56.9401   33.6770   43.9906 H   0  0  0  0  0  0  0  0  0  0  0  0
   56.2163   33.3042   46.3508 H   0  0  0  0  0  0  0  0  0  0  0  0
   57.8374   33.6241   48.2228 H   0  0  0  0  0  0  0  0  0  0  0  0
   62.1141   31.7385   49.2353 H   0  0  0  0  0  0  0  0  0  0  0  0
   60.5118   32.4720   49.6055 H   0  0  0  0  0  0  0  0  0  0  0  0
   62.2433   30.7073   46.7230 H   0  0  0  0  0  0  0  0  0  0  0  0
   61.0939   28.9809   45.3467 H   0  0  0  0  0  0  0  0  0  0  0  0
   59.1822   27.2619   45.4281 H   0  0  0  0  0  0  0  0  0  0  0  0
   57.5750   27.8512   46.0917 H   0  0  0  0  0  0  0  0  0  0  0  0
   57.6477   26.5496   43.8210 H   0  0  0  0  0  0  0  0  0  0  0  0
   56.9802   27.7182   42.6312 H   0  0  0  0  0  0  0  0  0  0  0  0
   58.7364   27.3407   42.6312 H   0  0  0  0  0  0  0  0  0  0  0  0
   55.5123   30.9563   42.6362 H   0  0  0  0  0  0  0  0  0  0  0  0
   57.1516   30.5107   42.0526 H   0  0  0  0  0  0  0  0  0  0  0  0
   55.8353   29.2884   42.0526 H   0  0  0  0  0  0  0  0  0  0  0  0
   57.4859   29.5211   47.6784 H   0  0  0  0  0  0  0  0  0  0  0  0
   58.6335   31.2496   49.0542 H   0  0  0  0  0  0  0  0  0  0  0  0
  1  2  1  0
  2  3  1  0
  3  4  1  0
  4  5  2  0
  5  6  1  0
  6  7  2  0
  7  8  1  0
  8  9  2  0
  2 10  1  0
 10 11  1  0
 11 12  2  0
 12 13  1  0
 13 14  2  0
 14 15  1  0
 15 16  1  0
 16 17  1  0
 16 18  1  0
 18 19  1  0
 18 20  2  0
 18 21  2  0
 14 22  1  0
 22 23  2  0
  9  4  1  0
 23 11  1  0
  1 24  1  0
  1 25  1  0
  1 26  1  0
  3 27  1  0
  3 28  1  0
  5 29  1  0
  6 30  1  0
  7 31  1  0
  8 32  1  0
  9 33  1  0
 10 34  1  0
 10 35  1  0
 12 36  1  0
 13 37  1  0
 15 38  1  0
 15 39  1  0
 17 40  1  0
 17 41  1  0
 17 42  1  0
 19 43  1  0
 19 44  1  0
 19 45  1  0
 22 46  1  0
 23 47  1  0
M  END
>  <UniqueID>  (42) 
40

>  <SMILES>  (42) 
CN(Cc1ccccc1)Cc1ccc(CN(C)S(C)(=O)=O)cc1

>  <Energy>  (42) 
44.42706612113126

>  <Genealogy>  (42) 
CN(Cc1ccccc1)Cc1ccc(CN(C)S(C)(=O)=O)cc1 (3D coordinates assigned)
CN(Cc1ccccc1)Cc1ccc(CN(C)S(C)(=O)=O)cc1 (optimized conformer: 44.42706612113126 kcal/mol)

>  <smiles>  (42) 
CN(Cc1ccccc1)Cc1ccc(CN(C)S(C)(=O)=O)cc1

>  <score_type>  (42) 
oracle

>  <origin>  (42) 
adg

>  <m_score__min__energy>  (42) 
-8.2799999999999994

>  <m_primary>  (42) 
energy

$$$$
42:0
     RDKit          3D

 27 28  0  0  0  0  0  0  0  0999 V2000
   58.5380   32.4320   48.6730 C   0  0  0  0  0  0  0  0  0  0  0  0
   58.7260   33.1090   47.3490 C   0  0  0  0  0  0  0  0  0  0  0  0
   59.3950   34.3400   47.2740 C   0  0  0  0  0  0  0  0  0  0  0  0
   59.5460   34.9850   46.0430 C   0  0  0  0  0  0  0  0  0  0  0  0
   59.0170   34.4150   44.8820 C   0  0  0  0  0  0  0  0  0  0  0  0
   58.3180   33.2000   44.9460 C   0  0  0  0  0  0  0  0  0  0  0  0
   57.7730   32.5710   43.6950 C   0  0  0  0  0  0  0  0  0  0  0  0
   57.3740   31.1550   43.9670 C   0  0  0  0  0  0  0  0  0  0  0  0
   56.2460   30.8390   44.5010 N   0  0  0  0  0  0  0  0  0  0  0  0
   56.1860   29.3960   44.7000 C   0  0  0  0  0  0  0  0  0  0  0  0
   57.5450   28.8660   44.2120 C   0  0  0  0  0  0  0  0  0  0  0  0
   58.2350   30.0550   43.7550 N   0  0  0  0  0  0  0  0  0  0  0  0
   58.1800   32.5470   46.1840 C   0  0  0  0  0  0  0  0  0  0  0  0
   58.7371   33.1491   49.4830 H   0  0  0  0  0  0  0  0  0  0  0  0
   57.5041   32.0654   48.7538 H   0  0  0  0  0  0  0  0  0  0  0  0
   59.2348   31.5847   48.7538 H   0  0  0  0  0  0  0  0  0  0  0  0
   59.8021   34.7991   48.1870 H   0  0  0  0  0  0  0  0  0  0  0  0
   60.0826   35.9437   45.9881 H   0  0  0  0  0  0  0  0  0  0  0  0
   59.1491   34.9208   43.9141 H   0  0  0  0  0  0  0  0  0  0  0  0
   56.8941   33.1383   43.3550 H   0  0  0  0  0  0  0  0  0  0  0  0
   58.5495   32.5843   42.9160 H   0  0  0  0  0  0  0  0  0  0  0  0
   56.0388   29.1589   45.7640 H   0  0  0  0  0  0  0  0  0  0  0  0
   55.3465   28.9399   44.1549 H   0  0  0  0  0  0  0  0  0  0  0  0
   58.0958   28.3845   45.0334 H   0  0  0  0  0  0  0  0  0  0  0  0
   57.4468   28.1024   43.4264 H   0  0  0  0  0  0  0  0  0  0  0  0
   59.2050   30.0940   43.3690 H   0  0  0  0  0  0  0  0  0  0  0  0
   57.6408   31.5898   46.2399 H   0  0  0  0  0  0  0  0  0  0  0  0
  1  2  1  0
  2  3  2  0
  3  4  1  0
  4  5  2  0
  5  6  1  0
  6  7  1  0
  7  8  1  0
  8  9  2  0
  9 10  1  0
 10 11  1  0
 11 12  1  0
  6 13  2  0
 13  2  1  0
 12  8  1  0
  1 14  1  0
  1 15  1  0
  1 16  1  0
  3 17  1  0
  4 18  1  0
  5 19  1  0
  7 20  1  0
  7 21  1  0
 10 22  1  0
 10 23  1  0
 11 24  1  0
 11 25  1  0
 12 26  1  0
 13 27  1  0
M  END
>  <UniqueID>  (43) 
41

>  <SMILES>  (43) 
Cc1cccc(CC2=NCCN2)c1

>  <Energy>  (43) 
34.862866675482245

>  <Genealogy>  (43) 
Cc1cccc(CC2=NCCN2)c1 (3D coordinates assigned)
Cc1cccc(CC2=NCCN2)c1 (nonaromatic ring conformer: 34.862866675482245 kcal/mol)

>  <smiles>  (43) 
Cc1cccc(CC2=NCCN2)c1

>  <score_type>  (43) 
oracle

>  <origin>  (43) 
adg

>  <m_score__min__energy>  (43) 
-5.9199999999999999

>  <m_primary>  (43) 
energy

$$$$
43:0
     RDKit          3D

 54 57  0  0  0  0  0  0  0  0999 V2000
   64.7584   34.3205   48.6965 H   0  0  0  0  0  0  0  0  0  0  0  0
   64.2760   33.4710   49.2020 C   0  0  0  0  0  0  0  0  0  0  0  0
   62.9430   33.3620   49.1190 C   0  0  0  0  0  0  0  0  0  0  0  0
   62.1540   33.3330   47.9080 C   0  0  0  0  0  0  0  0  0  0  0  0
   62.5860   33.4010   46.7270 O   0  0  0  0  0  0  0  0  0  0  0  0
   60.7930   33.1430   48.2680 N   0  0  0  0  0  0  0  0  0  0  0  0
   59.7700   32.6620   47.3810 C   0  0  0  0  0  0  0  0  0  0  0  0
   59.7510   31.3210   46.9640 C   0  0  0  0  0  0  0  0  0  0  0  0
   60.5281   30.6270   47.3170 H   0  0  0  0  0  0  0  0  0  0  0  0
   58.7500   30.8640   46.1030 C   0  0  0  0  0  0  0  0  0  0  0  0
   58.7411   29.8102   45.7877 H   0  0  0  0  0  0  0  0  0  0  0  0
   57.7580   31.7360   45.6380 C   0  0  0  0  0  0  0  0  0  0  0  0
   56.7750   31.2270   44.7760 O   0  0  0  0  0  0  0  0  0  0  0  0
   57.0230   30.7930   43.4440 C   0  0  0  0  0  0  0  0  0  0  0  0
   57.5686   29.8381   43.4651 H   0  0  0  0  0  0  0  0  0  0  0  0
   56.0662   30.6571   42.9185 H   0  0  0  0  0  0  0  0  0  0  0  0
   57.6259   31.5483   42.9185 H   0  0  0  0  0  0  0  0  0  0  0  0
   57.7820   33.0810   46.0480 C   0  0  0  0  0  0  0  0  0  0  0  0
   57.0090   33.7764   45.6891 H   0  0  0  0  0  0  0  0  0  0  0  0
   58.7840   33.5390   46.9100 C   0  0  0  0  0  0  0  0  0  0  0  0
   58.7979   34.5943   47.2200 H   0  0  0  0  0  0  0  0  0  0  0  0
   60.8360   33.0390   49.7050 C   0  0  0  0  0  0  0  0  0  0  0  0
   59.6340   32.8950   50.5590 C   0  0  0  0  0  0  0  0  0  0  0  0
   59.3640   33.8280   51.5770 C   0  0  0  0  0  0  0  0  0  0  0  0
   60.0488   34.6731   51.7407 H   0  0  0  0  0  0  0  0  0  0  0  0
   58.2300   33.6860   52.3810 C   0  0  0  0  0  0  0  0  0  0  0  0
   58.0258   34.4181   53.1762 H   0  0  0  0  0  0  0  0  0  0  0  0
   57.3550   32.6160   52.1770 C   0  0  0  0  0  0  0  0  0  0  0  0
   56.4647   32.5045   52.8133 H   0  0  0  0  0  0  0  0  0  0  0  0
   57.6110   31.6880   51.1650 C   0  0  0  0  0  0  0  0  0  0  0  0
   56.9209   30.8467   51.0037 H   0  0  0  0  0  0  0  0  0  0  0  0
   58.7430   31.8270   50.3570 C   0  0  0  0  0  0  0  0  0  0  0  0
   58.9377   31.0962   49.5583 H   0  0  0  0  0  0  0  0  0  0  0  0
   62.0350   33.1590   50.2020 N   0  0  0  0  0  0  0  0  0  0  0  0
   62.2730   33.1130   51.2160 H   0  0  0  0  0  0  0  0  0  0  0  0
   65.1350   32.5180   49.9320 C   0  0  0  0  0  0  0  0  0  0  0  0
   66.4890   32.8190   50.1160 C   0  0  0  0  0  0  0  0  0  0  0  0
   66.9044   33.7461   49.6943 H   0  0  0  0  0  0  0  0  0  0  0  0
   67.3180   31.9500   50.8320 C   0  0  0  0  0  0  0  0  0  0  0  0
   68.3836   32.1937   50.9546 H   0  0  0  0  0  0  0  0  0  0  0  0
   66.8050   30.7650   51.3990 C   0  0  0  0  0  0  0  0  0  0  0  0
   67.6660   29.8590   52.1410 N   0  0  0  0  0  0  0  0  0  0  0  0
   68.4660   30.3480   53.2690 C   0  0  0  0  0  0  0  0  0  0  0  0
   67.9855   30.0543   54.2139 H   0  0  0  0  0  0  0  0  0  0  0  0
   69.4746   29.9119   53.2195 H   0  0  0  0  0  0  0  0  0  0  0  0
   68.5378   31.4445   53.2195 H   0  0  0  0  0  0  0  0  0  0  0  0
   67.7470   28.4400   51.7750 C   0  0  0  0  0  0  0  0  0  0  0  0
   67.7820   27.8273   52.6879 H   0  0  0  0  0  0  0  0  0  0  0  0
   66.8632   28.1634   51.1814 H   0  0  0  0  0  0  0  0  0  0  0  0
   68.6566   28.2658   51.1814 H   0  0  0  0  0  0  0  0  0  0  0  0
   65.4320   30.4870   51.2340 C   0  0  0  0  0  0  0  0  0  0  0  0
   65.0059   29.5732   51.6738 H   0  0  0  0  0  0  0  0  0  0  0  0
   64.6070   31.3580   50.5190 C   0  0  0  0  0  0  0  0  0  0  0  0
   63.5353   31.1330   50.4152 H   0  0  0  0  0  0  0  0  0  0  0  0
  1  2  1  0
  2  3  2  0
  3  4  1  0
  4  5  2  0
  4  6  1  0
  6  7  1  0
  7  8  2  0
  8  9  1  0
  8 10  1  0
 10 11  1  0
 10 12  2  0
 12 13  1  0
 13 14  1  0
 14 15  1  0
 14 16  1  0
 14 17  1  0
 12 18  1  0
 18 19  1  0
 18 20  2  0
 20 21  1  0
  6 22  1  0
 22 23  1  0
 23 24  2  0
 24 25  1  0
 24 26  1  0
 26 27  1  0
 26 28  2  0
 28 29  1  0
 28 30  1  0
 30 31  1  0
 30 32  2  0
 32 33  1  0
 22 34  2  0
 34 35  1  0
  2 36  1  0
 36 37  2  0
 37 38  1  0
 37 39  1  0
 39 40  1  0
 39 41  2  0
 41 42  1  0
 42 43  1  0
 43 44  1  0
 43 45  1  0
 43 46  1  0
 42 47  1  0
 47 48  1  0
 47 49  1  0
 47 50  1  0
 41 51  1  0
 51 52  1  0
 51 53  2  0
 53 54  1  0
 34  3  1  0
 53 36  1  0
 20  7  1  0
 32 23  1  0
M  CHG  1  34   1
M  END
>  <UniqueID>  (44) 
42

>  <SMILES>  (44) 
COc1ccc(N2C(=O)/C(=C/c3ccc(N(C)C)cc3)[NH+]=C2c2ccccc2)cc1

>  <Energy>  (44) 
101.9088690710544

>  <Genealogy>  (44) 
COc1ccc(N2C(=O)C(=Cc3ccc(N(C)C)cc3)[NH+]=C2c2ccccc2)cc1 (protonated)
COc1ccc(N2C(=O)/C(=C/c3ccc(N(C)C)cc3)[NH+]=C2c2ccccc2)cc1 (cis-trans isomerization)
COc1ccc(N2C(=O)/C(=C/c3ccc(N(C)C)cc3)[NH+]=C2c2ccccc2)cc1 (3D coordinates assigned)
COc1ccc(N2C(=O)/C(=C/c3ccc(N(C)C)cc3)[NH+]=C2c2ccccc2)cc1 (nonaromatic ring conformer: 101.9088690710544 kcal/mol)

>  <smiles>  (44) 
COc1ccc(N2C(=O)C(=Cc3ccc(N(C)C)cc3)N=C2c2ccccc2)cc1

>  <score_type>  (44) 
oracle

>  <origin>  (44) 
adg

>  <m_score__min__energy>  (44) 
-6.5700000000000003

>  <m_primary>  (44) 
energy

$$$$
44:0
     RDKit          3D

 54 56  0  0  0  0  0  0  0  0999 V2000
   62.9750   31.6250   50.7490 C   0  0  0  0  0  0  0  0  0  0  0  0
   63.7470   31.9630   49.4760 C   0  0  0  0  0  0  0  0  0  0  0  0
   62.8910   32.7290   48.5420 N   0  0  0  0  0  0  0  0  0  0  0  0
   63.3270   32.5420   47.1380 C   0  0  0  0  0  0  0  0  0  0  0  0
   63.3530   33.8840   46.4140 C   0  0  0  0  0  0  0  0  0  0  0  0
   62.8260   34.1650   48.9080 C   0  0  0  0  0  0  0  0  0  0  0  0
   61.3930   34.5470   49.2730 C   0  0  0  0  0  0  0  0  0  0  0  0
   60.4720   33.6730   48.6310 O   0  0  0  0  0  0  0  0  0  0  0  0
   59.9030   33.9520   47.3860 C   0  0  0  0  0  0  0  0  0  0  0  0
   59.9670   35.1130   46.8990 O   0  0  0  0  0  0  0  0  0  0  0  0
   59.2280   32.8710   46.6540 C   0  0  0  0  0  0  0  0  0  0  0  0
   58.6540   33.0480   45.4380 N   0  0  0  0  0  0  0  0  0  0  0  0
   58.1620   31.8250   45.1380 C   0  0  0  0  0  0  0  0  0  0  0  0
   57.4750   31.4870   43.9740 C   0  0  0  0  0  0  0  0  0  0  0  0
   57.0470   30.1510   43.8250 C   0  0  0  0  0  0  0  0  0  0  0  0
   56.2700   29.7410   42.6100 C   0  0  0  0  0  0  0  0  0  0  0  0
   57.2980   29.2140   44.8540 C   0  0  0  0  0  0  0  0  0  0  0  0
   57.9940   29.6140   46.0040 C   0  0  0  0  0  0  0  0  0  0  0  0
   58.3950   30.9070   46.0900 N   0  0  0  0  0  0  0  0  0  0  0  0
   59.0640   31.5510   47.0540 C   0  0  0  0  0  0  0  0  0  0  0  0
   59.5450   30.9350   48.2540 N   0  0  0  0  0  0  0  0  0  0  0  0
   58.9420   31.2880   49.5390 C   0  0  0  0  0  0  0  0  0  0  0  0
   59.0540   30.0990   50.4990 C   0  0  0  0  0  0  0  0  0  0  0  0
   60.3870   29.6250   50.5590 O   0  0  0  0  0  0  0  0  0  0  0  0
   60.7650   29.0930   49.3020 C   0  0  0  0  0  0  0  0  0  0  0  0
   60.8040   30.1930   48.2370 C   0  0  0  0  0  0  0  0  0  0  0  0
   63.5818   31.8906   51.6272 H   0  0  0  0  0  0  0  0  0  0  0  0
   62.0333   32.1932   50.7685 H   0  0  0  0  0  0  0  0  0  0  0  0
   62.7537   30.5477   50.7685 H   0  0  0  0  0  0  0  0  0  0  0  0
   64.6294   32.5659   49.7364 H   0  0  0  0  0  0  0  0  0  0  0  0
   64.0591   31.0275   48.9887 H   0  0  0  0  0  0  0  0  0  0  0  0
   64.3353   32.1024   47.1257 H   0  0  0  0  0  0  0  0  0  0  0  0
   62.6199   31.8714   46.6278 H   0  0  0  0  0  0  0  0  0  0  0  0
   63.3688   34.6989   47.1527 H   0  0  0  0  0  0  0  0  0  0  0  0
   64.2525   33.9431   45.7835 H   0  0  0  0  0  0  0  0  0  0  0  0
   62.4565   33.9779   45.7835 H   0  0  0  0  0  0  0  0  0  0  0  0
   63.4834   34.3513   49.7700 H   0  0  0  0  0  0  0  0  0  0  0  0
   63.1539   34.7712   48.0507 H   0  0  0  0  0  0  0  0  0  0  0  0
   61.2640   34.4736   50.3629 H   0  0  0  0  0  0  0  0  0  0  0  0
   61.2008   35.5777   48.9402 H   0  0  0  0  0  0  0  0  0  0  0  0
   57.2728   32.2379   43.1960 H   0  0  0  0  0  0  0  0  0  0  0  0
   55.3367   29.2485   42.9206 H   0  0  0  0  0  0  0  0  0  0  0  0
   56.0325   30.6312   42.0090 H   0  0  0  0  0  0  0  0  0  0  0  0
   56.8708   29.0425   42.0090 H   0  0  0  0  0  0  0  0  0  0  0  0
   56.9488   28.1758   44.7529 H   0  0  0  0  0  0  0  0  0  0  0  0
   58.2085   28.8999   46.8128 H   0  0  0  0  0  0  0  0  0  0  0  0
   59.4685   32.1546   49.9655 H   0  0  0  0  0  0  0  0  0  0  0  0
   57.8818   31.5404   49.3898 H   0  0  0  0  0  0  0  0  0  0  0  0
   58.7384   30.4159   51.5040 H   0  0  0  0  0  0  0  0  0  0  0  0
   58.4075   29.2879   50.1326 H   0  0  0  0  0  0  0  0  0  0  0  0
   61.7629   28.6383   49.3879 H   0  0  0  0  0  0  0  0  0  0  0  0
   60.0249   28.3366   49.0016 H   0  0  0  0  0  0  0  0  0  0  0  0
   61.6367   30.8795   48.4498 H   0  0  0  0  0  0  0  0  0  0  0  0
   60.9470   29.7377   47.2459 H   0  0  0  0  0  0  0  0  0  0  0  0
  1  2  1  0
  2  3  1  0
  3  4  1  0
  4  5  1  0
  3  6  1  0
  6  7  1  0
  7  8  1  0
  8  9  1  0
  9 10  2  0
  9 11  1  0
 11 12  1  0
 12 13  2  0
 13 14  1  0
 14 15  2  0
 15 16  1  0
 15 17  1  0
 17 18  2  0
 18 19  1  0
 19 20  1  0
 20 21  1  0
 21 22  1  0
 22 23  1  0
 23 24  1  0
 24 25  1  0
 25 26  1  0
 20 11  2  0
 26 21  1  0
 19 13  1  0
  1 27  1  0
  1 28  1  0
  1 29  1  0
  2 30  1  0
  2 31  1  0
  4 32  1  0
  4 33  1  0
  5 34  1  0
  5 35  1  0
  5 36  1  0
  6 37  1  0
  6 38  1  0
  7 39  1  0
  7 40  1  0
 14 41  1  0
 16 42  1  0
 16 43  1  0
 16 44  1  0
 17 45  1  0
 18 46  1  0
 22 47  1  0
 22 48  1  0
 23 49  1  0
 23 50  1  0
 25 51  1  0
 25 52  1  0
 26 53  1  0
 26 54  1  0
M  END
>  <UniqueID>  (45) 
43

>  <SMILES>  (45) 
CCN(CC)CCOC(=O)c1nc2cc(C)ccn2c1N1CCOCC1

>  <Energy>  (45) 
90.4808225996077

>  <Genealogy>  (45) 
CCN(CC)CCOC(=O)c1nc2cc(C)ccn2c1N1CCOCC1 (3D coordinates assigned)
CCN(CC)CCOC(=O)c1nc2cc(C)ccn2c1N1CCOCC1 (nonaromatic ring conformer: 90.4808225996077 kcal/mol)

>  <smiles>  (45) 
CCN(CC)CCOC(=O)c1nc2cc(C)ccn2c1N1CCOCC1

>  <score_type>  (45) 
oracle

>  <origin>  (45) 
adg

>  <m_score__min__energy>  (45) 
-6.3899999999999997

>  <m_primary>  (45) 
energy

$$$$
45:0
     RDKit          3D

 35 36  0  0  0  0  0  0  0  0999 V2000
   62.9730   31.4050   47.1400 C   0  0  0  0  0  0  0  0  0  0  0  0
   63.6640   32.5850   47.6880 N   0  0  0  0  0  0  0  0  0  0  0  0
   64.1510   32.3250   49.0550 C   0  0  0  0  0  0  0  0  0  0  0  0
   62.8640   33.8330   47.5810 C   0  0  0  0  0  0  0  0  0  0  0  0
   61.9330   34.1410   48.7780 C   0  0  0  0  0  0  0  0  0  0  0  0
   60.6050   34.5900   48.3550 N   0  0  0  0  0  0  0  0  0  0  0  0
   59.9000   34.0970   47.1990 C   0  0  0  0  0  0  0  0  0  0  0  0
   59.6430   34.9760   46.1350 C   0  0  0  0  0  0  0  0  0  0  0  0
   58.9610   34.5410   44.9970 C   0  0  0  0  0  0  0  0  0  0  0  0
   58.5260   33.2130   44.8990 C   0  0  0  0  0  0  0  0  0  0  0  0
   57.8380   32.7660   43.7600 C   0  0  0  0  0  0  0  0  0  0  0  0
   57.4120   31.4370   43.6760 C   0  0  0  0  0  0  0  0  0  0  0  0
   57.6690   30.5470   44.7220 C   0  0  0  0  0  0  0  0  0  0  0  0
   58.3540   30.9800   45.8610 C   0  0  0  0  0  0  0  0  0  0  0  0
   58.7860   32.3130   45.9600 C   0  0  0  0  0  0  0  0  0  0  0  0
   59.4730   32.7590   47.1000 C   0  0  0  0  0  0  0  0  0  0  0  0
   62.6061   30.7784   47.9663 H   0  0  0  0  0  0  0  0  0  0  0  0
   62.1234   31.7316   46.5223 H   0  0  0  0  0  0  0  0  0  0  0  0
   63.6735   30.8239   46.5223 H   0  0  0  0  0  0  0  0  0  0  0  0
   64.5130   32.7340   47.0910 H   0  0  0  0  0  0  0  0  0  0  0  0
   63.4238   32.7132   49.7833 H   0  0  0  0  0  0  0  0  0  0  0  0
   64.2733   31.2416   49.2008 H   0  0  0  0  0  0  0  0  0  0  0  0
   65.1193   32.8262   49.2008 H   0  0  0  0  0  0  0  0  0  0  0  0
   63.5642   34.6745   47.4728 H   0  0  0  0  0  0  0  0  0  0  0  0
   62.2003   33.6890   46.7157 H   0  0  0  0  0  0  0  0  0  0  0  0
   61.8210   33.2283   49.3817 H   0  0  0  0  0  0  0  0  0  0  0  0
   62.3922   34.9555   49.3574 H   0  0  0  0  0  0  0  0  0  0  0  0
   60.1450   35.3240   48.9400 H   0  0  0  0  0  0  0  0  0  0  0  0
   59.9831   36.0202   46.1986 H   0  0  0  0  0  0  0  0  0  0  0  0
   58.7645   35.2439   44.1740 H   0  0  0  0  0  0  0  0  0  0  0  0
   57.6339   33.4619   42.9329 H   0  0  0  0  0  0  0  0  0  0  0  0
   56.8721   31.0905   42.7824 H   0  0  0  0  0  0  0  0  0  0  0  0
   57.3313   29.5027   44.6490 H   0  0  0  0  0  0  0  0  0  0  0  0
   58.5552   30.2755   46.6815 H   0  0  0  0  0  0  0  0  0  0  0  0
   59.6793   32.0579   47.9221 H   0  0  0  0  0  0  0  0  0  0  0  0
  1  2  1  0
  2  3  1  0
  2  4  1  0
  4  5  1  0
  5  6  1  0
  6  7  1  0
  7  8  2  0
  8  9  1  0
  9 10  2  0
 10 11  1  0
 11 12  2  0
 12 13  1  0
 13 14  2  0
 14 15  1  0
 15 16  2  0
 16  7  1  0
 15 10  1  0
  1 17  1  0
  1 18  1  0
  1 19  1  0
  2 20  1  0
  3 21  1  0
  3 22  1  0
  3 23  1  0
  4 24  1  0
  4 25  1  0
  5 26  1  0
  5 27  1  0
  6 28  1  0
  8 29  1  0
  9 30  1  0
 11 31  1  0
 12 32  1  0
 13 33  1  0
 14 34  1  0
 16 35  1  0
M  CHG  1   2   1
M  END
>  <UniqueID>  (46) 
44

>  <SMILES>  (46) 
C[NH+](C)CCNc1ccc2ccccc2c1

>  <Energy>  (46) 
40.39015654259939

>  <Genealogy>  (46) 
C[NH+](C)CCNc1ccc2ccccc2c1 (protonated)
C[NH+](C)CCNc1ccc2ccccc2c1 (3D coordinates assigned)
C[NH+](C)CCNc1ccc2ccccc2c1 (optimized conformer: 40.39015654259939 kcal/mol)

>  <smiles>  (46) 
CN(C)CCNc1ccc2ccccc2c1

>  <score_type>  (46) 
oracle

>  <origin>  (46) 
adg

>  <m_score__min__energy>  (46) 
-4.6500000000000004

>  <m_primary>  (46) 
energy

$$$$
46:0
     RDKit          3D

 36 38  0  0  0  0  0  0  0  0999 V2000
   58.5220   31.9670   49.4450 C   0  0  0  0  0  0  0  0  0  0  0  0
   59.0430   32.6780   48.2370 C   0  0  0  0  0  0  0  0  0  0  0  0
   60.4140   32.9020   48.0780 C   0  0  0  0  0  0  0  0  0  0  0  0
   60.8550   33.5770   46.9340 C   0  0  0  0  0  0  0  0  0  0  0  0
   62.3130   33.8160   46.7120 C   0  0  0  0  0  0  0  0  0  0  0  0
   59.9510   33.9830   46.0040 N   0  0  0  0  0  0  0  0  0  0  0  0
   58.6210   33.7620   46.1760 C   0  0  0  0  0  0  0  0  0  0  0  0
   57.4550   34.2690   44.9140 S   0  0  0  0  0  0  0  0  0  0  0  0
   57.9080   32.9430   43.7400 C   0  0  0  0  0  0  0  0  0  0  0  0
   57.5480   31.6000   44.2910 C   0  0  0  0  0  0  0  0  0  0  0  0
   58.4180   30.6670   44.8080 C   0  0  0  0  0  0  0  0  0  0  0  0
   57.6550   29.6820   45.3180 N   0  0  0  0  0  0  0  0  0  0  0  0
   58.0910   28.5020   46.0220 C   0  0  0  0  0  0  0  0  0  0  0  0
   59.1820   28.5460   46.9130 C   0  0  0  0  0  0  0  0  0  0  0  0
   59.5800   27.3950   47.6010 C   0  0  0  0  0  0  0  0  0  0  0  0
   58.8970   26.1920   47.4110 C   0  0  0  0  0  0  0  0  0  0  0  0
   57.8120   26.1370   46.5330 C   0  0  0  0  0  0  0  0  0  0  0  0
   57.4080   27.2850   45.8450 C   0  0  0  0  0  0  0  0  0  0  0  0
   56.3840   30.0010   45.1130 N   0  0  0  0  0  0  0  0  0  0  0  0
   56.2880   31.1700   44.4960 N   0  0  0  0  0  0  0  0  0  0  0  0
   58.1760   33.1240   47.2900 N   0  0  0  0  0  0  0  0  0  0  0  0
   58.8894   32.4684   50.3525 H   0  0  0  0  0  0  0  0  0  0  0  0
   57.4222   31.9856   49.4355 H   0  0  0  0  0  0  0  0  0  0  0  0
   58.8711   30.9239   49.4355 H   0  0  0  0  0  0  0  0  0  0  0  0
   61.1312   32.5549   48.8364 H   0  0  0  0  0  0  0  0  0  0  0  0
   62.8229   33.8996   47.6831 H   0  0  0  0  0  0  0  0  0  0  0  0
   62.7401   32.9759   46.1447 H   0  0  0  0  0  0  0  0  0  0  0  0
   62.4495   34.7485   46.1447 H   0  0  0  0  0  0  0  0  0  0  0  0
   57.3704   33.1003   42.7933 H   0  0  0  0  0  0  0  0  0  0  0  0
   58.9948   32.9759   43.5732 H   0  0  0  0  0  0  0  0  0  0  0  0
   59.5169   30.7163   44.8050 H   0  0  0  0  0  0  0  0  0  0  0  0
   59.7236   29.4908   47.0683 H   0  0  0  0  0  0  0  0  0  0  0  0
   60.4334   27.4377   48.2937 H   0  0  0  0  0  0  0  0  0  0  0  0
   59.2132   25.2882   47.9524 H   0  0  0  0  0  0  0  0  0  0  0  0
   57.2747   25.1890   46.3827 H   0  0  0  0  0  0  0  0  0  0  0  0
   56.5490   27.2362   45.1596 H   0  0  0  0  0  0  0  0  0  0  0  0
  1  2  1  0
  2  3  2  0
  3  4  1  0
  4  5  1  0
  4  6  2  0
  6  7  1  0
  7  8  1  0
  8  9  1  0
  9 10  1  0
 10 11  2  0
 11 12  1  0
 12 13  1  0
 13 14  2  0
 14 15  1  0
 15 16  2  0
 16 17  1  0
 17 18  2  0
 12 19  1  0
 19 20  2  0
  7 21  2  0
 21  2  1  0
 20 10  1  0
 18 13  1  0
  1 22  1  0
  1 23  1  0
  1 24  1  0
  3 25  1  0
  5 26  1  0
  5 27  1  0
  5 28  1  0
  9 29  1  0
  9 30  1  0
 11 31  1  0
 14 32  1  0
 15 33  1  0
 16 34  1  0
 17 35  1  0
 18 36  1  0
M  END
>  <UniqueID>  (47) 
45

>  <SMILES>  (47) 
Cc1cc(C)nc(SCc2cn(-c3ccccc3)nn2)n1

>  <Energy>  (47) 
67.10341468391488

>  <Genealogy>  (47) 
Cc1cc(C)nc(SCc2cn(-c3ccccc3)nn2)n1 (3D coordinates assigned)
Cc1cc(C)nc(SCc2cn(-c3ccccc3)nn2)n1 (optimized conformer: 67.10341468391488 kcal/mol)

>  <smiles>  (47) 
Cc1cc(C)nc(SCc2cn(-c3ccccc3)nn2)n1

>  <score_type>  (47) 
oracle

>  <origin>  (47) 
adg

>  <m_score__min__energy>  (47) 
-7.8700000000000001

>  <m_primary>  (47) 
energy

$$$$
