0:0
     RDKit          3D

 30 31  0  0  0  0  0  0  0  0999 V2000
   57.5600   31.2500   43.3140 C   0  0  0  0  0  0  0  0  0  0  0  0
   57.1540   31.1730   44.7330 N   0  0  0  0  0  0  0  0  0  0  0  0
   56.9840   32.5340   45.2670 C   0  0  0  0  0  0  0  0  0  0  0  0
   58.3220   32.9780   45.8570 C   0  0  0  0  0  0  0  0  0  0  0  0
   59.1600   31.7140   45.9620 C   0  0  0  0  0  0  0  0  0  0  0  0
   58.1890   30.5910   45.6150 C   0  0  2  0  0  0  0  0  0  0  0  0
   58.9010   29.3200   45.0830 C   0  0  0  0  0  0  0  0  0  0  0  0
   58.2230   28.0450   45.5270 C   0  0  0  0  0  0  0  0  0  0  0  0
   58.9860   26.9490   45.9710 C   0  0  0  0  0  0  0  0  0  0  0  0
   58.3550   25.7760   46.3980 C   0  0  0  0  0  0  0  0  0  0  0  0
   56.9600   25.6900   46.4000 C   0  0  0  0  0  0  0  0  0  0  0  0
   56.1930   26.7810   45.9850 C   0  0  0  0  0  0  0  0  0  0  0  0
   54.8050   26.7000   46.0030 O   0  0  0  0  0  0  0  0  0  0  0  0
   56.8200   27.9560   45.5580 C   0  0  0  0  0  0  0  0  0  0  0  0
   58.6390   31.4546   43.2519 H   0  0  0  0  0  0  0  0  0  0  0  0
   57.3389   30.2939   42.8170 H   0  0  0  0  0  0  0  0  0  0  0  0
   57.0042   32.0588   42.8170 H   0  0  0  0  0  0  0  0  0  0  0  0
   56.6866   33.2182   44.4586 H   0  0  0  0  0  0  0  0  0  0  0  0
   56.2013   32.5472   46.0398 H   0  0  0  0  0  0  0  0  0  0  0  0
   58.8101   33.7088   45.1955 H   0  0  0  0  0  0  0  0  0  0  0  0
   58.1948   33.4653   46.8349 H   0  0  0  0  0  0  0  0  0  0  0  0
   59.9968   31.7404   45.2485 H   0  0  0  0  0  0  0  0  0  0  0  0
   59.6102   31.5887   46.9578 H   0  0  0  0  0  0  0  0  0  0  0  0
   57.6890   30.1991   46.5130 H   0  0  0  0  0  0  0  0  0  0  0  0
   58.9047   29.3525   43.9835 H   0  0  0  0  0  0  0  0  0  0  0  0
   59.9220   29.3142   45.4924 H   0  0  0  0  0  0  0  0  0  0  0  0
   60.0840   27.0151   45.9823 H   0  0  0  0  0  0  0  0  0  0  0  0
   58.9581   24.9192   46.7330 H   0  0  0  0  0  0  0  0  0  0  0  0
   56.4663   24.7634   46.7283 H   0  0  0  0  0  0  0  0  0  0  0  0
   56.2112   28.8167   45.2441 H   0  0  0  0  0  0  0  0  0  0  0  0
  1  2  1  0
  2  3  1  0
  3  4  1  0
  4  5  1  0
  5  6  1  0
  6  7  1  0
  7  8  1  0
  8  9  2  0
  9 10  1  0
 10 11  2  0
 11 12  1  0
 12 13  1  0
 12 14  2  0
  6  2  1  0
 14  8  1  0
  1 15  1  0
  1 16  1  0
  1 17  1  0
  3 18  1  0
  3 19  1  0
  4 20  1  0
  4 21  1  0
  5 22  1  0
  5 23  1  0
  6 24  1  1
  7 25  1  0
  7 26  1  0
  9 27  1  0
 10 28  1  0
 11 29  1  0
 14 30  1  0
M  CHG  1  13  -1
M  END
>  <UniqueID>  (1) 
1

>  <SMILES>  (1) 
CN1CCC[C@@H]1Cc1cccc([O-])c1

>  <Energy>  (1) 
35.472848584736425

>  <Genealogy>  (1) 
CN1CCCC1Cc1cccc([O-])c1 (protonated)
CN1CCC[C@@H]1Cc1cccc([O-])c1 (chirality)
CN1CCC[C@@H]1Cc1cccc([O-])c1 (3D coordinates assigned)
CN1CCC[C@@H]1Cc1cccc([O-])c1 (nonaromatic ring conformer: 35.472848584736425 kcal/mol)

>  <smiles>  (1) 
CN1CCCC1Cc1cccc(O)c1

>  <score_type>  (1) 
oracle

>  <origin>  (1) 
adg

>  <m_score__min__energy>  (1) 
-9.9800000000000004

>  <m_primary>  (1) 
energy

$$$$
1:0
     RDKit          3D

 42 45  0  0  0  0  0  0  0  0999 V2000
   54.8360   29.1340   42.5910 H   0  0  0  0  0  0  0  0  0  0  0  0
   54.7260   29.3570   43.6060 N   0  0  0  0  0  0  0  0  0  0  0  0
   55.7390   29.6960   44.3370 C   0  0  0  0  0  0  0  0  0  0  0  0
   56.2860   28.8070   45.2080 N   0  0  0  0  0  0  0  0  0  0  0  0
   57.3510   29.1390   45.9840 C   0  0  0  0  0  0  0  0  0  0  0  0
   57.7763   28.4048   46.6841 H   0  0  0  0  0  0  0  0  0  0  0  0
   57.9060   30.4280   45.8860 C   0  0  0  0  0  0  0  0  0  0  0  0
   59.0660   30.8520   46.7120 C   0  0  0  0  0  0  0  0  0  0  0  0
   60.3680   30.4010   46.4340 C   0  0  0  0  0  0  0  0  0  0  0  0
   60.5379   29.7079   45.5969 H   0  0  0  0  0  0  0  0  0  0  0  0
   61.4470   30.8250   47.2110 C   0  0  0  0  0  0  0  0  0  0  0  0
   62.4575   30.4541   46.9844 H   0  0  0  0  0  0  0  0  0  0  0  0
   61.2600   31.7210   48.2810 C   0  0  0  0  0  0  0  0  0  0  0  0
   62.4460   32.2200   49.0990 C   0  0  0  0  0  0  0  0  0  0  0  0
   62.3330   31.5539   49.9670 H   0  0  0  0  0  0  0  0  0  0  0  0
   62.5050   33.7350   49.3060 C   0  0  0  0  0  0  0  0  0  0  0  0
   61.6753   34.2853   48.8384 H   0  0  0  0  0  0  0  0  0  0  0  0
   62.4458   34.1626   50.3177 H   0  0  0  0  0  0  0  0  0  0  0  0
   63.8100   33.7880   48.5190 C   0  0  0  0  0  0  0  0  0  0  0  0
   63.7475   34.3674   47.5861 H   0  0  0  0  0  0  0  0  0  0  0  0
   64.7030   34.2580   48.9568 H   0  0  0  0  0  0  0  0  0  0  0  0
   63.7570   32.2780   48.3170 C   0  0  0  0  0  0  0  0  0  0  0  0
   63.6668   31.9684   47.2653 H   0  0  0  0  0  0  0  0  0  0  0  0
   64.6087   31.6467   48.6102 H   0  0  0  0  0  0  0  0  0  0  0  0
   59.9460   32.1430   48.5880 C   0  0  0  0  0  0  0  0  0  0  0  0
   59.6760   32.9770   49.6790 O   0  0  0  0  0  0  0  0  0  0  0  0
   58.9370   32.5830   50.8050 C   0  0  0  0  0  0  0  0  0  0  0  0
   58.6920   33.4470   51.8890 C   0  0  0  0  0  0  0  0  0  0  0  0
   59.0894   34.4726   51.8744 H   0  0  0  0  0  0  0  0  0  0  0  0
   57.9650   33.0160   52.9540 N   0  0  0  0  0  0  0  0  0  0  0  0
   57.4600   31.7550   53.0130 C   0  0  0  0  0  0  0  0  0  0  0  0
   56.8738   31.4383   53.8883 H   0  0  0  0  0  0  0  0  0  0  0  0
   57.6850   30.8600   51.9620 C   0  0  0  0  0  0  0  0  0  0  0  0
   57.1800   29.5640   52.0050 O   0  0  0  0  0  0  0  0  0  0  0  0
   56.2690   29.3370   51.6230 H   0  0  0  0  0  0  0  0  0  0  0  0
   58.4300   31.2810   50.8580 C   0  0  0  0  0  0  0  0  0  0  0  0
   58.6186   30.5855   50.0269 H   0  0  0  0  0  0  0  0  0  0  0  0
   58.8730   31.7340   47.7880 C   0  0  0  0  0  0  0  0  0  0  0  0
   57.8621   32.1093   48.0054 H   0  0  0  0  0  0  0  0  0  0  0  0
   57.3420   31.3130   45.0170 N   0  0  0  0  0  0  0  0  0  0  0  0
   56.2780   30.9800   44.2420 C   0  0  0  0  0  0  0  0  0  0  0  0
   55.8454   31.7144   43.5466 H   0  0  0  0  0  0  0  0  0  0  0  0
  1  2  1  0
  2  3  2  0
  3  4  1  0
  4  5  1  0
  5  6  1  0
  5  7  2  0
  7  8  1  0
  8  9  2  0
  9 10  1  0
  9 11  1  0
 11 12  1  0
 11 13  2  0
 13 14  1  0
 14 15  1  0
 14 16  1  0
 16 17  1  0
 16 18  1  0
 16 19  1  0
 19 20  1  0
 19 21  1  0
 19 22  1  0
 22 23  1  0
 22 24  1  0
 13 25  1  0
 25 26  1  0
 26 27  1  0
 27 28  2  0
 28 29  1  0
 28 30  1  0
 30 31  2  0
 31 32  1  0
 31 33  1  0
 33 34  1  0
 34 35  1  0
 33 36  2  0
 36 37  1  0
 25 38  2  0
 38 39  1  0
  7 40  1  0
 40 41  2  0
 41 42  1  0
 41  3  1  0
 38  8  1  0
 22 14  1  0
 36 27  1  0
M  CHG  1   4  -1
M  END
>  <UniqueID>  (2) 
2

>  <SMILES>  (2) 
[H]/N=c1/cnc(-c2ccc(C3CCC3)c(Oc3cncc(O)c3)c2)c[n-]1

>  <Energy>  (2) 
121.75492104105837

>  <Genealogy>  (2) 
N=c1cnc(-c2ccc(C3CCC3)c(Oc3cncc(O)c3)c2)c[n-]1 (protonated)
[H]/N=c1/cnc(-c2ccc(C3CCC3)c(Oc3cncc(O)c3)c2)c[n-]1 (cis-trans isomerization)
[H]/N=c1/cnc(-c2ccc(C3CCC3)c(Oc3cncc(O)c3)c2)c[n-]1 (3D coordinates assigned)
[H]/N=c1/cnc(-c2ccc(C3CCC3)c(Oc3cncc(O)c3)c2)c[n-]1 (nonaromatic ring conformer: 121.75492104105837 kcal/mol)

>  <smiles>  (2) 
N=c1cnc(-c2ccc(C3CCC3)c(Oc3cncc(O)c3)c2)c[nH]1

>  <score_type>  (2) 
oracle

>  <origin>  (2) 
adg

>  <m_score__min__energy>  (2) 
-9.1500000000000004

>  <m_primary>  (2) 
energy

$$$$
2:0
     RDKit          3D

 31 32  0  0  1  0  0  0  0  0999 V2000
   60.0340   28.0030   47.5380 C   0  0  0  0  0  0  0  0  0  0  0  0
   58.5850   27.6240   47.4440 C   0  0  0  0  0  0  0  0  0  0  0  0
   58.2890   26.8530   46.1580 C   0  0  0  0  0  0  0  0  0  0  0  0
   56.9720   27.3000   45.7440 N   0  0  0  0  0  0  0  0  0  0  0  0
   56.7990   28.4640   45.2940 C   0  0  0  0  0  0  0  0  0  0  0  0
   55.7730   29.2650   45.0980 N   0  0  0  0  0  0  0  0  0  0  0  0
   56.0300   30.4210   44.5970 N   0  0  0  0  0  0  0  0  0  0  0  0
   57.0300   30.9080   44.2750 C   0  0  0  0  0  0  0  0  0  0  0  0
   57.8000   32.3950   43.5750 S   0  0  0  0  0  0  0  0  0  0  0  0
   57.5680   33.6960   44.7740 C   0  0  0  0  0  0  0  0  0  0  0  0
   56.7840   34.6630   44.6030 O   0  0  0  0  0  0  0  0  0  0  0  0
   58.3240   33.6400   46.0120 C   0  0  0  0  0  0  0  0  0  0  0  0
   59.3250   34.5730   46.2090 C   0  0  0  0  0  0  0  0  0  0  0  0
   60.0980   34.6030   47.3500 C   0  0  0  0  0  0  0  0  0  0  0  0
   59.8620   33.6650   48.3320 C   0  0  0  0  0  0  0  0  0  0  0  0
   58.8690   32.7370   48.1390 C   0  0  0  0  0  0  0  0  0  0  0  0
   58.0830   32.6980   46.9910 C   0  0  0  0  0  0  0  0  0  0  0  0
   58.2370   29.5080   44.6900 S   0  0  0  0  0  0  0  0  0  0  0  0
   60.3252   28.0792   48.5960 H   0  0  0  0  0  0  0  0  0  0  0  0
   60.6467   27.2349   47.0434 H   0  0  0  0  0  0  0  0  0  0  0  0
   60.1922   28.9727   47.0434 H   0  0  0  0  0  0  0  0  0  0  0  0
   58.3240   26.9934   48.3067 H   0  0  0  0  0  0  0  0  0  0  0  0
   57.9869   28.5472   47.4379 H   0  0  0  0  0  0  0  0  0  0  0  0
   59.0368   27.0877   45.3862 H   0  0  0  0  0  0  0  0  0  0  0  0
   58.3252   25.7645   46.3124 H   0  0  0  0  0  0  0  0  0  0  0  0
   54.7730   28.9610   45.3460 H   0  0  0  0  0  0  0  0  0  0  0  0
   59.5120   35.3209   45.4243 H   0  0  0  0  0  0  0  0  0  0  0  0
   60.8867   35.3597   47.4742 H   0  0  0  0  0  0  0  0  0  0  0  0
   60.4597   33.6601   49.2554 H   0  0  0  0  0  0  0  0  0  0  0  0
   58.6864   31.9911   48.9266 H   0  0  0  0  0  0  0  0  0  0  0  0
   57.2949   31.9405   46.8681 H   0  0  0  0  0  0  0  0  0  0  0  0
  1  2  1  0
  2  3  1  0
  3  4  1  0
  4  5  2  0
  5  6  1  0
  6  7  1  0
  7  8  2  0
  8  9  1  0
  9 10  1  0
 10 11  2  0
 10 12  1  0
 12 13  2  0
 13 14  1  0
 14 15  2  0
 15 16  1  0
 16 17  2  0
  8 18  1  0
 18  5  1  0
 17 12  1  0
  1 19  1  0
  1 20  1  0
  1 21  1  0
  2 22  1  0
  2 23  1  0
  3 24  1  0
  3 25  1  0
  6 26  1  0
 13 27  1  0
 14 28  1  0
 15 29  1  0
 16 30  1  0
 17 31  1  0
M  END
>  <smiles>  (3) 
CCCN=c1[nH]nc(SC(=O)c2ccccc2)s1

>  <score_type>  (3) 
oracle

>  <origin>  (3) 
adg

>  <m_score__min__energy>  (3) 
-7.54

>  <m_primary>  (3) 
energy

$$$$
3:0
     RDKit          3D

 44 46  0  0  0  0  0  0  0  0999 V2000
   57.3810   33.8450   45.4690 C   0  0  0  0  0  0  0  0  0  0  0  0
   58.2720   33.0420   44.5160 C   0  0  0  0  0  0  0  0  0  0  0  0
   57.8280   31.6100   44.5230 C   0  0  0  0  0  0  0  0  0  0  0  0
   57.2080   31.1780   43.3520 C   0  0  0  0  0  0  0  0  0  0  0  0
   56.7740   29.8500   43.3050 C   0  0  0  0  0  0  0  0  0  0  0  0
   56.9620   29.0150   44.3910 C   0  0  0  0  0  0  0  0  0  0  0  0
   57.5820   29.4590   45.5510 C   0  0  0  0  0  0  0  0  0  0  0  0
   57.7610   28.5280   46.6870 C   0  0  0  0  0  0  0  0  0  0  0  0
   58.6600   27.4540   46.3170 N   0  0  0  0  0  0  0  0  0  0  0  0
   58.1120   26.2140   45.8860 C   0  0  0  0  0  0  0  0  0  0  0  0
   56.7520   26.1700   45.6180 C   0  0  0  0  0  0  0  0  0  0  0  0
   56.0940   25.0410   45.1960 C   0  0  0  0  0  0  0  0  0  0  0  0
   56.8430   23.8980   45.0350 C   0  0  0  0  0  0  0  0  0  0  0  0
   56.2200   22.7750   44.6210 N   0  0  0  0  0  0  0  0  0  0  0  0
   56.9060   21.6300   44.4480 C   0  0  0  0  0  0  0  0  0  0  0  0
   56.2700   20.5720   44.0480 N   0  0  0  0  0  0  0  0  0  0  0  0
   58.2280   21.5970   44.6870 N   0  0  0  0  0  0  0  0  0  0  0  0
   58.8660   22.7160   45.1030 C   0  0  0  0  0  0  0  0  0  0  0  0
   60.1310   22.6070   45.3120 N   0  0  0  0  0  0  0  0  0  0  0  0
   58.2180   23.9170   45.2990 C   0  0  0  0  0  0  0  0  0  0  0  0
   58.8610   25.0670   45.7240 C   0  0  0  0  0  0  0  0  0  0  0  0
   60.3030   25.0080   45.9790 C   0  0  0  0  0  0  0  0  0  0  0  0
   58.0180   30.7840   45.6070 C   0  0  0  0  0  0  0  0  0  0  0  0
   57.6470   33.6053   46.5091 H   0  0  0  0  0  0  0  0  0  0  0  0
   57.5294   34.9203   45.2911 H   0  0  0  0  0  0  0  0  0  0  0  0
   56.3268   33.5860   45.2911 H   0  0  0  0  0  0  0  0  0  0  0  0
   58.1852   33.4501   43.4982 H   0  0  0  0  0  0  0  0  0  0  0  0
   59.3202   33.1077   44.8431 H   0  0  0  0  0  0  0  0  0  0  0  0
   57.0656   31.8560   42.4975 H   0  0  0  0  0  0  0  0  0  0  0  0
   56.2804   29.4673   42.3995 H   0  0  0  0  0  0  0  0  0  0  0  0
   56.6118   27.9738   44.3344 H   0  0  0  0  0  0  0  0  0  0  0  0
   58.1823   29.0758   47.5428 H   0  0  0  0  0  0  0  0  0  0  0  0
   56.7843   28.1010   46.9583 H   0  0  0  0  0  0  0  0  0  0  0  0
   59.6760   27.6600   46.3890 H   0  0  0  0  0  0  0  0  0  0  0  0
   56.1671   27.0920   45.7511 H   0  0  0  0  0  0  0  0  0  0  0  0
   55.0126   25.0500   44.9949 H   0  0  0  0  0  0  0  0  0  0  0  0
   55.1790   22.7720   44.4250 H   0  0  0  0  0  0  0  0  0  0  0  0
   56.8140   19.6700   43.9580 H   0  0  0  0  0  0  0  0  0  0  0  0
   58.7360   20.6880   44.5420 H   0  0  0  0  0  0  0  0  0  0  0  0
   60.7620   22.2240   44.5800 H   0  0  0  0  0  0  0  0  0  0  0  0
   60.4835   25.0006   47.0641 H   0  0  0  0  0  0  0  0  0  0  0  0
   60.7172   24.0922   45.5322 H   0  0  0  0  0  0  0  0  0  0  0  0
   60.7906   25.8869   45.5322 H   0  0  0  0  0  0  0  0  0  0  0  0
   58.5110   31.1658   46.5132 H   0  0  0  0  0  0  0  0  0  0  0  0
  1  2  1  0
  2  3  1  0
  3  4  2  0
  4  5  1  0
  5  6  2  0
  6  7  1  0
  7  8  1  0
  8  9  1  0
  9 10  1  0
 10 11  2  0
 11 12  1  0
 12 13  2  0
 13 14  1  0
 14 15  1  0
 15 16  2  3
 15 17  1  0
 17 18  1  0
 18 19  2  3
 18 20  1  0
 20 21  2  0
 21 22  1  0
  7 23  2  0
 23  3  1  0
 21 10  1  0
 20 13  1  0
  1 24  1  0
  1 25  1  0
  1 26  1  0
  2 27  1  0
  2 28  1  0
  4 29  1  0
  5 30  1  0
  6 31  1  0
  8 32  1  0
  8 33  1  0
  9 34  1  0
 11 35  1  0
 12 36  1  0
 14 37  1  0
 16 38  1  0
 17 39  1  0
 19 40  1  0
 22 41  1  0
 22 42  1  0
 22 43  1  0
 23 44  1  0
M  END
>  <smiles>  (4) 
CCc1cccc(CNc2ccc3[nH]c(=N)[nH]c(=N)c3c2C)c1

>  <score_type>  (4) 
oracle

>  <origin>  (4) 
adg

>  <m_score__min__energy>  (4) 
-7.9900000000000002

>  <m_primary>  (4) 
energy

$$$$
4:0
     RDKit          3D

 32 34  0  0  0  0  0  0  0  0999 V2000
   55.8750   29.9090   44.8690 O   0  0  0  0  0  0  0  0  0  0  0  0
   56.9860   30.4720   44.0260 S   0  0  0  0  0  0  0  0  0  0  0  0
   56.4400   30.8270   42.6710 O   0  0  0  0  0  0  0  0  0  0  0  0
   58.2290   29.2760   43.8430 N   0  0  0  0  0  0  0  0  0  0  0  0
   58.3400   28.1080   44.6820 C   0  0  0  0  0  0  0  0  0  0  0  0
   57.7740   26.8780   44.2920 C   0  0  0  0  0  0  0  0  0  0  0  0
   57.8890   25.7500   45.1080 C   0  0  0  0  0  0  0  0  0  0  0  0
   58.5610   25.8260   46.3270 C   0  0  0  0  0  0  0  0  0  0  0  0
   59.1250   27.0400   46.7410 C   0  0  0  0  0  0  0  0  0  0  0  0
   59.8040   27.1390   47.9620 C   0  0  0  0  0  0  0  0  0  0  0  0
   60.3620   28.3580   48.3490 C   0  0  0  0  0  0  0  0  0  0  0  0
   60.2350   29.4680   47.5120 C   0  0  0  0  0  0  0  0  0  0  0  0
   59.5730   29.3590   46.3300 N   0  0  0  0  0  0  0  0  0  0  0  0
   59.0140   28.1870   45.9180 C   0  0  0  0  0  0  0  0  0  0  0  0
   57.6370   31.8970   44.8330 C   0  0  0  0  0  0  0  0  0  0  0  0
   57.7710   33.0980   44.1230 C   0  0  0  0  0  0  0  0  0  0  0  0
   58.2720   34.2370   44.7590 C   0  0  0  0  0  0  0  0  0  0  0  0
   58.6440   34.1810   46.1050 C   0  0  0  0  0  0  0  0  0  0  0  0
   58.5170   32.9840   46.8180 C   0  0  0  0  0  0  0  0  0  0  0  0
   58.9840   32.9140   48.5070 Cl  0  0  0  0  0  0  0  0  0  0  0  0
   58.0150   31.8420   46.1820 C   0  0  0  0  0  0  0  0  0  0  0  0
   58.8540   29.3780   43.0130 H   0  0  0  0  0  0  0  0  0  0  0  0
   57.2361   26.8052   43.3352 H   0  0  0  0  0  0  0  0  0  0  0  0
   57.4464   24.7956   44.7866 H   0  0  0  0  0  0  0  0  0  0  0  0
   58.6485   24.9332   46.9636 H   0  0  0  0  0  0  0  0  0  0  0  0
   59.8972   26.2581   48.6142 H   0  0  0  0  0  0  0  0  0  0  0  0
   60.8977   28.4436   49.3059 H   0  0  0  0  0  0  0  0  0  0  0  0
   60.6716   30.4328   47.8097 H   0  0  0  0  0  0  0  0  0  0  0  0
   57.4812   33.1441   43.0629 H   0  0  0  0  0  0  0  0  0  0  0  0
   58.3737   35.1787   44.1996 H   0  0  0  0  0  0  0  0  0  0  0  0
   59.0370   35.0789   46.6043 H   0  0  0  0  0  0  0  0  0  0  0  0
   57.9170   30.9001   46.7417 H   0  0  0  0  0  0  0  0  0  0  0  0
  1  2  2  0
  2  3  2  0
  2  4  1  0
  4  5  1  0
  5  6  2  0
  6  7  1  0
  7  8  2  0
  8  9  1  0
  9 10  2  0
 10 11  1  0
 11 12  2  0
 12 13  1  0
 13 14  2  0
  2 15  1  0
 15 16  2  0
 16 17  1  0
 17 18  2  0
 18 19  1  0
 19 20  1  0
 19 21  2  0
 14  5  1  0
 21 15  1  0
 14  9  1  0
  4 22  1  0
  6 23  1  0
  7 24  1  0
  8 25  1  0
 10 26  1  0
 11 27  1  0
 12 28  1  0
 16 29  1  0
 17 30  1  0
 18 31  1  0
 21 32  1  0
M  END
>  <UniqueID>  (5) 
3

>  <SMILES>  (5) 
O=S(=O)(Nc1cccc2cccnc12)c1cccc(Cl)c1

>  <Energy>  (5) 
41.61806358179779

>  <Genealogy>  (5) 
O=S(=O)(Nc1cccc2cccnc12)c1cccc(Cl)c1 (3D coordinates assigned)
O=S(=O)(Nc1cccc2cccnc12)c1cccc(Cl)c1 (optimized conformer: 41.61806358179779 kcal/mol)

>  <smiles>  (5) 
O=S(=O)(Nc1cccc2cccnc12)c1cccc(Cl)c1

>  <score_type>  (5) 
oracle

>  <origin>  (5) 
adg

>  <m_score__min__energy>  (5) 
-8.2200000000000006

>  <m_primary>  (5) 
energy

$$$$
5:0
     RDKit          3D

 32 33  0  0  0  0  0  0  0  0999 V2000
   59.4380   26.8760   47.8070 C   0  0  0  0  0  0  0  0  0  0  0  0
   58.9780   27.0970   46.3970 C   0  0  0  0  0  0  0  0  0  0  0  0
   58.5410   26.0140   45.6190 C   0  0  0  0  0  0  0  0  0  0  0  0
   58.0690   26.2260   44.3220 C   0  0  0  0  0  0  0  0  0  0  0  0
   58.0260   27.5190   43.7920 C   0  0  0  0  0  0  0  0  0  0  0  0
   58.4640   28.6140   44.5570 C   0  0  0  0  0  0  0  0  0  0  0  0
   58.4010   29.9570   44.0480 N   0  0  0  0  0  0  0  0  0  0  0  0
   57.3270   30.8710   44.3210 C   0  0  0  0  0  0  0  0  0  0  0  0
   56.2610   30.4690   44.8610 O   0  0  0  0  0  0  0  0  0  0  0  0
   57.4300   32.2990   43.8770 C   0  0  0  0  0  0  0  0  0  0  0  0
   58.0520   33.1350   44.9610 C   0  0  0  0  0  0  0  0  0  0  0  0
   57.8410   32.8150   46.3130 C   0  0  0  0  0  0  0  0  0  0  0  0
   58.4480   33.5750   47.3190 C   0  0  0  0  0  0  0  0  0  0  0  0
   59.2740   34.6510   46.9820 C   0  0  0  0  0  0  0  0  0  0  0  0
   59.4970   34.9670   45.6390 C   0  0  0  0  0  0  0  0  0  0  0  0
   58.8930   34.2110   44.6310 C   0  0  0  0  0  0  0  0  0  0  0  0
   58.9160   28.3960   45.8680 C   0  0  0  0  0  0  0  0  0  0  0  0
   58.6715   27.2443   48.5047 H   0  0  0  0  0  0  0  0  0  0  0  0
   59.6010   25.8012   47.9753 H   0  0  0  0  0  0  0  0  0  0  0  0
   60.3789   27.4204   47.9753 H   0  0  0  0  0  0  0  0  0  0  0  0
   58.5703   24.9949   46.0321 H   0  0  0  0  0  0  0  0  0  0  0  0
   57.7300   25.3732   43.7155 H   0  0  0  0  0  0  0  0  0  0  0  0
   57.6477   27.6802   42.7718 H   0  0  0  0  0  0  0  0  0  0  0  0
   59.1340   30.2580   43.3670 H   0  0  0  0  0  0  0  0  0  0  0  0
   58.0533   32.3544   42.9723 H   0  0  0  0  0  0  0  0  0  0  0  0
   56.4216   32.6821   43.6616 H   0  0  0  0  0  0  0  0  0  0  0  0
   57.1968   31.9646   46.5812 H   0  0  0  0  0  0  0  0  0  0  0  0
   58.2749   33.3253   48.3762 H   0  0  0  0  0  0  0  0  0  0  0  0
   59.7486   35.2491   47.7739 H   0  0  0  0  0  0  0  0  0  0  0  0
   60.1493   35.8125   45.3750 H   0  0  0  0  0  0  0  0  0  0  0  0
   59.0766   34.4592   43.5752 H   0  0  0  0  0  0  0  0  0  0  0  0
   59.2247   29.2514   46.4869 H   0  0  0  0  0  0  0  0  0  0  0  0
  1  2  1  0
  2  3  2  0
  3  4  1  0
  4  5  2  0
  5  6  1  0
  6  7  1  0
  7  8  1  0
  8  9  2  0
  8 10  1  0
 10 11  1  0
 11 12  2  0
 12 13  1  0
 13 14  2  0
 14 15  1  0
 15 16  2  0
  6 17  2  0
 17  2  1  0
 16 11  1  0
  1 18  1  0
  1 19  1  0
  1 20  1  0
  3 21  1  0
  4 22  1  0
  5 23  1  0
  7 24  1  0
 10 25  1  0
 10 26  1  0
 12 27  1  0
 13 28  1  0
 14 29  1  0
 15 30  1  0
 16 31  1  0
 17 32  1  0
M  END
>  <UniqueID>  (6) 
4

>  <SMILES>  (6) 
Cc1cccc(NC(=O)Cc2ccccc2)c1

>  <Energy>  (6) 
32.70353763046406

>  <Genealogy>  (6) 
Cc1cccc(NC(=O)Cc2ccccc2)c1 (3D coordinates assigned)
Cc1cccc(NC(=O)Cc2ccccc2)c1 (optimized conformer: 32.70353763046406 kcal/mol)

>  <smiles>  (6) 
Cc1cccc(NC(=O)Cc2ccccc2)c1

>  <score_type>  (6) 
oracle

>  <origin>  (6) 
adg

>  <m_score__min__energy>  (6) 
-7.2199999999999998

>  <m_primary>  (6) 
energy

$$$$
6:0
     RDKit          3D

 54 57  0  0  0  0  0  0  0  0999 V2000
   55.4490   29.7550   43.7300 C   0  0  0  0  0  0  0  0  0  0  0  0
   56.3860   30.4040   44.1230 C   0  0  0  0  0  0  0  0  0  0  0  0
   57.5220   31.2010   44.6020 C   0  0  0  0  0  0  0  0  0  0  0  0
   58.6090   30.3170   45.0520 N   0  0  0  0  0  0  0  0  0  0  0  0
   58.9680   29.1320   44.2530 C   0  0  0  0  0  0  0  0  0  0  0  0
   58.7330   27.8700   45.0410 C   0  0  0  0  0  0  0  0  0  0  0  0
   59.8080   27.1910   45.6400 C   0  0  0  0  0  0  0  0  0  0  0  0
   59.5790   26.0610   46.4280 C   0  0  0  0  0  0  0  0  0  0  0  0
   58.2750   25.5990   46.6300 C   0  0  0  0  0  0  0  0  0  0  0  0
   58.0520   24.5190   47.4230 N   0  0  0  0  0  0  0  0  0  0  0  0
   56.7930   24.0580   47.6430 C   0  0  0  0  0  0  0  0  0  0  0  0
   56.5730   22.9070   48.5650 C   0  0  0  0  0  0  0  0  0  0  0  0
   55.7300   24.6920   47.0800 N   0  0  0  0  0  0  0  0  0  0  0  0
   55.8950   25.7750   46.2770 C   0  0  0  0  0  0  0  0  0  0  0  0
   54.8820   26.3280   45.7720 O   0  0  0  0  0  0  0  0  0  0  0  0
   57.1880   26.2680   46.0300 C   0  0  0  0  0  0  0  0  0  0  0  0
   57.4230   27.4030   45.2360 C   0  0  0  0  0  0  0  0  0  0  0  0
   59.3110   30.5940   46.2880 C   0  0  0  0  0  0  0  0  0  0  0  0
   58.6120   31.0200   47.4310 C   0  0  0  0  0  0  0  0  0  0  0  0
   59.2800   31.2020   48.6450 C   0  0  0  0  0  0  0  0  0  0  0  0
   60.6520   30.9370   48.7410 C   0  0  0  0  0  0  0  0  0  0  0  0
   61.3360   31.0480   50.0410 C   0  0  0  0  0  0  0  0  0  0  0  0
   61.0670   30.2180   50.9490 O   0  0  0  0  0  0  0  0  0  0  0  0
   62.3160   32.0660   50.2970 N   0  0  0  0  0  0  0  0  0  0  0  0
   62.0720   33.5060   50.2380 C   0  0  0  0  0  0  0  0  0  0  0  0
   61.4790   33.8790   48.9060 C   0  0  0  0  0  0  0  0  0  0  0  0
   60.1500   34.3210   48.8030 C   0  0  0  0  0  0  0  0  0  0  0  0
   59.6040   34.6040   47.5520 C   0  0  0  0  0  0  0  0  0  0  0  0
   60.3960   34.4640   46.4120 C   0  0  0  0  0  0  0  0  0  0  0  0
   61.6820   34.0390   46.5250 N   0  0  0  0  0  0  0  0  0  0  0  0
   62.2330   33.7400   47.7320 C   0  0  0  0  0  0  0  0  0  0  0  0
   61.3620   30.5560   47.5950 C   0  0  0  0  0  0  0  0  0  0  0  0
   60.6980   30.3870   46.3780 C   0  0  0  0  0  0  0  0  0  0  0  0
   54.5941   29.1629   43.3714 H   0  0  0  0  0  0  0  0  0  0  0  0
   57.8880   31.8399   43.7847 H   0  0  0  0  0  0  0  0  0  0  0  0
   57.1928   31.8238   45.4468 H   0  0  0  0  0  0  0  0  0  0  0  0
   58.3513   29.1097   43.3424 H   0  0  0  0  0  0  0  0  0  0  0  0
   60.0342   29.1919   43.9893 H   0  0  0  0  0  0  0  0  0  0  0  0
   60.8358   27.5518   45.4872 H   0  0  0  0  0  0  0  0  0  0  0  0
   60.4262   25.5335   46.8906 H   0  0  0  0  0  0  0  0  0  0  0  0
   56.6393   23.2538   49.6068 H   0  0  0  0  0  0  0  0  0  0  0  0
   55.5765   22.4776   48.3842 H   0  0  0  0  0  0  0  0  0  0  0  0
   57.3409   22.1404   48.3842 H   0  0  0  0  0  0  0  0  0  0  0  0
   56.5782   27.9275   44.7656 H   0  0  0  0  0  0  0  0  0  0  0  0
   57.5306   31.2116   47.3693 H   0  0  0  0  0  0  0  0  0  0  0  0
   58.7266   31.5545   49.5279 H   0  0  0  0  0  0  0  0  0  0  0  0
   61.3731   33.7891   51.0389 H   0  0  0  0  0  0  0  0  0  0  0  0
   63.0266   34.0372   50.3671 H   0  0  0  0  0  0  0  0  0  0  0  0
   59.5396   34.4439   49.7098 H   0  0  0  0  0  0  0  0  0  0  0  0
   58.5585   34.9346   47.4645 H   0  0  0  0  0  0  0  0  0  0  0  0
   59.9794   34.6977   45.4211 H   0  0  0  0  0  0  0  0  0  0  0  0
   63.2737   33.3879   47.7874 H   0  0  0  0  0  0  0  0  0  0  0  0
   62.4477   30.3891   47.6540 H   0  0  0  0  0  0  0  0  0  0  0  0
   61.2649   30.0897   45.4834 H   0  0  0  0  0  0  0  0  0  0  0  0
  1  2  3  0
  2  3  1  0
  3  4  1  0
  4  5  1  0
  5  6  1  0
  6  7  2  0
  7  8  1  0
  8  9  2  0
  9 10  1  0
 10 11  2  0
 11 12  1  0
 11 13  1  0
 13 14  1  0
 14 15  2  0
 14 16  1  0
 16 17  2  0
  4 18  1  0
 18 19  2  0
 19 20  1  0
 20 21  2  0
 21 22  1  0
 22 23  2  0
 22 24  1  0
 24 25  1  0
 25 26  1  0
 26 27  2  0
 27 28  1  0
 28 29  2  0
 29 30  1  0
 30 31  2  0
 21 32  1  0
 32 33  2  0
 17  6  1  0
 33 18  1  0
 16  9  1  0
 31 26  1  0
  1 34  1  0
  3 35  1  0
  3 36  1  0
  5 37  1  0
  5 38  1  0
  7 39  1  0
  8 40  1  0
 12 41  1  0
 12 42  1  0
 12 43  1  0
 17 44  1  0
 19 45  1  0
 20 46  1  0
 25 47  1  0
 25 48  1  0
 27 49  1  0
 28 50  1  0
 29 51  1  0
 31 52  1  0
 32 53  1  0
 33 54  1  0
M  CHG  2  13  -1  24  -1
M  END
>  <UniqueID>  (7) 
5

>  <SMILES>  (7) 
C#CCN(Cc1ccc2nc(C)[n-]c(=O)c2c1)c1ccc(C(=O)[N-]Cc2cccnc2)cc1

>  <Energy>  (7) 
60.29530439712482

>  <Genealogy>  (7) 
C#CCN(Cc1ccc2nc(C)[n-]c(=O)c2c1)c1ccc(C(=O)[N-]Cc2cccnc2)cc1 (protonated)
C#CCN(Cc1ccc2nc(C)[n-]c(=O)c2c1)c1ccc(C(=O)[N-]Cc2cccnc2)cc1 (3D coordinates assigned)
C#CCN(Cc1ccc2nc(C)[n-]c(=O)c2c1)c1ccc(C(=O)[N-]Cc2cccnc2)cc1 (optimized conformer: 60.29530439712482 kcal/mol)

>  <smiles>  (7) 
C#CCN(Cc1ccc2nc(C)[nH]c(=O)c2c1)c1ccc(C(=O)NCc2cccnc2)cc1

>  <score_type>  (7) 
oracle

>  <origin>  (7) 
adg

>  <m_score__min__energy>  (7) 
-12

>  <m_primary>  (7) 
energy

$$$$
7:0
     RDKit          3D

 38 40  0  0  0  0  0  0  0  0999 V2000
   56.6460   26.6160   45.9970 C   0  0  0  0  0  0  0  0  0  0  0  0
   55.9130   27.7670   45.5910 O   0  0  0  0  0  0  0  0  0  0  0  0
   56.4980   28.9720   45.1750 C   0  0  0  0  0  0  0  0  0  0  0  0
   55.9580   29.6240   44.0590 C   0  0  0  0  0  0  0  0  0  0  0  0
   56.5020   30.8300   43.6090 C   0  0  0  0  0  0  0  0  0  0  0  0
   57.5990   31.4020   44.2690 C   0  0  0  0  0  0  0  0  0  0  0  0
   58.1550   32.7220   43.8100 C   0  0  0  0  0  0  0  0  0  0  0  0
   57.5890   34.0850   44.8890 S   0  0  0  0  0  0  0  0  0  0  0  0
   58.9730   33.9690   46.0240 C   0  0  0  0  0  0  0  0  0  0  0  0
   58.7610   33.9380   47.3990 C   0  0  0  0  0  0  0  0  0  0  0  0
   59.8530   33.8240   48.2540 C   0  0  0  0  0  0  0  0  0  0  0  0
   61.1490   33.7520   47.7160 C   0  0  0  0  0  0  0  0  0  0  0  0
   62.3400   33.6290   48.5940 C   0  0  0  0  0  0  0  0  0  0  0  0
   62.5280   34.2150   49.8490 C   0  0  0  0  0  0  0  0  0  0  0  0
   63.7140   33.9270   50.4480 N   0  0  0  0  0  0  0  0  0  0  0  0
   64.4880   33.1290   49.6830 C   0  0  0  0  0  0  0  0  0  0  0  0
   65.8100   32.5980   50.1200 C   0  0  0  0  0  0  0  0  0  0  0  0
   63.7180   32.7190   48.2480 S   0  0  0  0  0  0  0  0  0  0  0  0
   61.2950   33.8050   46.3570 N   0  0  0  0  0  0  0  0  0  0  0  0
   60.2410   33.9070   45.5440 N   0  0  0  0  0  0  0  0  0  0  0  0
   58.1440   30.7510   45.3880 C   0  0  0  0  0  0  0  0  0  0  0  0
   57.5990   29.5450   45.8390 C   0  0  0  0  0  0  0  0  0  0  0  0
   56.6759   26.5690   47.0956 H   0  0  0  0  0  0  0  0  0  0  0  0
   56.1566   25.7124   45.6046 H   0  0  0  0  0  0  0  0  0  0  0  0
   57.6718   26.6773   45.6046 H   0  0  0  0  0  0  0  0  0  0  0  0
   55.0987   29.1831   43.5325 H   0  0  0  0  0  0  0  0  0  0  0  0
   56.0674   31.3331   42.7326 H   0  0  0  0  0  0  0  0  0  0  0  0
   59.2538   32.6771   43.8343 H   0  0  0  0  0  0  0  0  0  0  0  0
   57.7987   32.9148   42.7873 H   0  0  0  0  0  0  0  0  0  0  0  0
   57.7410   34.0029   47.8057 H   0  0  0  0  0  0  0  0  0  0  0  0
   59.7027   33.7905   49.3432 H   0  0  0  0  0  0  0  0  0  0  0  0
   61.7717   34.8618   50.3177 H   0  0  0  0  0  0  0  0  0  0  0  0
   65.8531   32.5807   51.2190 H   0  0  0  0  0  0  0  0  0  0  0  0
   65.9416   31.5772   49.7318 H   0  0  0  0  0  0  0  0  0  0  0  0
   66.6112   33.2441   49.7318 H   0  0  0  0  0  0  0  0  0  0  0  0
   62.2420   33.7540   45.9230 H   0  0  0  0  0  0  0  0  0  0  0  0
   59.0043   31.1924   45.9124 H   0  0  0  0  0  0  0  0  0  0  0  0
   58.0323   29.0420   46.7161 H   0  0  0  0  0  0  0  0  0  0  0  0
  1  2  1  0
  2  3  1  0
  3  4  2  0
  4  5  1  0
  5  6  2  0
  6  7  1  0
  7  8  1  0
  8  9  1  0
  9 10  2  0
 10 11  1  0
 11 12  2  0
 12 13  1  0
 13 14  2  0
 14 15  1  0
 15 16  2  0
 16 17  1  0
 16 18  1  0
 12 19  1  0
 19 20  2  0
  6 21  1  0
 21 22  2  0
 22  3  1  0
 20  9  1  0
 18 13  1  0
  1 23  1  0
  1 24  1  0
  1 25  1  0
  4 26  1  0
  5 27  1  0
  7 28  1  0
  7 29  1  0
 10 30  1  0
 11 31  1  0
 14 32  1  0
 17 33  1  0
 17 34  1  0
 17 35  1  0
 19 36  1  0
 21 37  1  0
 22 38  1  0
M  CHG  1  19   1
M  END
>  <UniqueID>  (8) 
6

>  <SMILES>  (8) 
COc1ccc(CSc2ccc(-c3cnc(C)s3)[nH+]n2)cc1

>  <Energy>  (8) 
65.0595366091902

>  <Genealogy>  (8) 
COc1ccc(CSc2ccc(-c3cnc(C)s3)[nH+]n2)cc1 (protonated)
COc1ccc(CSc2ccc(-c3cnc(C)s3)[nH+]n2)cc1 (3D coordinates assigned)
COc1ccc(CSc2ccc(-c3cnc(C)s3)[nH+]n2)cc1 (optimized conformer: 65.0595366091902 kcal/mol)

>  <smiles>  (8) 
COc1ccc(CSc2ccc(-c3cnc(C)s3)nn2)cc1

>  <score_type>  (8) 
oracle

>  <origin>  (8) 
adg

>  <m_score__min__energy>  (8) 
-6.7999999999999998

>  <m_primary>  (8) 
energy

$$$$
8:0
     RDKit          3D

 45 48  0  0  1  0  0  0  0  0999 V2000
   60.1530   34.5720   48.7390 C   0  0  0  0  0  0  0  0  0  0  0  0
   59.4800   34.0930   47.5030 C   0  0  0  0  0  0  0  0  0  0  0  0
   58.5040   33.1180   47.6480 C   0  0  0  0  0  0  0  0  0  0  0  0
   57.8180   32.6040   46.5580 C   0  0  0  0  0  0  0  0  0  0  0  0
   58.1280   33.0880   45.2900 C   0  0  0  0  0  0  0  0  0  0  0  0
   57.3940   32.5410   44.0930 C   0  0  0  0  0  0  0  0  0  0  0  0
   57.9970   31.2410   43.8480 N   0  0  0  0  0  0  0  0  0  0  0  0
   57.6900   30.1670   44.4550 C   0  0  0  0  0  0  0  0  0  0  0  0
   58.6670   29.5370   45.2010 C   0  0  0  0  0  0  0  0  0  0  0  0
   58.3140   28.3720   45.8520 C   0  0  0  0  0  0  0  0  0  0  0  0
   57.0140   27.9300   45.7040 C   0  0  0  0  0  0  0  0  0  0  0  0
   56.6830   26.8480   46.3060 N   0  0  0  0  0  0  0  0  0  0  0  0
   56.5760   25.5820   45.6680 C   0  0  0  0  0  0  0  0  0  0  0  0
   55.2940   25.1480   45.3710 C   0  0  0  0  0  0  0  0  0  0  0  0
   55.0360   23.9410   44.7530 C   0  0  0  0  0  0  0  0  0  0  0  0
   56.1140   23.1220   44.4140 C   0  0  0  0  0  0  0  0  0  0  0  0
   55.8700   21.9570   43.8190 N   0  0  0  0  0  0  0  0  0  0  0  0
   56.8690   21.1310   43.4720 C   0  0  0  0  0  0  0  0  0  0  0  0
   58.1820   21.5210   43.7500 C   0  0  0  0  0  0  0  0  0  0  0  0
   58.4420   22.7270   44.3660 C   0  0  0  0  0  0  0  0  0  0  0  0
   57.3890   23.5720   44.7210 C   0  0  0  0  0  0  0  0  0  0  0  0
   57.6230   24.7850   45.3390 C   0  0  0  0  0  0  0  0  0  0  0  0
   56.0940   28.5780   44.9640 N   0  0  0  0  0  0  0  0  0  0  0  0
   56.4340   29.7000   44.3370 N   0  0  0  0  0  0  0  0  0  0  0  0
   59.1030   34.0580   45.1590 C   0  0  0  0  0  0  0  0  0  0  0  0
   59.7830   34.5670   46.2440 C   0  0  0  0  0  0  0  0  0  0  0  0
   59.6165   34.1902   49.6201 H   0  0  0  0  0  0  0  0  0  0  0  0
   61.1910   34.2084   48.7557 H   0  0  0  0  0  0  0  0  0  0  0  0
   60.1494   35.6719   48.7557 H   0  0  0  0  0  0  0  0  0  0  0  0
   58.2679   32.7425   48.6546 H   0  0  0  0  0  0  0  0  0  0  0  0
   57.0465   31.8315   46.6922 H   0  0  0  0  0  0  0  0  0  0  0  0
   56.3212   32.4352   44.3117 H   0  0  0  0  0  0  0  0  0  0  0  0
   57.4718   33.2053   43.2197 H   0  0  0  0  0  0  0  0  0  0  0  0
   59.6852   29.9470   45.2734 H   0  0  0  0  0  0  0  0  0  0  0  0
   59.0399   27.8173   46.4648 H   0  0  0  0  0  0  0  0  0  0  0  0
   54.4448   25.7936   45.6395 H   0  0  0  0  0  0  0  0  0  0  0  0
   54.0037   23.6315   44.5326 H   0  0  0  0  0  0  0  0  0  0  0  0
   56.6594   20.1696   42.9803 H   0  0  0  0  0  0  0  0  0  0  0  0
   59.0164   20.8592   43.4746 H   0  0  0  0  0  0  0  0  0  0  0  0
   59.4799   23.0234   44.5778 H   0  0  0  0  0  0  0  0  0  0  0  0
   58.6521   25.1026   45.5629 H   0  0  0  0  0  0  0  0  0  0  0  0
   55.1390   28.2140   44.8810 H   0  0  0  0  0  0  0  0  0  0  0  0
   55.7250   30.2170   43.7560 H   0  0  0  0  0  0  0  0  0  0  0  0
   59.3446   34.4367   44.1549 H   0  0  0  0  0  0  0  0  0  0  0  0
   60.5549   35.3388   46.1081 H   0  0  0  0  0  0  0  0  0  0  0  0
  1  2  1  0
  2  3  2  0
  3  4  1  0
  4  5  2  0
  5  6  1  0
  6  7  1  0
  7  8  2  0
  8  9  1  0
  9 10  2  0
 10 11  1  0
 11 12  2  0
 12 13  1  0
 13 14  2  0
 14 15  1  0
 15 16  2  0
 16 17  1  0
 17 18  2  0
 18 19  1  0
 19 20  2  0
 20 21  1  0
 21 22  2  0
 11 23  1  0
 23 24  1  0
  5 25  1  0
 25 26  2  0
 26  2  1  0
 24  8  1  0
 22 13  1  0
 21 16  1  0
  1 27  1  0
  1 28  1  0
  1 29  1  0
  3 30  1  0
  4 31  1  0
  6 32  1  0
  6 33  1  0
  9 34  1  0
 10 35  1  0
 14 36  1  0
 15 37  1  0
 18 38  1  0
 19 39  1  0
 20 40  1  0
 22 41  1  0
 23 42  1  0
 24 43  1  0
 25 44  1  0
 26 45  1  0
M  END
>  <smiles>  (9) 
Cc1ccc(CN=c2ccc(=Nc3ccc4ncccc4c3)[nH][nH]2)cc1

>  <score_type>  (9) 
oracle

>  <origin>  (9) 
adg

>  <m_score__min__energy>  (9) 
-9.2300000000000004

>  <m_primary>  (9) 
energy

$$$$
9:0
     RDKit          3D

 29 30  0  0  0  0  0  0  0  0999 V2000
   57.7550   32.0440   43.1800 C   0  0  0  0  0  0  0  0  0  0  0  0
   57.1750   30.8750   43.9000 C   0  0  0  0  0  0  0  0  0  0  0  0
   57.7980   29.6680   44.1300 C   0  0  0  0  0  0  0  0  0  0  0  0
   56.8550   28.9550   44.8430 C   0  0  0  0  0  0  0  0  0  0  0  0
   57.0060   27.5870   45.3520 C   0  0  0  0  0  0  0  0  0  0  0  0
   58.1530   27.0740   45.4500 O   0  0  0  0  0  0  0  0  0  0  0  0
   55.8450   26.8430   45.7340 N   0  0  0  0  0  0  0  0  0  0  0  0
   55.8990   25.5370   46.3790 C   0  0  0  0  0  0  0  0  0  0  0  0
   55.9750   24.4480   45.3520 C   0  0  0  0  0  0  0  0  0  0  0  0
   57.4000   23.7480   44.7940 S   0  0  0  0  0  0  0  0  0  0  0  0
   56.5950   22.6750   43.7790 C   0  0  0  0  0  0  0  0  0  0  0  0
   57.2600   21.6220   42.9610 C   0  0  0  0  0  0  0  0  0  0  0  0
   55.2540   22.8110   43.8700 N   0  0  0  0  0  0  0  0  0  0  0  0
   54.9010   23.8030   44.7320 C   0  0  0  0  0  0  0  0  0  0  0  0
   53.4650   24.1180   45.0130 C   0  0  0  0  0  0  0  0  0  0  0  0
   55.7510   29.7070   45.0200 N   0  0  0  0  0  0  0  0  0  0  0  0
   55.9800   30.8520   44.4430 O   0  0  0  0  0  0  0  0  0  0  0  0
   58.1204   32.7804   43.9109 H   0  0  0  0  0  0  0  0  0  0  0  0
   58.5909   31.7080   42.5488 H   0  0  0  0  0  0  0  0  0  0  0  0
   56.9818   32.5064   42.5488 H   0  0  0  0  0  0  0  0  0  0  0  0
   58.8042   29.3492   43.8202 H   0  0  0  0  0  0  0  0  0  0  0  0
   56.7882   25.4885   47.0247 H   0  0  0  0  0  0  0  0  0  0  0  0
   54.9873   25.3980   46.9786 H   0  0  0  0  0  0  0  0  0  0  0  0
   57.7277   20.8815   43.6265 H   0  0  0  0  0  0  0  0  0  0  0  0
   56.5122   21.1240   42.3263 H   0  0  0  0  0  0  0  0  0  0  0  0
   58.0310   22.0831   42.3263 H   0  0  0  0  0  0  0  0  0  0  0  0
   53.3034   24.1534   46.1005 H   0  0  0  0  0  0  0  0  0  0  0  0
   53.2106   25.0933   44.5725 H   0  0  0  0  0  0  0  0  0  0  0  0
   52.8257   23.3387   44.5725 H   0  0  0  0  0  0  0  0  0  0  0  0
  1  2  1  0
  2  3  2  0
  3  4  1  0
  4  5  1  0
  5  6  2  0
  5  7  1  0
  7  8  1  0
  8  9  1  0
  9 10  1  0
 10 11  1  0
 11 12  1  0
 11 13  2  0
 13 14  1  0
 14 15  1  0
  4 16  2  0
 16 17  1  0
 17  2  1  0
 14  9  2  0
  1 18  1  0
  1 19  1  0
  1 20  1  0
  3 21  1  0
  8 22  1  0
  8 23  1  0
 12 24  1  0
 12 25  1  0
 12 26  1  0
 15 27  1  0
 15 28  1  0
 15 29  1  0
M  CHG  1   7  -1
M  END
>  <UniqueID>  (10) 
7

>  <SMILES>  (10) 
Cc1cc(C(=O)[N-]Cc2sc(C)nc2C)no1

>  <Energy>  (10) 
80.33301128716352

>  <Genealogy>  (10) 
Cc1cc(C(=O)[N-]Cc2sc(C)nc2C)no1 (protonated)
Cc1cc(C(=O)[N-]Cc2sc(C)nc2C)no1 (3D coordinates assigned)
Cc1cc(C(=O)[N-]Cc2sc(C)nc2C)no1 (optimized conformer: 80.33301128716352 kcal/mol)

>  <smiles>  (10) 
Cc1cc(C(=O)NCc2sc(C)nc2C)no1

>  <score_type>  (10) 
oracle

>  <origin>  (10) 
adg

>  <m_score__min__energy>  (10) 
-8.4399999999999995

>  <m_primary>  (10) 
energy

$$$$
10:0
     RDKit          3D

 41 43  0  0  0  0  0  0  0  0999 V2000
   58.2240   32.3440   49.8580 N   0  0  0  0  0  0  0  0  0  0  0  0
   59.2890   32.6670   49.5380 C   0  0  0  0  0  0  0  0  0  0  0  0
   60.6110   33.0720   49.1290 C   0  0  0  0  0  0  0  0  0  0  0  0
   61.3710   33.9010   49.9690 C   0  0  0  0  0  0  0  0  0  0  0  0
   62.6420   34.3260   49.5730 C   0  0  0  0  0  0  0  0  0  0  0  0
   63.1580   33.9290   48.3350 C   0  0  0  0  0  0  0  0  0  0  0  0
   62.4080   33.0990   47.4950 C   0  0  0  0  0  0  0  0  0  0  0  0
   61.1380   32.6620   47.8880 C   0  0  0  0  0  0  0  0  0  0  0  0
   60.3920   31.8000   47.0180 N   0  0  0  0  0  0  0  0  0  0  0  0
   59.1790   32.3120   46.3750 C   0  0  0  0  0  0  0  0  0  0  0  0
   58.6340   31.3320   45.3300 C   0  0  0  0  0  0  0  0  0  0  0  0
   58.6120   29.9550   45.8600 N   0  0  0  0  0  0  0  0  0  0  0  0
   57.5840   29.0030   45.4750 C   0  0  0  0  0  0  0  0  0  0  0  0
   56.3260   29.4460   44.4950 S   0  0  0  0  0  0  0  0  0  0  0  0
   57.5830   27.6810   46.0440 N   0  0  0  0  0  0  0  0  0  0  0  0
   57.1990   26.5000   45.3140 C   0  0  0  0  0  0  0  0  0  0  0  0
   57.7700   26.1990   44.0610 C   0  0  0  0  0  0  0  0  0  0  0  0
   57.4310   25.0160   43.3970 C   0  0  0  0  0  0  0  0  0  0  0  0
   56.5300   24.1180   43.9760 C   0  0  0  0  0  0  0  0  0  0  0  0
   56.1090   22.6330   43.1390 Cl  0  0  0  0  0  0  0  0  0  0  0  0
   55.9740   24.3990   45.2280 C   0  0  0  0  0  0  0  0  0  0  0  0
   56.3100   25.5840   45.8980 C   0  0  0  0  0  0  0  0  0  0  0  0
   59.7650   29.4620   46.6390 C   0  0  0  0  0  0  0  0  0  0  0  0
   60.9120   30.4740   46.6820 C   0  0  0  0  0  0  0  0  0  0  0  0
   60.9651   34.2169   50.9414 H   0  0  0  0  0  0  0  0  0  0  0  0
   63.2367   34.9727   50.2349 H   0  0  0  0  0  0  0  0  0  0  0  0
   64.1556   34.2701   48.0213 H   0  0  0  0  0  0  0  0  0  0  0  0
   62.8179   32.7889   46.5225 H   0  0  0  0  0  0  0  0  0  0  0  0
   58.4102   32.4767   47.1443 H   0  0  0  0  0  0  0  0  0  0  0  0
   59.4329   33.2522   45.8636 H   0  0  0  0  0  0  0  0  0  0  0  0
   57.6107   31.6291   45.0569 H   0  0  0  0  0  0  0  0  0  0  0  0
   59.2903   31.3584   44.4477 H   0  0  0  0  0  0  0  0  0  0  0  0
   57.8600   27.5690   47.0480 H   0  0  0  0  0  0  0  0  0  0  0  0
   58.4856   26.8979   43.6034 H   0  0  0  0  0  0  0  0  0  0  0  0
   57.8748   24.7914   42.4159 H   0  0  0  0  0  0  0  0  0  0  0  0
   55.2714   23.6887   45.6883 H   0  0  0  0  0  0  0  0  0  0  0  0
   55.8750   25.7968   46.8857 H   0  0  0  0  0  0  0  0  0  0  0  0
   59.4351   29.2573   47.6682 H   0  0  0  0  0  0  0  0  0  0  0  0
   60.1381   28.5510   46.1481 H   0  0  0  0  0  0  0  0  0  0  0  0
   61.6431   30.1649   47.4435 H   0  0  0  0  0  0  0  0  0  0  0  0
   61.3977   30.5140   45.6959 H   0  0  0  0  0  0  0  0  0  0  0  0
  1  2  3  0
  2  3  1  0
  3  4  2  0
  4  5  1  0
  5  6  2  0
  6  7  1  0
  7  8  2  0
  8  9  1  0
  9 10  1  0
 10 11  1  0
 11 12  1  0
 12 13  1  0
 13 14  2  0
 13 15  1  0
 15 16  1  0
 16 17  2  0
 17 18  1  0
 18 19  2  0
 19 20  1  0
 19 21  1  0
 21 22  2  0
 12 23  1  0
 23 24  1  0
  8  3  1  0
 24  9  1  0
 22 16  1  0
  4 25  1  0
  5 26  1  0
  6 27  1  0
  7 28  1  0
 10 29  1  0
 10 30  1  0
 11 31  1  0
 11 32  1  0
 15 33  1  0
 17 34  1  0
 18 35  1  0
 21 36  1  0
 22 37  1  0
 23 38  1  0
 23 39  1  0
 24 40  1  0
 24 41  1  0
M  END
>  <UniqueID>  (11) 
8

>  <SMILES>  (11) 
N#Cc1ccccc1N1CCN(C(=S)Nc2ccc(Cl)cc2)CC1

>  <Energy>  (11) 
55.82252990975648

>  <Genealogy>  (11) 
N#Cc1ccccc1N1CCN(C(=S)Nc2ccc(Cl)cc2)CC1 (3D coordinates assigned)
N#Cc1ccccc1N1CCN(C(=S)Nc2ccc(Cl)cc2)CC1 (nonaromatic ring conformer: 55.82252990975648 kcal/mol)

>  <smiles>  (11) 
N#Cc1ccccc1N1CCN(C(=S)Nc2ccc(Cl)cc2)CC1

>  <score_type>  (11) 
oracle

>  <origin>  (11) 
adg

>  <m_score__min__energy>  (11) 
-7.1200000000000001

>  <m_primary>  (11) 
energy

$$$$
11:0
     RDKit          3D

 31 32  0  0  0  0  0  0  0  0999 V2000
   56.0670   30.2120   44.8590 O   0  0  0  0  0  0  0  0  0  0  0  0
   57.2410   30.6350   44.6810 C   0  0  0  0  0  0  0  0  0  0  0  0
   57.4590   31.9510   44.0070 C   0  0  0  0  0  0  0  0  0  0  0  0
   58.0750   32.9240   44.9720 C   0  0  0  0  0  0  0  0  0  0  0  0
   58.8200   34.0170   44.4980 C   0  0  0  0  0  0  0  0  0  0  0  0
   59.3620   34.9430   45.3960 C   0  0  0  0  0  0  0  0  0  0  0  0
   59.1550   34.7900   46.7700 C   0  0  0  0  0  0  0  0  0  0  0  0
   58.4040   33.7130   47.2480 C   0  0  0  0  0  0  0  0  0  0  0  0
   57.8600   32.7850   46.3540 C   0  0  0  0  0  0  0  0  0  0  0  0
   58.3720   29.8730   45.1210 N   0  0  0  0  0  0  0  0  0  0  0  0
   58.3580   28.5060   45.5570 C   0  0  0  0  0  0  0  0  0  0  0  0
   59.5780   27.8640   45.7840 C   0  0  0  0  0  0  0  0  0  0  0  0
   59.6100   26.5270   46.1800 C   0  0  0  0  0  0  0  0  0  0  0  0
   58.4250   25.8010   46.3370 C   0  0  0  0  0  0  0  0  0  0  0  0
   58.5300   24.4470   46.6610 O   0  0  0  0  0  0  0  0  0  0  0  0
   57.1780   26.4400   46.1250 C   0  0  0  0  0  0  0  0  0  0  0  0
   55.8870   25.7530   46.3520 C   0  0  0  0  0  0  0  0  0  0  0  0
   55.8650   24.5970   46.8500 O   0  0  0  0  0  0  0  0  0  0  0  0
   54.6910   26.3420   45.9580 O   0  0  0  0  0  0  0  0  0  0  0  0
   57.1620   27.7850   45.7070 C   0  0  0  0  0  0  0  0  0  0  0  0
   58.1321   31.8137   43.1479 H   0  0  0  0  0  0  0  0  0  0  0  0
   56.4919   32.3459   43.6623 H   0  0  0  0  0  0  0  0  0  0  0  0
   58.9777   34.1451   43.4169 H   0  0  0  0  0  0  0  0  0  0  0  0
   59.9516   35.7923   45.0204 H   0  0  0  0  0  0  0  0  0  0  0  0
   59.5834   35.5176   47.4750 H   0  0  0  0  0  0  0  0  0  0  0  0
   58.2403   33.5948   48.3293 H   0  0  0  0  0  0  0  0  0  0  0  0
   57.2619   31.9436   46.7338 H   0  0  0  0  0  0  0  0  0  0  0  0
   60.5195   28.4167   45.6495 H   0  0  0  0  0  0  0  0  0  0  0  0
   60.5770   26.0387   46.3707 H   0  0  0  0  0  0  0  0  0  0  0  0
   57.7320   23.8400   46.7830 H   0  0  0  0  0  0  0  0  0  0  0  0
   56.2010   28.2767   45.4954 H   0  0  0  0  0  0  0  0  0  0  0  0
  1  2  2  0
  2  3  1  0
  3  4  1  0
  4  5  2  0
  5  6  1  0
  6  7  2  0
  7  8  1  0
  8  9  2  0
  2 10  1  0
 10 11  1  0
 11 12  2  0
 12 13  1  0
 13 14  2  0
 14 15  1  0
 14 16  1  0
 16 17  1  0
 17 18  2  0
 17 19  1  0
 16 20  2  0
  9  4  1  0
 20 11  1  0
  3 21  1  0
  3 22  1  0
  5 23  1  0
  6 24  1  0
  7 25  1  0
  8 26  1  0
  9 27  1  0
 12 28  1  0
 13 29  1  0
 15 30  1  0
 20 31  1  0
M  CHG  2  10  -1  19  -1
M  END
>  <UniqueID>  (12) 
9

>  <SMILES>  (12) 
O=C(Cc1ccccc1)[N-]c1ccc(O)c(C(=O)[O-])c1

>  <Energy>  (12) 
38.813968779484064

>  <Genealogy>  (12) 
O=C(Cc1ccccc1)[N-]c1ccc(O)c(C(=O)[O-])c1 (protonated)
O=C(Cc1ccccc1)[N-]c1ccc(O)c(C(=O)[O-])c1 (3D coordinates assigned)
O=C(Cc1ccccc1)[N-]c1ccc(O)c(C(=O)[O-])c1 (optimized conformer: 38.813968779484064 kcal/mol)

>  <smiles>  (12) 
O=C(Cc1ccccc1)Nc1ccc(O)c(C(=O)O)c1

>  <score_type>  (12) 
oracle

>  <origin>  (12) 
adg

>  <m_score__min__energy>  (12) 
-11.199999999999999

>  <m_primary>  (12) 
energy

$$$$
12:0
     RDKit          3D

 31 32  0  0  0  0  0  0  0  0999 V2000
   55.5260   29.0140   44.8820 O   0  0  0  0  0  0  0  0  0  0  0  0
   56.6720   28.6560   45.2620 C   0  0  0  0  0  0  0  0  0  0  0  0
   57.8120   29.5960   45.1750 C   0  0  0  0  0  0  0  0  0  0  0  0
   57.8040   30.7610   44.5100 C   0  0  0  0  0  0  0  0  0  0  0  0
   58.0500   32.0890   45.1100 C   0  0  0  0  0  0  0  0  0  0  0  0
   58.2290   33.2330   44.3100 C   0  0  0  0  0  0  0  0  0  0  0  0
   58.5070   34.4690   44.9000 C   0  0  0  0  0  0  0  0  0  0  0  0
   58.6290   34.5700   46.2880 C   0  0  0  0  0  0  0  0  0  0  0  0
   58.4830   33.4340   47.0880 C   0  0  0  0  0  0  0  0  0  0  0  0
   58.2040   32.1960   46.5010 C   0  0  0  0  0  0  0  0  0  0  0  0
   56.8180   27.3780   45.8930 N   0  0  0  0  0  0  0  0  0  0  0  0
   56.6080   26.0990   45.2760 C   0  0  0  0  0  0  0  0  0  0  0  0
   55.5520   25.2560   45.6650 C   0  0  0  0  0  0  0  0  0  0  0  0
   55.3910   24.0050   45.0640 C   0  0  0  0  0  0  0  0  0  0  0  0
   56.2930   23.5640   44.0770 C   0  0  0  0  0  0  0  0  0  0  0  0
   56.1310   22.2770   43.4560 N   0  0  0  0  0  0  0  0  0  0  0  0
   55.8950   22.1840   42.2340 O   0  0  0  0  0  0  0  0  0  0  0  0
   56.2380   21.1230   44.1990 O   0  0  0  0  0  0  0  0  0  0  0  0
   57.3620   24.4020   43.7130 C   0  0  0  0  0  0  0  0  0  0  0  0
   57.5210   25.6520   44.3160 C   0  0  0  0  0  0  0  0  0  0  0  0
   58.7392   29.3172   45.6970 H   0  0  0  0  0  0  0  0  0  0  0  0
   57.5975   30.7249   43.4302 H   0  0  0  0  0  0  0  0  0  0  0  0
   58.1498   33.1539   43.2157 H   0  0  0  0  0  0  0  0  0  0  0  0
   58.6298   35.3630   44.2710 H   0  0  0  0  0  0  0  0  0  0  0  0
   58.8402   35.5450   46.7515 H   0  0  0  0  0  0  0  0  0  0  0  0
   58.5876   33.5135   48.1801 H   0  0  0  0  0  0  0  0  0  0  0  0
   58.1047   31.3010   47.1328 H   0  0  0  0  0  0  0  0  0  0  0  0
   54.8496   25.5828   46.4459 H   0  0  0  0  0  0  0  0  0  0  0  0
   54.5526   23.3593   45.3644 H   0  0  0  0  0  0  0  0  0  0  0  0
   58.0788   24.0705   42.9473 H   0  0  0  0  0  0  0  0  0  0  0  0
   58.3714   26.2898   44.0333 H   0  0  0  0  0  0  0  0  0  0  0  0
  1  2  2  0
  2  3  1  0
  3  4  2  3
  4  5  1  0
  5  6  2  0
  6  7  1  0
  7  8  2  0
  8  9  1  0
  9 10  2  0
  2 11  1  0
 11 12  1  0
 12 13  2  0
 13 14  1  0
 14 15  2  0
 15 16  1  0
 16 17  2  0
 16 18  1  0
 15 19  1  0
 19 20  2  0
 10  5  1  0
 20 12  1  0
  3 21  1  0
  4 22  1  0
  6 23  1  0
  7 24  1  0
  8 25  1  0
  9 26  1  0
 10 27  1  0
 13 28  1  0
 14 29  1  0
 19 30  1  0
 20 31  1  0
M  CHG  3  11  -1  16   1  18  -1
M  END
>  <UniqueID>  (13) 
10

>  <SMILES>  (13) 
O=C(C=Cc1ccccc1)[N-]c1ccc([N+](=O)[O-])cc1

>  <Energy>  (13) 
44.67062508023576

>  <Genealogy>  (13) 
O=C(C=Cc1ccccc1)[N-]c1ccc([N+](=O)[O-])cc1 (protonated)
O=C(C=Cc1ccccc1)[N-]c1ccc([N+](=O)[O-])cc1 (3D coordinates assigned)
O=C(C=Cc1ccccc1)[N-]c1ccc([N+](=O)[O-])cc1 (optimized conformer: 44.67062508023576 kcal/mol)

>  <smiles>  (13) 
O=C(C=Cc1ccccc1)Nc1ccc([N+](=O)[O-])cc1

>  <score_type>  (13) 
oracle

>  <origin>  (13) 
adg

>  <m_score__min__energy>  (13) 
-8.8800000000000008

>  <m_primary>  (13) 
energy

$$$$
13:0
     RDKit          3D

 32 34  0  0  1  0  0  0  0  0999 V2000
   57.1060   21.0740   43.0170 C   0  0  0  0  0  0  0  0  0  0  0  0
   55.9040   21.8460   42.9980 O   0  0  0  0  0  0  0  0  0  0  0  0
   55.8770   22.9710   43.8140 C   0  0  0  0  0  0  0  0  0  0  0  0
   57.0260   23.7710   43.8400 C   0  0  0  0  0  0  0  0  0  0  0  0
   57.0820   24.9030   44.6210 C   0  0  0  0  0  0  0  0  0  0  0  0
   55.9980   25.2620   45.3920 C   0  0  0  0  0  0  0  0  0  0  0  0
   55.9780   26.4150   46.2250 N   0  0  0  0  0  0  0  0  0  0  0  0
   56.8870   27.3290   46.1990 C   0  0  0  0  0  0  0  0  0  0  0  0
   58.0890   27.1030   46.8480 C   0  0  0  0  0  0  0  0  0  0  0  0
   59.0670   28.0790   46.8250 C   0  0  0  0  0  0  0  0  0  0  0  0
   60.3850   27.9200   47.4940 C   0  0  0  0  0  0  0  0  0  0  0  0
   58.8210   29.2410   46.1600 N   0  0  0  0  0  0  0  0  0  0  0  0
   57.6340   29.4300   45.5360 C   0  0  0  0  0  0  0  0  0  0  0  0
   57.1210   30.4630   44.8140 N   0  0  0  0  0  0  0  0  0  0  0  0
   55.8660   30.1410   44.4010 C   0  0  0  0  0  0  0  0  0  0  0  0
   55.6100   28.9120   44.8710 N   0  0  0  0  0  0  0  0  0  0  0  0
   56.6610   28.4850   45.5480 N   0  0  0  0  0  0  0  0  0  0  0  0
   54.8540   24.4600   45.3620 C   0  0  0  0  0  0  0  0  0  0  0  0
   54.7860   23.3220   44.5820 C   0  0  0  0  0  0  0  0  0  0  0  0
   57.4029   20.8833   44.0589 H   0  0  0  0  0  0  0  0  0  0  0  0
   56.9349   20.1164   42.5034 H   0  0  0  0  0  0  0  0  0  0  0  0
   57.9057   21.6278   42.5034 H   0  0  0  0  0  0  0  0  0  0  0  0
   57.8959   23.4909   43.2278 H   0  0  0  0  0  0  0  0  0  0  0  0
   57.9920   25.5209   44.6296 H   0  0  0  0  0  0  0  0  0  0  0  0
   58.2639   26.1547   47.3773 H   0  0  0  0  0  0  0  0  0  0  0  0
   60.2467   27.9367   48.5851 H   0  0  0  0  0  0  0  0  0  0  0  0
   60.8342   26.9612   47.1959 H   0  0  0  0  0  0  0  0  0  0  0  0
   61.0493   28.7445   47.1959 H   0  0  0  0  0  0  0  0  0  0  0  0
   59.5600   29.9710   46.1460 H   0  0  0  0  0  0  0  0  0  0  0  0
   55.1919   30.7674   43.7983 H   0  0  0  0  0  0  0  0  0  0  0  0
   53.9854   24.7421   45.9752 H   0  0  0  0  0  0  0  0  0  0  0  0
   53.8755   22.7048   44.5733 H   0  0  0  0  0  0  0  0  0  0  0  0
  1  2  1  0
  2  3  1  0
  3  4  2  0
  4  5  1  0
  5  6  2  0
  6  7  1  0
  7  8  2  0
  8  9  1  0
  9 10  2  0
 10 11  1  0
 10 12  1  0
 12 13  1  0
 13 14  2  0
 14 15  1  0
 15 16  2  0
 16 17  1  0
  6 18  1  0
 18 19  2  0
 19  3  1  0
 17  8  1  0
 17 13  1  0
  1 20  1  0
  1 21  1  0
  1 22  1  0
  4 23  1  0
  5 24  1  0
  9 25  1  0
 11 26  1  0
 11 27  1  0
 11 28  1  0
 12 29  1  0
 15 30  1  0
 18 31  1  0
 19 32  1  0
M  END
>  <smiles>  (14) 
COc1ccc(N=c2cc(C)[nH]c3ncnn23)cc1

>  <score_type>  (14) 
oracle

>  <origin>  (14) 
adg

>  <m_score__min__energy>  (14) 
-6.4400000000000004

>  <m_primary>  (14) 
energy

$$$$
14:0
     RDKit          3D

 38 40  0  0  0  0  0  0  0  0999 V2000
   56.6690   30.2020   43.4810 C   0  0  0  0  0  0  0  0  0  0  0  0
   56.5250   30.8390   44.7460 O   0  0  0  0  0  0  0  0  0  0  0  0
   57.3930   31.8230   45.2410 C   0  0  0  0  0  0  0  0  0  0  0  0
   57.4340   33.0590   44.5910 C   0  0  0  0  0  0  0  0  0  0  0  0
   58.2910   34.0660   45.0350 C   0  0  0  0  0  0  0  0  0  0  0  0
   59.1250   33.8540   46.1420 C   0  0  0  0  0  0  0  0  0  0  0  0
   59.0610   32.6300   46.8410 C   0  0  0  0  0  0  0  0  0  0  0  0
   58.2190   31.6090   46.3600 C   0  0  0  0  0  0  0  0  0  0  0  0
   59.9720   32.3570   48.0260 C   0  0  2  0  0  0  0  0  0  0  0  0
   59.2170   31.7310   49.1850 C   0  0  0  0  0  0  0  0  0  0  0  0
   58.5220   32.5340   50.1100 C   0  0  0  0  0  0  0  0  0  0  0  0
   57.8380   31.9510   51.1800 C   0  0  0  0  0  0  0  0  0  0  0  0
   57.8470   30.5640   51.3440 C   0  0  0  0  0  0  0  0  0  0  0  0
   58.5420   29.7580   50.4390 C   0  0  0  0  0  0  0  0  0  0  0  0
   59.2280   30.3370   49.3670 C   0  0  0  0  0  0  0  0  0  0  0  0
   60.7140   33.6240   48.5150 C   0  0  0  0  0  0  0  0  0  0  0  0
   61.1710   34.4820   47.4060 N   0  0  0  0  0  0  0  0  0  0  0  0
   62.2020   33.8400   46.5730 C   0  0  0  0  0  0  0  0  0  0  0  0
   60.0310   34.9690   46.6070 C   0  0  0  0  0  0  0  0  0  0  0  0
   56.9093   29.1391   43.6309 H   0  0  0  0  0  0  0  0  0  0  0  0
   55.7285   30.2893   42.9173 H   0  0  0  0  0  0  0  0  0  0  0  0
   57.4805   30.6854   42.9173 H   0  0  0  0  0  0  0  0  0  0  0  0
   56.7848   33.2396   43.7215 H   0  0  0  0  0  0  0  0  0  0  0  0
   58.3127   35.0338   44.5127 H   0  0  0  0  0  0  0  0  0  0  0  0
   58.2068   30.6320   46.8652 H   0  0  0  0  0  0  0  0  0  0  0  0
   60.7246   31.6426   47.6610 H   0  0  0  0  0  0  0  0  0  0  0  0
   58.5176   33.6274   49.9894 H   0  0  0  0  0  0  0  0  0  0  0  0
   57.2919   32.5851   51.8939 H   0  0  0  0  0  0  0  0  0  0  0  0
   57.3068   30.1062   52.1858 H   0  0  0  0  0  0  0  0  0  0  0  0
   58.5496   28.6659   50.5700 H   0  0  0  0  0  0  0  0  0  0  0  0
   59.7796   29.6979   48.6618 H   0  0  0  0  0  0  0  0  0  0  0  0
   60.0325   34.2065   49.1523 H   0  0  0  0  0  0  0  0  0  0  0  0
   61.6060   33.2932   49.0673 H   0  0  0  0  0  0  0  0  0  0  0  0
   62.9566   33.3701   47.2209 H   0  0  0  0  0  0  0  0  0  0  0  0
   61.7350   33.0728   45.9380 H   0  0  0  0  0  0  0  0  0  0  0  0
   62.6845   34.5976   45.9380 H   0  0  0  0  0  0  0  0  0  0  0  0
   59.4432   35.6665   47.2217 H   0  0  0  0  0  0  0  0  0  0  0  0
   60.4394   35.4599   45.7113 H   0  0  0  0  0  0  0  0  0  0  0  0
  1  2  1  0
  2  3  1  0
  3  4  2  0
  4  5  1  0
  5  6  2  0
  6  7  1  0
  7  8  2  0
  7  9  1  0
  9 10  1  0
 10 11  2  0
 11 12  1  0
 12 13  2  0
 13 14  1  0
 14 15  2  0
  9 16  1  0
 16 17  1  0
 17 18  1  0
 17 19  1  0
  8  3  1  0
 15 10  1  0
 19  6  1  0
  1 20  1  0
  1 21  1  0
  1 22  1  0
  4 23  1  0
  5 24  1  0
  8 25  1  0
  9 26  1  6
 11 27  1  0
 12 28  1  0
 13 29  1  0
 14 30  1  0
 15 31  1  0
 16 32  1  0
 16 33  1  0
 18 34  1  0
 18 35  1  0
 18 36  1  0
 19 37  1  0
 19 38  1  0
M  END
>  <UniqueID>  (15) 
11

>  <SMILES>  (15) 
COc1ccc2c(c1)[C@H](c1ccccc1)CN(C)C2

>  <Energy>  (15) 
45.840207847999146

>  <Genealogy>  (15) 
COc1ccc2c(c1)[C@H](c1ccccc1)CN(C)C2 (chirality)
COc1ccc2c(c1)[C@H](c1ccccc1)CN(C)C2 (3D coordinates assigned)
COc1ccc2c(c1)[C@H](c1ccccc1)CN(C)C2 (nonaromatic ring conformer: 45.840207847999146 kcal/mol)

>  <smiles>  (15) 
COc1ccc2c(c1)C(c1ccccc1)CN(C)C2

>  <score_type>  (15) 
oracle

>  <origin>  (15) 
adg

>  <m_score__min__energy>  (15) 
-6.8799999999999999

>  <m_primary>  (15) 
energy

$$$$
15:0
     RDKit          3D

 82 81  0  0  0  0  0  0  0  0999 V2000
   57.3810   30.4540   50.9010 N   0  0  0  0  0  0  0  0  0  0  0  0
   56.6310   31.2190   51.8990 C   0  0  0  0  0  0  0  0  0  0  0  0
   57.5330   31.7730   53.0180 C   0  0  0  0  0  0  0  0  0  0  0  0
   58.9280   32.1880   52.5340 C   0  0  0  0  0  0  0  0  0  0  0  0
   59.6370   31.0370   51.9590 N   0  0  0  0  0  0  0  0  0  0  0  0
   59.6540   29.8860   52.8740 C   0  0  0  0  0  0  0  0  0  0  0  0
   60.8110   28.9240   52.5630 C   0  0  0  0  0  0  0  0  0  0  0  0
   60.5970   28.0490   51.3120 C   0  0  0  0  0  0  0  0  0  0  0  0
   60.6040   28.8390   49.9820 C   0  0  0  0  0  0  0  0  0  0  0  0
   59.2990   29.4400   49.6560 N   0  0  0  0  0  0  0  0  0  0  0  0
   58.9410   29.2770   48.2430 C   0  0  0  0  0  0  0  0  0  0  0  0
   60.2010   29.0950   47.3800 C   0  0  0  0  0  0  0  0  0  0  0  0
   59.9270   29.1200   45.8580 C   0  0  0  0  0  0  0  0  0  0  0  0
   58.5440   29.6810   45.4730 C   0  0  0  0  0  0  0  0  0  0  0  0
   58.6030   30.7890   44.3980 C   0  0  0  0  0  0  0  0  0  0  0  0
   57.2390   31.4510   44.1410 C   0  0  0  0  0  0  0  0  0  0  0  0
   56.9430   32.5880   45.1350 C   0  0  0  0  0  0  0  0  0  0  0  0
   57.9230   33.7610   44.9640 C   0  0  0  0  0  0  0  0  0  0  0  0
   58.5370   34.2020   46.3050 C   0  0  0  0  0  0  0  0  0  0  0  0
   58.0270   33.3570   47.4830 C   0  0  0  0  0  0  0  0  0  0  0  0
   59.1480   32.6630   48.2000 C   0  0  0  0  0  0  0  0  0  0  0  0
   58.9400   32.1210   49.3190 O   0  0  0  0  0  0  0  0  0  0  0  0
   60.4560   32.6440   47.6180 N   0  0  0  0  0  0  0  0  0  0  0  0
   61.3520   33.7950   47.5860 C   0  0  0  0  0  0  0  0  0  0  0  0
   62.7480   33.3920   47.0960 C   0  0  0  0  0  0  0  0  0  0  0  0
   63.2080   32.0890   47.7640 C   0  0  0  0  0  0  0  0  0  0  0  0
   64.1410   32.3500   48.9540 C   0  0  0  0  0  0  0  0  0  0  0  0
   63.3860   32.7480   50.1490 N   0  0  0  0  0  0  0  0  0  0  0  0
   62.4260   32.0530   50.7030 C   0  0  0  0  0  0  0  0  0  0  0  0
   62.5450   31.6570   52.0720 N   0  0  0  0  0  0  0  0  0  0  0  0
   61.2500   31.6690   49.9760 N   0  0  0  0  0  0  0  0  0  0  0  0
   57.9560   29.7280   51.3820 H   0  0  0  0  0  0  0  0  0  0  0  0
   58.0280   31.0960   50.3880 H   0  0  0  0  0  0  0  0  0  0  0  0
   56.1340   32.0620   51.3967 H   0  0  0  0  0  0  0  0  0  0  0  0
   55.9024   30.5382   52.3634 H   0  0  0  0  0  0  0  0  0  0  0  0
   57.0412   32.6535   53.4571 H   0  0  0  0  0  0  0  0  0  0  0  0
   57.6732   30.9635   53.7495 H   0  0  0  0  0  0  0  0  0  0  0  0
   58.8272   32.9707   51.7677 H   0  0  0  0  0  0  0  0  0  0  0  0
   59.5033   32.5680   53.3911 H   0  0  0  0  0  0  0  0  0  0  0  0
   59.1240   30.7480   51.0940 H   0  0  0  0  0  0  0  0  0  0  0  0
   59.7640   30.2530   53.9051 H   0  0  0  0  0  0  0  0  0  0  0  0
   58.7099   29.3359   52.7475 H   0  0  0  0  0  0  0  0  0  0  0  0
   61.7228   29.5207   52.4129 H   0  0  0  0  0  0  0  0  0  0  0  0
   60.8831   28.2352   53.4176 H   0  0  0  0  0  0  0  0  0  0  0  0
   61.4008   27.2991   51.2730 H   0  0  0  0  0  0  0  0  0  0  0  0
   59.5991   27.5963   51.4076 H   0  0  0  0  0  0  0  0  0  0  0  0
   61.3502   29.6437   50.0575 H   0  0  0  0  0  0  0  0  0  0  0  0
   60.8444   28.1257   49.1799 H   0  0  0  0  0  0  0  0  0  0  0  0
   59.3170   30.4600   49.8780 H   0  0  0  0  0  0  0  0  0  0  0  0
   58.2974   28.3917   48.1334 H   0  0  0  0  0  0  0  0  0  0  0  0
   58.4095   30.1794   47.9066 H   0  0  0  0  0  0  0  0  0  0  0  0
   60.9044   29.9063   47.6187 H   0  0  0  0  0  0  0  0  0  0  0  0
   60.6080   28.1004   47.6149 H   0  0  0  0  0  0  0  0  0  0  0  0
   60.6971   29.7427   45.3793 H   0  0  0  0  0  0  0  0  0  0  0  0
   59.9499   28.0748   45.5160 H   0  0  0  0  0  0  0  0  0  0  0  0
   57.9287   28.8548   45.0873 H   0  0  0  0  0  0  0  0  0  0  0  0
   58.1160   30.1338   46.3795 H   0  0  0  0  0  0  0  0  0  0  0  0
   59.3108   31.5626   44.7306 H   0  0  0  0  0  0  0  0  0  0  0  0
   58.9220   30.3173   43.4569 H   0  0  0  0  0  0  0  0  0  0  0  0
   57.2326   31.8627   43.1210 H   0  0  0  0  0  0  0  0  0  0  0  0
   56.4630   30.6820   44.2697 H   0  0  0  0  0  0  0  0  0  0  0  0
   55.9186   32.9516   44.9663 H   0  0  0  0  0  0  0  0  0  0  0  0
   57.0570   32.1911   46.1546 H   0  0  0  0  0  0  0  0  0  0  0  0
   58.7332   33.4507   44.2878 H   0  0  0  0  0  0  0  0  0  0  0  0
   57.3631   34.6130   44.5510 H   0  0  0  0  0  0  0  0  0  0  0  0
   59.6307   34.1011   46.2440 H   0  0  0  0  0  0  0  0  0  0  0  0
   58.2406   35.2459   46.4850 H   0  0  0  0  0  0  0  0  0  0  0  0
   57.5042   34.0150   48.1927 H   0  0  0  0  0  0  0  0  0  0  0  0
   57.3499   32.5878   47.0831 H   0  0  0  0  0  0  0  0  0  0  0  0
   60.9377   34.5544   46.9065 H   0  0  0  0  0  0  0  0  0  0  0  0
   61.4415   34.1976   48.6058 H   0  0  0  0  0  0  0  0  0  0  0  0
   62.7192   33.2472   46.0060 H   0  0  0  0  0  0  0  0  0  0  0  0
   63.4569   34.1910   47.3589 H   0  0  0  0  0  0  0  0  0  0  0  0
   62.3231   31.5412   48.1202 H   0  0  0  0  0  0  0  0  0  0  0  0
   63.7654   31.5036   47.0179 H   0  0  0  0  0  0  0  0  0  0  0  0
   64.7039   31.4313   49.1757 H   0  0  0  0  0  0  0  0  0  0  0  0
   64.8230   33.1704   48.6860 H   0  0  0  0  0  0  0  0  0  0  0  0
   63.6580   33.6590   50.5840 H   0  0  0  0  0  0  0  0  0  0  0  0
   61.7900   31.1000   52.5290 H   0  0  0  0  0  0  0  0  0  0  0  0
   63.3810   31.9250   52.6410 H   0  0  0  0  0  0  0  0  0  0  0  0
   60.4910   31.1430   50.4630 H   0  0  0  0  0  0  0  0  0  0  0  0
   61.1130   31.8710   48.9620 H   0  0  0  0  0  0  0  0  0  0  0  0
  1  2  1  0
  2  3  1  0
  3  4  1  0
  4  5  1  0
  5  6  1  0
  6  7  1  0
  7  8  1  0
  8  9  1  0
  9 10  1  0
 10 11  1  0
 11 12  1  0
 12 13  1  0
 13 14  1  0
 14 15  1  0
 15 16  1  0
 16 17  1  0
 17 18  1  0
 18 19  1  0
 19 20  1  0
 20 21  1  0
 21 22  2  0
 21 23  1  0
 23 24  1  0
 24 25  1  0
 25 26  1  0
 26 27  1  0
 27 28  1  0
 28 29  2  3
 29 30  1  0
 29 31  1  0
  1 32  1  0
  1 33  1  0
  2 34  1  0
  2 35  1  0
  3 36  1  0
  3 37  1  0
  4 38  1  0
  4 39  1  0
  5 40  1  0
  6 41  1  0
  6 42  1  0
  7 43  1  0
  7 44  1  0
  8 45  1  0
  8 46  1  0
  9 47  1  0
  9 48  1  0
 10 49  1  0
 11 50  1  0
 11 51  1  0
 12 52  1  0
 12 53  1  0
 13 54  1  0
 13 55  1  0
 14 56  1  0
 14 57  1  0
 15 58  1  0
 15 59  1  0
 16 60  1  0
 16 61  1  0
 17 62  1  0
 17 63  1  0
 18 64  1  0
 18 65  1  0
 19 66  1  0
 19 67  1  0
 20 68  1  0
 20 69  1  0
 24 70  1  0
 24 71  1  0
 25 72  1  0
 25 73  1  0
 26 74  1  0
 26 75  1  0
 27 76  1  0
 27 77  1  0
 28 78  1  0
 30 79  1  0
 30 80  1  0
 31 81  1  0
 31 82  1  0
M  CHG  2  23  -1  28   1
M  END
>  <UniqueID>  (16) 
12

>  <SMILES>  (16) 
NCCCNCCCCNCCCCCCCCCCC(=O)[N-]CCCC[NH+]=C(N)N

>  <Energy>  (16) 
44.18096057966788

>  <Genealogy>  (16) 
NCCCNCCCCNCCCCCCCCCCC(=O)[N-]CCCC[NH+]=C(N)N (protonated)
NCCCNCCCCNCCCCCCCCCCC(=O)[N-]CCCC[NH+]=C(N)N (3D coordinates assigned)
NCCCNCCCCNCCCCCCCCCCC(=O)[N-]CCCC[NH+]=C(N)N (optimized conformer: 44.18096057966788 kcal/mol)

>  <smiles>  (16) 
NCCCNCCCCNCCCCCCCCCCC(=O)NCCCCN=C(N)N

>  <score_type>  (16) 
oracle

>  <origin>  (16) 
adg

>  <m_score__min__energy>  (16) 
-6.0800000000000001

>  <m_primary>  (16) 
energy

$$$$
16:0
     RDKit          3D

 44 47  0  0  0  0  0  0  0  0999 V2000
   57.2791   22.9781   46.4167 H   0  0  0  0  0  0  0  0  0  0  0  0
   57.5810   23.9350   45.9660 C   0  0  0  0  0  0  0  0  0  0  0  0
   58.1790   24.9220   46.7550 C   0  0  0  0  0  0  0  0  0  0  0  0
   58.3392   24.7449   47.8288 H   0  0  0  0  0  0  0  0  0  0  0  0
   58.5740   26.1350   46.1800 C   0  0  0  0  0  0  0  0  0  0  0  0
   59.0265   26.9176   46.8067 H   0  0  0  0  0  0  0  0  0  0  0  0
   58.3940   26.3560   44.8030 C   0  0  0  0  0  0  0  0  0  0  0  0
   58.7370   27.6100   44.1980 N   0  0  0  0  0  0  0  0  0  0  0  0
   57.9310   28.6090   43.9570 C   0  0  0  0  0  0  0  0  0  0  0  0
   57.0220   28.5880   42.9380 N   0  0  0  0  0  0  0  0  0  0  0  0
   56.8360   27.8210   42.2560 H   0  0  0  0  0  0  0  0  0  0  0  0
   56.1530   29.9950   43.0540 S   0  0  0  0  0  0  0  0  0  0  0  0
   56.9540   30.6120   44.3710 C   0  0  0  0  0  0  0  0  0  0  0  0
   56.6830   31.7780   44.8910 N   0  0  0  0  0  0  0  0  0  0  0  0
   57.6110   32.7680   45.3470 C   0  0  0  0  0  0  0  0  0  0  0  0
   57.7760   33.0200   46.7200 C   0  0  0  0  0  0  0  0  0  0  0  0
   57.1819   32.4586   47.4562 H   0  0  0  0  0  0  0  0  0  0  0  0
   58.6930   33.9820   47.1520 C   0  0  0  0  0  0  0  0  0  0  0  0
   58.8039   34.1929   48.2259 H   0  0  0  0  0  0  0  0  0  0  0  0
   59.4690   34.6760   46.2200 C   0  0  0  0  0  0  0  0  0  0  0  0
   60.1812   35.4424   46.5597 H   0  0  0  0  0  0  0  0  0  0  0  0
   59.3410   34.3970   44.8560 C   0  0  0  0  0  0  0  0  0  0  0  0
   59.9624   34.9342   44.1244 H   0  0  0  0  0  0  0  0  0  0  0  0
   58.4230   33.4350   44.4210 C   0  0  0  0  0  0  0  0  0  0  0  0
   58.3388   33.2020   43.3493 H   0  0  0  0  0  0  0  0  0  0  0  0
   57.9040   29.7160   44.7770 N   0  0  0  0  0  0  0  0  0  0  0  0
   58.6760   29.7890   45.9900 C   0  0  0  0  0  0  0  0  0  0  0  0
   58.1770   29.2390   47.1800 C   0  0  0  0  0  0  0  0  0  0  0  0
   57.1992   28.7351   47.1831 H   0  0  0  0  0  0  0  0  0  0  0  0
   58.9180   29.3290   48.3620 C   0  0  0  0  0  0  0  0  0  0  0  0
   58.5184   28.9015   49.2935 H   0  0  0  0  0  0  0  0  0  0  0  0
   60.1700   29.9630   48.3640 C   0  0  0  0  0  0  0  0  0  0  0  0
   60.9770   30.0380   49.6270 C   0  0  0  0  0  0  0  0  0  0  0  0
   60.3051   29.9756   50.4957 H   0  0  0  0  0  0  0  0  0  0  0  0
   61.6918   29.2024   49.6555 H   0  0  0  0  0  0  0  0  0  0  0  0
   61.5256   30.9910   49.6555 H   0  0  0  0  0  0  0  0  0  0  0  0
   60.6910   30.4670   47.1630 C   0  0  0  0  0  0  0  0  0  0  0  0
   61.6873   30.9331   47.1506 H   0  0  0  0  0  0  0  0  0  0  0  0
   59.9480   30.3790   45.9810 C   0  0  0  0  0  0  0  0  0  0  0  0
   60.3628   30.7738   45.0418 H   0  0  0  0  0  0  0  0  0  0  0  0
   57.7610   25.3760   44.0270 C   0  0  0  0  0  0  0  0  0  0  0  0
   57.5732   25.5603   42.9589 H   0  0  0  0  0  0  0  0  0  0  0  0
   57.3670   24.1650   44.6040 C   0  0  0  0  0  0  0  0  0  0  0  0
   56.8879   23.3920   43.9852 H   0  0  0  0  0  0  0  0  0  0  0  0
  1  2  1  0
  2  3  2  0
  3  4  1  0
  3  5  1  0
  5  6  1  0
  5  7  2  0
  7  8  1  0
  8  9  2  0
  9 10  1  0
 10 11  1  0
 10 12  1  0
 12 13  1  0
 13 14  2  0
 14 15  1  0
 15 16  2  0
 16 17  1  0
 16 18  1  0
 18 19  1  0
 18 20  2  0
 20 21  1  0
 20 22  1  0
 22 23  1  0
 22 24  2  0
 24 25  1  0
 13 26  1  0
 26 27  1  0
 27 28  2  0
 28 29  1  0
 28 30  1  0
 30 31  1  0
 30 32  2  0
 32 33  1  0
 33 34  1  0
 33 35  1  0
 33 36  1  0
 32 37  1  0
 37 38  1  0
 37 39  2  0
 39 40  1  0
  7 41  1  0
 41 42  1  0
 41 43  2  0
 43 44  1  0
 43  2  1  0
 26  9  1  0
 39 27  1  0
 24 15  1  0
M  END
>  <UniqueID>  (17) 
13

>  <SMILES>  (17) 
Cc1ccc(-n2/c(=N/c3ccccc3)[nH]s/c2=N/c2ccccc2)cc1

>  <Energy>  (17) 
111.41685350496427

>  <Genealogy>  (17) 
Cc1ccc(-n2/c(=N/c3ccccc3)[nH]s/c2=N/c2ccccc2)cc1 (cis-trans isomerization)
Cc1ccc(-n2/c(=N/c3ccccc3)[nH]s/c2=N/c2ccccc2)cc1 (3D coordinates assigned)
Cc1ccc(-n2/c(=N/c3ccccc3)[nH]s/c2=N/c2ccccc2)cc1 (optimized conformer: 111.41685350496427 kcal/mol)

>  <smiles>  (17) 
Cc1ccc(-n2c(=Nc3ccccc3)[nH]sc2=Nc2ccccc2)cc1

>  <score_type>  (17) 
oracle

>  <origin>  (17) 
adg

>  <m_score__min__energy>  (17) 
-8.3300000000000001

>  <m_primary>  (17) 
energy

$$$$
17:0
     RDKit          3D

 42 45  0  0  0  0  0  0  0  0999 V2000
   55.5170   29.0530   44.9780 N   0  0  0  0  0  0  0  0  0  0  0  0
   56.5590   30.0190   44.8590 C   0  0  0  0  0  0  0  0  0  0  0  0
   56.2650   31.2010   44.5430 O   0  0  0  0  0  0  0  0  0  0  0  0
   57.9730   29.6250   45.0700 C   0  0  0  0  0  0  0  0  0  0  0  0
   58.9790   30.4920   45.5690 C   0  0  0  0  0  0  0  0  0  0  0  0
   58.8430   31.9590   45.7150 C   0  0  0  0  0  0  0  0  0  0  0  0
   58.5640   32.7640   44.5960 C   0  0  0  0  0  0  0  0  0  0  0  0
   58.4570   34.1510   44.7350 C   0  0  0  0  0  0  0  0  0  0  0  0
   58.6380   34.7460   45.9870 C   0  0  0  0  0  0  0  0  0  0  0  0
   58.9320   33.9550   47.1000 C   0  0  0  0  0  0  0  0  0  0  0  0
   59.0380   32.5670   46.9660 C   0  0  0  0  0  0  0  0  0  0  0  0
   60.1720   29.8390   45.8770 C   0  0  0  0  0  0  0  0  0  0  0  0
   60.0070   28.2070   45.5220 S   0  0  0  0  0  0  0  0  0  0  0  0
   58.4340   28.3090   44.9500 C   0  0  0  0  0  0  0  0  0  0  0  0
   57.6590   27.1690   44.5720 N   0  0  0  0  0  0  0  0  0  0  0  0
   58.0540   25.8350   44.9170 C   0  0  0  0  0  0  0  0  0  0  0  0
   59.0570   25.6400   45.6580 O   0  0  0  0  0  0  0  0  0  0  0  0
   57.3110   24.6610   44.3600 C   0  0  0  0  0  0  0  0  0  0  0  0
   56.9050   23.7460   45.4740 C   0  0  0  0  0  0  0  0  0  0  0  0
   57.7490   22.9730   46.2660 C   0  0  0  0  0  0  0  0  0  0  0  0
   57.0370   22.2090   47.0760 O   0  0  0  0  0  0  0  0  0  0  0  0
   55.7700   22.4410   46.8340 C   0  0  0  0  0  0  0  0  0  0  0  0
   54.6650   21.8440   47.4390 C   0  0  0  0  0  0  0  0  0  0  0  0
   53.3860   22.2310   46.9990 C   0  0  0  0  0  0  0  0  0  0  0  0
   53.2410   23.1970   45.9770 C   0  0  0  0  0  0  0  0  0  0  0  0
   54.3760   23.7850   45.3880 C   0  0  0  0  0  0  0  0  0  0  0  0
   55.6290   23.3830   45.8490 C   0  0  0  0  0  0  0  0  0  0  0  0
   54.5430   29.3420   45.2220 H   0  0  0  0  0  0  0  0  0  0  0  0
   58.4294   32.3005   43.6075 H   0  0  0  0  0  0  0  0  0  0  0  0
   58.2301   34.7750   43.8580 H   0  0  0  0  0  0  0  0  0  0  0  0
   58.5489   35.8370   46.0956 H   0  0  0  0  0  0  0  0  0  0  0  0
   59.0804   34.4246   48.0836 H   0  0  0  0  0  0  0  0  0  0  0  0
   59.2752   31.9487   47.8443 H   0  0  0  0  0  0  0  0  0  0  0  0
   61.0747   30.3161   46.2862 H   0  0  0  0  0  0  0  0  0  0  0  0
   56.6920   27.3320   44.2120 H   0  0  0  0  0  0  0  0  0  0  0  0
   56.4134   25.0138   43.8310 H   0  0  0  0  0  0  0  0  0  0  0  0
   57.9620   24.1165   43.6602 H   0  0  0  0  0  0  0  0  0  0  0  0
   58.8480   22.9948   46.2239 H   0  0  0  0  0  0  0  0  0  0  0  0
   54.7891   21.0946   48.2346 H   0  0  0  0  0  0  0  0  0  0  0  0
   52.4922   21.7787   47.4535 H   0  0  0  0  0  0  0  0  0  0  0  0
   52.2358   23.4906   45.6404 H   0  0  0  0  0  0  0  0  0  0  0  0
   54.2779   24.5365   44.5907 H   0  0  0  0  0  0  0  0  0  0  0  0
  1  2  1  0
  2  3  2  0
  2  4  1  0
  4  5  1  0
  5  6  1  0
  6  7  2  0
  7  8  1  0
  8  9  2  0
  9 10  1  0
 10 11  2  0
  5 12  2  0
 12 13  1  0
 13 14  1  0
 14 15  1  0
 15 16  1  0
 16 17  2  0
 16 18  1  0
 18 19  1  0
 19 20  2  0
 20 21  1  0
 21 22  1  0
 22 23  2  0
 23 24  1  0
 24 25  2  0
 25 26  1  0
 26 27  2  0
 14  4  2  0
 27 19  1  0
 11  6  1  0
 27 22  1  0
  1 28  1  0
  7 29  1  0
  8 30  1  0
  9 31  1  0
 10 32  1  0
 11 33  1  0
 12 34  1  0
 15 35  1  0
 18 36  1  0
 18 37  1  0
 20 38  1  0
 23 39  1  0
 24 40  1  0
 25 41  1  0
 26 42  1  0
M  CHG  1   1  -1
M  END
>  <UniqueID>  (18) 
14

>  <SMILES>  (18) 
[NH-]C(=O)c1c(-c2ccccc2)csc1NC(=O)Cc1coc2ccccc12

>  <Energy>  (18) 
118.07083201272557

>  <Genealogy>  (18) 
[NH-]C(=O)c1c(-c2ccccc2)csc1NC(=O)Cc1coc2ccccc12 (protonated)
[NH-]C(=O)c1c(-c2ccccc2)csc1NC(=O)Cc1coc2ccccc12 (3D coordinates assigned)
[NH-]C(=O)c1c(-c2ccccc2)csc1NC(=O)Cc1coc2ccccc12 (optimized conformer: 118.07083201272557 kcal/mol)

>  <smiles>  (18) 
NC(=O)c1c(-c2ccccc2)csc1NC(=O)Cc1coc2ccccc12

>  <score_type>  (18) 
oracle

>  <origin>  (18) 
adg

>  <m_score__min__energy>  (18) 
-11.9

>  <m_primary>  (18) 
energy

$$$$
18:0
     RDKit          3D

 26 27  0  0  0  0  0  0  0  0999 V2000
   55.4700   26.6960   45.9950 N   0  0  0  0  0  0  0  0  0  0  0  0
   56.9030   26.9840   46.0640 C   0  0  0  0  0  0  0  0  0  0  0  0
   57.4120   27.7010   44.8050 C   0  0  0  0  0  0  0  0  0  0  0  0
   57.1860   29.1800   44.8770 C   0  0  0  0  0  0  0  0  0  0  0  0
   56.1030   29.8600   44.3760 C   0  0  0  0  0  0  0  0  0  0  0  0
   56.2800   31.1760   44.5850 N   0  0  0  0  0  0  0  0  0  0  0  0
   57.4800   31.2540   45.2050 C   0  0  0  0  0  0  0  0  0  0  0  0
   58.0940   32.5320   45.6260 C   0  0  0  0  0  0  0  0  0  0  0  0
   58.4510   33.5040   44.6770 C   0  0  0  0  0  0  0  0  0  0  0  0
   59.0280   34.7050   45.0900 C   0  0  0  0  0  0  0  0  0  0  0  0
   59.2470   34.9290   46.4500 C   0  0  0  0  0  0  0  0  0  0  0  0
   58.8970   33.9820   47.3630 N   0  0  0  0  0  0  0  0  0  0  0  0
   58.3320   32.8030   46.9840 C   0  0  0  0  0  0  0  0  0  0  0  0
   58.0680   30.0520   45.3970 N   0  0  0  0  0  0  0  0  0  0  0  0
   55.1500   26.3290   46.9200 H   0  0  0  0  0  0  0  0  0  0  0  0
   55.3040   25.9540   45.2780 H   0  0  0  0  0  0  0  0  0  0  0  0
   57.0940   27.6242   46.9379 H   0  0  0  0  0  0  0  0  0  0  0  0
   57.4365   26.0255   46.1456 H   0  0  0  0  0  0  0  0  0  0  0  0
   58.4901   27.5104   44.6981 H   0  0  0  0  0  0  0  0  0  0  0  0
   56.8539   27.3117   43.9408 H   0  0  0  0  0  0  0  0  0  0  0  0
   55.2323   29.4021   43.8837 H   0  0  0  0  0  0  0  0  0  0  0  0
   58.2754   33.3180   43.6071 H   0  0  0  0  0  0  0  0  0  0  0  0
   59.3080   35.4691   44.3499 H   0  0  0  0  0  0  0  0  0  0  0  0
   59.7032   35.8723   46.7847 H   0  0  0  0  0  0  0  0  0  0  0  0
   59.0660   34.1650   48.3760 H   0  0  0  0  0  0  0  0  0  0  0  0
   58.0600   32.0576   47.7458 H   0  0  0  0  0  0  0  0  0  0  0  0
  1  2  1  0
  2  3  1  0
  3  4  1  0
  4  5  2  0
  5  6  1  0
  6  7  1  0
  7  8  1  0
  8  9  2  0
  9 10  1  0
 10 11  2  0
 11 12  1  0
 12 13  2  0
  7 14  2  0
 14  4  1  0
 13  8  1  0
  1 15  1  0
  1 16  1  0
  2 17  1  0
  2 18  1  0
  3 19  1  0
  3 20  1  0
  5 21  1  0
  9 22  1  0
 10 23  1  0
 11 24  1  0
 12 25  1  0
 13 26  1  0
M  CHG  2   6  -1  12   1
M  END
>  <UniqueID>  (19) 
15

>  <SMILES>  (19) 
NCCc1c[n-]c(-c2ccc[nH+]c2)n1

>  <Energy>  (19) 
50.53790657948432

>  <Genealogy>  (19) 
NCCc1c[n-]c(-c2ccc[nH+]c2)n1 (protonated)
NCCc1c[n-]c(-c2ccc[nH+]c2)n1 (3D coordinates assigned)
NCCc1c[n-]c(-c2ccc[nH+]c2)n1 (optimized conformer: 50.53790657948432 kcal/mol)

>  <smiles>  (19) 
NCCc1c[nH]c(-c2cccnc2)n1

>  <score_type>  (19) 
oracle

>  <origin>  (19) 
adg

>  <m_score__min__energy>  (19) 
-6.1200000000000001

>  <m_primary>  (19) 
energy

$$$$
19:0
     RDKit          3D

 43 45  0  0  0  0  0  0  0  0999 V2000
   55.8330   30.0810   45.6130 H   0  0  0  0  0  0  0  0  0  0  0  0
   55.1690   29.8910   44.9010 O   0  0  0  0  0  0  0  0  0  0  0  0
   55.8640   29.9790   43.6870 C   0  0  0  0  0  0  0  0  0  0  0  0
   55.3451   30.6825   43.0193 H   0  0  0  0  0  0  0  0  0  0  0  0
   55.9042   28.9846   43.2185 H   0  0  0  0  0  0  0  0  0  0  0  0
   57.2970   30.4790   43.9420 C   0  0  2  0  0  0  0  0  0  0  0  0
   57.9429   29.8922   43.2723 H   0  0  0  0  0  0  0  0  0  0  0  0
   57.6700   30.3080   45.3440 N   0  0  0  0  0  0  0  0  0  0  0  0
   57.7710   29.0480   46.0370 C   0  0  0  0  0  0  0  0  0  0  0  0
   56.8180   28.0980   45.8390 N   0  0  0  0  0  0  0  0  0  0  0  0
   56.8560   26.9000   46.4800 C   0  0  0  0  0  0  0  0  0  0  0  0
   55.9330   26.0180   46.2310 N   0  0  0  0  0  0  0  0  0  0  0  0
   56.1040   24.7490   45.5760 C   0  0  0  0  0  0  0  0  0  0  0  0
   55.3180   23.6290   45.9030 C   0  0  0  0  0  0  0  0  0  0  0  0
   54.5648   23.7028   46.7013 H   0  0  0  0  0  0  0  0  0  0  0  0
   55.4900   22.4230   45.2180 C   0  0  0  0  0  0  0  0  0  0  0  0
   54.8871   21.5457   45.4952 H   0  0  0  0  0  0  0  0  0  0  0  0
   56.4280   22.3250   44.1780 C   0  0  0  0  0  0  0  0  0  0  0  0
   56.6360   21.0170   43.4630 C   0  0  0  0  0  0  0  0  0  0  0  0
   57.7126   20.7948   43.4221 H   0  0  0  0  0  0  0  0  0  0  0  0
   56.2251   21.1001   42.4460 H   0  0  0  0  0  0  0  0  0  0  0  0
   55.9180   19.8850   44.1920 C   0  0  0  0  0  0  0  0  0  0  0  0
   56.0109   20.0314   45.2783 H   0  0  0  0  0  0  0  0  0  0  0  0
   54.8543   19.8848   43.9116 H   0  0  0  0  0  0  0  0  0  0  0  0
   56.3712   18.9227   43.9116 H   0  0  0  0  0  0  0  0  0  0  0  0
   57.1980   23.4480   43.8400 C   0  0  0  0  0  0  0  0  0  0  0  0
   57.9422   23.3786   43.0330 H   0  0  0  0  0  0  0  0  0  0  0  0
   57.0240   24.6550   44.5240 C   0  0  0  0  0  0  0  0  0  0  0  0
   57.6138   25.5370   44.2339 H   0  0  0  0  0  0  0  0  0  0  0  0
   57.8790   26.6310   47.3360 N   0  0  0  0  0  0  0  0  0  0  0  0
   58.8510   27.5470   47.5770 C   0  0  0  0  0  0  0  0  0  0  0  0
   59.6660   27.3132   48.2779 H   0  0  0  0  0  0  0  0  0  0  0  0
   58.8160   28.7840   46.9360 C   0  0  0  0  0  0  0  0  0  0  0  0
   59.5922   29.5387   47.1308 H   0  0  0  0  0  0  0  0  0  0  0  0
   58.0550   31.5590   45.9750 C   0  0  0  0  0  0  0  0  0  0  0  0
   57.2798   31.8849   46.6841 H   0  0  0  0  0  0  0  0  0  0  0  0
   58.9908   31.4547   46.5437 H   0  0  0  0  0  0  0  0  0  0  0  0
   58.1960   32.5660   44.8450 C   0  0  0  0  0  0  0  0  0  0  0  0
   57.7679   33.5351   45.1409 H   0  0  0  0  0  0  0  0  0  0  0  0
   59.2517   32.7405   44.5898 H   0  0  0  0  0  0  0  0  0  0  0  0
   57.4250   31.9840   43.6660 C   0  0  0  0  0  0  0  0  0  0  0  0
   56.4289   32.4454   43.5961 H   0  0  0  0  0  0  0  0  0  0  0  0
   57.9419   32.1754   42.7140 H   0  0  0  0  0  0  0  0  0  0  0  0
  1  2  1  0
  2  3  1  0
  3  4  1  0
  3  5  1  0
  3  6  1  0
  6  7  1  6
  6  8  1  0
  8  9  1  0
  9 10  2  0
 10 11  1  0
 11 12  2  0
 12 13  1  0
 13 14  2  0
 14 15  1  0
 14 16  1  0
 16 17  1  0
 16 18  2  0
 18 19  1  0
 19 20  1  0
 19 21  1  0
 19 22  1  0
 22 23  1  0
 22 24  1  0
 22 25  1  0
 18 26  1  0
 26 27  1  0
 26 28  2  0
 28 29  1  0
 11 30  1  0
 30 31  1  0
 31 32  1  0
 31 33  2  0
 33 34  1  0
  8 35  1  0
 35 36  1  0
 35 37  1  0
 35 38  1  0
 38 39  1  0
 38 40  1  0
 38 41  1  0
 41 42  1  0
 41 43  1  0
 41  6  1  0
 33  9  1  0
 28 13  1  0
M  CHG  1  30  -1
M  END
>  <UniqueID>  (20) 
16

>  <SMILES>  (20) 
CCc1ccc(/N=c2/nc(N3CCC[C@@H]3CO)cc[n-]2)cc1

>  <Energy>  (20) 
48.084010471230314

>  <Genealogy>  (20) 
CCc1ccc(N=c2nc(N3CCCC3CO)cc[n-]2)cc1 (protonated)
CCc1ccc(N=c2nc(N3CCC[C@@H]3CO)cc[n-]2)cc1 (chirality)
CCc1ccc(/N=c2/nc(N3CCC[C@@H]3CO)cc[n-]2)cc1 (cis-trans isomerization)
CCc1ccc(/N=c2/nc(N3CCC[C@@H]3CO)cc[n-]2)cc1 (3D coordinates assigned)
CCc1ccc(/N=c2/nc(N3CCC[C@@H]3CO)cc[n-]2)cc1 (nonaromatic ring conformer: 48.084010471230314 kcal/mol)

>  <smiles>  (20) 
CCc1ccc(N=c2nc(N3CCCC3CO)cc[nH]2)cc1

>  <score_type>  (20) 
oracle

>  <origin>  (20) 
adg

>  <m_score__min__energy>  (20) 
-9.4800000000000004

>  <m_primary>  (20) 
energy

$$$$
20:0
     RDKit          3D

 23 24  0  0  0  0  0  0  0  0999 V2000
   53.6520   23.7320   45.1300 C   0  0  0  0  0  0  0  0  0  0  0  0
   55.0140   23.8000   44.5150 C   0  0  0  0  0  0  0  0  0  0  0  0
   55.3880   22.9260   43.5390 N   0  0  0  0  0  0  0  0  0  0  0  0
   56.6510   23.1370   43.1100 C   0  0  0  0  0  0  0  0  0  0  0  0
   57.3590   24.4170   43.9350 S   0  0  0  0  0  0  0  0  0  0  0  0
   55.9970   24.7300   44.8750 C   0  0  0  0  0  0  0  0  0  0  0  0
   55.9130   25.7640   45.9300 C   0  0  0  0  0  0  0  0  0  0  0  0
   56.2590   25.4820   47.1070 O   0  0  0  0  0  0  0  0  0  0  0  0
   55.5230   27.1100   45.6330 N   0  0  0  0  0  0  0  0  0  0  0  0
   56.4050   28.1770   45.2550 C   0  0  0  0  0  0  0  0  0  0  0  0
   57.7970   28.0030   45.1940 C   0  0  0  0  0  0  0  0  0  0  0  0
   58.6150   29.0620   44.7950 C   0  0  0  0  0  0  0  0  0  0  0  0
   58.0310   30.2810   44.4460 C   0  0  0  0  0  0  0  0  0  0  0  0
   56.6800   30.4260   44.4870 N   0  0  0  0  0  0  0  0  0  0  0  0
   55.8630   29.4100   44.8730 C   0  0  0  0  0  0  0  0  0  0  0  0
   53.7440   23.7366   46.2261 H   0  0  0  0  0  0  0  0  0  0  0  0
   53.0605   24.6017   44.8080 H   0  0  0  0  0  0  0  0  0  0  0  0
   53.1500   22.8077   44.8080 H   0  0  0  0  0  0  0  0  0  0  0  0
   57.1494   22.5491   42.3252 H   0  0  0  0  0  0  0  0  0  0  0  0
   58.2427   27.0332   45.4603 H   0  0  0  0  0  0  0  0  0  0  0  0
   59.7072   28.9371   44.7561 H   0  0  0  0  0  0  0  0  0  0  0  0
   58.6649   31.1253   44.1374 H   0  0  0  0  0  0  0  0  0  0  0  0
   54.7730   29.5573   44.8852 H   0  0  0  0  0  0  0  0  0  0  0  0
  1  2  1  0
  2  3  1  0
  3  4  2  0
  4  5  1  0
  5  6  1  0
  6  7  1  0
  7  8  2  0
  7  9  1  0
  9 10  1  0
 10 11  2  0
 11 12  1  0
 12 13  2  0
 13 14  1  0
 14 15  2  0
  6  2  2  0
 15 10  1  0
  1 16  1  0
  1 17  1  0
  1 18  1  0
  4 19  1  0
 11 20  1  0
 12 21  1  0
 13 22  1  0
 15 23  1  0
M  CHG  1   9  -1
M  END
>  <UniqueID>  (21) 
17

>  <SMILES>  (21) 
Cc1ncsc1C(=O)[N-]c1cccnc1

>  <Energy>  (21) 
59.30798072487164

>  <Genealogy>  (21) 
Cc1ncsc1C(=O)[N-]c1cccnc1 (protonated)
Cc1ncsc1C(=O)[N-]c1cccnc1 (3D coordinates assigned)
Cc1ncsc1C(=O)[N-]c1cccnc1 (optimized conformer: 59.30798072487164 kcal/mol)

>  <smiles>  (21) 
Cc1ncsc1C(=O)Nc1cccnc1

>  <score_type>  (21) 
oracle

>  <origin>  (21) 
adg

>  <m_score__min__energy>  (21) 
-7.5700000000000003

>  <m_primary>  (21) 
energy

$$$$
21:0
     RDKit          3D

 67 69  0  0  0  0  0  0  0  0999 V2000
   59.5930   33.0410   51.3010 C   0  0  0  0  0  0  0  0  0  0  0  0
   59.2540   33.9580   50.2640 O   0  0  0  0  0  0  0  0  0  0  0  0
   59.7010   33.8570   48.9380 C   0  0  0  0  0  0  0  0  0  0  0  0
   58.8340   33.9990   47.8380 C   0  0  0  0  0  0  0  0  0  0  0  0
   59.3310   33.9030   46.5350 C   0  0  0  0  0  0  0  0  0  0  0  0
   60.6910   33.6630   46.3160 C   0  0  0  0  0  0  0  0  0  0  0  0
   61.5630   33.5140   47.4040 C   0  0  0  0  0  0  0  0  0  0  0  0
   63.2890   33.2530   47.1400 S   0  0  0  0  0  0  0  0  0  0  0  0
   63.7500   34.0640   45.9610 O   0  0  0  0  0  0  0  0  0  0  0  0
   63.5600   31.8030   46.8440 O   0  0  0  0  0  0  0  0  0  0  0  0
   64.1630   33.7860   48.5450 N   0  0  0  0  0  0  0  0  0  0  0  0
   63.7990   33.4610   49.8940 C   0  0  0  0  0  0  0  0  0  0  0  0
   63.5920   34.4570   50.8560 C   0  0  0  0  0  0  0  0  0  0  0  0
   63.2010   34.1070   52.1460 C   0  0  0  0  0  0  0  0  0  0  0  0
   63.0270   32.7620   52.4700 C   0  0  0  0  0  0  0  0  0  0  0  0
   63.2370   31.7830   51.5350 N   0  0  0  0  0  0  0  0  0  0  0  0
   63.0410   30.3730   51.9160 C   0  0  0  0  0  0  0  0  0  0  0  0
   61.7620   29.8490   51.3300 C   0  0  0  0  0  0  0  0  0  0  0  0
   60.9000   29.3300   52.0920 O   0  0  0  0  0  0  0  0  0  0  0  0
   61.5170   29.9500   49.9190 N   0  0  0  0  0  0  0  0  0  0  0  0
   60.3050   29.4090   49.2930 C   0  0  0  0  0  0  0  0  0  0  0  0
   59.4990   30.5390   48.6010 C   0  0  0  0  0  0  0  0  0  0  0  0
   58.9900   30.1810   47.1910 C   0  0  0  0  0  0  0  0  0  0  0  0
   58.5630   28.7760   47.1130 N   0  0  0  0  0  0  0  0  0  0  0  0
   57.4120   28.4080   46.3300 C   0  0  0  0  0  0  0  0  0  0  0  0
   56.9940   27.2170   46.3570 O   0  0  0  0  0  0  0  0  0  0  0  0
   56.7670   29.3720   45.5340 O   0  0  0  0  0  0  0  0  0  0  0  0
   57.0130   29.6270   44.1420 C   0  0  0  0  0  0  0  0  0  0  0  0
   55.6860   29.8090   43.3790 C   0  0  0  0  0  0  0  0  0  0  0  0
   57.9130   30.8690   43.9720 C   0  0  0  0  0  0  0  0  0  0  0  0
   57.7460   28.4000   43.5750 C   0  0  0  0  0  0  0  0  0  0  0  0
   59.4100   27.7100   47.6740 C   0  0  0  0  0  0  0  0  0  0  0  0
   60.6760   28.2780   48.3220 C   0  0  0  0  0  0  0  0  0  0  0  0
   63.6040   32.1140   50.2530 C   0  0  0  0  0  0  0  0  0  0  0  0
   63.7820   31.2110   49.3860 O   0  0  0  0  0  0  0  0  0  0  0  0
   61.0630   33.6100   48.7100 C   0  0  0  0  0  0  0  0  0  0  0  0
   59.4186   33.5129   52.2792 H   0  0  0  0  0  0  0  0  0  0  0  0
   58.9686   32.1398   51.2121 H   0  0  0  0  0  0  0  0  0  0  0  0
   60.6535   32.7626   51.2121 H   0  0  0  0  0  0  0  0  0  0  0  0
   57.7628   34.1860   48.0042 H   0  0  0  0  0  0  0  0  0  0  0  0
   58.6498   34.0167   45.6789 H   0  0  0  0  0  0  0  0  0  0  0  0
   61.0775   33.5910   45.2886 H   0  0  0  0  0  0  0  0  0  0  0  0
   63.7381   35.5151   50.5931 H   0  0  0  0  0  0  0  0  0  0  0  0
   63.0307   34.8859   52.9038 H   0  0  0  0  0  0  0  0  0  0  0  0
   62.7175   32.4838   53.4882 H   0  0  0  0  0  0  0  0  0  0  0  0
   63.8843   29.7748   51.5404 H   0  0  0  0  0  0  0  0  0  0  0  0
   62.9882   30.3022   53.0124 H   0  0  0  0  0  0  0  0  0  0  0  0
   62.2600   30.3760   49.3130 H   0  0  0  0  0  0  0  0  0  0  0  0
   59.6534   28.9796   50.0683 H   0  0  0  0  0  0  0  0  0  0  0  0
   58.6295   30.7779   49.2311 H   0  0  0  0  0  0  0  0  0  0  0  0
   60.1863   31.3895   48.4819 H   0  0  0  0  0  0  0  0  0  0  0  0
   58.1357   30.8285   46.9443 H   0  0  0  0  0  0  0  0  0  0  0  0
   59.8140   30.3315   46.4780 H   0  0  0  0  0  0  0  0  0  0  0  0
   54.8618   29.9220   44.0987 H   0  0  0  0  0  0  0  0  0  0  0  0
   55.7467   30.7072   42.7469 H   0  0  0  0  0  0  0  0  0  0  0  0
   55.5026   28.9276   42.7469 H   0  0  0  0  0  0  0  0  0  0  0  0
   58.1939   31.2566   44.9624 H   0  0  0  0  0  0  0  0  0  0  0  0
   58.8206   30.5908   43.4162 H   0  0  0  0  0  0  0  0  0  0  0  0
   57.3660   31.6449   43.4162 H   0  0  0  0  0  0  0  0  0  0  0  0
   58.1169   27.7791   44.4038 H   0  0  0  0  0  0  0  0  0  0  0  0
   57.0517   27.8109   42.9578 H   0  0  0  0  0  0  0  0  0  0  0  0
   58.5938   28.7322   42.9578 H   0  0  0  0  0  0  0  0  0  0  0  0
   58.8355   27.1606   48.4343 H   0  0  0  0  0  0  0  0  0  0  0  0
   59.7131   27.0436   46.8530 H   0  0  0  0  0  0  0  0  0  0  0  0
   61.1932   27.4790   48.8735 H   0  0  0  0  0  0  0  0  0  0  0  0
   61.3363   28.6766   47.5377 H   0  0  0  0  0  0  0  0  0  0  0  0
   61.7453   33.4905   49.5645 H   0  0  0  0  0  0  0  0  0  0  0  0
  1  2  1  0
  2  3  1  0
  3  4  2  0
  4  5  1  0
  5  6  2  0
  6  7  1  0
  7  8  1  0
  8  9  2  0
  8 10  2  0
  8 11  1  0
 11 12  1  0
 12 13  2  0
 13 14  1  0
 14 15  2  0
 15 16  1  0
 16 17  1  0
 17 18  1  0
 18 19  2  0
 18 20  1  0
 20 21  1  0
 21 22  1  0
 22 23  1  0
 23 24  1  0
 24 25  1  0
 25 26  2  0
 25 27  1  0
 27 28  1  0
 28 29  1  0
 28 30  1  0
 28 31  1  0
 24 32  1  0
 32 33  1  0
 16 34  1  0
 34 35  2  0
  7 36  2  0
 36  3  1  0
 34 12  1  0
 33 21  1  0
  1 37  1  0
  1 38  1  0
  1 39  1  0
  4 40  1  0
  5 41  1  0
  6 42  1  0
 13 43  1  0
 14 44  1  0
 15 45  1  0
 17 46  1  0
 17 47  1  0
 20 48  1  0
 21 49  1  0
 22 50  1  0
 22 51  1  0
 23 52  1  0
 23 53  1  0
 29 54  1  0
 29 55  1  0
 29 56  1  0
 30 57  1  0
 30 58  1  0
 30 59  1  0
 31 60  1  0
 31 61  1  0
 31 62  1  0
 32 63  1  0
 32 64  1  0
 33 65  1  0
 33 66  1  0
 36 67  1  0
M  CHG  1  11  -1
M  END
>  <UniqueID>  (22) 
18

>  <SMILES>  (22) 
COc1cccc(S(=O)(=O)[N-]c2cccn(CC(=O)NC3CCN(C(=O)OC(C)(C)C)CC3)c2=O)c1

>  <Energy>  (22) 
70.13801360641938

>  <Genealogy>  (22) 
COc1cccc(S(=O)(=O)[N-]c2cccn(CC(=O)NC3CCN(C(=O)OC(C)(C)C)CC3)c2=O)c1 (protonated)
COc1cccc(S(=O)(=O)[N-]c2cccn(CC(=O)NC3CCN(C(=O)OC(C)(C)C)CC3)c2=O)c1 (3D coordinates assigned)
COc1cccc(S(=O)(=O)[N-]c2cccn(CC(=O)NC3CCN(C(=O)OC(C)(C)C)CC3)c2=O)c1 (nonaromatic ring conformer: 70.13801360641938 kcal/mol)

>  <smiles>  (22) 
COc1cccc(S(=O)(=O)Nc2cccn(CC(=O)NC3CCN(C(=O)OC(C)(C)C)CC3)c2=O)c1

>  <score_type>  (22) 
oracle

>  <origin>  (22) 
adg

>  <m_score__min__energy>  (22) 
-10.470000000000001

>  <m_primary>  (22) 
energy

$$$$
22:0
     RDKit          3D

 27 29  0  0  0  0  0  0  0  0999 V2000
   58.4530   28.4000   44.4580 O   0  0  0  0  0  0  0  0  0  0  0  0
   57.3990   28.4500   45.1470 C   0  0  0  0  0  0  0  0  0  0  0  0
   56.7770   29.7120   45.4430 N   0  0  0  0  0  0  0  0  0  0  0  0
   57.3320   30.9890   45.0840 C   0  0  0  0  0  0  0  0  0  0  0  0
   57.4700   31.3260   43.7310 C   0  0  0  0  0  0  0  0  0  0  0  0
   58.0290   32.5510   43.3670 C   0  0  0  0  0  0  0  0  0  0  0  0
   58.4650   33.4260   44.3640 C   0  0  0  0  0  0  0  0  0  0  0  0
   58.3550   33.0770   45.6720 N   0  0  0  0  0  0  0  0  0  0  0  0
   57.8090   31.8890   46.0530 C   0  0  0  0  0  0  0  0  0  0  0  0
   56.8080   27.1880   45.6200 C   0  0  0  0  0  0  0  0  0  0  0  0
   55.5090   27.0640   45.9820 N   0  0  0  0  0  0  0  0  0  0  0  0
   55.2760   25.8090   46.3570 N   0  0  0  0  0  0  0  0  0  0  0  0
   56.4290   25.1320   46.2240 C   0  0  0  0  0  0  0  0  0  0  0  0
   56.6500   23.7780   46.4650 C   0  0  0  0  0  0  0  0  0  0  0  0
   57.9330   23.2670   46.1980 C   0  0  0  0  0  0  0  0  0  0  0  0
   58.9470   24.1090   45.6870 C   0  0  0  0  0  0  0  0  0  0  0  0
   58.6910   25.4720   45.4490 C   0  0  0  0  0  0  0  0  0  0  0  0
   57.4170   25.9550   45.7550 C   0  0  0  0  0  0  0  0  0  0  0  0
   55.8940   29.7160   45.9980 H   0  0  0  0  0  0  0  0  0  0  0  0
   57.1366   30.6226   42.9538 H   0  0  0  0  0  0  0  0  0  0  0  0
   58.1253   32.8248   42.3060 H   0  0  0  0  0  0  0  0  0  0  0  0
   58.8981   34.3992   44.0897 H   0  0  0  0  0  0  0  0  0  0  0  0
   57.7411   31.6332   47.1207 H   0  0  0  0  0  0  0  0  0  0  0  0
   55.8487   23.1306   46.8509 H   0  0  0  0  0  0  0  0  0  0  0  0
   58.1487   22.2052   46.3881 H   0  0  0  0  0  0  0  0  0  0  0  0
   59.9438   23.6955   45.4738 H   0  0  0  0  0  0  0  0  0  0  0  0
   59.4670   26.1336   45.0365 H   0  0  0  0  0  0  0  0  0  0  0  0
  1  2  2  0
  2  3  1  0
  3  4  1  0
  4  5  2  0
  5  6  1  0
  6  7  2  0
  7  8  1  0
  8  9  2  0
  2 10  1  0
 10 11  1  0
 11 12  1  0
 12 13  2  0
 13 14  1  0
 14 15  2  0
 15 16  1  0
 16 17  2  0
 17 18  1  0
  9  4  1  0
 18 10  2  0
 18 13  1  0
  3 19  1  0
  5 20  1  0
  6 21  1  0
  7 22  1  0
  9 23  1  0
 14 24  1  0
 15 25  1  0
 16 26  1  0
 17 27  1  0
M  CHG  1  11  -1
M  END
>  <UniqueID>  (23) 
19

>  <SMILES>  (23) 
O=C(Nc1cccnc1)c1[n-]nc2ccccc12

>  <Energy>  (23) 
75.90002625130914

>  <Genealogy>  (23) 
O=C(Nc1cccnc1)c1[n-]nc2ccccc12 (protonated)
O=C(Nc1cccnc1)c1[n-]nc2ccccc12 (3D coordinates assigned)
O=C(Nc1cccnc1)c1[n-]nc2ccccc12 (optimized conformer: 75.90002625130914 kcal/mol)

>  <smiles>  (23) 
O=C(Nc1cccnc1)c1[nH]nc2ccccc12

>  <score_type>  (23) 
oracle

>  <origin>  (23) 
adg

>  <m_score__min__energy>  (23) 
-9.2699999999999996

>  <m_primary>  (23) 
energy

$$$$
23:0
     RDKit          3D

 29 31  0  0  0  0  0  0  0  0999 V2000
   58.5150   34.3000   45.0920 C   0  0  0  0  0  0  0  0  0  0  0  0
   59.5750   34.2790   46.1470 C   0  0  0  0  0  0  0  0  0  0  0  0
   60.7650   33.8410   45.8420 N   0  0  0  0  0  0  0  0  0  0  0  0
   61.7980   33.8420   46.8250 C   0  0  0  0  0  0  0  0  0  0  0  0
   63.0710   33.4500   46.6180 N   0  0  0  0  0  0  0  0  0  0  0  0
   63.5910   33.5580   47.8680 C   0  0  0  0  0  0  0  0  0  0  0  0
   62.6760   33.9760   48.7670 N   0  0  0  0  0  0  0  0  0  0  0  0
   61.5570   34.1590   48.0960 N   0  0  0  0  0  0  0  0  0  0  0  0
   60.2370   34.4860   48.6310 C   0  0  2  0  0  0  0  0  0  0  0  0
   59.6520   33.2930   49.3630 C   0  0  0  0  0  0  0  0  0  0  0  0
   59.4510   32.0640   48.7060 C   0  0  0  0  0  0  0  0  0  0  0  0
   58.8920   30.9800   49.3890 C   0  0  0  0  0  0  0  0  0  0  0  0
   58.5230   31.1120   50.7300 C   0  0  0  0  0  0  0  0  0  0  0  0
   57.9800   30.0590   51.3910 F   0  0  0  0  0  0  0  0  0  0  0  0
   58.7090   32.3290   51.3890 C   0  0  0  0  0  0  0  0  0  0  0  0
   59.2680   33.4170   50.7090 C   0  0  0  0  0  0  0  0  0  0  0  0
   59.3020   34.9610   47.4840 C   0  0  0  0  0  0  0  0  0  0  0  0
   57.5238   34.3196   45.5685 H   0  0  0  0  0  0  0  0  0  0  0  0
   58.6386   35.1959   44.4658 H   0  0  0  0  0  0  0  0  0  0  0  0
   58.6030   33.3999   44.4658 H   0  0  0  0  0  0  0  0  0  0  0  0
   64.6377   33.3308   48.1186 H   0  0  0  0  0  0  0  0  0  0  0  0
   62.8010   34.1060   49.7940 H   0  0  0  0  0  0  0  0  0  0  0  0
   60.3349   35.3076   49.3558 H   0  0  0  0  0  0  0  0  0  0  0  0
   59.7356   31.9562   47.6489 H   0  0  0  0  0  0  0  0  0  0  0  0
   58.7424   30.0218   48.8699 H   0  0  0  0  0  0  0  0  0  0  0  0
   58.4157   32.4327   52.4441 H   0  0  0  0  0  0  0  0  0  0  0  0
   59.4076   34.3750   51.2313 H   0  0  0  0  0  0  0  0  0  0  0  0
   58.2620   34.7514   47.7746 H   0  0  0  0  0  0  0  0  0  0  0  0
   59.4898   36.0353   47.3407 H   0  0  0  0  0  0  0  0  0  0  0  0
  1  2  1  0
  2  3  2  0
  3  4  1  0
  4  5  2  0
  5  6  1  0
  6  7  2  0
  7  8  1  0
  8  9  1  0
  9 10  1  0
 10 11  2  0
 11 12  1  0
 12 13  2  0
 13 14  1  0
 13 15  1  0
 15 16  2  0
  9 17  1  0
 17  2  1  0
  8  4  1  0
 16 10  1  0
  1 18  1  0
  1 19  1  0
  1 20  1  0
  6 21  1  0
  7 22  1  0
  9 23  1  1
 11 24  1  0
 12 25  1  0
 15 26  1  0
 16 27  1  0
 17 28  1  0
 17 29  1  0
M  CHG  1   7   1
M  END
>  <UniqueID>  (24) 
20

>  <SMILES>  (24) 
CC1=Nc2nc[nH+]n2[C@H](c2ccc(F)cc2)C1

>  <Energy>  (24) 
68.40205110859831

>  <Genealogy>  (24) 
CC1=Nc2nc[nH+]n2C(c2ccc(F)cc2)C1 (protonated)
CC1=Nc2nc[nH+]n2[C@H](c2ccc(F)cc2)C1 (chirality)
CC1=Nc2nc[nH+]n2[C@H](c2ccc(F)cc2)C1 (3D coordinates assigned)
CC1=Nc2nc[nH+]n2[C@H](c2ccc(F)cc2)C1 (nonaromatic ring conformer: 68.40205110859831 kcal/mol)

>  <smiles>  (24) 
CC1=Nc2ncnn2C(c2ccc(F)cc2)C1

>  <score_type>  (24) 
oracle

>  <origin>  (24) 
adg

>  <m_score__min__energy>  (24) 
-4.7599999999999998

>  <m_primary>  (24) 
energy

$$$$
24:0
     RDKit          3D

 46 47  0  0  0  0  0  0  0  0999 V2000
   55.8930   30.1460   52.4550 C   0  0  0  0  0  0  0  0  0  0  0  0
   57.0130   29.7760   51.6560 O   0  0  0  0  0  0  0  0  0  0  0  0
   57.9230   30.6830   51.0920 C   0  0  0  0  0  0  0  0  0  0  0  0
   57.9810   31.9750   51.6200 C   0  0  0  0  0  0  0  0  0  0  0  0
   58.8680   32.9310   51.0940 C   0  0  0  0  0  0  0  0  0  0  0  0
   58.9680   34.2250   51.6310 O   0  0  0  0  0  0  0  0  0  0  0  0
   58.8540   34.5380   53.0150 C   0  0  0  0  0  0  0  0  0  0  0  0
   59.6860   32.5860   50.0020 C   0  0  0  0  0  0  0  0  0  0  0  0
   60.6110   33.5800   49.4270 C   0  0  0  0  0  0  0  0  0  0  0  0
   60.2450   34.5160   48.5420 C   0  0  0  0  0  0  0  0  0  0  0  0
   59.7450   34.1710   46.8840 S   0  0  0  0  0  0  0  0  0  0  0  0
   60.5700   33.0240   46.3700 O   0  0  0  0  0  0  0  0  0  0  0  0
   59.9890   35.3650   46.0050 O   0  0  0  0  0  0  0  0  0  0  0  0
   58.0220   33.7020   46.8360 C   0  0  0  0  0  0  0  0  0  0  0  0
   57.8340   32.4980   45.9560 C   0  0  0  0  0  0  0  0  0  0  0  0
   57.3990   32.6530   44.6300 C   0  0  0  0  0  0  0  0  0  0  0  0
   57.2610   31.5370   43.7980 C   0  0  0  0  0  0  0  0  0  0  0  0
   57.5580   30.2540   44.2820 C   0  0  0  0  0  0  0  0  0  0  0  0
   57.4170   29.1120   43.4310 N   0  0  0  0  0  0  0  0  0  0  0  0
   58.0010   30.0980   45.6040 C   0  0  0  0  0  0  0  0  0  0  0  0
   58.1440   31.2130   46.4350 C   0  0  0  0  0  0  0  0  0  0  0  0
   59.6640   31.2770   49.4840 C   0  0  0  0  0  0  0  0  0  0  0  0
   60.5300   30.9590   48.4240 O   0  0  0  0  0  0  0  0  0  0  0  0
   60.7490   29.6420   47.9250 C   0  0  0  0  0  0  0  0  0  0  0  0
   58.7720   30.3340   50.0270 C   0  0  0  0  0  0  0  0  0  0  0  0
   56.1570   30.0588   53.5193 H   0  0  0  0  0  0  0  0  0  0  0  0
   55.6103   31.1853   52.2313 H   0  0  0  0  0  0  0  0  0  0  0  0
   55.0469   29.4796   52.2313 H   0  0  0  0  0  0  0  0  0  0  0  0
   57.3238   32.2483   52.4587 H   0  0  0  0  0  0  0  0  0  0  0  0
   59.1697   33.6712   53.6142 H   0  0  0  0  0  0  0  0  0  0  0  0
   59.4960   35.3997   53.2501 H   0  0  0  0  0  0  0  0  0  0  0  0
   57.8082   34.7850   53.2501 H   0  0  0  0  0  0  0  0  0  0  0  0
   61.6640   33.5509   49.7438 H   0  0  0  0  0  0  0  0  0  0  0  0
   60.2566   35.5663   48.8686 H   0  0  0  0  0  0  0  0  0  0  0  0
   57.6822   33.4637   47.8547 H   0  0  0  0  0  0  0  0  0  0  0  0
   57.4345   34.5382   46.4290 H   0  0  0  0  0  0  0  0  0  0  0  0
   57.1657   33.6562   44.2438 H   0  0  0  0  0  0  0  0  0  0  0  0
   56.9184   31.6657   42.7607 H   0  0  0  0  0  0  0  0  0  0  0  0
   56.6760   28.3990   43.6110 H   0  0  0  0  0  0  0  0  0  0  0  0
   58.0620   28.9640   42.6230 H   0  0  0  0  0  0  0  0  0  0  0  0
   58.2367   29.0945   45.9881 H   0  0  0  0  0  0  0  0  0  0  0  0
   58.5005   31.0845   47.4677 H   0  0  0  0  0  0  0  0  0  0  0  0
   60.8649   28.9450   48.7681 H   0  0  0  0  0  0  0  0  0  0  0  0
   59.8896   29.3349   47.3109 H   0  0  0  0  0  0  0  0  0  0  0  0
   61.6615   29.6296   47.3109 H   0  0  0  0  0  0  0  0  0  0  0  0
   58.7386   29.3148   49.6147 H   0  0  0  0  0  0  0  0  0  0  0  0
  1  2  1  0
  2  3  1  0
  3  4  2  0
  4  5  1  0
  5  6  1  0
  6  7  1  0
  5  8  2  0
  8  9  1  0
  9 10  2  3
 10 11  1  0
 11 12  2  0
 11 13  2  0
 11 14  1  0
 14 15  1  0
 15 16  2  0
 16 17  1  0
 17 18  2  0
 18 19  1  0
 18 20  1  0
 20 21  2  0
  8 22  1  0
 22 23  1  0
 23 24  1  0
 22 25  2  0
 25  3  1  0
 21 15  1  0
  1 26  1  0
  1 27  1  0
  1 28  1  0
  4 29  1  0
  7 30  1  0
  7 31  1  0
  7 32  1  0
  9 33  1  0
 10 34  1  0
 14 35  1  0
 14 36  1  0
 16 37  1  0
 17 38  1  0
 19 39  1  0
 19 40  1  0
 20 41  1  0
 21 42  1  0
 24 43  1  0
 24 44  1  0
 24 45  1  0
 25 46  1  0
M  END
>  <UniqueID>  (25) 
21

>  <SMILES>  (25) 
COc1cc(OC)c(C=CS(=O)(=O)Cc2ccc(N)cc2)c(OC)c1

>  <Energy>  (25) 
46.694834584195085

>  <Genealogy>  (25) 
COc1cc(OC)c(C=CS(=O)(=O)Cc2ccc(N)cc2)c(OC)c1 (3D coordinates assigned)
COc1cc(OC)c(C=CS(=O)(=O)Cc2ccc(N)cc2)c(OC)c1 (optimized conformer: 46.694834584195085 kcal/mol)

>  <smiles>  (25) 
COc1cc(OC)c(C=CS(=O)(=O)Cc2ccc(N)cc2)c(OC)c1

>  <score_type>  (25) 
oracle

>  <origin>  (25) 
adg

>  <m_score__min__energy>  (25) 
-7.46

>  <m_primary>  (25) 
energy

$$$$
25:0
     RDKit          3D

 38 40  0  0  0  0  0  0  0  0999 V2000
   57.6230   24.8600   45.1270 C   0  0  0  0  0  0  0  0  0  0  0  0
   58.9310   24.7060   45.8950 C   0  0  0  0  0  0  0  0  0  0  0  0
   59.6650   25.9810   45.9230 N   0  0  0  0  0  0  0  0  0  0  0  0
   61.0640   25.9860   46.3680 C   0  0  0  0  0  0  0  0  0  0  0  0
   58.9980   27.2090   45.5390 C   0  0  0  0  0  0  0  0  0  0  0  0
   58.3730   28.0410   46.4830 C   0  0  0  0  0  0  0  0  0  0  0  0
   57.7480   29.2110   46.0580 C   0  0  0  0  0  0  0  0  0  0  0  0
   57.7490   29.5340   44.7030 C   0  0  0  0  0  0  0  0  0  0  0  0
   56.9930   31.0250   44.1510 S   0  0  0  0  0  0  0  0  0  0  0  0
   57.1250   31.1590   42.6600 O   0  0  0  0  0  0  0  0  0  0  0  0
   55.5330   30.9960   44.5050 O   0  0  0  0  0  0  0  0  0  0  0  0
   57.7700   32.3900   44.9310 C   0  0  0  0  0  0  0  0  0  0  0  0
   57.3390   33.7110   44.9280 C   0  0  0  0  0  0  0  0  0  0  0  0
   58.2570   34.4350   45.6830 C   0  0  0  0  0  0  0  0  0  0  0  0
   59.2120   33.5990   46.1320 N   0  0  0  0  0  0  0  0  0  0  0  0
   60.2970   33.8540   46.9030 C   0  0  0  0  0  0  0  0  0  0  0  0
   61.1360   32.7810   47.2310 C   0  0  0  0  0  0  0  0  0  0  0  0
   62.5580   33.0320   48.2250 Cl  0  0  0  0  0  0  0  0  0  0  0  0
   60.8150   31.4960   46.7490 C   0  0  0  0  0  0  0  0  0  0  0  0
   59.7070   31.3050   45.9760 N   0  0  0  0  0  0  0  0  0  0  0  0
   58.9220   32.3710   45.6820 C   0  0  0  0  0  0  0  0  0  0  0  0
   58.3710   28.7040   43.8220 N   0  0  0  0  0  0  0  0  0  0  0  0
   58.9710   27.5850   44.2300 N   0  0  0  0  0  0  0  0  0  0  0  0
   56.7896   24.9581   45.8382 H   0  0  0  0  0  0  0  0  0  0  0  0
   57.6729   25.7585   44.4943 H   0  0  0  0  0  0  0  0  0  0  0  0
   57.4628   23.9745   44.4943 H   0  0  0  0  0  0  0  0  0  0  0  0
   58.7107   24.3924   46.9261 H   0  0  0  0  0  0  0  0  0  0  0  0
   59.5515   23.9491   45.3929 H   0  0  0  0  0  0  0  0  0  0  0  0
   61.0991   25.9861   47.4674 H   0  0  0  0  0  0  0  0  0  0  0  0
   61.5738   25.0897   45.9850 H   0  0  0  0  0  0  0  0  0  0  0  0
   61.5674   26.8859   45.9850 H   0  0  0  0  0  0  0  0  0  0  0  0
   58.3772   27.7706   47.5492 H   0  0  0  0  0  0  0  0  0  0  0  0
   57.2579   29.8741   46.7860 H   0  0  0  0  0  0  0  0  0  0  0  0
   56.4446   34.1080   44.4257 H   0  0  0  0  0  0  0  0  0  0  0  0
   58.2099   35.5160   45.8810 H   0  0  0  0  0  0  0  0  0  0  0  0
   60.5122   34.8719   47.2602 H   0  0  0  0  0  0  0  0  0  0  0  0
   61.4618   30.6417   46.9976 H   0  0  0  0  0  0  0  0  0  0  0  0
   58.3920   28.9420   42.8050 H   0  0  0  0  0  0  0  0  0  0  0  0
  1  2  1  0
  2  3  1  0
  3  4  1  0
  3  5  1  0
  5  6  2  0
  6  7  1  0
  7  8  2  0
  8  9  1  0
  9 10  2  0
  9 11  2  0
  9 12  1  0
 12 13  1  0
 13 14  2  0
 14 15  1  0
 15 16  1  0
 16 17  2  0
 17 18  1  0
 17 19  1  0
 19 20  2  0
 20 21  1  0
  8 22  1  0
 22 23  2  0
 23  5  1  0
 21 12  2  0
 21 15  1  0
  1 24  1  0
  1 25  1  0
  1 26  1  0
  2 27  1  0
  2 28  1  0
  4 29  1  0
  4 30  1  0
  4 31  1  0
  6 32  1  0
  7 33  1  0
 13 34  1  0
 14 35  1  0
 16 36  1  0
 19 37  1  0
 22 38  1  0
M  CHG  1  22   1
M  END
>  <UniqueID>  (26) 
22

>  <SMILES>  (26) 
CCN(C)c1ccc(S(=O)(=O)c2ccn3cc(Cl)cnc23)[nH+]n1

>  <Energy>  (26) 
72.08768938277062

>  <Genealogy>  (26) 
CCN(C)c1ccc(S(=O)(=O)c2ccn3cc(Cl)cnc23)[nH+]n1 (protonated)
CCN(C)c1ccc(S(=O)(=O)c2ccn3cc(Cl)cnc23)[nH+]n1 (3D coordinates assigned)
CCN(C)c1ccc(S(=O)(=O)c2ccn3cc(Cl)cnc23)[nH+]n1 (optimized conformer: 72.08768938277062 kcal/mol)

>  <smiles>  (26) 
CCN(C)c1ccc(S(=O)(=O)c2ccn3cc(Cl)cnc23)nn1

>  <score_type>  (26) 
oracle

>  <origin>  (26) 
adg

>  <m_score__min__energy>  (26) 
-6.29

>  <m_primary>  (26) 
energy

$$$$
26:0
     RDKit          3D

 48 51  0  0  0  0  0  0  0  0999 V2000
   55.8080   28.6920   45.1880 O   0  0  0  0  0  0  0  0  0  0  0  0
   56.3970   27.6700   45.6230 C   0  0  0  0  0  0  0  0  0  0  0  0
   55.6030   26.5550   46.0540 N   0  0  0  0  0  0  0  0  0  0  0  0
   55.6390   25.2290   45.5090 C   0  0  0  0  0  0  0  0  0  0  0  0
   54.6830   24.2580   45.8620 C   0  0  0  0  0  0  0  0  0  0  0  0
   54.7580   22.9700   45.3220 C   0  0  0  0  0  0  0  0  0  0  0  0
   55.7920   22.6360   44.4440 C   0  0  0  0  0  0  0  0  0  0  0  0
   56.7590   23.5900   44.1100 C   0  0  0  0  0  0  0  0  0  0  0  0
   56.6870   24.8780   44.6470 C   0  0  0  0  0  0  0  0  0  0  0  0
   57.8750   27.6720   45.7640 C   0  0  0  0  0  0  0  0  0  0  0  0
   58.4960   26.6340   46.4770 C   0  0  0  0  0  0  0  0  0  0  0  0
   59.8840   26.5880   46.5920 C   0  0  0  0  0  0  0  0  0  0  0  0
   60.6510   27.5870   45.9970 C   0  0  0  0  0  0  0  0  0  0  0  0
   60.0440   28.5930   45.3170 N   0  0  0  0  0  0  0  0  0  0  0  0
   58.6920   28.6740   45.1910 C   0  0  0  0  0  0  0  0  0  0  0  0
   58.0200   30.0190   44.2010 S   0  0  0  0  0  0  0  0  0  0  0  0
   57.4470   31.0170   45.6240 C   0  0  0  0  0  0  0  0  0  0  0  0
   58.2060   32.3220   45.7330 C   0  0  0  0  0  0  0  0  0  0  0  0
   57.9120   33.3400   44.8070 C   0  0  0  0  0  0  0  0  0  0  0  0
   58.6250   34.5400   44.8170 C   0  0  0  0  0  0  0  0  0  0  0  0
   59.6400   34.7420   45.7510 C   0  0  0  0  0  0  0  0  0  0  0  0
   59.9380   33.7510   46.6870 C   0  0  0  0  0  0  0  0  0  0  0  0
   59.2230   32.5420   46.7020 C   0  0  0  0  0  0  0  0  0  0  0  0
   59.5650   31.5400   47.7350 C   0  0  0  0  0  0  0  0  0  0  0  0
   60.6470   30.6680   47.5290 C   0  0  0  0  0  0  0  0  0  0  0  0
   60.9700   29.7070   48.4900 C   0  0  0  0  0  0  0  0  0  0  0  0
   60.2320   29.6230   49.6730 C   0  0  0  0  0  0  0  0  0  0  0  0
   59.1750   30.5090   49.9020 C   0  0  0  0  0  0  0  0  0  0  0  0
   58.4710   30.4340   51.0580 F   0  0  0  0  0  0  0  0  0  0  0  0
   58.8450   31.4710   48.9410 C   0  0  0  0  0  0  0  0  0  0  0  0
   57.8260   32.3350   49.1840 F   0  0  0  0  0  0  0  0  0  0  0  0
   53.8753   24.5127   46.5640 H   0  0  0  0  0  0  0  0  0  0  0  0
   54.0009   22.2181   45.5893 H   0  0  0  0  0  0  0  0  0  0  0  0
   55.8457   21.6242   44.0159 H   0  0  0  0  0  0  0  0  0  0  0  0
   57.5771   23.3259   43.4238 H   0  0  0  0  0  0  0  0  0  0  0  0
   57.4572   25.6207   44.3918 H   0  0  0  0  0  0  0  0  0  0  0  0
   57.8827   25.8517   46.9480 H   0  0  0  0  0  0  0  0  0  0  0  0
   60.3689   25.7713   47.1469 H   0  0  0  0  0  0  0  0  0  0  0  0
   61.7477   27.5608   46.0781 H   0  0  0  0  0  0  0  0  0  0  0  0
   56.3765   31.2364   45.4978 H   0  0  0  0  0  0  0  0  0  0  0  0
   57.6246   30.4387   46.5427 H   0  0  0  0  0  0  0  0  0  0  0  0
   57.1119   33.1885   44.0675 H   0  0  0  0  0  0  0  0  0  0  0  0
   58.3857   35.3273   44.0870 H   0  0  0  0  0  0  0  0  0  0  0  0
   60.2071   35.6845   45.7501 H   0  0  0  0  0  0  0  0  0  0  0  0
   60.7407   33.9182   47.4203 H   0  0  0  0  0  0  0  0  0  0  0  0
   61.2424   30.7423   46.6071 H   0  0  0  0  0  0  0  0  0  0  0  0
   61.8070   29.0151   48.3148 H   0  0  0  0  0  0  0  0  0  0  0  0
   60.4825   28.8597   50.4245 H   0  0  0  0  0  0  0  0  0  0  0  0
  1  2  2  0
  2  3  1  0
  3  4  1  0
  4  5  2  0
  5  6  1  0
  6  7  2  0
  7  8  1  0
  8  9  2  0
  2 10  1  0
 10 11  2  0
 11 12  1  0
 12 13  2  0
 13 14  1  0
 14 15  2  0
 15 16  1  0
 16 17  1  0
 17 18  1  0
 18 19  2  0
 19 20  1  0
 20 21  2  0
 21 22  1  0
 22 23  2  0
 23 24  1  0
 24 25  2  0
 25 26  1  0
 26 27  2  0
 27 28  1  0
 28 29  1  0
 28 30  2  0
 30 31  1  0
  9  4  1  0
 15 10  1  0
 23 18  1  0
 30 24  1  0
  5 32  1  0
  6 33  1  0
  7 34  1  0
  8 35  1  0
  9 36  1  0
 11 37  1  0
 12 38  1  0
 13 39  1  0
 17 40  1  0
 17 41  1  0
 19 42  1  0
 20 43  1  0
 21 44  1  0
 22 45  1  0
 25 46  1  0
 26 47  1  0
 27 48  1  0
M  CHG  1   3  -1
M  END
>  <UniqueID>  (27) 
23

>  <SMILES>  (27) 
O=C([N-]c1ccccc1)c1cccnc1SCc1ccccc1-c1cccc(F)c1F

>  <Energy>  (27) 
64.89181195559642

>  <Genealogy>  (27) 
O=C([N-]c1ccccc1)c1cccnc1SCc1ccccc1-c1cccc(F)c1F (protonated)
O=C([N-]c1ccccc1)c1cccnc1SCc1ccccc1-c1cccc(F)c1F (3D coordinates assigned)
O=C([N-]c1ccccc1)c1cccnc1SCc1ccccc1-c1cccc(F)c1F (optimized conformer: 64.89181195559642 kcal/mol)

>  <smiles>  (27) 
O=C(Nc1ccccc1)c1cccnc1SCc1ccccc1-c1cccc(F)c1F

>  <score_type>  (27) 
oracle

>  <origin>  (27) 
adg

>  <m_score__min__energy>  (27) 
-10.890000000000001

>  <m_primary>  (27) 
energy

$$$$
27:0
     RDKit          3D

 26 26  0  0  0  0  0  0  0  0999 V2000
   58.6810   27.8310   43.7820 C   0  0  0  0  0  0  0  0  0  0  0  0
   57.3360   27.7990   44.3720 N   0  0  0  0  0  0  0  0  0  0  0  0
   57.3780   27.2460   45.7330 C   0  0  0  0  0  0  0  0  0  0  0  0
   56.6630   29.4070   44.4030 S   0  0  0  0  0  0  0  0  0  0  0  0
   55.1670   29.3320   44.5270 O   0  0  0  0  0  0  0  0  0  0  0  0
   57.0310   30.1250   43.1330 O   0  0  0  0  0  0  0  0  0  0  0  0
   57.3160   30.2740   45.7560 N   0  0  0  0  0  0  0  0  0  0  0  0
   57.8580   31.6000   45.7060 C   0  0  0  0  0  0  0  0  0  0  0  0
   59.0030   31.8850   46.4620 C   0  0  0  0  0  0  0  0  0  0  0  0
   59.5650   33.1650   46.4420 C   0  0  0  0  0  0  0  0  0  0  0  0
   58.9860   34.1740   45.6630 C   0  0  0  0  0  0  0  0  0  0  0  0
   59.5650   35.4920   45.6430 C   0  0  0  0  0  0  0  0  0  0  0  0
   60.0300   36.5520   45.6270 N   0  0  0  0  0  0  0  0  0  0  0  0
   57.8430   33.8970   44.9040 C   0  0  0  0  0  0  0  0  0  0  0  0
   57.2790   32.6170   44.9240 C   0  0  0  0  0  0  0  0  0  0  0  0
   59.4331   27.8489   44.5845 H   0  0  0  0  0  0  0  0  0  0  0  0
   58.8299   26.9361   43.1599 H   0  0  0  0  0  0  0  0  0  0  0  0
   58.7871   28.7319   43.1599 H   0  0  0  0  0  0  0  0  0  0  0  0
   56.7190   27.1950   43.7790 H   0  0  0  0  0  0  0  0  0  0  0  0
   57.3157   28.0657   46.4639 H   0  0  0  0  0  0  0  0  0  0  0  0
   56.5293   26.5612   45.8769 H   0  0  0  0  0  0  0  0  0  0  0  0
   58.3204   26.6972   45.8769 H   0  0  0  0  0  0  0  0  0  0  0  0
   59.4628   31.0961   47.0754 H   0  0  0  0  0  0  0  0  0  0  0  0
   60.4635   33.3797   47.0392 H   0  0  0  0  0  0  0  0  0  0  0  0
   57.3871   34.6878   44.2902 H   0  0  0  0  0  0  0  0  0  0  0  0
   56.3801   32.4046   44.3266 H   0  0  0  0  0  0  0  0  0  0  0  0
  1  2  1  0
  2  3  1  0
  2  4  1  0
  4  5  2  0
  4  6  2  0
  4  7  1  0
  7  8  1  0
  8  9  2  0
  9 10  1  0
 10 11  2  0
 11 12  1  0
 12 13  3  0
 11 14  1  0
 14 15  2  0
 15  8  1  0
  1 16  1  0
  1 17  1  0
  1 18  1  0
  2 19  1  0
  3 20  1  0
  3 21  1  0
  3 22  1  0
  9 23  1  0
 10 24  1  0
 14 25  1  0
 15 26  1  0
M  CHG  2   2   1   7  -1
M  END
>  <UniqueID>  (28) 
24

>  <SMILES>  (28) 
C[NH+](C)S(=O)(=O)[N-]c1ccc(C#N)cc1

>  <Energy>  (28) 
22.498092295818775

>  <Genealogy>  (28) 
C[NH+](C)S(=O)(=O)[N-]c1ccc(C#N)cc1 (protonated)
C[NH+](C)S(=O)(=O)[N-]c1ccc(C#N)cc1 (3D coordinates assigned)
C[NH+](C)S(=O)(=O)[N-]c1ccc(C#N)cc1 (optimized conformer: 22.498092295818775 kcal/mol)

>  <smiles>  (28) 
CN(C)S(=O)(=O)Nc1ccc(C#N)cc1

>  <score_type>  (28) 
oracle

>  <origin>  (28) 
adg

>  <m_score__min__energy>  (28) 
-6.0899999999999999

>  <m_primary>  (28) 
energy

$$$$
28:0
     RDKit          3D

 42 45  0  0  0  0  0  0  0  0999 V2000
   55.5990   31.2490   45.2470 H   0  0  0  0  0  0  0  0  0  0  0  0
   55.5110   30.3960   44.7070 O   0  0  0  0  0  0  0  0  0  0  0  0
   56.5730   29.8560   44.0110 N   0  0  0  0  0  0  0  0  0  0  0  0
   57.7540   29.7900   44.5930 C   0  0  0  0  0  0  0  0  0  0  0  0
   58.3920   30.8330   45.2690 C   0  0  0  0  0  0  0  0  0  0  0  0
   59.5720   30.2940   45.7230 C   0  0  0  0  0  0  0  0  0  0  0  0
   59.6810   29.0130   45.3450 N   0  0  0  0  0  0  0  0  0  0  0  0
   58.5850   28.6940   44.6610 N   0  0  0  0  0  0  0  0  0  0  0  0
   58.5380   27.4120   43.9430 C   0  0  0  0  0  0  0  0  0  0  0  0
   58.1199   27.5822   42.9399 H   0  0  0  0  0  0  0  0  0  0  0  0
   59.5632   27.0174   43.8858 H   0  0  0  0  0  0  0  0  0  0  0  0
   57.6850   26.3910   44.6600 C   0  0  0  0  0  0  0  0  0  0  0  0
   57.3870   25.1700   44.0310 C   0  0  0  0  0  0  0  0  0  0  0  0
   57.8031   24.9521   43.0363 H   0  0  0  0  0  0  0  0  0  0  0  0
   56.5650   24.2300   44.6610 C   0  0  0  0  0  0  0  0  0  0  0  0
   56.3522   23.2690   44.1699 H   0  0  0  0  0  0  0  0  0  0  0  0
   56.0140   24.5110   45.9140 C   0  0  0  0  0  0  0  0  0  0  0  0
   55.3732   23.7685   46.4122 H   0  0  0  0  0  0  0  0  0  0  0  0
   56.2770   25.7350   46.5340 C   0  0  0  0  0  0  0  0  0  0  0  0
   55.8362   25.9585   47.5167 H   0  0  0  0  0  0  0  0  0  0  0  0
   57.0990   26.6760   45.9080 C   0  0  0  0  0  0  0  0  0  0  0  0
   57.2892   27.6448   46.3931 H   0  0  0  0  0  0  0  0  0  0  0  0
   60.4920   31.0400   46.4750 C   0  0  0  0  0  0  0  0  0  0  0  0
   61.6900   30.4640   46.9090 O   0  0  0  0  0  0  0  0  0  0  0  0
   62.7330   31.2240   47.5050 C   0  0  0  0  0  0  0  0  0  0  0  0
   62.6506   31.1640   48.6003 H   0  0  0  0  0  0  0  0  0  0  0  0
   63.7067   30.8222   47.1880 H   0  0  0  0  0  0  0  0  0  0  0  0
   62.6488   32.2740   47.1880 H   0  0  0  0  0  0  0  0  0  0  0  0
   60.1760   32.3400   46.7700 N   0  0  0  0  0  0  0  0  0  0  0  0
   59.0150   32.8380   46.3350 N   0  0  0  0  0  0  0  0  0  0  0  0
   58.4680   34.0470   46.5120 C   0  0  0  0  0  0  0  0  0  0  0  0
   59.1200   35.1910   47.2150 C   0  0  0  0  0  0  0  0  0  0  0  0
   59.0383   35.0477   48.3026 H   0  0  0  0  0  0  0  0  0  0  0  0
   60.1814   35.2395   46.9303 H   0  0  0  0  0  0  0  0  0  0  0  0
   58.6208   36.1289   46.9303 H   0  0  0  0  0  0  0  0  0  0  0  0
   57.2630   34.1060   45.9000 N   0  0  0  0  0  0  0  0  0  0  0  0
   57.0360   32.9170   45.3420 N   0  0  0  0  0  0  0  0  0  0  0  0
   58.1150   32.1580   45.6130 C   0  0  0  0  0  0  0  0  0  0  0  0
   56.2910   29.3420   42.6680 C   0  0  0  0  0  0  0  0  0  0  0  0
   55.7633   28.3801   42.7469 H   0  0  0  0  0  0  0  0  0  0  0  0
   55.6616   30.0620   42.1245 H   0  0  0  0  0  0  0  0  0  0  0  0
   57.2364   29.1980   42.1245 H   0  0  0  0  0  0  0  0  0  0  0  0
  1  2  1  0
  2  3  1  0
  3  4  2  0
  4  5  1  0
  5  6  2  0
  6  7  1  0
  7  8  1  0
  8  9  1  0
  9 10  1  0
  9 11  1  0
  9 12  1  0
 12 13  2  0
 13 14  1  0
 13 15  1  0
 15 16  1  0
 15 17  2  0
 17 18  1  0
 17 19  1  0
 19 20  1  0
 19 21  2  0
 21 22  1  0
  6 23  1  0
 23 24  1  0
 24 25  1  0
 25 26  1  0
 25 27  1  0
 25 28  1  0
 23 29  2  0
 29 30  1  0
 30 31  1  0
 31 32  1  0
 32 33  1  0
 32 34  1  0
 32 35  1  0
 31 36  2  0
 36 37  1  0
 37 38  2  0
  3 39  1  0
 39 40  1  0
 39 41  1  0
 39 42  1  0
  8  4  1  0
 21 12  1  0
 38 30  1  0
 38  5  1  0
M  CHG  2   3   1   7  -1
M  END
>  <UniqueID>  (29) 
25

>  <SMILES>  (29) 
COc1nn2c(C)nnc2c2/c(=[N+](/C)O)n(Cc3ccccc3)[n-]c12

>  <Energy>  (29) 
142.03610056747914

>  <Genealogy>  (29) 
COc1nn2c(C)nnc2c2c(=[N+](C)O)n(Cc3ccccc3)[n-]c12 (protonated)
COc1nn2c(C)nnc2c2/c(=[N+](/C)O)n(Cc3ccccc3)[n-]c12 (cis-trans isomerization)
COc1nn2c(C)nnc2c2/c(=[N+](/C)O)n(Cc3ccccc3)[n-]c12 (3D coordinates assigned)
COc1nn2c(C)nnc2c2/c(=[N+](/C)O)n(Cc3ccccc3)[n-]c12 (optimized conformer: 142.03610056747914 kcal/mol)

>  <smiles>  (29) 
COc1nn2c(C)nnc2c2c(=[N+](C)[O-])n(Cc3ccccc3)[nH]c12

>  <score_type>  (29) 
oracle

>  <origin>  (29) 
adg

>  <m_score__min__energy>  (29) 
-8.0500000000000007

>  <m_primary>  (29) 
energy

$$$$
29:0
     RDKit          3D

 40 43  0  0  0  0  0  0  0  0999 V2000
   59.8740   34.9970   47.4190 C   0  0  0  0  0  0  0  0  0  0  0  0
   59.7200   35.3770   46.0850 C   0  0  0  0  0  0  0  0  0  0  0  0
   59.0850   34.5210   45.1780 C   0  0  0  0  0  0  0  0  0  0  0  0
   58.5930   33.2710   45.6030 C   0  0  0  0  0  0  0  0  0  0  0  0
   57.9190   32.3470   44.6590 C   0  0  0  0  0  0  0  0  0  0  0  0
   57.9390   32.5010   43.3170 N   0  0  0  0  0  0  0  0  0  0  0  0
   57.2470   31.5080   42.8440 O   0  0  0  0  0  0  0  0  0  0  0  0
   56.8050   30.7660   43.8290 C   0  0  0  0  0  0  0  0  0  0  0  0
   55.9900   29.5240   43.6560 C   0  0  0  0  0  0  0  0  0  0  0  0
   55.9870   28.7140   44.8870 N   0  0  0  0  0  0  0  0  0  0  0  0
   57.1490   27.8260   45.1480 C   0  0  2  0  0  0  0  0  0  0  0  0
   56.9160   26.7780   46.2570 C   0  0  0  0  0  0  0  0  0  0  0  0
   58.2030   26.8910   47.0980 C   0  0  1  0  0  0  0  0  0  0  0  0
   59.4050   26.4000   46.2650 C   0  0  0  0  0  0  0  0  0  0  0  0
   59.6270   27.5520   45.2660 C   0  0  0  0  0  0  0  0  0  0  0  0
   58.4690   28.5140   45.5970 C   0  0  2  0  0  0  0  0  0  0  0  0
   58.4330   28.3810   47.1100 C   0  0  0  0  0  0  0  0  0  0  0  0
   57.2140   31.2520   45.0140 N   0  0  0  0  0  0  0  0  0  0  0  0
   58.7580   32.9000   46.9520 C   0  0  0  0  0  0  0  0  0  0  0  0
   59.3940   33.7600   47.8510 C   0  0  0  0  0  0  0  0  0  0  0  0
   60.3734   35.6722   48.1294 H   0  0  0  0  0  0  0  0  0  0  0  0
   60.0989   36.3523   45.7454 H   0  0  0  0  0  0  0  0  0  0  0  0
   58.9694   34.8258   44.1274 H   0  0  0  0  0  0  0  0  0  0  0  0
   54.9557   29.8049   43.4086 H   0  0  0  0  0  0  0  0  0  0  0  0
   56.4333   28.9260   42.8461 H   0  0  0  0  0  0  0  0  0  0  0  0
   55.1380   28.1030   44.8510 H   0  0  0  0  0  0  0  0  0  0  0  0
   57.2507   27.3895   44.1434 H   0  0  0  0  0  0  0  0  0  0  0  0
   56.0268   27.0240   46.8560 H   0  0  0  0  0  0  0  0  0  0  0  0
   56.7317   25.7645   45.8711 H   0  0  0  0  0  0  0  0  0  0  0  0
   58.1168   26.3598   48.0574 H   0  0  0  0  0  0  0  0  0  0  0  0
   60.2911   26.2504   46.8994 H   0  0  0  0  0  0  0  0  0  0  0  0
   59.2273   25.4305   45.7767 H   0  0  0  0  0  0  0  0  0  0  0  0
   60.6022   28.0346   45.4272 H   0  0  0  0  0  0  0  0  0  0  0  0
   59.6361   27.2241   44.2160 H   0  0  0  0  0  0  0  0  0  0  0  0
   58.5750   29.5211   45.1674 H   0  0  0  0  0  0  0  0  0  0  0  0
   59.3810   28.6661   47.5896 H   0  0  0  0  0  0  0  0  0  0  0  0
   57.7179   29.0069   47.6640 H   0  0  0  0  0  0  0  0  0  0  0  0
   57.0290   30.8560   45.9610 H   0  0  0  0  0  0  0  0  0  0  0  0
   58.3834   31.9261   47.3001 H   0  0  0  0  0  0  0  0  0  0  0  0
   59.5167   33.4610   48.9025 H   0  0  0  0  0  0  0  0  0  0  0  0
  1  2  2  0
  2  3  1  0
  3  4  2  0
  4  5  1  0
  5  6  2  0
  6  7  1  0
  7  8  1  0
  8  9  1  0
  9 10  1  0
 10 11  1  0
 11 12  1  0
 12 13  1  0
 13 14  1  0
 14 15  1  0
 15 16  1  0
 16 17  1  0
  8 18  2  0
  4 19  1  0
 19 20  2  0
 20  1  1  0
 18  5  1  0
 16 11  1  0
 17 13  1  0
  1 21  1  0
  2 22  1  0
  3 23  1  0
  9 24  1  0
  9 25  1  0
 10 26  1  0
 11 27  1  6
 12 28  1  0
 12 29  1  0
 13 30  1  1
 14 31  1  0
 14 32  1  0
 15 33  1  0
 15 34  1  0
 16 35  1  1
 17 36  1  0
 17 37  1  0
 18 38  1  0
 19 39  1  0
 20 40  1  0
M  CHG  1  18   1
M  END
>  <UniqueID>  (30) 
26

>  <SMILES>  (30) 
c1ccc(-c2noc(CN[C@@H]3C[C@H]4CCC3C4)[nH+]2)cc1

>  <Energy>  (30) 
111.75448428683517

>  <Genealogy>  (30) 
c1ccc(-c2noc(CNC3CC4CCC3C4)[nH+]2)cc1 (protonated)
c1ccc(-c2noc(CN[C@@H]3C[C@H]4CCC3C4)[nH+]2)cc1 (chirality)
c1ccc(-c2noc(CN[C@@H]3C[C@H]4CCC3C4)[nH+]2)cc1 (3D coordinates assigned)
c1ccc(-c2noc(CN[C@@H]3C[C@H]4CCC3C4)[nH+]2)cc1 (nonaromatic ring conformer: 111.75448428683517 kcal/mol)

>  <smiles>  (30) 
c1ccc(-c2noc(CNC3CC4CCC3C4)n2)cc1

>  <score_type>  (30) 
oracle

>  <origin>  (30) 
adg

>  <m_score__min__energy>  (30) 
-6.9100000000000001

>  <m_primary>  (30) 
energy

$$$$
30:0
     RDKit          3D

 32 32  0  0  0  0  0  0  0  0999 V2000
   56.9290   34.6803   46.4040 H   0  0  0  0  0  0  0  0  0  0  0  0
   57.8230   34.2340   45.9440 C   0  0  0  0  0  0  0  0  0  0  0  0
   59.1380   34.5940   46.5210 C   0  0  0  0  0  0  0  0  0  0  0  0
   59.9020   35.4070   45.9350 O   0  0  0  0  0  0  0  0  0  0  0  0
   59.5710   33.9930   47.8260 C   0  0  0  0  0  0  0  0  0  0  0  0
   59.2033   32.9581   47.8882 H   0  0  0  0  0  0  0  0  0  0  0  0
   59.1556   34.5918   48.6499 H   0  0  0  0  0  0  0  0  0  0  0  0
   61.1000   33.9930   47.9330 C   0  0  0  0  0  0  0  0  0  0  0  0
   61.3935   33.5922   48.9145 H   0  0  0  0  0  0  0  0  0  0  0  0
   61.4629   35.0251   47.8187 H   0  0  0  0  0  0  0  0  0  0  0  0
   61.6980   33.1570   46.8680 N   0  0  0  0  0  0  0  0  0  0  0  0
   61.5170   31.7230   47.1540 C   0  0  0  0  0  0  0  0  0  0  0  0
   61.4972   31.5659   48.2425 H   0  0  0  0  0  0  0  0  0  0  0  0
   60.5683   31.3787   46.7165 H   0  0  0  0  0  0  0  0  0  0  0  0
   62.3504   31.1538   46.7165 H   0  0  0  0  0  0  0  0  0  0  0  0
   63.1350   33.4490   46.7380 C   0  0  0  0  0  0  0  0  0  0  0  0
   63.5827   33.5400   47.7387 H   0  0  0  0  0  0  0  0  0  0  0  0
   63.6269   32.6325   46.1891 H   0  0  0  0  0  0  0  0  0  0  0  0
   63.2692   34.3928   46.1891 H   0  0  0  0  0  0  0  0  0  0  0  0
   57.6350   33.4070   44.9050 C   0  0  0  0  0  0  0  0  0  0  0  0
   57.2281   33.8396   43.9791 H   0  0  0  0  0  0  0  0  0  0  0  0
   57.9330   31.9560   44.9080 C   0  0  0  0  0  0  0  0  0  0  0  0
   58.1510   31.2790   46.1170 C   0  0  0  0  0  0  0  0  0  0  0  0
   58.1366   31.8338   47.0667 H   0  0  0  0  0  0  0  0  0  0  0  0
   58.3860   29.9040   46.1180 C   0  0  0  0  0  0  0  0  0  0  0  0
   58.5726   29.3731   47.0632 H   0  0  0  0  0  0  0  0  0  0  0  0
   58.3820   29.2090   44.9090 C   0  0  0  0  0  0  0  0  0  0  0  0
   58.6730   27.4780   44.8970 Cl  0  0  0  0  0  0  0  0  0  0  0  0
   58.1430   29.8690   43.7420 N   0  0  0  0  0  0  0  0  0  0  0  0
   58.1380   29.3310   42.8470 H   0  0  0  0  0  0  0  0  0  0  0  0
   57.9110   31.2110   43.7130 C   0  0  0  0  0  0  0  0  0  0  0  0
   57.6160   31.9900   42.1610 Cl  0  0  0  0  0  0  0  0  0  0  0  0
  1  2  1  0
  2  3  1  0
  3  4  2  0
  3  5  1  0
  5  6  1  0
  5  7  1  0
  5  8  1  0
  8  9  1  0
  8 10  1  0
  8 11  1  0
 11 12  1  0
 12 13  1  0
 12 14  1  0
 12 15  1  0
 11 16  1  0
 16 17  1  0
 16 18  1  0
 16 19  1  0
  2 20  2  0
 20 21  1  0
 20 22  1  0
 22 23  2  0
 23 24  1  0
 23 25  1  0
 25 26  1  0
 25 27  2  0
 27 28  1  0
 27 29  1  0
 29 30  1  0
 29 31  2  0
 31 32  1  0
 31 22  1  0
M  CHG  1  29   1
M  END
>  <UniqueID>  (31) 
27

>  <SMILES>  (31) 
CN(C)CCC(=O)/C=C\c1ccc(Cl)[nH+]c1Cl

>  <Energy>  (31) 
35.93718172669282

>  <Genealogy>  (31) 
CN(C)CCC(=O)C=Cc1ccc(Cl)[nH+]c1Cl (protonated)
CN(C)CCC(=O)/C=C\c1ccc(Cl)[nH+]c1Cl (cis-trans isomerization)
CN(C)CCC(=O)/C=C\c1ccc(Cl)[nH+]c1Cl (3D coordinates assigned)
CN(C)CCC(=O)/C=C\c1ccc(Cl)[nH+]c1Cl (optimized conformer: 35.93718172669282 kcal/mol)

>  <smiles>  (31) 
CN(C)CCC(=O)C=Cc1ccc(Cl)nc1Cl

>  <score_type>  (31) 
oracle

>  <origin>  (31) 
adg

>  <m_score__min__energy>  (31) 
-5.4000000000000004

>  <m_primary>  (31) 
energy

$$$$
31:0
     RDKit          3D

 39 41  0  0  0  0  0  0  0  0999 V2000
   59.1410   34.3520   44.4310 O   0  0  0  0  0  0  0  0  0  0  0  0
   58.4340   33.4530   44.9600 C   0  0  0  0  0  0  0  0  0  0  0  0
   58.2010   33.4670   46.3770 N   0  0  0  0  0  0  0  0  0  0  0  0
   58.8970   34.3820   47.2770 C   0  0  0  0  0  0  0  0  0  0  0  0
   60.3030   33.8970   47.5390 C   0  0  0  0  0  0  0  0  0  0  0  0
   61.2180   33.8860   46.4710 C   0  0  0  0  0  0  0  0  0  0  0  0
   62.5260   33.4340   46.6590 C   0  0  0  0  0  0  0  0  0  0  0  0
   62.9370   32.9880   47.9160 C   0  0  0  0  0  0  0  0  0  0  0  0
   62.0420   32.9940   48.9870 C   0  0  0  0  0  0  0  0  0  0  0  0
   60.7270   33.4450   48.8110 C   0  0  0  0  0  0  0  0  0  0  0  0
   59.6580   33.4280   50.2110 Cl  0  0  0  0  0  0  0  0  0  0  0  0
   57.8240   32.4140   44.0990 C   0  0  0  0  0  0  0  0  0  0  0  0
   57.7660   32.6120   42.7100 C   0  0  0  0  0  0  0  0  0  0  0  0
   57.1890   31.6450   41.8860 C   0  0  0  0  0  0  0  0  0  0  0  0
   56.6830   30.4780   42.4540 C   0  0  0  0  0  0  0  0  0  0  0  0
   56.7640   30.2850   43.7960 N   0  0  0  0  0  0  0  0  0  0  0  0
   57.3130   31.2120   44.6310 C   0  0  0  0  0  0  0  0  0  0  0  0
   57.4360   30.9460   46.0020 O   0  0  0  0  0  0  0  0  0  0  0  0
   58.4400   30.1660   46.5960 C   0  0  0  0  0  0  0  0  0  0  0  0
   59.5370   30.7460   47.2610 C   0  0  0  0  0  0  0  0  0  0  0  0
   60.5260   29.9370   47.8280 C   0  0  0  0  0  0  0  0  0  0  0  0
   60.4360   28.5470   47.7280 C   0  0  0  0  0  0  0  0  0  0  0  0
   59.3620   27.9630   47.0510 C   0  0  0  0  0  0  0  0  0  0  0  0
   58.3700   28.7690   46.4800 C   0  0  0  0  0  0  0  0  0  0  0  0
   57.0330   28.0120   45.6270 Cl  0  0  0  0  0  0  0  0  0  0  0  0
   57.4740   32.8370   46.7850 H   0  0  0  0  0  0  0  0  0  0  0  0
   58.9380   35.3806   46.8176 H   0  0  0  0  0  0  0  0  0  0  0  0
   58.3518   34.4264   48.2314 H   0  0  0  0  0  0  0  0  0  0  0  0
   60.9004   34.2368   45.4780 H   0  0  0  0  0  0  0  0  0  0  0  0
   63.2326   33.4295   45.8160 H   0  0  0  0  0  0  0  0  0  0  0  0
   63.9672   32.6314   48.0628 H   0  0  0  0  0  0  0  0  0  0  0  0
   62.3711   32.6423   49.9759 H   0  0  0  0  0  0  0  0  0  0  0  0
   58.1769   33.5326   42.2700 H   0  0  0  0  0  0  0  0  0  0  0  0
   57.1342   31.8026   40.7987 H   0  0  0  0  0  0  0  0  0  0  0  0
   56.2177   29.7126   41.8155 H   0  0  0  0  0  0  0  0  0  0  0  0
   59.6162   31.8407   47.3347 H   0  0  0  0  0  0  0  0  0  0  0  0
   61.3763   30.3959   48.3537 H   0  0  0  0  0  0  0  0  0  0  0  0
   61.2106   27.9117   48.1822 H   0  0  0  0  0  0  0  0  0  0  0  0
   59.2960   26.8682   46.9666 H   0  0  0  0  0  0  0  0  0  0  0  0
  1  2  2  0
  2  3  1  0
  3  4  1  0
  4  5  1  0
  5  6  2  0
  6  7  1  0
  7  8  2  0
  8  9  1  0
  9 10  2  0
 10 11  1  0
  2 12  1  0
 12 13  2  0
 13 14  1  0
 14 15  2  0
 15 16  1  0
 16 17  2  0
 17 18  1  0
 18 19  1  0
 19 20  2  0
 20 21  1  0
 21 22  2  0
 22 23  1  0
 23 24  2  0
 24 25  1  0
 10  5  1  0
 17 12  1  0
 24 19  1  0
  3 26  1  0
  4 27  1  0
  4 28  1  0
  6 29  1  0
  7 30  1  0
  8 31  1  0
  9 32  1  0
 13 33  1  0
 14 34  1  0
 15 35  1  0
 20 36  1  0
 21 37  1  0
 22 38  1  0
 23 39  1  0
M  END
>  <UniqueID>  (32) 
28

>  <SMILES>  (32) 
O=C(NCc1ccccc1Cl)c1cccnc1Oc1ccccc1Cl

>  <Energy>  (32) 
50.80170564078966

>  <Genealogy>  (32) 
O=C(NCc1ccccc1Cl)c1cccnc1Oc1ccccc1Cl (3D coordinates assigned)
O=C(NCc1ccccc1Cl)c1cccnc1Oc1ccccc1Cl (optimized conformer: 50.80170564078966 kcal/mol)

>  <smiles>  (32) 
O=C(NCc1ccccc1Cl)c1cccnc1Oc1ccccc1Cl

>  <score_type>  (32) 
oracle

>  <origin>  (32) 
adg

>  <m_score__min__energy>  (32) 
-8.1699999999999999

>  <m_primary>  (32) 
energy

$$$$
32:0
     RDKit          3D

 32 33  0  0  0  0  0  0  0  0999 V2000
   55.8480   25.6180   45.9660 C   0  0  0  0  0  0  0  0  0  0  0  0
   56.3050   26.9380   45.6910 O   0  0  0  0  0  0  0  0  0  0  0  0
   57.6490   27.3420   45.7370 C   0  0  0  0  0  0  0  0  0  0  0  0
   58.4560   27.1100   46.8700 C   0  0  0  0  0  0  0  0  0  0  0  0
   59.7870   27.5310   46.8900 C   0  0  0  0  0  0  0  0  0  0  0  0
   60.5530   27.3050   47.9850 F   0  0  0  0  0  0  0  0  0  0  0  0
   60.3300   28.1870   45.7850 C   0  0  0  0  0  0  0  0  0  0  0  0
   59.5450   28.4210   44.6550 C   0  0  0  0  0  0  0  0  0  0  0  0
   58.2020   28.0020   44.6160 C   0  0  0  0  0  0  0  0  0  0  0  0
   57.3930   28.2880   43.4530 N   0  0  0  0  0  0  0  0  0  0  0  0
   56.4490   29.3880   43.7090 C   0  0  0  0  0  0  0  0  0  0  0  0
   57.1560   30.7130   43.8630 C   0  0  0  0  0  0  0  0  0  0  0  0
   57.5150   31.4630   42.7300 C   0  0  0  0  0  0  0  0  0  0  0  0
   58.1300   32.7090   42.8770 C   0  0  0  0  0  0  0  0  0  0  0  0
   58.3880   33.2170   44.1540 C   0  0  0  0  0  0  0  0  0  0  0  0
   58.0270   32.4810   45.2860 C   0  0  0  0  0  0  0  0  0  0  0  0
   58.2710   32.9780   46.5230 F   0  0  0  0  0  0  0  0  0  0  0  0
   57.4100   31.2340   45.1430 C   0  0  0  0  0  0  0  0  0  0  0  0
   55.7958   25.4673   47.0544 H   0  0  0  0  0  0  0  0  0  0  0  0
   54.8488   25.4772   45.5280 H   0  0  0  0  0  0  0  0  0  0  0  0
   56.5462   24.8895   45.5280 H   0  0  0  0  0  0  0  0  0  0  0  0
   58.0336   26.5935   47.7445 H   0  0  0  0  0  0  0  0  0  0  0  0
   61.3781   28.5202   45.8044 H   0  0  0  0  0  0  0  0  0  0  0  0
   59.9800   28.9377   43.7868 H   0  0  0  0  0  0  0  0  0  0  0  0
   57.9990   28.5260   42.6330 H   0  0  0  0  0  0  0  0  0  0  0  0
   56.8520   27.4330   43.1870 H   0  0  0  0  0  0  0  0  0  0  0  0
   55.7456   29.4562   42.8661 H   0  0  0  0  0  0  0  0  0  0  0  0
   55.9214   29.1721   44.6497 H   0  0  0  0  0  0  0  0  0  0  0  0
   57.3111   31.0677   41.7239 H   0  0  0  0  0  0  0  0  0  0  0  0
   58.4116   33.2910   41.9871 H   0  0  0  0  0  0  0  0  0  0  0  0
   58.8754   34.1965   44.2677 H   0  0  0  0  0  0  0  0  0  0  0  0
   57.1226   30.6591   46.0357 H   0  0  0  0  0  0  0  0  0  0  0  0
  1  2  1  0
  2  3  1  0
  3  4  2  0
  4  5  1  0
  5  6  1  0
  5  7  2  0
  7  8  1  0
  8  9  2  0
  9 10  1  0
 10 11  1  0
 11 12  1  0
 12 13  2  0
 13 14  1  0
 14 15  2  0
 15 16  1  0
 16 17  1  0
 16 18  2  0
  9  3  1  0
 18 12  1  0
  1 19  1  0
  1 20  1  0
  1 21  1  0
  4 22  1  0
  7 23  1  0
  8 24  1  0
 10 25  1  0
 10 26  1  0
 11 27  1  0
 11 28  1  0
 13 29  1  0
 14 30  1  0
 15 31  1  0
 18 32  1  0
M  CHG  1  10   1
M  END
>  <UniqueID>  (33) 
29

>  <SMILES>  (33) 
COc1cc(F)ccc1[NH2+]Cc1cccc(F)c1

>  <Energy>  (33) 
32.347910508067976

>  <Genealogy>  (33) 
COc1cc(F)ccc1[NH2+]Cc1cccc(F)c1 (protonated)
COc1cc(F)ccc1[NH2+]Cc1cccc(F)c1 (3D coordinates assigned)
COc1cc(F)ccc1[NH2+]Cc1cccc(F)c1 (optimized conformer: 32.347910508067976 kcal/mol)

>  <smiles>  (33) 
COc1cc(F)ccc1NCc1cccc(F)c1

>  <score_type>  (33) 
oracle

>  <origin>  (33) 
adg

>  <m_score__min__energy>  (33) 
-4.5599999999999996

>  <m_primary>  (33) 
energy

$$$$
33:0
     RDKit          3D

 40 43  0  0  0  0  0  0  0  0999 V2000
   58.5660   22.5690   44.5510 C   0  0  0  0  0  0  0  0  0  0  0  0
   57.0030   23.0690   43.7640 S   0  0  0  0  0  0  0  0  0  0  0  0
   57.3100   24.8220   43.9920 C   0  0  0  0  0  0  0  0  0  0  0  0
   57.7680   25.5980   42.9250 C   0  0  0  0  0  0  0  0  0  0  0  0
   58.0100   26.9630   43.1020 C   0  0  0  0  0  0  0  0  0  0  0  0
   57.7990   27.5700   44.3530 C   0  0  0  0  0  0  0  0  0  0  0  0
   58.0630   29.0190   44.5160 C   0  0  0  0  0  0  0  0  0  0  0  0
   57.7880   29.9700   43.5830 N   0  0  0  0  0  0  0  0  0  0  0  0
   58.1940   31.1070   44.1660 C   0  0  0  0  0  0  0  0  0  0  0  0
   58.1440   32.4050   43.6670 C   0  0  0  0  0  0  0  0  0  0  0  0
   58.6350   33.4370   44.4890 C   0  0  0  0  0  0  0  0  0  0  0  0
   59.1720   33.1460   45.7760 C   0  0  0  0  0  0  0  0  0  0  0  0
   59.6540   34.1570   46.6200 O   0  0  0  0  0  0  0  0  0  0  0  0
   60.8140   34.0720   47.4020 C   0  0  0  0  0  0  0  0  0  0  0  0
   62.0380   33.8300   46.7650 C   0  0  0  0  0  0  0  0  0  0  0  0
   63.2180   33.7430   47.5090 C   0  0  0  0  0  0  0  0  0  0  0  0
   63.1850   33.9110   48.8950 C   0  0  0  0  0  0  0  0  0  0  0  0
   64.3310   33.8290   49.6160 F   0  0  0  0  0  0  0  0  0  0  0  0
   61.9730   34.1770   49.5380 C   0  0  0  0  0  0  0  0  0  0  0  0
   60.7890   34.2650   48.7980 C   0  0  0  0  0  0  0  0  0  0  0  0
   59.6330   34.5810   49.4350 F   0  0  0  0  0  0  0  0  0  0  0  0
   59.1850   31.8160   46.2430 C   0  0  0  0  0  0  0  0  0  0  0  0
   58.6900   30.8260   45.4020 C   0  0  0  0  0  0  0  0  0  0  0  0
   58.6070   29.5360   45.6090 O   0  0  0  0  0  0  0  0  0  0  0  0
   57.3420   26.7780   45.4230 C   0  0  0  0  0  0  0  0  0  0  0  0
   57.1000   25.4130   45.2420 C   0  0  0  0  0  0  0  0  0  0  0  0
   58.4538   22.6049   45.6447 H   0  0  0  0  0  0  0  0  0  0  0  0
   58.8208   21.5445   44.2420 H   0  0  0  0  0  0  0  0  0  0  0  0
   59.3681   23.2554   44.2420 H   0  0  0  0  0  0  0  0  0  0  0  0
   57.9387   25.1335   41.9426 H   0  0  0  0  0  0  0  0  0  0  0  0
   58.3685   27.5676   42.2559 H   0  0  0  0  0  0  0  0  0  0  0  0
   57.3610   29.8670   42.6350 H   0  0  0  0  0  0  0  0  0  0  0  0
   57.7361   32.6168   42.6676 H   0  0  0  0  0  0  0  0  0  0  0  0
   58.6037   34.4778   44.1342 H   0  0  0  0  0  0  0  0  0  0  0  0
   62.0706   33.7077   45.6723 H   0  0  0  0  0  0  0  0  0  0  0  0
   64.1735   33.5420   47.0024 H   0  0  0  0  0  0  0  0  0  0  0  0
   61.9499   34.3175   50.6287 H   0  0  0  0  0  0  0  0  0  0  0  0
   59.5747   31.5693   47.2416 H   0  0  0  0  0  0  0  0  0  0  0  0
   57.1740   27.2363   46.4088 H   0  0  0  0  0  0  0  0  0  0  0  0
   56.7436   24.8024   46.0847 H   0  0  0  0  0  0  0  0  0  0  0  0
  1  2  1  0
  2  3  1  0
  3  4  2  0
  4  5  1  0
  5  6  2  0
  6  7  1  0
  7  8  2  0
  8  9  1  0
  9 10  2  0
 10 11  1  0
 11 12  2  0
 12 13  1  0
 13 14  1  0
 14 15  2  0
 15 16  1  0
 16 17  2  0
 17 18  1  0
 17 19  1  0
 19 20  2  0
 20 21  1  0
 12 22  1  0
 22 23  2  0
 23 24  1  0
  6 25  1  0
 25 26  2  0
 26  3  1  0
 24  7  1  0
 23  9  1  0
 20 14  1  0
  1 27  1  0
  1 28  1  0
  1 29  1  0
  4 30  1  0
  5 31  1  0
  8 32  1  0
 10 33  1  0
 11 34  1  0
 15 35  1  0
 16 36  1  0
 19 37  1  0
 22 38  1  0
 25 39  1  0
 26 40  1  0
M  CHG  1   8   1
M  END
>  <UniqueID>  (34) 
30

>  <SMILES>  (34) 
CSc1ccc(-c2[nH+]c3ccc(Oc4ccc(F)cc4F)cc3o2)cc1

>  <Energy>  (34) 
88.23648733874873

>  <Genealogy>  (34) 
CSc1ccc(-c2[nH+]c3ccc(Oc4ccc(F)cc4F)cc3o2)cc1 (protonated)
CSc1ccc(-c2[nH+]c3ccc(Oc4ccc(F)cc4F)cc3o2)cc1 (3D coordinates assigned)
CSc1ccc(-c2[nH+]c3ccc(Oc4ccc(F)cc4F)cc3o2)cc1 (optimized conformer: 88.23648733874873 kcal/mol)

>  <smiles>  (34) 
CSc1ccc(-c2nc3ccc(Oc4ccc(F)cc4F)cc3o2)cc1

>  <score_type>  (34) 
oracle

>  <origin>  (34) 
adg

>  <m_score__min__energy>  (34) 
-5.7999999999999998

>  <m_primary>  (34) 
energy

$$$$
34:0
     RDKit          3D

 47 49  0  0  0  0  0  0  0  0999 V2000
   56.1400   31.4690   43.6830 H   0  0  0  0  0  0  0  0  0  0  0  0
   55.8050   30.8400   44.4490 N   0  0  0  0  0  0  0  0  0  0  0  0
   56.5070   29.8310   44.8490 C   0  0  0  0  0  0  0  0  0  0  0  0
   57.8600   29.9190   44.8770 N   0  0  0  0  0  0  0  0  0  0  0  0
   58.6040   28.8660   45.3000 C   0  0  0  0  0  0  0  0  0  0  0  0
   60.1010   28.9580   45.3280 C   0  0  0  0  0  0  0  0  0  0  0  0
   60.4963   28.7248   44.3283 H   0  0  0  0  0  0  0  0  0  0  0  0
   60.3882   29.9783   45.6223 H   0  0  0  0  0  0  0  0  0  0  0  0
   60.6430   28.0370   46.2730 O   0  0  0  0  0  0  0  0  0  0  0  0
   60.3080   28.0410   47.6330 C   0  0  0  0  0  0  0  0  0  0  0  0
   60.3590   26.9770   48.3090 O   0  0  0  0  0  0  0  0  0  0  0  0
   59.8500   29.3150   48.2770 C   0  0  0  0  0  0  0  0  0  0  0  0
   58.8542   29.5705   47.8857 H   0  0  0  0  0  0  0  0  0  0  0  0
   59.8260   29.1512   49.3645 H   0  0  0  0  0  0  0  0  0  0  0  0
   60.8040   30.4870   48.0010 C   0  0  0  0  0  0  0  0  0  0  0  0
   61.2658   30.7992   48.9493 H   0  0  0  0  0  0  0  0  0  0  0  0
   61.5621   30.1442   47.2815 H   0  0  0  0  0  0  0  0  0  0  0  0
   60.0900   31.6700   47.3950 C   0  0  0  0  0  0  0  0  0  0  0  0
   58.6860   31.7080   47.3690 C   0  0  0  0  0  0  0  0  0  0  0  0
   58.1079   30.8669   47.7793 H   0  0  0  0  0  0  0  0  0  0  0  0
   58.0200   32.8100   46.8240 C   0  0  0  0  0  0  0  0  0  0  0  0
   56.9204   32.8321   46.8020 H   0  0  0  0  0  0  0  0  0  0  0  0
   58.7510   33.8840   46.3070 C   0  0  0  0  0  0  0  0  0  0  0  0
   58.2265   34.7518   45.8806 H   0  0  0  0  0  0  0  0  0  0  0  0
   60.1480   33.8550   46.3320 C   0  0  0  0  0  0  0  0  0  0  0  0
   60.7222   34.7010   45.9263 H   0  0  0  0  0  0  0  0  0  0  0  0
   60.8170   32.7520   46.8720 C   0  0  0  0  0  0  0  0  0  0  0  0
   61.9167   32.7317   46.8872 H   0  0  0  0  0  0  0  0  0  0  0  0
   57.9860   27.7210   45.6870 N   0  0  0  0  0  0  0  0  0  0  0  0
   56.6320   27.6220   45.6580 C   0  0  0  0  0  0  0  0  0  0  0  0
   56.0250   26.5450   46.0650 N   0  0  0  0  0  0  0  0  0  0  0  0
   55.9730   25.2830   45.3750 C   0  0  0  0  0  0  0  0  0  0  0  0
   57.0860   24.8730   44.6330 C   0  0  0  0  0  0  0  0  0  0  0  0
   57.9728   25.5214   44.5760 H   0  0  0  0  0  0  0  0  0  0  0  0
   57.0800   23.6450   43.9630 C   0  0  0  0  0  0  0  0  0  0  0  0
   57.9548   23.3402   43.3698 H   0  0  0  0  0  0  0  0  0  0  0  0
   55.9590   22.7980   44.0450 C   0  0  0  0  0  0  0  0  0  0  0  0
   55.9050   21.5560   43.3950 O   0  0  0  0  0  0  0  0  0  0  0  0
   57.0480   20.7930   43.0230 C   0  0  0  0  0  0  0  0  0  0  0  0
   57.5677   20.4461   43.9283 H   0  0  0  0  0  0  0  0  0  0  0  0
   56.7310   19.9247   42.4267 H   0  0  0  0  0  0  0  0  0  0  0  0
   57.7283   21.4187   42.4267 H   0  0  0  0  0  0  0  0  0  0  0  0
   54.8570   23.1970   44.8090 C   0  0  0  0  0  0  0  0  0  0  0  0
   53.9771   22.5408   44.8816 H   0  0  0  0  0  0  0  0  0  0  0  0
   54.8650   24.4230   45.4810 C   0  0  0  0  0  0  0  0  0  0  0  0
   54.0010   24.7163   46.0953 H   0  0  0  0  0  0  0  0  0  0  0  0
   55.8950   28.6840   45.2440 N   0  0  0  0  0  0  0  0  0  0  0  0
  1  2  1  0
  2  3  2  0
  3  4  1  0
  4  5  2  0
  5  6  1  0
  6  7  1  0
  6  8  1  0
  6  9  1  0
  9 10  1  0
 10 11  2  0
 10 12  1  0
 12 13  1  0
 12 14  1  0
 12 15  1  0
 15 16  1  0
 15 17  1  0
 15 18  1  0
 18 19  2  0
 19 20  1  0
 19 21  1  0
 21 22  1  0
 21 23  2  0
 23 24  1  0
 23 25  1  0
 25 26  1  0
 25 27  2  0
 27 28  1  0
  5 29  1  0
 29 30  1  0
 30 31  2  3
 31 32  1  0
 32 33  2  0
 33 34  1  0
 33 35  1  0
 35 36  1  0
 35 37  2  0
 37 38  1  0
 38 39  1  0
 39 40  1  0
 39 41  1  0
 39 42  1  0
 37 43  1  0
 43 44  1  0
 43 45  2  0
 45 46  1  0
 30 47  1  0
 47  3  1  0
 27 18  1  0
 45 32  1  0
M  CHG  2  29  -1  47  -1
M  END
>  <UniqueID>  (35) 
31

>  <SMILES>  (35) 
[H]/N=c1/nc(COC(=O)CCc2ccccc2)[n-]c(=Nc2ccc(OC)cc2)[n-]1

>  <Energy>  (35) 
46.93584762748665

>  <Genealogy>  (35) 
COc1ccc(N=c2[n-]c(COC(=O)CCc3ccccc3)nc(=N)[n-]2)cc1 (protonated)
[H]/N=c1/nc(COC(=O)CCc2ccccc2)[n-]c(=Nc2ccc(OC)cc2)[n-]1 (cis-trans isomerization)
[H]/N=c1/nc(COC(=O)CCc2ccccc2)[n-]c(=Nc2ccc(OC)cc2)[n-]1 (3D coordinates assigned)
[H]/N=c1/nc(COC(=O)CCc2ccccc2)[n-]c(=Nc2ccc(OC)cc2)[n-]1 (optimized conformer: 46.93584762748665 kcal/mol)

>  <smiles>  (35) 
COc1ccc(N=c2[nH]c(COC(=O)CCc3ccccc3)nc(=N)[nH]2)cc1

>  <score_type>  (35) 
oracle

>  <origin>  (35) 
adg

>  <m_score__min__energy>  (35) 
-11.460000000000001

>  <m_primary>  (35) 
energy

$$$$
35:0
     RDKit          3D

 46 47  0  0  0  0  0  0  0  0999 V2000
   57.4620   31.5670   42.8330 C   0  0  0  0  0  0  0  0  0  0  0  0
   56.8880   30.5850   43.7990 C   0  0  0  0  0  0  0  0  0  0  0  0
   55.5510   30.3590   44.0240 C   0  0  0  0  0  0  0  0  0  0  0  0
   55.4210   29.3490   44.8990 N   0  0  0  0  0  0  0  0  0  0  0  0
   56.6940   28.9940   45.1780 C   0  0  0  0  0  0  0  0  0  0  0  0
   57.0420   27.8500   46.0780 C   0  0  0  0  0  0  0  0  0  0  0  0
   57.6660   26.7060   45.2730 C   0  0  0  0  0  0  0  0  0  0  0  0
   59.1930   26.8420   45.2120 C   0  0  0  0  0  0  0  0  0  0  0  0
   59.6640   27.8520   46.1880 N   0  0  0  0  0  0  0  0  0  0  0  0
   60.1890   27.1930   47.4020 C   0  0  0  0  0  0  0  0  0  0  0  0
   60.7020   28.7160   45.5860 C   0  0  0  0  0  0  0  0  0  0  0  0
   60.5700   30.1250   46.0730 C   0  0  0  0  0  0  0  0  0  0  0  0
   59.5320   30.9310   45.7990 N   0  0  0  0  0  0  0  0  0  0  0  0
   59.8530   32.0660   46.4540 C   0  0  0  0  0  0  0  0  0  0  0  0
   58.9850   33.3100   46.4760 C   0  0  0  0  0  0  0  0  0  0  0  0
   59.2140   34.0650   47.7980 C   0  0  0  0  0  0  0  0  0  0  0  0
   57.5050   32.8990   46.3630 C   0  0  0  0  0  0  0  0  0  0  0  0
   59.3380   34.2420   45.2980 C   0  0  0  0  0  0  0  0  0  0  0  0
   61.0360   31.9440   47.0950 N   0  0  0  0  0  0  0  0  0  0  0  0
   61.4450   30.7350   46.8350 O   0  0  0  0  0  0  0  0  0  0  0  0
   57.6220   29.7120   44.5090 N   0  0  0  0  0  0  0  0  0  0  0  0
   57.9418   32.3879   43.3861 H   0  0  0  0  0  0  0  0  0  0  0  0
   58.2090   31.0653   42.2004 H   0  0  0  0  0  0  0  0  0  0  0  0
   56.6583   31.9717   42.2004 H   0  0  0  0  0  0  0  0  0  0  0  0
   54.7220   30.9153   43.5621 H   0  0  0  0  0  0  0  0  0  0  0  0
   57.7603   28.1922   46.8375 H   0  0  0  0  0  0  0  0  0  0  0  0
   56.1239   27.4855   46.5620 H   0  0  0  0  0  0  0  0  0  0  0  0
   57.4094   25.7489   45.7507 H   0  0  0  0  0  0  0  0  0  0  0  0
   57.2707   26.7445   44.2472 H   0  0  0  0  0  0  0  0  0  0  0  0
   59.6525   25.8704   45.4464 H   0  0  0  0  0  0  0  0  0  0  0  0
   59.4811   27.1639   44.2004 H   0  0  0  0  0  0  0  0  0  0  0  0
   59.7884   27.6959   48.2945 H   0  0  0  0  0  0  0  0  0  0  0  0
   59.8822   26.1367   47.4076 H   0  0  0  0  0  0  0  0  0  0  0  0
   61.2872   27.2559   47.4076 H   0  0  0  0  0  0  0  0  0  0  0  0
   61.6952   28.3312   45.8608 H   0  0  0  0  0  0  0  0  0  0  0  0
   60.5766   28.7079   44.4932 H   0  0  0  0  0  0  0  0  0  0  0  0
   58.6840   30.7210   45.2260 H   0  0  0  0  0  0  0  0  0  0  0  0
   59.0101   33.3926   48.6443 H   0  0  0  0  0  0  0  0  0  0  0  0
   60.2573   34.4102   47.8471 H   0  0  0  0  0  0  0  0  0  0  0  0
   58.5383   34.9316   47.8471 H   0  0  0  0  0  0  0  0  0  0  0  0
   57.0793   32.7808   47.3704 H   0  0  0  0  0  0  0  0  0  0  0  0
   56.9490   33.6767   45.8189 H   0  0  0  0  0  0  0  0  0  0  0  0
   57.4296   31.9459   45.8189 H   0  0  0  0  0  0  0  0  0  0  0  0
   59.7023   35.2039   45.6879 H   0  0  0  0  0  0  0  0  0  0  0  0
   60.1216   33.7751   44.6832 H   0  0  0  0  0  0  0  0  0  0  0  0
   58.4417   34.4114   44.6832 H   0  0  0  0  0  0  0  0  0  0  0  0
  1  2  1  0
  2  3  2  0
  3  4  1  0
  4  5  1  0
  5  6  1  0
  6  7  1  0
  7  8  1  0
  8  9  1  0
  9 10  1  0
  9 11  1  0
 11 12  1  0
 12 13  2  0
 13 14  1  0
 14 15  1  0
 15 16  1  0
 15 17  1  0
 15 18  1  0
 14 19  2  0
 19 20  1  0
  5 21  2  0
 21  2  1  0
 20 12  1  0
  1 22  1  0
  1 23  1  0
  1 24  1  0
  3 25  1  0
  6 26  1  0
  6 27  1  0
  7 28  1  0
  7 29  1  0
  8 30  1  0
  8 31  1  0
 10 32  1  0
 10 33  1  0
 10 34  1  0
 11 35  1  0
 11 36  1  0
 13 37  1  0
 16 38  1  0
 16 39  1  0
 16 40  1  0
 17 41  1  0
 17 42  1  0
 17 43  1  0
 18 44  1  0
 18 45  1  0
 18 46  1  0
M  CHG  2   4  -1  13   1
M  END
>  <UniqueID>  (36) 
32

>  <SMILES>  (36) 
Cc1c[n-]c(CCCN(C)Cc2[nH+]c(C(C)(C)C)no2)n1

>  <Energy>  (36) 
97.33484331699442

>  <Genealogy>  (36) 
Cc1c[n-]c(CCCN(C)Cc2[nH+]c(C(C)(C)C)no2)n1 (protonated)
Cc1c[n-]c(CCCN(C)Cc2[nH+]c(C(C)(C)C)no2)n1 (3D coordinates assigned)
Cc1c[n-]c(CCCN(C)Cc2[nH+]c(C(C)(C)C)no2)n1 (optimized conformer: 97.33484331699442 kcal/mol)

>  <smiles>  (36) 
Cc1c[nH]c(CCCN(C)Cc2nc(C(C)(C)C)no2)n1

>  <score_type>  (36) 
oracle

>  <origin>  (36) 
adg

>  <m_score__min__energy>  (36) 
-6.4800000000000004

>  <m_primary>  (36) 
energy

$$$$
36:0
     RDKit          3D

 46 49  0  0  0  0  0  0  0  0999 V2000
   60.3140   34.1220   49.6770 C   0  0  0  0  0  0  0  0  0  0  0  0
   61.4790   33.8660   48.7620 C   0  0  0  0  0  0  0  0  0  0  0  0
   62.7640   33.6960   49.3060 C   0  0  0  0  0  0  0  0  0  0  0  0
   63.8590   33.4550   48.4740 C   0  0  0  0  0  0  0  0  0  0  0  0
   63.6840   33.3720   47.0920 C   0  0  0  0  0  0  0  0  0  0  0  0
   62.4110   33.5240   46.5390 C   0  0  0  0  0  0  0  0  0  0  0  0
   61.3010   33.7660   47.3650 C   0  0  0  0  0  0  0  0  0  0  0  0
   59.9990   33.8960   46.7770 N   0  0  0  0  0  0  0  0  0  0  0  0
   59.6100   35.1520   46.1360 C   0  0  0  0  0  0  0  0  0  0  0  0
   58.7810   34.8730   44.8690 C   0  0  0  0  0  0  0  0  0  0  0  0
   57.8150   33.7360   44.9930 N   0  0  0  0  0  0  0  0  0  0  0  0
   58.1700   32.6370   44.0580 C   0  0  0  0  0  0  0  0  0  0  0  0
   57.5980   31.3130   44.4820 C   0  0  0  0  0  0  0  0  0  0  0  0
   56.2870   30.9140   44.3470 C   0  0  0  0  0  0  0  0  0  0  0  0
   56.1890   29.7170   44.8700 O   0  0  0  0  0  0  0  0  0  0  0  0
   57.3820   29.3870   45.3130 C   0  0  0  0  0  0  0  0  0  0  0  0
   57.6800   28.1130   45.9740 C   0  0  0  0  0  0  0  0  0  0  0  0
   58.8480   27.8060   46.6580 C   0  0  0  0  0  0  0  0  0  0  0  0
   58.8520   26.5090   47.1860 C   0  0  0  0  0  0  0  0  0  0  0  0
   57.6920   25.7940   46.9170 C   0  0  0  0  0  0  0  0  0  0  0  0
   56.6600   26.7770   46.0230 S   0  0  0  0  0  0  0  0  0  0  0  0
   58.3050   30.3490   45.1020 N   0  0  0  0  0  0  0  0  0  0  0  0
   57.6450   33.2630   46.3920 C   0  0  0  0  0  0  0  0  0  0  0  0
   58.9820   32.8760   47.0410 C   0  0  0  0  0  0  0  0  0  0  0  0
   60.6464   34.0490   50.7230 H   0  0  0  0  0  0  0  0  0  0  0  0
   59.9144   35.1294   49.4887 H   0  0  0  0  0  0  0  0  0  0  0  0
   59.5288   33.3750   49.4887 H   0  0  0  0  0  0  0  0  0  0  0  0
   62.9079   33.7533   50.3950 H   0  0  0  0  0  0  0  0  0  0  0  0
   64.8617   33.3303   48.9087 H   0  0  0  0  0  0  0  0  0  0  0  0
   64.5491   33.1868   46.4383 H   0  0  0  0  0  0  0  0  0  0  0  0
   62.2765   33.4538   45.4495 H   0  0  0  0  0  0  0  0  0  0  0  0
   59.0085   35.7468   46.8391 H   0  0  0  0  0  0  0  0  0  0  0  0
   60.5180   35.7051   45.8540 H   0  0  0  0  0  0  0  0  0  0  0  0
   58.2114   35.7818   44.6249 H   0  0  0  0  0  0  0  0  0  0  0  0
   59.4976   34.5885   44.0844 H   0  0  0  0  0  0  0  0  0  0  0  0
   56.8790   34.0980   44.6880 H   0  0  0  0  0  0  0  0  0  0  0  0
   57.7825   32.8850   43.0588 H   0  0  0  0  0  0  0  0  0  0  0  0
   59.2659   32.5419   44.0547 H   0  0  0  0  0  0  0  0  0  0  0  0
   55.4733   31.4928   43.8857 H   0  0  0  0  0  0  0  0  0  0  0  0
   59.6854   28.5099   46.7736 H   0  0  0  0  0  0  0  0  0  0  0  0
   59.6945   26.0954   47.7597 H   0  0  0  0  0  0  0  0  0  0  0  0
   57.4837   24.7615   47.2342 H   0  0  0  0  0  0  0  0  0  0  0  0
   57.1837   34.0671   46.9841 H   0  0  0  0  0  0  0  0  0  0  0  0
   57.0087   32.3660   46.3698 H   0  0  0  0  0  0  0  0  0  0  0  0
   58.8414   32.7789   48.1276 H   0  0  0  0  0  0  0  0  0  0  0  0
   59.3196   31.9204   46.6134 H   0  0  0  0  0  0  0  0  0  0  0  0
  1  2  1  0
  2  3  2  0
  3  4  1  0
  4  5  2  0
  5  6  1  0
  6  7  2  0
  7  8  1  0
  8  9  1  0
  9 10  1  0
 10 11  1  0
 11 12  1  0
 12 13  1  0
 13 14  2  0
 14 15  1  0
 15 16  1  0
 16 17  1  0
 17 18  2  0
 18 19  1  0
 19 20  2  0
 20 21  1  0
 16 22  2  0
 11 23  1  0
 23 24  1  0
  7  2  1  0
 24  8  1  0
 22 13  1  0
 21 17  1  0
  1 25  1  0
  1 26  1  0
  1 27  1  0
  3 28  1  0
  4 29  1  0
  5 30  1  0
  6 31  1  0
  9 32  1  0
  9 33  1  0
 10 34  1  0
 10 35  1  0
 11 36  1  0
 12 37  1  0
 12 38  1  0
 14 39  1  0
 18 40  1  0
 19 41  1  0
 20 42  1  0
 23 43  1  0
 23 44  1  0
 24 45  1  0
 24 46  1  0
M  CHG  1  11   1
M  END
>  <UniqueID>  (37) 
33

>  <SMILES>  (37) 
Cc1ccccc1N1CC[NH+](Cc2coc(-c3cccs3)n2)CC1

>  <Energy>  (37) 
117.08581647857464

>  <Genealogy>  (37) 
Cc1ccccc1N1CC[NH+](Cc2coc(-c3cccs3)n2)CC1 (protonated)
Cc1ccccc1N1CC[NH+](Cc2coc(-c3cccs3)n2)CC1 (3D coordinates assigned)
Cc1ccccc1N1CC[NH+](Cc2coc(-c3cccs3)n2)CC1 (nonaromatic ring conformer: 117.08581647857464 kcal/mol)

>  <smiles>  (37) 
Cc1ccccc1N1CCN(Cc2coc(-c3cccs3)n2)CC1

>  <score_type>  (37) 
oracle

>  <origin>  (37) 
adg

>  <m_score__min__energy>  (37) 
-6.9199999999999999

>  <m_primary>  (37) 
energy

$$$$
37:0
     RDKit          3D

 14 14  0  0  0  0  0  0  0  0999 V2000
   58.0600   32.3900   41.6480 N   0  0  0  0  0  0  0  0  0  0  0  0
   58.1500   32.6890   42.7630 C   0  0  0  0  0  0  0  0  0  0  0  0
   58.2630   33.0620   44.1540 C   0  0  0  0  0  0  0  0  0  0  0  0
   58.9880   34.2130   44.4920 C   0  0  0  0  0  0  0  0  0  0  0  0
   59.1140   34.5990   45.8300 C   0  0  0  0  0  0  0  0  0  0  0  0
   58.5170   33.8380   46.8370 C   0  0  0  0  0  0  0  0  0  0  0  0
   57.7920   32.6890   46.5100 C   0  0  0  0  0  0  0  0  0  0  0  0
   57.6590   32.2930   45.1710 C   0  0  0  0  0  0  0  0  0  0  0  0
   56.9040   31.1010   44.8650 C   0  0  0  0  0  0  0  0  0  0  0  0
   56.2970   30.1470   44.6200 N   0  0  0  0  0  0  0  0  0  0  0  0
   59.4598   34.8151   43.7015 H   0  0  0  0  0  0  0  0  0  0  0  0
   59.6841   35.5032   46.0896 H   0  0  0  0  0  0  0  0  0  0  0  0
   58.6175   34.1433   47.8890 H   0  0  0  0  0  0  0  0  0  0  0  0
   57.3234   32.0923   47.3064 H   0  0  0  0  0  0  0  0  0  0  0  0
  1  2  3  0
  2  3  1  0
  3  4  2  0
  4  5  1  0
  5  6  2  0
  6  7  1  0
  7  8  2  0
  8  9  1  0
  9 10  3  0
  8  3  1  0
  4 11  1  0
  5 12  1  0
  6 13  1  0
  7 14  1  0
M  END
>  <UniqueID>  (38) 
34

>  <SMILES>  (38) 
N#Cc1ccccc1C#N

>  <Energy>  (38) 
12.535820897007937

>  <Genealogy>  (38) 
N#Cc1ccccc1C#N (3D coordinates assigned)
N#Cc1ccccc1C#N (optimized conformer: 12.535820897007937 kcal/mol)

>  <smiles>  (38) 
N#Cc1ccccc1C#N

>  <score_type>  (38) 
oracle

>  <origin>  (38) 
adg

>  <m_score__min__energy>  (38) 
-4.4900000000000002

>  <m_primary>  (38) 
energy

$$$$
38:0
     RDKit          3D

 36 37  0  0  0  0  0  0  0  0999 V2000
   61.3458   30.3501   48.6391 H   0  0  0  0  0  0  0  0  0  0  0  0
   60.6750   29.8430   47.9300 C   0  0  0  0  0  0  0  0  0  0  0  0
   59.5700   29.1310   48.4010 C   0  0  0  0  0  0  0  0  0  0  0  0
   59.3710   29.0774   49.4815 H   0  0  0  0  0  0  0  0  0  0  0  0
   58.7160   28.4860   47.5010 C   0  0  0  0  0  0  0  0  0  0  0  0
   57.8497   27.9232   47.8789 H   0  0  0  0  0  0  0  0  0  0  0  0
   58.9560   28.5510   46.1130 C   0  0  0  0  0  0  0  0  0  0  0  0
   58.0480   27.8660   45.1560 C   0  0  0  0  0  0  0  0  0  0  0  0
   57.7040   28.4760   44.0570 N   0  0  0  0  0  0  0  0  0  0  0  0
   56.6610   29.8610   43.9720 S   0  0  0  0  0  0  0  0  0  0  0  0
   56.1990   30.0530   42.5540 O   0  0  0  0  0  0  0  0  0  0  0  0
   55.4580   29.6220   44.8390 O   0  0  0  0  0  0  0  0  0  0  0  0
   57.4980   31.2930   44.5590 C   0  0  0  0  0  0  0  0  0  0  0  0
   57.8730   32.2960   43.6540 C   0  0  0  0  0  0  0  0  0  0  0  0
   57.6652   32.1719   42.5810 H   0  0  0  0  0  0  0  0  0  0  0  0
   58.5100   33.4530   44.1110 C   0  0  0  0  0  0  0  0  0  0  0  0
   58.8002   34.2386   43.3979 H   0  0  0  0  0  0  0  0  0  0  0  0
   58.7790   33.6130   45.4750 C   0  0  0  0  0  0  0  0  0  0  0  0
   59.5740   35.0680   46.0480 Cl  0  0  0  0  0  0  0  0  0  0  0  0
   58.4110   32.6120   46.3810 C   0  0  0  0  0  0  0  0  0  0  0  0
   58.6247   32.7355   47.4530 H   0  0  0  0  0  0  0  0  0  0  0  0
   57.7720   31.4550   45.9250 C   0  0  0  0  0  0  0  0  0  0  0  0
   57.4834   30.6698   46.6393 H   0  0  0  0  0  0  0  0  0  0  0  0
   57.5770   26.5360   45.4290 N   0  0  0  0  0  0  0  0  0  0  0  0
   58.5180   25.4170   45.4000 C   0  0  0  0  0  0  0  0  0  0  0  0
   58.7672   25.1207   46.4296 H   0  0  0  0  0  0  0  0  0  0  0  0
   58.0599   24.5662   44.8743 H   0  0  0  0  0  0  0  0  0  0  0  0
   59.4347   25.7223   44.8743 H   0  0  0  0  0  0  0  0  0  0  0  0
   56.2660   26.3420   46.0460 C   0  0  0  0  0  0  0  0  0  0  0  0
   56.3702   26.3574   47.1409 H   0  0  0  0  0  0  0  0  0  0  0  0
   55.5892   27.1498   45.7307 H   0  0  0  0  0  0  0  0  0  0  0  0
   55.8521   25.3728   45.7307 H   0  0  0  0  0  0  0  0  0  0  0  0
   60.0770   29.2690   45.6540 C   0  0  0  0  0  0  0  0  0  0  0  0
   60.2849   29.3253   44.5753 H   0  0  0  0  0  0  0  0  0  0  0  0
   60.9280   29.9110   46.5590 C   0  0  0  0  0  0  0  0  0  0  0  0
   61.7994   30.4713   46.1893 H   0  0  0  0  0  0  0  0  0  0  0  0
  1  2  1  0
  2  3  2  0
  3  4  1  0
  3  5  1  0
  5  6  1  0
  5  7  2  0
  7  8  1  0
  8  9  2  0
  9 10  1  0
 10 11  2  0
 10 12  2  0
 10 13  1  0
 13 14  2  0
 14 15  1  0
 14 16  1  0
 16 17  1  0
 16 18  2  0
 18 19  1  0
 18 20  1  0
 20 21  1  0
 20 22  2  0
 22 23  1  0
  8 24  1  0
 24 25  1  0
 25 26  1  0
 25 27  1  0
 25 28  1  0
 24 29  1  0
 29 30  1  0
 29 31  1  0
 29 32  1  0
  7 33  1  0
 33 34  1  0
 33 35  2  0
 35 36  1  0
 35  2  1  0
 22 13  1  0
M  END
>  <UniqueID>  (39) 
35

>  <SMILES>  (39) 
CN(C)/C(=N\S(=O)(=O)c1ccc(Cl)cc1)c1ccccc1

>  <Energy>  (39) 
42.67827437273176

>  <Genealogy>  (39) 
CN(C)/C(=N\S(=O)(=O)c1ccc(Cl)cc1)c1ccccc1 (cis-trans isomerization)
CN(C)/C(=N\S(=O)(=O)c1ccc(Cl)cc1)c1ccccc1 (3D coordinates assigned)
CN(C)/C(=N\S(=O)(=O)c1ccc(Cl)cc1)c1ccccc1 (optimized conformer: 42.67827437273176 kcal/mol)

>  <smiles>  (39) 
CN(C)C(=NS(=O)(=O)c1ccc(Cl)cc1)c1ccccc1

>  <score_type>  (39) 
oracle

>  <origin>  (39) 
adg

>  <m_score__min__energy>  (39) 
-7.79

>  <m_primary>  (39) 
energy

$$$$
39:0
     RDKit          3D

 39 41  0  0  0  0  0  0  0  0999 V2000
   56.7610   29.5900   43.2520 C   0  0  0  0  0  0  0  0  0  0  0  0
   57.1810   30.8980   43.8430 C   0  0  0  0  0  0  0  0  0  0  0  0
   57.7600   31.8850   43.0370 C   0  0  0  0  0  0  0  0  0  0  0  0
   58.1580   33.0930   43.6110 C   0  0  0  0  0  0  0  0  0  0  0  0
   57.9770   33.3140   44.9860 C   0  0  0  0  0  0  0  0  0  0  0  0
   58.4130   34.5430   45.5980 N   0  0  0  0  0  0  0  0  0  0  0  0
   59.5370   34.2810   46.4610 C   0  0  0  0  0  0  0  0  0  0  0  0
   60.7690   33.8780   45.9220 C   0  0  0  0  0  0  0  0  0  0  0  0
   61.8690   33.6550   46.7550 C   0  0  0  0  0  0  0  0  0  0  0  0
   61.7640   33.8350   48.1480 C   0  0  0  0  0  0  0  0  0  0  0  0
   62.9030   33.6050   49.0110 N   0  0  0  0  0  0  0  0  0  0  0  0
   63.0240   34.1420   50.3590 C   0  0  0  0  0  0  0  0  0  0  0  0
   64.2800   33.5150   50.9470 C   0  0  0  0  0  0  0  0  0  0  0  0
   65.0720   32.9840   49.7590 C   0  0  0  0  0  0  0  0  0  0  0  0
   64.0640   32.8100   48.6340 C   0  0  0  0  0  0  0  0  0  0  0  0
   60.5280   34.2480   48.6820 C   0  0  0  0  0  0  0  0  0  0  0  0
   59.4300   34.4710   47.8470 C   0  0  0  0  0  0  0  0  0  0  0  0
   57.4050   32.2900   45.7590 C   0  0  0  0  0  0  0  0  0  0  0  0
   57.0260   31.1210   45.1760 N   0  0  0  0  0  0  0  0  0  0  0  0
   56.5327   28.8791   44.0598 H   0  0  0  0  0  0  0  0  0  0  0  0
   55.8655   29.7390   42.6308 H   0  0  0  0  0  0  0  0  0  0  0  0
   57.5758   29.1898   42.6308 H   0  0  0  0  0  0  0  0  0  0  0  0
   57.9001   31.7099   41.9601 H   0  0  0  0  0  0  0  0  0  0  0  0
   58.6145   33.8739   42.9851 H   0  0  0  0  0  0  0  0  0  0  0  0
   57.6290   34.9690   46.1460 H   0  0  0  0  0  0  0  0  0  0  0  0
   58.6770   35.2380   44.8610 H   0  0  0  0  0  0  0  0  0  0  0  0
   60.8694   33.7366   44.8358 H   0  0  0  0  0  0  0  0  0  0  0  0
   62.8267   33.3356   46.3181 H   0  0  0  0  0  0  0  0  0  0  0  0
   63.1221   35.2372   50.3271 H   0  0  0  0  0  0  0  0  0  0  0  0
   62.1360   33.9125   50.9662 H   0  0  0  0  0  0  0  0  0  0  0  0
   64.8661   34.2696   51.4920 H   0  0  0  0  0  0  0  0  0  0  0  0
   64.0373   32.7156   51.6625 H   0  0  0  0  0  0  0  0  0  0  0  0
   65.8521   33.7024   49.4667 H   0  0  0  0  0  0  0  0  0  0  0  0
   65.5775   32.0372   49.9999 H   0  0  0  0  0  0  0  0  0  0  0  0
   64.4842   33.1730   47.6844 H   0  0  0  0  0  0  0  0  0  0  0  0
   63.7992   31.7522   48.4893 H   0  0  0  0  0  0  0  0  0  0  0  0
   60.4260   34.3965   49.7671 H   0  0  0  0  0  0  0  0  0  0  0  0
   58.4733   34.7984   48.2801 H   0  0  0  0  0  0  0  0  0  0  0  0
   57.2630   32.4341   46.8402 H   0  0  0  0  0  0  0  0  0  0  0  0
  1  2  1  0
  2  3  2  0
  3  4  1  0
  4  5  2  0
  5  6  1  0
  6  7  1  0
  7  8  2  0
  8  9  1  0
  9 10  2  0
 10 11  1  0
 11 12  1  0
 12 13  1  0
 13 14  1  0
 14 15  1  0
 10 16  1  0
 16 17  2  0
  5 18  1  0
 18 19  2  0
 19  2  1  0
 17  7  1  0
 15 11  1  0
  1 20  1  0
  1 21  1  0
  1 22  1  0
  3 23  1  0
  4 24  1  0
  6 25  1  0
  6 26  1  0
  8 27  1  0
  9 28  1  0
 12 29  1  0
 12 30  1  0
 13 31  1  0
 13 32  1  0
 14 33  1  0
 14 34  1  0
 15 35  1  0
 15 36  1  0
 16 37  1  0
 17 38  1  0
 18 39  1  0
M  CHG  1   6   1
M  END
>  <UniqueID>  (40) 
36

>  <SMILES>  (40) 
Cc1ccc([NH2+]c2ccc(N3CCCC3)cc2)cn1

>  <Energy>  (40) 
42.61092094006451

>  <Genealogy>  (40) 
Cc1ccc([NH2+]c2ccc(N3CCCC3)cc2)cn1 (protonated)
Cc1ccc([NH2+]c2ccc(N3CCCC3)cc2)cn1 (3D coordinates assigned)
Cc1ccc([NH2+]c2ccc(N3CCCC3)cc2)cn1 (nonaromatic ring conformer: 42.61092094006451 kcal/mol)

>  <smiles>  (40) 
Cc1ccc(Nc2ccc(N3CCCC3)cc2)cn1

>  <score_type>  (40) 
oracle

>  <origin>  (40) 
adg

>  <m_score__min__energy>  (40) 
-5.5300000000000002

>  <m_primary>  (40) 
energy

$$$$
40:0
     RDKit          3D

 41 43  0  0  0  0  0  0  0  0999 V2000
   56.6380   31.0480   42.4080 O   0  0  0  0  0  0  0  0  0  0  0  0
   56.8850   30.6690   43.8410 S   0  0  0  0  0  0  0  0  0  0  0  0
   55.5720   30.3350   44.4920 O   0  0  0  0  0  0  0  0  0  0  0  0
   57.9150   29.2730   43.8950 N   0  0  0  0  0  0  0  0  0  0  0  0
   58.5060   28.7550   45.1010 C   0  0  0  0  0  0  0  0  0  0  0  0
   59.7350   29.2650   45.5400 C   0  0  0  0  0  0  0  0  0  0  0  0
   60.3230   28.7790   46.7090 C   0  0  0  0  0  0  0  0  0  0  0  0
   59.6750   27.7770   47.4340 C   0  0  0  0  0  0  0  0  0  0  0  0
   60.3880   27.1490   48.9050 Cl  0  0  0  0  0  0  0  0  0  0  0  0
   58.4860   27.2850   46.9960 N   0  0  0  0  0  0  0  0  0  0  0  0
   57.8920   27.7420   45.8620 C   0  0  0  0  0  0  0  0  0  0  0  0
   57.6590   32.0220   44.6580 C   0  0  0  0  0  0  0  0  0  0  0  0
   57.7850   32.0330   46.0540 C   0  0  0  0  0  0  0  0  0  0  0  0
   58.4070   33.1050   46.6970 C   0  0  0  0  0  0  0  0  0  0  0  0
   58.9030   34.1880   45.9510 C   0  0  0  0  0  0  0  0  0  0  0  0
   59.5780   35.3400   46.6490 C   0  0  0  0  0  0  0  0  0  0  0  0
   60.2110   34.8940   47.8910 N   0  0  0  0  0  0  0  0  0  0  0  0
   61.3790   34.0510   47.9540 C   0  0  0  0  0  0  0  0  0  0  0  0
   61.6970   33.4120   49.1650 C   0  0  0  0  0  0  0  0  0  0  0  0
   62.8250   32.5910   49.2590 C   0  0  0  0  0  0  0  0  0  0  0  0
   63.6470   32.3990   48.1470 C   0  0  0  0  0  0  0  0  0  0  0  0
   63.3390   33.0230   46.9360 C   0  0  0  0  0  0  0  0  0  0  0  0
   62.2100   33.8430   46.8350 C   0  0  0  0  0  0  0  0  0  0  0  0
   58.7820   34.1710   44.5520 C   0  0  0  0  0  0  0  0  0  0  0  0
   58.1590   33.0980   43.9110 C   0  0  0  0  0  0  0  0  0  0  0  0
   58.1600   28.8310   42.9810 H   0  0  0  0  0  0  0  0  0  0  0  0
   60.2391   30.0524   44.9605 H   0  0  0  0  0  0  0  0  0  0  0  0
   61.2865   29.1811   47.0553 H   0  0  0  0  0  0  0  0  0  0  0  0
   56.9294   27.3194   45.5381 H   0  0  0  0  0  0  0  0  0  0  0  0
   57.3920   31.1931   46.6457 H   0  0  0  0  0  0  0  0  0  0  0  0
   58.5093   33.1019   47.7922 H   0  0  0  0  0  0  0  0  0  0  0  0
   60.3453   35.7648   45.9851 H   0  0  0  0  0  0  0  0  0  0  0  0
   58.8200   36.0993   46.8916 H   0  0  0  0  0  0  0  0  0  0  0  0
   59.8070   35.2510   48.7870 H   0  0  0  0  0  0  0  0  0  0  0  0
   61.0538   33.5589   50.0452 H   0  0  0  0  0  0  0  0  0  0  0  0
   63.0652   32.0954   50.2112 H   0  0  0  0  0  0  0  0  0  0  0  0
   64.5366   31.7567   48.2245 H   0  0  0  0  0  0  0  0  0  0  0  0
   63.9857   32.8693   46.0595 H   0  0  0  0  0  0  0  0  0  0  0  0
   61.9697   34.3278   45.8773 H   0  0  0  0  0  0  0  0  0  0  0  0
   59.1799   35.0070   43.9581 H   0  0  0  0  0  0  0  0  0  0  0  0
   58.0602   33.0970   42.8155 H   0  0  0  0  0  0  0  0  0  0  0  0
  1  2  2  0
  2  3  2  0
  2  4  1  0
  4  5  1  0
  5  6  2  0
  6  7  1  0
  7  8  2  0
  8  9  1  0
  8 10  1  0
 10 11  2  0
  2 12  1  0
 12 13  2  0
 13 14  1  0
 14 15  2  0
 15 16  1  0
 16 17  1  0
 17 18  1  0
 18 19  2  0
 19 20  1  0
 20 21  2  0
 21 22  1  0
 22 23  2  0
 15 24  1  0
 24 25  2  0
 11  5  1  0
 25 12  1  0
 23 18  1  0
  4 26  1  0
  6 27  1  0
  7 28  1  0
 11 29  1  0
 13 30  1  0
 14 31  1  0
 16 32  1  0
 16 33  1  0
 17 34  1  0
 19 35  1  0
 20 36  1  0
 21 37  1  0
 22 38  1  0
 23 39  1  0
 24 40  1  0
 25 41  1  0
M  END
>  <UniqueID>  (41) 
37

>  <SMILES>  (41) 
O=S(=O)(Nc1ccc(Cl)nc1)c1ccc(CNc2ccccc2)cc1

>  <Energy>  (41) 
46.09809162932319

>  <Genealogy>  (41) 
O=S(=O)(Nc1ccc(Cl)nc1)c1ccc(CNc2ccccc2)cc1 (3D coordinates assigned)
O=S(=O)(Nc1ccc(Cl)nc1)c1ccc(CNc2ccccc2)cc1 (optimized conformer: 46.09809162932319 kcal/mol)

>  <smiles>  (41) 
O=S(=O)(Nc1ccc(Cl)nc1)c1ccc(CNc2ccccc2)cc1

>  <score_type>  (41) 
oracle

>  <origin>  (41) 
adg

>  <m_score__min__energy>  (41) 
-9.3200000000000003

>  <m_primary>  (41) 
energy

$$$$
41:0
     RDKit          3D

 18 18  0  0  0  0  0  0  0  0999 V2000
   50.6340   32.7100   51.6230 O   0  0  0  0  0  0  0  0  0  0  0  0
   51.6680   31.8800   52.0390 C   0  0  0  0  0  0  0  0  0  0  0  0
   51.6430   31.3190   53.3170 C   0  0  0  0  0  0  0  0  0  0  0  0
   52.6820   30.4830   53.7360 C   0  0  0  0  0  0  0  0  0  0  0  0
   53.7650   30.1930   52.8830 C   0  0  0  0  0  0  0  0  0  0  0  0
   54.8580   29.2740   53.4090 C   0  0  0  0  0  0  0  0  0  0  0  0
   54.7610   28.0580   52.7540 F   0  0  0  0  0  0  0  0  0  0  0  0
   54.6310   29.0520   54.7570 F   0  0  0  0  0  0  0  0  0  0  0  0
   56.2990   29.7820   53.2500 C   0  0  0  0  0  0  0  0  0  0  0  0
   56.3570   31.1570   53.4040 F   0  0  0  0  0  0  0  0  0  0  0  0
   56.8170   29.4180   52.0200 F   0  0  0  0  0  0  0  0  0  0  0  0
   53.7760   30.7680   51.5930 C   0  0  0  0  0  0  0  0  0  0  0  0
   52.7330   31.6040   51.1790 C   0  0  0  0  0  0  0  0  0  0  0  0
   50.8045   31.5351   53.9953 H   0  0  0  0  0  0  0  0  0  0  0  0
   52.6536   30.0458   54.7450 H   0  0  0  0  0  0  0  0  0  0  0  0
   56.9086   29.3157   54.0380 H   0  0  0  0  0  0  0  0  0  0  0  0
   54.6109   30.5570   50.9085 H   0  0  0  0  0  0  0  0  0  0  0  0
   52.7521   32.0457   50.1717 H   0  0  0  0  0  0  0  0  0  0  0  0
  1  2  1  0
  2  3  2  0
  3  4  1  0
  4  5  2  0
  5  6  1  0
  6  7  1  0
  6  8  1  0
  6  9  1  0
  9 10  1  0
  9 11  1  0
  5 12  1  0
 12 13  2  0
 13  2  1  0
  3 14  1  0
  4 15  1  0
  9 16  1  0
 12 17  1  0
 13 18  1  0
M  CHG  1   1  -1
M  END
>  <UniqueID>  (42) 
38

>  <SMILES>  (42) 
[O-]c1ccc(C(F)(F)C(F)F)cc1

>  <Energy>  (42) 
19.2275401970199

>  <Genealogy>  (42) 
[O-]c1ccc(C(F)(F)C(F)F)cc1 (protonated)
[O-]c1ccc(C(F)(F)C(F)F)cc1 (3D coordinates assigned)
[O-]c1ccc(C(F)(F)C(F)F)cc1 (optimized conformer: 19.2275401970199 kcal/mol)

>  <smiles>  (42) 
Oc1ccc(C(F)(F)C(F)F)cc1

>  <score_type>  (42) 
oracle

>  <origin>  (42) 
adg

>  <m_score__min__energy>  (42) 
-8.0099999999999998

>  <m_primary>  (42) 
energy

$$$$
42:0
     RDKit          3D

 39 41  0  0  1  0  0  0  0  0999 V2000
   56.2600   20.7080   43.1860 O   0  0  0  0  0  0  0  0  0  0  0  0
   56.7290   21.9520   43.6180 C   0  0  0  0  0  0  0  0  0  0  0  0
   57.6790   22.1010   44.5910 C   0  0  0  0  0  0  0  0  0  0  0  0
   58.1530   23.3210   45.0300 C   0  0  0  0  0  0  0  0  0  0  0  0
   57.6290   24.4540   44.4410 C   0  0  0  0  0  0  0  0  0  0  0  0
   58.0840   25.8370   44.8530 C   0  0  0  0  0  0  0  0  0  0  0  0
   57.0010   26.5690   45.5690 C   0  0  0  0  0  0  0  0  0  0  0  0
   57.2960   27.8930   45.9980 N   0  0  0  0  0  0  0  0  0  0  0  0
   57.1730   28.9680   45.3390 C   0  0  0  0  0  0  0  0  0  0  0  0
   57.7700   30.1790   45.7100 C   0  0  0  0  0  0  0  0  0  0  0  0
   57.6090   31.3290   44.9600 C   0  0  0  0  0  0  0  0  0  0  0  0
   58.2450   32.5740   45.3730 C   0  0  0  0  0  0  0  0  0  0  0  0
   58.5950   33.5740   44.4910 C   0  0  0  0  0  0  0  0  0  0  0  0
   59.2040   34.7590   44.9080 C   0  0  0  0  0  0  0  0  0  0  0  0
   59.4850   34.9800   46.2380 C   0  0  0  0  0  0  0  0  0  0  0  0
   59.1440   33.9960   47.1270 C   0  0  0  0  0  0  0  0  0  0  0  0
   58.5360   32.8120   46.7110 C   0  0  0  0  0  0  0  0  0  0  0  0
   56.8490   31.2250   43.8570 N   0  0  0  0  0  0  0  0  0  0  0  0
   56.2580   30.0600   43.4770 C   0  0  0  0  0  0  0  0  0  0  0  0
   56.4420   28.9730   44.2330 N   0  0  0  0  0  0  0  0  0  0  0  0
   56.6710   24.2960   43.4620 C   0  0  0  0  0  0  0  0  0  0  0  0
   56.2100   23.0730   43.0360 C   0  0  0  0  0  0  0  0  0  0  0  0
   56.8320   19.8640   43.3370 H   0  0  0  0  0  0  0  0  0  0  0  0
   58.0911   21.1915   45.0526 H   0  0  0  0  0  0  0  0  0  0  0  0
   58.9178   23.3875   45.8178 H   0  0  0  0  0  0  0  0  0  0  0  0
   58.9554   25.7449   45.5180 H   0  0  0  0  0  0  0  0  0  0  0  0
   58.3464   26.4021   43.9465 H   0  0  0  0  0  0  0  0  0  0  0  0
   56.1339   26.6233   44.8943 H   0  0  0  0  0  0  0  0  0  0  0  0
   56.8309   25.9982   46.4938 H   0  0  0  0  0  0  0  0  0  0  0  0
   58.3833   30.2162   46.6224 H   0  0  0  0  0  0  0  0  0  0  0  0
   58.3869   33.4332   43.4201 H   0  0  0  0  0  0  0  0  0  0  0  0
   59.4630   35.5267   44.1640 H   0  0  0  0  0  0  0  0  0  0  0  0
   59.9650   35.9113   46.5732 H   0  0  0  0  0  0  0  0  0  0  0  0
   59.3550   34.1432   48.1965 H   0  0  0  0  0  0  0  0  0  0  0  0
   58.2805   32.0479   47.4600 H   0  0  0  0  0  0  0  0  0  0  0  0
   56.6760   32.0330   43.2400 H   0  0  0  0  0  0  0  0  0  0  0  0
   55.6418   30.0135   42.5670 H   0  0  0  0  0  0  0  0  0  0  0  0
   56.2519   25.1997   42.9955 H   0  0  0  0  0  0  0  0  0  0  0  0
   55.4451   22.9995   42.2489 H   0  0  0  0  0  0  0  0  0  0  0  0
  1  2  1  0
  2  3  2  0
  3  4  1  0
  4  5  2  0
  5  6  1  0
  6  7  1  0
  7  8  1  0
  8  9  2  0
  9 10  1  0
 10 11  2  0
 11 12  1  0
 12 13  2  0
 13 14  1  0
 14 15  2  0
 15 16  1  0
 16 17  2  0
 11 18  1  0
 18 19  1  0
 19 20  2  0
  5 21  1  0
 21 22  2  0
 22  2  1  0
 20  9  1  0
 17 12  1  0
  1 23  1  0
  3 24  1  0
  4 25  1  0
  6 26  1  0
  6 27  1  0
  7 28  1  0
  7 29  1  0
 10 30  1  0
 13 31  1  0
 14 32  1  0
 15 33  1  0
 16 34  1  0
 17 35  1  0
 18 36  1  0
 19 37  1  0
 21 38  1  0
 22 39  1  0
M  END
>  <smiles>  (43) 
Oc1ccc(CCN=c2cc(-c3ccccc3)[nH]cn2)cc1

>  <score_type>  (43) 
oracle

>  <origin>  (43) 
adg

>  <m_score__min__energy>  (43) 
-7.8200000000000003

>  <m_primary>  (43) 
energy

$$$$
43:0
     RDKit          3D

 27 29  0  0  0  0  0  0  0  0999 V2000
   62.7330   34.0400   49.4260 C   0  0  0  0  0  0  0  0  0  0  0  0
   63.9310   33.4740   49.0010 C   0  0  0  0  0  0  0  0  0  0  0  0
   63.9660   32.7250   47.8680 N   0  0  0  0  0  0  0  0  0  0  0  0
   62.8470   32.5070   47.1220 C   0  0  0  0  0  0  0  0  0  0  0  0
   61.6040   33.0540   47.5050 C   0  0  0  0  0  0  0  0  0  0  0  0
   60.3910   32.7970   46.6670 C   0  0  0  0  0  0  0  0  0  0  0  0
   59.6020   33.8330   46.1210 C   0  0  0  0  0  0  0  0  0  0  0  0
   58.4800   33.5240   45.3480 C   0  0  0  0  0  0  0  0  0  0  0  0
   58.1380   32.1900   45.1130 C   0  0  0  0  0  0  0  0  0  0  0  0
   57.0180   31.8470   44.3410 C   0  0  0  0  0  0  0  0  0  0  0  0
   56.7040   30.5000   44.1270 C   0  0  0  0  0  0  0  0  0  0  0  0
   57.5040   29.4950   44.6800 C   0  0  0  0  0  0  0  0  0  0  0  0
   58.6210   29.8300   45.4520 C   0  0  0  0  0  0  0  0  0  0  0  0
   58.9420   31.1750   45.6700 C   0  0  0  0  0  0  0  0  0  0  0  0
   60.0270   31.5050   46.4190 N   0  0  0  0  0  0  0  0  0  0  0  0
   61.5700   33.8320   48.6820 C   0  0  0  0  0  0  0  0  0  0  0  0
   62.7024   34.6476   50.3425 H   0  0  0  0  0  0  0  0  0  0  0  0
   64.8508   33.6331   49.5830 H   0  0  0  0  0  0  0  0  0  0  0  0
   64.8720   32.3080   47.5610 H   0  0  0  0  0  0  0  0  0  0  0  0
   62.9134   31.8966   46.2093 H   0  0  0  0  0  0  0  0  0  0  0  0
   59.8709   34.8838   46.3044 H   0  0  0  0  0  0  0  0  0  0  0  0
   57.8654   34.3318   44.9241 H   0  0  0  0  0  0  0  0  0  0  0  0
   56.3875   32.6356   43.9045 H   0  0  0  0  0  0  0  0  0  0  0  0
   55.8255   30.2310   43.5221 H   0  0  0  0  0  0  0  0  0  0  0  0
   57.2539   28.4378   44.5072 H   0  0  0  0  0  0  0  0  0  0  0  0
   59.2469   29.0372   45.8876 H   0  0  0  0  0  0  0  0  0  0  0  0
   60.6211   34.2774   49.0154 H   0  0  0  0  0  0  0  0  0  0  0  0
  1  2  2  0
  2  3  1  0
  3  4  2  0
  4  5  1  0
  5  6  1  0
  6  7  2  0
  7  8  1  0
  8  9  2  0
  9 10  1  0
 10 11  2  0
 11 12  1  0
 12 13  2  0
 13 14  1  0
 14 15  2  0
  5 16  2  0
 16  1  1  0
 15  6  1  0
 14  9  1  0
  1 17  1  0
  2 18  1  0
  3 19  1  0
  4 20  1  0
  7 21  1  0
  8 22  1  0
 10 23  1  0
 11 24  1  0
 12 25  1  0
 13 26  1  0
 16 27  1  0
M  CHG  1   3   1
M  END
>  <UniqueID>  (44) 
39

>  <SMILES>  (44) 
c1c[nH+]cc(-c2ccc3ccccc3n2)c1

>  <Energy>  (44) 
37.590938145567485

>  <Genealogy>  (44) 
c1c[nH+]cc(-c2ccc3ccccc3n2)c1 (protonated)
c1c[nH+]cc(-c2ccc3ccccc3n2)c1 (3D coordinates assigned)
c1c[nH+]cc(-c2ccc3ccccc3n2)c1 (optimized conformer: 37.590938145567485 kcal/mol)

>  <smiles>  (44) 
c1cncc(-c2ccc3ccccc3n2)c1

>  <score_type>  (44) 
oracle

>  <origin>  (44) 
adg

>  <m_score__min__energy>  (44) 
-5.2300000000000004

>  <m_primary>  (44) 
energy

$$$$
44:0
     RDKit          3D

 19 20  0  0  0  0  0  0  0  0999 V2000
   54.8210   29.1820   42.8730 H   0  0  0  0  0  0  0  0  0  0  0  0
   55.1480   29.5310   43.8010 N   0  0  0  0  0  0  0  0  0  0  0  0
   56.1860   30.2970   43.9010 C   0  0  0  0  0  0  0  0  0  0  0  0
   56.3380   31.2120   44.8250 O   0  0  0  0  0  0  0  0  0  0  0  0
   57.5120   31.7520   44.5680 C   0  0  0  0  0  0  0  0  0  0  0  0
   58.1160   32.8430   45.3570 C   0  0  0  0  0  0  0  0  0  0  0  0
   58.7050   33.9410   44.7060 C   0  0  0  0  0  0  0  0  0  0  0  0
   58.7144   33.9862   43.6070 H   0  0  0  0  0  0  0  0  0  0  0  0
   59.2790   34.9760   45.4510 C   0  0  0  0  0  0  0  0  0  0  0  0
   59.7404   35.8317   44.9364 H   0  0  0  0  0  0  0  0  0  0  0  0
   59.2680   34.9260   46.8470 C   0  0  0  0  0  0  0  0  0  0  0  0
   59.7189   35.7421   47.4306 H   0  0  0  0  0  0  0  0  0  0  0  0
   58.6840   33.8390   47.5010 C   0  0  0  0  0  0  0  0  0  0  0  0
   58.6755   33.8001   48.6003 H   0  0  0  0  0  0  0  0  0  0  0  0
   58.1100   32.8000   46.7620 C   0  0  0  0  0  0  0  0  0  0  0  0
   57.6520   31.9457   47.2821 H   0  0  0  0  0  0  0  0  0  0  0  0
   58.0930   31.1780   43.4880 N   0  0  0  0  0  0  0  0  0  0  0  0
   57.2410   30.2570   43.0720 N   0  0  0  0  0  0  0  0  0  0  0  0
   57.3890   29.6280   42.2510 H   0  0  0  0  0  0  0  0  0  0  0  0
  1  2  1  0
  2  3  2  0
  3  4  1  0
  4  5  1  0
  5  6  1  0
  6  7  2  0
  7  8  1  0
  7  9  1  0
  9 10  1  0
  9 11  2  0
 11 12  1  0
 11 13  1  0
 13 14  1  0
 13 15  2  0
 15 16  1  0
  5 17  2  0
 17 18  1  0
 18 19  1  0
 18  3  1  0
 15  6  1  0
M  END
>  <UniqueID>  (45) 
40

>  <SMILES>  (45) 
[H]/N=c1\[nH]nc(-c2ccccc2)o1

>  <Energy>  (45) 
55.99216581534996

>  <Genealogy>  (45) 
[H]/N=c1\[nH]nc(-c2ccccc2)o1 (cis-trans isomerization)
[H]/N=c1\[nH]nc(-c2ccccc2)o1 (3D coordinates assigned)
[H]/N=c1\[nH]nc(-c2ccccc2)o1 (optimized conformer: 55.99216581534996 kcal/mol)

>  <smiles>  (45) 
N=c1[nH]nc(-c2ccccc2)o1

>  <score_type>  (45) 
oracle

>  <origin>  (45) 
adg

>  <m_score__min__energy>  (45) 
-6.0300000000000002

>  <m_primary>  (45) 
energy

$$$$
45:0
     RDKit          3D

 40 41  0  0  0  0  0  0  0  0999 V2000
   64.1190   32.7760   48.4980 C   0  0  0  0  0  0  0  0  0  0  0  0
   62.7700   33.3180   48.1310 C   0  0  0  0  0  0  0  0  0  0  0  0
   61.8770   33.7280   49.1330 C   0  0  0  0  0  0  0  0  0  0  0  0
   60.6310   34.2620   48.7910 C   0  0  0  0  0  0  0  0  0  0  0  0
   60.2690   34.4080   47.4430 C   0  0  0  0  0  0  0  0  0  0  0  0
   58.9060   34.9250   47.0680 C   0  0  0  0  0  0  0  0  0  0  0  0
   58.0190   33.8240   46.6650 N   0  0  0  0  0  0  0  0  0  0  0  0
   57.8870   33.7040   45.2000 C   0  0  0  0  0  0  0  0  0  0  0  0
   57.2650   32.3460   44.8320 C   0  0  1  0  0  0  0  0  0  0  0  0
   57.7630   31.8410   43.4500 C   0  0  0  0  0  0  0  0  0  0  0  0
   57.7010   30.3680   43.3620 N   0  0  2  0  0  0  0  0  0  0  0  0
   56.3050   29.8880   43.3280 C   0  0  0  0  0  0  0  0  0  0  0  0
   58.4740   29.7260   44.4570 C   0  0  0  0  0  0  0  0  0  0  0  0
   58.6080   30.6280   45.7000 C   0  0  0  0  0  0  0  0  0  0  0  0
   57.4450   31.4070   45.8870 O   0  0  0  0  0  0  0  0  0  0  0  0
   61.1690   34.0120   46.4410 C   0  0  0  0  0  0  0  0  0  0  0  0
   62.4150   33.4790   46.7830 C   0  0  0  0  0  0  0  0  0  0  0  0
   64.2133   32.7381   49.5933 H   0  0  0  0  0  0  0  0  0  0  0  0
   64.2318   31.7627   48.0850 H   0  0  0  0  0  0  0  0  0  0  0  0
   64.9015   33.4295   48.0850 H   0  0  0  0  0  0  0  0  0  0  0  0
   62.1585   33.6288   50.1917 H   0  0  0  0  0  0  0  0  0  0  0  0
   59.9312   34.5691   49.5822 H   0  0  0  0  0  0  0  0  0  0  0  0
   58.4667   35.4428   47.9334 H   0  0  0  0  0  0  0  0  0  0  0  0
   59.0141   35.6171   46.2199 H   0  0  0  0  0  0  0  0  0  0  0  0
   58.4440   32.9380   47.0260 H   0  0  0  0  0  0  0  0  0  0  0  0
   57.2417   34.5125   44.8259 H   0  0  0  0  0  0  0  0  0  0  0  0
   58.8847   33.7775   44.7426 H   0  0  0  0  0  0  0  0  0  0  0  0
   56.1788   32.4759   44.7165 H   0  0  0  0  0  0  0  0  0  0  0  0
   57.1303   32.2739   42.6612 H   0  0  0  0  0  0  0  0  0  0  0  0
   58.8105   32.1523   43.3238 H   0  0  0  0  0  0  0  0  0  0  0  0
   58.1370   30.0890   42.4500 H   0  0  0  0  0  0  0  0  0  0  0  0
   55.9358   29.7610   44.3564 H   0  0  0  0  0  0  0  0  0  0  0  0
   55.6776   30.6220   42.8011 H   0  0  0  0  0  0  0  0  0  0  0  0
   56.2617   28.9233   42.8011 H   0  0  0  0  0  0  0  0  0  0  0  0
   57.9634   28.7968   44.7501 H   0  0  0  0  0  0  0  0  0  0  0  0
   59.4879   29.5312   44.0775 H   0  0  0  0  0  0  0  0  0  0  0  0
   58.7650   29.9970   46.5873 H   0  0  0  0  0  0  0  0  0  0  0  0
   59.4630   31.3041   45.5522 H   0  0  0  0  0  0  0  0  0  0  0  0
   60.8924   34.1217   45.3820 H   0  0  0  0  0  0  0  0  0  0  0  0
   63.1204   33.1845   45.9920 H   0  0  0  0  0  0  0  0  0  0  0  0
  1  2  1  0
  2  3  2  0
  3  4  1  0
  4  5  2  0
  5  6  1  0
  6  7  1  0
  7  8  1  0
  8  9  1  0
  9 10  1  0
 10 11  1  0
 11 12  1  0
 11 13  1  0
 13 14  1  0
 14 15  1  0
  5 16  1  0
 16 17  2  0
 17  2  1  0
 15  9  1  0
  1 18  1  0
  1 19  1  0
  1 20  1  0
  3 21  1  0
  4 22  1  0
  6 23  1  0
  6 24  1  0
  7 25  1  0
  8 26  1  0
  8 27  1  0
  9 28  1  6
 10 29  1  0
 10 30  1  0
 11 31  1  6
 12 32  1  0
 12 33  1  0
 12 34  1  0
 13 35  1  0
 13 36  1  0
 14 37  1  0
 14 38  1  0
 16 39  1  0
 17 40  1  0
M  CHG  1  11   1
M  END
>  <UniqueID>  (46) 
41

>  <SMILES>  (46) 
Cc1ccc(CNC[C@H]2C[N@H+](C)CCO2)cc1

>  <Energy>  (46) 
48.454035733105506

>  <Genealogy>  (46) 
Cc1ccc(CNCC2C[NH+](C)CCO2)cc1 (protonated)
Cc1ccc(CNC[C@H]2C[N@H+](C)CCO2)cc1 (chirality)
Cc1ccc(CNC[C@H]2C[N@H+](C)CCO2)cc1 (3D coordinates assigned)
Cc1ccc(CNC[C@H]2C[N@H+](C)CCO2)cc1 (nonaromatic ring conformer: 48.454035733105506 kcal/mol)

>  <smiles>  (46) 
Cc1ccc(CNCC2CN(C)CCO2)cc1

>  <score_type>  (46) 
oracle

>  <origin>  (46) 
adg

>  <m_score__min__energy>  (46) 
-5

>  <m_primary>  (46) 
energy

$$$$
46:0
     RDKit          3D

 41 43  0  0  0  0  0  0  0  0999 V2000
   59.5190   33.5440   52.0140 C   0  0  0  0  0  0  0  0  0  0  0  0
   60.3030   33.0870   50.8650 N   0  0  0  0  0  0  0  0  0  0  0  0
   61.7600   33.0170   50.9770 C   0  0  0  0  0  0  0  0  0  0  0  0
   59.6940   33.0430   49.5610 C   0  0  0  0  0  0  0  0  0  0  0  0
   60.2210   33.7440   48.6000 N   0  0  0  0  0  0  0  0  0  0  0  0
   59.6590   33.8460   47.2840 C   0  0  0  0  0  0  0  0  0  0  0  0
   58.6570   33.0250   46.9030 C   0  0  0  0  0  0  0  0  0  0  0  0
   58.0990   33.1140   45.5290 C   0  0  0  0  0  0  0  0  0  0  0  0
   57.1960   32.3180   45.1570 O   0  0  0  0  0  0  0  0  0  0  0  0
   58.6420   34.1120   44.5450 C   0  0  0  0  0  0  0  0  0  0  0  0
   59.2720   35.3030   45.2720 C   0  0  0  0  0  0  0  0  0  0  0  0
   60.2820   34.8220   46.3180 C   0  0  0  0  0  0  0  0  0  0  0  0
   58.1650   31.9470   47.8500 C   0  0  1  0  0  0  0  0  0  0  0  0
   58.8080   30.6120   47.4910 C   0  0  0  0  0  0  0  0  0  0  0  0
   60.0670   30.2410   48.0040 C   0  0  0  0  0  0  0  0  0  0  0  0
   60.6320   29.0050   47.6730 C   0  0  0  0  0  0  0  0  0  0  0  0
   59.9500   28.1250   46.8280 C   0  0  0  0  0  0  0  0  0  0  0  0
   60.7230   26.4390   46.3770 Br  0  0  0  0  0  0  0  0  0  0  0  0
   58.7000   28.4810   46.3150 C   0  0  0  0  0  0  0  0  0  0  0  0
   58.1310   29.7160   46.6440 C   0  0  0  0  0  0  0  0  0  0  0  0
   58.3610   32.3550   49.3390 C   0  0  1  0  0  0  0  0  0  0  0  0
   58.1870   31.1940   50.2350 C   0  0  0  0  0  0  0  0  0  0  0  0
   58.0530   30.2860   50.9390 N   0  0  0  0  0  0  0  0  0  0  0  0
   60.0258   33.2486   52.9445 H   0  0  0  0  0  0  0  0  0  0  0  0
   59.4234   34.6393   51.9804 H   0  0  0  0  0  0  0  0  0  0  0  0
   58.5188   33.0874   51.9804 H   0  0  0  0  0  0  0  0  0  0  0  0
   62.0459   33.0033   52.0391 H   0  0  0  0  0  0  0  0  0  0  0  0
   62.1217   32.1004   50.4880 H   0  0  0  0  0  0  0  0  0  0  0  0
   62.2079   33.8947   50.4880 H   0  0  0  0  0  0  0  0  0  0  0  0
   59.4059   33.6248   43.9212 H   0  0  0  0  0  0  0  0  0  0  0  0
   57.8142   34.4777   43.9197 H   0  0  0  0  0  0  0  0  0  0  0  0
   59.7865   35.9427   44.5398 H   0  0  0  0  0  0  0  0  0  0  0  0
   58.4776   35.8696   45.7798 H   0  0  0  0  0  0  0  0  0  0  0  0
   61.1208   34.3295   45.8042 H   0  0  0  0  0  0  0  0  0  0  0  0
   60.6292   35.6962   46.8883 H   0  0  0  0  0  0  0  0  0  0  0  0
   57.0784   31.8259   47.7291 H   0  0  0  0  0  0  0  0  0  0  0  0
   60.6094   30.9285   48.6697 H   0  0  0  0  0  0  0  0  0  0  0  0
   61.6154   28.7249   48.0787 H   0  0  0  0  0  0  0  0  0  0  0  0
   58.1620   27.7885   45.6509 H   0  0  0  0  0  0  0  0  0  0  0  0
   57.1461   29.9886   46.2370 H   0  0  0  0  0  0  0  0  0  0  0  0
   57.5790   33.0869   49.5897 H   0  0  0  0  0  0  0  0  0  0  0  0
  1  2  1  0
  2  3  1  0
  2  4  1  0
  4  5  2  0
  5  6  1  0
  6  7  2  0
  7  8  1  0
  8  9  2  0
  8 10  1  0
 10 11  1  0
 11 12  1  0
  7 13  1  0
 13 14  1  0
 14 15  2  0
 15 16  1  0
 16 17  2  0
 17 18  1  0
 17 19  1  0
 19 20  2  0
 13 21  1  0
 21 22  1  0
 22 23  3  0
 21  4  1  0
 12  6  1  0
 20 14  1  0
  1 24  1  0
  1 25  1  0
  1 26  1  0
  3 27  1  0
  3 28  1  0
  3 29  1  0
 10 30  1  0
 10 31  1  0
 11 32  1  0
 11 33  1  0
 12 34  1  0
 12 35  1  0
 13 36  1  1
 15 37  1  0
 16 38  1  0
 19 39  1  0
 20 40  1  0
 21 41  1  1
M  END
>  <UniqueID>  (47) 
42

>  <SMILES>  (47) 
CN(C)C1=NC2=C(C(=O)CCC2)[C@@H](c2ccc(Br)cc2)[C@H]1C#N

>  <Energy>  (47) 
45.99254759198788

>  <Genealogy>  (47) 
CN(C)C1=NC2=C(C(=O)CCC2)[C@@H](c2ccc(Br)cc2)[C@H]1C#N (chirality)
CN(C)C1=NC2=C(C(=O)CCC2)[C@@H](c2ccc(Br)cc2)[C@H]1C#N (3D coordinates assigned)
CN(C)C1=NC2=C(C(=O)CCC2)[C@@H](c2ccc(Br)cc2)[C@H]1C#N (nonaromatic ring conformer: 45.99254759198788 kcal/mol)

>  <smiles>  (47) 
CN(C)C1=NC2=C(C(=O)CCC2)C(c2ccc(Br)cc2)C1C#N

>  <score_type>  (47) 
oracle

>  <origin>  (47) 
adg

>  <m_score__min__energy>  (47) 
-7.1500000000000004

>  <m_primary>  (47) 
energy

$$$$
47:0
     RDKit          3D

 40 42  0  0  0  0  0  0  0  0999 V2000
   63.8690   34.1720   51.8180 C   0  0  0  0  0  0  0  0  0  0  0  0
   63.7510   34.6320   50.4770 O   0  0  0  0  0  0  0  0  0  0  0  0
   62.8530   34.1080   49.5350 C   0  0  0  0  0  0  0  0  0  0  0  0
   63.2810   33.5010   48.3400 C   0  0  0  0  0  0  0  0  0  0  0  0
   62.3480   32.9950   47.4320 C   0  0  0  0  0  0  0  0  0  0  0  0
   60.9690   33.0770   47.6980 C   0  0  0  0  0  0  0  0  0  0  0  0
   60.0190   32.5500   46.7500 N   0  0  0  0  0  0  0  0  0  0  0  0
   59.6100   31.2670   46.6280 C   0  0  0  0  0  0  0  0  0  0  0  0
   58.7000   31.1920   45.5900 C   0  0  0  0  0  0  0  0  0  0  0  0
   57.9890   29.9860   45.1140 C   0  0  0  0  0  0  0  0  0  0  0  0
   56.7560   29.8600   45.3410 O   0  0  0  0  0  0  0  0  0  0  0  0
   58.6870   28.9780   44.3620 N   0  0  0  0  0  0  0  0  0  0  0  0
   58.1870   27.6460   44.1540 C   0  0  0  0  0  0  0  0  0  0  0  0
   58.2310   27.0860   42.8680 C   0  0  0  0  0  0  0  0  0  0  0  0
   57.7700   25.7850   42.6450 C   0  0  0  0  0  0  0  0  0  0  0  0
   57.2760   25.0250   43.7090 C   0  0  0  0  0  0  0  0  0  0  0  0
   56.6500   23.2460   43.4040 Br  0  0  0  0  0  0  0  0  0  0  0  0
   57.2490   25.5650   44.9980 C   0  0  0  0  0  0  0  0  0  0  0  0
   57.7070   26.8660   45.2240 C   0  0  0  0  0  0  0  0  0  0  0  0
   58.6020   32.4920   45.1170 C   0  0  0  0  0  0  0  0  0  0  0  0
   57.7480   32.9810   43.9930 C   0  0  0  0  0  0  0  0  0  0  0  0
   59.4120   33.2940   45.8350 N   0  0  0  0  0  0  0  0  0  0  0  0
   60.5470   33.6910   48.8940 C   0  0  0  0  0  0  0  0  0  0  0  0
   61.4830   34.1980   49.7990 C   0  0  0  0  0  0  0  0  0  0  0  0
   63.6565   35.0004   52.5098 H   0  0  0  0  0  0  0  0  0  0  0  0
   63.1509   33.3568   51.9905 H   0  0  0  0  0  0  0  0  0  0  0  0
   64.8908   33.8031   51.9905 H   0  0  0  0  0  0  0  0  0  0  0  0
   64.3560   33.4245   48.1197 H   0  0  0  0  0  0  0  0  0  0  0  0
   62.6952   32.5273   46.4989 H   0  0  0  0  0  0  0  0  0  0  0  0
   59.9452   30.4242   47.2504 H   0  0  0  0  0  0  0  0  0  0  0  0
   59.5560   29.2560   43.8540 H   0  0  0  0  0  0  0  0  0  0  0  0
   58.6310   27.6748   42.0294 H   0  0  0  0  0  0  0  0  0  0  0  0
   57.7961   25.3591   41.6311 H   0  0  0  0  0  0  0  0  0  0  0  0
   56.8664   24.9646   45.8365 H   0  0  0  0  0  0  0  0  0  0  0  0
   57.6925   27.2826   46.2420 H   0  0  0  0  0  0  0  0  0  0  0  0
   56.8613   33.4887   44.4003 H   0  0  0  0  0  0  0  0  0  0  0  0
   58.3233   33.6866   43.3755 H   0  0  0  0  0  0  0  0  0  0  0  0
   57.4307   32.1277   43.3755 H   0  0  0  0  0  0  0  0  0  0  0  0
   59.4728   33.7718   49.1168 H   0  0  0  0  0  0  0  0  0  0  0  0
   61.1383   34.6731   50.7293 H   0  0  0  0  0  0  0  0  0  0  0  0
  1  2  1  0
  2  3  1  0
  3  4  2  0
  4  5  1  0
  5  6  2  0
  6  7  1  0
  7  8  1  0
  8  9  2  0
  9 10  1  0
 10 11  2  0
 10 12  1  0
 12 13  1  0
 13 14  2  0
 14 15  1  0
 15 16  2  0
 16 17  1  0
 16 18  1  0
 18 19  2  0
  9 20  1  0
 20 21  1  0
 20 22  2  0
  6 23  1  0
 23 24  2  0
 24  3  1  0
 22  7  1  0
 19 13  1  0
  1 25  1  0
  1 26  1  0
  1 27  1  0
  4 28  1  0
  5 29  1  0
  8 30  1  0
 12 31  1  0
 14 32  1  0
 15 33  1  0
 18 34  1  0
 19 35  1  0
 21 36  1  0
 21 37  1  0
 21 38  1  0
 23 39  1  0
 24 40  1  0
M  END
>  <UniqueID>  (48) 
43

>  <SMILES>  (48) 
COc1ccc(-n2cc(C(=O)Nc3ccc(Br)cc3)c(C)n2)cc1

>  <Energy>  (48) 
77.26321234634393

>  <Genealogy>  (48) 
COc1ccc(-n2cc(C(=O)Nc3ccc(Br)cc3)c(C)n2)cc1 (3D coordinates assigned)
COc1ccc(-n2cc(C(=O)Nc3ccc(Br)cc3)c(C)n2)cc1 (optimized conformer: 77.26321234634393 kcal/mol)

>  <smiles>  (48) 
COc1ccc(-n2cc(C(=O)Nc3ccc(Br)cc3)c(C)n2)cc1

>  <score_type>  (48) 
oracle

>  <origin>  (48) 
adg

>  <m_score__min__energy>  (48) 
-7.3200000000000003

>  <m_primary>  (48) 
energy

$$$$
48:0
     RDKit          3D

 39 40  0  0  0  0  0  0  0  0999 V2000
   57.8190   32.3350   41.6120 C   0  0  0  0  0  0  0  0  0  0  0  0
   57.0350   31.4220   42.5480 C   0  0  0  0  0  0  0  0  0  0  0  0
   57.9370   30.6100   43.3640 N   0  0  0  0  0  0  0  0  0  0  0  0
   57.4850   29.9730   44.5670 C   0  0  0  0  0  0  0  0  0  0  0  0
   56.2690   30.0490   44.8960 O   0  0  0  0  0  0  0  0  0  0  0  0
   58.4670   29.1960   45.4170 C   0  0  2  0  0  0  0  0  0  0  0  0
   57.7710   28.2900   46.4530 C   0  0  0  0  0  0  0  0  0  0  0  0
   58.7580   27.8670   47.5310 C   0  0  0  0  0  0  0  0  0  0  0  0
   59.1840   29.0930   48.3450 C   0  0  0  0  0  0  0  0  0  0  0  0
   59.4480   30.2870   47.5100 N   0  0  0  0  0  0  0  0  0  0  0  0
   58.8990   31.5680   47.9970 C   0  0  0  0  0  0  0  0  0  0  0  0
   58.7740   32.6140   46.9150 C   0  0  0  0  0  0  0  0  0  0  0  0
   57.5410   32.8760   46.3010 C   0  0  0  0  0  0  0  0  0  0  0  0
   57.4420   33.8660   45.3220 C   0  0  0  0  0  0  0  0  0  0  0  0
   58.5790   34.5970   44.9710 C   0  0  0  0  0  0  0  0  0  0  0  0
   59.7650   34.3440   45.5820 N   0  0  0  0  0  0  0  0  0  0  0  0
   59.8880   33.3810   46.5350 C   0  0  0  0  0  0  0  0  0  0  0  0
   59.5560   30.1180   46.0430 C   0  0  0  0  0  0  0  0  0  0  0  0
   58.4224   33.0376   42.2055 H   0  0  0  0  0  0  0  0  0  0  0  0
   58.4815   31.7279   40.9776 H   0  0  0  0  0  0  0  0  0  0  0  0
   57.1188   32.8982   40.9776 H   0  0  0  0  0  0  0  0  0  0  0  0
   56.4076   32.0377   43.2093 H   0  0  0  0  0  0  0  0  0  0  0  0
   56.4106   30.7500   41.9409 H   0  0  0  0  0  0  0  0  0  0  0  0
   58.9360   30.4940   43.0790 H   0  0  0  0  0  0  0  0  0  0  0  0
   58.9980   28.5110   44.7396 H   0  0  0  0  0  0  0  0  0  0  0  0
   56.9403   28.8414   46.9176 H   0  0  0  0  0  0  0  0  0  0  0  0
   57.3893   27.3923   45.9447 H   0  0  0  0  0  0  0  0  0  0  0  0
   58.2809   27.1328   48.1969 H   0  0  0  0  0  0  0  0  0  0  0  0
   59.6432   27.4149   47.0598 H   0  0  0  0  0  0  0  0  0  0  0  0
   58.3815   29.3354   49.0572 H   0  0  0  0  0  0  0  0  0  0  0  0
   60.1251   28.8360   48.8532 H   0  0  0  0  0  0  0  0  0  0  0  0
   57.9007   31.3819   48.4197 H   0  0  0  0  0  0  0  0  0  0  0  0
   59.6009   31.9587   48.7484 H   0  0  0  0  0  0  0  0  0  0  0  0
   56.6499   32.3002   46.5914 H   0  0  0  0  0  0  0  0  0  0  0  0
   56.4782   34.0683   44.8319 H   0  0  0  0  0  0  0  0  0  0  0  0
   58.5138   35.3781   44.1992 H   0  0  0  0  0  0  0  0  0  0  0  0
   60.8639   33.2021   47.0101 H   0  0  0  0  0  0  0  0  0  0  0  0
   59.4757   31.1107   45.5759 H   0  0  0  0  0  0  0  0  0  0  0  0
   60.5242   29.6311   45.8546 H   0  0  0  0  0  0  0  0  0  0  0  0
  1  2  1  0
  2  3  1  0
  3  4  1  0
  4  5  2  0
  4  6  1  0
  6  7  1  0
  7  8  1  0
  8  9  1  0
  9 10  1  0
 10 11  1  0
 11 12  1  0
 12 13  2  0
 13 14  1  0
 14 15  2  0
 15 16  1  0
 16 17  2  0
 10 18  1  0
 18  6  1  0
 17 12  1  0
  1 19  1  0
  1 20  1  0
  1 21  1  0
  2 22  1  0
  2 23  1  0
  3 24  1  0
  6 25  1  6
  7 26  1  0
  7 27  1  0
  8 28  1  0
  8 29  1  0
  9 30  1  0
  9 31  1  0
 11 32  1  0
 11 33  1  0
 13 34  1  0
 14 35  1  0
 15 36  1  0
 17 37  1  0
 18 38  1  0
 18 39  1  0
M  END
>  <UniqueID>  (49) 
44

>  <SMILES>  (49) 
CCNC(=O)[C@@H]1CCCN(Cc2cccnc2)C1

>  <Energy>  (49) 
48.0216065450852

>  <Genealogy>  (49) 
CCNC(=O)[C@@H]1CCCN(Cc2cccnc2)C1 (chirality)
CCNC(=O)[C@@H]1CCCN(Cc2cccnc2)C1 (3D coordinates assigned)
CCNC(=O)[C@@H]1CCCN(Cc2cccnc2)C1 (nonaromatic ring conformer: 48.0216065450852 kcal/mol)

>  <smiles>  (49) 
CCNC(=O)C1CCCN(Cc2cccnc2)C1

>  <score_type>  (49) 
oracle

>  <origin>  (49) 
adg

>  <m_score__min__energy>  (49) 
-6.7800000000000002

>  <m_primary>  (49) 
energy

$$$$
49:0
     RDKit          3D

 35 36  0  0  0  0  0  0  0  0999 V2000
   59.9780   34.5880   48.0880 C   0  0  0  0  0  0  0  0  0  0  0  0
   59.1970   34.9610   46.8340 C   0  0  0  0  0  0  0  0  0  0  0  0
   58.6120   33.7370   46.1820 C   0  0  0  0  0  0  0  0  0  0  0  0
   58.6710   32.4920   46.8300 C   0  0  0  0  0  0  0  0  0  0  0  0
   58.1450   31.3520   46.2160 C   0  0  0  0  0  0  0  0  0  0  0  0
   57.5590   31.4420   44.9460 C   0  0  0  0  0  0  0  0  0  0  0  0
   56.9130   30.0130   44.1430 S   0  0  0  0  0  0  0  0  0  0  0  0
   55.8840   29.3410   45.0090 O   0  0  0  0  0  0  0  0  0  0  0  0
   56.2520   30.4430   42.8630 O   0  0  0  0  0  0  0  0  0  0  0  0
   58.1970   28.8970   43.7690 N   0  0  0  0  0  0  0  0  0  0  0  0
   58.9280   28.5030   44.9750 C   0  0  0  0  0  0  0  0  0  0  0  0
   58.2820   27.3190   45.6350 C   0  0  0  0  0  0  0  0  0  0  0  0
   58.8800   26.6020   46.6700 C   0  0  0  0  0  0  0  0  0  0  0  0
   57.8250   25.3690   47.1200 S   0  0  0  0  0  0  0  0  0  0  0  0
   56.6570   25.7960   45.9870 C   0  0  0  0  0  0  0  0  0  0  0  0
   55.3930   25.0460   45.7370 C   0  0  0  0  0  0  0  0  0  0  0  0
   57.0590   26.8550   45.2550 N   0  0  0  0  0  0  0  0  0  0  0  0
   57.5080   32.6790   44.2940 C   0  0  0  0  0  0  0  0  0  0  0  0
   58.0380   33.8200   44.9040 C   0  0  0  0  0  0  0  0  0  0  0  0
   59.3957   34.8661   48.9789 H   0  0  0  0  0  0  0  0  0  0  0  0
   60.1640   33.5039   48.0952 H   0  0  0  0  0  0  0  0  0  0  0  0
   60.9381   35.1248   48.0952 H   0  0  0  0  0  0  0  0  0  0  0  0
   58.3823   35.6474   47.1079 H   0  0  0  0  0  0  0  0  0  0  0  0
   59.8834   35.4440   46.1230 H   0  0  0  0  0  0  0  0  0  0  0  0
   59.1333   32.4140   47.8251 H   0  0  0  0  0  0  0  0  0  0  0  0
   58.1911   30.3811   46.7311 H   0  0  0  0  0  0  0  0  0  0  0  0
   59.9607   28.2422   44.7002 H   0  0  0  0  0  0  0  0  0  0  0  0
   58.9175   29.3461   45.6815 H   0  0  0  0  0  0  0  0  0  0  0  0
   59.8657   26.8054   47.1139 H   0  0  0  0  0  0  0  0  0  0  0  0
   54.9326   24.7728   46.6979 H   0  0  0  0  0  0  0  0  0  0  0  0
   54.6986   25.6783   45.1643 H   0  0  0  0  0  0  0  0  0  0  0  0
   55.6152   24.1335   45.1643 H   0  0  0  0  0  0  0  0  0  0  0  0
   56.4940   27.2700   44.4810 H   0  0  0  0  0  0  0  0  0  0  0  0
   57.0489   32.7541   43.2972 H   0  0  0  0  0  0  0  0  0  0  0  0
   58.0049   34.7867   44.3801 H   0  0  0  0  0  0  0  0  0  0  0  0
  1  2  1  0
  2  3  1  0
  3  4  2  0
  4  5  1  0
  5  6  2  0
  6  7  1  0
  7  8  2  0
  7  9  2  0
  7 10  1  0
 10 11  1  0
 11 12  1  0
 12 13  2  0
 13 14  1  0
 14 15  1  0
 15 16  1  0
 15 17  2  0
  6 18  1  0
 18 19  2  0
 19  3  1  0
 17 12  1  0
  1 20  1  0
  1 21  1  0
  1 22  1  0
  2 23  1  0
  2 24  1  0
  4 25  1  0
  5 26  1  0
 11 27  1  0
 11 28  1  0
 13 29  1  0
 16 30  1  0
 16 31  1  0
 16 32  1  0
 17 33  1  0
 18 34  1  0
 19 35  1  0
M  CHG  2  10  -1  17   1
M  END
>  <UniqueID>  (50) 
45

>  <SMILES>  (50) 
CCc1ccc(S(=O)(=O)[N-]Cc2csc(C)[nH+]2)cc1

>  <Energy>  (50) 
52.8301711377376

>  <Genealogy>  (50) 
CCc1ccc(S(=O)(=O)[N-]Cc2csc(C)[nH+]2)cc1 (protonated)
CCc1ccc(S(=O)(=O)[N-]Cc2csc(C)[nH+]2)cc1 (3D coordinates assigned)
CCc1ccc(S(=O)(=O)[N-]Cc2csc(C)[nH+]2)cc1 (optimized conformer: 52.8301711377376 kcal/mol)

>  <smiles>  (50) 
CCc1ccc(S(=O)(=O)NCc2csc(C)n2)cc1

>  <score_type>  (50) 
oracle

>  <origin>  (50) 
adg

>  <m_score__min__energy>  (50) 
-7.4900000000000002

>  <m_primary>  (50) 
energy

$$$$
